data_functionalizedCrystal
_audit_creation_method	'EQeq! by Chris Wilmer'
_symmetry_space_group_name_H-M	'P1'
_symmetry_Int_Tables_number	1
_symmetry_cell_setting	triclinic
loop_
_symmetry_equiv_pos_as_xyz
  x,y,z
_cell_length_a	13.4766
_cell_length_b	14.4101
_cell_length_c	15.9898
_cell_angle_alpha	116.782
_cell_angle_beta	96.7664
_cell_angle_gamma	90
loop_
_atom_site_label
_atom_site_type_symbol
_atom_site_fract_x
_atom_site_fract_y
_atom_site_fract_z
_atom_site_charge
Mof_Dy	Dy	0.03673	0.52329	0.63344	1.874
Mof_Dy	Dy	0.46327	0.88985	0.36656	1.874
Mof_Dy	Dy	0.96327	0.47671	0.36656	1.874
Mof_Dy	Dy	0.53673	0.11015	0.63344	1.874
Mof_H 	H 	0.2834	0.2981	0.5292	0.017
Mof_H 	H 	0.4243	0.112	0.312	0.052
Mof_H 	H 	0.2306	0.3095	0.2836	0.06
Mof_H 	H 	0.4083	0.0544	0.0306	0.107
Mof_H 	H 	0.4579	0.0231	0.8864	0.012
Mof_H 	H 	0.4032	0.3136	0.9342	0.007
Mof_H 	H 	0.3434	0.3401	0.0734	0.101
Mof_H 	H 	0.2166	0.7689	0.4708	0.017
Mof_H 	H 	0.0757	0.8	0.688	0.052
Mof_H 	H 	0.2694	0.0259	0.7164	0.059
Mof_H 	H 	0.0917	0.0238	0.9694	0.108
Mof_H 	H 	0.0421	0.1367	0.1136	0.01
Mof_H 	H 	0.0968	0.3794	0.0658	0.005
Mof_H 	H 	0.1566	0.2667	0.9266	0.103
Mof_H 	H 	0.7166	0.7019	0.4708	0.017
Mof_H 	H 	0.5757	0.888	0.688	0.052
Mof_H 	H 	0.7694	0.6905	0.7164	0.06
Mof_H 	H 	0.5917	0.9456	0.9694	0.107
Mof_H 	H 	0.5421	0.9769	0.1136	0.012
Mof_H 	H 	0.5968	0.6864	0.0658	0.007
Mof_H 	H 	0.6566	0.6599	0.9266	0.101
Mof_H 	H 	0.7834	0.2311	0.5292	0.017
Mof_H 	H 	0.9243	0.2	0.312	0.052
Mof_H 	H 	0.7306	0.9741	0.2836	0.059
Mof_H 	H 	0.9083	0.9762	0.0306	0.108
Mof_H 	H 	0.9579	0.8633	0.8864	0.01
Mof_H 	H 	0.9032	0.6206	0.9342	0.005
Mof_H 	H 	0.8434	0.7333	0.0734	0.103
Mof_C 	C 	0.2407	0.3135	0.4114	-0.144
Mof_C 	C 	0.2934	0.2734	0.4664	0.067
Mof_C 	C 	0.3609	0.1969	0.4294	-0.135
Mof_C 	C 	0.3788	0.1629	0.337	-0.03
Mof_C 	C 	0.3309	0.2027	0.2826	0.054
Mof_C 	C 	0.2619	0.2804	0.3204	-0.013
Mof_C 	C 	0.416	0.1564	0.4938	0.442
Mof_C 	C 	0.1653	0.393	0.4498	0.477
Mof_C 	C 	0.3757	0.204	0.0692	0.174
Mof_C 	C 	0.4074	0.1069	0.0118	-0.188
Mof_C 	C 	0.4382	0.0888	0.9258	0.092
Mof_C 	C 	0.4398	0.1653	0.8982	-0.144
Mof_C 	C 	0.4044	0.2613	0.9532	0.087
Mof_C 	C 	0.3705	0.2772	0.0376	-0.193
Mof_C 	C 	0.4786	0.1478	0.8064	0.362
Mof_C 	C 	0.2593	0.9021	0.5886	-0.145
Mof_C 	C 	0.2066	0.807	0.5336	0.068
Mof_C 	C 	0.1391	0.7675	0.5706	-0.135
Mof_C 	C 	0.1212	0.8259	0.663	-0.03
Mof_C 	C 	0.1691	0.9201	0.7174	0.053
Mof_C 	C 	0.2381	0.96	0.6796	-0.012
Mof_C 	C 	0.084	0.6626	0.5062	0.442
Mof_C 	C 	0.3347	0.9432	0.5502	0.477
Mof_C 	C 	0.1243	0.1348	0.9308	0.179
Mof_C 	C 	0.0926	0.0951	0.9882	-0.196
Mof_C 	C 	0.0618	0.163	0.0742	0.1
Mof_C 	C 	0.0602	0.2671	0.1018	-0.149
Mof_C 	C 	0.0956	0.3081	0.0468	0.094
Mof_C 	C 	0.1295	0.2396	0.9624	-0.2
Mof_C 	C 	0.0214	0.3414	0.1936	0.364
Mof_C 	C 	0.7593	0.6865	0.5886	-0.144
Mof_C 	C 	0.7066	0.7266	0.5336	0.067
Mof_C 	C 	0.6391	0.8031	0.5706	-0.135
Mof_C 	C 	0.6212	0.8371	0.663	-0.03
Mof_C 	C 	0.6691	0.7973	0.7174	0.054
Mof_C 	C 	0.7381	0.7196	0.6796	-0.013
Mof_C 	C 	0.584	0.8436	0.5062	0.442
Mof_C 	C 	0.8347	0.607	0.5502	0.477
Mof_C 	C 	0.6243	0.796	0.9308	0.174
Mof_C 	C 	0.5926	0.8931	0.9882	-0.188
Mof_C 	C 	0.5618	0.9112	0.0742	0.092
Mof_C 	C 	0.5602	0.8347	0.1018	-0.144
Mof_C 	C 	0.5956	0.7387	0.0468	0.087
Mof_C 	C 	0.6295	0.7228	0.9624	-0.193
Mof_C 	C 	0.5214	0.8522	0.1936	0.362
Mof_C 	C 	0.7407	0.0979	0.4114	-0.145
Mof_C 	C 	0.7934	0.193	0.4664	0.068
Mof_C 	C 	0.8609	0.2325	0.4294	-0.135
Mof_C 	C 	0.8788	0.1741	0.337	-0.03
Mof_C 	C 	0.8309	0.0799	0.2826	0.053
Mof_C 	C 	0.7619	0.04	0.3204	-0.012
Mof_C 	C 	0.916	0.3374	0.4938	0.442
Mof_C 	C 	0.6653	0.0568	0.4498	0.477
Mof_C 	C 	0.8757	0.8652	0.0692	0.179
Mof_C 	C 	0.9074	0.9049	0.0118	-0.196
Mof_C 	C 	0.9382	0.837	0.9258	0.1
Mof_C 	C 	0.9398	0.7329	0.8982	-0.149
Mof_C 	C 	0.9044	0.6919	0.9532	0.094
Mof_C 	C 	0.8705	0.7604	0.0376	-0.2
Mof_C 	C 	0.9786	0.6586	0.8064	0.364
Mof_N 	N 	0.3585	0.1705	0.19	-0.082
Mof_N 	N 	0.3451	0.2339	0.1592	-0.102
Mof_N 	N 	0.1415	0.9805	0.81	-0.081
Mof_N 	N 	0.1549	0.0747	0.8408	-0.103
Mof_N 	N 	0.6415	0.8295	0.81	-0.082
Mof_N 	N 	0.6549	0.7661	0.8408	-0.102
Mof_N 	N 	0.8585	0.0195	0.19	-0.081
Mof_N 	N 	0.8451	0.9253	0.1592	-0.103
Mof_O 	O 	0.125	0.4304	0.3988	-0.487
Mof_O 	O 	0.1489	0.41741	0.53302	-0.526
Mof_O 	O 	0.4336	0.21268	0.57976	-0.475
Mof_O 	O 	0.4467	0.06548	0.45536	-0.579
Mof_O 	O 	0.5167	0.0639	0.7622	-0.434
Mof_O 	O 	0.468	0.2142	0.7788	-0.452
Mof_O 	O 	0.375	0.0316	0.6012	-0.487
Mof_O 	O 	0.3511	0.88439	0.46698	-0.526
Mof_O 	O 	0.0664	0.63292	0.42024	-0.475
Mof_O 	O 	0.0533	0.61012	0.54464	-0.579
Mof_O 	O 	0.9833	0.3017	0.2378	-0.435
Mof_O 	O 	0.032	0.4354	0.2212	-0.453
Mof_O 	O 	0.875	0.5696	0.6012	-0.487
Mof_O 	O 	0.8511	0.58259	0.46698	-0.526
Mof_O 	O 	0.5664	0.78732	0.42024	-0.475
Mof_O 	O 	0.5533	0.93452	0.54464	-0.579
Mof_O 	O 	0.4833	0.9361	0.2378	-0.434
Mof_O 	O 	0.532	0.7858	0.2212	-0.452
Mof_O 	O 	0.625	0.9684	0.3988	-0.487
Mof_O 	O 	0.6489	0.11561	0.53302	-0.526
Mof_O 	O 	0.9336	0.36708	0.57976	-0.475
Mof_O 	O 	0.9467	0.38988	0.45536	-0.579
Mof_O 	O 	0.0167	0.6983	0.7622	-0.435
Mof_O 	O 	0.968	0.5646	0.7788	-0.453
_end
