data_functionalizedCrystal
_audit_creation_method	'EQeq! by Chris Wilmer'
_symmetry_space_group_name_H-M	'P1'
_symmetry_Int_Tables_number	1
_symmetry_cell_setting	triclinic
loop_
_symmetry_equiv_pos_as_xyz
  x,y,z
_cell_length_a	18.3601
_cell_length_b	18.3586
_cell_length_c	18.3601
_cell_angle_alpha	89.9813
_cell_angle_beta	59.9871
_cell_angle_gamma	59.995
loop_
_atom_site_label
_atom_site_type_symbol
_atom_site_fract_x
_atom_site_fract_y
_atom_site_fract_z
_atom_site_charge
Mof_O 	O 	0.36432	0.61438	0.62755	-0.395
Mof_O 	O 	0.486	0.49142	0.62782	-0.417
Mof_C 	C 	0.4045	0.5675	0.66293	0.379
Mof_O 	O 	0.36346	0.5095	0.52178	-0.402
Mof_O 	O 	0.48514	0.38654	0.52205	-0.424
Mof_C 	C 	0.4034	0.43367	0.52796	0.382
Mof_Cu	Cu	0.42796	0.5728	0.49984	0.915
Mof_Cu	Cu	0.57204	0.4272	0.50016	0.901
Mof_O 	O 	0.514	0.50858	0.37218	-0.41
Mof_O 	O 	0.63568	0.38562	0.37245	-0.432
Mof_O 	O 	0.51486	0.61346	0.47795	-0.402
Mof_O 	O 	0.63654	0.4905	0.47822	-0.425
Mof_C 	C 	0.5955	0.4325	0.33707	0.391
Mof_C 	C 	0.5966	0.56633	0.47204	0.385
Mof_C 	C 	0.34366	0.04706	0.76156	-0.137
Mof_C 	C 	0.21472	0.04745	0.8932	-0.121
Mof_C 	C 	0.34639	0.04719	0.89027	-0.134
Mof_C 	C 	0.25787	0.04601	0.80622	0.062
Mof_H 	H 	0.22887	0.04422	0.77735	0.037
Mof_C 	C 	0.26058	0.04614	0.93425	0.061
Mof_H 	H 	0.23341	0.04445	0.99217	0.031
Mof_C 	C 	0.38884	0.04575	0.8033	0.067
Mof_H 	H 	0.44863	0.04379	0.77245	0.024
Mof_C 	C 	0.78141	0.9576	0.10933	-0.108
Mof_C 	C 	0.65253	0.95722	0.1073	-0.1
Mof_C 	C 	0.65052	0.95733	0.23839	-0.098
Mof_C 	C 	0.73974	0.95616	0.06499	0.068
Mof_H 	H 	0.77083	0.95439	0.00591	0.057
Mof_C 	C 	0.60954	0.9559	0.19337	0.066
Mof_H 	H 	0.55236	0.95394	0.22132	0.065
Mof_C 	C 	0.73773	0.95628	0.19539	0.069
Mof_H 	H 	0.76746	0.95458	0.22471	0.054
Mof_C 	C 	0.3473	0.26281	0.10701	-0.141
Mof_C 	C 	0.34421	0.39444	0.10985	-0.13
Mof_C 	C 	0.21567	0.39144	0.23852	-0.115
Mof_C 	C 	0.3878	0.30833	0.06511	0.085
Mof_H 	H 	0.44508	0.28069	0.00602	0.034
Mof_C 	C 	0.25688	0.43628	0.19592	0.075
Mof_H 	H 	0.22539	0.49538	0.22551	0.057
Mof_C 	C 	0.25995	0.30535	0.19309	0.079
Mof_H 	H 	0.23055	0.27569	0.22077	0.042
Mof_C 	C 	0.64949	0.61192	0.89299	-0.125
Mof_C 	C 	0.65317	0.74015	0.88954	-0.111
Mof_C 	C 	0.78138	0.6084	0.76117	-0.137
Mof_C 	C 	0.60929	0.69792	0.93459	0.067
Mof_H 	H 	0.55204	0.72772	0.99368	0.05
Mof_C 	C 	0.74048	0.69441	0.80348	0.071
Mof_H 	H 	0.77216	0.72184	0.77368	0.043
Mof_C 	C 	0.73681	0.56686	0.80691	0.077
Mof_H 	H 	0.76601	0.50782	0.77943	0.027
Mof_O 	O 	0.36542	0.12897	0.11117	-0.444
Mof_O 	O 	0.48771	0.12934	0.9889	-0.469
Mof_C 	C 	0.40585	0.1644	0.0647	0.408
Mof_O 	O 	0.51522	0.97936	0.11096	-0.337
Mof_O 	O 	0.63751	0.97972	0.98869	-0.357
Mof_C 	C 	0.597	0.97349	0.06443	0.388
Mof_Cu	Cu	0.42921	0.00126	0.06929	0.846
Mof_Cu	Cu	0.57402	0.00169	0.9245	0.834
Mof_O 	O 	0.51553	0.87361	0.00489	-0.33
Mof_O 	O 	0.63781	0.87397	0.88261	-0.348
Mof_O 	O 	0.36572	0.02322	0.0051	-0.427
Mof_O 	O 	0.48801	0.02359	0.88282	-0.454
Mof_C 	C 	0.59738	0.83855	0.92908	0.356
Mof_C 	C 	0.40624	0.02946	0.92935	0.36
Mof_C 	C 	0.65022	0.39395	0.10941	-0.156
Mof_C 	C 	0.78138	0.26315	0.10766	-0.175
Mof_C 	C 	0.65193	0.39234	0.23864	-0.153
Mof_C 	C 	0.73771	0.30794	0.0652	0.102
Mof_H 	H 	0.76762	0.27987	0.0061	0.017
Mof_C 	C 	0.7394	0.30634	0.19375	0.096
Mof_H 	H 	0.77047	0.27718	0.2218	0.013
Mof_C 	C 	0.60895	0.43644	0.19549	0.092
Mof_H 	H 	0.55157	0.49549	0.22473	0.04
Mof_C 	C 	0.34503	0.26329	0.5454	-0.127
Mof_C 	C 	0.34451	0.39365	0.54569	-0.119
Mof_C 	C 	0.21468	0.39328	0.54551	-0.106
Mof_C 	C 	0.38851	0.30667	0.54428	0.07
Mof_H 	H 	0.4482	0.27694	0.54249	0.032
Mof_C 	C 	0.25887	0.43598	0.5444	0.065
Mof_H 	H 	0.23066	0.49391	0.54268	0.059
Mof_C 	C 	0.25938	0.30631	0.54411	0.064
Mof_H 	H 	0.23152	0.27632	0.54219	0.046
Mof_C 	C 	0.65315	0.60867	0.45432	-0.127
Mof_C 	C 	0.65147	0.73961	0.45403	-0.114
Mof_C 	C 	0.78239	0.61049	0.45421	-0.137
Mof_C 	C 	0.60857	0.69556	0.45544	0.071
Mof_H 	H 	0.54888	0.72478	0.45724	0.055
Mof_C 	C 	0.73712	0.69736	0.45533	0.075
Mof_H 	H 	0.76458	0.72781	0.45704	0.044
Mof_C 	C 	0.73878	0.56712	0.45561	0.076
Mof_H 	H 	0.76738	0.50927	0.45753	0.029
Mof_C 	C 	0.21468	0.73999	0.89062	-0.07
Mof_C 	C 	0.34566	0.60861	0.76184	-0.099
Mof_C 	C 	0.34346	0.61096	0.89302	-0.095
Mof_C 	C 	0.26015	0.69561	0.80378	0.048
Mof_H 	H 	0.2329	0.72468	0.77315	0.072
Mof_C 	C 	0.38824	0.56727	0.80616	0.055
Mof_H 	H 	0.44784	0.50934	0.77714	0.044
Mof_C 	C 	0.25797	0.69794	0.93426	0.042
Mof_H 	H 	0.22924	0.7286	0.99209	0.068
Mof_O 	O 	0.89269	0.12946	0.11419	-0.481
Mof_O 	O 	0.89282	0.12951	0.99169	-0.49
Mof_C 	C 	0.86356	0.16473	0.06754	0.408
Mof_O 	O 	0.10426	0.02368	0.00852	-0.377
Mof_O 	O 	0.10439	0.02373	0.88601	-0.399
Mof_C 	C 	0.13352	0.02975	0.93269	0.347
Mof_Cu	Cu	0.99846	0.00177	0.07259	0.792
Mof_Cu	Cu	0.99861	0.00183	0.92752	0.792
Mof_O 	O 	0.10425	0.87408	0.00842	-0.28
Mof_O 	O 	0.10438	0.87414	0.88591	-0.291
Mof_O 	O 	0.89268	0.97986	0.1141	-0.363
Mof_O 	O 	0.89281	0.97992	0.99159	-0.375
Mof_C 	C 	0.13351	0.83887	0.93257	0.339
Mof_C 	C 	0.86355	0.97385	0.06741	0.388
Mof_O 	O 	0.50893	0.61861	0.01118	-0.387
Mof_O 	O 	0.63164	0.49629	0.88863	-0.422
Mof_C 	C 	0.59086	0.57211	0.93537	0.369
Mof_O 	O 	0.50911	0.5126	0.11677	-0.413
Mof_O 	O 	0.63182	0.39029	0.99422	-0.447
Mof_C 	C 	0.59109	0.43686	0.07011	0.408
Mof_Cu	Cu	0.42308	0.57673	0.07511	0.917
Mof_Cu	Cu	0.56838	0.43188	0.92999	0.9
Mof_O 	O 	0.35982	0.51232	0.11648	-0.405
Mof_O 	O 	0.48252	0.39	0.99392	-0.442
Mof_O 	O 	0.35964	0.61832	0.01089	-0.378
Mof_O 	O 	0.48234	0.49601	0.88833	-0.414
Mof_C 	C 	0.40059	0.4365	0.06973	0.405
Mof_C 	C 	0.40036	0.57175	0.935	0.36
Mof_O 	O 	0.36046	0.02395	0.6275	-0.447
Mof_O 	O 	0.4836	0.02271	0.62731	-0.458
Mof_C 	C 	0.40138	0.02937	0.66265	0.382
Mof_O 	O 	0.5092	0.87439	0.4779	-0.341
Mof_O 	O 	0.63235	0.87315	0.47771	-0.35
Mof_C 	C 	0.59117	0.83853	0.47176	0.372
Mof_Cu	Cu	0.42394	0.0022	0.49983	0.842
Mof_Cu	Cu	0.56977	0.00072	0.49961	0.836
Mof_O 	O 	0.51011	0.98021	0.37213	-0.333
Mof_O 	O 	0.63326	0.97896	0.37194	-0.342
Mof_O 	O 	0.36136	0.12977	0.52173	-0.44
Mof_O 	O 	0.48451	0.12853	0.52154	-0.451
Mof_C 	C 	0.59233	0.97355	0.33679	0.372
Mof_C 	C 	0.40254	0.16439	0.52768	0.383
Mof_O 	O 	0.89313	0.61441	0.62775	-0.432
Mof_O 	O 	0.89233	0.49236	0.62733	-0.445
Mof_C 	C 	0.86353	0.56793	0.66279	0.387
Mof_O 	O 	0.89314	0.61545	0.47816	-0.431
Mof_O 	O 	0.89234	0.4934	0.47775	-0.445
Mof_C 	C 	0.86355	0.56926	0.47191	0.387
Mof_Cu	Cu	0.99899	0.57294	0.5001	0.863
Mof_Cu	Cu	0.99805	0.42841	0.49961	0.855
Mof_O 	O 	0.1047	0.50899	0.37238	-0.358
Mof_O 	O 	0.10391	0.38694	0.37196	-0.369
Mof_O 	O 	0.10469	0.50795	0.52197	-0.358
Mof_O 	O 	0.1039	0.3859	0.52155	-0.369
Mof_C 	C 	0.1335	0.43342	0.33693	0.377
Mof_C 	C 	0.13349	0.43209	0.5278	0.372
_end
