data_functionalizedCrystal
_audit_creation_method	'EQeq! by Chris Wilmer'
_symmetry_space_group_name_H-M	'P1'
_symmetry_Int_Tables_number	1
_symmetry_cell_setting	triclinic
loop_
_symmetry_equiv_pos_as_xyz
  x,y,z
_cell_length_a	35.7855
_cell_length_b	35.7855
_cell_length_c	15.058
_cell_angle_alpha	90
_cell_angle_beta	90
_cell_angle_gamma	120
loop_
_atom_site_label
_atom_site_type_symbol
_atom_site_fract_x
_atom_site_fract_y
_atom_site_fract_z
_atom_site_charge
Mof_O 	O 	0.5576	0.03835	0.0823	-0.402
Mof_O 	O 	0.56413	0.05067	0.9319	-0.408
Mof_C 	C 	0.5781	0.05669	0.0089	0.351
Mof_C 	C 	0.62501	0.0891	0.0236	-0.144
Mof_C 	C 	0.6511	0.11	0.9567	0.1
Mof_H 	H 	0.6401	0.1054	0.8992	0.008
Mof_C 	C 	0.6952	0.1391	0.9709	-0.197
Mof_H 	H 	0.7125	0.1542	0.9229	0.112
Mof_C 	C 	0.71259	0.14554	0.0509	0.15
Mof_C 	C 	0.6855	0.1271	0.1224	-0.177
Mof_H 	H 	0.6966	0.1338	0.1797	0.093
Mof_C 	C 	0.6409	0.0979	0.1098	0.08
Mof_H 	H 	0.6226	0.085	0.158	0.018
Mof_C 	C 	0.7601	0.17251	0.0694	-0.092
Mof_C 	C 	0.77976	0.15412	0.1187	-0.037
Mof_H 	H 	0.7634	0.1254	0.1357	0.043
Mof_H 	H 	0.7712	0.2726	0.0948	-0.079
Mof_H 	H 	0.7025	0.2537	0.9749	0.259
Mof_O 	O 	0.22427	0.37168	0.41563	-0.402
Mof_O 	O 	0.2308	0.384	0.26523	-0.407
Mof_C 	C 	0.24477	0.39002	0.34223	0.351
Mof_C 	C 	0.29168	0.42243	0.35693	-0.144
Mof_C 	C 	0.31777	0.44333	0.29003	0.101
Mof_H 	H 	0.30677	0.43873	0.23253	0.008
Mof_C 	C 	0.36187	0.47243	0.30423	-0.196
Mof_H 	H 	0.37917	0.48753	0.25623	0.112
Mof_C 	C 	0.37926	0.47887	0.38423	0.149
Mof_C 	C 	0.35217	0.46043	0.45573	-0.176
Mof_H 	H 	0.36327	0.46713	0.51303	0.093
Mof_C 	C 	0.30757	0.43123	0.44313	0.08
Mof_H 	H 	0.28927	0.41833	0.49133	0.018
Mof_C 	C 	0.42677	0.50584	0.40273	-0.091
Mof_C 	C 	0.44643	0.48745	0.45203	-0.038
Mof_H 	H 	0.43007	0.45873	0.46903	0.043
Mof_H 	H 	0.43787	0.60593	0.42813	-0.08
Mof_H 	H 	0.36917	0.58703	0.30823	0.261
Mof_O 	O 	0.89093	0.70502	0.74897	-0.401
Mof_O 	O 	0.89746	0.71734	0.59857	-0.406
Mof_C 	C 	0.91143	0.72336	0.67557	0.352
Mof_C 	C 	0.95834	0.75577	0.69027	-0.143
Mof_C 	C 	0.98443	0.77667	0.62337	0.101
Mof_H 	H 	0.97343	0.77207	0.56587	0.009
Mof_C 	C 	0.02853	0.80577	0.63757	-0.194
Mof_H 	H 	0.04583	0.82087	0.58957	0.113
Mof_C 	C 	0.04592	0.81221	0.71757	0.149
Mof_C 	C 	0.01883	0.79377	0.78907	-0.174
Mof_H 	H 	0.02993	0.80047	0.84637	0.093
Mof_C 	C 	0.97423	0.76457	0.77647	0.08
Mof_H 	H 	0.95593	0.75167	0.82467	0.019
Mof_C 	C 	0.09343	0.83918	0.73607	-0.09
Mof_C 	C 	0.11309	0.82079	0.78537	-0.037
Mof_H 	H 	0.09673	0.79207	0.80237	0.045
Mof_H 	H 	0.10453	0.93927	0.76147	-0.079
Mof_H 	H 	0.03583	0.92037	0.64157	0.262
Mof_O 	O 	0.96165	0.51925	0.0823	-0.401
Mof_O 	O 	0.94933	0.51346	0.9319	-0.407
Mof_C 	C 	0.94331	0.52141	0.0089	0.352
Mof_C 	C 	0.9109	0.53591	0.0236	-0.143
Mof_C 	C 	0.89	0.5411	0.9567	0.101
Mof_H 	H 	0.8946	0.5347	0.8992	0.009
Mof_C 	C 	0.8609	0.5561	0.9709	-0.196
Mof_H 	H 	0.8458	0.5583	0.9229	0.113
Mof_C 	C 	0.85446	0.56705	0.0509	0.15
Mof_C 	C 	0.8729	0.5584	0.1224	-0.176
Mof_H 	H 	0.8662	0.5628	0.1797	0.094
Mof_C 	C 	0.9021	0.543	0.1098	0.081
Mof_H 	H 	0.915	0.5376	0.158	0.019
Mof_C 	C 	0.82749	0.58759	0.0694	-0.09
Mof_C 	C 	0.84588	0.62564	0.1187	-0.036
Mof_H 	H 	0.8746	0.638	0.1357	0.044
Mof_H 	H 	0.7274	0.4986	0.0948	-0.079
Mof_H 	H 	0.7463	0.4488	0.9749	0.26
Mof_O 	O 	0.62832	0.85258	0.41563	-0.401
Mof_O 	O 	0.616	0.84679	0.26523	-0.406
Mof_C 	C 	0.60998	0.85474	0.34223	0.352
Mof_C 	C 	0.57757	0.86924	0.35693	-0.143
Mof_C 	C 	0.55667	0.87443	0.29003	0.102
Mof_H 	H 	0.56127	0.86803	0.23253	0.009
Mof_C 	C 	0.52757	0.88943	0.30423	-0.195
Mof_H 	H 	0.51247	0.89163	0.25623	0.113
Mof_C 	C 	0.52113	0.90038	0.38423	0.15
Mof_C 	C 	0.53957	0.89173	0.45573	-0.175
Mof_H 	H 	0.53287	0.89613	0.51303	0.094
Mof_C 	C 	0.56877	0.87633	0.44313	0.081
Mof_H 	H 	0.58167	0.87093	0.49133	0.019
Mof_C 	C 	0.49416	0.92092	0.40273	-0.09
Mof_C 	C 	0.51255	0.95897	0.45203	-0.037
Mof_H 	H 	0.54127	0.97133	0.46903	0.044
Mof_H 	H 	0.39407	0.83193	0.42813	-0.079
Mof_H 	H 	0.41297	0.78213	0.30823	0.262
Mof_O 	O 	0.29498	0.18592	0.74897	-0.401
Mof_O 	O 	0.28266	0.18013	0.59857	-0.406
Mof_C 	C 	0.27664	0.18808	0.67557	0.352
Mof_C 	C 	0.24423	0.20258	0.69027	-0.143
Mof_C 	C 	0.22333	0.20777	0.62337	0.102
Mof_H 	H 	0.22793	0.20137	0.56587	0.009
Mof_C 	C 	0.19423	0.22277	0.63757	-0.195
Mof_H 	H 	0.17913	0.22497	0.58957	0.113
Mof_C 	C 	0.18779	0.23372	0.71757	0.15
Mof_C 	C 	0.20623	0.22507	0.78907	-0.175
Mof_H 	H 	0.19953	0.22947	0.84637	0.094
Mof_C 	C 	0.23543	0.20967	0.77647	0.081
Mof_H 	H 	0.24833	0.20427	0.82467	0.019
Mof_C 	C 	0.16082	0.25426	0.73607	-0.09
Mof_C 	C 	0.17921	0.29231	0.78537	-0.037
Mof_H 	H 	0.20793	0.30467	0.80237	0.044
Mof_H 	H 	0.06073	0.16527	0.76147	-0.079
Mof_H 	H 	0.07963	0.11547	0.64157	0.262
Mof_O 	O 	0.48075	0.4424	0.0823	-0.401
Mof_O 	O 	0.48654	0.43587	0.9319	-0.406
Mof_C 	C 	0.47859	0.4219	0.0089	0.352
Mof_C 	C 	0.46409	0.37499	0.0236	-0.143
Mof_C 	C 	0.4589	0.3489	0.9567	0.102
Mof_H 	H 	0.4653	0.3599	0.8992	0.009
Mof_C 	C 	0.4439	0.3048	0.9709	-0.196
Mof_H 	H 	0.4417	0.2875	0.9229	0.113
Mof_C 	C 	0.43295	0.28741	0.0509	0.15
Mof_C 	C 	0.4416	0.3145	0.1224	-0.176
Mof_H 	H 	0.4372	0.3034	0.1797	0.094
Mof_C 	C 	0.457	0.3591	0.1098	0.081
Mof_H 	H 	0.4624	0.3774	0.158	0.019
Mof_C 	C 	0.41241	0.2399	0.0694	-0.09
Mof_C 	C 	0.37436	0.22024	0.1187	-0.036
Mof_H 	H 	0.362	0.2366	0.1357	0.044
Mof_H 	H 	0.5014	0.2288	0.0948	-0.079
Mof_H 	H 	0.5512	0.2975	0.9749	0.26
Mof_O 	O 	0.14742	0.77573	0.41563	-0.401
Mof_O 	O 	0.15321	0.7692	0.26523	-0.406
Mof_C 	C 	0.14526	0.75523	0.34223	0.352
Mof_C 	C 	0.13076	0.70832	0.35693	-0.143
Mof_C 	C 	0.12557	0.68223	0.29003	0.102
Mof_H 	H 	0.13197	0.69323	0.23253	0.009
Mof_C 	C 	0.11057	0.63813	0.30423	-0.195
Mof_H 	H 	0.10837	0.62083	0.25623	0.113
Mof_C 	C 	0.09962	0.62074	0.38423	0.15
Mof_C 	C 	0.10827	0.64783	0.45573	-0.175
Mof_H 	H 	0.10387	0.63673	0.51303	0.094
Mof_C 	C 	0.12367	0.69243	0.44313	0.081
Mof_H 	H 	0.12907	0.71073	0.49133	0.019
Mof_C 	C 	0.07908	0.57323	0.40273	-0.09
Mof_C 	C 	0.04103	0.55357	0.45203	-0.037
Mof_H 	H 	0.02867	0.56993	0.46903	0.044
Mof_H 	H 	0.16807	0.56213	0.42813	-0.079
Mof_H 	H 	0.21787	0.63083	0.30823	0.262
Mof_O 	O 	0.81408	0.10907	0.74897	-0.401
Mof_O 	O 	0.81987	0.10254	0.59857	-0.406
Mof_C 	C 	0.81192	0.08857	0.67557	0.352
Mof_C 	C 	0.79742	0.04166	0.69027	-0.143
Mof_C 	C 	0.79223	0.01557	0.62337	0.101
Mof_H 	H 	0.79863	0.02657	0.56587	0.009
Mof_C 	C 	0.77723	0.97147	0.63757	-0.195
Mof_H 	H 	0.77503	0.95417	0.58957	0.113
Mof_C 	C 	0.76628	0.95408	0.71757	0.149
Mof_C 	C 	0.77493	0.98117	0.78907	-0.175
Mof_H 	H 	0.77053	0.97007	0.84637	0.094
Mof_C 	C 	0.79033	0.02577	0.77647	0.08
Mof_H 	H 	0.79573	0.04407	0.82467	0.019
Mof_C 	C 	0.74574	0.90657	0.73607	-0.09
Mof_C 	C 	0.70769	0.88691	0.78537	-0.037
Mof_H 	H 	0.69533	0.90327	0.80237	0.044
Mof_H 	H 	0.83473	0.89547	0.76147	-0.079
Mof_H 	H 	0.88453	0.96417	0.64157	0.262
Mof_O 	O 	0.03835	0.5576	0.9177	-0.401
Mof_O 	O 	0.05067	0.56413	0.0681	-0.407
Mof_C 	C 	0.05669	0.5781	0.9911	0.352
Mof_C 	C 	0.0891	0.62501	0.9764	-0.143
Mof_C 	C 	0.11	0.6511	0.0433	0.101
Mof_H 	H 	0.1054	0.6401	0.1008	0.009
Mof_C 	C 	0.1391	0.6952	0.0291	-0.196
Mof_H 	H 	0.1542	0.7125	0.0771	0.113
Mof_C 	C 	0.14554	0.71259	0.9491	0.151
Mof_C 	C 	0.1271	0.6855	0.8776	-0.176
Mof_H 	H 	0.1338	0.6966	0.8203	0.094
Mof_C 	C 	0.0979	0.6409	0.8902	0.081
Mof_H 	H 	0.085	0.6226	0.842	0.019
Mof_C 	C 	0.17251	0.7601	0.9306	-0.091
Mof_C 	C 	0.15412	0.77976	0.8813	-0.036
Mof_H 	H 	0.1254	0.7634	0.8643	0.044
Mof_H 	H 	0.2726	0.7712	0.9052	-0.078
Mof_H 	H 	0.2537	0.7025	0.0251	0.26
Mof_O 	O 	0.70502	0.89093	0.25103	-0.401
Mof_O 	O 	0.71734	0.89746	0.40143	-0.406
Mof_C 	C 	0.72336	0.91143	0.32443	0.352
Mof_C 	C 	0.75577	0.95834	0.30973	-0.143
Mof_C 	C 	0.77667	0.98443	0.37663	0.101
Mof_H 	H 	0.77207	0.97343	0.43413	0.009
Mof_C 	C 	0.80577	0.02853	0.36243	-0.194
Mof_H 	H 	0.82087	0.04583	0.41043	0.113
Mof_C 	C 	0.81221	0.04592	0.28243	0.149
Mof_C 	C 	0.79377	0.01883	0.21093	-0.174
Mof_H 	H 	0.80047	0.02993	0.15363	0.093
Mof_C 	C 	0.76457	0.97423	0.22353	0.08
Mof_H 	H 	0.75167	0.95593	0.17533	0.019
Mof_C 	C 	0.83918	0.09343	0.26393	-0.09
Mof_C 	C 	0.82079	0.11309	0.21463	-0.037
Mof_H 	H 	0.79207	0.09673	0.19763	0.045
Mof_H 	H 	0.93927	0.10453	0.23853	-0.079
Mof_H 	H 	0.92037	0.03583	0.35843	0.262
Mof_O 	O 	0.37168	0.22427	0.58437	-0.401
Mof_O 	O 	0.384	0.2308	0.73477	-0.406
Mof_C 	C 	0.39002	0.24477	0.65777	0.352
Mof_C 	C 	0.42243	0.29168	0.64307	-0.143
Mof_C 	C 	0.44333	0.31777	0.70997	0.102
Mof_H 	H 	0.43873	0.30677	0.76747	0.009
Mof_C 	C 	0.47243	0.36187	0.69577	-0.195
Mof_H 	H 	0.48753	0.37917	0.74377	0.113
Mof_C 	C 	0.47887	0.37926	0.61577	0.15
Mof_C 	C 	0.46043	0.35217	0.54427	-0.175
Mof_H 	H 	0.46713	0.36327	0.48697	0.094
Mof_C 	C 	0.43123	0.30757	0.55687	0.081
Mof_H 	H 	0.41833	0.28927	0.50867	0.019
Mof_C 	C 	0.50584	0.42677	0.59727	-0.09
Mof_C 	C 	0.48745	0.44643	0.54797	-0.037
Mof_H 	H 	0.45873	0.43007	0.53097	0.044
Mof_H 	H 	0.60593	0.43787	0.57187	-0.079
Mof_H 	H 	0.58703	0.36917	0.69177	0.262
Mof_O 	O 	0.51925	0.96165	0.9177	-0.401
Mof_O 	O 	0.51346	0.94933	0.0681	-0.407
Mof_C 	C 	0.52141	0.94331	0.9911	0.352
Mof_C 	C 	0.53591	0.9109	0.9764	-0.143
Mof_C 	C 	0.5411	0.89	0.0433	0.101
Mof_H 	H 	0.5347	0.8946	0.1008	0.009
Mof_C 	C 	0.5561	0.8609	0.0291	-0.196
Mof_H 	H 	0.5583	0.8458	0.0771	0.113
Mof_C 	C 	0.56705	0.85446	0.9491	0.15
Mof_C 	C 	0.5584	0.8729	0.8776	-0.176
Mof_H 	H 	0.5628	0.8662	0.8203	0.094
Mof_C 	C 	0.543	0.9021	0.8902	0.081
Mof_H 	H 	0.5376	0.915	0.842	0.019
Mof_C 	C 	0.58759	0.82749	0.9306	-0.09
Mof_C 	C 	0.62564	0.84588	0.8813	-0.036
Mof_H 	H 	0.638	0.8746	0.8643	0.044
Mof_H 	H 	0.4986	0.7274	0.9052	-0.079
Mof_H 	H 	0.4488	0.7463	0.0251	0.26
Mof_O 	O 	0.18592	0.29498	0.25103	-0.401
Mof_O 	O 	0.18013	0.28266	0.40143	-0.406
Mof_C 	C 	0.18808	0.27664	0.32443	0.352
Mof_C 	C 	0.20258	0.24423	0.30973	-0.143
Mof_C 	C 	0.20777	0.22333	0.37663	0.102
Mof_H 	H 	0.20137	0.22793	0.43413	0.009
Mof_C 	C 	0.22277	0.19423	0.36243	-0.195
Mof_H 	H 	0.22497	0.17913	0.41043	0.113
Mof_C 	C 	0.23372	0.18779	0.28243	0.15
Mof_C 	C 	0.22507	0.20623	0.21093	-0.175
Mof_H 	H 	0.22947	0.19953	0.15363	0.094
Mof_C 	C 	0.20967	0.23543	0.22353	0.081
Mof_H 	H 	0.20427	0.24833	0.17533	0.019
Mof_C 	C 	0.25426	0.16082	0.26393	-0.09
Mof_C 	C 	0.29231	0.17921	0.21463	-0.037
Mof_H 	H 	0.30467	0.20793	0.19763	0.044
Mof_H 	H 	0.16527	0.06073	0.23853	-0.079
Mof_H 	H 	0.11547	0.07963	0.35843	0.262
Mof_O 	O 	0.85258	0.62832	0.58437	-0.401
Mof_O 	O 	0.84679	0.616	0.73477	-0.406
Mof_C 	C 	0.85474	0.60998	0.65777	0.352
Mof_C 	C 	0.86924	0.57757	0.64307	-0.143
Mof_C 	C 	0.87443	0.55667	0.70997	0.102
Mof_H 	H 	0.86803	0.56127	0.76747	0.009
Mof_C 	C 	0.88943	0.52757	0.69577	-0.195
Mof_H 	H 	0.89163	0.51247	0.74377	0.113
Mof_C 	C 	0.90038	0.52113	0.61577	0.15
Mof_C 	C 	0.89173	0.53957	0.54427	-0.175
Mof_H 	H 	0.89613	0.53287	0.48697	0.094
Mof_C 	C 	0.87633	0.56877	0.55687	0.081
Mof_H 	H 	0.87093	0.58167	0.50867	0.019
Mof_C 	C 	0.92092	0.49416	0.59727	-0.09
Mof_C 	C 	0.95897	0.51255	0.54797	-0.037
Mof_H 	H 	0.97133	0.54127	0.53097	0.044
Mof_H 	H 	0.83193	0.39407	0.57187	-0.079
Mof_H 	H 	0.78213	0.41297	0.69177	0.262
Mof_O 	O 	0.4424	0.48075	0.9177	-0.401
Mof_O 	O 	0.43587	0.48654	0.0681	-0.406
Mof_C 	C 	0.4219	0.47859	0.9911	0.352
Mof_C 	C 	0.37499	0.46409	0.9764	-0.143
Mof_C 	C 	0.3489	0.4589	0.0433	0.102
Mof_H 	H 	0.3599	0.4653	0.1008	0.009
Mof_C 	C 	0.3048	0.4439	0.0291	-0.196
Mof_H 	H 	0.2875	0.4417	0.0771	0.113
Mof_C 	C 	0.28741	0.43295	0.9491	0.15
Mof_C 	C 	0.3145	0.4416	0.8776	-0.176
Mof_H 	H 	0.3034	0.4372	0.8203	0.094
Mof_C 	C 	0.3591	0.457	0.8902	0.081
Mof_H 	H 	0.3774	0.4624	0.842	0.019
Mof_C 	C 	0.2399	0.41241	0.9306	-0.09
Mof_C 	C 	0.22024	0.37436	0.8813	-0.036
Mof_H 	H 	0.2366	0.362	0.8643	0.044
Mof_H 	H 	0.2288	0.5014	0.9052	-0.079
Mof_H 	H 	0.2975	0.5512	0.0251	0.26
Mof_O 	O 	0.10907	0.81408	0.25103	-0.401
Mof_O 	O 	0.10254	0.81987	0.40143	-0.406
Mof_C 	C 	0.08857	0.81192	0.32443	0.352
Mof_C 	C 	0.04166	0.79742	0.30973	-0.143
Mof_C 	C 	0.01557	0.79223	0.37663	0.101
Mof_H 	H 	0.02657	0.79863	0.43413	0.009
Mof_C 	C 	0.97147	0.77723	0.36243	-0.195
Mof_H 	H 	0.95417	0.77503	0.41043	0.113
Mof_C 	C 	0.95408	0.76628	0.28243	0.149
Mof_C 	C 	0.98117	0.77493	0.21093	-0.175
Mof_H 	H 	0.97007	0.77053	0.15363	0.094
Mof_C 	C 	0.02577	0.79033	0.22353	0.08
Mof_H 	H 	0.04407	0.79573	0.17533	0.019
Mof_C 	C 	0.90657	0.74574	0.26393	-0.09
Mof_C 	C 	0.88691	0.70769	0.21463	-0.037
Mof_H 	H 	0.90327	0.69533	0.19763	0.044
Mof_H 	H 	0.89547	0.83473	0.23853	-0.079
Mof_H 	H 	0.96417	0.88453	0.35843	0.262
Mof_O 	O 	0.77573	0.14742	0.58437	-0.401
Mof_O 	O 	0.7692	0.15321	0.73477	-0.406
Mof_C 	C 	0.75523	0.14526	0.65777	0.352
Mof_C 	C 	0.70832	0.13076	0.64307	-0.143
Mof_C 	C 	0.68223	0.12557	0.70997	0.102
Mof_H 	H 	0.69323	0.13197	0.76747	0.009
Mof_C 	C 	0.63813	0.11057	0.69577	-0.195
Mof_H 	H 	0.62083	0.10837	0.74377	0.113
Mof_C 	C 	0.62074	0.09962	0.61577	0.15
Mof_C 	C 	0.64783	0.10827	0.54427	-0.175
Mof_H 	H 	0.63673	0.10387	0.48697	0.094
Mof_C 	C 	0.69243	0.12367	0.55687	0.081
Mof_H 	H 	0.71073	0.12907	0.50867	0.019
Mof_C 	C 	0.57323	0.07908	0.59727	-0.09
Mof_C 	C 	0.55357	0.04103	0.54797	-0.037
Mof_H 	H 	0.56993	0.02867	0.53097	0.044
Mof_H 	H 	0.56213	0.16807	0.57187	-0.079
Mof_H 	H 	0.63083	0.21787	0.69177	0.262
Mof_O 	O 	0.4424	0.96165	0.9177	-0.401
Mof_O 	O 	0.43587	0.94933	0.0681	-0.407
Mof_C 	C 	0.4219	0.94331	0.9911	0.352
Mof_C 	C 	0.37499	0.9109	0.9764	-0.143
Mof_C 	C 	0.3489	0.89	0.0433	0.101
Mof_H 	H 	0.3599	0.8946	0.1008	0.009
Mof_C 	C 	0.3048	0.8609	0.0291	-0.196
Mof_H 	H 	0.2875	0.8458	0.0771	0.113
Mof_C 	C 	0.28741	0.85446	0.9491	0.151
Mof_C 	C 	0.3145	0.8729	0.8776	-0.176
Mof_H 	H 	0.3034	0.8662	0.8203	0.094
Mof_C 	C 	0.3591	0.9021	0.8902	0.081
Mof_H 	H 	0.3774	0.915	0.842	0.019
Mof_C 	C 	0.2399	0.82749	0.9306	-0.091
Mof_C 	C 	0.22024	0.84588	0.8813	-0.036
Mof_H 	H 	0.2366	0.8746	0.8643	0.044
Mof_H 	H 	0.2288	0.7274	0.9052	-0.078
Mof_H 	H 	0.2975	0.7463	0.0251	0.26
Mof_O 	O 	0.10907	0.29498	0.25103	-0.401
Mof_O 	O 	0.10254	0.28266	0.40143	-0.406
Mof_C 	C 	0.08857	0.27664	0.32443	0.352
Mof_C 	C 	0.04166	0.24423	0.30973	-0.143
Mof_C 	C 	0.01557	0.22333	0.37663	0.101
Mof_H 	H 	0.02657	0.22793	0.43413	0.009
Mof_C 	C 	0.97147	0.19423	0.36243	-0.194
Mof_H 	H 	0.95417	0.17913	0.41043	0.113
Mof_C 	C 	0.95408	0.18779	0.28243	0.149
Mof_C 	C 	0.98117	0.20623	0.21093	-0.174
Mof_H 	H 	0.97007	0.19953	0.15363	0.093
Mof_C 	C 	0.02577	0.23543	0.22353	0.08
Mof_H 	H 	0.04407	0.24833	0.17533	0.019
Mof_C 	C 	0.90657	0.16082	0.26393	-0.09
Mof_C 	C 	0.88691	0.17921	0.21463	-0.037
Mof_H 	H 	0.90327	0.20793	0.19763	0.045
Mof_H 	H 	0.89547	0.06073	0.23853	-0.079
Mof_H 	H 	0.96417	0.07963	0.35843	0.262
Mof_O 	O 	0.77573	0.62832	0.58437	-0.401
Mof_O 	O 	0.7692	0.616	0.73477	-0.406
Mof_C 	C 	0.75523	0.60998	0.65777	0.352
Mof_C 	C 	0.70832	0.57757	0.64307	-0.143
Mof_C 	C 	0.68223	0.55667	0.70997	0.102
Mof_H 	H 	0.69323	0.56127	0.76747	0.009
Mof_C 	C 	0.63813	0.52757	0.69577	-0.195
Mof_H 	H 	0.62083	0.51247	0.74377	0.113
Mof_C 	C 	0.62074	0.52113	0.61577	0.15
Mof_C 	C 	0.64783	0.53957	0.54427	-0.175
Mof_H 	H 	0.63673	0.53287	0.48697	0.094
Mof_C 	C 	0.69243	0.56877	0.55687	0.081
Mof_H 	H 	0.71073	0.58167	0.50867	0.019
Mof_C 	C 	0.57323	0.49416	0.59727	-0.09
Mof_C 	C 	0.55357	0.51255	0.54797	-0.037
Mof_H 	H 	0.56993	0.54127	0.53097	0.044
Mof_H 	H 	0.56213	0.39407	0.57187	-0.079
Mof_H 	H 	0.63083	0.41297	0.69177	0.262
Mof_O 	O 	0.03835	0.48075	0.9177	-0.401
Mof_O 	O 	0.05067	0.48654	0.0681	-0.407
Mof_C 	C 	0.05669	0.47859	0.9911	0.352
Mof_C 	C 	0.0891	0.46409	0.9764	-0.143
Mof_C 	C 	0.11	0.4589	0.0433	0.101
Mof_H 	H 	0.1054	0.4653	0.1008	0.009
Mof_C 	C 	0.1391	0.4439	0.0291	-0.196
Mof_H 	H 	0.1542	0.4417	0.0771	0.113
Mof_C 	C 	0.14554	0.43295	0.9491	0.15
Mof_C 	C 	0.1271	0.4416	0.8776	-0.176
Mof_H 	H 	0.1338	0.4372	0.8203	0.094
Mof_C 	C 	0.0979	0.457	0.8902	0.081
Mof_H 	H 	0.085	0.4624	0.842	0.019
Mof_C 	C 	0.17251	0.41241	0.9306	-0.09
Mof_C 	C 	0.15412	0.37436	0.8813	-0.036
Mof_H 	H 	0.1254	0.362	0.8643	0.044
Mof_H 	H 	0.2726	0.5014	0.9052	-0.079
Mof_H 	H 	0.2537	0.5512	0.0251	0.26
Mof_O 	O 	0.70502	0.81408	0.25103	-0.401
Mof_O 	O 	0.71734	0.81987	0.40143	-0.406
Mof_C 	C 	0.72336	0.81192	0.32443	0.352
Mof_C 	C 	0.75577	0.79742	0.30973	-0.143
Mof_C 	C 	0.77667	0.79223	0.37663	0.102
Mof_H 	H 	0.77207	0.79863	0.43413	0.009
Mof_C 	C 	0.80577	0.77723	0.36243	-0.195
Mof_H 	H 	0.82087	0.77503	0.41043	0.113
Mof_C 	C 	0.81221	0.76628	0.28243	0.15
Mof_C 	C 	0.79377	0.77493	0.21093	-0.175
Mof_H 	H 	0.80047	0.77053	0.15363	0.094
Mof_C 	C 	0.76457	0.79033	0.22353	0.081
Mof_H 	H 	0.75167	0.79573	0.17533	0.019
Mof_C 	C 	0.83918	0.74574	0.26393	-0.09
Mof_C 	C 	0.82079	0.70769	0.21463	-0.037
Mof_H 	H 	0.79207	0.69533	0.19763	0.044
Mof_H 	H 	0.93927	0.83473	0.23853	-0.079
Mof_H 	H 	0.92037	0.88453	0.35843	0.262
Mof_O 	O 	0.37168	0.14742	0.58437	-0.401
Mof_O 	O 	0.384	0.15321	0.73477	-0.406
Mof_C 	C 	0.39002	0.14526	0.65777	0.352
Mof_C 	C 	0.42243	0.13076	0.64307	-0.143
Mof_C 	C 	0.44333	0.12557	0.70997	0.102
Mof_H 	H 	0.43873	0.13197	0.76747	0.009
Mof_C 	C 	0.47243	0.11057	0.69577	-0.195
Mof_H 	H 	0.48753	0.10837	0.74377	0.113
Mof_C 	C 	0.47887	0.09962	0.61577	0.15
Mof_C 	C 	0.46043	0.10827	0.54427	-0.175
Mof_H 	H 	0.46713	0.10387	0.48697	0.094
Mof_C 	C 	0.43123	0.12367	0.55687	0.081
Mof_H 	H 	0.41833	0.12907	0.50867	0.019
Mof_C 	C 	0.50584	0.07908	0.59727	-0.09
Mof_C 	C 	0.48745	0.04103	0.54797	-0.037
Mof_H 	H 	0.45873	0.02867	0.53097	0.044
Mof_H 	H 	0.60593	0.16807	0.57187	-0.079
Mof_H 	H 	0.58703	0.21787	0.69177	0.262
Mof_O 	O 	0.51925	0.5576	0.9177	-0.401
Mof_O 	O 	0.51346	0.56413	0.0681	-0.406
Mof_C 	C 	0.52141	0.5781	0.9911	0.352
Mof_C 	C 	0.53591	0.62501	0.9764	-0.143
Mof_C 	C 	0.5411	0.6511	0.0433	0.102
Mof_H 	H 	0.5347	0.6401	0.1008	0.009
Mof_C 	C 	0.5561	0.6952	0.0291	-0.196
Mof_H 	H 	0.5583	0.7125	0.0771	0.113
Mof_C 	C 	0.56705	0.71259	0.9491	0.15
Mof_C 	C 	0.5584	0.6855	0.8776	-0.176
Mof_H 	H 	0.5628	0.6966	0.8203	0.094
Mof_C 	C 	0.543	0.6409	0.8902	0.081
Mof_H 	H 	0.5376	0.6226	0.842	0.019
Mof_C 	C 	0.58759	0.7601	0.9306	-0.09
Mof_C 	C 	0.62564	0.77976	0.8813	-0.036
Mof_H 	H 	0.638	0.7634	0.8643	0.044
Mof_H 	H 	0.4986	0.7712	0.9052	-0.079
Mof_H 	H 	0.4488	0.7025	0.0251	0.26
Mof_O 	O 	0.18592	0.89093	0.25103	-0.401
Mof_O 	O 	0.18013	0.89746	0.40143	-0.406
Mof_C 	C 	0.18808	0.91143	0.32443	0.352
Mof_C 	C 	0.20258	0.95834	0.30973	-0.143
Mof_C 	C 	0.20777	0.98443	0.37663	0.101
Mof_H 	H 	0.20137	0.97343	0.43413	0.009
Mof_C 	C 	0.22277	0.02853	0.36243	-0.195
Mof_H 	H 	0.22497	0.04583	0.41043	0.113
Mof_C 	C 	0.23372	0.04592	0.28243	0.149
Mof_C 	C 	0.22507	0.01883	0.21093	-0.175
Mof_H 	H 	0.22947	0.02993	0.15363	0.094
Mof_C 	C 	0.20967	0.97423	0.22353	0.08
Mof_H 	H 	0.20427	0.95593	0.17533	0.019
Mof_C 	C 	0.25426	0.09343	0.26393	-0.09
Mof_C 	C 	0.29231	0.11309	0.21463	-0.037
Mof_H 	H 	0.30467	0.09673	0.19763	0.044
Mof_H 	H 	0.16527	0.10453	0.23853	-0.079
Mof_H 	H 	0.11547	0.03583	0.35843	0.262
Mof_O 	O 	0.85258	0.22427	0.58437	-0.401
Mof_O 	O 	0.84679	0.2308	0.73477	-0.406
Mof_C 	C 	0.85474	0.24477	0.65777	0.352
Mof_C 	C 	0.86924	0.29168	0.64307	-0.143
Mof_C 	C 	0.87443	0.31777	0.70997	0.102
Mof_H 	H 	0.86803	0.30677	0.76747	0.009
Mof_C 	C 	0.88943	0.36187	0.69577	-0.195
Mof_H 	H 	0.89163	0.37917	0.74377	0.113
Mof_C 	C 	0.90038	0.37926	0.61577	0.15
Mof_C 	C 	0.89173	0.35217	0.54427	-0.175
Mof_H 	H 	0.89613	0.36327	0.48697	0.094
Mof_C 	C 	0.87633	0.30757	0.55687	0.081
Mof_H 	H 	0.87093	0.28927	0.50867	0.019
Mof_C 	C 	0.92092	0.42677	0.59727	-0.09
Mof_C 	C 	0.95897	0.44643	0.54797	-0.037
Mof_H 	H 	0.97133	0.43007	0.53097	0.044
Mof_H 	H 	0.83193	0.43787	0.57187	-0.079
Mof_H 	H 	0.78213	0.36917	0.69177	0.262
Mof_O 	O 	0.96165	0.4424	0.0823	-0.401
Mof_O 	O 	0.94933	0.43587	0.9319	-0.407
Mof_C 	C 	0.94331	0.4219	0.0089	0.352
Mof_C 	C 	0.9109	0.37499	0.0236	-0.143
Mof_C 	C 	0.89	0.3489	0.9567	0.101
Mof_H 	H 	0.8946	0.3599	0.8992	0.009
Mof_C 	C 	0.8609	0.3048	0.9709	-0.196
Mof_H 	H 	0.8458	0.2875	0.9229	0.113
Mof_C 	C 	0.85446	0.28741	0.0509	0.151
Mof_C 	C 	0.8729	0.3145	0.1224	-0.176
Mof_H 	H 	0.8662	0.3034	0.1797	0.094
Mof_C 	C 	0.9021	0.3591	0.1098	0.081
Mof_H 	H 	0.915	0.3774	0.158	0.019
Mof_C 	C 	0.82749	0.2399	0.0694	-0.091
Mof_C 	C 	0.84588	0.22024	0.1187	-0.036
Mof_H 	H 	0.8746	0.2366	0.1357	0.044
Mof_H 	H 	0.7274	0.2288	0.0948	-0.078
Mof_H 	H 	0.7463	0.2975	0.9749	0.26
Mof_O 	O 	0.62832	0.77573	0.41563	-0.401
Mof_O 	O 	0.616	0.7692	0.26523	-0.406
Mof_C 	C 	0.60998	0.75523	0.34223	0.352
Mof_C 	C 	0.57757	0.70832	0.35693	-0.143
Mof_C 	C 	0.55667	0.68223	0.29003	0.102
Mof_H 	H 	0.56127	0.69323	0.23253	0.009
Mof_C 	C 	0.52757	0.63813	0.30423	-0.195
Mof_H 	H 	0.51247	0.62083	0.25623	0.113
Mof_C 	C 	0.52113	0.62074	0.38423	0.15
Mof_C 	C 	0.53957	0.64783	0.45573	-0.175
Mof_H 	H 	0.53287	0.63673	0.51303	0.094
Mof_C 	C 	0.56877	0.69243	0.44313	0.081
Mof_H 	H 	0.58167	0.71073	0.49133	0.019
Mof_C 	C 	0.49416	0.57323	0.40273	-0.09
Mof_C 	C 	0.51255	0.55357	0.45203	-0.037
Mof_H 	H 	0.54127	0.56993	0.46903	0.044
Mof_H 	H 	0.39407	0.56213	0.42813	-0.079
Mof_H 	H 	0.41297	0.63083	0.30823	0.262
Mof_O 	O 	0.29498	0.10907	0.74897	-0.401
Mof_O 	O 	0.28266	0.10254	0.59857	-0.406
Mof_C 	C 	0.27664	0.08857	0.67557	0.352
Mof_C 	C 	0.24423	0.04166	0.69027	-0.143
Mof_C 	C 	0.22333	0.01557	0.62337	0.101
Mof_H 	H 	0.22793	0.02657	0.56587	0.009
Mof_C 	C 	0.19423	0.97147	0.63757	-0.194
Mof_H 	H 	0.17913	0.95417	0.58957	0.113
Mof_C 	C 	0.18779	0.95408	0.71757	0.149
Mof_C 	C 	0.20623	0.98117	0.78907	-0.174
Mof_H 	H 	0.19953	0.97007	0.84637	0.093
Mof_C 	C 	0.23543	0.02577	0.77647	0.08
Mof_H 	H 	0.24833	0.04407	0.82467	0.019
Mof_C 	C 	0.16082	0.90657	0.73607	-0.09
Mof_C 	C 	0.17921	0.88691	0.78537	-0.037
Mof_H 	H 	0.20793	0.90327	0.80237	0.045
Mof_H 	H 	0.06073	0.89547	0.76147	-0.079
Mof_H 	H 	0.07963	0.96417	0.64157	0.262
Mof_O 	O 	0.48075	0.03835	0.0823	-0.401
Mof_O 	O 	0.48654	0.05067	0.9319	-0.407
Mof_C 	C 	0.47859	0.05669	0.0089	0.352
Mof_C 	C 	0.46409	0.0891	0.0236	-0.143
Mof_C 	C 	0.4589	0.11	0.9567	0.101
Mof_H 	H 	0.4653	0.1054	0.8992	0.009
Mof_C 	C 	0.4439	0.1391	0.9709	-0.196
Mof_H 	H 	0.4417	0.1542	0.9229	0.113
Mof_C 	C 	0.43295	0.14554	0.0509	0.15
Mof_C 	C 	0.4416	0.1271	0.1224	-0.176
Mof_H 	H 	0.4372	0.1338	0.1797	0.094
Mof_C 	C 	0.457	0.0979	0.1098	0.081
Mof_H 	H 	0.4624	0.085	0.158	0.019
Mof_C 	C 	0.41241	0.17251	0.0694	-0.09
Mof_C 	C 	0.37436	0.15412	0.1187	-0.036
Mof_H 	H 	0.362	0.1254	0.1357	0.044
Mof_H 	H 	0.5014	0.2726	0.0948	-0.079
Mof_H 	H 	0.5512	0.2537	0.9749	0.26
Mof_O 	O 	0.14742	0.37168	0.41563	-0.401
Mof_O 	O 	0.15321	0.384	0.26523	-0.406
Mof_C 	C 	0.14526	0.39002	0.34223	0.352
Mof_C 	C 	0.13076	0.42243	0.35693	-0.143
Mof_C 	C 	0.12557	0.44333	0.29003	0.102
Mof_H 	H 	0.13197	0.43873	0.23253	0.009
Mof_C 	C 	0.11057	0.47243	0.30423	-0.195
Mof_H 	H 	0.10837	0.48753	0.25623	0.113
Mof_C 	C 	0.09962	0.47887	0.38423	0.15
Mof_C 	C 	0.10827	0.46043	0.45573	-0.175
Mof_H 	H 	0.10387	0.46713	0.51303	0.094
Mof_C 	C 	0.12367	0.43123	0.44313	0.081
Mof_H 	H 	0.12907	0.41833	0.49133	0.019
Mof_C 	C 	0.07908	0.50584	0.40273	-0.09
Mof_C 	C 	0.04103	0.48745	0.45203	-0.037
Mof_H 	H 	0.02867	0.45873	0.46903	0.044
Mof_H 	H 	0.16807	0.60593	0.42813	-0.079
Mof_H 	H 	0.21787	0.58703	0.30823	0.262
Mof_O 	O 	0.81408	0.70502	0.74897	-0.401
Mof_O 	O 	0.81987	0.71734	0.59857	-0.406
Mof_C 	C 	0.81192	0.72336	0.67557	0.352
Mof_C 	C 	0.79742	0.75577	0.69027	-0.143
Mof_C 	C 	0.79223	0.77667	0.62337	0.102
Mof_H 	H 	0.79863	0.77207	0.56587	0.009
Mof_C 	C 	0.77723	0.80577	0.63757	-0.195
Mof_H 	H 	0.77503	0.82087	0.58957	0.113
Mof_C 	C 	0.76628	0.81221	0.71757	0.15
Mof_C 	C 	0.77493	0.79377	0.78907	-0.175
Mof_H 	H 	0.77053	0.80047	0.84637	0.094
Mof_C 	C 	0.79033	0.76457	0.77647	0.081
Mof_H 	H 	0.79573	0.75167	0.82467	0.019
Mof_C 	C 	0.74574	0.83918	0.73607	-0.09
Mof_C 	C 	0.70769	0.82079	0.78537	-0.037
Mof_H 	H 	0.69533	0.79207	0.80237	0.044
Mof_H 	H 	0.83473	0.93927	0.76147	-0.079
Mof_H 	H 	0.88453	0.92037	0.64157	0.262
Mof_O 	O 	0.5576	0.51925	0.0823	-0.401
Mof_O 	O 	0.56413	0.51346	0.9319	-0.406
Mof_C 	C 	0.5781	0.52141	0.0089	0.352
Mof_C 	C 	0.62501	0.53591	0.0236	-0.143
Mof_C 	C 	0.6511	0.5411	0.9567	0.102
Mof_H 	H 	0.6401	0.5347	0.8992	0.009
Mof_C 	C 	0.6952	0.5561	0.9709	-0.196
Mof_H 	H 	0.7125	0.5583	0.9229	0.113
Mof_C 	C 	0.71259	0.56705	0.0509	0.15
Mof_C 	C 	0.6855	0.5584	0.1224	-0.176
Mof_H 	H 	0.6966	0.5628	0.1797	0.094
Mof_C 	C 	0.6409	0.543	0.1098	0.081
Mof_H 	H 	0.6226	0.5376	0.158	0.019
Mof_C 	C 	0.7601	0.58759	0.0694	-0.09
Mof_C 	C 	0.77976	0.62564	0.1187	-0.036
Mof_H 	H 	0.7634	0.638	0.1357	0.044
Mof_H 	H 	0.7712	0.4986	0.0948	-0.079
Mof_H 	H 	0.7025	0.4488	0.9749	0.26
Mof_O 	O 	0.22427	0.85258	0.41563	-0.401
Mof_O 	O 	0.2308	0.84679	0.26523	-0.406
Mof_C 	C 	0.24477	0.85474	0.34223	0.352
Mof_C 	C 	0.29168	0.86924	0.35693	-0.143
Mof_C 	C 	0.31777	0.87443	0.29003	0.102
Mof_H 	H 	0.30677	0.86803	0.23253	0.009
Mof_C 	C 	0.36187	0.88943	0.30423	-0.195
Mof_H 	H 	0.37917	0.89163	0.25623	0.113
Mof_C 	C 	0.37926	0.90038	0.38423	0.15
Mof_C 	C 	0.35217	0.89173	0.45573	-0.175
Mof_H 	H 	0.36327	0.89613	0.51303	0.094
Mof_C 	C 	0.30757	0.87633	0.44313	0.081
Mof_H 	H 	0.28927	0.87093	0.49133	0.019
Mof_C 	C 	0.42677	0.92092	0.40273	-0.09
Mof_C 	C 	0.44643	0.95897	0.45203	-0.037
Mof_H 	H 	0.43007	0.97133	0.46903	0.044
Mof_H 	H 	0.43787	0.83193	0.42813	-0.079
Mof_H 	H 	0.36917	0.78213	0.30823	0.262
Mof_O 	O 	0.89093	0.18592	0.74897	-0.401
Mof_O 	O 	0.89746	0.18013	0.59857	-0.406
Mof_C 	C 	0.91143	0.18808	0.67557	0.352
Mof_C 	C 	0.95834	0.20258	0.69027	-0.143
Mof_C 	C 	0.98443	0.20777	0.62337	0.101
Mof_H 	H 	0.97343	0.20137	0.56587	0.009
Mof_C 	C 	0.02853	0.22277	0.63757	-0.195
Mof_H 	H 	0.04583	0.22497	0.58957	0.113
Mof_C 	C 	0.04592	0.23372	0.71757	0.149
Mof_C 	C 	0.01883	0.22507	0.78907	-0.175
Mof_H 	H 	0.02993	0.22947	0.84637	0.094
Mof_C 	C 	0.97423	0.20967	0.77647	0.08
Mof_H 	H 	0.95593	0.20427	0.82467	0.019
Mof_C 	C 	0.09343	0.25426	0.73607	-0.09
Mof_C 	C 	0.11309	0.29231	0.78537	-0.037
Mof_H 	H 	0.09673	0.30467	0.80237	0.044
Mof_H 	H 	0.10453	0.16527	0.76147	-0.079
Mof_H 	H 	0.03583	0.11547	0.64157	0.262
Mof_Cu	Cu	0.50333	0.00666	0.91411	0.9
Mof_Cu	Cu	0.17	0.33999	0.24744	0.9
Mof_Cu	Cu	0.83666	0.67333	0.58078	0.9
Mof_Cu	Cu	0.99334	0.49667	0.91411	0.9
Mof_Cu	Cu	0.66001	0.83	0.24744	0.9
Mof_Cu	Cu	0.32667	0.16334	0.58078	0.9
Mof_Cu	Cu	0.50333	0.49667	0.91411	0.9
Mof_Cu	Cu	0.17	0.83	0.24744	0.9
Mof_Cu	Cu	0.83666	0.16334	0.58078	0.9
Mof_Cu	Cu	0.00666	0.50333	0.08589	0.9
Mof_Cu	Cu	0.67333	0.83666	0.41922	0.9
Mof_Cu	Cu	0.33999	0.17	0.75256	0.9
Mof_Cu	Cu	0.49667	0.99334	0.08589	0.9
Mof_Cu	Cu	0.16334	0.32667	0.41922	0.9
Mof_Cu	Cu	0.83	0.66001	0.75256	0.9
Mof_Cu	Cu	0.49667	0.50333	0.08589	0.9
Mof_Cu	Cu	0.16334	0.83666	0.41922	0.9
Mof_Cu	Cu	0.83	0.17	0.75256	0.9
Mof_O 	O 	0.76542	0.23458	0.9947	-0.289
Mof_C 	C 	0.82279	0.17721	0.1432	0.001
Mof_C 	C 	0.78405	0.21595	0.0447	0.161
Mof_C 	C 	0.7481	0.2519	0.0572	0.371
Mof_C 	C 	0.7258	0.2742	0.0113	-0.786
Mof_H 	H 	0.7146	0.2854	0.0556	0.249
Mof_O 	O 	0.43209	0.56791	0.32803	-0.289
Mof_C 	C 	0.48946	0.51054	0.47653	0.002
Mof_C 	C 	0.45072	0.54928	0.37803	0.16
Mof_C 	C 	0.41477	0.58523	0.39053	0.373
Mof_C 	C 	0.39247	0.60753	0.34463	-0.792
Mof_H 	H 	0.38127	0.61873	0.38893	0.251
Mof_O 	O 	0.09875	0.90125	0.66137	-0.289
Mof_C 	C 	0.15612	0.84388	0.80987	0.002
Mof_C 	C 	0.11738	0.88262	0.71137	0.16
Mof_C 	C 	0.08143	0.91857	0.72387	0.373
Mof_C 	C 	0.05913	0.94087	0.67797	-0.793
Mof_H 	H 	0.04793	0.95207	0.72227	0.251
Mof_O 	O 	0.76542	0.53084	0.9947	-0.289
Mof_C 	C 	0.82279	0.64558	0.1432	0.001
Mof_C 	C 	0.78405	0.5681	0.0447	0.161
Mof_C 	C 	0.7481	0.4962	0.0572	0.371
Mof_C 	C 	0.7258	0.4516	0.0113	-0.787
Mof_H 	H 	0.7146	0.4292	0.0556	0.25
Mof_O 	O 	0.43209	0.86417	0.32803	-0.289
Mof_C 	C 	0.48946	0.97891	0.47653	0.002
Mof_C 	C 	0.45072	0.90143	0.37803	0.16
Mof_C 	C 	0.41477	0.82953	0.39053	0.373
Mof_C 	C 	0.39247	0.78493	0.34463	-0.792
Mof_H 	H 	0.38127	0.76253	0.38893	0.251
Mof_O 	O 	0.09875	0.19751	0.66137	-0.289
Mof_C 	C 	0.15612	0.31225	0.80987	0.002
Mof_C 	C 	0.11738	0.23477	0.71137	0.16
Mof_C 	C 	0.08143	0.16287	0.72387	0.373
Mof_C 	C 	0.05913	0.11827	0.67797	-0.792
Mof_H 	H 	0.04793	0.09587	0.72227	0.251
Mof_O 	O 	0.46916	0.23458	0.9947	-0.289
Mof_C 	C 	0.35442	0.17721	0.1432	0.001
Mof_C 	C 	0.4319	0.21595	0.0447	0.161
Mof_C 	C 	0.5038	0.2519	0.0572	0.371
Mof_C 	C 	0.5484	0.2742	0.0113	-0.787
Mof_H 	H 	0.5708	0.2854	0.0556	0.25
Mof_O 	O 	0.13583	0.56791	0.32803	-0.289
Mof_C 	C 	0.02109	0.51054	0.47653	0.002
Mof_C 	C 	0.09857	0.54928	0.37803	0.16
Mof_C 	C 	0.17047	0.58523	0.39053	0.373
Mof_C 	C 	0.21507	0.60753	0.34463	-0.792
Mof_H 	H 	0.23747	0.61873	0.38893	0.251
Mof_O 	O 	0.80249	0.90125	0.66137	-0.289
Mof_C 	C 	0.68775	0.84388	0.80987	0.002
Mof_C 	C 	0.76523	0.88262	0.71137	0.16
Mof_C 	C 	0.83713	0.91857	0.72387	0.373
Mof_C 	C 	0.88173	0.94087	0.67797	-0.792
Mof_H 	H 	0.90413	0.95207	0.72227	0.251
Mof_O 	O 	0.23458	0.76542	0.0053	-0.289
Mof_C 	C 	0.17721	0.82279	0.8568	0.001
Mof_C 	C 	0.21595	0.78405	0.9553	0.161
Mof_C 	C 	0.2519	0.7481	0.9428	0.371
Mof_C 	C 	0.2742	0.7258	0.9887	-0.786
Mof_H 	H 	0.2854	0.7146	0.9444	0.249
Mof_O 	O 	0.90125	0.09875	0.33863	-0.289
Mof_C 	C 	0.84388	0.15612	0.19013	0.002
Mof_C 	C 	0.88262	0.11738	0.28863	0.16
Mof_C 	C 	0.91857	0.08143	0.27613	0.373
Mof_C 	C 	0.94087	0.05913	0.32203	-0.793
Mof_H 	H 	0.95207	0.04793	0.27773	0.251
Mof_O 	O 	0.56791	0.43209	0.67197	-0.289
Mof_C 	C 	0.51054	0.48946	0.52347	0.002
Mof_C 	C 	0.54928	0.45072	0.62197	0.16
Mof_C 	C 	0.58523	0.41477	0.60947	0.373
Mof_C 	C 	0.60753	0.39247	0.65537	-0.792
Mof_H 	H 	0.61873	0.38127	0.61107	0.251
Mof_O 	O 	0.53084	0.76542	0.0053	-0.289
Mof_C 	C 	0.64558	0.82279	0.8568	0.001
Mof_C 	C 	0.5681	0.78405	0.9553	0.161
Mof_C 	C 	0.4962	0.7481	0.9428	0.371
Mof_C 	C 	0.4516	0.7258	0.9887	-0.787
Mof_H 	H 	0.4292	0.7146	0.9444	0.25
Mof_O 	O 	0.19751	0.09875	0.33863	-0.289
Mof_C 	C 	0.31225	0.15612	0.19013	0.002
Mof_C 	C 	0.23477	0.11738	0.28863	0.16
Mof_C 	C 	0.16287	0.08143	0.27613	0.373
Mof_C 	C 	0.11827	0.05913	0.32203	-0.792
Mof_H 	H 	0.09587	0.04793	0.27773	0.251
Mof_O 	O 	0.86417	0.43209	0.67197	-0.289
Mof_C 	C 	0.97891	0.48946	0.52347	0.002
Mof_C 	C 	0.90143	0.45072	0.62197	0.16
Mof_C 	C 	0.82953	0.41477	0.60947	0.373
Mof_C 	C 	0.78493	0.39247	0.65537	-0.792
Mof_H 	H 	0.76253	0.38127	0.61107	0.251
Mof_O 	O 	0.23458	0.46916	0.0053	-0.289
Mof_C 	C 	0.17721	0.35442	0.8568	0.001
Mof_C 	C 	0.21595	0.4319	0.9553	0.161
Mof_C 	C 	0.2519	0.5038	0.9428	0.371
Mof_C 	C 	0.2742	0.5484	0.9887	-0.787
Mof_H 	H 	0.2854	0.5708	0.9444	0.25
Mof_O 	O 	0.90125	0.80249	0.33863	-0.289
Mof_C 	C 	0.84388	0.68775	0.19013	0.002
Mof_C 	C 	0.88262	0.76523	0.28863	0.16
Mof_C 	C 	0.91857	0.83713	0.27613	0.373
Mof_C 	C 	0.94087	0.88173	0.32203	-0.792
Mof_H 	H 	0.95207	0.90413	0.27773	0.251
Mof_O 	O 	0.56791	0.13583	0.67197	-0.289
Mof_C 	C 	0.51054	0.02109	0.52347	0.002
Mof_C 	C 	0.54928	0.09857	0.62197	0.16
Mof_C 	C 	0.58523	0.17047	0.60947	0.373
Mof_C 	C 	0.60753	0.21507	0.65537	-0.792
Mof_H 	H 	0.61873	0.23747	0.61107	0.251
_end
