# CIF file generated by openbabel 3.1.0, see https://openbabel.org
data_I
_chemical_name_common 'ELIJUF_clean'
_cell_length_a 9.353
_cell_length_b 9.797
_cell_length_c 11.388
_cell_angle_alpha 94.34
_cell_angle_beta 99.407
_cell_angle_gamma 111.455
_space_group_name_H-M_alt 'P 1'
_space_group_name_Hall 'P 1'
loop_
    _symmetry_equiv_pos_as_xyz
    x,y,z
loop_
    _atom_site_label
    _atom_site_type_symbol
    _atom_site_fract_x
    _atom_site_fract_y
    _atom_site_fract_z
    _atom_site_occupancy
    Y1       Y        0.27654    0.54510    0.48855    1.000
    Y2       Y        0.72346    0.45490    0.51145    1.000
    H1       H        0.27380    0.23310    0.12100    1.000
    H2       H        0.17660    0.10180    0.93620    1.000
    H3       H        0.84510    0.26990    0.88450    1.000
    H4       H        0.93680    0.39710    0.07810    1.000
    H5       H        0.19970    0.29240    0.72280    1.000
    H6       H        0.32210    0.00250    0.54010    1.000
    H7       H        0.92050    0.85950    0.66090    1.000
    H8       H        0.72620    0.76690    0.87900    1.000
    H9       H        0.82340    0.89820    0.06380    1.000
    H10      H        0.15490    0.73010    0.11550    1.000
    H11      H        0.06320    0.60290    0.92190    1.000
    H12      H        0.80030    0.70760    0.27720    1.000
    H13      H        0.67790    0.99750    0.45990    1.000
    H14      H        0.07950    0.14050    0.33910    1.000
    C1       C        0.17510    0.41270    0.24520    1.000
    C2       C        0.11590    0.32770    0.12340    1.000
    C3       C        0.18570    0.23960    0.07450    1.000
    C4       C        0.13100    0.16460    0.96380    1.000
    C5       C        0.00560    0.17950    0.88890    1.000
    C6       C        0.93200    0.26340    0.93290    1.000
    C7       C        0.98630    0.33880    0.04910    1.000
    C8       C        0.04800    0.07750    0.70760    1.000
    C9       C        0.18030    0.19560    0.69100    1.000
    C10      C        0.28110    0.16580    0.62670    1.000
    C11      C        0.25090    0.02250    0.57960    1.000
    C12      C        0.11410    0.90630    0.59040    1.000
    C13      C        0.01260    0.93560    0.65420    1.000
    C14      C        0.41950    0.29100    0.60310    1.000
    C15      C        0.08150    0.75330    0.53320    1.000
    C16      C        0.82490    0.58730    0.75480    1.000
    C17      C        0.88410    0.67230    0.87660    1.000
    C18      C        0.81430    0.76040    0.92550    1.000
    C19      C        0.86900    0.83540    0.03620    1.000
    C20      C        0.99440    0.82050    0.11110    1.000
    C21      C        0.06800    0.73660    0.06710    1.000
    C22      C        0.01370    0.66120    0.95090    1.000
    C23      C        0.95200    0.92250    0.29240    1.000
    C24      C        0.81970    0.80440    0.30900    1.000
    C25      C        0.71890    0.83420    0.37330    1.000
    C26      C        0.74910    0.97750    0.42040    1.000
    C27      C        0.88590    0.09370    0.40960    1.000
    C28      C        0.98740    0.06440    0.34580    1.000
    C29      C        0.58050    0.70900    0.39690    1.000
    C30      C        0.91850    0.24670    0.46680    1.000
    O1       O        0.12220    0.50450    0.28280    1.000
    O2       O        0.28150    0.38930    0.31690    1.000
    O3       O        0.54660    0.27510    0.60580    1.000
    O4       O        0.40230    0.40770    0.57780    1.000
    O5       O        0.18910    0.73070    0.49170    1.000
    O6       O        0.94960    0.65530    0.52850    1.000
    O7       O        0.94520    0.10500    0.77260    1.000
    O8       O        0.87780    0.49550    0.71720    1.000
    O9       O        0.71850    0.61070    0.68310    1.000
    O10      O        0.45340    0.72490    0.39420    1.000
    O11      O        0.59770    0.59230    0.42220    1.000
    O12      O        0.81090    0.26930    0.50830    1.000
    O13      O        0.05040    0.34470    0.47150    1.000
    O14      O        0.05480    0.89500    0.22740    1.000
