# CIF file generated by openbabel 3.1.0, see https://openbabel.org
data_I
_chemical_name_common 'image0'
_cell_length_a 15.5918
_cell_length_b 15.3726
_cell_length_c 18.2802
_cell_angle_alpha 90
_cell_angle_beta 90
_cell_angle_gamma 90
_space_group_name_H-M_alt 'P 1'
_space_group_name_Hall 'P 1'
loop_
    _symmetry_equiv_pos_as_xyz
    x,y,z
loop_
    _atom_site_label
    _atom_site_type_symbol
    _atom_site_fract_x
    _atom_site_fract_y
    _atom_site_fract_z
    _atom_site_occupancy
    O1       O        0.40920    0.74130    0.18980    1.000
    O2       O        0.09050    0.42510    0.31110    1.000
    C1       C        0.28230    0.61550    0.31630    1.000
    H1       H        0.30240    0.63880    0.36000    1.000
    C2       C        0.21870    0.55050    0.31730    1.000
    N1       N        0.19400    0.52800    0.37940    1.000
    O3       O        0.90920    0.24130    0.18980    1.000
    O4       O        0.59050    0.92510    0.31110    1.000
    C3       C        0.78230    0.11550    0.31630    1.000
    H2       H        0.80240    0.13880    0.36000    1.000
    C4       C        0.71870    0.05050    0.31730    1.000
    N2       N        0.69400    0.02800    0.37940    1.000
    O5       O        0.59080    0.74130    0.31020    1.000
    O6       O        0.90950    0.42510    0.18890    1.000
    C5       C        0.71770    0.61550    0.18370    1.000
    H3       H        0.69760    0.63880    0.14000    1.000
    C6       C        0.78130    0.55050    0.18270    1.000
    N3       N        0.80600    0.52800    0.12060    1.000
    O7       O        0.09080    0.24130    0.31020    1.000
    O8       O        0.40950    0.92510    0.18890    1.000
    C7       C        0.21770    0.11550    0.18370    1.000
    H4       H        0.19760    0.13880    0.14000    1.000
    C8       C        0.28130    0.05050    0.18270    1.000
    N4       N        0.30600    0.02800    0.12060    1.000
    O9       O        0.40920    0.74130    0.31020    1.000
    O10      O        0.09050    0.42510    0.18890    1.000
    C9       C        0.28230    0.61550    0.18370    1.000
    H5       H        0.30240    0.63880    0.14000    1.000
    C10      C        0.21870    0.55050    0.18270    1.000
    N5       N        0.19400    0.52800    0.12060    1.000
    O11      O        0.90920    0.24130    0.31020    1.000
    O12      O        0.59050    0.92510    0.18890    1.000
    C11      C        0.78230    0.11550    0.18370    1.000
    H6       H        0.80240    0.13880    0.14000    1.000
    C12      C        0.71870    0.05050    0.18270    1.000
    N6       N        0.69400    0.02800    0.12060    1.000
    O13      O        0.59080    0.74130    0.18980    1.000
    O14      O        0.90950    0.42510    0.31110    1.000
    C13      C        0.71770    0.61550    0.31630    1.000
    H7       H        0.69760    0.63880    0.36000    1.000
    C14      C        0.78130    0.55050    0.31730    1.000
    N7       N        0.80600    0.52800    0.37940    1.000
    O15      O        0.09080    0.24130    0.18980    1.000
    O16      O        0.40950    0.92510    0.31110    1.000
    C15      C        0.21770    0.11550    0.31630    1.000
    H8       H        0.19760    0.13880    0.36000    1.000
    C16      C        0.28130    0.05050    0.31730    1.000
    N8       N        0.30600    0.02800    0.37940    1.000
    Cd1      Cd       0.50000    0.83372    0.17023    1.000
    N9       N        0.50000    0.83710    0.06100    1.000
    C17      C        0.50000    0.91620    0.02090    1.000
    C18      C        0.50000    0.76300    0.01930    1.000
    H9       H        0.50000    0.96740    0.04800    1.000
    C19      C        0.50000    0.92430    0.94950    1.000
    C20      C        0.50000    0.77600    0.94070    1.000
    H10      H        0.50000    0.70780    0.04010    1.000
    C21      C        0.50000    0.84700    0.90760    1.000
    H11      H        0.50000    0.97870    0.92730    1.000
    H12      H        0.50000    0.72630    0.91190    1.000
    C22      C        0.50000    0.85400    0.83310    1.000
    N10      N        0.50000    0.80680    0.78670    1.000
    Cd2      Cd       0.00000    0.33372    0.17023    1.000
    N11      N        0.00000    0.33710    0.06100    1.000
    C23      C        0.00000    0.41620    0.02090    1.000
    C24      C        0.00000    0.26300    0.01930    1.000
    H13      H        0.00000    0.46740    0.04800    1.000
    C25      C        0.00000    0.42430    0.94950    1.000
    C26      C        0.00000    0.27600    0.94070    1.000
    H14      H        0.00000    0.20780    0.04010    1.000
    C27      C        0.00000    0.34700    0.90760    1.000
    H15      H        0.00000    0.47870    0.92730    1.000
    H16      H        0.00000    0.22630    0.91190    1.000
    C28      C        0.00000    0.35400    0.83310    1.000
    N12      N        0.00000    0.30680    0.78670    1.000
    Cd3      Cd       0.50000    0.83372    0.32977    1.000
    N13      N        0.50000    0.83710    0.43900    1.000
    C29      C        0.50000    0.91620    0.47910    1.000
    C30      C        0.50000    0.76300    0.48070    1.000
    H17      H        0.50000    0.96740    0.45200    1.000
    C31      C        0.50000    0.92430    0.55050    1.000
    C32      C        0.50000    0.77600    0.55930    1.000
    H18      H        0.50000    0.70780    0.45990    1.000
    C33      C        0.50000    0.84700    0.59240    1.000
    H19      H        0.50000    0.97870    0.57270    1.000
    H20      H        0.50000    0.72630    0.58810    1.000
    C34      C        0.50000    0.85400    0.66690    1.000
    N14      N        0.50000    0.80680    0.71330    1.000
    Cd4      Cd       0.00000    0.33372    0.32977    1.000
    N15      N        0.00000    0.33710    0.43900    1.000
    C35      C        0.00000    0.41620    0.47910    1.000
    C36      C        0.00000    0.26300    0.48070    1.000
    H21      H        0.00000    0.46740    0.45200    1.000
    C37      C        0.00000    0.42430    0.55050    1.000
    C38      C        0.00000    0.27600    0.55930    1.000
    H22      H        0.00000    0.20780    0.45990    1.000
    C39      C        0.00000    0.34700    0.59240    1.000
    H23      H        0.00000    0.47870    0.57270    1.000
    H24      H        0.00000    0.22630    0.58810    1.000
    C40      C        0.00000    0.35400    0.66690    1.000
    N16      N        0.00000    0.30680    0.71330    1.000
    C41      C        0.38320    0.71590    0.25000    1.000
    C42      C        0.31520    0.64510    0.25000    1.000
    C43      C        0.18680    0.51910    0.25000    1.000
    C44      C        0.11700    0.45320    0.25000    1.000
    C45      C        0.88320    0.21590    0.25000    1.000
    C46      C        0.81520    0.14510    0.25000    1.000
    C47      C        0.68680    0.01910    0.25000    1.000
    C48      C        0.61700    0.95320    0.25000    1.000
    C49      C        0.61680    0.71590    0.25000    1.000
    C50      C        0.68480    0.64510    0.25000    1.000
    C51      C        0.81320    0.51910    0.25000    1.000
    C52      C        0.88300    0.45320    0.25000    1.000
    C53      C        0.11680    0.21590    0.25000    1.000
    C54      C        0.18480    0.14510    0.25000    1.000
    C55      C        0.31320    0.01910    0.25000    1.000
    C56      C        0.38300    0.95320    0.25000    1.000
    O17      O        0.59080    0.25870    0.68980    1.000
    O18      O        0.90950    0.57490    0.81110    1.000
    C57      C        0.71770    0.38450    0.81630    1.000
    H25      H        0.69760    0.36120    0.86000    1.000
    C58      C        0.78130    0.44950    0.81730    1.000
    N17      N        0.80600    0.47200    0.87940    1.000
    O19      O        0.09080    0.75870    0.68980    1.000
    O20      O        0.40950    0.07490    0.81110    1.000
    C59      C        0.21770    0.88450    0.81630    1.000
    H26      H        0.19760    0.86120    0.86000    1.000
    C60      C        0.28130    0.94950    0.81730    1.000
    N18      N        0.30600    0.97200    0.87940    1.000
    O21      O        0.40920    0.25870    0.81020    1.000
    O22      O        0.09050    0.57490    0.68890    1.000
    C61      C        0.28230    0.38450    0.68370    1.000
    H27      H        0.30240    0.36120    0.64000    1.000
    C62      C        0.21870    0.44950    0.68270    1.000
    N19      N        0.19400    0.47200    0.62060    1.000
    O23      O        0.90920    0.75870    0.81020    1.000
    O24      O        0.59050    0.07490    0.68890    1.000
    C63      C        0.78230    0.88450    0.68370    1.000
    H28      H        0.80240    0.86120    0.64000    1.000
    C64      C        0.71870    0.94950    0.68270    1.000
    N20      N        0.69400    0.97200    0.62060    1.000
    O25      O        0.59080    0.25870    0.81020    1.000
    O26      O        0.90950    0.57490    0.68890    1.000
    C65      C        0.71770    0.38450    0.68370    1.000
    H29      H        0.69760    0.36120    0.64000    1.000
    C66      C        0.78130    0.44950    0.68270    1.000
    N21      N        0.80600    0.47200    0.62060    1.000
    O27      O        0.09080    0.75870    0.81020    1.000
    O28      O        0.40950    0.07490    0.68890    1.000
    C67      C        0.21770    0.88450    0.68370    1.000
    H30      H        0.19760    0.86120    0.64000    1.000
    C68      C        0.28130    0.94950    0.68270    1.000
    N22      N        0.30600    0.97200    0.62060    1.000
    O29      O        0.40920    0.25870    0.68980    1.000
    O30      O        0.09050    0.57490    0.81110    1.000
    C69      C        0.28230    0.38450    0.81630    1.000
    H31      H        0.30240    0.36120    0.86000    1.000
    C70      C        0.21870    0.44950    0.81730    1.000
    N23      N        0.19400    0.47200    0.87940    1.000
    O31      O        0.90920    0.75870    0.68980    1.000
    O32      O        0.59050    0.07490    0.81110    1.000
    C71      C        0.78230    0.88450    0.81630    1.000
    H32      H        0.80240    0.86120    0.86000    1.000
    C72      C        0.71870    0.94950    0.81730    1.000
    N24      N        0.69400    0.97200    0.87940    1.000
    Cd5      Cd       0.50000    0.16628    0.67023    1.000
    N25      N        0.50000    0.16290    0.56100    1.000
    C73      C        0.50000    0.08380    0.52090    1.000
    C74      C        0.50000    0.23700    0.51930    1.000
    H33      H        0.50000    0.03260    0.54800    1.000
    C75      C        0.50000    0.07570    0.44950    1.000
    C76      C        0.50000    0.22400    0.44070    1.000
    H34      H        0.50000    0.29220    0.54010    1.000
    C77      C        0.50000    0.15300    0.40760    1.000
    H35      H        0.50000    0.02130    0.42730    1.000
    H36      H        0.50000    0.27370    0.41190    1.000
    C78      C        0.50000    0.14600    0.33310    1.000
    N26      N        0.50000    0.19320    0.28670    1.000
    Cd6      Cd       0.00000    0.66628    0.67023    1.000
    N27      N        0.00000    0.66290    0.56100    1.000
    C79      C        0.00000    0.58380    0.52090    1.000
    C80      C        0.00000    0.73700    0.51930    1.000
    H37      H        0.00000    0.53260    0.54800    1.000
    C81      C        0.00000    0.57570    0.44950    1.000
    C82      C        0.00000    0.72400    0.44070    1.000
    H38      H        0.00000    0.79220    0.54010    1.000
    C83      C        0.00000    0.65300    0.40760    1.000
    H39      H        0.00000    0.52130    0.42730    1.000
    H40      H        0.00000    0.77370    0.41190    1.000
    C84      C        0.00000    0.64600    0.33310    1.000
    N28      N        0.00000    0.69320    0.28670    1.000
    Cd7      Cd       0.50000    0.16628    0.82977    1.000
    N29      N        0.50000    0.16290    0.93900    1.000
    C85      C        0.50000    0.08380    0.97910    1.000
    C86      C        0.50000    0.23700    0.98070    1.000
    H41      H        0.50000    0.03260    0.95200    1.000
    C87      C        0.50000    0.07570    0.05050    1.000
    C88      C        0.50000    0.22400    0.05930    1.000
    H42      H        0.50000    0.29220    0.95990    1.000
    C89      C        0.50000    0.15300    0.09240    1.000
    H43      H        0.50000    0.02130    0.07270    1.000
    H44      H        0.50000    0.27370    0.08810    1.000
    C90      C        0.50000    0.14600    0.16690    1.000
    N30      N        0.50000    0.19320    0.21330    1.000
    Cd8      Cd       0.00000    0.66628    0.82977    1.000
    N31      N        0.00000    0.66290    0.93900    1.000
    C91      C        0.00000    0.58380    0.97910    1.000
    C92      C        0.00000    0.73700    0.98070    1.000
    H45      H        0.00000    0.53260    0.95200    1.000
    C93      C        0.00000    0.57570    0.05050    1.000
    C94      C        0.00000    0.72400    0.05930    1.000
    H46      H        0.00000    0.79220    0.95990    1.000
    C95      C        0.00000    0.65300    0.09240    1.000
    H47      H        0.00000    0.52130    0.07270    1.000
    H48      H        0.00000    0.77370    0.08810    1.000
    C96      C        0.00000    0.64600    0.16690    1.000
    N32      N        0.00000    0.69320    0.21330    1.000
    C97      C        0.61680    0.28410    0.75000    1.000
    C98      C        0.68480    0.35490    0.75000    1.000
    C99      C        0.81320    0.48090    0.75000    1.000
    C100     C        0.88300    0.54680    0.75000    1.000
    C101     C        0.11680    0.78410    0.75000    1.000
    C102     C        0.18480    0.85490    0.75000    1.000
    C103     C        0.31320    0.98090    0.75000    1.000
    C104     C        0.38300    0.04680    0.75000    1.000
    C105     C        0.38320    0.28410    0.75000    1.000
    C106     C        0.31520    0.35490    0.75000    1.000
    C107     C        0.18680    0.48090    0.75000    1.000
    C108     C        0.11700    0.54680    0.75000    1.000
    C109     C        0.88320    0.78410    0.75000    1.000
    C110     C        0.81520    0.85490    0.75000    1.000
    C111     C        0.68680    0.98090    0.75000    1.000
    C112     C        0.61700    0.04680    0.75000    1.000
