data_functionalizedCrystal
_audit_creation_method	'EQeq! by Chris Wilmer'
_symmetry_space_group_name_H-M	'P1'
_symmetry_Int_Tables_number	1
_symmetry_cell_setting	triclinic
loop_
_symmetry_equiv_pos_as_xyz
  x,y,z
_cell_length_a	21.8154
_cell_length_b	21.8154
_cell_length_c	16.1967
_cell_angle_alpha	90
_cell_angle_beta	90
_cell_angle_gamma	90
loop_
_atom_site_label
_atom_site_type_symbol
_atom_site_fract_x
_atom_site_fract_y
_atom_site_fract_z
_atom_site_charge
Mof_Y 	Y 	0.33502	0.36759	0.87377	1.209
Mof_O 	O 	0.2547	0.3894	0.7745	-0.402
Mof_O 	O 	0.2238	0.4275	0.6538	-0.402
Mof_O 	O 	0.5241	0.4199	0.8041	-0.439
Mof_O 	O 	0.4419	0.3857	0.8672	-0.425
Mof_N 	N 	0.3686	0.4202	0.7474	-0.159
Mof_C 	C 	0.4272	0.435	0.7388	-0.057
Mof_C 	C 	0.4492	0.4692	0.6712	-0.022
Mof_H 	H 	0.4904	0.4794	0.6659	0.03
Mof_C 	C 	0.4064	0.4868	0.6133	-0.053
Mof_H 	H 	0.4187	0.5106	0.5687	0.038
Mof_C 	C 	0.345	0.4697	0.6202	-0.029
Mof_H 	H 	0.3163	0.48	0.58	0.041
Mof_C 	C 	0.3292	0.437	0.6889	-0.04
Mof_C 	C 	0.2646	0.4162	0.7045	0.343
Mof_C 	C 	0.4675	0.4123	0.8077	0.369
Mof_Y 	Y 	0.83502	0.86759	0.37377	1.208
Mof_O 	O 	0.7547	0.8894	0.2745	-0.403
Mof_O 	O 	0.7238	0.9275	0.1538	-0.402
Mof_O 	O 	0.0241	0.9199	0.3041	-0.44
Mof_O 	O 	0.9419	0.8857	0.3672	-0.425
Mof_N 	N 	0.8686	0.9202	0.2474	-0.159
Mof_C 	C 	0.9272	0.935	0.2388	-0.056
Mof_C 	C 	0.9492	0.9692	0.1712	-0.023
Mof_H 	H 	0.9904	0.9794	0.1659	0.03
Mof_C 	C 	0.9064	0.9868	0.1133	-0.051
Mof_H 	H 	0.9187	0.0106	0.0687	0.037
Mof_C 	C 	0.845	0.9697	0.1202	-0.03
Mof_H 	H 	0.8163	0.98	0.08	0.041
Mof_C 	C 	0.8292	0.937	0.1889	-0.039
Mof_C 	C 	0.7646	0.9162	0.2045	0.343
Mof_C 	C 	0.9675	0.9123	0.3077	0.369
Mof_Y 	Y 	0.16498	0.63241	0.37377	1.208
Mof_O 	O 	0.2453	0.6106	0.2745	-0.403
Mof_O 	O 	0.2762	0.5725	0.1538	-0.402
Mof_O 	O 	0.9759	0.5801	0.3041	-0.44
Mof_O 	O 	0.0581	0.6143	0.3672	-0.425
Mof_N 	N 	0.1314	0.5798	0.2474	-0.159
Mof_C 	C 	0.0728	0.565	0.2388	-0.057
Mof_C 	C 	0.0508	0.5308	0.1712	-0.022
Mof_H 	H 	0.0096	0.5206	0.1659	0.03
Mof_C 	C 	0.0936	0.5132	0.1133	-0.053
Mof_H 	H 	0.0813	0.4894	0.0687	0.038
Mof_C 	C 	0.155	0.5303	0.1202	-0.029
Mof_H 	H 	0.1837	0.52	0.08	0.041
Mof_C 	C 	0.1708	0.563	0.1889	-0.04
Mof_C 	C 	0.2354	0.5838	0.2045	0.343
Mof_C 	C 	0.0325	0.5877	0.3077	0.369
Mof_Y 	Y 	0.66498	0.13241	0.87377	1.208
Mof_O 	O 	0.7453	0.1106	0.7745	-0.403
Mof_O 	O 	0.7762	0.0725	0.6538	-0.402
Mof_O 	O 	0.4759	0.0801	0.8041	-0.439
Mof_O 	O 	0.5581	0.1143	0.8672	-0.425
Mof_N 	N 	0.6314	0.0798	0.7474	-0.159
Mof_C 	C 	0.5728	0.065	0.7388	-0.056
Mof_C 	C 	0.5508	0.0308	0.6712	-0.022
Mof_H 	H 	0.5096	0.0206	0.6659	0.03
Mof_C 	C 	0.5936	0.0132	0.6133	-0.053
Mof_H 	H 	0.5813	0.9894	0.5687	0.038
Mof_C 	C 	0.655	0.0303	0.6202	-0.029
Mof_H 	H 	0.6837	0.02	0.58	0.041
Mof_C 	C 	0.6708	0.063	0.6889	-0.04
Mof_C 	C 	0.7354	0.0838	0.7045	0.343
Mof_C 	C 	0.5325	0.0877	0.8077	0.369
Mof_Y 	Y 	0.38241	0.58502	0.12377	1.208
Mof_O 	O 	0.3606	0.5047	0.0245	-0.403
Mof_O 	O 	0.3225	0.4738	0.9038	-0.402
Mof_O 	O 	0.3301	0.7741	0.0541	-0.439
Mof_O 	O 	0.3643	0.6919	0.1172	-0.425
Mof_N 	N 	0.3298	0.6186	0.9974	-0.159
Mof_C 	C 	0.315	0.6772	0.9888	-0.057
Mof_C 	C 	0.2808	0.6992	0.9212	-0.022
Mof_H 	H 	0.2706	0.7404	0.9159	0.03
Mof_C 	C 	0.2632	0.6564	0.8633	-0.053
Mof_H 	H 	0.2394	0.6687	0.8187	0.038
Mof_C 	C 	0.2803	0.595	0.8702	-0.029
Mof_H 	H 	0.27	0.5663	0.83	0.041
Mof_C 	C 	0.313	0.5792	0.9389	-0.04
Mof_C 	C 	0.3338	0.5146	0.9545	0.343
Mof_C 	C 	0.3377	0.7175	0.0577	0.369
Mof_Y 	Y 	0.88241	0.08502	0.62377	1.207
Mof_O 	O 	0.8606	0.0047	0.5245	-0.403
Mof_O 	O 	0.8225	0.9738	0.4038	-0.402
Mof_O 	O 	0.8301	0.2741	0.5541	-0.439
Mof_O 	O 	0.8643	0.1919	0.6172	-0.425
Mof_N 	N 	0.8298	0.1186	0.4974	-0.159
Mof_C 	C 	0.815	0.1772	0.4888	-0.057
Mof_C 	C 	0.7808	0.1992	0.4212	-0.022
Mof_H 	H 	0.7706	0.2404	0.4159	0.03
Mof_C 	C 	0.7632	0.1564	0.3633	-0.053
Mof_H 	H 	0.7394	0.1687	0.3187	0.038
Mof_C 	C 	0.7803	0.095	0.3702	-0.029
Mof_H 	H 	0.77	0.0663	0.33	0.041
Mof_C 	C 	0.813	0.0792	0.4389	-0.04
Mof_C 	C 	0.8338	0.0146	0.4545	0.343
Mof_C 	C 	0.8377	0.2175	0.5577	0.369
Mof_Y 	Y 	0.11759	0.41498	0.62377	1.208
Mof_O 	O 	0.1394	0.4953	0.5245	-0.403
Mof_O 	O 	0.1775	0.5262	0.4038	-0.402
Mof_O 	O 	0.1699	0.2259	0.5541	-0.439
Mof_O 	O 	0.1357	0.3081	0.6172	-0.425
Mof_N 	N 	0.1702	0.3814	0.4974	-0.159
Mof_C 	C 	0.185	0.3228	0.4888	-0.057
Mof_C 	C 	0.2192	0.3008	0.4212	-0.022
Mof_H 	H 	0.2294	0.2596	0.4159	0.03
Mof_C 	C 	0.2368	0.3436	0.3633	-0.053
Mof_H 	H 	0.2606	0.3313	0.3187	0.038
Mof_C 	C 	0.2197	0.405	0.3702	-0.029
Mof_H 	H 	0.23	0.4337	0.33	0.041
Mof_C 	C 	0.187	0.4208	0.4389	-0.04
Mof_C 	C 	0.1662	0.4854	0.4545	0.343
Mof_C 	C 	0.1623	0.2825	0.5577	0.369
Mof_Y 	Y 	0.61759	0.91498	0.12377	1.208
Mof_O 	O 	0.6394	0.9953	0.0245	-0.402
Mof_O 	O 	0.6775	0.0262	0.9038	-0.401
Mof_O 	O 	0.6699	0.7259	0.0541	-0.44
Mof_O 	O 	0.6357	0.8081	0.1172	-0.425
Mof_N 	N 	0.6702	0.8814	0.9974	-0.159
Mof_C 	C 	0.685	0.8228	0.9888	-0.057
Mof_C 	C 	0.7192	0.8008	0.9212	-0.022
Mof_H 	H 	0.7294	0.7596	0.9159	0.03
Mof_C 	C 	0.7368	0.8436	0.8633	-0.053
Mof_H 	H 	0.7606	0.8313	0.8187	0.038
Mof_C 	C 	0.7197	0.905	0.8702	-0.029
Mof_H 	H 	0.73	0.9337	0.83	0.041
Mof_C 	C 	0.687	0.9208	0.9389	-0.04
Mof_C 	C 	0.6662	0.9854	0.9545	0.341
Mof_C 	C 	0.6623	0.7825	0.0577	0.37
Mof_Y 	Y 	0.66498	0.63241	0.12623	1.208
Mof_O 	O 	0.7453	0.6106	0.2255	-0.403
Mof_O 	O 	0.7762	0.5725	0.3462	-0.402
Mof_O 	O 	0.4759	0.5801	0.1959	-0.439
Mof_O 	O 	0.5581	0.6143	0.1328	-0.425
Mof_N 	N 	0.6314	0.5798	0.2526	-0.159
Mof_C 	C 	0.5728	0.565	0.2612	-0.057
Mof_C 	C 	0.5508	0.5308	0.3288	-0.022
Mof_H 	H 	0.5096	0.5206	0.3341	0.03
Mof_C 	C 	0.5936	0.5132	0.3867	-0.053
Mof_H 	H 	0.5813	0.4894	0.4313	0.038
Mof_C 	C 	0.655	0.5303	0.3798	-0.029
Mof_H 	H 	0.6837	0.52	0.42	0.041
Mof_C 	C 	0.6708	0.563	0.3111	-0.04
Mof_C 	C 	0.7354	0.5838	0.2955	0.343
Mof_C 	C 	0.5325	0.5877	0.1923	0.369
Mof_Y 	Y 	0.16498	0.13241	0.62623	1.208
Mof_O 	O 	0.2453	0.1106	0.7255	-0.403
Mof_O 	O 	0.2762	0.0725	0.8462	-0.402
Mof_O 	O 	0.9759	0.0801	0.6959	-0.44
Mof_O 	O 	0.0581	0.1143	0.6328	-0.425
Mof_N 	N 	0.1314	0.0798	0.7526	-0.159
Mof_C 	C 	0.0728	0.065	0.7612	-0.056
Mof_C 	C 	0.0508	0.0308	0.8288	-0.023
Mof_H 	H 	0.0096	0.0206	0.8341	0.03
Mof_C 	C 	0.0936	0.0132	0.8867	-0.051
Mof_H 	H 	0.0813	0.9894	0.9313	0.037
Mof_C 	C 	0.155	0.0303	0.8798	-0.03
Mof_H 	H 	0.1837	0.02	0.92	0.041
Mof_C 	C 	0.1708	0.063	0.8111	-0.039
Mof_C 	C 	0.2354	0.0838	0.7955	0.343
Mof_C 	C 	0.0325	0.0877	0.6923	0.369
Mof_Y 	Y 	0.83502	0.36759	0.62623	1.208
Mof_O 	O 	0.7547	0.3894	0.7255	-0.403
Mof_O 	O 	0.7238	0.4275	0.8462	-0.402
Mof_O 	O 	0.0241	0.4199	0.6959	-0.44
Mof_O 	O 	0.9419	0.3857	0.6328	-0.425
Mof_N 	N 	0.8686	0.4202	0.7526	-0.159
Mof_C 	C 	0.9272	0.435	0.7612	-0.057
Mof_C 	C 	0.9492	0.4692	0.8288	-0.022
Mof_H 	H 	0.9904	0.4794	0.8341	0.03
Mof_C 	C 	0.9064	0.4868	0.8867	-0.053
Mof_H 	H 	0.9187	0.5106	0.9313	0.038
Mof_C 	C 	0.845	0.4697	0.8798	-0.029
Mof_H 	H 	0.8163	0.48	0.92	0.041
Mof_C 	C 	0.8292	0.437	0.8111	-0.04
Mof_C 	C 	0.7646	0.4162	0.7955	0.343
Mof_C 	C 	0.9675	0.4123	0.6923	0.369
Mof_Y 	Y 	0.33502	0.86759	0.12623	1.208
Mof_O 	O 	0.2547	0.8894	0.2255	-0.403
Mof_O 	O 	0.2238	0.9275	0.3462	-0.402
Mof_O 	O 	0.5241	0.9199	0.1959	-0.439
Mof_O 	O 	0.4419	0.8857	0.1328	-0.425
Mof_N 	N 	0.3686	0.9202	0.2526	-0.159
Mof_C 	C 	0.4272	0.935	0.2612	-0.056
Mof_C 	C 	0.4492	0.9692	0.3288	-0.022
Mof_H 	H 	0.4904	0.9794	0.3341	0.03
Mof_C 	C 	0.4064	0.9868	0.3867	-0.053
Mof_H 	H 	0.4187	0.0106	0.4313	0.038
Mof_C 	C 	0.345	0.9697	0.3798	-0.029
Mof_H 	H 	0.3163	0.98	0.42	0.041
Mof_C 	C 	0.3292	0.937	0.3111	-0.04
Mof_C 	C 	0.2646	0.9162	0.2955	0.343
Mof_C 	C 	0.4675	0.9123	0.1923	0.369
Mof_Y 	Y 	0.61759	0.41498	0.87623	1.208
Mof_O 	O 	0.6394	0.4953	0.9755	-0.403
Mof_O 	O 	0.6775	0.5262	0.0962	-0.402
Mof_O 	O 	0.6699	0.2259	0.9459	-0.439
Mof_O 	O 	0.6357	0.3081	0.8828	-0.425
Mof_N 	N 	0.6702	0.3814	0.0026	-0.159
Mof_C 	C 	0.685	0.3228	0.0112	-0.057
Mof_C 	C 	0.7192	0.3008	0.0788	-0.022
Mof_H 	H 	0.7294	0.2596	0.0841	0.03
Mof_C 	C 	0.7368	0.3436	0.1367	-0.053
Mof_H 	H 	0.7606	0.3313	0.1813	0.038
Mof_C 	C 	0.7197	0.405	0.1298	-0.029
Mof_H 	H 	0.73	0.4337	0.17	0.041
Mof_C 	C 	0.687	0.4208	0.0611	-0.04
Mof_C 	C 	0.6662	0.4854	0.0455	0.343
Mof_C 	C 	0.6623	0.2825	0.9423	0.369
Mof_Y 	Y 	0.11759	0.91498	0.37623	1.207
Mof_O 	O 	0.1394	0.9953	0.4755	-0.403
Mof_O 	O 	0.1775	0.0262	0.5962	-0.402
Mof_O 	O 	0.1699	0.7259	0.4459	-0.439
Mof_O 	O 	0.1357	0.8081	0.3828	-0.425
Mof_N 	N 	0.1702	0.8814	0.5026	-0.159
Mof_C 	C 	0.185	0.8228	0.5112	-0.057
Mof_C 	C 	0.2192	0.8008	0.5788	-0.022
Mof_H 	H 	0.2294	0.7596	0.5841	0.03
Mof_C 	C 	0.2368	0.8436	0.6367	-0.053
Mof_H 	H 	0.2606	0.8313	0.6813	0.038
Mof_C 	C 	0.2197	0.905	0.6298	-0.029
Mof_H 	H 	0.23	0.9337	0.67	0.041
Mof_C 	C 	0.187	0.9208	0.5611	-0.04
Mof_C 	C 	0.1662	0.9854	0.5455	0.343
Mof_C 	C 	0.1623	0.7825	0.4423	0.369
Mof_Y 	Y 	0.88241	0.58502	0.37623	1.208
Mof_O 	O 	0.8606	0.5047	0.4755	-0.403
Mof_O 	O 	0.8225	0.4738	0.5962	-0.402
Mof_O 	O 	0.8301	0.7741	0.4459	-0.439
Mof_O 	O 	0.8643	0.6919	0.3828	-0.425
Mof_N 	N 	0.8298	0.6186	0.5026	-0.159
Mof_C 	C 	0.815	0.6772	0.5112	-0.057
Mof_C 	C 	0.7808	0.6992	0.5788	-0.022
Mof_H 	H 	0.7706	0.7404	0.5841	0.03
Mof_C 	C 	0.7632	0.6564	0.6367	-0.053
Mof_H 	H 	0.7394	0.6687	0.6813	0.038
Mof_C 	C 	0.7803	0.595	0.6298	-0.029
Mof_H 	H 	0.77	0.5663	0.67	0.041
Mof_C 	C 	0.813	0.5792	0.5611	-0.04
Mof_C 	C 	0.8338	0.5146	0.5455	0.343
Mof_C 	C 	0.8377	0.7175	0.4423	0.369
Mof_Y 	Y 	0.38241	0.08502	0.87623	1.208
Mof_O 	O 	0.3606	0.0047	0.9755	-0.402
Mof_O 	O 	0.3225	0.9738	0.0962	-0.401
Mof_O 	O 	0.3301	0.2741	0.9459	-0.44
Mof_O 	O 	0.3643	0.1919	0.8828	-0.425
Mof_N 	N 	0.3298	0.1186	0.0026	-0.159
Mof_C 	C 	0.315	0.1772	0.0112	-0.057
Mof_C 	C 	0.2808	0.1992	0.0788	-0.022
Mof_H 	H 	0.2706	0.2404	0.0841	0.03
Mof_C 	C 	0.2632	0.1564	0.1367	-0.053
Mof_H 	H 	0.2394	0.1687	0.1813	0.038
Mof_C 	C 	0.2803	0.095	0.1298	-0.029
Mof_H 	H 	0.27	0.0663	0.17	0.041
Mof_C 	C 	0.313	0.0792	0.0611	-0.04
Mof_C 	C 	0.3338	0.0146	0.0455	0.341
Mof_C 	C 	0.3377	0.2175	0.9423	0.37
_end
