data_functionalizedCrystal
_audit_creation_method	'EQeq! by Chris Wilmer'
_symmetry_space_group_name_H-M	'P1'
_symmetry_Int_Tables_number	1
_symmetry_cell_setting	triclinic
loop_
_symmetry_equiv_pos_as_xyz
  x,y,z
_cell_length_a	26.0643
_cell_length_b	26.0643
_cell_length_c	26.0643
_cell_angle_alpha	109.471
_cell_angle_beta	109.471
_cell_angle_gamma	109.471
loop_
_atom_site_label
_atom_site_type_symbol
_atom_site_fract_x
_atom_site_fract_y
_atom_site_fract_z
_atom_site_charge
Mof_Cu	Cu	0.44018	0.67589	0.87661	0.848
Mof_Cu	Cu	0.29928	0.56357	0.62339	0.848
Mof_Cu	Cu	0.20072	0.82411	0.26429	0.848
Mof_Cu	Cu	0.05982	0.93643	0.23571	0.848
Mof_Cu	Cu	0.76429	0.20072	0.32411	0.848
Mof_Cu	Cu	0.73571	0.05982	0.43643	0.848
Mof_Cu	Cu	0.37661	0.44018	0.17589	0.848
Mof_Cu	Cu	0.12339	0.29928	0.06357	0.848
Mof_Cu	Cu	0.56357	0.12339	0.79928	0.848
Mof_Cu	Cu	0.67589	0.37661	0.94018	0.848
Mof_Cu	Cu	0.93643	0.73571	0.55982	0.848
Mof_Cu	Cu	0.82411	0.76429	0.70072	0.847
Mof_Cu	Cu	0.06357	0.79928	0.12339	0.847
Mof_Cu	Cu	0.17589	0.94018	0.37661	0.847
Mof_Cu	Cu	0.43643	0.55982	0.73571	0.847
Mof_Cu	Cu	0.32411	0.70072	0.76429	0.847
Mof_Cu	Cu	0.94018	0.87661	0.67589	0.847
Mof_Cu	Cu	0.79928	0.62339	0.56357	0.847
Mof_Cu	Cu	0.70072	0.26429	0.82411	0.847
Mof_Cu	Cu	0.55982	0.23571	0.93643	0.847
Mof_Cu	Cu	0.26429	0.32411	0.20072	0.847
Mof_Cu	Cu	0.23571	0.43643	0.05982	0.847
Mof_Cu	Cu	0.87661	0.17589	0.44018	0.847
Mof_Cu	Cu	0.62339	0.06357	0.29928	0.847
Mof_Cu	Cu	0.46371	0.71371	0.75	0.831
Mof_Cu	Cu	0.03629	0.78629	0.25	0.831
Mof_Cu	Cu	0.75	0.03629	0.28629	0.831
Mof_Cu	Cu	0.25	0.46371	0.21371	0.831
Mof_Cu	Cu	0.71371	0.25	0.96371	0.831
Mof_Cu	Cu	0.78629	0.75	0.53629	0.831
Mof_Cu	Cu	0.21371	0.96371	0.25	0.831
Mof_Cu	Cu	0.28629	0.53629	0.75	0.831
Mof_Cu	Cu	0.96371	0.75	0.71371	0.831
Mof_Cu	Cu	0.53629	0.25	0.78629	0.831
Mof_Cu	Cu	0.25	0.28629	0.03629	0.831
Mof_Cu	Cu	0.75	0.21371	0.46371	0.831
Mof_H 	H 	0.4857	0.5777	0.903	0.015
Mof_H 	H 	0.3827	0.6387	0.9554	0.024
Mof_H 	H 	0.3959	0.5716	0.0007	0.056
Mof_H 	H 	0.547	0.83	0.8936	-0.009
Mof_H 	H 	0.5075	0.8371	0.7398	0.017
Mof_H 	H 	0.5677	0.9452	0.8263	0.063
Mof_H 	H 	0.1747	0.5827	0.597	0.015
Mof_H 	H 	0.1833	0.4273	0.5446	0.024
Mof_H 	H 	0.0709	0.3952	0.4993	0.057
Mof_H 	H 	0.4364	0.6534	0.6064	-0.009
Mof_H 	H 	0.5973	0.7677	0.7602	0.017
Mof_H 	H 	0.6189	0.7414	0.6737	0.063
Mof_H 	H 	0.3253	0.9223	0.408	0.015
Mof_H 	H 	0.3167	0.8613	0.244	0.024
Mof_H 	H 	0.4291	0.9284	0.3243	0.057
Mof_H 	H 	0.0636	0.67	0.217	-0.008
Mof_H 	H 	0.9027	0.6629	0.1704	0.017
Mof_H 	H 	0.8811	0.5548	0.1225	0.063
Mof_H 	H 	0.0143	0.9173	0.092	0.015
Mof_H 	H 	0.1173	0.0727	0.256	0.024
Mof_H 	H 	0.1041	0.1048	0.1757	0.057
Mof_H 	H 	0.953	0.8466	0.283	-0.008
Mof_H 	H 	0.9925	0.7323	0.3296	0.017
Mof_H 	H 	0.9323	0.7586	0.3775	0.063
Mof_H 	H 	0.908	0.3253	0.4223	0.015
Mof_H 	H 	0.744	0.3167	0.3613	0.024
Mof_H 	H 	0.8243	0.4291	0.4284	0.057
Mof_H 	H 	0.717	0.0636	0.17	-0.009
Mof_H 	H 	0.6704	0.9027	0.1629	0.017
Mof_H 	H 	0.6225	0.8811	0.0548	0.063
Mof_H 	H 	0.592	0.0143	0.4173	0.015
Mof_H 	H 	0.756	0.1173	0.5727	0.024
Mof_H 	H 	0.6757	0.1041	0.6048	0.057
Mof_H 	H 	0.783	0.953	0.3466	-0.008
Mof_H 	H 	0.8296	0.9925	0.2323	0.017
Mof_H 	H 	0.8775	0.9323	0.2586	0.063
Mof_H 	H 	0.403	0.4857	0.0777	0.015
Mof_H 	H 	0.4554	0.3827	0.1387	0.024
Mof_H 	H 	0.5007	0.3959	0.0716	0.057
Mof_H 	H 	0.3936	0.547	0.33	-0.009
Mof_H 	H 	0.2398	0.5075	0.3371	0.017
Mof_H 	H 	0.3263	0.5677	0.4452	0.063
Mof_H 	H 	0.097	0.1747	0.0827	0.016
Mof_H 	H 	0.0446	0.1833	0.9273	0.025
Mof_H 	H 	0.9993	0.0709	0.8952	0.054
Mof_H 	H 	0.1064	0.4364	0.1534	-0.009
Mof_H 	H 	0.2602	0.5973	0.2677	0.017
Mof_H 	H 	0.1737	0.6189	0.2414	0.063
Mof_H 	H 	0.5827	0.097	0.6747	0.015
Mof_H 	H 	0.4273	0.0446	0.6833	0.024
Mof_H 	H 	0.3952	0.9993	0.5709	0.056
Mof_H 	H 	0.6534	0.1064	0.9364	-0.008
Mof_H 	H 	0.7677	0.2602	0.0973	0.017
Mof_H 	H 	0.7414	0.1737	0.1189	0.063
Mof_H 	H 	0.5777	0.403	0.9857	0.015
Mof_H 	H 	0.6387	0.4554	0.8827	0.024
Mof_H 	H 	0.5716	0.5007	0.8959	0.057
Mof_H 	H 	0.83	0.3936	0.047	-0.008
Mof_H 	H 	0.8371	0.2398	0.0075	0.017
Mof_H 	H 	0.9452	0.3263	0.0677	0.063
Mof_H 	H 	0.9173	0.592	0.5143	0.015
Mof_H 	H 	0.0727	0.756	0.6173	0.024
Mof_H 	H 	0.1048	0.6757	0.6041	0.057
Mof_H 	H 	0.8466	0.783	0.453	-0.009
Mof_H 	H 	0.7323	0.8296	0.4925	0.017
Mof_H 	H 	0.7586	0.8775	0.4323	0.063
Mof_H 	H 	0.9223	0.908	0.8253	0.015
Mof_H 	H 	0.8613	0.744	0.8167	0.024
Mof_H 	H 	0.9284	0.8243	0.9291	0.057
Mof_H 	H 	0.67	0.717	0.5636	-0.009
Mof_H 	H 	0.6629	0.6704	0.4027	0.017
Mof_H 	H 	0.5548	0.6225	0.3811	0.063
Mof_H 	H 	0.0827	0.6747	0.097	0.016
Mof_H 	H 	0.9273	0.6833	0.0446	0.024
Mof_H 	H 	0.8952	0.5709	0.9993	0.056
Mof_H 	H 	0.1534	0.9364	0.1064	-0.008
Mof_H 	H 	0.2677	0.0973	0.2602	0.017
Mof_H 	H 	0.2414	0.1189	0.1737	0.063
Mof_H 	H 	0.0777	0.9857	0.403	0.015
Mof_H 	H 	0.1387	0.8827	0.4554	0.024
Mof_H 	H 	0.0716	0.8959	0.5007	0.057
Mof_H 	H 	0.33	0.047	0.3936	-0.008
Mof_H 	H 	0.3371	0.0075	0.2398	0.017
Mof_H 	H 	0.4452	0.0677	0.3263	0.063
Mof_H 	H 	0.4173	0.5143	0.592	0.015
Mof_H 	H 	0.5727	0.6173	0.756	0.024
Mof_H 	H 	0.6048	0.6041	0.6757	0.057
Mof_H 	H 	0.3466	0.453	0.783	-0.009
Mof_H 	H 	0.2323	0.4925	0.8296	0.017
Mof_H 	H 	0.2586	0.4323	0.8775	0.063
Mof_H 	H 	0.4223	0.8253	0.908	0.015
Mof_H 	H 	0.3613	0.8167	0.744	0.024
Mof_H 	H 	0.4284	0.9291	0.8243	0.057
Mof_H 	H 	0.17	0.5636	0.717	-0.009
Mof_H 	H 	0.1629	0.4027	0.6704	0.017
Mof_H 	H 	0.0548	0.3811	0.6225	0.063
Mof_H 	H 	0.9857	0.903	0.5777	0.015
Mof_H 	H 	0.8827	0.9554	0.6387	0.025
Mof_H 	H 	0.8959	0.0007	0.5716	0.056
Mof_H 	H 	0.047	0.8936	0.83	-0.009
Mof_H 	H 	0.0075	0.7398	0.8371	0.017
Mof_H 	H 	0.0677	0.8263	0.9452	0.063
Mof_H 	H 	0.6747	0.597	0.5827	0.015
Mof_H 	H 	0.6833	0.5446	0.4273	0.024
Mof_H 	H 	0.5709	0.4993	0.3952	0.057
Mof_H 	H 	0.9364	0.6064	0.6534	-0.008
Mof_H 	H 	0.0973	0.7602	0.7677	0.017
Mof_H 	H 	0.1189	0.6737	0.7414	0.063
Mof_H 	H 	0.8253	0.408	0.9223	0.015
Mof_H 	H 	0.8167	0.244	0.8613	0.024
Mof_H 	H 	0.9291	0.3243	0.9284	0.056
Mof_H 	H 	0.5636	0.217	0.67	-0.009
Mof_H 	H 	0.4027	0.1704	0.6629	0.017
Mof_H 	H 	0.3811	0.1225	0.5548	0.063
Mof_H 	H 	0.5143	0.092	0.9173	0.015
Mof_H 	H 	0.6173	0.256	0.0727	0.024
Mof_H 	H 	0.6041	0.1757	0.1048	0.057
Mof_H 	H 	0.453	0.283	0.8466	-0.009
Mof_H 	H 	0.4925	0.3296	0.7323	0.017
Mof_H 	H 	0.4323	0.3775	0.7586	0.063
Mof_H 	H 	0.408	0.4223	0.3253	0.015
Mof_H 	H 	0.244	0.3613	0.3167	0.024
Mof_H 	H 	0.3243	0.4284	0.4291	0.057
Mof_H 	H 	0.217	0.17	0.0636	-0.008
Mof_H 	H 	0.1704	0.1629	0.9027	0.017
Mof_H 	H 	0.1225	0.0548	0.8811	0.063
Mof_H 	H 	0.092	0.4173	0.0143	0.015
Mof_H 	H 	0.256	0.5727	0.1173	0.024
Mof_H 	H 	0.1757	0.6048	0.1041	0.057
Mof_H 	H 	0.283	0.3466	0.953	-0.008
Mof_H 	H 	0.3296	0.2323	0.9925	0.017
Mof_H 	H 	0.3775	0.2586	0.9323	0.063
Mof_H 	H 	0.903	0.0777	0.4857	0.015
Mof_H 	H 	0.9554	0.1387	0.3827	0.024
Mof_H 	H 	0.0007	0.0716	0.3959	0.058
Mof_H 	H 	0.8936	0.33	0.547	-0.009
Mof_H 	H 	0.7398	0.3371	0.5075	0.017
Mof_H 	H 	0.8263	0.4452	0.5677	0.063
Mof_H 	H 	0.597	0.0827	0.1747	0.015
Mof_H 	H 	0.5446	0.9273	0.1833	0.024
Mof_H 	H 	0.4993	0.8952	0.0709	0.057
Mof_H 	H 	0.6064	0.1534	0.4364	-0.009
Mof_H 	H 	0.7602	0.2677	0.5973	0.017
Mof_H 	H 	0.6737	0.2414	0.6189	0.063
Mof_W 	W 	0.375	0.625	0.75	0.065
Mof_W 	W 	0.125	0.875	0.25	0.065
Mof_W 	W 	0.75	0.125	0.375	0.065
Mof_W 	W 	0.25	0.375	0.125	0.065
Mof_W 	W 	0.625	0.25	0.875	0.065
Mof_W 	W 	0.875	0.75	0.625	0.065
Mof_C 	C 	0.4636	0.5866	0.9228	0.084
Mof_C 	C 	0.406	0.6189	0.9511	0.007
Mof_C 	C 	0.4134	0.5826	0.9776	0.013
Mof_C 	C 	0.475	0.5291	0.9767	0.185
Mof_C 	C 	0.5439	0.8454	0.8659	0.127
Mof_C 	C 	0.522	0.8496	0.7822	0.016
Mof_C 	C 	0.5562	0.9087	0.8289	0.003
Mof_C 	C 	0.6075	0.9533	0.9446	0.194
Mof_C 	C 	0.1638	0.5408	0.5772	0.084
Mof_C 	C 	0.1678	0.4549	0.5489	0.007
Mof_C 	C 	0.105	0.4358	0.5224	0.013
Mof_C 	C 	0.0524	0.4983	0.5233	0.185
Mof_C 	C 	0.4795	0.678	0.6341	0.127
Mof_C 	C 	0.5674	0.7398	0.7178	0.016
Mof_C 	C 	0.5798	0.7273	0.6711	0.003
Mof_C 	C 	0.5087	0.6629	0.5554	0.194
Mof_C 	C 	0.3362	0.9134	0.377	0.084
Mof_C 	C 	0.3322	0.8811	0.2871	0.007
Mof_C 	C 	0.395	0.9174	0.3308	0.013
Mof_C 	C 	0.4476	0.9709	0.4459	0.185
Mof_C 	C 	0.0205	0.6546	0.1985	0.125
Mof_C 	C 	0.9326	0.6504	0.1724	0.016
Mof_C 	C 	0.9202	0.5913	0.1475	0.003
Mof_C 	C 	0.9913	0.5467	0.1542	0.194
Mof_C 	C 	0.0364	0.9592	0.123	0.083
Mof_C 	C 	0.094	0.0451	0.2129	0.008
Mof_C 	C 	0.0866	0.0642	0.1692	0.013
Mof_C 	C 	0.025	0.0017	0.0541	0.185
Mof_C 	C 	0.9561	0.822	0.3015	0.127
Mof_C 	C 	0.978	0.7602	0.3276	0.016
Mof_C 	C 	0.9438	0.7727	0.3525	0.003
Mof_C 	C 	0.8925	0.8371	0.3458	0.194
Mof_C 	C 	0.877	0.3362	0.4134	0.084
Mof_C 	C 	0.7871	0.3322	0.3811	0.007
Mof_C 	C 	0.8308	0.395	0.4174	0.013
Mof_C 	C 	0.9459	0.4476	0.4709	0.185
Mof_C 	C 	0.6985	0.0205	0.1546	0.127
Mof_C 	C 	0.6724	0.9326	0.1504	0.016
Mof_C 	C 	0.6475	0.9202	0.0913	0.003
Mof_C 	C 	0.6542	0.9913	0.0467	0.194
Mof_C 	C 	0.623	0.0364	0.4592	0.084
Mof_C 	C 	0.7129	0.094	0.5451	0.007
Mof_C 	C 	0.6692	0.0866	0.5642	0.013
Mof_C 	C 	0.5541	0.025	0.5017	0.185
Mof_C 	C 	0.8015	0.9561	0.322	0.127
Mof_C 	C 	0.8276	0.978	0.2602	0.016
Mof_C 	C 	0.8525	0.9438	0.2727	0.003
Mof_C 	C 	0.8458	0.8925	0.3371	0.194
Mof_C 	C 	0.4228	0.4636	0.0866	0.084
Mof_C 	C 	0.4511	0.406	0.1189	0.007
Mof_C 	C 	0.4776	0.4134	0.0826	0.013
Mof_C 	C 	0.4767	0.475	0.0291	0.185
Mof_C 	C 	0.3659	0.5439	0.3454	0.127
Mof_C 	C 	0.2822	0.522	0.3496	0.016
Mof_C 	C 	0.3289	0.5562	0.4087	0.003
Mof_C 	C 	0.4446	0.6075	0.4533	0.194
Mof_C 	C 	0.0772	0.1638	0.0408	0.084
Mof_C 	C 	0.0489	0.1678	0.9549	0.006
Mof_C 	C 	0.0224	0.105	0.9358	0.016
Mof_C 	C 	0.0233	0.0524	0.9983	0.186
Mof_C 	C 	0.1341	0.4795	0.178	0.127
Mof_C 	C 	0.2178	0.5674	0.2398	0.016
Mof_C 	C 	0.1711	0.5798	0.2273	0.003
Mof_C 	C 	0.0554	0.5087	0.1629	0.194
Mof_C 	C 	0.5408	0.0772	0.6638	0.084
Mof_C 	C 	0.4549	0.0489	0.6678	0.006
Mof_C 	C 	0.4358	0.0224	0.605	0.014
Mof_C 	C 	0.4983	0.0233	0.5524	0.185
Mof_C 	C 	0.678	0.1341	0.9795	0.125
Mof_C 	C 	0.7398	0.2178	0.0674	0.016
Mof_C 	C 	0.7273	0.1711	0.0798	0.003
Mof_C 	C 	0.6629	0.0554	0.0087	0.194
Mof_C 	C 	0.5866	0.4228	0.9636	0.084
Mof_C 	C 	0.6189	0.4511	0.906	0.007
Mof_C 	C 	0.5826	0.4776	0.9134	0.013
Mof_C 	C 	0.5291	0.4767	0.975	0.185
Mof_C 	C 	0.8454	0.3659	0.0439	0.127
Mof_C 	C 	0.8496	0.2822	0.022	0.016
Mof_C 	C 	0.9087	0.3289	0.0562	0.003
Mof_C 	C 	0.9533	0.4446	0.1075	0.194
Mof_C 	C 	0.9592	0.623	0.5364	0.084
Mof_C 	C 	0.0451	0.7129	0.594	0.006
Mof_C 	C 	0.0642	0.6692	0.5866	0.013
Mof_C 	C 	0.0017	0.5541	0.525	0.185
Mof_C 	C 	0.822	0.8015	0.4561	0.127
Mof_C 	C 	0.7602	0.8276	0.478	0.016
Mof_C 	C 	0.7727	0.8525	0.4438	0.003
Mof_C 	C 	0.8371	0.8458	0.3925	0.194
Mof_C 	C 	0.9134	0.877	0.8362	0.084
Mof_C 	C 	0.8811	0.7871	0.8322	0.007
Mof_C 	C 	0.9174	0.8308	0.895	0.013
Mof_C 	C 	0.9709	0.9459	0.9476	0.185
Mof_C 	C 	0.6546	0.6985	0.5205	0.127
Mof_C 	C 	0.6504	0.6724	0.4326	0.016
Mof_C 	C 	0.5913	0.6475	0.4202	0.003
Mof_C 	C 	0.5467	0.6542	0.4913	0.194
Mof_C 	C 	0.0408	0.6638	0.0772	0.083
Mof_C 	C 	0.9549	0.6678	0.0489	0.007
Mof_C 	C 	0.9358	0.605	0.0224	0.014
Mof_C 	C 	0.9983	0.5524	0.0233	0.186
Mof_C 	C 	0.178	0.9795	0.1341	0.125
Mof_C 	C 	0.2398	0.0674	0.2178	0.016
Mof_C 	C 	0.2273	0.0798	0.1711	0.003
Mof_C 	C 	0.1629	0.0087	0.0554	0.195
Mof_C 	C 	0.0866	0.9636	0.4228	0.084
Mof_C 	C 	0.1189	0.906	0.4511	0.007
Mof_C 	C 	0.0826	0.9134	0.4776	0.013
Mof_C 	C 	0.0291	0.975	0.4767	0.184
Mof_C 	C 	0.3454	0.0439	0.3659	0.127
Mof_C 	C 	0.3496	0.022	0.2822	0.016
Mof_C 	C 	0.4087	0.0562	0.3289	0.003
Mof_C 	C 	0.4533	0.1075	0.4446	0.194
Mof_C 	C 	0.4592	0.5364	0.623	0.084
Mof_C 	C 	0.5451	0.594	0.7129	0.007
Mof_C 	C 	0.5642	0.5866	0.6692	0.013
Mof_C 	C 	0.5017	0.525	0.5541	0.185
Mof_C 	C 	0.322	0.4561	0.8015	0.127
Mof_C 	C 	0.2602	0.478	0.8276	0.016
Mof_C 	C 	0.2727	0.4438	0.8525	0.003
Mof_C 	C 	0.3371	0.3925	0.8458	0.194
Mof_C 	C 	0.4134	0.8362	0.877	0.084
Mof_C 	C 	0.3811	0.8322	0.7871	0.007
Mof_C 	C 	0.4174	0.895	0.8308	0.013
Mof_C 	C 	0.4709	0.9476	0.9459	0.185
Mof_C 	C 	0.1546	0.5205	0.6985	0.127
Mof_C 	C 	0.1504	0.4326	0.6724	0.016
Mof_C 	C 	0.0913	0.4202	0.6475	0.003
Mof_C 	C 	0.0467	0.4913	0.6542	0.194
Mof_C 	C 	0.9636	0.9228	0.5866	0.084
Mof_C 	C 	0.906	0.9511	0.6189	0.006
Mof_C 	C 	0.9134	0.9776	0.5826	0.015
Mof_C 	C 	0.975	0.9767	0.5291	0.186
Mof_C 	C 	0.0439	0.8659	0.8454	0.127
Mof_C 	C 	0.022	0.7822	0.8496	0.016
Mof_C 	C 	0.0562	0.8289	0.9087	0.003
Mof_C 	C 	0.1075	0.9446	0.9533	0.194
Mof_C 	C 	0.6638	0.5772	0.5408	0.084
Mof_C 	C 	0.6678	0.5489	0.4549	0.007
Mof_C 	C 	0.605	0.5224	0.4358	0.013
Mof_C 	C 	0.5524	0.5233	0.4983	0.185
Mof_C 	C 	0.9795	0.6341	0.678	0.126
Mof_C 	C 	0.0674	0.7178	0.7398	0.016
Mof_C 	C 	0.0798	0.6711	0.7273	0.003
Mof_C 	C 	0.0087	0.5554	0.6629	0.194
Mof_C 	C 	0.8362	0.377	0.9134	0.084
Mof_C 	C 	0.8322	0.2871	0.8811	0.007
Mof_C 	C 	0.895	0.3308	0.9174	0.013
Mof_C 	C 	0.9476	0.4459	0.9709	0.184
Mof_C 	C 	0.5205	0.1985	0.6546	0.127
Mof_C 	C 	0.4326	0.1724	0.6504	0.016
Mof_C 	C 	0.4202	0.1475	0.5913	0.003
Mof_C 	C 	0.4913	0.1542	0.5467	0.194
Mof_C 	C 	0.5364	0.123	0.9592	0.084
Mof_C 	C 	0.594	0.2129	0.0451	0.007
Mof_C 	C 	0.5866	0.1692	0.0642	0.013
Mof_C 	C 	0.525	0.0541	0.0017	0.185
Mof_C 	C 	0.4561	0.3015	0.822	0.127
Mof_C 	C 	0.478	0.3276	0.7602	0.016
Mof_C 	C 	0.4438	0.3525	0.7727	0.003
Mof_C 	C 	0.3925	0.3458	0.8371	0.194
Mof_C 	C 	0.377	0.4134	0.3362	0.084
Mof_C 	C 	0.2871	0.3811	0.3322	0.007
Mof_C 	C 	0.3308	0.4174	0.395	0.013
Mof_C 	C 	0.4459	0.4709	0.4476	0.185
Mof_C 	C 	0.1985	0.1546	0.0205	0.126
Mof_C 	C 	0.1724	0.1504	0.9326	0.016
Mof_C 	C 	0.1475	0.0913	0.9202	0.003
Mof_C 	C 	0.1542	0.0467	0.9913	0.194
Mof_C 	C 	0.123	0.4592	0.0364	0.084
Mof_C 	C 	0.2129	0.5451	0.094	0.007
Mof_C 	C 	0.1692	0.5642	0.0866	0.013
Mof_C 	C 	0.0541	0.5017	0.025	0.184
Mof_C 	C 	0.3015	0.322	0.9561	0.127
Mof_C 	C 	0.3276	0.2602	0.978	0.016
Mof_C 	C 	0.3525	0.2727	0.9438	0.003
Mof_C 	C 	0.3458	0.3371	0.8925	0.194
Mof_C 	C 	0.9228	0.0866	0.4636	0.084
Mof_C 	C 	0.9511	0.1189	0.406	0.008
Mof_C 	C 	0.9776	0.0826	0.4134	0.011
Mof_C 	C 	0.9767	0.0291	0.475	0.184
Mof_C 	C 	0.8659	0.3454	0.5439	0.127
Mof_C 	C 	0.7822	0.3496	0.522	0.016
Mof_C 	C 	0.8289	0.4087	0.5562	0.003
Mof_C 	C 	0.9446	0.4533	0.6075	0.194
Mof_C 	C 	0.5772	0.0408	0.1638	0.085
Mof_C 	C 	0.5489	0.9549	0.1678	0.007
Mof_C 	C 	0.5224	0.9358	0.105	0.013
Mof_C 	C 	0.5233	0.9983	0.0524	0.185
Mof_C 	C 	0.6341	0.178	0.4795	0.127
Mof_C 	C 	0.7178	0.2398	0.5674	0.016
Mof_C 	C 	0.6711	0.2273	0.5798	0.003
Mof_C 	C 	0.5554	0.1629	0.5087	0.194
Mof_S 	S 	0.47961	0.66484	0.80913	-0.596
Mof_S 	S 	0.35571	0.67048	0.69087	-0.596
Mof_S 	S 	0.14429	0.83516	0.31477	-0.596
Mof_S 	S 	0.02039	0.82952	0.18523	-0.596
Mof_S 	S 	0.81477	0.14429	0.33516	-0.596
Mof_S 	S 	0.68523	0.02039	0.32952	-0.596
Mof_S 	S 	0.30913	0.47961	0.16484	-0.596
Mof_S 	S 	0.19087	0.35571	0.17048	-0.596
Mof_S 	S 	0.67048	0.19087	0.85571	-0.596
Mof_S 	S 	0.66484	0.30913	0.97961	-0.596
Mof_S 	S 	0.82952	0.68523	0.52039	-0.596
Mof_S 	S 	0.83516	0.81477	0.64429	-0.596
Mof_S 	S 	0.17048	0.85571	0.19087	-0.596
Mof_S 	S 	0.16484	0.97961	0.30913	-0.596
Mof_S 	S 	0.32952	0.52039	0.68523	-0.596
Mof_S 	S 	0.33516	0.64429	0.81477	-0.596
Mof_S 	S 	0.97961	0.80913	0.66484	-0.596
Mof_S 	S 	0.85571	0.69087	0.67048	-0.596
Mof_S 	S 	0.64429	0.31477	0.83516	-0.596
Mof_S 	S 	0.52039	0.18523	0.82952	-0.596
Mof_S 	S 	0.31477	0.33516	0.14429	-0.596
Mof_S 	S 	0.18523	0.32952	0.02039	-0.596
Mof_S 	S 	0.80913	0.16484	0.47961	-0.596
Mof_S 	S 	0.69087	0.17048	0.35571	-0.596
Mof_Br	Br	0.4943	0.78187	0.96383	-0.414
Mof_Br	Br	0.31804	0.53047	0.53617	-0.414
Mof_Br	Br	0.18196	0.71813	0.21243	-0.414
Mof_Br	Br	0.0057	0.96953	0.28757	-0.415
Mof_Br	Br	0.71243	0.18196	0.21813	-0.414
Mof_Br	Br	0.78757	0.0057	0.46953	-0.414
Mof_Br	Br	0.46383	0.4943	0.28187	-0.414
Mof_Br	Br	0.03617	0.31804	0.03047	-0.414
Mof_Br	Br	0.53047	0.03617	0.81804	-0.414
Mof_Br	Br	0.78187	0.46383	0.9943	-0.414
Mof_Br	Br	0.96953	0.78757	0.5057	-0.414
Mof_Br	Br	0.71813	0.71243	0.68196	-0.414
Mof_Br	Br	0.03047	0.81804	0.03617	-0.415
Mof_Br	Br	0.28187	0.9943	0.46383	-0.414
Mof_Br	Br	0.46953	0.5057	0.78757	-0.414
Mof_Br	Br	0.21813	0.68196	0.71243	-0.414
Mof_Br	Br	0.9943	0.96383	0.78187	-0.414
Mof_Br	Br	0.81804	0.53617	0.53047	-0.414
Mof_Br	Br	0.68196	0.21243	0.71813	-0.414
Mof_Br	Br	0.5057	0.28757	0.96953	-0.414
Mof_Br	Br	0.21243	0.21813	0.18196	-0.414
Mof_Br	Br	0.28757	0.46953	0.0057	-0.414
Mof_Br	Br	0.96383	0.28187	0.4943	-0.414
Mof_Br	Br	0.53617	0.03047	0.31804	-0.414
Mof_N 	N 	0.4363	0.6228	0.9177	-0.229
Mof_N 	N 	0.4528	0.5662	0.9612	-0.137
Mof_N 	N 	0.5099	0.5146	0.9557	-0.153
Mof_N 	N 	0.5115	0.8106	0.8053	-0.237
Mof_N 	N 	0.571	0.9037	0.8829	-0.148
Mof_N 	N 	0.6133	0.9388	0.9867	-0.162
Mof_N 	N 	0.2051	0.5186	0.5823	-0.229
Mof_N 	N 	0.105	0.4916	0.5388	-0.137
Mof_N 	N 	0.0589	0.5542	0.5443	-0.153
Mof_N 	N 	0.5053	0.7062	0.6947	-0.237
Mof_N 	N 	0.5208	0.6881	0.6171	-0.148
Mof_N 	N 	0.4521	0.6266	0.5133	-0.161
Mof_N 	N 	0.2949	0.8772	0.3135	-0.229
Mof_N 	N 	0.395	0.9338	0.3866	-0.137
Mof_N 	N 	0.4411	0.9854	0.4953	-0.153
Mof_N 	N 	0.9947	0.6894	0.2009	-0.237
Mof_N 	N 	0.9792	0.5963	0.1673	-0.148
Mof_N 	N 	0.0479	0.5612	0.1745	-0.162
Mof_N 	N 	0.0637	0.9814	0.1865	-0.229
Mof_N 	N 	0.0472	0.0084	0.1134	-0.136
Mof_N 	N 	0.9901	0.9458	0.0047	-0.152
Mof_N 	N 	0.9885	0.7938	0.2991	-0.237
Mof_N 	N 	0.929	0.8119	0.3327	-0.148
Mof_N 	N 	0.8867	0.8734	0.3255	-0.161
Mof_N 	N 	0.8135	0.2949	0.3772	-0.229
Mof_N 	N 	0.8866	0.395	0.4338	-0.137
Mof_N 	N 	0.9953	0.4411	0.4854	-0.153
Mof_N 	N 	0.7009	0.9947	0.1894	-0.237
Mof_N 	N 	0.6673	0.9792	0.0963	-0.148
Mof_N 	N 	0.6745	0.0479	0.0612	-0.161
Mof_N 	N 	0.6865	0.0637	0.4814	-0.229
Mof_N 	N 	0.6134	0.0472	0.5084	-0.137
Mof_N 	N 	0.5047	0.9901	0.4458	-0.153
Mof_N 	N 	0.7991	0.9885	0.2938	-0.237
Mof_N 	N 	0.8327	0.929	0.3119	-0.148
Mof_N 	N 	0.8255	0.8867	0.3734	-0.161
Mof_N 	N 	0.4177	0.4363	0.1228	-0.229
Mof_N 	N 	0.4612	0.4528	0.0662	-0.137
Mof_N 	N 	0.4557	0.5099	0.0146	-0.153
Mof_N 	N 	0.3053	0.5115	0.3106	-0.237
Mof_N 	N 	0.3829	0.571	0.4037	-0.148
Mof_N 	N 	0.4867	0.6133	0.4388	-0.161
Mof_N 	N 	0.0823	0.2051	0.0186	-0.229
Mof_N 	N 	0.0388	0.105	0.9916	-0.137
Mof_N 	N 	0.0443	0.0589	0.0542	-0.153
Mof_N 	N 	0.1947	0.5053	0.2062	-0.237
Mof_N 	N 	0.1171	0.5208	0.1881	-0.148
Mof_N 	N 	0.0133	0.4521	0.1266	-0.162
Mof_N 	N 	0.5186	0.0823	0.7051	-0.229
Mof_N 	N 	0.4916	0.0388	0.605	-0.137
Mof_N 	N 	0.5542	0.0443	0.5589	-0.153
Mof_N 	N 	0.7062	0.1947	0.0053	-0.237
Mof_N 	N 	0.6881	0.1171	0.0208	-0.148
Mof_N 	N 	0.6266	0.0133	0.9521	-0.162
Mof_N 	N 	0.6228	0.4177	0.9363	-0.229
Mof_N 	N 	0.5662	0.4612	0.9528	-0.137
Mof_N 	N 	0.5146	0.4557	0.0099	-0.153
Mof_N 	N 	0.8106	0.3053	0.0115	-0.237
Mof_N 	N 	0.9037	0.3829	0.071	-0.148
Mof_N 	N 	0.9388	0.4867	0.1133	-0.162
Mof_N 	N 	0.9814	0.6865	0.5637	-0.229
Mof_N 	N 	0.0084	0.6134	0.5472	-0.137
Mof_N 	N 	0.9458	0.5047	0.4901	-0.153
Mof_N 	N 	0.7938	0.7991	0.4885	-0.237
Mof_N 	N 	0.8119	0.8327	0.429	-0.148
Mof_N 	N 	0.8734	0.8255	0.3867	-0.161
Mof_N 	N 	0.8772	0.8135	0.7949	-0.229
Mof_N 	N 	0.9338	0.8866	0.895	-0.137
Mof_N 	N 	0.9854	0.9953	0.9411	-0.153
Mof_N 	N 	0.6894	0.7009	0.4947	-0.237
Mof_N 	N 	0.5963	0.6673	0.4792	-0.148
Mof_N 	N 	0.5612	0.6745	0.5479	-0.161
Mof_N 	N 	0.0186	0.7051	0.0823	-0.229
Mof_N 	N 	0.9916	0.605	0.0388	-0.136
Mof_N 	N 	0.0542	0.5589	0.0443	-0.153
Mof_N 	N 	0.2062	0.0053	0.1947	-0.236
Mof_N 	N 	0.1881	0.0208	0.1171	-0.148
Mof_N 	N 	0.1266	0.9521	0.0133	-0.163
Mof_N 	N 	0.1228	0.9363	0.4177	-0.229
Mof_N 	N 	0.0662	0.9528	0.4612	-0.137
Mof_N 	N 	0.0146	0.0099	0.4557	-0.152
Mof_N 	N 	0.3106	0.0115	0.3053	-0.237
Mof_N 	N 	0.4037	0.071	0.3829	-0.148
Mof_N 	N 	0.4388	0.1133	0.4867	-0.161
Mof_N 	N 	0.4814	0.5637	0.6865	-0.229
Mof_N 	N 	0.5084	0.5472	0.6134	-0.137
Mof_N 	N 	0.4458	0.4901	0.5047	-0.153
Mof_N 	N 	0.2938	0.4885	0.7991	-0.237
Mof_N 	N 	0.3119	0.429	0.8327	-0.148
Mof_N 	N 	0.3734	0.3867	0.8255	-0.161
Mof_N 	N 	0.3772	0.7949	0.8135	-0.229
Mof_N 	N 	0.4338	0.895	0.8866	-0.137
Mof_N 	N 	0.4854	0.9411	0.9953	-0.153
Mof_N 	N 	0.1894	0.4947	0.7009	-0.237
Mof_N 	N 	0.0963	0.4792	0.6673	-0.148
Mof_N 	N 	0.0612	0.5479	0.6745	-0.162
Mof_N 	N 	0.9363	0.9177	0.6228	-0.229
Mof_N 	N 	0.9528	0.9612	0.5662	-0.137
Mof_N 	N 	0.0099	0.9557	0.5146	-0.153
Mof_N 	N 	0.0115	0.8053	0.8106	-0.237
Mof_N 	N 	0.071	0.8829	0.9037	-0.148
Mof_N 	N 	0.1133	0.9867	0.9388	-0.162
Mof_N 	N 	0.7051	0.5823	0.5186	-0.229
Mof_N 	N 	0.605	0.5388	0.4916	-0.137
Mof_N 	N 	0.5589	0.5443	0.5542	-0.153
Mof_N 	N 	0.0053	0.6947	0.7062	-0.237
Mof_N 	N 	0.0208	0.6171	0.6881	-0.148
Mof_N 	N 	0.9521	0.5133	0.6266	-0.162
Mof_N 	N 	0.7949	0.3135	0.8772	-0.229
Mof_N 	N 	0.895	0.3866	0.9338	-0.137
Mof_N 	N 	0.9411	0.4953	0.9854	-0.153
Mof_N 	N 	0.4947	0.2009	0.6894	-0.237
Mof_N 	N 	0.4792	0.1673	0.5963	-0.148
Mof_N 	N 	0.5479	0.1745	0.5612	-0.161
Mof_N 	N 	0.5637	0.1865	0.9814	-0.229
Mof_N 	N 	0.5472	0.1134	0.0084	-0.137
Mof_N 	N 	0.4901	0.0047	0.9458	-0.153
Mof_N 	N 	0.4885	0.2991	0.7938	-0.237
Mof_N 	N 	0.429	0.3327	0.8119	-0.148
Mof_N 	N 	0.3867	0.3255	0.8734	-0.161
Mof_N 	N 	0.3135	0.3772	0.2949	-0.229
Mof_N 	N 	0.3866	0.4338	0.395	-0.137
Mof_N 	N 	0.4953	0.4854	0.4411	-0.153
Mof_N 	N 	0.2009	0.1894	0.9947	-0.237
Mof_N 	N 	0.1673	0.0963	0.9792	-0.148
Mof_N 	N 	0.1745	0.0612	0.0479	-0.162
Mof_N 	N 	0.1865	0.4814	0.0637	-0.229
Mof_N 	N 	0.1134	0.5084	0.0472	-0.137
Mof_N 	N 	0.0047	0.4458	0.9901	-0.152
Mof_N 	N 	0.2991	0.2938	0.9885	-0.237
Mof_N 	N 	0.3327	0.3119	0.929	-0.148
Mof_N 	N 	0.3255	0.3734	0.8867	-0.161
Mof_N 	N 	0.9177	0.1228	0.4363	-0.229
Mof_N 	N 	0.9612	0.0662	0.4528	-0.136
Mof_N 	N 	0.9557	0.0146	0.5099	-0.153
Mof_N 	N 	0.8053	0.3106	0.5115	-0.237
Mof_N 	N 	0.8829	0.4037	0.571	-0.148
Mof_N 	N 	0.9867	0.4388	0.6133	-0.162
Mof_N 	N 	0.5823	0.0186	0.2051	-0.229
Mof_N 	N 	0.5388	0.9916	0.105	-0.137
Mof_N 	N 	0.5443	0.0542	0.0589	-0.152
Mof_N 	N 	0.6947	0.2062	0.5053	-0.237
Mof_N 	N 	0.6171	0.1881	0.5208	-0.148
Mof_N 	N 	0.5133	0.1266	0.4521	-0.161
_end
