# CIF file generated by openbabel 3.1.0, see https://openbabel.org
data_I
_chemical_name_common 'image0'
_cell_length_a 8.257
_cell_length_b 13.163
_cell_length_c 14.238
_cell_angle_alpha 114.261
_cell_angle_beta 96.493
_cell_angle_gamma 101.699
_space_group_name_H-M_alt 'P 1'
_space_group_name_Hall 'P 1'
loop_
    _symmetry_equiv_pos_as_xyz
    x,y,z
loop_
    _atom_site_label
    _atom_site_type_symbol
    _atom_site_fract_x
    _atom_site_fract_y
    _atom_site_fract_z
    _atom_site_occupancy
    Tb1      Tb       0.26933    0.54978    0.49918    1.000
    O1       O        0.19670    0.49540    0.62810    1.000
    O2       O        0.92960    0.47590    0.64160    1.000
    O3       O        0.44800    0.47840    0.38680    1.000
    O4       O        0.51960    0.31540    0.34740    1.000
    O5       O        0.11320    0.67270    0.57540    1.000
    O6       O        0.84060    0.65410    0.58670    1.000
    N1       N        0.14110    0.19510    0.88480    1.000
    C1       C        0.07180    0.46130    0.65920    1.000
    C2       C        0.09100    0.39480    0.72280    1.000
    C3       C        0.24880    0.39440    0.76440    1.000
    H1       H        0.34480    0.43710    0.75520    1.000
    C4       C        0.26610    0.33070    0.82000    1.000
    H2       H        0.37360    0.33060    0.84750    1.000
    C5       C        0.12620    0.26800    0.83490    1.000
    C6       C        0.96860    0.26940    0.79390    1.000
    H3       H        0.87240    0.22700    0.80320    1.000
    C7       C        0.95220    0.33350    0.73900    1.000
    H4       H        0.84480    0.33480    0.71260    1.000
    C8       C        0.44850    0.37920    0.32200    1.000
    C9       C        0.36410    0.33200    0.20750    1.000
    C10      C        0.34630    0.21730    0.13920    1.000
    H5       H        0.38530    0.17000    0.16470    1.000
    C11      C        0.27160    0.17280    0.03430    1.000
    H6       H        0.25750    0.09490    0.99030    1.000
    C12      C        0.21680    0.24120    0.99250    1.000
    C13      C        0.23380    0.35570    0.06090    1.000
    H7       H        0.19810    0.40380    0.03510    1.000
    C14      C        0.30310    0.39860    0.16660    1.000
    H8       H        0.30890    0.47480    0.21180    1.000
    C15      C        0.99370    0.71240    0.60910    1.000
    C16      C        0.03490    0.84030    0.68010    1.000
    C17      C        0.19540    0.91020    0.70610    1.000
    H9       H        0.28060    0.87950    0.67790    1.000
    C18      C        0.23140    0.02590    0.77390    1.000
    H10      H        0.34140    0.07300    0.79130    1.000
    C19      C        0.10640    0.07350    0.81660    1.000
    C20      C        0.94320    0.00490    0.79040    1.000
    H11      H        0.85780    0.03560    0.81830    1.000
    C21      C        0.90930    0.88800    0.72070    1.000
    H12      H        0.79890    0.84080    0.70100    1.000
    Tb2      Tb       0.73067    0.45022    0.50082    1.000
    O7       O        0.80330    0.50460    0.37190    1.000
    O8       O        0.07040    0.52410    0.35840    1.000
    O9       O        0.55200    0.52160    0.61320    1.000
    O10      O        0.48040    0.68460    0.65260    1.000
    O11      O        0.88680    0.32730    0.42460    1.000
    O12      O        0.15940    0.34590    0.41330    1.000
    N2       N        0.85890    0.80490    0.11520    1.000
    C22      C        0.92820    0.53870    0.34080    1.000
    C23      C        0.90900    0.60520    0.27720    1.000
    C24      C        0.75120    0.60560    0.23560    1.000
    H13      H        0.65520    0.56290    0.24480    1.000
    C25      C        0.73390    0.66930    0.18000    1.000
    H14      H        0.62640    0.66940    0.15250    1.000
    C26      C        0.87380    0.73200    0.16510    1.000
    C27      C        0.03140    0.73060    0.20610    1.000
    H15      H        0.12760    0.77300    0.19680    1.000
    C28      C        0.04780    0.66650    0.26100    1.000
    H16      H        0.15520    0.66520    0.28740    1.000
    C29      C        0.55150    0.62080    0.67800    1.000
    C30      C        0.63590    0.66800    0.79250    1.000
    C31      C        0.65370    0.78270    0.86080    1.000
    H17      H        0.61470    0.83000    0.83530    1.000
    C32      C        0.72840    0.82720    0.96570    1.000
    H18      H        0.74250    0.90510    0.00970    1.000
    C33      C        0.78320    0.75880    0.00750    1.000
    C34      C        0.76620    0.64430    0.93910    1.000
    H19      H        0.80190    0.59620    0.96490    1.000
    C35      C        0.69690    0.60140    0.83340    1.000
    H20      H        0.69110    0.52520    0.78820    1.000
    C36      C        0.00630    0.28760    0.39090    1.000
    C37      C        0.96510    0.15970    0.31990    1.000
    C38      C        0.80460    0.08980    0.29390    1.000
    H21      H        0.71940    0.12050    0.32210    1.000
    C39      C        0.76860    0.97410    0.22610    1.000
    H22      H        0.65860    0.92700    0.20870    1.000
    C40      C        0.89360    0.92650    0.18340    1.000
    C41      C        0.05680    0.99510    0.20960    1.000
    H23      H        0.14220    0.96440    0.18170    1.000
    C42      C        0.09070    0.11200    0.27930    1.000
    H24      H        0.20110    0.15920    0.29900    1.000
