data_functionalizedCrystal
_audit_creation_method	'EQeq! by Chris Wilmer'
_symmetry_space_group_name_H-M	'P1'
_symmetry_Int_Tables_number	1
_symmetry_cell_setting	triclinic
loop_
_symmetry_equiv_pos_as_xyz
  x,y,z
_cell_length_a	6.8811
_cell_length_b	18.351
_cell_length_c	18.407
_cell_angle_alpha	110.12
_cell_angle_beta	90
_cell_angle_gamma	90
loop_
_atom_site_label
_atom_site_type_symbol
_atom_site_fract_x
_atom_site_fract_y
_atom_site_fract_z
_atom_site_charge
Mof_Dy	Dy	0.77688	0.62647	0.62305	1.64
Mof_Dy	Dy	0.74753	0.6246	0.10414	1.836
Mof_Dy	Dy	0.27688	0.87353	0.87695	1.634
Mof_Dy	Dy	0.24753	0.8754	0.39586	1.838
Mof_Dy	Dy	0.22312	0.37353	0.37695	1.639
Mof_Dy	Dy	0.25247	0.3754	0.89586	1.835
Mof_Dy	Dy	0.72312	0.12647	0.12305	1.634
Mof_Dy	Dy	0.75247	0.1246	0.60414	1.838
Mof_H 	H 	0.5128	0.6259	0.8977	0.004
Mof_H 	H 	0.7322	0.4166	0.7626	0.026
Mof_H 	H 	0.593	0.7264	0.4105	0.004
Mof_H 	H 	0.7986	0.5066	0.3311	0.019
Mof_H 	H 	0.0128	0.8741	0.6023	0.004
Mof_H 	H 	0.2322	0.0834	0.7374	0.025
Mof_H 	H 	0.093	0.7736	0.0895	0.005
Mof_H 	H 	0.2986	0.9934	0.1689	0.019
Mof_H 	H 	0.4872	0.3741	0.1023	0.004
Mof_H 	H 	0.2678	0.5834	0.2374	0.026
Mof_H 	H 	0.407	0.2736	0.5895	0.004
Mof_H 	H 	0.2014	0.4934	0.6689	0.019
Mof_H 	H 	0.9872	0.1259	0.3977	0.004
Mof_H 	H 	0.7678	0.9166	0.2626	0.025
Mof_H 	H 	0.907	0.2264	0.9105	0.005
Mof_H 	H 	0.7014	0.0066	0.8311	0.019
Mof_C 	C 	0.5874	0.6165	0.7891	-0.077
Mof_C 	C 	0.566	0.5933	0.8515	0.062
Mof_C 	C 	0.6282	0.5178	0.8428	-0.158
Mof_C 	C 	0.6988	0.4677	0.7697	0.052
Mof_C 	C 	0.7163	0.4958	0.7111	-0.06
Mof_C 	C 	0.5335	0.6975	0.7895	0.372
Mof_C 	C 	0.6271	0.492	0.9108	0.447
Mof_C 	C 	0.7956	0.4502	0.6302	0.331
Mof_C 	C 	0.6455	0.6807	0.2953	-0.078
Mof_C 	C 	0.6367	0.6826	0.3709	0.041
Mof_C 	C 	0.6956	0.6168	0.3854	-0.086
Mof_C 	C 	0.7625	0.5519	0.3226	0.021
Mof_C 	C 	0.7741	0.5556	0.2491	-0.039
Mof_C 	C 	0.58	0.7471	0.2709	0.421
Mof_C 	C 	0.6956	0.6164	0.4666	0.295
Mof_C 	C 	0.855	0.4908	0.176	0.337
Mof_C 	C 	0.0874	0.8835	0.7109	-0.078
Mof_C 	C 	0.066	0.9067	0.6485	0.063
Mof_C 	C 	0.1282	0.9822	0.6572	-0.16
Mof_C 	C 	0.1988	0.0323	0.7303	0.053
Mof_C 	C 	0.2163	0.0042	0.7889	-0.06
Mof_C 	C 	0.0335	0.8025	0.7105	0.371
Mof_C 	C 	0.1271	0.008	0.5892	0.448
Mof_C 	C 	0.2956	0.0498	0.8698	0.331
Mof_C 	C 	0.1455	0.8193	0.2047	-0.078
Mof_C 	C 	0.1367	0.8174	0.1291	0.042
Mof_C 	C 	0.1956	0.8832	0.1146	-0.086
Mof_C 	C 	0.2625	0.9481	0.1774	0.021
Mof_C 	C 	0.2741	0.9444	0.2509	-0.037
Mof_C 	C 	0.08	0.7529	0.2291	0.421
Mof_C 	C 	0.1956	0.8836	0.0334	0.299
Mof_C 	C 	0.355	0.0092	0.324	0.334
Mof_C 	C 	0.4126	0.3835	0.2109	-0.077
Mof_C 	C 	0.434	0.4067	0.1485	0.062
Mof_C 	C 	0.3718	0.4822	0.1572	-0.158
Mof_C 	C 	0.3012	0.5323	0.2303	0.052
Mof_C 	C 	0.2837	0.5042	0.2889	-0.06
Mof_C 	C 	0.4665	0.3025	0.2105	0.372
Mof_C 	C 	0.3729	0.508	0.0892	0.447
Mof_C 	C 	0.2044	0.5498	0.3698	0.331
Mof_C 	C 	0.3545	0.3193	0.7047	-0.078
Mof_C 	C 	0.3633	0.3174	0.6291	0.041
Mof_C 	C 	0.3044	0.3832	0.6146	-0.086
Mof_C 	C 	0.2375	0.4481	0.6774	0.021
Mof_C 	C 	0.2259	0.4444	0.7509	-0.039
Mof_C 	C 	0.42	0.2529	0.7291	0.421
Mof_C 	C 	0.3044	0.3836	0.5334	0.295
Mof_C 	C 	0.145	0.5092	0.824	0.337
Mof_C 	C 	0.9126	0.1165	0.2891	-0.078
Mof_C 	C 	0.934	0.0933	0.3515	0.063
Mof_C 	C 	0.8718	0.0178	0.3428	-0.16
Mof_C 	C 	0.8012	0.9677	0.2697	0.053
Mof_C 	C 	0.7837	0.9958	0.2111	-0.06
Mof_C 	C 	0.9665	0.1975	0.2895	0.371
Mof_C 	C 	0.8729	0.992	0.4108	0.448
Mof_C 	C 	0.7044	0.9502	0.1302	0.331
Mof_C 	C 	0.8545	0.1807	0.7953	-0.078
Mof_C 	C 	0.8633	0.1826	0.8709	0.042
Mof_C 	C 	0.8044	0.1168	0.8854	-0.086
Mof_C 	C 	0.7375	0.0519	0.8226	0.021
Mof_C 	C 	0.7259	0.0556	0.7491	-0.037
Mof_C 	C 	0.92	0.2471	0.7709	0.421
Mof_C 	C 	0.8044	0.1164	0.9666	0.299
Mof_C 	C 	0.645	0.9908	0.676	0.334
Mof_N 	N 	0.6681	0.5702	0.7205	-0.19
Mof_N 	N 	0.7153	0.6181	0.2354	-0.18
Mof_N 	N 	0.1681	0.9298	0.7795	-0.191
Mof_N 	N 	0.2153	0.8819	0.2646	-0.18
Mof_N 	N 	0.3319	0.4298	0.2795	-0.19
Mof_N 	N 	0.2847	0.3819	0.7646	-0.18
Mof_N 	N 	0.8319	0.0702	0.2205	-0.191
Mof_N 	N 	0.7847	0.1181	0.7354	-0.18
Mof_O 	O 	0.4259	0.74093	0.84179	-0.421
Mof_O 	O 	0.6081	0.714	0.73449	-0.462
Mof_O 	O 	0.6847	0.54014	0.97474	-0.496
Mof_O 	O 	0.5739	0.42174	0.89791	-0.48
Mof_O 	O 	0.8188	0.37831	0.60897	-0.275
Mof_O 	O 	0.8325	0.49065	0.58858	-0.445
Mof_O 	O 	0.5103	0.80699	0.32318	-0.491
Mof_O 	O 	0.6002	0.7374	0.20005	-0.454
Mof_O 	O 	0.7149	0.55273	0.4763	-0.384
Mof_O 	O 	0.684	0.6813	0.52451	-0.4
Mof_O 	O 	0.9143	0.42826	0.1802	-0.276
Mof_O 	O 	0.8545	0.50621	0.11466	-0.456
Mof_O 	O 	0.9259	0.75907	0.65821	-0.421
Mof_O 	O 	0.1081	0.786	0.76551	-0.461
Mof_O 	O 	0.1847	0.95986	0.52526	-0.497
Mof_O 	O 	0.0739	0.07826	0.60209	-0.481
Mof_O 	O 	0.3188	0.12169	0.89103	-0.276
Mof_O 	O 	0.3325	0.00935	0.91142	-0.443
Mof_O 	O 	0.0103	0.69301	0.17682	-0.489
Mof_O 	O 	0.1002	0.7626	0.29995	-0.453
Mof_O 	O 	0.2149	0.94727	0.0237	-0.383
Mof_O 	O 	0.184	0.8187	0.97549	-0.403
Mof_O 	O 	0.4143	0.07174	0.3198	-0.275
Mof_O 	O 	0.3545	0.99379	0.38534	-0.455
Mof_O 	O 	0.5741	0.25907	0.15821	-0.421
Mof_O 	O 	0.3919	0.286	0.26551	-0.462
Mof_O 	O 	0.3153	0.45986	0.02526	-0.496
Mof_O 	O 	0.4261	0.57826	0.10209	-0.48
Mof_O 	O 	0.1812	0.62169	0.39103	-0.275
Mof_O 	O 	0.1675	0.50935	0.41142	-0.445
Mof_O 	O 	0.4897	0.19301	0.67682	-0.491
Mof_O 	O 	0.3998	0.2626	0.79995	-0.454
Mof_O 	O 	0.2851	0.44727	0.5237	-0.384
Mof_O 	O 	0.316	0.3187	0.47549	-0.4
Mof_O 	O 	0.0857	0.57174	0.8198	-0.276
Mof_O 	O 	0.1455	0.49379	0.88534	-0.456
Mof_O 	O 	0.0741	0.24093	0.34179	-0.421
Mof_O 	O 	0.8919	0.214	0.23449	-0.461
Mof_O 	O 	0.8153	0.04014	0.47474	-0.497
Mof_O 	O 	0.9261	0.92174	0.39791	-0.481
Mof_O 	O 	0.6812	0.87831	0.10897	-0.276
Mof_O 	O 	0.6675	0.99065	0.08858	-0.443
Mof_O 	O 	0.9897	0.30699	0.82318	-0.489
Mof_O 	O 	0.8998	0.2374	0.70005	-0.453
Mof_O 	O 	0.7851	0.05273	0.9763	-0.383
Mof_O 	O 	0.816	0.1813	0.02451	-0.403
Mof_O 	O 	0.5857	0.92826	0.6802	-0.275
Mof_O 	O 	0.6455	0.00621	0.61466	-0.455
_end
