data_functionalizedCrystal
_audit_creation_method	'EQeq! by Chris Wilmer'
_symmetry_space_group_name_H-M	'P1'
_symmetry_Int_Tables_number	1
_symmetry_cell_setting	triclinic
loop_
_symmetry_equiv_pos_as_xyz
  x,y,z
_cell_length_a	36.936
_cell_length_b	7.0081
_cell_length_c	6.2127
_cell_angle_alpha	90
_cell_angle_beta	97.246
_cell_angle_gamma	90
loop_
_atom_site_label
_atom_site_type_symbol
_atom_site_fract_x
_atom_site_fract_y
_atom_site_fract_z
_atom_site_charge
Mof_Sm	Sm	0.2199	0.68939	0.52263	2.399
Mof_O 	O 	0.15337	0.7453	0.4899	-0.468
Mof_O 	O 	0.18038	0.6689	0.8097	-0.471
Mof_O 	O 	0.27283	0.5303	0.3484	-0.686
Mof_O 	O 	0.2791	0.8383	0.4101	-0.65
Mof_O 	O 	0.26661	0.6658	0.8378	-0.539
Mof_O 	O 	0.2961	0.391	0.7749	-0.582
Mof_N 	N 	0.04657	0.685	0.904	-0.246
Mof_C 	C 	0.15174	0.7	0.6834	0.33
Mof_C 	C 	0.11495	0.695	0.7665	-0.061
Mof_C 	C 	0.11081	0.6419	0.9733	0.029
Mof_H 	H 	0.1311	0.6088	0.0704	0.013
Mof_C 	C 	0.0765	0.638	0.0377	-0.043
Mof_H 	H 	0.0741	0.6013	0.179	-0.002
Mof_C 	C 	0.0508	0.7569	0.707	0.014
Mof_H 	H 	0.0305	0.8034	0.6191	-0.037
Mof_C 	C 	0.0849	0.7632	0.631	-0.056
Mof_H 	H 	0.0874	0.8117	0.4944	0.051
Mof_C 	C 	0.3599	0.5947	0.9474	0.044
Mof_H 	H 	0.3613	0.5438	0.8104	0.019
Mof_C 	C 	0.39151	0.657	0.0712	-0.075
Mof_H 	H 	0.4138	0.6504	0.017	0.037
Mof_C 	C 	0.38947	0.7288	0.275	-0.041
Mof_H 	H 	0.4107	0.7679	0.3606	0.039
Mof_C 	C 	0.35636	0.7436	0.3539	0.018
Mof_H 	H 	0.3554	0.7939	0.4917	0.008
Mof_C 	C 	0.32464	0.685	0.2315	-0.107
Mof_C 	C 	0.32635	0.6062	0.0227	-0.118
Mof_C 	C 	0.28983	0.676	0.3326	0.483
Mof_C 	C 	0.29324	0.5469	0.8703	0.478
Mof_Sm	Sm	0.7199	0.18939	0.52263	2.307
Mof_O 	O 	0.65337	0.2453	0.4899	-0.475
Mof_O 	O 	0.68038	0.1689	0.8097	-0.481
Mof_O 	O 	0.77283	0.0303	0.3484	-0.717
Mof_O 	O 	0.7791	0.3383	0.4101	-0.681
Mof_O 	O 	0.76661	0.1658	0.8378	-0.534
Mof_O 	O 	0.7961	0.891	0.7749	-0.537
Mof_N 	N 	0.54657	0.185	0.904	-0.248
Mof_C 	C 	0.65174	0.2	0.6834	0.323
Mof_C 	C 	0.61495	0.195	0.7665	-0.078
Mof_C 	C 	0.61081	0.1419	0.9733	0.026
Mof_H 	H 	0.6311	0.1088	0.0704	0.002
Mof_C 	C 	0.5765	0.138	0.0377	-0.055
Mof_H 	H 	0.5741	0.1013	0.179	-0.007
Mof_C 	C 	0.5508	0.2569	0.707	0.003
Mof_H 	H 	0.5305	0.3034	0.6191	-0.038
Mof_C 	C 	0.5849	0.2632	0.631	-0.057
Mof_H 	H 	0.5874	0.3117	0.4944	0.042
Mof_C 	C 	0.8599	0.0947	0.9474	0.016
Mof_H 	H 	0.8613	0.0438	0.8104	0.012
Mof_C 	C 	0.89151	0.157	0.0712	-0.069
Mof_H 	H 	0.9138	0.1504	0.017	0.017
Mof_C 	C 	0.88947	0.2288	0.275	-0.07
Mof_H 	H 	0.9107	0.2679	0.3606	0.03
Mof_C 	C 	0.85636	0.2436	0.3539	0.028
Mof_H 	H 	0.8554	0.2939	0.4917	-0.012
Mof_C 	C 	0.82464	0.185	0.2315	-0.14
Mof_C 	C 	0.82635	0.1062	0.0227	-0.105
Mof_C 	C 	0.78983	0.176	0.3326	0.501
Mof_C 	C 	0.79324	0.0469	0.8703	0.416
Mof_Sm	Sm	0.7801	0.68939	0.47737	2.399
Mof_O 	O 	0.84663	0.7453	0.5101	-0.457
Mof_O 	O 	0.81962	0.6689	0.1903	-0.471
Mof_O 	O 	0.72717	0.5303	0.6516	-0.69
Mof_O 	O 	0.7209	0.8383	0.5899	-0.655
Mof_O 	O 	0.73339	0.6658	0.1622	-0.533
Mof_O 	O 	0.7039	0.391	0.2251	-0.573
Mof_N 	N 	0.95343	0.685	0.096	-0.29
Mof_C 	C 	0.84826	0.7	0.3166	0.3
Mof_C 	C 	0.88505	0.695	0.2335	0.016
Mof_C 	C 	0.88919	0.6419	0.0267	-0.147
Mof_H 	H 	0.8689	0.6088	0.9296	0.092
Mof_C 	C 	0.9235	0.638	0.9623	0.106
Mof_H 	H 	0.9259	0.6013	0.821	-0.046
Mof_C 	C 	0.9492	0.7569	0.293	0.047
Mof_H 	H 	0.9695	0.8034	0.3809	-0.046
Mof_C 	C 	0.9151	0.7632	0.369	-0.11
Mof_H 	H 	0.9126	0.8117	0.5056	0.073
Mof_C 	C 	0.6401	0.5947	0.0526	-0.13
Mof_H 	H 	0.6387	0.5438	0.1896	0.074
Mof_C 	C 	0.60849	0.657	0.9288	0.081
Mof_H 	H 	0.5862	0.6504	0.983	-0.007
Mof_C 	C 	0.61053	0.7288	0.725	-0.153
Mof_H 	H 	0.5893	0.7679	0.6394	0.079
Mof_C 	C 	0.64364	0.7436	0.6461	0.109
Mof_H 	H 	0.6446	0.7939	0.5083	-0.025
Mof_C 	C 	0.67536	0.685	0.7685	-0.175
Mof_C 	C 	0.67365	0.6062	0.9773	0.004
Mof_C 	C 	0.71017	0.676	0.6674	0.51
Mof_C 	C 	0.70676	0.5469	0.1297	0.421
Mof_Sm	Sm	0.2801	0.18939	0.47737	2.306
Mof_O 	O 	0.34663	0.2453	0.5101	-0.466
Mof_O 	O 	0.31962	0.1689	0.1903	-0.481
Mof_O 	O 	0.22717	0.0303	0.6516	-0.721
Mof_O 	O 	0.2209	0.3383	0.5899	-0.686
Mof_O 	O 	0.23339	0.1658	0.1622	-0.529
Mof_O 	O 	0.2039	0.891	0.2251	-0.529
Mof_N 	N 	0.45343	0.185	0.096	-0.293
Mof_C 	C 	0.34826	0.2	0.3166	0.294
Mof_C 	C 	0.38505	0.195	0.2335	-0.002
Mof_C 	C 	0.38919	0.1419	0.0267	-0.147
Mof_H 	H 	0.3689	0.1088	0.9296	0.079
Mof_C 	C 	0.4235	0.138	0.9623	0.091
Mof_H 	H 	0.4259	0.1013	0.821	-0.052
Mof_C 	C 	0.4492	0.2569	0.293	0.035
Mof_H 	H 	0.4695	0.3034	0.3809	-0.05
Mof_C 	C 	0.4151	0.2632	0.369	-0.111
Mof_H 	H 	0.4126	0.3117	0.5056	0.064
Mof_C 	C 	0.1401	0.0947	0.0526	-0.152
Mof_H 	H 	0.1387	0.0438	0.1896	0.065
Mof_C 	C 	0.10849	0.157	0.9288	0.082
Mof_H 	H 	0.0862	0.1504	0.983	-0.027
Mof_C 	C 	0.11053	0.2288	0.725	-0.179
Mof_H 	H 	0.0893	0.2679	0.6394	0.067
Mof_C 	C 	0.14364	0.2436	0.6461	0.116
Mof_H 	H 	0.1446	0.2939	0.5083	-0.044
Mof_C 	C 	0.17536	0.185	0.7685	-0.207
Mof_C 	C 	0.17365	0.1062	0.9773	0.013
Mof_C 	C 	0.21017	0.176	0.6674	0.527
Mof_C 	C 	0.20676	0.0469	0.1297	0.362
Mof_Cu	Cu	-0	0.6916	-0	0.788
Mof_Cu	Cu	0.5	0.1916	-0	0.785
_end
