# CIF file generated by openbabel 3.1.0, see https://openbabel.org
data_I
_chemical_name_common 'CIDKUX_clean'
_cell_length_a 13.8721
_cell_length_b 15.8991
_cell_length_c 17.6743
_cell_angle_alpha 63.2704
_cell_angle_beta 78.8942
_cell_angle_gamma 64.6431
_space_group_name_H-M_alt 'P 1'
_space_group_name_Hall 'P 1'
loop_
    _symmetry_equiv_pos_as_xyz
    x,y,z
loop_
    _atom_site_label
    _atom_site_type_symbol
    _atom_site_fract_x
    _atom_site_fract_y
    _atom_site_fract_z
    _atom_site_occupancy
    Cu1      Cu       0.75670    0.48423    0.00000    1.000
    Cu2      Cu       0.24330    0.51577    0.00000    1.000
    Cu3      Cu       0.50000    0.50000    0.00000    1.000
    Cu4      Cu       0.00000    0.50000    0.00000    1.000
    C1       C        0.68460    0.26185    0.19990    1.000
    C2       C        0.70800    0.17479    0.28402    1.000
    C3       C        0.67220    0.09822    0.30716    1.000
    C4       C        0.69510    0.01639    0.38582    1.000
    C5       C        0.75250    0.01251    0.44458    1.000
    C6       C        0.78690    0.08390    0.42080    1.000
    C7       C        0.76450    0.16800    0.34420    1.000
    C8       C        0.81910    0.70799    0.79282    1.000
    C9       C        0.80220    0.78145    0.70510    1.000
    C10      C        0.70170    0.84067    0.66706    1.000
    C11      C        0.68630    0.90821    0.58498    1.000
    C12      C        0.76970    0.92926    0.53228    1.000
    C13      C        0.86870    0.87130    0.56880    1.000
    C14      C        0.88470    0.80082    0.65176    1.000
    C15      C        0.31540    0.53825    0.19990    1.000
    C16      C        0.29200    0.54119    0.28402    1.000
    C17      C        0.32780    0.59462    0.30716    1.000
    C18      C        0.30490    0.59779    0.38582    1.000
    C19      C        0.24750    0.54291    0.44458    1.000
    C20      C        0.21310    0.49530    0.42080    1.000
    C21      C        0.23550    0.48780    0.34420    1.000
    C22      C        0.18090    0.49919    0.79282    1.000
    C23      C        0.19780    0.51345    0.70510    1.000
    C24      C        0.29830    0.49227    0.66706    1.000
    C25      C        0.31370    0.50681    0.58498    1.000
    C26      C        0.23030    0.53846    0.53228    1.000
    C27      C        0.13130    0.55990    0.56880    1.000
    C28      C        0.11530    0.54742    0.65176    1.000
    C29      C        0.31540    0.73815    0.80010    1.000
    C30      C        0.29200    0.82521    0.71598    1.000
    C31      C        0.32780    0.90178    0.69284    1.000
    C32      C        0.30490    0.98361    0.61418    1.000
    C33      C        0.24750    0.98749    0.55542    1.000
    C34      C        0.21310    0.91610    0.57920    1.000
    C35      C        0.23550    0.83200    0.65580    1.000
    C36      C        0.18090    0.29201    0.20718    1.000
    C37      C        0.19780    0.21855    0.29490    1.000
    C38      C        0.29830    0.15933    0.33294    1.000
    C39      C        0.31370    0.09179    0.41502    1.000
    C40      C        0.23030    0.07074    0.46772    1.000
    C41      C        0.13130    0.12870    0.43120    1.000
    C42      C        0.11530    0.19918    0.34824    1.000
    C43      C        0.68460    0.46175    0.80010    1.000
    C44      C        0.70800    0.45881    0.71598    1.000
    C45      C        0.67220    0.40538    0.69284    1.000
    C46      C        0.69510    0.40221    0.61418    1.000
    C47      C        0.75250    0.45709    0.55542    1.000
    C48      C        0.78690    0.50470    0.57920    1.000
    C49      C        0.76450    0.51220    0.65580    1.000
    C50      C        0.81910    0.50081    0.20718    1.000
    C51      C        0.80220    0.48655    0.29490    1.000
    C52      C        0.70170    0.50773    0.33294    1.000
    C53      C        0.68630    0.49319    0.41502    1.000
    C54      C        0.76970    0.46154    0.46772    1.000
    C55      C        0.86870    0.44010    0.43120    1.000
    C56      C        0.88470    0.45258    0.34824    1.000
    N1       N        0.60650    0.38641    0.09138    1.000
    N2       N        0.70550    0.37930    0.08880    1.000
    N3       N        0.75740    0.30282    0.15616    1.000
    N4       N        0.59110    0.31300    0.16040    1.000
    N5       N        0.80100    0.59257    0.90866    1.000
    N6       N        0.88990    0.60260    0.90920    1.000
    N7       N        0.90460    0.67365    0.83850    1.000
    N8       N        0.75300    0.66001    0.83518    1.000
    N9       N        0.39350    0.52221    0.09138    1.000
    N10      N        0.29450    0.53190    0.08880    1.000
    N11      N        0.24260    0.54102    0.15616    1.000
    N12      N        0.40890    0.52660    0.16040    1.000
    N13      N        0.19900    0.49877    0.90866    1.000
    N14      N        0.11010    0.48820    0.90920    1.000
    N15      N        0.09540    0.48785    0.83850    1.000
    N16      N        0.24700    0.50481    0.83518    1.000
    N17      N        0.39350    0.61359    0.90862    1.000
    N18      N        0.29450    0.62070    0.91120    1.000
    N19      N        0.24260    0.69718    0.84384    1.000
    N20      N        0.40890    0.68700    0.83960    1.000
    N21      N        0.19900    0.40743    0.09134    1.000
    N22      N        0.11010    0.39740    0.09080    1.000
    N23      N        0.09540    0.32635    0.16150    1.000
    N24      N        0.24700    0.33999    0.16482    1.000
    N25      N        0.60650    0.47779    0.90862    1.000
    N26      N        0.70550    0.46810    0.91120    1.000
    N27      N        0.75740    0.45898    0.84384    1.000
    N28      N        0.59110    0.47340    0.83960    1.000
    N29      N        0.80100    0.50123    0.09134    1.000
    N30      N        0.88990    0.51180    0.09080    1.000
    N31      N        0.90460    0.51215    0.16150    1.000
    N32      N        0.75300    0.49519    0.16482    1.000
    F1       F        0.62030    0.09705    0.25230    1.000
    F2       F        0.66090    0.94212    0.40396    1.000
    F3       F        0.83850    0.08971    0.47858    1.000
    F4       F        0.80120    0.24068    0.32524    1.000
    F5       F        0.61530    0.82785    0.71390    1.000
    F6       F        0.58490    0.96412    0.55576    1.000
    F7       F        0.95150    0.88564    0.52192    1.000
    F8       F        0.98250    0.75417    0.68246    1.000
    F9       F        0.37970    0.65065    0.25230    1.000
    F10      F        0.33910    0.65392    0.40396    1.000
    F11      F        0.16150    0.43171    0.47858    1.000
    F12      F        0.19880    0.43408    0.32524    1.000
    F13      F        0.38470    0.45825    0.71390    1.000
    F14      F        0.41510    0.48012    0.55576    1.000
    F15      F        0.04850    0.59244    0.52192    1.000
    F16      F        0.01750    0.56337    0.68246    1.000
    F17      F        0.37970    0.90295    0.74770    1.000
    F18      F        0.33910    0.05788    0.59604    1.000
    F19      F        0.16150    0.91029    0.52142    1.000
    F20      F        0.19880    0.75932    0.67476    1.000
    F21      F        0.38470    0.17215    0.28610    1.000
    F22      F        0.41510    0.03588    0.44424    1.000
    F23      F        0.04850    0.11436    0.47808    1.000
    F24      F        0.01750    0.24583    0.31754    1.000
    F25      F        0.62030    0.34935    0.74770    1.000
    F26      F        0.66090    0.34608    0.59604    1.000
    F27      F        0.83850    0.56829    0.52142    1.000
    F28      F        0.80120    0.56592    0.67476    1.000
    F29      F        0.61530    0.54175    0.28610    1.000
    F30      F        0.58490    0.51988    0.44424    1.000
    F31      F        0.95150    0.40756    0.47808    1.000
    F32      F        0.98250    0.43663    0.31754    1.000
