# CIF file generated by openbabel 3.1.0, see https://openbabel.org
data_I
_chemical_name_common 'image0'
_cell_length_a 10.918
_cell_length_b 11.231
_cell_length_c 14.577
_cell_angle_alpha 112.006
_cell_angle_beta 107.771
_cell_angle_gamma 90.509
_space_group_name_H-M_alt 'P 1'
_space_group_name_Hall 'P 1'
loop_
    _symmetry_equiv_pos_as_xyz
    x,y,z
loop_
    _atom_site_label
    _atom_site_type_symbol
    _atom_site_fract_x
    _atom_site_fract_y
    _atom_site_fract_z
    _atom_site_occupancy
    Zn1      Zn       0.93623    0.05528    0.09797    1.000
    Zn2      Zn       0.50878    0.98673    0.78807    1.000
    Zn3      Zn       0.66069    0.51255    0.50290    1.000
    Zn4      Zn       0.66066    0.50711    0.00556    1.000
    O1       O        0.46410    0.82050    0.11790    1.000
    O2       O        0.49880    0.62280    0.02800    1.000
    O3       O        0.58870    0.07850    0.13740    1.000
    O4       O        0.77710    0.13020    0.12720    1.000
    O5       O        0.89320    0.01450    0.94240    1.000
    O6       O        0.67850    0.97270    0.88640    1.000
    O7       O        0.49110    0.79520    0.68380    1.000
    O8       O        0.52170    0.60240    0.58350    1.000
    N1       N        0.73890    0.69880    0.04780    1.000
    N2       N        0.84420    0.89230    0.09010    1.000
    N3       N        0.18350    0.59960    0.00650    1.000
    N4       N        0.77580    0.67000    0.63430    1.000
    N5       N        0.91810    0.82560    0.77580    1.000
    N6       N        0.21010    0.57200    0.57620    1.000
    C1       C        0.53190    0.74670    0.07470    1.000
    C2       C        0.66080    0.79150    0.07550    1.000
    C3       C        0.72510    0.91150    0.10050    1.000
    C4       C        0.69340    0.04880    0.12410    1.000
    C5       C        0.84940    0.76480    0.05820    1.000
    C6       C        0.96370    0.70740    0.03870    1.000
    C7       C        0.08380    0.74900    0.11690    1.000
    H1       H        0.09260    0.81460    0.18360    1.000
    C8       C        0.19060    0.69430    0.09720    1.000
    H2       H        0.27290    0.72580    0.15090    1.000
    C9       C        0.06820    0.56350    0.92760    1.000
    H3       H        0.06350    0.50160    0.86050    1.000
    C10      C        0.95610    0.61430    0.94170    1.000
    H4       H        0.87570    0.58550    0.88560    1.000
    C11      C        0.78390    0.95170    0.87260    1.000
    C12      C        0.79510    0.84680    0.77800    1.000
    C13      C        0.70850    0.75140    0.69300    1.000
    C14      C        0.56360    0.71750    0.65270    1.000
    C15      C        0.90110    0.71930    0.68860    1.000
    C16      C        0.00960    0.66850    0.65170    1.000
    C17      C        0.03500    0.54270    0.63700    1.000
    H5       H        0.98490    0.48800    0.65250    1.000
    C18      C        0.13590    0.49900    0.59900    1.000
    H6       H        0.15290    0.41300    0.58860    1.000
    C19      C        0.18650    0.69390    0.59250    1.000
    H7       H        0.23790    0.74600    0.57570    1.000
    C20      C        0.09150    0.74690    0.63230    1.000
    H8       H        0.08130    0.83530    0.64660    1.000
    Zn5      Zn       0.06377    0.94472    0.90203    1.000
    Zn6      Zn       0.49122    0.01327    0.21193    1.000
    Zn7      Zn       0.33931    0.48745    0.49710    1.000
    Zn8      Zn       0.33934    0.49289    0.99444    1.000
    O9       O        0.53590    0.17950    0.88210    1.000
    O10      O        0.50120    0.37720    0.97200    1.000
    O11      O        0.41130    0.92150    0.86260    1.000
    O12      O        0.22290    0.86980    0.87280    1.000
    O13      O        0.10680    0.98550    0.05760    1.000
    O14      O        0.32150    0.02730    0.11360    1.000
    O15      O        0.50890    0.20480    0.31620    1.000
    O16      O        0.47830    0.39760    0.41650    1.000
    N7       N        0.26110    0.30120    0.95220    1.000
    N8       N        0.15580    0.10770    0.90990    1.000
    N9       N        0.81650    0.40040    0.99350    1.000
    N10      N        0.22420    0.33000    0.36570    1.000
    N11      N        0.08190    0.17440    0.22420    1.000
    N12      N        0.78990    0.42800    0.42380    1.000
    C21      C        0.46810    0.25330    0.92530    1.000
    C22      C        0.33920    0.20850    0.92450    1.000
    C23      C        0.27490    0.08850    0.89950    1.000
    C24      C        0.30660    0.95120    0.87590    1.000
    C25      C        0.15060    0.23520    0.94180    1.000
    C26      C        0.03630    0.29260    0.96130    1.000
    C27      C        0.91620    0.25100    0.88310    1.000
    H9       H        0.90740    0.18540    0.81640    1.000
    C28      C        0.80940    0.30570    0.90280    1.000
    H10      H        0.72710    0.27420    0.84910    1.000
    C29      C        0.93180    0.43650    0.07240    1.000
    H11      H        0.93650    0.49840    0.13950    1.000
    C30      C        0.04390    0.38570    0.05830    1.000
    H12      H        0.12430    0.41450    0.11440    1.000
    C31      C        0.21610    0.04830    0.12740    1.000
    C32      C        0.20490    0.15320    0.22200    1.000
    C33      C        0.29150    0.24860    0.30700    1.000
    C34      C        0.43640    0.28250    0.34730    1.000
    C35      C        0.09890    0.28070    0.31140    1.000
    C36      C        0.99040    0.33150    0.34830    1.000
    C37      C        0.96500    0.45730    0.36300    1.000
    H13      H        0.01510    0.51200    0.34750    1.000
    C38      C        0.86410    0.50100    0.40100    1.000
    H14      H        0.84710    0.58700    0.41140    1.000
    C39      C        0.81350    0.30610    0.40750    1.000
    H15      H        0.76210    0.25400    0.42430    1.000
    C40      C        0.90850    0.25310    0.36770    1.000
    H16      H        0.91870    0.16470    0.35340    1.000
