data_functionalizedCrystal
_audit_creation_method	'EQeq! by Chris Wilmer'
_symmetry_space_group_name_H-M	'P1'
_symmetry_Int_Tables_number	1
_symmetry_cell_setting	triclinic
loop_
_symmetry_equiv_pos_as_xyz
  x,y,z
_cell_length_a	16.7581
_cell_length_b	18.8268
_cell_length_c	38.9998
_cell_angle_alpha	90
_cell_angle_beta	90
_cell_angle_gamma	90
loop_
_atom_site_label
_atom_site_type_symbol
_atom_site_fract_x
_atom_site_fract_y
_atom_site_fract_z
_atom_site_charge
Mof_C 	C 	0.6153	0.1109	0.1893	-0.086
Mof_C 	C 	0.6194	0.0401	0.1747	0.107
Mof_H 	H 	0.6249	0.9999	0.1893	0.102
Mof_C 	C 	0.6153	0.0313	0.14	-0.129
Mof_C 	C 	0.6132	0.1595	0.13171	-0.002
Mof_C 	C 	0.6129	0.1674	0.1687	0.077
Mof_H 	H 	0.6109	0.2136	0.1784	-0.084
Mof_C 	C 	0.4235	0.1067	0.15932	-0.008
Mof_H 	H 	0.4246	0.0939	0.1829	0.064
Mof_S 	S 	0.56956	0.39589	0.20846	0.753
Mof_O 	O 	0.60037	0.17851	0.24403	-0.402
Mof_O 	O 	0.48723	0.42304	0.20864	-0.372
Mof_O 	O 	0.4076	0.29728	0.16945	-0.34
Mof_O 	O 	0.4441	0.21393	0.20721	-0.366
Mof_O 	O 	0.57243	0.32575	0.2243	-0.383
Mof_C 	C 	0.4256	0.2345	0.1774	0.37
Mof_O 	O 	0.5946	0.3878	0.17277	-0.258
Mof_C 	C 	0.4232	0.1785	0.15001	-0.07
Mof_C 	C 	0.4223	0.1957	0.11555	-0.004
Mof_H 	H 	0.4208	0.2442	0.1088	0.067
Mof_O 	O 	0.622	0.4437	0.2255	-0.252
Mof_C 	C 	0.6153	0.6109	0.6893	-0.092
Mof_C 	C 	0.6194	0.5401	0.6747	0.112
Mof_H 	H 	0.6249	0.4999	0.6893	0.062
Mof_C 	C 	0.6153	0.5313	0.64	-0.084
Mof_C 	C 	0.6132	0.6595	0.63171	0.01
Mof_C 	C 	0.6129	0.6674	0.6687	0.061
Mof_H 	H 	0.6109	0.7136	0.6784	-0.08
Mof_C 	C 	0.4235	0.6067	0.65932	-0.012
Mof_H 	H 	0.4246	0.5939	0.6829	0.071
Mof_S 	S 	0.56956	0.89589	0.70846	0.751
Mof_O 	O 	0.60037	0.67851	0.74403	-0.399
Mof_O 	O 	0.48723	0.92304	0.70864	-0.362
Mof_O 	O 	0.4076	0.79728	0.66945	-0.337
Mof_O 	O 	0.4441	0.71393	0.70721	-0.364
Mof_O 	O 	0.57243	0.82575	0.7243	-0.38
Mof_C 	C 	0.4256	0.7345	0.6774	0.369
Mof_O 	O 	0.5946	0.8878	0.67277	-0.25
Mof_C 	C 	0.4232	0.6785	0.65001	-0.062
Mof_C 	C 	0.4223	0.6957	0.61555	-0.01
Mof_H 	H 	0.4208	0.7442	0.6088	0.073
Mof_O 	O 	0.622	0.9437	0.7255	-0.239
Mof_C 	C 	0.1153	0.1109	0.6893	-0.02
Mof_C 	C 	0.1194	0.0401	0.6747	0.13
Mof_H 	H 	0.1249	0.9999	0.6893	0.096
Mof_C 	C 	0.1153	0.0313	0.64	-0.132
Mof_C 	C 	0.1132	0.1595	0.63171	0.06
Mof_C 	C 	0.1129	0.1674	0.6687	0.072
Mof_H 	H 	0.1109	0.2136	0.6784	-0.065
Mof_C 	C 	0.9235	0.1067	0.65932	-0.003
Mof_H 	H 	0.9246	0.0939	0.6829	0.072
Mof_S 	S 	0.06956	0.39589	0.70846	0.689
Mof_O 	O 	0.10037	0.17851	0.74403	-0.399
Mof_O 	O 	0.98723	0.42304	0.70864	-0.325
Mof_O 	O 	0.9076	0.29728	0.66945	-0.328
Mof_O 	O 	0.9441	0.21393	0.70721	-0.338
Mof_O 	O 	0.07243	0.32575	0.7243	-0.374
Mof_C 	C 	0.9256	0.2345	0.6774	0.369
Mof_O 	O 	0.0946	0.3878	0.67277	-0.258
Mof_C 	C 	0.9232	0.1785	0.65001	-0.06
Mof_C 	C 	0.9223	0.1957	0.61555	0.001
Mof_H 	H 	0.9208	0.2442	0.6088	0.076
Mof_O 	O 	0.122	0.4437	0.7255	-0.249
Mof_C 	C 	0.1153	0.6109	0.1893	-0.026
Mof_C 	C 	0.1194	0.5401	0.1747	0.135
Mof_H 	H 	0.1249	0.4999	0.1893	0.056
Mof_C 	C 	0.1153	0.5313	0.14	-0.088
Mof_C 	C 	0.1132	0.6595	0.13171	0.072
Mof_C 	C 	0.1129	0.6674	0.1687	0.056
Mof_H 	H 	0.1109	0.7136	0.1784	-0.063
Mof_C 	C 	0.9235	0.6067	0.15932	-0.009
Mof_H 	H 	0.9246	0.5939	0.1829	0.078
Mof_S 	S 	0.06956	0.89589	0.20846	0.686
Mof_O 	O 	0.10037	0.67851	0.24403	-0.397
Mof_O 	O 	0.98723	0.92304	0.20864	-0.317
Mof_O 	O 	0.9076	0.79728	0.16945	-0.326
Mof_O 	O 	0.9441	0.71393	0.20721	-0.336
Mof_O 	O 	0.07243	0.82575	0.2243	-0.372
Mof_C 	C 	0.9256	0.7345	0.1774	0.367
Mof_O 	O 	0.0946	0.8878	0.17277	-0.252
Mof_C 	C 	0.9232	0.6785	0.15001	-0.053
Mof_C 	C 	0.9223	0.6957	0.11555	-0.007
Mof_H 	H 	0.9208	0.7442	0.1088	0.08
Mof_O 	O 	0.122	0.9437	0.2255	-0.236
Mof_C 	C 	0.1347	0.6391	0.1893	-0.159
Mof_C 	C 	0.1306	0.7099	0.1747	0.093
Mof_H 	H 	0.1251	0.7501	0.1893	0.062
Mof_C 	C 	0.1347	0.7187	0.14	-0.087
Mof_C 	C 	0.1368	0.5905	0.13171	-0.053
Mof_C 	C 	0.1371	0.5826	0.1687	0.049
Mof_H 	H 	0.1391	0.5364	0.1784	-0.099
Mof_C 	C 	0.3265	0.6433	0.15932	-0.008
Mof_H 	H 	0.3254	0.6561	0.1829	0.073
Mof_S 	S 	0.18044	0.35411	0.20846	0.757
Mof_O 	O 	0.14963	0.57149	0.24403	-0.401
Mof_O 	O 	0.26277	0.32696	0.20864	-0.374
Mof_O 	O 	0.3424	0.45272	0.16945	-0.337
Mof_O 	O 	0.3059	0.53607	0.20721	-0.362
Mof_O 	O 	0.17757	0.42425	0.2243	-0.387
Mof_C 	C 	0.3244	0.5155	0.1774	0.371
Mof_O 	O 	0.1554	0.3622	0.17277	-0.267
Mof_C 	C 	0.3268	0.5715	0.15001	-0.06
Mof_C 	C 	0.3277	0.5543	0.11555	-0.006
Mof_H 	H 	0.3292	0.5058	0.1088	0.071
Mof_O 	O 	0.128	0.3063	0.2255	-0.269
Mof_C 	C 	0.1347	0.1391	0.6893	-0.189
Mof_C 	C 	0.1306	0.2099	0.6747	0.091
Mof_H 	H 	0.1251	0.2501	0.6893	0.063
Mof_C 	C 	0.1347	0.2187	0.64	-0.083
Mof_C 	C 	0.1368	0.0905	0.63171	-0.04
Mof_C 	C 	0.1371	0.0826	0.6687	0.08
Mof_H 	H 	0.1391	0.0364	0.6784	-0.133
Mof_C 	C 	0.3265	0.1433	0.65932	-0.02
Mof_H 	H 	0.3254	0.1561	0.6829	0.076
Mof_S 	S 	0.18044	0.85411	0.70846	0.751
Mof_O 	O 	0.14963	0.07149	0.74403	-0.408
Mof_O 	O 	0.26277	0.82696	0.70864	-0.37
Mof_O 	O 	0.3424	0.95272	0.66945	-0.299
Mof_O 	O 	0.3059	0.03607	0.70721	-0.354
Mof_O 	O 	0.17757	0.92425	0.7243	-0.369
Mof_C 	C 	0.3244	0.0155	0.6774	0.321
Mof_O 	O 	0.1554	0.8622	0.67277	-0.26
Mof_C 	C 	0.3268	0.0715	0.65001	-0.047
Mof_C 	C 	0.3277	0.0543	0.61555	-0.019
Mof_H 	H 	0.3292	0.0058	0.6088	0.064
Mof_O 	O 	0.128	0.8063	0.7255	-0.262
Mof_C 	C 	0.6347	0.6391	0.6893	-0.093
Mof_C 	C 	0.6306	0.7099	0.6747	0.112
Mof_H 	H 	0.6251	0.7501	0.6893	0.065
Mof_C 	C 	0.6347	0.7187	0.64	-0.082
Mof_C 	C 	0.6368	0.5905	0.63171	0.01
Mof_C 	C 	0.6371	0.5826	0.6687	0.06
Mof_H 	H 	0.6391	0.5364	0.6784	-0.081
Mof_C 	C 	0.8265	0.6433	0.65932	-0.007
Mof_H 	H 	0.8254	0.6561	0.6829	0.075
Mof_S 	S 	0.68044	0.35411	0.70846	0.754
Mof_O 	O 	0.64963	0.57149	0.74403	-0.4
Mof_O 	O 	0.76277	0.32696	0.70864	-0.373
Mof_O 	O 	0.8424	0.45272	0.66945	-0.334
Mof_O 	O 	0.8059	0.53607	0.70721	-0.361
Mof_O 	O 	0.67757	0.42425	0.7243	-0.384
Mof_C 	C 	0.8244	0.5155	0.6774	0.371
Mof_O 	O 	0.6554	0.3622	0.67277	-0.258
Mof_C 	C 	0.8268	0.5715	0.65001	-0.059
Mof_C 	C 	0.8277	0.5543	0.61555	-0.006
Mof_H 	H 	0.8292	0.5058	0.6088	0.074
Mof_O 	O 	0.628	0.3063	0.7255	-0.256
Mof_C 	C 	0.6347	0.1391	0.1893	-0.125
Mof_C 	C 	0.6306	0.2099	0.1747	0.109
Mof_H 	H 	0.6251	0.2501	0.1893	0.066
Mof_C 	C 	0.6347	0.2187	0.14	-0.078
Mof_C 	C 	0.6368	0.0905	0.13171	0.022
Mof_C 	C 	0.6371	0.0826	0.1687	0.091
Mof_H 	H 	0.6391	0.0364	0.1784	-0.116
Mof_C 	C 	0.8265	0.1433	0.15932	-0.02
Mof_H 	H 	0.8254	0.1561	0.1829	0.078
Mof_S 	S 	0.68044	0.85411	0.20846	0.748
Mof_O 	O 	0.64963	0.07149	0.24403	-0.407
Mof_O 	O 	0.76277	0.82696	0.20864	-0.369
Mof_O 	O 	0.8424	0.95272	0.16945	-0.296
Mof_O 	O 	0.8059	0.03607	0.20721	-0.353
Mof_O 	O 	0.67757	0.92425	0.2243	-0.365
Mof_C 	C 	0.8244	0.0155	0.1774	0.321
Mof_O 	O 	0.6554	0.8622	0.17277	-0.251
Mof_C 	C 	0.8268	0.0715	0.15001	-0.046
Mof_C 	C 	0.8277	0.0543	0.11555	-0.02
Mof_H 	H 	0.8292	0.0058	0.1088	0.066
Mof_O 	O 	0.628	0.8063	0.2255	-0.249
Mof_C 	C 	0.1347	0.1109	0.5607	-0.15
Mof_C 	C 	0.1306	0.0401	0.5753	0.09
Mof_H 	H 	0.1251	0.9999	0.5607	0.1
Mof_C 	C 	0.1347	0.0313	0.61	-0.132
Mof_C 	C 	0.1368	0.1595	0.61829	-0.064
Mof_C 	C 	0.1371	0.1674	0.5813	0.067
Mof_H 	H 	0.1391	0.2136	0.5716	-0.101
Mof_C 	C 	0.3265	0.1067	0.59068	-0.004
Mof_H 	H 	0.3254	0.0939	0.5671	0.067
Mof_S 	S 	0.18044	0.39589	0.54154	0.757
Mof_O 	O 	0.14963	0.17851	0.50597	-0.403
Mof_O 	O 	0.26277	0.42304	0.54136	-0.373
Mof_O 	O 	0.3424	0.29728	0.58055	-0.338
Mof_O 	O 	0.3059	0.21393	0.54279	-0.363
Mof_O 	O 	0.17757	0.32575	0.5257	-0.387
Mof_C 	C 	0.3244	0.2345	0.5726	0.372
Mof_O 	O 	0.1554	0.3878	0.57723	-0.266
Mof_C 	C 	0.3268	0.1785	0.59999	-0.066
Mof_C 	C 	0.3277	0.1957	0.63445	-0
Mof_H 	H 	0.3292	0.2442	0.6412	0.069
Mof_O 	O 	0.128	0.4437	0.5245	-0.266
Mof_C 	C 	0.1347	0.6109	0.0607	-0.158
Mof_C 	C 	0.1306	0.5401	0.0753	0.095
Mof_H 	H 	0.1251	0.4999	0.0607	0.061
Mof_C 	C 	0.1347	0.5313	0.11	-0.088
Mof_C 	C 	0.1368	0.6595	0.11829	-0.054
Mof_C 	C 	0.1371	0.6674	0.0813	0.051
Mof_H 	H 	0.1391	0.7136	0.0716	-0.099
Mof_C 	C 	0.3265	0.6067	0.09068	-0.009
Mof_H 	H 	0.3254	0.5939	0.0671	0.071
Mof_S 	S 	0.18044	0.89589	0.04154	0.753
Mof_O 	O 	0.14963	0.67851	0.00597	-0.405
Mof_O 	O 	0.26277	0.92304	0.04136	-0.367
Mof_O 	O 	0.3424	0.79728	0.08055	-0.335
Mof_O 	O 	0.3059	0.71393	0.04279	-0.363
Mof_O 	O 	0.17757	0.82575	0.0257	-0.387
Mof_C 	C 	0.3244	0.7345	0.0726	0.37
Mof_O 	O 	0.1554	0.8878	0.07723	-0.26
Mof_C 	C 	0.3268	0.6785	0.09999	-0.06
Mof_C 	C 	0.3277	0.6957	0.13445	-0.007
Mof_H 	H 	0.3292	0.7442	0.1412	0.073
Mof_O 	O 	0.128	0.9437	0.0245	-0.258
Mof_C 	C 	0.6347	0.1109	0.0607	-0.086
Mof_C 	C 	0.6306	0.0401	0.0753	0.108
Mof_H 	H 	0.6251	0.9999	0.0607	0.103
Mof_C 	C 	0.6347	0.0313	0.11	-0.128
Mof_C 	C 	0.6368	0.1595	0.11829	-0.002
Mof_C 	C 	0.6371	0.1674	0.0813	0.077
Mof_H 	H 	0.6391	0.2136	0.0716	-0.083
Mof_C 	C 	0.8265	0.1067	0.09068	-0.003
Mof_H 	H 	0.8254	0.0939	0.0671	0.067
Mof_S 	S 	0.68044	0.39589	0.04154	0.753
Mof_O 	O 	0.64963	0.17851	0.00597	-0.406
Mof_O 	O 	0.76277	0.42304	0.04136	-0.374
Mof_O 	O 	0.8424	0.29728	0.08055	-0.334
Mof_O 	O 	0.8059	0.21393	0.04279	-0.363
Mof_O 	O 	0.67757	0.32575	0.0257	-0.385
Mof_C 	C 	0.8244	0.2345	0.0726	0.372
Mof_O 	O 	0.6554	0.3878	0.07723	-0.257
Mof_C 	C 	0.8268	0.1785	0.09999	-0.065
Mof_C 	C 	0.8277	0.1957	0.13445	-0
Mof_H 	H 	0.8292	0.2442	0.1412	0.072
Mof_O 	O 	0.628	0.4437	0.0245	-0.258
Mof_C 	C 	0.6347	0.6109	0.5607	-0.092
Mof_C 	C 	0.6306	0.5401	0.5753	0.112
Mof_H 	H 	0.6251	0.4999	0.5607	0.064
Mof_C 	C 	0.6347	0.5313	0.61	-0.083
Mof_C 	C 	0.6368	0.6595	0.61829	0.01
Mof_C 	C 	0.6371	0.6674	0.5813	0.061
Mof_H 	H 	0.6391	0.7136	0.5716	-0.081
Mof_C 	C 	0.8265	0.6067	0.59068	-0.009
Mof_H 	H 	0.8254	0.5939	0.5671	0.075
Mof_S 	S 	0.68044	0.89589	0.54154	0.751
Mof_O 	O 	0.64963	0.67851	0.50597	-0.399
Mof_O 	O 	0.76277	0.92304	0.54136	-0.363
Mof_O 	O 	0.8424	0.79728	0.58055	-0.333
Mof_O 	O 	0.8059	0.71393	0.54279	-0.361
Mof_O 	O 	0.67757	0.82575	0.5257	-0.381
Mof_C 	C 	0.8244	0.7345	0.5726	0.371
Mof_O 	O 	0.6554	0.8878	0.57723	-0.25
Mof_C 	C 	0.8268	0.6785	0.59999	-0.058
Mof_C 	C 	0.8277	0.6957	0.63445	-0.007
Mof_H 	H 	0.8292	0.7442	0.6412	0.077
Mof_O 	O 	0.628	0.9437	0.5245	-0.241
Mof_C 	C 	0.6153	0.6391	0.5607	-0.092
Mof_C 	C 	0.6194	0.7099	0.5753	0.112
Mof_H 	H 	0.6249	0.7501	0.5607	0.064
Mof_C 	C 	0.6153	0.7187	0.61	-0.082
Mof_C 	C 	0.6132	0.5905	0.61829	0.01
Mof_C 	C 	0.6129	0.5826	0.5813	0.06
Mof_H 	H 	0.6109	0.5364	0.5716	-0.081
Mof_C 	C 	0.4235	0.6433	0.59068	-0.01
Mof_H 	H 	0.4246	0.6561	0.5671	0.071
Mof_S 	S 	0.56956	0.35411	0.54154	0.754
Mof_O 	O 	0.60037	0.57149	0.50597	-0.4
Mof_O 	O 	0.48723	0.32696	0.54136	-0.372
Mof_O 	O 	0.4076	0.45272	0.58055	-0.338
Mof_O 	O 	0.4441	0.53607	0.54279	-0.363
Mof_O 	O 	0.57243	0.42425	0.5257	-0.382
Mof_C 	C 	0.4256	0.5155	0.5726	0.37
Mof_O 	O 	0.5946	0.3622	0.57723	-0.258
Mof_C 	C 	0.4232	0.5715	0.59999	-0.063
Mof_C 	C 	0.4223	0.5543	0.63445	-0.008
Mof_H 	H 	0.4208	0.5058	0.6412	0.07
Mof_O 	O 	0.622	0.3063	0.5245	-0.254
Mof_C 	C 	0.6153	0.1391	0.0607	-0.125
Mof_C 	C 	0.6194	0.2099	0.0753	0.11
Mof_H 	H 	0.6249	0.2501	0.0607	0.065
Mof_C 	C 	0.6153	0.2187	0.11	-0.079
Mof_C 	C 	0.6132	0.0905	0.11829	0.023
Mof_C 	C 	0.6129	0.0826	0.0813	0.092
Mof_H 	H 	0.6109	0.0364	0.0716	-0.116
Mof_C 	C 	0.4235	0.1433	0.09068	-0.022
Mof_H 	H 	0.4246	0.1561	0.0671	0.072
Mof_S 	S 	0.56956	0.85411	0.04154	0.748
Mof_O 	O 	0.60037	0.07149	0.00597	-0.411
Mof_O 	O 	0.48723	0.82696	0.04136	-0.37
Mof_O 	O 	0.4076	0.95272	0.08055	-0.299
Mof_O 	O 	0.4441	0.03607	0.04279	-0.356
Mof_O 	O 	0.57243	0.92425	0.0257	-0.365
Mof_C 	C 	0.4256	0.0155	0.0726	0.319
Mof_O 	O 	0.5946	0.8622	0.07723	-0.251
Mof_C 	C 	0.4232	0.0715	0.09999	-0.05
Mof_C 	C 	0.4223	0.0543	0.13445	-0.022
Mof_H 	H 	0.4208	0.0058	0.1412	0.063
Mof_O 	O 	0.622	0.8063	0.0245	-0.252
Mof_C 	C 	0.1153	0.6391	0.0607	-0.027
Mof_C 	C 	0.1194	0.7099	0.0753	0.135
Mof_H 	H 	0.1249	0.7501	0.0607	0.057
Mof_C 	C 	0.1153	0.7187	0.11	-0.088
Mof_C 	C 	0.1132	0.5905	0.11829	0.072
Mof_C 	C 	0.1129	0.5826	0.0813	0.055
Mof_H 	H 	0.1109	0.5364	0.0716	-0.063
Mof_C 	C 	0.9235	0.6433	0.09068	-0.007
Mof_H 	H 	0.9246	0.6561	0.0671	0.077
Mof_S 	S 	0.06956	0.35411	0.04154	0.689
Mof_O 	O 	0.10037	0.57149	0.00597	-0.402
Mof_O 	O 	0.98723	0.32696	0.04136	-0.328
Mof_O 	O 	0.9076	0.45272	0.08055	-0.326
Mof_O 	O 	0.9441	0.53607	0.04279	-0.336
Mof_O 	O 	0.07243	0.42425	0.0257	-0.376
Mof_C 	C 	0.9256	0.5155	0.0726	0.367
Mof_O 	O 	0.0946	0.3622	0.07723	-0.26
Mof_C 	C 	0.9232	0.5715	0.09999	-0.055
Mof_C 	C 	0.9223	0.5543	0.13445	-0.005
Mof_H 	H 	0.9208	0.5058	0.1412	0.078
Mof_O 	O 	0.122	0.3063	0.0245	-0.256
Mof_C 	C 	0.1153	0.1391	0.5607	-0.059
Mof_C 	C 	0.1194	0.2099	0.5753	0.131
Mof_H 	H 	0.1249	0.2501	0.5607	0.059
Mof_C 	C 	0.1153	0.2187	0.61	-0.083
Mof_C 	C 	0.1132	0.0905	0.61829	0.083
Mof_C 	C 	0.1129	0.0826	0.5813	0.086
Mof_H 	H 	0.1109	0.0364	0.5716	-0.098
Mof_C 	C 	0.9235	0.1433	0.59068	-0.019
Mof_H 	H 	0.9246	0.1561	0.5671	0.081
Mof_S 	S 	0.06956	0.85411	0.54154	0.683
Mof_O 	O 	0.10037	0.07149	0.50597	-0.405
Mof_O 	O 	0.98723	0.82696	0.54136	-0.322
Mof_O 	O 	0.9076	0.95272	0.58055	-0.289
Mof_O 	O 	0.9441	0.03607	0.54279	-0.329
Mof_O 	O 	0.07243	0.92425	0.5257	-0.356
Mof_C 	C 	0.9256	0.0155	0.5726	0.318
Mof_O 	O 	0.0946	0.8622	0.57723	-0.252
Mof_C 	C 	0.9232	0.0715	0.59999	-0.041
Mof_C 	C 	0.9223	0.0543	0.63445	-0.018
Mof_H 	H 	0.9208	0.0058	0.6412	0.07
Mof_O 	O 	0.122	0.8063	0.5245	-0.245
Mof_C 	C 	0.3847	0.8891	0.8107	-0.096
Mof_C 	C 	0.3806	0.9599	0.8253	0.119
Mof_H 	H 	0.3751	0.0001	0.8107	0.025
Mof_C 	C 	0.3847	0.9687	0.86	-0.039
Mof_C 	C 	0.3868	0.8405	0.86829	0.022
Mof_C 	C 	0.3871	0.8326	0.8313	0.041
Mof_H 	H 	0.3891	0.7864	0.8216	-0.078
Mof_C 	C 	0.5765	0.8933	0.84068	-0.012
Mof_H 	H 	0.5754	0.9061	0.8171	0.077
Mof_S 	S 	0.43044	0.60411	0.79154	0.754
Mof_O 	O 	0.39963	0.82149	0.75597	-0.397
Mof_O 	O 	0.51277	0.57696	0.79136	-0.371
Mof_O 	O 	0.5924	0.70272	0.83055	-0.336
Mof_O 	O 	0.5559	0.78607	0.79279	-0.361
Mof_O 	O 	0.42757	0.67425	0.7757	-0.384
Mof_C 	C 	0.5744	0.7655	0.8226	0.369
Mof_O 	O 	0.4054	0.6122	0.82723	-0.258
Mof_C 	C 	0.5768	0.8215	0.84999	-0.057
Mof_C 	C 	0.5777	0.8043	0.88445	-0.011
Mof_H 	H 	0.5792	0.7558	0.8912	0.074
Mof_O 	O 	0.378	0.5563	0.7745	-0.255
Mof_C 	C 	0.3847	0.3891	0.3107	-0.093
Mof_C 	C 	0.3806	0.4599	0.3253	0.113
Mof_H 	H 	0.3751	0.5001	0.3107	0.063
Mof_C 	C 	0.3847	0.4687	0.36	-0.083
Mof_C 	C 	0.3868	0.3405	0.36829	0.01
Mof_C 	C 	0.3871	0.3326	0.3313	0.059
Mof_H 	H 	0.3891	0.2864	0.3216	-0.081
Mof_C 	C 	0.5765	0.3933	0.34068	-0.009
Mof_H 	H 	0.5754	0.4061	0.3171	0.072
Mof_S 	S 	0.43044	0.10411	0.29154	0.757
Mof_O 	O 	0.39963	0.32149	0.25597	-0.401
Mof_O 	O 	0.51277	0.07696	0.29136	-0.379
Mof_O 	O 	0.5924	0.20272	0.33055	-0.338
Mof_O 	O 	0.5559	0.28607	0.29279	-0.363
Mof_O 	O 	0.42757	0.17425	0.2757	-0.385
Mof_C 	C 	0.5744	0.2655	0.3226	0.371
Mof_O 	O 	0.4054	0.1122	0.32723	-0.265
Mof_C 	C 	0.5768	0.3215	0.34999	-0.062
Mof_C 	C 	0.5777	0.3043	0.38445	-0.007
Mof_H 	H 	0.5792	0.2558	0.3912	0.069
Mof_O 	O 	0.378	0.0563	0.2745	-0.267
Mof_C 	C 	0.8847	0.8891	0.3107	-0.162
Mof_C 	C 	0.8806	0.9599	0.3253	0.097
Mof_H 	H 	0.8751	0.0001	0.3107	0.031
Mof_C 	C 	0.8847	0.9687	0.36	-0.033
Mof_C 	C 	0.8868	0.8405	0.36829	-0.042
Mof_C 	C 	0.8871	0.8326	0.3313	0.043
Mof_H 	H 	0.8891	0.7864	0.3216	-0.096
Mof_C 	C 	0.0765	0.8933	0.34068	-0.017
Mof_H 	H 	0.0754	0.9061	0.3171	0.072
Mof_S 	S 	0.93044	0.60411	0.29154	0.811
Mof_O 	O 	0.89963	0.82149	0.25597	-0.378
Mof_O 	O 	0.01277	0.57696	0.29136	-0.413
Mof_O 	O 	0.0924	0.70272	0.33055	-0.342
Mof_O 	O 	0.0559	0.78607	0.29279	-0.364
Mof_O 	O 	0.92757	0.67425	0.2757	-0.37
Mof_C 	C 	0.0744	0.7655	0.3226	0.363
Mof_O 	O 	0.9054	0.6122	0.32723	-0.254
Mof_C 	C 	0.0768	0.8215	0.34999	-0.062
Mof_C 	C 	0.0777	0.8043	0.38445	-0.016
Mof_H 	H 	0.0792	0.7558	0.3912	0.067
Mof_O 	O 	0.878	0.5563	0.2745	-0.255
Mof_C 	C 	0.8847	0.3891	0.8107	-0.159
Mof_C 	C 	0.8806	0.4599	0.8253	0.09
Mof_H 	H 	0.8751	0.5001	0.8107	0.07
Mof_C 	C 	0.8847	0.4687	0.86	-0.078
Mof_C 	C 	0.8868	0.3405	0.86829	-0.053
Mof_C 	C 	0.8871	0.3326	0.8313	0.06
Mof_H 	H 	0.8891	0.2864	0.8216	-0.099
Mof_C 	C 	0.0765	0.3933	0.84068	-0.013
Mof_H 	H 	0.0754	0.4061	0.8171	0.066
Mof_S 	S 	0.93044	0.10411	0.79154	0.812
Mof_O 	O 	0.89963	0.32149	0.75597	-0.382
Mof_O 	O 	0.01277	0.07696	0.79136	-0.42
Mof_O 	O 	0.0924	0.20272	0.83055	-0.344
Mof_O 	O 	0.0559	0.28607	0.79279	-0.365
Mof_O 	O 	0.92757	0.17425	0.7757	-0.372
Mof_C 	C 	0.0744	0.2655	0.8226	0.364
Mof_O 	O 	0.9054	0.1122	0.82723	-0.261
Mof_C 	C 	0.0768	0.3215	0.84999	-0.068
Mof_C 	C 	0.0777	0.3043	0.88445	-0.01
Mof_H 	H 	0.0792	0.2558	0.8912	0.063
Mof_O 	O 	0.878	0.0563	0.7745	-0.267
Mof_C 	C 	0.8653	0.3609	0.8107	-0.019
Mof_C 	C 	0.8694	0.2901	0.8253	0.136
Mof_H 	H 	0.8749	0.2499	0.8107	0.066
Mof_C 	C 	0.8653	0.2813	0.86	-0.079
Mof_C 	C 	0.8632	0.4095	0.86829	0.078
Mof_C 	C 	0.8629	0.4174	0.8313	0.068
Mof_H 	H 	0.8609	0.4636	0.8216	-0.06
Mof_C 	C 	0.6735	0.3567	0.84068	-0.013
Mof_H 	H 	0.6746	0.3439	0.8171	0.069
Mof_S 	S 	0.81956	0.64589	0.79154	0.75
Mof_O 	O 	0.85037	0.42851	0.75597	-0.396
Mof_O 	O 	0.73723	0.67304	0.79136	-0.367
Mof_O 	O 	0.6576	0.54728	0.83055	-0.337
Mof_O 	O 	0.6941	0.46393	0.79279	-0.364
Mof_O 	O 	0.82243	0.57575	0.7757	-0.378
Mof_C 	C 	0.6756	0.4845	0.8226	0.369
Mof_O 	O 	0.8446	0.6378	0.82723	-0.247
Mof_C 	C 	0.6732	0.4285	0.84999	-0.064
Mof_C 	C 	0.6723	0.4457	0.88445	-0.01
Mof_H 	H 	0.6708	0.4942	0.8912	0.071
Mof_O 	O 	0.872	0.6937	0.7745	-0.237
Mof_C 	C 	0.8653	0.8609	0.3107	0.013
Mof_C 	C 	0.8694	0.7901	0.3253	0.138
Mof_H 	H 	0.8749	0.7499	0.3107	0.064
Mof_C 	C 	0.8653	0.7813	0.36	-0.083
Mof_C 	C 	0.8632	0.9095	0.36829	0.065
Mof_C 	C 	0.8629	0.9174	0.3313	0.034
Mof_H 	H 	0.8609	0.9636	0.3216	-0.026
Mof_C 	C 	0.6735	0.8567	0.34068	-0.004
Mof_H 	H 	0.6746	0.8439	0.3171	0.068
Mof_S 	S 	0.81956	0.14589	0.29154	0.75
Mof_O 	O 	0.85037	0.92851	0.25597	-0.374
Mof_O 	O 	0.73723	0.17304	0.29136	-0.368
Mof_O 	O 	0.6576	0.04728	0.33055	-0.372
Mof_O 	O 	0.6941	0.96393	0.29279	-0.353
Mof_O 	O 	0.82243	0.07575	0.2757	-0.381
Mof_C 	C 	0.6756	0.9845	0.3226	0.413
Mof_O 	O 	0.8446	0.1378	0.32723	-0.253
Mof_C 	C 	0.6732	0.9285	0.34999	-0.073
Mof_C 	C 	0.6723	0.9457	0.38445	0
Mof_H 	H 	0.6708	0.9942	0.3912	0.079
Mof_O 	O 	0.872	0.1937	0.2745	-0.242
Mof_C 	C 	0.3653	0.3609	0.3107	-0.092
Mof_C 	C 	0.3694	0.2901	0.3253	0.114
Mof_H 	H 	0.3749	0.2499	0.3107	0.062
Mof_C 	C 	0.3653	0.2813	0.36	-0.084
Mof_C 	C 	0.3632	0.4095	0.36829	0.01
Mof_C 	C 	0.3629	0.4174	0.3313	0.061
Mof_H 	H 	0.3609	0.4636	0.3216	-0.081
Mof_C 	C 	0.1735	0.3567	0.34068	-0.014
Mof_H 	H 	0.1746	0.3439	0.3171	0.068
Mof_S 	S 	0.31956	0.64589	0.29154	0.753
Mof_O 	O 	0.35037	0.42851	0.25597	-0.4
Mof_O 	O 	0.23723	0.67304	0.29136	-0.368
Mof_O 	O 	0.1576	0.54728	0.33055	-0.34
Mof_O 	O 	0.1941	0.46393	0.29279	-0.365
Mof_O 	O 	0.32243	0.57575	0.2757	-0.382
Mof_C 	C 	0.1756	0.4845	0.3226	0.369
Mof_O 	O 	0.3446	0.6378	0.32723	-0.256
Mof_C 	C 	0.1732	0.4285	0.34999	-0.065
Mof_C 	C 	0.1723	0.4457	0.38445	-0.011
Mof_H 	H 	0.1708	0.4942	0.3912	0.068
Mof_O 	O 	0.372	0.6937	0.2745	-0.25
Mof_C 	C 	0.3653	0.8609	0.8107	-0.059
Mof_C 	C 	0.3694	0.7901	0.8253	0.116
Mof_H 	H 	0.3749	0.7499	0.8107	0.06
Mof_C 	C 	0.3653	0.7813	0.86	-0.088
Mof_C 	C 	0.3632	0.9095	0.86829	-0.001
Mof_C 	C 	0.3629	0.9174	0.8313	0.027
Mof_H 	H 	0.3609	0.9636	0.8216	-0.046
Mof_C 	C 	0.1735	0.8567	0.84068	-0.004
Mof_H 	H 	0.1746	0.8439	0.8171	0.066
Mof_S 	S 	0.31956	0.14589	0.79154	0.753
Mof_O 	O 	0.35037	0.92851	0.75597	-0.378
Mof_O 	O 	0.23723	0.17304	0.79136	-0.369
Mof_O 	O 	0.1576	0.04728	0.83055	-0.374
Mof_O 	O 	0.1941	0.96393	0.79279	-0.354
Mof_O 	O 	0.32243	0.07575	0.7757	-0.385
Mof_C 	C 	0.1756	0.9845	0.8226	0.412
Mof_O 	O 	0.3446	0.1378	0.82723	-0.262
Mof_C 	C 	0.1732	0.9285	0.84999	-0.075
Mof_C 	C 	0.1723	0.9457	0.88445	0.001
Mof_H 	H 	0.1708	0.9942	0.8912	0.077
Mof_O 	O 	0.372	0.1937	0.7745	-0.255
Mof_C 	C 	0.8653	0.8891	0.4393	-0.023
Mof_C 	C 	0.8694	0.9599	0.4247	0.142
Mof_H 	H 	0.8749	0.0001	0.4393	0.028
Mof_C 	C 	0.8653	0.9687	0.39	-0.034
Mof_C 	C 	0.8632	0.8405	0.38171	0.088
Mof_C 	C 	0.8629	0.8326	0.4187	0.049
Mof_H 	H 	0.8609	0.7864	0.4284	-0.058
Mof_C 	C 	0.6735	0.8933	0.40932	-0.016
Mof_H 	H 	0.6746	0.9061	0.4329	0.076
Mof_S 	S 	0.81956	0.60411	0.45846	0.751
Mof_O 	O 	0.85037	0.82149	0.49403	-0.393
Mof_O 	O 	0.73723	0.57696	0.45864	-0.369
Mof_O 	O 	0.6576	0.70272	0.41945	-0.336
Mof_O 	O 	0.6941	0.78607	0.45721	-0.363
Mof_O 	O 	0.82243	0.67425	0.4743	-0.379
Mof_C 	C 	0.6756	0.7655	0.4274	0.368
Mof_O 	O 	0.8446	0.6122	0.42277	-0.249
Mof_C 	C 	0.6732	0.8215	0.40001	-0.059
Mof_C 	C 	0.6723	0.8043	0.36555	-0.015
Mof_H 	H 	0.6708	0.7558	0.3588	0.073
Mof_O 	O 	0.872	0.5563	0.4755	-0.24
Mof_C 	C 	0.8653	0.3891	0.9393	-0.019
Mof_C 	C 	0.8694	0.4599	0.9247	0.135
Mof_H 	H 	0.8749	0.5001	0.9393	0.067
Mof_C 	C 	0.8653	0.4687	0.89	-0.078
Mof_C 	C 	0.8632	0.3405	0.88171	0.077
Mof_C 	C 	0.8629	0.3326	0.9187	0.066
Mof_H 	H 	0.8609	0.2864	0.9284	-0.06
Mof_C 	C 	0.6735	0.3933	0.90932	-0.013
Mof_H 	H 	0.6746	0.4061	0.9329	0.072
Mof_S 	S 	0.81956	0.10411	0.95846	0.752
Mof_O 	O 	0.85037	0.32149	0.99403	-0.386
Mof_O 	O 	0.73723	0.07696	0.95864	-0.373
Mof_O 	O 	0.6576	0.20272	0.91945	-0.338
Mof_O 	O 	0.6941	0.28607	0.95721	-0.357
Mof_O 	O 	0.82243	0.17425	0.9743	-0.374
Mof_C 	C 	0.6756	0.2655	0.9274	0.368
Mof_O 	O 	0.8446	0.1122	0.92277	-0.254
Mof_C 	C 	0.6732	0.3215	0.90001	-0.064
Mof_C 	C 	0.6723	0.3043	0.86555	-0.01
Mof_H 	H 	0.6708	0.2558	0.8588	0.069
Mof_O 	O 	0.872	0.0563	0.9755	-0.247
Mof_C 	C 	0.3653	0.8891	0.9393	-0.094
Mof_C 	C 	0.3694	0.9599	0.9247	0.12
Mof_H 	H 	0.3749	0.0001	0.9393	0.025
Mof_C 	C 	0.3653	0.9687	0.89	-0.038
Mof_C 	C 	0.3632	0.8405	0.88171	0.021
Mof_C 	C 	0.3629	0.8326	0.9187	0.041
Mof_H 	H 	0.3609	0.7864	0.9284	-0.078
Mof_C 	C 	0.1735	0.8933	0.90932	-0.017
Mof_H 	H 	0.1746	0.9061	0.9329	0.076
Mof_S 	S 	0.31956	0.60411	0.95846	0.752
Mof_O 	O 	0.35037	0.82149	0.99403	-0.386
Mof_O 	O 	0.23723	0.57696	0.95864	-0.367
Mof_O 	O 	0.1576	0.70272	0.91945	-0.339
Mof_O 	O 	0.1941	0.78607	0.95721	-0.357
Mof_O 	O 	0.32243	0.67425	0.9743	-0.376
Mof_C 	C 	0.1756	0.7655	0.9274	0.366
Mof_O 	O 	0.3446	0.6122	0.92277	-0.257
Mof_C 	C 	0.1732	0.8215	0.90001	-0.059
Mof_C 	C 	0.1723	0.8043	0.86555	-0.015
Mof_H 	H 	0.1708	0.7558	0.8588	0.07
Mof_O 	O 	0.372	0.5563	0.9755	-0.248
Mof_C 	C 	0.3653	0.3891	0.4393	-0.093
Mof_C 	C 	0.3694	0.4599	0.4247	0.113
Mof_H 	H 	0.3749	0.5001	0.4393	0.063
Mof_C 	C 	0.3653	0.4687	0.39	-0.083
Mof_C 	C 	0.3632	0.3405	0.38171	0.011
Mof_C 	C 	0.3629	0.3326	0.4187	0.06
Mof_H 	H 	0.3609	0.2864	0.4284	-0.081
Mof_C 	C 	0.1735	0.3933	0.40932	-0.012
Mof_H 	H 	0.1746	0.4061	0.4329	0.068
Mof_S 	S 	0.31956	0.10411	0.45846	0.756
Mof_O 	O 	0.35037	0.32149	0.49403	-0.4
Mof_O 	O 	0.23723	0.07696	0.45864	-0.377
Mof_O 	O 	0.1576	0.20272	0.41945	-0.341
Mof_O 	O 	0.1941	0.28607	0.45721	-0.365
Mof_O 	O 	0.32243	0.17425	0.4743	-0.384
Mof_C 	C 	0.1756	0.2655	0.4274	0.369
Mof_O 	O 	0.3446	0.1122	0.42277	-0.264
Mof_C 	C 	0.1732	0.3215	0.40001	-0.067
Mof_C 	C 	0.1723	0.3043	0.36555	-0.01
Mof_H 	H 	0.1708	0.2558	0.3588	0.066
Mof_O 	O 	0.372	0.0563	0.4755	-0.265
Mof_C 	C 	0.3847	0.3609	0.4393	-0.093
Mof_C 	C 	0.3806	0.2901	0.4247	0.113
Mof_H 	H 	0.3751	0.2499	0.4393	0.062
Mof_C 	C 	0.3847	0.2813	0.39	-0.083
Mof_C 	C 	0.3868	0.4095	0.38171	0.01
Mof_C 	C 	0.3871	0.4174	0.4187	0.06
Mof_H 	H 	0.3891	0.4636	0.4284	-0.081
Mof_C 	C 	0.5765	0.3567	0.40932	-0.011
Mof_H 	H 	0.5754	0.3439	0.4329	0.072
Mof_S 	S 	0.43044	0.64589	0.45846	0.754
Mof_O 	O 	0.39963	0.42851	0.49403	-0.4
Mof_O 	O 	0.51277	0.67304	0.45864	-0.369
Mof_O 	O 	0.5924	0.54728	0.41945	-0.336
Mof_O 	O 	0.5559	0.46393	0.45721	-0.363
Mof_O 	O 	0.42757	0.57575	0.4743	-0.383
Mof_C 	C 	0.5744	0.4845	0.4274	0.37
Mof_O 	O 	0.4054	0.6378	0.42277	-0.257
Mof_C 	C 	0.5768	0.4285	0.40001	-0.061
Mof_C 	C 	0.5777	0.4457	0.36555	-0.008
Mof_H 	H 	0.5792	0.4942	0.3588	0.072
Mof_O 	O 	0.378	0.6937	0.4755	-0.252
Mof_C 	C 	0.3847	0.8609	0.9393	-0.058
Mof_C 	C 	0.3806	0.7901	0.9247	0.116
Mof_H 	H 	0.3751	0.7499	0.9393	0.062
Mof_C 	C 	0.3847	0.7813	0.89	-0.087
Mof_C 	C 	0.3868	0.9095	0.88171	-0.002
Mof_C 	C 	0.3871	0.9174	0.9187	0.025
Mof_H 	H 	0.3891	0.9636	0.9284	-0.046
Mof_C 	C 	0.5765	0.8567	0.90932	-0.002
Mof_H 	H 	0.5754	0.8439	0.9329	0.072
Mof_S 	S 	0.43044	0.14589	0.95846	0.752
Mof_O 	O 	0.39963	0.92851	0.99403	-0.368
Mof_O 	O 	0.51277	0.17304	0.95864	-0.367
Mof_O 	O 	0.5924	0.04728	0.91945	-0.371
Mof_O 	O 	0.5559	0.96393	0.95721	-0.345
Mof_O 	O 	0.42757	0.07575	0.9743	-0.379
Mof_C 	C 	0.5744	0.9845	0.9274	0.412
Mof_O 	O 	0.4054	0.1378	0.92277	-0.261
Mof_C 	C 	0.5768	0.9285	0.90001	-0.069
Mof_C 	C 	0.5777	0.9457	0.86555	0.002
Mof_H 	H 	0.5792	0.9942	0.8588	0.08
Mof_O 	O 	0.378	0.1937	0.9755	-0.252
Mof_C 	C 	0.8847	0.3609	0.9393	-0.157
Mof_C 	C 	0.8806	0.2901	0.9247	0.091
Mof_H 	H 	0.8751	0.2499	0.9393	0.069
Mof_C 	C 	0.8847	0.2813	0.89	-0.078
Mof_C 	C 	0.8868	0.4095	0.88171	-0.055
Mof_C 	C 	0.8871	0.4174	0.9187	0.061
Mof_H 	H 	0.8891	0.4636	0.9284	-0.099
Mof_C 	C 	0.0765	0.3567	0.90932	-0.016
Mof_H 	H 	0.0754	0.3439	0.9329	0.068
Mof_S 	S 	0.93044	0.64589	0.95846	0.808
Mof_O 	O 	0.89963	0.42851	0.99403	-0.372
Mof_O 	O 	0.01277	0.67304	0.95864	-0.408
Mof_O 	O 	0.0924	0.54728	0.91945	-0.342
Mof_O 	O 	0.0559	0.46393	0.95721	-0.358
Mof_O 	O 	0.92757	0.57575	0.9743	-0.363
Mof_C 	C 	0.0744	0.4845	0.9274	0.362
Mof_O 	O 	0.9054	0.6378	0.92277	-0.252
Mof_C 	C 	0.0768	0.4285	0.90001	-0.065
Mof_C 	C 	0.0777	0.4457	0.86555	-0.013
Mof_H 	H 	0.0792	0.4942	0.8588	0.065
Mof_O 	O 	0.878	0.6937	0.9755	-0.247
Mof_C 	C 	0.8847	0.8609	0.4393	-0.126
Mof_C 	C 	0.8806	0.7901	0.4247	0.093
Mof_H 	H 	0.8751	0.7499	0.4393	0.067
Mof_C 	C 	0.8847	0.7813	0.39	-0.082
Mof_C 	C 	0.8868	0.9095	0.38171	-0.065
Mof_C 	C 	0.8871	0.9174	0.4187	0.028
Mof_H 	H 	0.8891	0.9636	0.4284	-0.064
Mof_C 	C 	0.0765	0.8567	0.40932	-0.005
Mof_H 	H 	0.0754	0.8439	0.4329	0.064
Mof_S 	S 	0.93044	0.14589	0.45846	0.81
Mof_O 	O 	0.89963	0.92851	0.49403	-0.36
Mof_O 	O 	0.01277	0.17304	0.45864	-0.412
Mof_O 	O 	0.0924	0.04728	0.41945	-0.377
Mof_O 	O 	0.0559	0.96393	0.45721	-0.354
Mof_O 	O 	0.92757	0.07575	0.4743	-0.373
Mof_C 	C 	0.0744	0.9845	0.4274	0.407
Mof_O 	O 	0.9054	0.1378	0.42277	-0.259
Mof_C 	C 	0.0768	0.9285	0.40001	-0.075
Mof_C 	C 	0.0777	0.9457	0.36555	-0.001
Mof_H 	H 	0.0792	0.9942	0.3588	0.073
Mof_O 	O 	0.878	0.1937	0.4755	-0.257
Mof_Fe	Fe	0.375	0.375	0.20508	0.912
Mof_Fe	Fe	0.375	0.875	0.70508	0.915
Mof_Fe	Fe	0.875	0.375	0.70508	0.917
Mof_Fe	Fe	0.875	0.875	0.20508	0.92
Mof_Fe	Fe	0.375	0.375	0.54492	0.912
Mof_Fe	Fe	0.375	0.875	0.04492	0.908
Mof_Fe	Fe	0.875	0.375	0.04492	0.909
Mof_Fe	Fe	0.875	0.875	0.54492	0.92
Mof_Fe	Fe	0.625	0.625	0.79492	0.913
Mof_Fe	Fe	0.625	0.125	0.29492	0.911
Mof_Fe	Fe	0.125	0.625	0.29492	0.91
Mof_Fe	Fe	0.125	0.125	0.79492	0.908
Mof_Fe	Fe	0.625	0.625	0.45508	0.913
Mof_Fe	Fe	0.625	0.125	0.95508	0.919
Mof_Fe	Fe	0.125	0.625	0.95508	0.918
Mof_Fe	Fe	0.125	0.125	0.45508	0.908
Mof_Fe	Fe	0.5	0.25	0.25	0.958
Mof_Fe	Fe	6.54426e-33	0.25	0.75	0.889
Mof_Fe	Fe	0.25	0.5	0.25	0.958
Mof_Fe	Fe	0.25	-1.64126e-32	0.75	0.907
Mof_Fe	Fe	0.75	-4.10314e-33	0.25	0.906
Mof_Fe	Fe	0.25	0.25	0.5	0.958
Mof_Fe	Fe	0.25	0.75	-0	0.94
Mof_Fe	Fe	0.75	0.25	-0	0.939
Mof_Fe	Fe	0.5	0.5	0.5	0.957
Mof_Fe	Fe	0.5	0	-0	0.889
Mof_Fe	Fe	-0	0.5	-0	0.871
Mof_Fe	Fe	-3.84345e-33	-8.20629e-33	0.5	0.84
Mof_Fe	Fe	0.5	0.75	0.75	0.957
Mof_Fe	Fe	1.03877e-32	0.75	0.25	0.888
Mof_Fe	Fe	0.75	0.5	0.75	0.957
Mof_Fe	Fe	0.75	0.75	0.5	0.956
Mof_C 	C 	0.625	0.125	0.22704	0.402
Mof_C 	C 	0.625	0.625	0.72704	0.395
Mof_C 	C 	0.125	0.625	0.22704	0.388
Mof_C 	C 	0.125	0.125	0.72704	0.395
Mof_C 	C 	0.125	0.125	0.52296	0.395
Mof_C 	C 	0.125	0.625	0.02296	0.387
Mof_C 	C 	0.625	0.625	0.52296	0.395
Mof_C 	C 	0.625	0.125	0.02296	0.402
Mof_C 	C 	0.375	0.875	0.77296	0.382
Mof_C 	C 	0.375	0.375	0.27296	0.395
Mof_C 	C 	0.875	0.375	0.77296	0.394
Mof_C 	C 	0.875	0.875	0.27296	0.382
Mof_C 	C 	0.875	0.875	0.47704	0.382
Mof_C 	C 	0.875	0.375	0.97704	0.392
Mof_C 	C 	0.375	0.375	0.47704	0.395
Mof_C 	C 	0.375	0.875	0.97704	0.379
Mof_H 	H 	0.625	0.985	0.125	0.163
Mof_H 	H 	0.625	0.485	0.625	0.113
Mof_H 	H 	0.125	0.765	0.125	0.111
Mof_H 	H 	0.125	0.265	0.625	0.107
Mof_H 	H 	0.625	0.765	0.625	0.114
Mof_H 	H 	0.125	0.985	0.625	0.159
Mof_H 	H 	0.125	0.485	0.125	0.11
Mof_H 	H 	0.625	0.265	0.125	0.11
Mof_H 	H 	0.375	0.015	0.875	0.064
Mof_H 	H 	0.375	0.515	0.375	0.113
Mof_H 	H 	0.875	0.235	0.875	0.115
Mof_H 	H 	0.875	0.735	0.375	0.119
Mof_H 	H 	0.875	0.015	0.375	0.067
Mof_H 	H 	0.875	0.515	0.875	0.116
Mof_H 	H 	0.375	0.235	0.375	0.112
Mof_H 	H 	0.375	0.735	0.875	0.115
_end
