data_functionalizedCrystal
_audit_creation_method	'EQeq! by Chris Wilmer'
_symmetry_space_group_name_H-M	'P1'
_symmetry_Int_Tables_number	1
_symmetry_cell_setting	triclinic
loop_
_symmetry_equiv_pos_as_xyz
  x,y,z
_cell_length_a	22.9539
_cell_length_b	22.9539
_cell_length_c	22.9539
_cell_angle_alpha	60
_cell_angle_beta	60
_cell_angle_gamma	60
loop_
_atom_site_label
_atom_site_type_symbol
_atom_site_fract_x
_atom_site_fract_y
_atom_site_fract_z
_atom_site_charge
Mof_Ni	Ni	0.8728	0.0424	0.0424	1.056
Mof_Ni	Ni	0.0424	0.8728	0.0424	1.056
Mof_Ni	Ni	0.0424	0.0424	0.8728	1.056
Mof_Ni	Ni	0.0424	0.0424	0.0424	1.055
Mof_Ni	Ni	0.9576	0.1272	0.9576	1.054
Mof_Ni	Ni	0.1272	0.9576	0.9576	1.054
Mof_Ni	Ni	0.9576	0.9576	0.1272	1.054
Mof_Ni	Ni	0.9576	0.9576	0.9576	1.052
Mof_H 	H 	0.90658	0.09342	0.09342	0.21
Mof_H 	H 	0.09342	0.90658	0.90658	0.209
Mof_H 	H 	0.90658	0.09342	0.90658	0.209
Mof_H 	H 	0.09342	0.90658	0.09342	0.21
Mof_H 	H 	0.90658	0.90658	0.09342	0.209
Mof_H 	H 	0.09342	0.09342	0.90658	0.21
Mof_H 	H 	0.51145	0.61341	0.93757	0.052
Mof_H 	H 	0.29441	0.82905	0.93827	0.015
Mof_H 	H 	0.61341	0.51145	0.93757	0.052
Mof_H 	H 	0.82905	0.29441	0.93827	0.015
Mof_H 	H 	0.93757	0.93757	0.51145	0.052
Mof_H 	H 	0.93827	0.93827	0.29441	0.014
Mof_H 	H 	0.93757	0.93757	0.61341	0.052
Mof_H 	H 	0.93827	0.93827	0.82905	0.016
Mof_H 	H 	0.51145	0.93757	0.93757	0.051
Mof_H 	H 	0.29441	0.93827	0.93827	0.014
Mof_H 	H 	0.61341	0.93757	0.93757	0.052
Mof_H 	H 	0.82905	0.93827	0.93827	0.016
Mof_H 	H 	0.93757	0.51145	0.61341	0.051
Mof_H 	H 	0.93827	0.29441	0.82905	0.014
Mof_H 	H 	0.93757	0.61341	0.51145	0.051
Mof_H 	H 	0.93827	0.82905	0.29441	0.014
Mof_H 	H 	0.51145	0.93757	0.61341	0.051
Mof_H 	H 	0.29441	0.93827	0.82905	0.014
Mof_H 	H 	0.61341	0.93757	0.51145	0.051
Mof_H 	H 	0.82905	0.93827	0.29441	0.014
Mof_H 	H 	0.93757	0.61341	0.93757	0.052
Mof_H 	H 	0.93827	0.82905	0.93827	0.016
Mof_H 	H 	0.93757	0.51145	0.93757	0.051
Mof_H 	H 	0.93827	0.29441	0.93827	0.014
Mof_H 	H 	0.38659	0.48855	0.06243	0.052
Mof_H 	H 	0.17095	0.70559	0.06173	0.014
Mof_H 	H 	0.48855	0.38659	0.06243	0.052
Mof_H 	H 	0.70559	0.17095	0.06173	0.014
Mof_H 	H 	0.06243	0.06243	0.48855	0.052
Mof_H 	H 	0.06173	0.06173	0.70559	0.015
Mof_H 	H 	0.06243	0.06243	0.38659	0.052
Mof_H 	H 	0.06173	0.06173	0.17095	0.014
Mof_H 	H 	0.06243	0.48855	0.06243	0.052
Mof_H 	H 	0.06173	0.70559	0.06173	0.015
Mof_H 	H 	0.06243	0.38659	0.06243	0.052
Mof_H 	H 	0.06173	0.17095	0.06173	0.014
Mof_H 	H 	0.48855	0.06243	0.38659	0.052
Mof_H 	H 	0.70559	0.06173	0.17095	0.014
Mof_H 	H 	0.38659	0.06243	0.48855	0.052
Mof_H 	H 	0.17095	0.06173	0.70559	0.014
Mof_H 	H 	0.06243	0.48855	0.38659	0.052
Mof_H 	H 	0.06173	0.70559	0.17095	0.014
Mof_H 	H 	0.06243	0.38659	0.48855	0.052
Mof_H 	H 	0.06173	0.17095	0.70559	0.014
Mof_H 	H 	0.38659	0.06243	0.06243	0.052
Mof_H 	H 	0.17095	0.06173	0.06173	0.014
Mof_H 	H 	0.48855	0.06243	0.06243	0.052
Mof_H 	H 	0.70559	0.06173	0.06173	0.015
Mof_C 	C 	0.43944	0.56056	-0	0.035
Mof_C 	C 	0.3741	0.6259	-0	-0.031
Mof_C 	C 	0.32008	0.67992	-0	0
Mof_C 	C 	0.25472	0.74528	-0	-0.026
Mof_C 	C 	0.56056	0.43944	-0	0.035
Mof_C 	C 	0.6259	0.3741	-0	-0.031
Mof_C 	C 	0.67992	0.32008	-0	0
Mof_C 	C 	0.74528	0.25472	-0	-0.026
Mof_C 	C 	3.9882e-17	0	0.43944	0.036
Mof_C 	C 	-1.3294e-17	-2.6588e-17	0.3741	-0.031
Mof_C 	C 	-3.3235e-17	0	0.32008	0
Mof_C 	C 	-0	-1.3294e-17	0.25472	-0.026
Mof_C 	C 	3.9882e-17	0	0.56056	0.037
Mof_C 	C 	3.9882e-17	-2.6588e-17	0.6259	-0.03
Mof_C 	C 	-2.6588e-17	-2.6588e-17	0.67992	-0.001
Mof_C 	C 	-2.6588e-17	-5.3176e-17	0.74528	-0.02
Mof_C 	C 	0.43944	0	-0	0.036
Mof_C 	C 	0.3741	0	-0	-0.031
Mof_C 	C 	0.32008	0	-0	0
Mof_C 	C 	0.25472	0	-0	-0.026
Mof_C 	C 	0.56056	0	-0	0.037
Mof_C 	C 	0.6259	0	-0	-0.03
Mof_C 	C 	0.67992	0	-0	-0.001
Mof_C 	C 	0.74528	0	-0	-0.02
Mof_C 	C 	1.3294e-17	0.43944	0.56056	0.035
Mof_C 	C 	1.3294e-17	0.3741	0.6259	-0.031
Mof_C 	C 	2.6588e-17	0.32008	0.67992	0
Mof_C 	C 	-2.6588e-17	0.25472	0.74528	-0.026
Mof_C 	C 	3.9882e-17	0.56056	0.43944	0.035
Mof_C 	C 	-1.3294e-17	0.6259	0.3741	-0.031
Mof_C 	C 	6.647e-18	0.67992	0.32008	0
Mof_C 	C 	-6.647e-17	0.74528	0.25472	-0.026
Mof_C 	C 	0.43944	0	0.56056	0.035
Mof_C 	C 	0.3741	-2.6588e-17	0.6259	-0.031
Mof_C 	C 	0.32008	-2.6588e-17	0.67992	0
Mof_C 	C 	0.25472	-5.3176e-17	0.74528	-0.026
Mof_C 	C 	0.56056	0	0.43944	0.035
Mof_C 	C 	0.6259	-2.6588e-17	0.3741	-0.031
Mof_C 	C 	0.67992	0	0.32008	0
Mof_C 	C 	0.74528	-1.3294e-17	0.25472	-0.026
Mof_C 	C 	-0	0.56056	-0	0.037
Mof_C 	C 	-0	0.6259	-0	-0.03
Mof_C 	C 	-0	0.67992	-0	-0.001
Mof_C 	C 	-5.3176e-17	0.74528	-0	-0.02
Mof_C 	C 	2.6588e-17	0.43944	-0	0.036
Mof_C 	C 	-2.6588e-17	0.3741	-0	-0.031
Mof_C 	C 	-2.6588e-17	0.32008	-0	0
Mof_C 	C 	-0	0.25472	-0	-0.026
Mof_C 	C 	0.5068	0.56736	0.96292	-0.06
Mof_C 	C 	0.25379	0.81399	0.96611	0.028
Mof_C 	C 	0.56736	0.5068	0.96292	-0.06
Mof_C 	C 	0.81399	0.25379	0.96611	0.028
Mof_C 	C 	0.96292	0.96292	0.5068	-0.061
Mof_C 	C 	0.96611	0.96611	0.25379	0.027
Mof_C 	C 	0.96292	0.96292	0.56736	-0.063
Mof_C 	C 	0.96611	0.96611	0.81399	0.021
Mof_C 	C 	0.5068	0.96292	0.96292	-0.061
Mof_C 	C 	0.25379	0.96611	0.96611	0.027
Mof_C 	C 	0.56736	0.96292	0.96292	-0.063
Mof_C 	C 	0.81399	0.96611	0.96611	0.021
Mof_C 	C 	0.96292	0.5068	0.56736	-0.06
Mof_C 	C 	0.96611	0.25379	0.81399	0.028
Mof_C 	C 	0.96292	0.56736	0.5068	-0.06
Mof_C 	C 	0.96611	0.81399	0.25379	0.028
Mof_C 	C 	0.5068	0.96292	0.56736	-0.06
Mof_C 	C 	0.25379	0.96611	0.81399	0.028
Mof_C 	C 	0.56736	0.96292	0.5068	-0.06
Mof_C 	C 	0.81399	0.96611	0.25379	0.028
Mof_C 	C 	0.96292	0.56736	0.96292	-0.063
Mof_C 	C 	0.96611	0.81399	0.96611	0.021
Mof_C 	C 	0.96292	0.5068	0.96292	-0.061
Mof_C 	C 	0.96611	0.25379	0.96611	0.027
Mof_C 	C 	0.43264	0.4932	0.03708	-0.058
Mof_C 	C 	0.18601	0.74621	0.03389	0.03
Mof_C 	C 	0.4932	0.43264	0.03708	-0.058
Mof_C 	C 	0.74621	0.18601	0.03389	0.03
Mof_C 	C 	0.03708	0.03708	0.4932	-0.058
Mof_C 	C 	0.03389	0.03389	0.74621	0.028
Mof_C 	C 	0.03708	0.03708	0.43264	-0.058
Mof_C 	C 	0.03389	0.03389	0.18601	0.03
Mof_C 	C 	0.03708	0.4932	0.03708	-0.058
Mof_C 	C 	0.03389	0.74621	0.03389	0.028
Mof_C 	C 	0.03708	0.43264	0.03708	-0.058
Mof_C 	C 	0.03389	0.18601	0.03389	0.03
Mof_C 	C 	0.4932	0.03708	0.43264	-0.058
Mof_C 	C 	0.74621	0.03389	0.18601	0.03
Mof_C 	C 	0.43264	0.03708	0.4932	-0.058
Mof_C 	C 	0.18601	0.03389	0.74621	0.03
Mof_C 	C 	0.03708	0.4932	0.43264	-0.058
Mof_C 	C 	0.03389	0.74621	0.18601	0.03
Mof_C 	C 	0.03708	0.43264	0.4932	-0.058
Mof_C 	C 	0.03389	0.18601	0.74621	0.03
Mof_C 	C 	0.43264	0.03708	0.03708	-0.058
Mof_C 	C 	0.18601	0.03389	0.03389	0.03
Mof_C 	C 	0.4932	0.03708	0.03708	-0.058
Mof_C 	C 	0.74621	0.03389	0.03389	0.028
Mof_N 	N 	0.18451	0.85739	0.97905	-0.223
Mof_N 	N 	0.85739	0.18451	0.97905	-0.223
Mof_N 	N 	0.97905	0.97905	0.18451	-0.223
Mof_N 	N 	0.97905	0.97905	0.85739	-0.224
Mof_N 	N 	0.18451	0.97905	0.97905	-0.223
Mof_N 	N 	0.85739	0.97905	0.97905	-0.224
Mof_N 	N 	0.97905	0.18451	0.85739	-0.223
Mof_N 	N 	0.97905	0.85739	0.18451	-0.223
Mof_N 	N 	0.18451	0.97905	0.85739	-0.223
Mof_N 	N 	0.85739	0.97905	0.18451	-0.223
Mof_N 	N 	0.97905	0.85739	0.97905	-0.224
Mof_N 	N 	0.97905	0.18451	0.97905	-0.223
Mof_N 	N 	0.14261	0.81549	0.02095	-0.222
Mof_N 	N 	0.81549	0.14261	0.02095	-0.222
Mof_N 	N 	0.02095	0.02095	0.81549	-0.22
Mof_N 	N 	0.02095	0.02095	0.14261	-0.222
Mof_N 	N 	0.02095	0.81549	0.02095	-0.22
Mof_N 	N 	0.02095	0.14261	0.02095	-0.222
Mof_N 	N 	0.81549	0.02095	0.14261	-0.222
Mof_N 	N 	0.14261	0.02095	0.81549	-0.222
Mof_N 	N 	0.02095	0.81549	0.14261	-0.222
Mof_N 	N 	0.02095	0.14261	0.81549	-0.222
Mof_N 	N 	0.14261	0.02095	0.02095	-0.222
Mof_N 	N 	0.81549	0.02095	0.02095	-0.22
Mof_O 	O 	0.93584	0.06416	0.06416	-0.824
Mof_O 	O 	0.06416	0.93584	0.93584	-0.825
Mof_O 	O 	0.93584	0.06416	0.93584	-0.825
Mof_O 	O 	0.06416	0.93584	0.06416	-0.824
Mof_O 	O 	0.93584	0.93584	0.06416	-0.825
Mof_O 	O 	0.06416	0.06416	0.93584	-0.824
_end
