data_functionalizedCrystal
_audit_creation_method	'EQeq! by Chris Wilmer'
_symmetry_space_group_name_H-M	'P1'
_symmetry_Int_Tables_number	1
_symmetry_cell_setting	triclinic
loop_
_symmetry_equiv_pos_as_xyz
  x,y,z
_cell_length_a	15.1153
_cell_length_b	14.8786
_cell_length_c	21.8613
_cell_angle_alpha	90
_cell_angle_beta	90.895
_cell_angle_gamma	90
loop_
_atom_site_label
_atom_site_type_symbol
_atom_site_fract_x
_atom_site_fract_y
_atom_site_fract_z
_atom_site_charge
Mof_Zn	Zn	0.27393	0.31487	0.37613	1.199
Mof_Na	Na	0.25283	0.37308	0.51787	2.172
Mof_C 	C 	0.4811	0.2655	0.50509	-0.193
Mof_C 	C 	0.4749	0.26	0.56897	-0.073
Mof_C 	C 	0.5495	0.2753	0.60501	-0.093
Mof_H 	H 	0.5456	0.2709	0.6473	0.064
Mof_C 	C 	0.6288	0.297	0.5794	0.047
Mof_H 	H 	0.6778	0.3084	0.6044	0.007
Mof_C 	C 	0.6362	0.302	0.5169	-0.229
Mof_H 	H 	0.6899	0.3166	0.4993	0.089
Mof_C 	C 	0.5626	0.2849	0.48057	0.223
Mof_C 	C 	0.4044	0.2498	0.46126	0.416
Mof_C 	C 	0.3898	0.2356	0.59998	0.388
Mof_C 	C 	0.6107	0.2275	0.38422	0.181
Mof_C 	C 	0.6362	0.1455	0.40848	-0.109
Mof_H 	H 	0.6253	0.1321	0.4492	0.074
Mof_C 	C 	0.6785	0.0829	0.37134	-0.081
Mof_C 	C 	0.6942	0.104	0.31076	-0.007
Mof_H 	H 	0.7226	0.0624	0.286	0.051
Mof_C 	C 	0.6683	0.1862	0.28642	-0.041
Mof_C 	C 	0.6269	0.2486	0.32379	-0.125
Mof_H 	H 	0.6103	0.3044	0.3082	0.093
Mof_C 	C 	0.708	0.9937	0.39727	0.447
Mof_C 	C 	0.6887	0.2084	0.22065	0.336
Mof_O 	O 	0.3861	0.17284	0.44485	-0.609
Mof_O 	O 	0.36543	0.32183	0.44342	-0.727
Mof_O 	O 	0.31769	0.24174	0.56981	-0.859
Mof_O 	O 	0.3925	0.2095	0.65381	-0.363
Mof_O 	O 	0.56704	0.29337	0.41714	-0.287
Mof_O 	O 	0.74778	0.94266	0.36082	-0.508
Mof_O 	O 	0.6925	0.9763	0.45103	-0.661
Mof_O 	O 	0.7125	0.1484	0.18594	-0.379
Mof_O 	O 	0.68	0.29021	0.20503	-0.449
Mof_Zn	Zn	0.77393	0.81487	0.37613	1.2
Mof_Na	Na	0.75283	0.87308	0.51787	2.172
Mof_C 	C 	0.9811	0.7655	0.50509	-0.192
Mof_C 	C 	0.9749	0.76	0.56897	-0.072
Mof_C 	C 	0.0495	0.7753	0.60501	-0.092
Mof_H 	H 	0.0456	0.7709	0.6473	0.064
Mof_C 	C 	0.1288	0.797	0.5794	0.047
Mof_H 	H 	0.1778	0.8084	0.6044	0.007
Mof_C 	C 	0.1362	0.802	0.5169	-0.23
Mof_H 	H 	0.1899	0.8166	0.4993	0.089
Mof_C 	C 	0.0626	0.7849	0.48057	0.223
Mof_C 	C 	0.9044	0.7498	0.46126	0.416
Mof_C 	C 	0.8898	0.7356	0.59998	0.388
Mof_C 	C 	0.1107	0.7275	0.38422	0.181
Mof_C 	C 	0.1362	0.6455	0.40848	-0.109
Mof_H 	H 	0.1253	0.6321	0.4492	0.074
Mof_C 	C 	0.1785	0.5829	0.37134	-0.079
Mof_C 	C 	0.1942	0.604	0.31076	-0.007
Mof_H 	H 	0.2226	0.5624	0.286	0.052
Mof_C 	C 	0.1683	0.6862	0.28642	-0.04
Mof_C 	C 	0.1269	0.7486	0.32379	-0.125
Mof_H 	H 	0.1103	0.8044	0.3082	0.093
Mof_C 	C 	0.208	0.4937	0.39727	0.446
Mof_C 	C 	0.1887	0.7084	0.22065	0.336
Mof_O 	O 	0.8861	0.67284	0.44485	-0.61
Mof_O 	O 	0.86543	0.82183	0.44342	-0.727
Mof_O 	O 	0.81769	0.74174	0.56981	-0.859
Mof_O 	O 	0.8925	0.7095	0.65381	-0.364
Mof_O 	O 	0.06704	0.79337	0.41714	-0.287
Mof_O 	O 	0.24778	0.44266	0.36082	-0.508
Mof_O 	O 	0.1925	0.4763	0.45103	-0.661
Mof_O 	O 	0.2125	0.6484	0.18594	-0.379
Mof_O 	O 	0.18	0.79021	0.20503	-0.449
Mof_Zn	Zn	0.72607	0.31487	0.12387	1.2
Mof_Na	Na	0.74717	0.37308	0.98213	2.18
Mof_C 	C 	0.5189	0.2655	0.99491	-0.184
Mof_C 	C 	0.5251	0.26	0.93103	-0.076
Mof_C 	C 	0.4505	0.2753	0.89499	-0.085
Mof_H 	H 	0.4544	0.2709	0.8527	0.063
Mof_C 	C 	0.3712	0.297	0.9206	0.039
Mof_H 	H 	0.3222	0.3084	0.8956	0.01
Mof_C 	C 	0.3638	0.302	0.9831	-0.218
Mof_H 	H 	0.3101	0.3166	0.0007	0.084
Mof_C 	C 	0.4374	0.2849	0.01943	0.214
Mof_C 	C 	0.5956	0.2498	0.03874	0.412
Mof_C 	C 	0.6102	0.2356	0.90002	0.39
Mof_C 	C 	0.3893	0.2275	0.11578	0.179
Mof_C 	C 	0.3638	0.1455	0.09152	-0.107
Mof_H 	H 	0.3747	0.1321	0.0508	0.073
Mof_C 	C 	0.3215	0.0829	0.12866	-0.083
Mof_C 	C 	0.3058	0.104	0.18924	-0.005
Mof_H 	H 	0.2774	0.0624	0.214	0.051
Mof_C 	C 	0.3317	0.1862	0.21358	-0.042
Mof_C 	C 	0.3731	0.2486	0.17621	-0.124
Mof_H 	H 	0.3897	0.3044	0.1918	0.092
Mof_C 	C 	0.292	0.9937	0.10273	0.448
Mof_C 	C 	0.3113	0.2084	0.27935	0.337
Mof_O 	O 	0.6139	0.17284	0.05515	-0.608
Mof_O 	O 	0.63457	0.32183	0.05658	-0.727
Mof_O 	O 	0.68231	0.24174	0.93019	-0.86
Mof_O 	O 	0.6075	0.2095	0.84619	-0.364
Mof_O 	O 	0.43296	0.29337	0.08286	-0.285
Mof_O 	O 	0.25222	0.94266	0.13918	-0.508
Mof_O 	O 	0.3075	0.9763	0.04897	-0.658
Mof_O 	O 	0.2875	0.1484	0.31406	-0.379
Mof_O 	O 	0.32	0.29021	0.29497	-0.449
Mof_Zn	Zn	0.22607	0.81487	0.12387	1.2
Mof_Na	Na	0.24717	0.87308	0.98213	2.167
Mof_C 	C 	0.0189	0.7655	0.99491	-0.2
Mof_C 	C 	0.0251	0.76	0.93103	-0.067
Mof_C 	C 	0.9505	0.7753	0.89499	-0.1
Mof_H 	H 	0.9544	0.7709	0.8527	0.067
Mof_C 	C 	0.8712	0.797	0.9206	0.058
Mof_H 	H 	0.8222	0.8084	0.8956	0.003
Mof_C 	C 	0.8638	0.802	0.9831	-0.244
Mof_H 	H 	0.8101	0.8166	0.0007	0.096
Mof_C 	C 	0.9374	0.7849	0.01943	0.234
Mof_C 	C 	0.0956	0.7498	0.03874	0.42
Mof_C 	C 	0.1102	0.7356	0.90002	0.386
Mof_C 	C 	0.8893	0.7275	0.11578	0.182
Mof_C 	C 	0.8638	0.6455	0.09152	-0.11
Mof_H 	H 	0.8747	0.6321	0.0508	0.075
Mof_C 	C 	0.8215	0.5829	0.12866	-0.079
Mof_C 	C 	0.8058	0.604	0.18924	-0.008
Mof_H 	H 	0.7774	0.5624	0.214	0.052
Mof_C 	C 	0.8317	0.6862	0.21358	-0.04
Mof_C 	C 	0.8731	0.7486	0.17621	-0.126
Mof_H 	H 	0.8897	0.8044	0.1918	0.093
Mof_C 	C 	0.792	0.4937	0.10273	0.446
Mof_C 	C 	0.8113	0.7084	0.27935	0.336
Mof_O 	O 	0.1139	0.67284	0.05515	-0.611
Mof_O 	O 	0.13457	0.82183	0.05658	-0.726
Mof_O 	O 	0.18231	0.74174	0.93019	-0.859
Mof_O 	O 	0.1075	0.7095	0.84619	-0.364
Mof_O 	O 	0.93296	0.79337	0.08286	-0.29
Mof_O 	O 	0.75222	0.44266	0.13918	-0.508
Mof_O 	O 	0.8075	0.4763	0.04897	-0.661
Mof_O 	O 	0.7875	0.6484	0.31406	-0.379
Mof_O 	O 	0.82	0.79021	0.29497	-0.448
Mof_Zn	Zn	0.72607	0.68513	0.62387	1.2
Mof_Na	Na	0.74717	0.62692	0.48213	2.173
Mof_C 	C 	0.5189	0.7345	0.49491	-0.192
Mof_C 	C 	0.5251	0.74	0.43103	-0.072
Mof_C 	C 	0.4505	0.7247	0.39499	-0.092
Mof_H 	H 	0.4544	0.7291	0.3527	0.065
Mof_C 	C 	0.3712	0.703	0.4206	0.047
Mof_H 	H 	0.3222	0.6916	0.3956	0.007
Mof_C 	C 	0.3638	0.698	0.4831	-0.229
Mof_H 	H 	0.3101	0.6834	0.5007	0.089
Mof_C 	C 	0.4374	0.7151	0.51943	0.223
Mof_C 	C 	0.5956	0.7502	0.53874	0.416
Mof_C 	C 	0.6102	0.7644	0.40002	0.388
Mof_C 	C 	0.3893	0.7725	0.61578	0.181
Mof_C 	C 	0.3638	0.8545	0.59152	-0.109
Mof_H 	H 	0.3747	0.8679	0.5508	0.074
Mof_C 	C 	0.3215	0.9171	0.62866	-0.081
Mof_C 	C 	0.3058	0.896	0.68924	-0.007
Mof_H 	H 	0.2774	0.9376	0.714	0.051
Mof_C 	C 	0.3317	0.8138	0.71358	-0.041
Mof_C 	C 	0.3731	0.7514	0.67621	-0.125
Mof_H 	H 	0.3897	0.6956	0.6918	0.093
Mof_C 	C 	0.292	0.0063	0.60273	0.447
Mof_C 	C 	0.3113	0.7916	0.77935	0.336
Mof_O 	O 	0.6139	0.82716	0.55515	-0.609
Mof_O 	O 	0.63457	0.67817	0.55658	-0.727
Mof_O 	O 	0.68231	0.75826	0.43019	-0.859
Mof_O 	O 	0.6075	0.7905	0.34619	-0.363
Mof_O 	O 	0.43296	0.70663	0.58286	-0.287
Mof_O 	O 	0.25222	0.05734	0.63918	-0.508
Mof_O 	O 	0.3075	0.0237	0.54897	-0.661
Mof_O 	O 	0.2875	0.8516	0.81406	-0.379
Mof_O 	O 	0.32	0.70979	0.79497	-0.449
Mof_Zn	Zn	0.22607	0.18513	0.62387	1.2
Mof_Na	Na	0.24717	0.12692	0.48213	2.172
Mof_C 	C 	0.0189	0.2345	0.49491	-0.192
Mof_C 	C 	0.0251	0.24	0.43103	-0.072
Mof_C 	C 	0.9505	0.2247	0.39499	-0.092
Mof_H 	H 	0.9544	0.2291	0.3527	0.064
Mof_C 	C 	0.8712	0.203	0.4206	0.047
Mof_H 	H 	0.8222	0.1916	0.3956	0.007
Mof_C 	C 	0.8638	0.198	0.4831	-0.23
Mof_H 	H 	0.8101	0.1834	0.5007	0.089
Mof_C 	C 	0.9374	0.2151	0.51943	0.223
Mof_C 	C 	0.0956	0.2502	0.53874	0.416
Mof_C 	C 	0.1102	0.2644	0.40002	0.388
Mof_C 	C 	0.8893	0.2725	0.61578	0.181
Mof_C 	C 	0.8638	0.3545	0.59152	-0.109
Mof_H 	H 	0.8747	0.3679	0.5508	0.074
Mof_C 	C 	0.8215	0.4171	0.62866	-0.079
Mof_C 	C 	0.8058	0.396	0.68924	-0.007
Mof_H 	H 	0.7774	0.4376	0.714	0.052
Mof_C 	C 	0.8317	0.3138	0.71358	-0.04
Mof_C 	C 	0.8731	0.2514	0.67621	-0.125
Mof_H 	H 	0.8897	0.1956	0.6918	0.093
Mof_C 	C 	0.792	0.5063	0.60273	0.446
Mof_C 	C 	0.8113	0.2916	0.77935	0.336
Mof_O 	O 	0.1139	0.32716	0.55515	-0.61
Mof_O 	O 	0.13457	0.17817	0.55658	-0.727
Mof_O 	O 	0.18231	0.25826	0.43019	-0.859
Mof_O 	O 	0.1075	0.2905	0.34619	-0.364
Mof_O 	O 	0.93296	0.20663	0.58286	-0.287
Mof_O 	O 	0.75222	0.55734	0.63918	-0.508
Mof_O 	O 	0.8075	0.5237	0.54897	-0.661
Mof_O 	O 	0.7875	0.3516	0.81406	-0.379
Mof_O 	O 	0.82	0.20979	0.79497	-0.449
Mof_Zn	Zn	0.27393	0.68513	0.87613	1.2
Mof_Na	Na	0.25283	0.62692	0.01787	2.18
Mof_C 	C 	0.4811	0.7345	0.00509	-0.184
Mof_C 	C 	0.4749	0.74	0.06897	-0.076
Mof_C 	C 	0.5495	0.7247	0.10501	-0.085
Mof_H 	H 	0.5456	0.7291	0.1473	0.063
Mof_C 	C 	0.6288	0.703	0.0794	0.039
Mof_H 	H 	0.6778	0.6916	0.1044	0.01
Mof_C 	C 	0.6362	0.698	0.0169	-0.218
Mof_H 	H 	0.6899	0.6834	0.9993	0.084
Mof_C 	C 	0.5626	0.7151	0.98057	0.214
Mof_C 	C 	0.4044	0.7502	0.96126	0.412
Mof_C 	C 	0.3898	0.7644	0.09998	0.39
Mof_C 	C 	0.6107	0.7725	0.88422	0.179
Mof_C 	C 	0.6362	0.8545	0.90848	-0.107
Mof_H 	H 	0.6253	0.8679	0.9492	0.073
Mof_C 	C 	0.6785	0.9171	0.87134	-0.083
Mof_C 	C 	0.6942	0.896	0.81076	-0.005
Mof_H 	H 	0.7226	0.9376	0.786	0.051
Mof_C 	C 	0.6683	0.8138	0.78642	-0.042
Mof_C 	C 	0.6269	0.7514	0.82379	-0.124
Mof_H 	H 	0.6103	0.6956	0.8082	0.092
Mof_C 	C 	0.708	0.0063	0.89727	0.448
Mof_C 	C 	0.6887	0.7916	0.72065	0.337
Mof_O 	O 	0.3861	0.82716	0.94485	-0.608
Mof_O 	O 	0.36543	0.67817	0.94342	-0.727
Mof_O 	O 	0.31769	0.75826	0.06981	-0.86
Mof_O 	O 	0.3925	0.7905	0.15381	-0.364
Mof_O 	O 	0.56704	0.70663	0.91714	-0.285
Mof_O 	O 	0.74778	0.05734	0.86082	-0.508
Mof_O 	O 	0.6925	0.0237	0.95103	-0.658
Mof_O 	O 	0.7125	0.8516	0.68594	-0.379
Mof_O 	O 	0.68	0.70979	0.70503	-0.449
Mof_Zn	Zn	0.77393	0.18513	0.87613	1.2
Mof_Na	Na	0.75283	0.12692	0.01787	2.167
Mof_C 	C 	0.9811	0.2345	0.00509	-0.2
Mof_C 	C 	0.9749	0.24	0.06897	-0.067
Mof_C 	C 	0.0495	0.2247	0.10501	-0.1
Mof_H 	H 	0.0456	0.2291	0.1473	0.067
Mof_C 	C 	0.1288	0.203	0.0794	0.058
Mof_H 	H 	0.1778	0.1916	0.1044	0.003
Mof_C 	C 	0.1362	0.198	0.0169	-0.244
Mof_H 	H 	0.1899	0.1834	0.9993	0.096
Mof_C 	C 	0.0626	0.2151	0.98057	0.234
Mof_C 	C 	0.9044	0.2502	0.96126	0.42
Mof_C 	C 	0.8898	0.2644	0.09998	0.386
Mof_C 	C 	0.1107	0.2725	0.88422	0.182
Mof_C 	C 	0.1362	0.3545	0.90848	-0.11
Mof_H 	H 	0.1253	0.3679	0.9492	0.075
Mof_C 	C 	0.1785	0.4171	0.87134	-0.079
Mof_C 	C 	0.1942	0.396	0.81076	-0.008
Mof_H 	H 	0.2226	0.4376	0.786	0.052
Mof_C 	C 	0.1683	0.3138	0.78642	-0.04
Mof_C 	C 	0.1269	0.2514	0.82379	-0.126
Mof_H 	H 	0.1103	0.1956	0.8082	0.093
Mof_C 	C 	0.208	0.5063	0.89727	0.446
Mof_C 	C 	0.1887	0.2916	0.72065	0.336
Mof_O 	O 	0.8861	0.32716	0.94485	-0.611
Mof_O 	O 	0.86543	0.17817	0.94342	-0.726
Mof_O 	O 	0.81769	0.25826	0.06981	-0.859
Mof_O 	O 	0.8925	0.2905	0.15381	-0.364
Mof_O 	O 	0.06704	0.20663	0.91714	-0.29
Mof_O 	O 	0.24778	0.55734	0.86082	-0.508
Mof_O 	O 	0.1925	0.5237	0.95103	-0.661
Mof_O 	O 	0.2125	0.3516	0.68594	-0.379
Mof_O 	O 	0.18	0.20979	0.70503	-0.448
_end
