data_functionalizedCrystal
_audit_creation_method	'EQeq! by Chris Wilmer'
_symmetry_space_group_name_H-M	'P1'
_symmetry_Int_Tables_number	1
_symmetry_cell_setting	triclinic
loop_
_symmetry_equiv_pos_as_xyz
  x,y,z
_cell_length_a	10.0802
_cell_length_b	17.451
_cell_length_c	11.5185
_cell_angle_alpha	90
_cell_angle_beta	99.781
_cell_angle_gamma	90
loop_
_atom_site_label
_atom_site_type_symbol
_atom_site_fract_x
_atom_site_fract_y
_atom_site_fract_z
_atom_site_charge
Mof_C 	C 	0.3487	0.0783	0.175	0.297
Mof_C 	C 	0.8495	0.1338	0.2063	0.279
Mof_C 	C 	0.5979	0.1083	0.1897	-0.036
Mof_H 	H 	0.6091	0.061	0.1519	0.076
Mof_C 	C 	0.4704	0.129	0.2115	-0.03
Mof_C 	C 	0.709	0.156	0.2226	-0.016
Mof_C 	C 	0.4538	0.1984	0.2686	-0.102
Mof_H 	H 	0.3687	0.2123	0.2869	0.075
Mof_C 	C 	0.6916	0.2267	0.2759	-0.103
Mof_H 	H 	0.7657	0.2605	0.2966	0.086
Mof_C 	C 	0.5652	0.2467	0.2981	0.107
Mof_C 	C 	0.6483	0.2648	0.5581	-0.685
Mof_H 	H 	0.7433	0.2618	0.5498	0.235
Mof_H 	H 	0.6045	0.2154	0.5363	0.237
Mof_H 	H 	0.6416	0.2768	0.64	0.242
Mof_C 	C 	0.5807	0.3258	0.4794	0.29
Mof_C 	C 	0.4928	0.3862	0.3162	0.095
Mof_C 	C 	0.4442	0.4109	0.1953	0.013
Mof_C 	C 	0.4389	0.3671	0.0926	-0
Mof_H 	H 	0.4748	0.3166	0.0986	0.04
Mof_C 	C 	0.3343	0.4653	0.9815	0.004
Mof_H 	H 	0.2908	0.4852	0.908	0.048
Mof_C 	C 	0.3434	0.5112	0.0813	0.019
Mof_H 	H 	0.309	0.5619	0.074	0.032
Mof_N 	N 	0.5473	0.3173	0.3595	-0.181
Mof_N 	N 	0.5467	0.3965	0.5082	-0.216
Mof_N 	N 	0.4902	0.4339	0.4049	-0.163
Mof_N 	N 	0.3996	0.485	0.1874	-0.185
Mof_N 	N 	0.3844	0.3945	0.9852	-0.102
Mof_O 	O 	0.3518	0.027	0.0982	-0.257
Mof_O 	O 	0.2442	0.096	0.2152	-0.39
Mof_O 	O 	0.8687	0.06345	0.182	-0.341
Mof_O 	O 	0.9395	0.1843	0.2161	-0.283
Mof_Cu	Cu	0.43189	0.55	0.33726	0.911
Mof_C 	C 	0.1513	0.5783	0.325	0.298
Mof_C 	C 	0.6505	0.6338	0.2937	0.28
Mof_C 	C 	0.9021	0.6083	0.3103	-0.036
Mof_H 	H 	0.8909	0.561	0.3481	0.077
Mof_C 	C 	0.0296	0.629	0.2885	-0.029
Mof_C 	C 	0.791	0.656	0.2774	-0.016
Mof_C 	C 	0.0462	0.6984	0.2314	-0.099
Mof_H 	H 	0.1313	0.7123	0.2131	0.076
Mof_C 	C 	0.8084	0.7267	0.2241	-0.102
Mof_H 	H 	0.7343	0.7605	0.2034	0.085
Mof_C 	C 	0.9348	0.7467	0.2019	0.105
Mof_C 	C 	0.8517	0.7648	0.9419	-0.684
Mof_H 	H 	0.7567	0.7618	0.9502	0.235
Mof_H 	H 	0.8955	0.7154	0.9637	0.237
Mof_H 	H 	0.8584	0.7768	0.86	0.241
Mof_C 	C 	0.9193	0.8258	0.0206	0.29
Mof_C 	C 	0.0072	0.8862	0.1838	0.097
Mof_C 	C 	0.0558	0.9109	0.3047	0.013
Mof_C 	C 	0.0611	0.8671	0.4074	0.001
Mof_H 	H 	0.0252	0.8166	0.4014	0.04
Mof_C 	C 	0.1657	0.9653	0.5185	0.01
Mof_H 	H 	0.2092	0.9852	0.592	0.046
Mof_C 	C 	0.1566	0.0112	0.4187	0.01
Mof_H 	H 	0.191	0.0619	0.426	0.034
Mof_N 	N 	0.9527	0.8173	0.1405	-0.182
Mof_N 	N 	0.9533	0.8965	0.9918	-0.218
Mof_N 	N 	0.0098	0.9339	0.0951	-0.162
Mof_N 	N 	0.1004	0.985	0.3126	-0.182
Mof_N 	N 	0.1156	0.8945	0.5148	-0.102
Mof_O 	O 	0.1482	0.527	0.4018	-0.256
Mof_O 	O 	0.2558	0.596	0.2848	-0.39
Mof_O 	O 	0.6313	0.56345	0.318	-0.342
Mof_O 	O 	0.5605	0.6843	0.2839	-0.284
Mof_Cu	Cu	0.06811	0.05	0.16274	0.909
Mof_C 	C 	0.6513	0.9217	0.825	0.298
Mof_C 	C 	0.1505	0.8662	0.7937	0.28
Mof_C 	C 	0.4021	0.8917	0.8103	-0.035
Mof_H 	H 	0.3909	0.939	0.8481	0.077
Mof_C 	C 	0.5296	0.871	0.7885	-0.029
Mof_C 	C 	0.291	0.844	0.7774	-0.015
Mof_C 	C 	0.5462	0.8016	0.7314	-0.101
Mof_H 	H 	0.6313	0.7877	0.7131	0.076
Mof_C 	C 	0.3084	0.7733	0.7241	-0.103
Mof_H 	H 	0.2343	0.7395	0.7034	0.086
Mof_C 	C 	0.4348	0.7533	0.7019	0.107
Mof_C 	C 	0.3517	0.7352	0.4419	-0.685
Mof_H 	H 	0.2567	0.7382	0.4502	0.235
Mof_H 	H 	0.3955	0.7846	0.4637	0.237
Mof_H 	H 	0.3584	0.7232	0.36	0.242
Mof_C 	C 	0.4193	0.6742	0.5206	0.29
Mof_C 	C 	0.5072	0.6138	0.6838	0.095
Mof_C 	C 	0.5558	0.5891	0.8047	0.013
Mof_C 	C 	0.5611	0.6329	0.9074	-0
Mof_H 	H 	0.5252	0.6834	0.9014	0.04
Mof_C 	C 	0.6657	0.5347	0.0185	0.004
Mof_H 	H 	0.7092	0.5148	0.092	0.048
Mof_C 	C 	0.6566	0.4888	0.9187	0.019
Mof_H 	H 	0.691	0.4381	0.926	0.032
Mof_N 	N 	0.4527	0.6827	0.6405	-0.181
Mof_N 	N 	0.4533	0.6035	0.4918	-0.216
Mof_N 	N 	0.5098	0.5661	0.5951	-0.163
Mof_N 	N 	0.6004	0.515	0.8126	-0.185
Mof_N 	N 	0.6156	0.6055	0.0148	-0.102
Mof_O 	O 	0.6482	0.973	0.9018	-0.257
Mof_O 	O 	0.7558	0.904	0.7848	-0.39
Mof_O 	O 	0.1313	0.93655	0.818	-0.341
Mof_O 	O 	0.0605	0.8157	0.7839	-0.283
Mof_Cu	Cu	0.56811	0.45	0.66274	0.911
Mof_C 	C 	0.8487	0.4217	0.675	0.298
Mof_C 	C 	0.3495	0.3662	0.7063	0.28
Mof_C 	C 	0.0979	0.3917	0.6897	-0.036
Mof_H 	H 	0.1091	0.439	0.6519	0.077
Mof_C 	C 	0.9704	0.371	0.7115	-0.029
Mof_C 	C 	0.209	0.344	0.7226	-0.016
Mof_C 	C 	0.9538	0.3016	0.7686	-0.099
Mof_H 	H 	0.8687	0.2877	0.7869	0.076
Mof_C 	C 	0.1916	0.2733	0.7759	-0.102
Mof_H 	H 	0.2657	0.2395	0.7966	0.085
Mof_C 	C 	0.0652	0.2533	0.7981	0.105
Mof_C 	C 	0.1483	0.2352	0.0581	-0.684
Mof_H 	H 	0.2433	0.2382	0.0498	0.235
Mof_H 	H 	0.1045	0.2846	0.0363	0.237
Mof_H 	H 	0.1416	0.2232	0.14	0.241
Mof_C 	C 	0.0807	0.1742	0.9794	0.29
Mof_C 	C 	0.9928	0.1138	0.8162	0.097
Mof_C 	C 	0.9442	0.0891	0.6953	0.013
Mof_C 	C 	0.9389	0.1329	0.5926	0.001
Mof_H 	H 	0.9748	0.1834	0.5986	0.04
Mof_C 	C 	0.8343	0.0347	0.4815	0.01
Mof_H 	H 	0.7908	0.0148	0.408	0.046
Mof_C 	C 	0.8434	0.9888	0.5813	0.01
Mof_H 	H 	0.809	0.9381	0.574	0.034
Mof_N 	N 	0.0473	0.1827	0.8595	-0.182
Mof_N 	N 	0.0467	0.1035	0.0082	-0.218
Mof_N 	N 	0.9902	0.0661	0.9049	-0.162
Mof_N 	N 	0.8996	0.015	0.6874	-0.182
Mof_N 	N 	0.8844	0.1055	0.4852	-0.102
Mof_O 	O 	0.8518	0.473	0.5982	-0.256
Mof_O 	O 	0.7442	0.404	0.7152	-0.39
Mof_O 	O 	0.3687	0.43655	0.682	-0.342
Mof_O 	O 	0.4395	0.3157	0.7161	-0.284
Mof_Cu	Cu	0.93189	0.95	0.83726	0.909
_end
