# CIF file generated by openbabel 3.1.0, see https://openbabel.org
data_I
_chemical_name_common 'image0'
_cell_length_a 16.7153
_cell_length_b 8.4558
_cell_length_c 35.4943
_cell_angle_alpha 90
_cell_angle_beta 90
_cell_angle_gamma 90
_space_group_name_H-M_alt 'P 1'
_space_group_name_Hall 'P 1'
loop_
    _symmetry_equiv_pos_as_xyz
    x,y,z
loop_
    _atom_site_label
    _atom_site_type_symbol
    _atom_site_fract_x
    _atom_site_fract_y
    _atom_site_fract_z
    _atom_site_occupancy
    Zn1      Zn       0.47803    0.61268    0.94979    1.000
    O1       O        0.51691    0.39760    0.96473    1.000
    O2       O        0.59506    0.31330    0.01118    1.000
    O3       O        0.92988    0.23140    0.93130    1.000
    O4       O        0.57822    0.53130    0.59456    1.000
    O5       O        0.87501    0.18300    0.98703    1.000
    O6       O        0.62617    0.77250    0.60239    1.000
    C1       C        0.72626    0.28810    0.96352    1.000
    C2       C        0.79134    0.28390    0.93921    1.000
    C3       C        0.78100    0.32640    0.90157    1.000
    C4       C        0.70611    0.37070    0.88782    1.000
    C5       C        0.64159    0.37320    0.91243    1.000
    C6       C        0.65145    0.33450    0.95036    1.000
    C7       C        0.69555    0.41450    0.84745    1.000
    C8       C        0.75412    0.49710    0.82788    1.000
    C9       C        0.74445    0.53510    0.79003    1.000
    C10      C        0.67584    0.48900    0.77046    1.000
    C11      C        0.61651    0.40830    0.79039    1.000
    C12      C        0.62594    0.37160    0.82815    1.000
    C13      C        0.66476    0.52590    0.72989    1.000
    C14      C        0.68990    0.66770    0.71413    1.000
    C15      C        0.67610    0.70130    0.67634    1.000
    C16      C        0.63667    0.59270    0.65344    1.000
    C17      C        0.61323    0.44920    0.66852    1.000
    C18      C        0.62724    0.41640    0.70638    1.000
    C19      C        0.87049    0.23000    0.95431    1.000
    C20      C        0.58320    0.35060    0.97718    1.000
    C21      C        0.61372    0.63930    0.61383    1.000
    H1       H        0.73300    0.26300    0.98890    1.000
    H2       H        0.82580    0.31190    0.88560    1.000
    H3       H        0.59110    0.40070    0.90480    1.000
    H4       H        0.80420    0.53820    0.84040    1.000
    H5       H        0.78800    0.58340    0.77650    1.000
    H6       H        0.56840    0.37560    0.77890    1.000
    H7       H        0.58450    0.32330    0.84300    1.000
    H8       H        0.71500    0.74820    0.72880    1.000
    H9       H        0.69030    0.80170    0.66680    1.000
    H10      H        0.59050    0.37500    0.65480    1.000
    H11      H        0.61190    0.31990    0.71690    1.000
    Zn2      Zn       0.02197    0.88732    0.44979    1.000
    O7       O        0.98309    0.10240    0.46473    1.000
    O8       O        0.90494    0.18670    0.51118    1.000
    O9       O        0.57012    0.26860    0.43130    1.000
    O10      O        0.92178    0.96870    0.09456    1.000
    O11      O        0.62499    0.31700    0.48703    1.000
    O12      O        0.87383    0.72750    0.10239    1.000
    C22      C        0.77374    0.21190    0.46352    1.000
    C23      C        0.70866    0.21610    0.43921    1.000
    C24      C        0.71900    0.17360    0.40157    1.000
    C25      C        0.79389    0.12930    0.38782    1.000
    C26      C        0.85841    0.12680    0.41243    1.000
    C27      C        0.84855    0.16550    0.45036    1.000
    C28      C        0.80445    0.08550    0.34745    1.000
    C29      C        0.74588    0.00290    0.32788    1.000
    C30      C        0.75555    0.96490    0.29003    1.000
    C31      C        0.82416    0.01100    0.27046    1.000
    C32      C        0.88349    0.09170    0.29039    1.000
    C33      C        0.87406    0.12840    0.32815    1.000
    C34      C        0.83524    0.97410    0.22989    1.000
    C35      C        0.81010    0.83230    0.21413    1.000
    C36      C        0.82390    0.79870    0.17634    1.000
    C37      C        0.86333    0.90730    0.15344    1.000
    C38      C        0.88677    0.05080    0.16852    1.000
    C39      C        0.87276    0.08360    0.20638    1.000
    C40      C        0.62951    0.27000    0.45431    1.000
    C41      C        0.91680    0.14940    0.47718    1.000
    C42      C        0.88628    0.86070    0.11383    1.000
    H12      H        0.76700    0.23700    0.48890    1.000
    H13      H        0.67420    0.18810    0.38560    1.000
    H14      H        0.90890    0.09930    0.40480    1.000
    H15      H        0.69580    0.96180    0.34040    1.000
    H16      H        0.71200    0.91660    0.27650    1.000
    H17      H        0.93160    0.12440    0.27890    1.000
    H18      H        0.91550    0.17670    0.34300    1.000
    H19      H        0.78500    0.75180    0.22880    1.000
    H20      H        0.80970    0.69830    0.16680    1.000
    H21      H        0.90950    0.12500    0.15480    1.000
    H22      H        0.88810    0.18010    0.21690    1.000
    Zn3      Zn       0.52197    0.61268    0.55021    1.000
    O13      O        0.48309    0.39760    0.53527    1.000
    O14      O        0.40494    0.31330    0.48882    1.000
    O15      O        0.07012    0.23140    0.56870    1.000
    O16      O        0.42178    0.53130    0.90544    1.000
    O17      O        0.12499    0.18300    0.51297    1.000
    O18      O        0.37383    0.77250    0.89761    1.000
    C43      C        0.27374    0.28810    0.53648    1.000
    C44      C        0.20866    0.28390    0.56079    1.000
    C45      C        0.21900    0.32640    0.59843    1.000
    C46      C        0.29389    0.37070    0.61218    1.000
    C47      C        0.35841    0.37320    0.58757    1.000
    C48      C        0.34855    0.33450    0.54964    1.000
    C49      C        0.30445    0.41450    0.65255    1.000
    C50      C        0.24588    0.49710    0.67212    1.000
    C51      C        0.25555    0.53510    0.70997    1.000
    C52      C        0.32416    0.48900    0.72954    1.000
    C53      C        0.38349    0.40830    0.70961    1.000
    C54      C        0.37406    0.37160    0.67185    1.000
    C55      C        0.33524    0.52590    0.77011    1.000
    C56      C        0.31010    0.66770    0.78587    1.000
    C57      C        0.32390    0.70130    0.82366    1.000
    C58      C        0.36333    0.59270    0.84656    1.000
    C59      C        0.38677    0.44920    0.83148    1.000
    C60      C        0.37276    0.41640    0.79362    1.000
    C61      C        0.12951    0.23000    0.54569    1.000
    C62      C        0.41680    0.35060    0.52282    1.000
    C63      C        0.38628    0.63930    0.88617    1.000
    H23      H        0.26700    0.26300    0.51110    1.000
    H24      H        0.17420    0.31190    0.61440    1.000
    H25      H        0.40890    0.40070    0.59520    1.000
    H26      H        0.19580    0.53820    0.65960    1.000
    H27      H        0.21200    0.58340    0.72350    1.000
    H28      H        0.43160    0.37560    0.72110    1.000
    H29      H        0.41550    0.32330    0.65700    1.000
    H30      H        0.28500    0.74820    0.77120    1.000
    H31      H        0.30970    0.80170    0.83320    1.000
    H32      H        0.40950    0.37500    0.84520    1.000
    H33      H        0.38810    0.31990    0.78310    1.000
    Zn4      Zn       0.97803    0.88732    0.05022    1.000
    O19      O        0.01691    0.10240    0.03527    1.000
    O20      O        0.09506    0.18670    0.98882    1.000
    O21      O        0.42988    0.26860    0.06870    1.000
    O22      O        0.07822    0.96870    0.40544    1.000
    O23      O        0.37501    0.31700    0.01297    1.000
    O24      O        0.12617    0.72750    0.39761    1.000
    C64      C        0.22626    0.21190    0.03648    1.000
    C65      C        0.29134    0.21610    0.06079    1.000
    C66      C        0.28100    0.17360    0.09843    1.000
    C67      C        0.20611    0.12930    0.11218    1.000
    C68      C        0.14159    0.12680    0.08757    1.000
    C69      C        0.15145    0.16550    0.04964    1.000
    C70      C        0.19555    0.08550    0.15255    1.000
    C71      C        0.25412    0.00290    0.17212    1.000
    C72      C        0.24445    0.96490    0.20997    1.000
    C73      C        0.17584    0.01100    0.22954    1.000
    C74      C        0.11651    0.09170    0.20961    1.000
    C75      C        0.12594    0.12840    0.17185    1.000
    C76      C        0.16476    0.97410    0.27011    1.000
    C77      C        0.18990    0.83230    0.28587    1.000
    C78      C        0.17610    0.79870    0.32366    1.000
    C79      C        0.13667    0.90730    0.34656    1.000
    C80      C        0.11323    0.05080    0.33148    1.000
    C81      C        0.12724    0.08360    0.29362    1.000
    C82      C        0.37049    0.27000    0.04569    1.000
    C83      C        0.08320    0.14940    0.02282    1.000
    C84      C        0.11372    0.86070    0.38617    1.000
    H34      H        0.23300    0.23700    0.01110    1.000
    H35      H        0.32580    0.18810    0.11440    1.000
    H36      H        0.09110    0.09930    0.09520    1.000
    H37      H        0.30420    0.96180    0.15960    1.000
    H38      H        0.28800    0.91660    0.22350    1.000
    H39      H        0.06840    0.12440    0.22110    1.000
    H40      H        0.08450    0.17670    0.15700    1.000
    H41      H        0.21500    0.75180    0.27120    1.000
    H42      H        0.19030    0.69830    0.33320    1.000
    H43      H        0.09050    0.12500    0.34520    1.000
    H44      H        0.11190    0.18010    0.28310    1.000
    Zn5      Zn       0.52197    0.38732    0.05022    1.000
    O25      O        0.48309    0.60240    0.03527    1.000
    O26      O        0.40494    0.68670    0.98882    1.000
    O27      O        0.07012    0.76860    0.06870    1.000
    O28      O        0.42178    0.46870    0.40544    1.000
    O29      O        0.12499    0.81700    0.01297    1.000
    O30      O        0.37383    0.22750    0.39761    1.000
    C85      C        0.27374    0.71190    0.03648    1.000
    C86      C        0.20866    0.71610    0.06079    1.000
    C87      C        0.21900    0.67360    0.09843    1.000
    C88      C        0.29389    0.62930    0.11218    1.000
    C89      C        0.35841    0.62680    0.08757    1.000
    C90      C        0.34855    0.66550    0.04964    1.000
    C91      C        0.30445    0.58550    0.15255    1.000
    C92      C        0.24588    0.50290    0.17212    1.000
    C93      C        0.25555    0.46490    0.20997    1.000
    C94      C        0.32416    0.51100    0.22954    1.000
    C95      C        0.38349    0.59170    0.20961    1.000
    C96      C        0.37406    0.62840    0.17185    1.000
    C97      C        0.33524    0.47410    0.27011    1.000
    C98      C        0.31010    0.33230    0.28587    1.000
    C99      C        0.32390    0.29870    0.32366    1.000
    C100     C        0.36333    0.40730    0.34656    1.000
    C101     C        0.38677    0.55080    0.33148    1.000
    C102     C        0.37276    0.58360    0.29362    1.000
    C103     C        0.12951    0.77000    0.04569    1.000
    C104     C        0.41680    0.64940    0.02282    1.000
    C105     C        0.38628    0.36070    0.38617    1.000
    H45      H        0.26700    0.73700    0.01110    1.000
    H46      H        0.17420    0.68810    0.11440    1.000
    H47      H        0.40890    0.59930    0.09520    1.000
    H48      H        0.19580    0.46180    0.15960    1.000
    H49      H        0.21200    0.41660    0.22350    1.000
    H50      H        0.43160    0.62440    0.22110    1.000
    H51      H        0.41550    0.67670    0.15700    1.000
    H52      H        0.28500    0.25180    0.27120    1.000
    H53      H        0.30970    0.19830    0.33320    1.000
    H54      H        0.40950    0.62500    0.34520    1.000
    H55      H        0.38810    0.68010    0.28310    1.000
    Zn6      Zn       0.97803    0.11268    0.55021    1.000
    O31      O        0.01691    0.89760    0.53527    1.000
    O32      O        0.09506    0.81330    0.48882    1.000
    O33      O        0.42988    0.73140    0.56870    1.000
    O34      O        0.07822    0.03130    0.90544    1.000
    O35      O        0.37501    0.68300    0.51297    1.000
    O36      O        0.12617    0.27250    0.89761    1.000
    C106     C        0.22626    0.78810    0.53648    1.000
    C107     C        0.29134    0.78390    0.56079    1.000
    C108     C        0.28100    0.82640    0.59843    1.000
    C109     C        0.20611    0.87070    0.61218    1.000
    C110     C        0.14159    0.87320    0.58757    1.000
    C111     C        0.15145    0.83450    0.54964    1.000
    C112     C        0.19555    0.91450    0.65255    1.000
    C113     C        0.25412    0.99710    0.67212    1.000
    C114     C        0.24445    0.03510    0.70997    1.000
    C115     C        0.17584    0.98900    0.72954    1.000
    C116     C        0.11651    0.90830    0.70961    1.000
    C117     C        0.12594    0.87160    0.67185    1.000
    C118     C        0.16476    0.02590    0.77011    1.000
    C119     C        0.18990    0.16770    0.78587    1.000
    C120     C        0.17610    0.20130    0.82366    1.000
    C121     C        0.13667    0.09270    0.84656    1.000
    C122     C        0.11323    0.94920    0.83148    1.000
    C123     C        0.12724    0.91640    0.79362    1.000
    C124     C        0.37049    0.73000    0.54569    1.000
    C125     C        0.08320    0.85060    0.52282    1.000
    C126     C        0.11372    0.13930    0.88617    1.000
    H56      H        0.23300    0.76300    0.51110    1.000
    H57      H        0.32580    0.81190    0.61440    1.000
    H58      H        0.09110    0.90070    0.59520    1.000
    H59      H        0.30420    0.03820    0.65960    1.000
    H60      H        0.28800    0.08340    0.72350    1.000
    H61      H        0.06840    0.87560    0.72110    1.000
    H62      H        0.08450    0.82330    0.65700    1.000
    H63      H        0.21500    0.24820    0.77120    1.000
    H64      H        0.19030    0.30170    0.83320    1.000
    H65      H        0.09050    0.87500    0.84520    1.000
    H66      H        0.11190    0.81990    0.78310    1.000
    Zn7      Zn       0.47803    0.38732    0.44979    1.000
    O37      O        0.51691    0.60240    0.46473    1.000
    O38      O        0.59506    0.68670    0.51118    1.000
    O39      O        0.92988    0.76860    0.43130    1.000
    O40      O        0.57822    0.46870    0.09456    1.000
    O41      O        0.87501    0.81700    0.48703    1.000
    O42      O        0.62617    0.22750    0.10239    1.000
    C127     C        0.72626    0.71190    0.46352    1.000
    C128     C        0.79134    0.71610    0.43921    1.000
    C129     C        0.78100    0.67360    0.40157    1.000
    C130     C        0.70611    0.62930    0.38782    1.000
    C131     C        0.64159    0.62680    0.41243    1.000
    C132     C        0.65145    0.66550    0.45036    1.000
    C133     C        0.69555    0.58550    0.34745    1.000
    C134     C        0.75412    0.50290    0.32788    1.000
    C135     C        0.74445    0.46490    0.29003    1.000
    C136     C        0.67584    0.51100    0.27046    1.000
    C137     C        0.61651    0.59170    0.29039    1.000
    C138     C        0.62594    0.62840    0.32815    1.000
    C139     C        0.66476    0.47410    0.22989    1.000
    C140     C        0.68990    0.33230    0.21413    1.000
    C141     C        0.67610    0.29870    0.17634    1.000
    C142     C        0.63667    0.40730    0.15344    1.000
    C143     C        0.61323    0.55080    0.16852    1.000
    C144     C        0.62724    0.58360    0.20638    1.000
    C145     C        0.87049    0.77000    0.45431    1.000
    C146     C        0.58320    0.64940    0.47718    1.000
    C147     C        0.61372    0.36070    0.11383    1.000
    H67      H        0.73300    0.73700    0.48890    1.000
    H68      H        0.82580    0.68810    0.38560    1.000
    H69      H        0.59110    0.59930    0.40480    1.000
    H70      H        0.80420    0.46180    0.34040    1.000
    H71      H        0.78800    0.41660    0.27650    1.000
    H72      H        0.56840    0.62440    0.27890    1.000
    H73      H        0.58450    0.67670    0.34300    1.000
    H74      H        0.71500    0.25180    0.22880    1.000
    H75      H        0.69030    0.19830    0.16680    1.000
    H76      H        0.59050    0.62500    0.15480    1.000
    H77      H        0.61190    0.68010    0.21690    1.000
    Zn8      Zn       0.02197    0.11268    0.94979    1.000
    O43      O        0.98309    0.89760    0.96473    1.000
    O44      O        0.90494    0.81330    0.01118    1.000
    O45      O        0.57012    0.73140    0.93130    1.000
    O46      O        0.92178    0.03130    0.59456    1.000
    O47      O        0.62499    0.68300    0.98703    1.000
    O48      O        0.87383    0.27250    0.60239    1.000
    C148     C        0.77374    0.78810    0.96352    1.000
    C149     C        0.70866    0.78390    0.93921    1.000
    C150     C        0.71900    0.82640    0.90157    1.000
    C151     C        0.79389    0.87070    0.88782    1.000
    C152     C        0.85841    0.87320    0.91243    1.000
    C153     C        0.84855    0.83450    0.95036    1.000
    C154     C        0.80445    0.91450    0.84745    1.000
    C155     C        0.74588    0.99710    0.82788    1.000
    C156     C        0.75555    0.03510    0.79003    1.000
    C157     C        0.82416    0.98900    0.77046    1.000
    C158     C        0.88349    0.90830    0.79039    1.000
    C159     C        0.87406    0.87160    0.82815    1.000
    C160     C        0.83524    0.02590    0.72989    1.000
    C161     C        0.81010    0.16770    0.71413    1.000
    C162     C        0.82390    0.20130    0.67634    1.000
    C163     C        0.86333    0.09270    0.65344    1.000
    C164     C        0.88677    0.94920    0.66852    1.000
    C165     C        0.87276    0.91640    0.70638    1.000
    C166     C        0.62951    0.73000    0.95431    1.000
    C167     C        0.91680    0.85060    0.97718    1.000
    C168     C        0.88628    0.13930    0.61383    1.000
    H78      H        0.76700    0.76300    0.98890    1.000
    H79      H        0.67420    0.81190    0.88560    1.000
    H80      H        0.90890    0.90070    0.90480    1.000
    H81      H        0.69580    0.03820    0.84040    1.000
    H82      H        0.71200    0.08340    0.77650    1.000
    H83      H        0.93160    0.87560    0.77890    1.000
    H84      H        0.91550    0.82330    0.84300    1.000
    H85      H        0.78500    0.24820    0.72880    1.000
    H86      H        0.80970    0.30170    0.66680    1.000
    H87      H        0.90950    0.87500    0.65480    1.000
    H88      H        0.88810    0.81990    0.71690    1.000
