data_functionalizedCrystal
_audit_creation_method	'EQeq! by Chris Wilmer'
_symmetry_space_group_name_H-M	'P1'
_symmetry_Int_Tables_number	1
_symmetry_cell_setting	triclinic
loop_
_symmetry_equiv_pos_as_xyz
  x,y,z
_cell_length_a	9.3727
_cell_length_b	11.9865
_cell_length_c	16.4276
_cell_angle_alpha	90
_cell_angle_beta	90
_cell_angle_gamma	109.616
loop_
_atom_site_label
_atom_site_type_symbol
_atom_site_fract_x
_atom_site_fract_y
_atom_site_fract_z
_atom_site_charge
Mof_Co	Co	0.87611	0.52069	0.41239	1.194
Mof_Co	Co	0.62389	0.97931	0.91239	1.194
Mof_Co	Co	0.37611	0.02069	0.08761	1.194
Mof_Co	Co	0.12389	0.47931	0.58761	1.194
Mof_H 	H 	0.7307	0.2662	0.1957	0.053
Mof_H 	H 	0.2307	0.7662	0.3043	0.054
Mof_H 	H 	0.0148	0.8795	0.9336	0.052
Mof_H 	H 	0.6544	0.8049	0.2322	0.056
Mof_H 	H 	0.1544	0.3049	0.2678	0.056
Mof_H 	H 	0.5148	0.3795	0.5664	0.053
Mof_H 	H 	0.7693	0.2338	0.6957	0.054
Mof_H 	H 	0.4852	0.6205	0.4336	0.053
Mof_H 	H 	0.3456	0.1951	0.7678	0.056
Mof_H 	H 	0.9852	0.1205	0.0664	0.052
Mof_H 	H 	0.8456	0.6951	0.7322	0.056
Mof_H 	H 	0.2693	0.7338	0.8043	0.053
Mof_C 	C 	0.7658	0.8253	0.844	0.338
Mof_C 	C 	0.7342	0.6747	0.344	0.338
Mof_C 	C 	0.7072	0.1279	0.0661	0.416
Mof_C 	C 	0.9252	0.7256	0.7686	0.037
Mof_C 	C 	0.908	0.7932	0.8344	-0.09
Mof_C 	C 	0.7928	0.3721	0.5661	0.416
Mof_C 	C 	0.4254	0.8712	0.1859	0.312
Mof_C 	C 	0.9254	0.3712	0.3141	0.313
Mof_C 	C 	0.2928	0.8721	0.9339	0.416
Mof_C 	C 	0.4252	0.2256	0.7314	0.036
Mof_C 	C 	0.092	0.2068	0.1656	-0.09
Mof_C 	C 	0.4386	0.797	0.2566	-0.086
Mof_C 	C 	0.8209	0.2511	0.1884	0.053
Mof_C 	C 	0.9386	0.297	0.2434	-0.087
Mof_C 	C 	0.1641	0.8171	0.8775	-0.123
Mof_C 	C 	0.3359	0.6829	0.3775	-0.122
Mof_C 	C 	0.2658	0.3253	0.656	0.338
Mof_C 	C 	0.5748	0.7744	0.2686	0.036
Mof_C 	C 	0.0614	0.703	0.7566	-0.087
Mof_C 	C 	0.9732	0.1636	0.1114	0.056
Mof_C 	C 	0.2342	0.1747	0.156	0.338
Mof_C 	C 	0.408	0.2932	0.6656	-0.089
Mof_C 	C 	0.6641	0.3171	0.6225	-0.122
Mof_C 	C 	0.8359	0.1829	0.1225	-0.123
Mof_C 	C 	0.2072	0.6279	0.4339	0.416
Mof_C 	C 	0.1791	0.7489	0.8116	0.053
Mof_C 	C 	0.5268	0.3364	0.6114	0.055
Mof_C 	C 	0.0746	0.6288	0.6859	0.313
Mof_C 	C 	0.3209	0.7511	0.3116	0.053
Mof_C 	C 	0.5746	0.1288	0.8141	0.312
Mof_C 	C 	0.4732	0.6636	0.3886	0.055
Mof_C 	C 	0.0268	0.8364	0.8886	0.056
Mof_C 	C 	0.592	0.7068	0.3344	-0.089
Mof_C 	C 	0.6791	0.2489	0.6884	0.053
Mof_C 	C 	0.5614	0.203	0.7434	-0.086
Mof_C 	C 	0.0748	0.2744	0.2314	0.037
Mof_O 	O 	0.0086	0.3819	0.3747	-0.329
Mof_O 	O 	0.8321	0.7032	0.2907	-0.26
Mof_O 	O 	0.8271	0.4236	0.3103	-0.383
Mof_O 	O 	0.9914	0.6181	0.6253	-0.329
Mof_O 	O 	0.2676	0.9249	0.9948	-0.452
Mof_O 	O 	0.0804	0.6358	0.4148	-0.453
Mof_O 	O 	0.5804	0.1358	0.0852	-0.454
Mof_O 	O 	0.4196	0.8642	0.9148	-0.454
Mof_O 	O 	0.6729	0.0764	0.8103	-0.381
Mof_O 	O 	0.1679	0.2968	0.7093	-0.26
Mof_O 	O 	0.7676	0.4249	0.5052	-0.451
Mof_O 	O 	0.7324	0.0751	0.0052	-0.452
Mof_O 	O 	0.2609	0.3838	0.5921	-0.394
Mof_O 	O 	0.4914	0.1181	0.8747	-0.327
Mof_O 	O 	0.3271	0.9236	0.1897	-0.381
Mof_O 	O 	0.9196	0.3642	0.5852	-0.453
Mof_O 	O 	0.6679	0.7968	0.7907	-0.26
Mof_O 	O 	0.3321	0.2032	0.2093	-0.26
Mof_O 	O 	0.5086	0.8819	0.1253	-0.327
Mof_O 	O 	0.7391	0.6162	0.4079	-0.394
Mof_O 	O 	0.2324	0.5751	0.4948	-0.451
Mof_O 	O 	0.2391	0.1162	0.0921	-0.394
Mof_O 	O 	0.1729	0.5764	0.6897	-0.383
Mof_O 	O 	0.7609	0.8838	0.9079	-0.394
_end
