# CIF file generated by openbabel 3.1.0, see https://openbabel.org
data_I
_chemical_name_common 'image0'
_cell_length_a 9.943
_cell_length_b 10.5668
_cell_length_c 10.9169
_cell_angle_alpha 80.596
_cell_angle_beta 72.149
_cell_angle_gamma 74.574
_space_group_name_H-M_alt 'P 1'
_space_group_name_Hall 'P 1'
loop_
    _symmetry_equiv_pos_as_xyz
    x,y,z
loop_
    _atom_site_label
    _atom_site_type_symbol
    _atom_site_fract_x
    _atom_site_fract_y
    _atom_site_fract_z
    _atom_site_occupancy
    Tb1      Tb       0.17437    0.19375    0.03409    1.000
    Zn1      Zn       0.29172    0.36786    0.61719    1.000
    N1       N        0.47790    0.20420    0.57120    1.000
    N2       N        0.13030    0.30270    0.57520    1.000
    C1       C        0.68820    0.96160    0.78250    1.000
    C2       C        0.64020    0.03700    0.66730    1.000
    C3       C        0.51450    0.13570    0.67550    1.000
    C4       C        0.56250    0.17240    0.45410    1.000
    H1       H        0.53400    0.22000    0.38500    1.000
    C5       C        0.68700    0.07260    0.43670    1.000
    H2       H        0.74100    0.06000    0.35300    1.000
    C6       C        0.72650    0.00620    0.54450    1.000
    H3       H        0.79900    0.94600    0.54000    1.000
    C7       C        0.40400    0.16920    0.80160    1.000
    C8       C        0.22510    0.42380    0.37370    1.000
    C9       C        0.11150    0.35130    0.45830    1.000
    C10      C        0.99360    0.33850    0.42290    1.000
    C11      C        0.97200    0.38330    0.29100    1.000
    C12      C        0.89270    0.27660    0.51290    1.000
    H4       H        0.80700    0.27300    0.49400    1.000
    C13      C        0.91430    0.22610    0.63170    1.000
    H5       H        0.84700    0.18500    0.69200    1.000
    C14      C        0.03510    0.24060    0.65930    1.000
    H6       H        0.05200    0.20600    0.73600    1.000
    C15      C        0.94030    0.02070    0.06230    1.000
    O1       O        0.42134    0.10550    0.90322    1.000
    O2       O        0.29062    0.25900    0.79795    1.000
    O3       O        0.67040    0.84700    0.81452    1.000
    O4       O        0.75610    0.01088    0.83457    1.000
    O5       O        0.31610    0.43940    0.42599    1.000
    O6       O        0.22020    0.46480    0.26214    1.000
    O7       O        0.02920    0.30077    0.21029    1.000
    O8       O        0.89260    0.49363    0.27168    1.000
    O9       O        0.95710    0.10681    0.11838    1.000
    O10      O        0.83800    0.96381    0.09647    1.000
    Tb2      Tb       0.82563    0.80625    0.96591    1.000
    Zn2      Zn       0.70828    0.63214    0.38281    1.000
    N3       N        0.52210    0.79580    0.42880    1.000
    N4       N        0.86970    0.69730    0.42480    1.000
    C16      C        0.31180    0.03840    0.21750    1.000
    C17      C        0.35980    0.96300    0.33270    1.000
    C18      C        0.48550    0.86430    0.32450    1.000
    C19      C        0.43750    0.82760    0.54590    1.000
    H7       H        0.46600    0.78000    0.61500    1.000
    C20      C        0.31300    0.92740    0.56330    1.000
    H8       H        0.25900    0.94000    0.64700    1.000
    C21      C        0.27350    0.99380    0.45550    1.000
    H9       H        0.20100    0.05400    0.46000    1.000
    C22      C        0.59600    0.83080    0.19840    1.000
    C23      C        0.77490    0.57620    0.62630    1.000
    C24      C        0.88850    0.64870    0.54170    1.000
    C25      C        0.00640    0.66150    0.57710    1.000
    C26      C        0.02800    0.61670    0.70900    1.000
    C27      C        0.10730    0.72340    0.48710    1.000
    H10      H        0.19300    0.72700    0.50600    1.000
    C28      C        0.08570    0.77390    0.36830    1.000
    H11      H        0.15300    0.81500    0.30800    1.000
    C29      C        0.96490    0.75940    0.34070    1.000
    H12      H        0.94800    0.79400    0.26400    1.000
    C30      C        0.05970    0.97930    0.93770    1.000
    O11      O        0.57866    0.89450    0.09678    1.000
    O12      O        0.70938    0.74100    0.20205    1.000
    O13      O        0.32960    0.15300    0.18548    1.000
    O14      O        0.24390    0.98912    0.16543    1.000
    O15      O        0.68390    0.56060    0.57401    1.000
    O16      O        0.77980    0.53520    0.73786    1.000
    O17      O        0.97080    0.69923    0.78971    1.000
    O18      O        0.10740    0.50637    0.72832    1.000
    O19      O        0.04290    0.89319    0.88162    1.000
    O20      O        0.16200    0.03619    0.90353    1.000
