# CIF file generated by openbabel 3.1.0, see https://openbabel.org
data_I
_chemical_name_common 'image0'
_cell_length_a 10.4759
_cell_length_b 33.017
_cell_length_c 28.548
_cell_angle_alpha 90
_cell_angle_beta 97.288
_cell_angle_gamma 90
_space_group_name_H-M_alt 'P 1'
_space_group_name_Hall 'P 1'
loop_
    _symmetry_equiv_pos_as_xyz
    x,y,z
loop_
    _atom_site_label
    _atom_site_type_symbol
    _atom_site_fract_x
    _atom_site_fract_y
    _atom_site_fract_z
    _atom_site_occupancy
    O1       O        0.84200    0.30347    0.74169    1.000
    O2       O        0.01570    0.34083    0.75512    1.000
    C1       C        0.92960    0.31900    0.76920    1.000
    C2       C        0.93360    0.31250    0.82110    1.000
    C3       C        0.02030    0.33560    0.85430    1.000
    C4       C        0.01820    0.33210    0.90300    1.000
    Cd1      Cd       0.09464    0.41282    0.19676    1.000
    Cd2      Cd       0.91729    0.34489    0.67490    1.000
    N1       N        0.98830    0.46439    0.22549    1.000
    N2       N        0.90510    0.50422    0.27520    1.000
    N3       N        0.24540    0.53396    0.30935    1.000
    N4       N        0.15590    0.59389    0.30566    1.000
    N5       N        0.02480    0.29104    0.65116    1.000
    N6       N        0.14080    0.23531    0.65674    1.000
    N7       N        0.83920    0.19278    0.67221    1.000
    N8       N        0.96140    0.14187    0.69801    1.000
    O3       O        0.26230    0.37608    0.23437    1.000
    O4       O        0.16140    0.40008    0.29159    1.000
    O5       O        0.81650    0.36554    0.59037    1.000
    O6       O        0.73330    0.31888    0.63103    1.000
    O7       O        0.26320    0.39713    0.37597    1.000
    H1       H        0.20590    0.39830    0.35360    1.000
    O8       O        0.68230    0.39354    0.51648    1.000
    H2       H        0.73800    0.39240    0.53940    1.000
    O9       O        0.00500    0.43379    0.12249    1.000
    O10      O        0.14620    0.38630    0.11475    1.000
    O11      O        0.16180    0.35573    0.03400    1.000
    H3       H        0.17020    0.35780    0.06280    1.000
    O12      O        0.10280    0.36105    0.83772    1.000
    H4       H        0.09310    0.36020    0.80880    1.000
    C5       C        0.25780    0.38400    0.27630    1.000
    C6       C        0.73070    0.33898    0.59440    1.000
    C7       C        0.48410    0.36247    0.29730    1.000
    H5       H        0.48490    0.35680    0.26550    1.000
    C8       C        0.37360    0.37507    0.31230    1.000
    C9       C        0.37080    0.38289    0.36110    1.000
    C10      C        0.48030    0.37894    0.39370    1.000
    C11      C        0.59470    0.36590    0.37710    1.000
    C12      C        0.59560    0.35780    0.32800    1.000
    C13      C        0.71380    0.34560    0.31150    1.000
    H6       H        0.71370    0.33760    0.28020    1.000
    C14      C        0.82830    0.34580    0.34200    1.000
    H7       H        0.90630    0.34100    0.33060    1.000
    C15      C        0.82470    0.35330    0.38930    1.000
    H8       H        0.90000    0.35090    0.41010    1.000
    C16      C        0.71410    0.36400    0.40620    1.000
    H9       H        0.71700    0.37030    0.43810    1.000
    C17      C        0.47350    0.39118    0.44440    1.000
    H10      H        0.38860    0.40230    0.44640    1.000
    H11      H        0.53530    0.41280    0.45240    1.000
    C18      C        0.54530    0.30000    0.55510    1.000
    H12      H        0.56350    0.28080    0.57890    1.000
    C19      C        0.62430    0.33330    0.55470    1.000
    C20      C        0.60210    0.36136    0.51702    1.000
    C21      C        0.49940    0.35739    0.48230    1.000
    C22      C        0.41430    0.32520    0.48410    1.000
    C23      C        0.44010    0.29420    0.52150    1.000
    C24      C        0.35140    0.26240    0.52390    1.000
    H13      H        0.36730    0.24340    0.54790    1.000
    C25      C        0.24390    0.25850    0.49250    1.000
    H14      H        0.18810    0.23680    0.49460    1.000
    C26      C        0.21830    0.28680    0.45750    1.000
    H15      H        0.14390    0.28390    0.43620    1.000
    C27      C        0.29860    0.31960    0.45230    1.000
    H16      H        0.27690    0.33810    0.42810    1.000
    C28      C        0.06270    0.41160    0.09800    1.000
    C29      C        0.94830    0.44386    0.02640    1.000
    H17      H        0.91330    0.46180    0.04630    1.000
    C30      C        0.02820    0.41392    0.04580    1.000
    C31      C        0.08240    0.38500    0.01470    1.000
    C32      C        0.05480    0.38760    0.96550    1.000
    C33      C        0.97230    0.42010    0.94620    1.000
    C34      C        0.91710    0.44854    0.97730    1.000
    C35      C        0.83440    0.48130    0.95850    1.000
    H18      H        0.79870    0.49930    0.97840    1.000
    C36      C        0.81000    0.48510    0.90910    1.000
    H19      H        0.75590    0.50560    0.89590    1.000
    C37      C        0.86530    0.45890    0.87970    1.000
    H20      H        0.84840    0.46250    0.84720    1.000
    C38      C        0.94320    0.42810    0.89660    1.000
    H21      H        0.97910    0.41160    0.87530    1.000
    C39      C        0.11250    0.35850    0.93520    1.000
    H22      H        0.16940    0.34080    0.95530    1.000
    H23      H        0.16500    0.37350    0.91560    1.000
    C40      C        0.85430    0.28570    0.83840    1.000
    H24      H        0.79870    0.27030    0.81750    1.000
    C41      C        0.85370    0.28050    0.88830    1.000
    C42      C        0.93540    0.30430    0.91930    1.000
    C43      C        0.93130    0.29770    0.96910    1.000
    H25      H        0.98510    0.31280    0.99090    1.000
    C44      C        0.85020    0.26990    0.98480    1.000
    H26      H        0.84940    0.26650    0.01710    1.000
    C45      C        0.77090    0.24730    0.95410    1.000
    H27      H        0.71620    0.22830    0.96500    1.000
    C46      C        0.77250    0.25290    0.90550    1.000
    H28      H        0.71730    0.23770    0.88430    1.000
    C47      C        0.97280    0.47170    0.26980    1.000
    H29      H        0.00670    0.45530    0.29480    1.000
    C48      C        0.87410    0.51950    0.23180    1.000
    H30      H        0.82570    0.54270    0.22400    1.000
    C49      C        0.92580    0.49506    0.20160    1.000
    H31      H        0.91930    0.49880    0.16910    1.000
    C50      C        0.86900    0.52070    0.31800    1.000
    H32      H        0.89020    0.54930    0.31950    1.000
    H33      H        0.91890    0.50750    0.34470    1.000
    C51      C        0.73010    0.51580    0.32220    1.000
    C52      C        0.67560    0.48050    0.32720    1.000
    H34      H        0.72910    0.45790    0.33050    1.000
    C53      C        0.54420    0.47400    0.32800    1.000
    H35      H        0.51260    0.44780    0.32970    1.000
    C54      C        0.46500    0.50526    0.32650    1.000
    C55      C        0.52090    0.54140    0.32030    1.000
    H36      H        0.46900    0.56430    0.31800    1.000
    C56      C        0.64930    0.54630    0.31700    1.000
    H37      H        0.67990    0.57200    0.31090    1.000
    C57      C        0.32330    0.49932    0.32920    1.000
    H38      H        0.29440    0.47490    0.31220    1.000
    H39      H        0.31010    0.49570    0.36200    1.000
    C58      C        0.21240    0.56683    0.33380    1.000
    H40      H        0.22820    0.56950    0.36640    1.000
    C59      C        0.15400    0.57691    0.26050    1.000
    H41      H        0.11800    0.58930    0.23260    1.000
    C60      C        0.20970    0.54117    0.26270    1.000
    H42      H        0.22200    0.52430    0.23760    1.000
    C61      C        0.09520    0.26588    0.68010    1.000
    H43      H        0.11070    0.26920    0.71270    1.000
    C62      C        0.02350    0.27478    0.60710    1.000
    H44      H        0.98040    0.28560    0.57940    1.000
    C63      C        0.09450    0.24056    0.60990    1.000
    H45      H        0.10930    0.22380    0.58500    1.000
    C64      C        0.22250    0.20221    0.67810    1.000
    H46      H        0.18870    0.17650    0.66550    1.000
    H47      H        0.21970    0.20200    0.71200    1.000
    C65      C        0.35940    0.20648    0.66880    1.000
    C66      C        0.41360    0.17950    0.64150    1.000
    H48      H        0.36440    0.15790    0.62850    1.000
    C67      C        0.53710    0.18290    0.63250    1.000
    H49      H        0.56980    0.16380    0.61330    1.000
    C68      C        0.61530    0.21394    0.65100    1.000
    C69      C        0.56220    0.24090    0.67950    1.000
    H50      H        0.61230    0.26210    0.69310    1.000
    C70      C        0.43610    0.23740    0.68860    1.000
    H51      H        0.40290    0.25600    0.70830    1.000
    C71      C        0.75100    0.21810    0.64170    1.000
    H52      H        0.75670    0.21100    0.60900    1.000
    H53      H        0.77710    0.24620    0.64610    1.000
    C72      C        0.88520    0.15693    0.66190    1.000
    H54      H        0.86630    0.14410    0.63290    1.000
    C73      C        0.96370    0.17004    0.73190    1.000
    H55      H        0.01150    0.16790    0.76150    1.000
    C74      C        0.88950    0.20113    0.71780    1.000
    H56      H        0.87440    0.22400    0.73520    1.000
    O13      O        0.15800    0.80347    0.75831    1.000
    O14      O        0.98430    0.84083    0.74488    1.000
    C75      C        0.07040    0.81900    0.73080    1.000
    C76      C        0.06640    0.81250    0.67890    1.000
    C77      C        0.97970    0.83560    0.64570    1.000
    C78      C        0.98180    0.83210    0.59700    1.000
    Cd3      Cd       0.90536    0.91282    0.30324    1.000
    Cd4      Cd       0.08271    0.84489    0.82510    1.000
    N9       N        0.01170    0.96439    0.27451    1.000
    N10      N        0.09490    0.00422    0.22480    1.000
    N11      N        0.75460    0.03396    0.19065    1.000
    N12      N        0.84410    0.09389    0.19434    1.000
    N13      N        0.97520    0.79104    0.84884    1.000
    N14      N        0.85920    0.73531    0.84326    1.000
    N15      N        0.16080    0.69278    0.82779    1.000
    N16      N        0.03860    0.64187    0.80199    1.000
    O15      O        0.73770    0.87608    0.26563    1.000
    O16      O        0.83860    0.90008    0.20841    1.000
    O17      O        0.18350    0.86554    0.90963    1.000
    O18      O        0.26670    0.81888    0.86897    1.000
    O19      O        0.73680    0.89713    0.12403    1.000
    H57      H        0.79410    0.89830    0.14640    1.000
    O20      O        0.31770    0.89354    0.98352    1.000
    H58      H        0.26200    0.89240    0.96060    1.000
    O21      O        0.99500    0.93379    0.37751    1.000
    O22      O        0.85380    0.88630    0.38525    1.000
    O23      O        0.83820    0.85573    0.46600    1.000
    H59      H        0.82980    0.85780    0.43720    1.000
    O24      O        0.89720    0.86105    0.66228    1.000
    H60      H        0.90690    0.86020    0.69120    1.000
    C79      C        0.74220    0.88400    0.22370    1.000
    C80      C        0.26930    0.83898    0.90560    1.000
    C81      C        0.51590    0.86247    0.20270    1.000
    H61      H        0.51510    0.85680    0.23450    1.000
    C82      C        0.62640    0.87507    0.18770    1.000
    C83      C        0.62920    0.88289    0.13890    1.000
    C84      C        0.51970    0.87894    0.10630    1.000
    C85      C        0.40530    0.86590    0.12290    1.000
    C86      C        0.40440    0.85780    0.17200    1.000
    C87      C        0.28620    0.84560    0.18850    1.000
    H62      H        0.28630    0.83760    0.21980    1.000
    C88      C        0.17170    0.84580    0.15800    1.000
    H63      H        0.09370    0.84100    0.16940    1.000
    C89      C        0.17530    0.85330    0.11070    1.000
    H64      H        0.10000    0.85090    0.08990    1.000
    C90      C        0.28590    0.86400    0.09380    1.000
    H65      H        0.28300    0.87030    0.06190    1.000
    C91      C        0.52650    0.89118    0.05560    1.000
    H66      H        0.61140    0.90230    0.05360    1.000
    H67      H        0.46470    0.91280    0.04760    1.000
    C92      C        0.45470    0.80000    0.94490    1.000
    H68      H        0.43650    0.78080    0.92110    1.000
    C93      C        0.37570    0.83330    0.94530    1.000
    C94      C        0.39790    0.86136    0.98298    1.000
    C95      C        0.50060    0.85739    0.01770    1.000
    C96      C        0.58570    0.82520    0.01590    1.000
    C97      C        0.55990    0.79420    0.97850    1.000
    C98      C        0.64860    0.76240    0.97610    1.000
    H69      H        0.63270    0.74340    0.95210    1.000
    C99      C        0.75610    0.75850    0.00750    1.000
    H70      H        0.81190    0.73680    0.00540    1.000
    C100     C        0.78170    0.78680    0.04250    1.000
    H71      H        0.85610    0.78390    0.06380    1.000
    C101     C        0.70140    0.81960    0.04770    1.000
    H72      H        0.72310    0.83810    0.07190    1.000
    C102     C        0.93730    0.91160    0.40200    1.000
    C103     C        0.05170    0.94386    0.47360    1.000
    H73      H        0.08670    0.96180    0.45370    1.000
    C104     C        0.97180    0.91392    0.45420    1.000
    C105     C        0.91760    0.88500    0.48530    1.000
    C106     C        0.94520    0.88760    0.53450    1.000
    C107     C        0.02770    0.92010    0.55380    1.000
    C108     C        0.08290    0.94854    0.52270    1.000
    C109     C        0.16560    0.98130    0.54150    1.000
    H74      H        0.20130    0.99930    0.52160    1.000
    C110     C        0.19000    0.98510    0.59090    1.000
    H75      H        0.24410    0.00560    0.60410    1.000
    C111     C        0.13470    0.95890    0.62030    1.000
    H76      H        0.15160    0.96250    0.65280    1.000
    C112     C        0.05680    0.92810    0.60340    1.000
    H77      H        0.02090    0.91160    0.62470    1.000
    C113     C        0.88750    0.85850    0.56480    1.000
    H78      H        0.83060    0.84080    0.54470    1.000
    H79      H        0.83500    0.87350    0.58440    1.000
    C114     C        0.14570    0.78570    0.66160    1.000
    H80      H        0.20130    0.77030    0.68250    1.000
    C115     C        0.14630    0.78050    0.61170    1.000
    C116     C        0.06460    0.80430    0.58070    1.000
    C117     C        0.06870    0.79770    0.53090    1.000
    H81      H        0.01490    0.81280    0.50910    1.000
    C118     C        0.14980    0.76990    0.51520    1.000
    H82      H        0.15060    0.76650    0.48290    1.000
    C119     C        0.22910    0.74730    0.54590    1.000
    H83      H        0.28380    0.72830    0.53500    1.000
    C120     C        0.22750    0.75290    0.59450    1.000
    H84      H        0.28270    0.73770    0.61570    1.000
    C121     C        0.02720    0.97170    0.23020    1.000
    H85      H        0.99330    0.95530    0.20520    1.000
    C122     C        0.12590    0.01950    0.26820    1.000
    H86      H        0.17430    0.04270    0.27600    1.000
    C123     C        0.07420    0.99506    0.29840    1.000
    H87      H        0.08070    0.99880    0.33090    1.000
    C124     C        0.13100    0.02070    0.18200    1.000
    H88      H        0.10980    0.04930    0.18050    1.000
    H89      H        0.08110    0.00750    0.15530    1.000
    C125     C        0.26990    0.01580    0.17780    1.000
    C126     C        0.32440    0.98050    0.17280    1.000
    H90      H        0.27090    0.95790    0.16950    1.000
    C127     C        0.45580    0.97400    0.17200    1.000
    H91      H        0.48740    0.94780    0.17030    1.000
    C128     C        0.53500    0.00526    0.17350    1.000
    C129     C        0.47910    0.04140    0.17970    1.000
    H92      H        0.53100    0.06430    0.18200    1.000
    C130     C        0.35070    0.04630    0.18300    1.000
    H93      H        0.32010    0.07200    0.18910    1.000
    C131     C        0.67670    0.99932    0.17080    1.000
    H94      H        0.70560    0.97490    0.18780    1.000
    H95      H        0.68990    0.99570    0.13800    1.000
    C132     C        0.78760    0.06683    0.16620    1.000
    H96      H        0.77180    0.06950    0.13360    1.000
    C133     C        0.84600    0.07691    0.23950    1.000
    H97      H        0.88200    0.08930    0.26740    1.000
    C134     C        0.79030    0.04117    0.23730    1.000
    H98      H        0.77800    0.02430    0.26240    1.000
    C135     C        0.90480    0.76588    0.81990    1.000
    H99      H        0.88930    0.76920    0.78730    1.000
    C136     C        0.97650    0.77478    0.89290    1.000
    H100     H        0.01960    0.78560    0.92060    1.000
    C137     C        0.90550    0.74056    0.89010    1.000
    H101     H        0.89070    0.72380    0.91500    1.000
    C138     C        0.77750    0.70221    0.82190    1.000
    H102     H        0.81130    0.67650    0.83450    1.000
    H103     H        0.78030    0.70200    0.78800    1.000
    C139     C        0.64060    0.70648    0.83120    1.000
    C140     C        0.58640    0.67950    0.85850    1.000
    H104     H        0.63560    0.65790    0.87150    1.000
    C141     C        0.46290    0.68290    0.86750    1.000
    H105     H        0.43020    0.66380    0.88670    1.000
    C142     C        0.38470    0.71394    0.84900    1.000
    C143     C        0.43780    0.74090    0.82050    1.000
    H106     H        0.38770    0.76210    0.80690    1.000
    C144     C        0.56390    0.73740    0.81140    1.000
    H107     H        0.59710    0.75600    0.79170    1.000
    C145     C        0.24900    0.71810    0.85830    1.000
    H108     H        0.24330    0.71100    0.89100    1.000
    H109     H        0.22290    0.74620    0.85390    1.000
    C146     C        0.11480    0.65693    0.83810    1.000
    H110     H        0.13370    0.64410    0.86710    1.000
    C147     C        0.03630    0.67004    0.76810    1.000
    H111     H        0.98850    0.66790    0.73850    1.000
    C148     C        0.11050    0.70113    0.78220    1.000
    H112     H        0.12560    0.72400    0.76480    1.000
    O25      O        0.15800    0.69653    0.25831    1.000
    O26      O        0.98430    0.65917    0.24488    1.000
    C149     C        0.07040    0.68100    0.23080    1.000
    C150     C        0.06640    0.68750    0.17890    1.000
    C151     C        0.97970    0.66440    0.14570    1.000
    C152     C        0.98180    0.66790    0.09700    1.000
    Cd5      Cd       0.90536    0.58718    0.80324    1.000
    Cd6      Cd       0.08271    0.65511    0.32510    1.000
    N17      N        0.01170    0.53561    0.77451    1.000
    N18      N        0.09490    0.49578    0.72480    1.000
    N19      N        0.75460    0.46604    0.69065    1.000
    N20      N        0.84410    0.40611    0.69434    1.000
    N21      N        0.97520    0.70896    0.34884    1.000
    N22      N        0.85920    0.76469    0.34326    1.000
    N23      N        0.16080    0.80722    0.32779    1.000
    N24      N        0.03860    0.85813    0.30199    1.000
    O27      O        0.73770    0.62392    0.76563    1.000
    O28      O        0.83860    0.59992    0.70841    1.000
    O29      O        0.18350    0.63446    0.40963    1.000
    O30      O        0.26670    0.68112    0.36897    1.000
    O31      O        0.73680    0.60287    0.62403    1.000
    H113     H        0.79410    0.60170    0.64640    1.000
    O32      O        0.31770    0.60646    0.48352    1.000
    H114     H        0.26200    0.60760    0.46060    1.000
    O33      O        0.99500    0.56621    0.87751    1.000
    O34      O        0.85380    0.61370    0.88525    1.000
    O35      O        0.83820    0.64427    0.96600    1.000
    H115     H        0.82980    0.64220    0.93720    1.000
    O36      O        0.89720    0.63895    0.16228    1.000
    H116     H        0.90690    0.63980    0.19120    1.000
    C153     C        0.74220    0.61600    0.72370    1.000
    C154     C        0.26930    0.66102    0.40560    1.000
    C155     C        0.51590    0.63753    0.70270    1.000
    H117     H        0.51510    0.64320    0.73450    1.000
    C156     C        0.62640    0.62493    0.68770    1.000
    C157     C        0.62920    0.61711    0.63890    1.000
    C158     C        0.51970    0.62106    0.60630    1.000
    C159     C        0.40530    0.63410    0.62290    1.000
    C160     C        0.40440    0.64220    0.67200    1.000
    C161     C        0.28620    0.65440    0.68850    1.000
    H118     H        0.28630    0.66240    0.71980    1.000
    C162     C        0.17170    0.65420    0.65800    1.000
    H119     H        0.09370    0.65900    0.66940    1.000
    C163     C        0.17530    0.64670    0.61070    1.000
    H120     H        0.10000    0.64910    0.58990    1.000
    C164     C        0.28590    0.63600    0.59380    1.000
    H121     H        0.28300    0.62970    0.56190    1.000
    C165     C        0.52650    0.60882    0.55560    1.000
    H122     H        0.61140    0.59770    0.55360    1.000
    H123     H        0.46470    0.58720    0.54760    1.000
    C166     C        0.45470    0.70000    0.44490    1.000
    H124     H        0.43650    0.71920    0.42110    1.000
    C167     C        0.37570    0.66670    0.44530    1.000
    C168     C        0.39790    0.63864    0.48298    1.000
    C169     C        0.50060    0.64261    0.51770    1.000
    C170     C        0.58570    0.67480    0.51590    1.000
    C171     C        0.55990    0.70580    0.47850    1.000
    C172     C        0.64860    0.73760    0.47610    1.000
    H125     H        0.63270    0.75660    0.45210    1.000
    C173     C        0.75610    0.74150    0.50750    1.000
    H126     H        0.81190    0.76320    0.50540    1.000
    C174     C        0.78170    0.71320    0.54250    1.000
    H127     H        0.85610    0.71610    0.56380    1.000
    C175     C        0.70140    0.68040    0.54770    1.000
    H128     H        0.72310    0.66190    0.57190    1.000
    C176     C        0.93730    0.58840    0.90200    1.000
    C177     C        0.05170    0.55614    0.97360    1.000
    H129     H        0.08670    0.53820    0.95370    1.000
    C178     C        0.97180    0.58608    0.95420    1.000
    C179     C        0.91760    0.61500    0.98530    1.000
    C180     C        0.94520    0.61240    0.03450    1.000
    C181     C        0.02770    0.57990    0.05380    1.000
    C182     C        0.08290    0.55146    0.02270    1.000
    C183     C        0.16560    0.51870    0.04150    1.000
    H130     H        0.20130    0.50070    0.02160    1.000
    C184     C        0.19000    0.51490    0.09090    1.000
    H131     H        0.24410    0.49440    0.10410    1.000
    C185     C        0.13470    0.54110    0.12030    1.000
    H132     H        0.15160    0.53750    0.15280    1.000
    C186     C        0.05680    0.57190    0.10340    1.000
    H133     H        0.02090    0.58840    0.12470    1.000
    C187     C        0.88750    0.64150    0.06480    1.000
    H134     H        0.83060    0.65920    0.04470    1.000
    H135     H        0.83500    0.62650    0.08440    1.000
    C188     C        0.14570    0.71430    0.16160    1.000
    H136     H        0.20130    0.72970    0.18250    1.000
    C189     C        0.14630    0.71950    0.11170    1.000
    C190     C        0.06460    0.69570    0.08070    1.000
    C191     C        0.06870    0.70230    0.03090    1.000
    H137     H        0.01490    0.68720    0.00910    1.000
    C192     C        0.14980    0.73010    0.01520    1.000
    H138     H        0.15060    0.73350    0.98290    1.000
    C193     C        0.22910    0.75270    0.04590    1.000
    H139     H        0.28380    0.77170    0.03500    1.000
    C194     C        0.22750    0.74710    0.09450    1.000
    H140     H        0.28270    0.76230    0.11570    1.000
    C195     C        0.02720    0.52830    0.73020    1.000
    H141     H        0.99330    0.54470    0.70520    1.000
    C196     C        0.12590    0.48050    0.76820    1.000
    H142     H        0.17430    0.45730    0.77600    1.000
    C197     C        0.07420    0.50494    0.79840    1.000
    H143     H        0.08070    0.50120    0.83090    1.000
    C198     C        0.13100    0.47930    0.68200    1.000
    H144     H        0.10980    0.45070    0.68050    1.000
    H145     H        0.08110    0.49250    0.65530    1.000
    C199     C        0.26990    0.48420    0.67780    1.000
    C200     C        0.32440    0.51950    0.67280    1.000
    H146     H        0.27090    0.54210    0.66950    1.000
    C201     C        0.45580    0.52600    0.67200    1.000
    H147     H        0.48740    0.55220    0.67030    1.000
    C202     C        0.53500    0.49474    0.67350    1.000
    C203     C        0.47910    0.45860    0.67970    1.000
    H148     H        0.53100    0.43570    0.68200    1.000
    C204     C        0.35070    0.45370    0.68300    1.000
    H149     H        0.32010    0.42800    0.68910    1.000
    C205     C        0.67670    0.50068    0.67080    1.000
    H150     H        0.70560    0.52510    0.68780    1.000
    H151     H        0.68990    0.50430    0.63800    1.000
    C206     C        0.78760    0.43317    0.66620    1.000
    H152     H        0.77180    0.43050    0.63360    1.000
    C207     C        0.84600    0.42309    0.73950    1.000
    H153     H        0.88200    0.41070    0.76740    1.000
    C208     C        0.79030    0.45883    0.73730    1.000
    H154     H        0.77800    0.47570    0.76240    1.000
    C209     C        0.90480    0.73412    0.31990    1.000
    H155     H        0.88930    0.73080    0.28730    1.000
    C210     C        0.97650    0.72522    0.39290    1.000
    H156     H        0.01960    0.71440    0.42060    1.000
    C211     C        0.90550    0.75944    0.39010    1.000
    H157     H        0.89070    0.77620    0.41500    1.000
    C212     C        0.77750    0.79779    0.32190    1.000
    H158     H        0.81130    0.82350    0.33450    1.000
    H159     H        0.78030    0.79800    0.28800    1.000
    C213     C        0.64060    0.79352    0.33120    1.000
    C214     C        0.58640    0.82050    0.35850    1.000
    H160     H        0.63560    0.84210    0.37150    1.000
    C215     C        0.46290    0.81710    0.36750    1.000
    H161     H        0.43020    0.83620    0.38670    1.000
    C216     C        0.38470    0.78606    0.34900    1.000
    C217     C        0.43780    0.75910    0.32050    1.000
    H162     H        0.38770    0.73790    0.30690    1.000
    C218     C        0.56390    0.76260    0.31140    1.000
    H163     H        0.59710    0.74400    0.29170    1.000
    C219     C        0.24900    0.78190    0.35830    1.000
    H164     H        0.24330    0.78900    0.39100    1.000
    H165     H        0.22290    0.75380    0.35390    1.000
    C220     C        0.11480    0.84307    0.33810    1.000
    H166     H        0.13370    0.85590    0.36710    1.000
    C221     C        0.03630    0.82996    0.26810    1.000
    H167     H        0.98850    0.83210    0.23850    1.000
    C222     C        0.11050    0.79887    0.28220    1.000
    H168     H        0.12560    0.77600    0.26480    1.000
    O37      O        0.84200    0.19653    0.24169    1.000
    O38      O        0.01570    0.15917    0.25512    1.000
    C223     C        0.92960    0.18100    0.26920    1.000
    C224     C        0.93360    0.18750    0.32110    1.000
    C225     C        0.02030    0.16440    0.35430    1.000
    C226     C        0.01820    0.16790    0.40300    1.000
    Cd7      Cd       0.09464    0.08718    0.69676    1.000
    Cd8      Cd       0.91729    0.15511    0.17490    1.000
    N25      N        0.98830    0.03561    0.72549    1.000
    N26      N        0.90510    0.99578    0.77520    1.000
    N27      N        0.24540    0.96604    0.80935    1.000
    N28      N        0.15590    0.90611    0.80566    1.000
    N29      N        0.02480    0.20896    0.15116    1.000
    N30      N        0.14080    0.26469    0.15674    1.000
    N31      N        0.83920    0.30722    0.17221    1.000
    N32      N        0.96140    0.35813    0.19801    1.000
    O39      O        0.26230    0.12392    0.73437    1.000
    O40      O        0.16140    0.09992    0.79159    1.000
    O41      O        0.81650    0.13446    0.09037    1.000
    O42      O        0.73330    0.18112    0.13103    1.000
    O43      O        0.26320    0.10287    0.87597    1.000
    H169     H        0.20590    0.10170    0.85360    1.000
    O44      O        0.68230    0.10646    0.01648    1.000
    H170     H        0.73800    0.10760    0.03940    1.000
    O45      O        0.00500    0.06621    0.62249    1.000
    O46      O        0.14620    0.11370    0.61475    1.000
    O47      O        0.16180    0.14427    0.53400    1.000
    H171     H        0.17020    0.14220    0.56280    1.000
    O48      O        0.10280    0.13895    0.33772    1.000
    H172     H        0.09310    0.13980    0.30880    1.000
    C227     C        0.25780    0.11600    0.77630    1.000
    C228     C        0.73070    0.16102    0.09440    1.000
    C229     C        0.48410    0.13753    0.79730    1.000
    H173     H        0.48490    0.14320    0.76550    1.000
    C230     C        0.37360    0.12493    0.81230    1.000
    C231     C        0.37080    0.11711    0.86110    1.000
    C232     C        0.48030    0.12106    0.89370    1.000
    C233     C        0.59470    0.13410    0.87710    1.000
    C234     C        0.59560    0.14220    0.82800    1.000
    C235     C        0.71380    0.15440    0.81150    1.000
    H174     H        0.71370    0.16240    0.78020    1.000
    C236     C        0.82830    0.15420    0.84200    1.000
    H175     H        0.90630    0.15900    0.83060    1.000
    C237     C        0.82470    0.14670    0.88930    1.000
    H176     H        0.90000    0.14910    0.91010    1.000
    C238     C        0.71410    0.13600    0.90620    1.000
    H177     H        0.71700    0.12970    0.93810    1.000
    C239     C        0.47350    0.10882    0.94440    1.000
    H178     H        0.38860    0.09770    0.94640    1.000
    H179     H        0.53530    0.08720    0.95240    1.000
    C240     C        0.54530    0.20000    0.05510    1.000
    H180     H        0.56350    0.21920    0.07890    1.000
    C241     C        0.62430    0.16670    0.05470    1.000
    C242     C        0.60210    0.13864    0.01702    1.000
    C243     C        0.49940    0.14261    0.98230    1.000
    C244     C        0.41430    0.17480    0.98410    1.000
    C245     C        0.44010    0.20580    0.02150    1.000
    C246     C        0.35140    0.23760    0.02390    1.000
    H181     H        0.36730    0.25660    0.04790    1.000
    C247     C        0.24390    0.24150    0.99250    1.000
    H182     H        0.18810    0.26320    0.99460    1.000
    C248     C        0.21830    0.21320    0.95750    1.000
    H183     H        0.14390    0.21610    0.93620    1.000
    C249     C        0.29860    0.18040    0.95230    1.000
    H184     H        0.27690    0.16190    0.92810    1.000
    C250     C        0.06270    0.08840    0.59800    1.000
    C251     C        0.94830    0.05614    0.52640    1.000
    H185     H        0.91330    0.03820    0.54630    1.000
    C252     C        0.02820    0.08608    0.54580    1.000
    C253     C        0.08240    0.11500    0.51470    1.000
    C254     C        0.05480    0.11240    0.46550    1.000
    C255     C        0.97230    0.07990    0.44620    1.000
    C256     C        0.91710    0.05146    0.47730    1.000
    C257     C        0.83440    0.01870    0.45850    1.000
    H186     H        0.79870    0.00070    0.47840    1.000
    C258     C        0.81000    0.01490    0.40910    1.000
    H187     H        0.75590    0.99440    0.39590    1.000
    C259     C        0.86530    0.04110    0.37970    1.000
    H188     H        0.84840    0.03750    0.34720    1.000
    C260     C        0.94320    0.07190    0.39660    1.000
    H189     H        0.97910    0.08840    0.37530    1.000
    C261     C        0.11250    0.14150    0.43520    1.000
    H190     H        0.16940    0.15920    0.45530    1.000
    H191     H        0.16500    0.12650    0.41560    1.000
    C262     C        0.85430    0.21430    0.33840    1.000
    H192     H        0.79870    0.22970    0.31750    1.000
    C263     C        0.85370    0.21950    0.38830    1.000
    C264     C        0.93540    0.19570    0.41930    1.000
    C265     C        0.93130    0.20230    0.46910    1.000
    H193     H        0.98510    0.18720    0.49090    1.000
    C266     C        0.85020    0.23010    0.48480    1.000
    H194     H        0.84940    0.23350    0.51710    1.000
    C267     C        0.77090    0.25270    0.45410    1.000
    H195     H        0.71620    0.27170    0.46500    1.000
    C268     C        0.77250    0.24710    0.40550    1.000
    H196     H        0.71730    0.26230    0.38430    1.000
    C269     C        0.97280    0.02830    0.76980    1.000
    H197     H        0.00670    0.04470    0.79480    1.000
    C270     C        0.87410    0.98050    0.73180    1.000
    H198     H        0.82570    0.95730    0.72400    1.000
    C271     C        0.92580    0.00494    0.70160    1.000
    H199     H        0.91930    0.00120    0.66910    1.000
    C272     C        0.86900    0.97930    0.81800    1.000
    H200     H        0.89020    0.95070    0.81950    1.000
    H201     H        0.91890    0.99250    0.84470    1.000
    C273     C        0.73010    0.98420    0.82220    1.000
    C274     C        0.67560    0.01950    0.82720    1.000
    H202     H        0.72910    0.04210    0.83050    1.000
    C275     C        0.54420    0.02600    0.82800    1.000
    H203     H        0.51260    0.05220    0.82970    1.000
    C276     C        0.46500    0.99474    0.82650    1.000
    C277     C        0.52090    0.95860    0.82030    1.000
    H204     H        0.46900    0.93570    0.81800    1.000
    C278     C        0.64930    0.95370    0.81700    1.000
    H205     H        0.67990    0.92800    0.81090    1.000
    C279     C        0.32330    0.00068    0.82920    1.000
    H206     H        0.29440    0.02510    0.81220    1.000
    H207     H        0.31010    0.00430    0.86200    1.000
    C280     C        0.21240    0.93317    0.83380    1.000
    H208     H        0.22820    0.93050    0.86640    1.000
    C281     C        0.15400    0.92309    0.76050    1.000
    H209     H        0.11800    0.91070    0.73260    1.000
    C282     C        0.20970    0.95883    0.76270    1.000
    H210     H        0.22200    0.97570    0.73760    1.000
    C283     C        0.09520    0.23412    0.18010    1.000
    H211     H        0.11070    0.23080    0.21270    1.000
    C284     C        0.02350    0.22522    0.10710    1.000
    H212     H        0.98040    0.21440    0.07940    1.000
    C285     C        0.09450    0.25944    0.10990    1.000
    H213     H        0.10930    0.27620    0.08500    1.000
    C286     C        0.22250    0.29779    0.17810    1.000
    H214     H        0.18870    0.32350    0.16550    1.000
    H215     H        0.21970    0.29800    0.21200    1.000
    C287     C        0.35940    0.29352    0.16880    1.000
    C288     C        0.41360    0.32050    0.14150    1.000
    H216     H        0.36440    0.34210    0.12850    1.000
    C289     C        0.53710    0.31710    0.13250    1.000
    H217     H        0.56980    0.33620    0.11330    1.000
    C290     C        0.61530    0.28606    0.15100    1.000
    C291     C        0.56220    0.25910    0.17950    1.000
    H218     H        0.61230    0.23790    0.19310    1.000
    C292     C        0.43610    0.26260    0.18860    1.000
    H219     H        0.40290    0.24400    0.20830    1.000
    C293     C        0.75100    0.28190    0.14170    1.000
    H220     H        0.75670    0.28900    0.10900    1.000
    H221     H        0.77710    0.25380    0.14610    1.000
    C294     C        0.88520    0.34307    0.16190    1.000
    H222     H        0.86630    0.35590    0.13290    1.000
    C295     C        0.96370    0.32996    0.23190    1.000
    H223     H        0.01150    0.33210    0.26150    1.000
    C296     C        0.88950    0.29887    0.21780    1.000
    H224     H        0.87440    0.27600    0.23520    1.000
