data_functionalizedCrystal
_audit_creation_method	'EQeq! by Chris Wilmer'
_symmetry_space_group_name_H-M	'P1'
_symmetry_Int_Tables_number	1
_symmetry_cell_setting	triclinic
loop_
_symmetry_equiv_pos_as_xyz
  x,y,z
_cell_length_a	18.5945
_cell_length_b	8.08
_cell_length_c	30.2904
_cell_angle_alpha	90
_cell_angle_beta	90.819
_cell_angle_gamma	90
loop_
_atom_site_label
_atom_site_type_symbol
_atom_site_fract_x
_atom_site_fract_y
_atom_site_fract_z
_atom_site_charge
Mof_Zn	Zn	0.86381	0.03114	0.55825	1.204
Mof_O 	O 	0.7579	0.5992	0.544	-0.529
Mof_C 	C 	0.9665	0.8097	0.7733	-0.97
Mof_Zn	Zn	0.80317	0.38567	0.52373	1.228
Mof_O 	O 	0.858	0.1764	0.5017	-0.661
Mof_B 	B 	0.9555	0.833	0.83	0.735
Mof_H 	H 	0.9103	0.779	0.8493	-0.236
Mof_Zn	Zn	0.66786	0.63735	0.51592	1.215
Mof_B 	B 	0.9408	0.0082	0.7938	0.2
Mof_H 	H 	0.8868	0.0678	0.7893	-0.108
Mof_Zn	Zn	0.94865	0.22368	0.47341	1.194
Mof_B 	B 	0.0016	0.9879	0.7493	0.751
Mof_H 	H 	0.9856	0.0323	0.7155	-0.249
Mof_B 	B 	0.0534	0.8086	0.7572	0.277
Mof_H 	H 	0.0732	0.7373	0.7281	-0.13
Mof_B 	B 	0.0259	0.7084	0.8061	0.734
Mof_H 	H 	0.0268	0.5706	0.8101	-0.259
Mof_B 	B 	0.9933	0.0262	0.8441	0.07
Mof_H 	H 	0.9734	0.0982	0.8731	-0.062
Mof_B 	B 	0.0248	0.1249	0.7933	-0.25
Mof_H 	H 	0.0262	0.2624	0.7888	0.007
Mof_B 	B 	0.0886	0.006	0.7714	-0.344
Mof_H 	H 	0.132	0.0667	0.7519	0.041
Mof_B 	B 	0.1073	0.8243	0.806	0.056
Mof_H 	H 	0.1615	0.7648	0.8096	-0.054
Mof_C 	C 	0.0438	0.8445	0.8484	-0.772
Mof_B 	B 	0.0869	0.0232	0.83	0.843
Mof_H 	H 	0.1283	0.0915	0.8501	-0.278
Mof_C 	C 	0.906	0.712	0.7503	0.894
Mof_H 	H 	0.8613	0.7194	0.7682	-0.528
Mof_O 	O 	0.9287	0.542	0.7478	0.514
Mof_H 	H 	0.8934	0.4792	0.7427	-0.091
Mof_C 	C 	0.8907	0.7756	0.7051	-0.287
Mof_C 	C 	0.8447	0.901	0.6967	0.092
Mof_H 	H 	0.8188	0.95	0.7202	-0.01
Mof_C 	C 	0.8347	0.9603	0.6524	-0.02
Mof_H 	H 	0.7973	0.0382	0.6471	0.038
Mof_N 	N 	0.8728	0.9153	0.619	-0.211
Mof_C 	C 	0.9215	0.797	0.6261	-0.02
Mof_H 	H 	0.9496	0.7615	0.602	0.032
Mof_C 	C 	0.9335	0.7222	0.6671	0.068
Mof_H 	H 	0.9688	0.638	0.6705	0.008
Mof_C 	C 	0.064	0.7684	0.895	0.349
Mof_H 	H 	0.1038	0.6864	0.8914	-0.069
Mof_O 	O 	0.0018	0.6855	0.9081	-0.455
Mof_H 	H 	0.0076	0.6496	0.9339	0.24
Mof_C 	C 	0.0873	0.8987	0.9272	-0.072
Mof_C 	C 	0.0426	0.9783	0.9557	-0.068
Mof_H 	H 	0.9934	0.9479	0.9574	0.058
Mof_C 	C 	0.0697	0.1014	0.9816	0.035
Mof_H 	H 	0.0368	0.1625	0.9989	0.006
Mof_N 	N 	0.1398	0.1432	0.9844	-0.245
Mof_C 	C 	0.1818	0.0582	0.957	0.052
Mof_H 	H 	0.2312	0.0884	0.9566	0.007
Mof_C 	C 	0.1621	0.9396	0.9311	-0.062
Mof_H 	H 	0.1968	0.8799	0.9147	0.06
Mof_O 	O 	0.7554	0.0247	0.5648	-0.483
Mof_C 	C 	0.7061	0.1347	0.5572	0.425
Mof_O 	O 	0.712	0.2651	0.5377	-0.506
Mof_C 	C 	0.6336	0.0951	0.5773	-0.163
Mof_C 	C 	0.6252	0.9782	0.6103	0.092
Mof_H 	H 	0.6647	0.9116	0.6196	0.011
Mof_C 	C 	0.5634	0.9605	0.6283	-0.164
Mof_H 	H 	0.5598	0.8842	0.6521	0.088
Mof_C 	C 	0.5041	0.0416	0.616	0.086
Mof_C 	C 	0.5076	0.1519	0.5809	-0.139
Mof_H 	H 	0.4656	0.2051	0.5698	0.078
Mof_C 	C 	0.5754	0.1825	0.5624	0.08
Mof_H 	H 	0.5804	0.2629	0.5397	0.014
Mof_C 	C 	0.4348	0.014	0.6428	0.015
Mof_C 	C 	0.4348	0.0038	0.6844	-0.075
Mof_H 	H 	0.4797	0.9997	0.6997	0.053
Mof_C 	C 	0.3682	0.9978	0.7106	0.011
Mof_C 	C 	0.3073	0.0076	0.6871	-0.069
Mof_H 	H 	0.2639	0.9958	0.703	0.047
Mof_C 	C 	0.3003	0.0335	0.6417	0.015
Mof_C 	C 	0.3662	0.0369	0.6164	-0.077
Mof_H 	H 	0.366	0.0525	0.5854	0.053
Mof_C 	C 	0.3751	0.9838	0.7591	0.048
Mof_C 	C 	0.4307	0.8958	0.7784	-0.115
Mof_H 	H 	0.465	0.8397	0.7609	0.065
Mof_C 	C 	0.4353	0.8911	0.8245	0.036
Mof_H 	H 	0.4741	0.8335	0.8383	0.023
Mof_C 	C 	0.385	0.9679	0.8507	-0.118
Mof_C 	C 	0.3296	0.0505	0.8294	0.046
Mof_H 	H 	0.2951	0.1053	0.847	0.025
Mof_C 	C 	0.3214	0.0582	0.7861	-0.117
Mof_H 	H 	0.2809	0.1118	0.7731	0.064
Mof_C 	C 	0.3899	0.9518	0.9003	0.347
Mof_O 	O 	0.4472	0.8877	0.9141	-0.474
Mof_O 	O 	0.335	0.9916	0.9209	-0.308
Mof_C 	C 	0.2336	0.0435	0.6163	0.048
Mof_C 	C 	0.1709	0.9526	0.6271	-0.114
Mof_H 	H 	0.1739	0.8734	0.6502	0.061
Mof_C 	C 	0.1054	0.9743	0.6053	0.042
Mof_H 	H 	0.0631	0.9214	0.6155	0.017
Mof_C 	C 	0.1033	0.073	0.5692	-0.126
Mof_C 	C 	0.1622	0.1576	0.5548	0.038
Mof_H 	H 	0.1581	0.2281	0.5298	0.025
Mof_C 	C 	0.2305	0.1401	0.5775	-0.105
Mof_H 	H 	0.2724	0.1924	0.5666	0.061
Mof_C 	C 	0.0325	0.086	0.5428	0.395
Mof_O 	O 	0.0347	0.183	0.5076	-0.506
Mof_O 	O 	0.9787	0.0235	0.5558	-0.496
Mof_C 	C 	0.7355	0.4955	0.4365	0.374
Mof_O 	O 	0.6773	0.5219	0.4562	-0.464
Mof_O 	O 	0.7958	0.4587	0.4596	-0.468
Mof_C 	C 	0.7388	0.5026	0.3909	-0.165
Mof_C 	C 	0.6889	0.5869	0.3655	0.069
Mof_H 	H 	0.6513	0.644	0.3799	0.013
Mof_C 	C 	0.6912	0.5924	0.3202	-0.123
Mof_H 	H 	0.6547	0.6525	0.3048	0.048
Mof_C 	C 	0.7444	0.5137	0.2955	0.047
Mof_C 	C 	0.7964	0.4254	0.3212	-0.122
Mof_H 	H 	0.8339	0.3687	0.3064	0.071
Mof_C 	C 	0.7945	0.4189	0.3666	0.063
Mof_H 	H 	0.8304	0.3584	0.3823	0.007
Mof_C 	C 	0.7473	0.5223	0.2498	0.005
Mof_C 	C 	0.6837	0.5434	0.2212	-0.089
Mof_H 	H 	0.6385	0.5534	0.2351	0.041
Mof_C 	C 	0.6844	0.5498	0.1761	0.03
Mof_C 	C 	0.747	0.5193	0.1553	-0.092
Mof_H 	H 	0.7465	0.5097	0.1241	0.06
Mof_C 	C 	0.8154	0.5006	0.1793	0.026
Mof_C 	C 	0.8126	0.4982	0.2246	-0.082
Mof_H 	H 	0.8561	0.4794	0.2406	0.057
Mof_C 	C 	0.6148	0.566	0.1513	0.032
Mof_C 	C 	0.5595	0.6703	0.1668	-0.1
Mof_H 	H 	0.5653	0.7286	0.1939	0.045
Mof_C 	C 	0.4975	0.6857	0.1422	0.04
Mof_H 	H 	0.4609	0.7565	0.153	0.025
Mof_C 	C 	0.4852	0.6065	0.1037	-0.127
Mof_C 	C 	0.5374	0.499	0.0866	0.031
Mof_H 	H 	0.5295	0.4389	0.06	0.018
Mof_C 	C 	0.6019	0.4855	0.1109	-0.097
Mof_H 	H 	0.639	0.4178	0.0994	0.059
Mof_C 	C 	0.4167	0.626	0.0778	0.344
Mof_O 	O 	0.3686	0.7236	0.0916	-0.461
Mof_O 	O 	0.4043	0.537	0.0456	-0.484
Mof_C 	C 	0.8851	0.4868	0.1573	0.041
Mof_C 	C 	0.8866	0.4024	0.1127	-0.102
Mof_H 	H 	0.8434	0.3588	0.1002	0.062
Mof_C 	C 	0.9463	0.3888	0.0913	0.04
Mof_H 	H 	0.946	0.3417	0.0626	0.027
Mof_C 	C 	0.0143	0.4457	0.1112	-0.107
Mof_C 	C 	0.0097	0.5221	0.1518	0.022
Mof_H 	H 	0.0524	0.5626	0.1655	0.035
Mof_C 	C 	0.9459	0.5415	0.1728	-0.094
Mof_H 	H 	0.9461	0.5981	0.2003	0.064
Mof_C 	C 	0.0856	0.4253	0.0871	0.365
Mof_O 	O 	0.0793	0.4056	0.0474	-0.484
Mof_O 	O 	0.14	0.4399	0.1108	-0.303
Mof_H 	H 	0.9246	0.5968	0.7465	-0.688
Mof_O 	O 	0.8489	0.7	0.7749	0.284
Mof_H 	H 	0.8321	0.6045	0.7702	-0.011
Mof_Zn	Zn	0.36381	0.96886	0.05825	1.203
Mof_O 	O 	0.2579	0.4008	0.044	-0.531
Mof_C 	C 	0.4665	0.1903	0.2733	-0.991
Mof_Zn	Zn	0.30317	0.61433	0.02373	1.227
Mof_O 	O 	0.358	0.8236	0.0017	-0.663
Mof_B 	B 	0.4555	0.167	0.33	0.73
Mof_H 	H 	0.4103	0.221	0.3493	-0.237
Mof_Zn	Zn	0.16786	0.36265	0.01592	1.215
Mof_B 	B 	0.4408	0.9918	0.2938	0.194
Mof_H 	H 	0.3868	0.9322	0.2893	-0.107
Mof_Zn	Zn	0.44865	0.77632	0.97341	1.193
Mof_B 	B 	0.5016	0.0121	0.2493	0.785
Mof_H 	H 	0.4856	0.9677	0.2155	-0.262
Mof_B 	B 	0.5534	0.1914	0.2572	0.279
Mof_H 	H 	0.5732	0.2627	0.2281	-0.129
Mof_B 	B 	0.5259	0.2916	0.3061	0.757
Mof_H 	H 	0.5268	0.4294	0.3101	-0.263
Mof_B 	B 	0.4933	0.9738	0.3441	0.053
Mof_H 	H 	0.4734	0.9018	0.3731	-0.06
Mof_B 	B 	0.5248	0.8751	0.2933	-0.246
Mof_H 	H 	0.5262	0.7376	0.2888	0.008
Mof_B 	B 	0.5886	0.994	0.2714	-0.362
Mof_H 	H 	0.632	0.9333	0.2519	0.047
Mof_B 	B 	0.6073	0.1757	0.306	0.045
Mof_H 	H 	0.6615	0.2352	0.3096	-0.051
Mof_C 	C 	0.5438	0.1555	0.3484	-0.771
Mof_B 	B 	0.5869	0.9768	0.33	0.865
Mof_H 	H 	0.6283	0.9085	0.3501	-0.283
Mof_C 	C 	0.406	0.288	0.2503	0.901
Mof_H 	H 	0.3613	0.2806	0.2682	-0.529
Mof_O 	O 	0.4287	0.458	0.2478	0.511
Mof_H 	H 	0.3934	0.5208	0.2427	-0.091
Mof_C 	C 	0.3907	0.2244	0.2051	-0.292
Mof_C 	C 	0.3447	0.099	0.1967	0.096
Mof_H 	H 	0.3188	0.05	0.2202	-0.013
Mof_C 	C 	0.3347	0.0397	0.1524	-0.025
Mof_H 	H 	0.2973	0.9618	0.1471	0.041
Mof_N 	N 	0.3728	0.0847	0.119	-0.21
Mof_C 	C 	0.4215	0.203	0.1261	-0.022
Mof_H 	H 	0.4496	0.2385	0.102	0.03
Mof_C 	C 	0.4335	0.2778	0.1671	0.07
Mof_H 	H 	0.4688	0.362	0.1705	0.005
Mof_C 	C 	0.564	0.2316	0.395	0.353
Mof_H 	H 	0.6038	0.3136	0.3914	-0.071
Mof_O 	O 	0.5018	0.3145	0.4081	-0.452
Mof_H 	H 	0.5076	0.3504	0.4339	0.241
Mof_C 	C 	0.5873	0.1013	0.4272	-0.081
Mof_C 	C 	0.5426	0.0217	0.4557	-0.045
Mof_H 	H 	0.4934	0.0521	0.4574	0.043
Mof_C 	C 	0.5697	0.8986	0.4816	0.025
Mof_H 	H 	0.5368	0.8375	0.4989	0.011
Mof_N 	N 	0.6398	0.8568	0.4844	-0.243
Mof_C 	C 	0.6818	0.9418	0.457	0.05
Mof_H 	H 	0.7312	0.9116	0.4566	0.008
Mof_C 	C 	0.6621	0.0604	0.4311	-0.058
Mof_H 	H 	0.6968	0.1201	0.4147	0.058
Mof_O 	O 	0.2554	0.9753	0.0648	-0.483
Mof_C 	C 	0.2061	0.8653	0.0572	0.426
Mof_O 	O 	0.212	0.7349	0.0377	-0.506
Mof_C 	C 	0.1336	0.9049	0.0773	-0.166
Mof_C 	C 	0.1252	0.0218	0.1103	0.093
Mof_H 	H 	0.1647	0.0884	0.1196	0.009
Mof_C 	C 	0.0634	0.0395	0.1283	-0.167
Mof_H 	H 	0.0598	0.1158	0.1521	0.086
Mof_C 	C 	0.0041	0.9584	0.116	0.086
Mof_C 	C 	0.0076	0.8481	0.0809	-0.158
Mof_H 	H 	0.9656	0.7949	0.0698	0.09
Mof_C 	C 	0.0754	0.8175	0.0624	0.09
Mof_H 	H 	0.0804	0.7371	0.0397	0.01
Mof_C 	C 	0.9348	0.986	0.1428	0.018
Mof_C 	C 	0.9348	0.9962	0.1844	-0.068
Mof_H 	H 	0.9797	0.0003	0.1997	0.051
Mof_C 	C 	0.8682	0.0022	0.2106	0.004
Mof_C 	C 	0.8073	0.9924	0.1871	-0.06
Mof_H 	H 	0.7639	0.0042	0.203	0.042
Mof_C 	C 	0.8003	0.9665	0.1417	0.011
Mof_C 	C 	0.8662	0.9631	0.1164	-0.075
Mof_H 	H 	0.866	0.9475	0.0854	0.053
Mof_C 	C 	0.8751	0.0162	0.2591	0.051
Mof_C 	C 	0.9307	0.1042	0.2784	-0.117
Mof_H 	H 	0.965	0.1603	0.2609	0.067
Mof_C 	C 	0.9353	0.1089	0.3245	0.038
Mof_H 	H 	0.9741	0.1665	0.3383	0.024
Mof_C 	C 	0.885	0.0321	0.3507	-0.121
Mof_C 	C 	0.8296	0.9495	0.3294	0.05
Mof_H 	H 	0.7951	0.8947	0.347	0.024
Mof_C 	C 	0.8214	0.9418	0.2861	-0.118
Mof_H 	H 	0.7809	0.8882	0.2731	0.065
Mof_C 	C 	0.8899	0.0482	0.4003	0.347
Mof_O 	O 	0.9472	0.1123	0.4141	-0.473
Mof_O 	O 	0.835	0.0084	0.4209	-0.308
Mof_C 	C 	0.7336	0.9565	0.1163	0.052
Mof_C 	C 	0.6709	0.0474	0.1271	-0.118
Mof_H 	H 	0.6739	0.1266	0.1502	0.063
Mof_C 	C 	0.6054	0.0257	0.1053	0.043
Mof_H 	H 	0.5631	0.0786	0.1155	0.019
Mof_C 	C 	0.6033	0.927	0.0692	-0.127
Mof_C 	C 	0.6622	0.8424	0.0548	0.041
Mof_H 	H 	0.6581	0.7719	0.0298	0.025
Mof_C 	C 	0.7305	0.8599	0.0775	-0.107
Mof_H 	H 	0.7724	0.8076	0.0666	0.062
Mof_C 	C 	0.5325	0.914	0.0428	0.405
Mof_O 	O 	0.5347	0.817	0.0076	-0.504
Mof_O 	O 	0.4787	0.9765	0.0558	-0.504
Mof_C 	C 	0.2355	0.5045	0.9365	0.374
Mof_O 	O 	0.1773	0.4781	0.9562	-0.464
Mof_O 	O 	0.2958	0.5413	0.9596	-0.468
Mof_C 	C 	0.2388	0.4974	0.8909	-0.166
Mof_C 	C 	0.1889	0.4131	0.8655	0.07
Mof_H 	H 	0.1513	0.356	0.8799	0.012
Mof_C 	C 	0.1912	0.4076	0.8202	-0.124
Mof_H 	H 	0.1547	0.3475	0.8048	0.048
Mof_C 	C 	0.2444	0.4863	0.7955	0.048
Mof_C 	C 	0.2964	0.5746	0.8212	-0.123
Mof_H 	H 	0.3339	0.6313	0.8064	0.072
Mof_C 	C 	0.2945	0.5811	0.8666	0.063
Mof_H 	H 	0.3304	0.6416	0.8823	0.006
Mof_C 	C 	0.2473	0.4777	0.7498	0.003
Mof_C 	C 	0.1837	0.4566	0.7212	-0.087
Mof_H 	H 	0.1385	0.4466	0.7351	0.039
Mof_C 	C 	0.1844	0.4502	0.6761	0.027
Mof_C 	C 	0.247	0.4807	0.6553	-0.089
Mof_H 	H 	0.2465	0.4903	0.6241	0.059
Mof_C 	C 	0.3154	0.4994	0.6793	0.022
Mof_C 	C 	0.3126	0.5018	0.7246	-0.079
Mof_H 	H 	0.3561	0.5206	0.7406	0.056
Mof_C 	C 	0.1148	0.434	0.6513	0.035
Mof_C 	C 	0.0595	0.3297	0.6668	-0.114
Mof_H 	H 	0.0653	0.2714	0.6939	0.048
Mof_C 	C 	0.9975	0.3143	0.6422	0.053
Mof_H 	H 	0.9609	0.2435	0.653	0.022
Mof_C 	C 	0.9852	0.3935	0.6037	-0.121
Mof_C 	C 	0.0374	0.501	0.5866	0.022
Mof_H 	H 	0.0295	0.5611	0.56	0.018
Mof_C 	C 	0.1019	0.5145	0.6109	-0.097
Mof_H 	H 	0.139	0.5822	0.5994	0.059
Mof_C 	C 	0.9167	0.374	0.5778	0.343
Mof_O 	O 	0.8686	0.2764	0.5916	-0.461
Mof_O 	O 	0.9043	0.463	0.5456	-0.482
Mof_C 	C 	0.3851	0.5132	0.6573	0.048
Mof_C 	C 	0.3866	0.5976	0.6127	-0.102
Mof_H 	H 	0.3434	0.6412	0.6002	0.062
Mof_C 	C 	0.4463	0.6112	0.5913	0.032
Mof_H 	H 	0.446	0.6583	0.5626	0.027
Mof_C 	C 	0.5143	0.5543	0.6112	-0.103
Mof_C 	C 	0.5097	0.4779	0.6518	0.038
Mof_H 	H 	0.5524	0.4374	0.6655	0.031
Mof_C 	C 	0.4459	0.4585	0.6728	-0.112
Mof_H 	H 	0.4461	0.4019	0.7003	0.068
Mof_C 	C 	0.5856	0.5747	0.5871	0.364
Mof_O 	O 	0.5793	0.5944	0.5474	-0.482
Mof_O 	O 	0.64	0.5601	0.6108	-0.302
Mof_H 	H 	0.4246	0.4032	0.2465	-0.689
Mof_O 	O 	0.3489	0.3	0.2749	0.282
Mof_H 	H 	0.3321	0.3955	0.2702	-0.011
_end
