data_functionalizedCrystal
_audit_creation_method	'EQeq! by Chris Wilmer'
_symmetry_space_group_name_H-M	'P1'
_symmetry_Int_Tables_number	1
_symmetry_cell_setting	triclinic
loop_
_symmetry_equiv_pos_as_xyz
  x,y,z
_cell_length_a	16.07
_cell_length_b	9.471
_cell_length_c	23.54
_cell_angle_alpha	90
_cell_angle_beta	107.685
_cell_angle_gamma	90
loop_
_atom_site_label
_atom_site_type_symbol
_atom_site_fract_x
_atom_site_fract_y
_atom_site_fract_z
_atom_site_charge
Mof_Eu	Eu	0.29625	0.50554	0.09731	2.262
Mof_O 	O 	0.3736	0.3233	0.16621	-0.5
Mof_O 	O 	0.4013	0.2	0.25127	-0.422
Mof_O 	O 	0.1929	0.6789	0.11297	-0.457
Mof_O 	O 	0.113	0.7722	0.16683	-0.251
Mof_O 	O 	0.3886	0.6872	0.15705	-0.476
Mof_O 	O 	0.5155	0.8058	0.18919	-0.36
Mof_O 	O 	0.3344	0.3313	0.03339	-0.507
Mof_O 	O 	0.4335	0.2095	0.00428	-0.457
Mof_O 	O 	0.2999	0.6871	0.02212	-0.479
Mof_O 	O 	0.2495	0.7858	0.9317	-0.257
Mof_O 	O 	0.1823	0.3273	0.08688	-0.481
Mof_O 	O 	0.0604	0.2142	0.03527	-0.443
Mof_N 	N 	0.2624	0.4885	0.19488	-0.209
Mof_N 	N 	0.4526	0.5088	0.09633	-0.207
Mof_N 	N 	0.1693	0.5085	0.00041	-0.244
Mof_C 	C 	0.3627	0.2941	0.2164	0.377
Mof_C 	C 	0.296	0.3823	0.233	-0.057
Mof_C 	C 	0.268	0.3533	0.282	-0.012
Mof_H 	H 	0.2916	0.2765	0.3078	0.027
Mof_C 	C 	0.2045	0.4396	0.2922	-0.054
Mof_H 	H 	0.1838	0.4223	0.3253	0.047
Mof_C 	C 	0.1711	0.5518	0.2539	-0.028
Mof_H 	H 	0.1283	0.6128	0.2608	0.05
Mof_C 	C 	0.2015	0.5727	0.2057	-0.025
Mof_C 	C 	0.1659	0.6849	0.1585	0.326
Mof_C 	C 	0.4686	0.7088	0.161	0.362
Mof_C 	C 	0.5084	0.607	0.1267	-0.047
Mof_C 	C 	0.5932	0.6158	0.1249	-0.012
Mof_H 	H 	0.6311	0.6876	0.1464	0.049
Mof_C 	C 	0.6218	0.519	0.0915	-0.058
Mof_H 	H 	0.68	0.5233	0.0896	0.05
Mof_C 	C 	0.5646	0.4142	0.0603	-0.003
Mof_H 	H 	0.5832	0.3458	0.0372	0.011
Mof_C 	C 	0.4797	0.413	0.064	-0.08
Mof_C 	C 	0.4114	0.3098	0.0316	0.382
Mof_C 	C 	0.2437	0.7017	0.9715	0.354
Mof_C 	C 	0.1646	0.6081	0.9584	-0.012
Mof_C 	C 	0.0927	0.6196	0.9077	-0.027
Mof_H 	H 	0.0898	0.692	0.8793	0.047
Mof_C 	C 	0.0254	0.5236	0.8998	-0.07
Mof_H 	H 	0.9757	0.5285	0.8654	0.083
Mof_C 	C 	0.0312	0.4197	0.9426	-0.099
Mof_H 	H 	0.9858	0.3524	0.9378	0.09
Mof_C 	C 	0.1038	0.4157	0.9921	0.018
Mof_C 	C 	0.1156	0.31	0.0415	0.328
Mof_Eu	Eu	0.70375	0.50554	0.40268	2.274
Mof_O 	O 	0.6264	0.3233	0.33379	-0.502
Mof_O 	O 	0.5987	0.2	0.24873	-0.421
Mof_O 	O 	0.8071	0.6789	0.38703	-0.45
Mof_O 	O 	0.887	0.7722	0.33317	-0.232
Mof_O 	O 	0.6114	0.6872	0.34295	-0.477
Mof_O 	O 	0.4845	0.8058	0.31081	-0.36
Mof_O 	O 	0.6656	0.3313	0.46661	-0.499
Mof_O 	O 	0.5665	0.2095	0.49572	-0.452
Mof_O 	O 	0.7001	0.6871	0.47788	-0.45
Mof_O 	O 	0.7505	0.7858	0.5683	-0.252
Mof_O 	O 	0.8177	0.3273	0.41312	-0.488
Mof_O 	O 	0.9396	0.2142	0.46473	-0.417
Mof_N 	N 	0.7376	0.4885	0.30512	-0.21
Mof_N 	N 	0.5474	0.5088	0.40367	-0.207
Mof_N 	N 	0.8307	0.5085	0.49959	-0.204
Mof_C 	C 	0.6373	0.2941	0.2836	0.378
Mof_C 	C 	0.704	0.3823	0.267	-0.054
Mof_C 	C 	0.732	0.3533	0.218	-0.013
Mof_H 	H 	0.7084	0.2765	0.1922	0.03
Mof_C 	C 	0.7955	0.4396	0.2078	-0.046
Mof_H 	H 	0.8162	0.4223	0.1747	0.05
Mof_C 	C 	0.8289	0.5518	0.2461	-0.031
Mof_H 	H 	0.8717	0.6128	0.2392	0.063
Mof_C 	C 	0.7985	0.5727	0.2943	-0.018
Mof_C 	C 	0.8341	0.6849	0.3415	0.322
Mof_C 	C 	0.5314	0.7088	0.339	0.363
Mof_C 	C 	0.4916	0.607	0.3733	-0.046
Mof_C 	C 	0.4068	0.6158	0.3751	-0.01
Mof_H 	H 	0.3689	0.6876	0.3536	0.049
Mof_C 	C 	0.3782	0.519	0.4085	-0.053
Mof_H 	H 	0.32	0.5233	0.4104	0.052
Mof_C 	C 	0.4354	0.4142	0.4397	-0.001
Mof_H 	H 	0.4168	0.3458	0.4628	0.017
Mof_C 	C 	0.5203	0.413	0.436	-0.076
Mof_C 	C 	0.5886	0.3098	0.4684	0.385
Mof_C 	C 	0.7563	0.7017	0.5285	0.319
Mof_C 	C 	0.8354	0.6081	0.5416	-0.021
Mof_C 	C 	0.9073	0.6196	0.5923	-0.052
Mof_H 	H 	0.9102	0.692	0.6207	0.071
Mof_C 	C 	0.9746	0.5236	0.6002	0.013
Mof_H 	H 	0.0243	0.5285	0.6346	0.007
Mof_C 	C 	0.9688	0.4197	0.5574	0.039
Mof_H 	H 	0.0142	0.3524	0.5622	-0.016
Mof_C 	C 	0.8962	0.4157	0.5079	-0.076
Mof_C 	C 	0.8844	0.31	0.4585	0.39
Mof_Eu	Eu	0.70375	0.49446	0.90268	2.283
Mof_O 	O 	0.6264	0.6767	0.83379	-0.493
Mof_O 	O 	0.5987	0.8	0.74873	-0.421
Mof_O 	O 	0.8071	0.3211	0.88703	-0.477
Mof_O 	O 	0.887	0.2278	0.83317	-0.293
Mof_O 	O 	0.6114	0.3128	0.84295	-0.526
Mof_O 	O 	0.4845	0.1942	0.81081	-0.497
Mof_O 	O 	0.6656	0.6687	0.96661	-0.46
Mof_O 	O 	0.5665	0.7905	0.99572	-0.358
Mof_O 	O 	0.7001	0.3129	0.97788	-0.448
Mof_O 	O 	0.7505	0.2142	0.0683	-0.307
Mof_O 	O 	0.8177	0.6727	0.91312	-0.466
Mof_O 	O 	0.9396	0.7858	0.96473	-0.341
Mof_N 	N 	0.7376	0.5115	0.80512	-0.21
Mof_N 	N 	0.5474	0.4912	0.90367	-0.206
Mof_N 	N 	0.8307	0.4915	0.99959	-0.164
Mof_C 	C 	0.6373	0.7059	0.7836	0.391
Mof_C 	C 	0.704	0.6177	0.767	-0.047
Mof_C 	C 	0.732	0.6467	0.718	-0.008
Mof_H 	H 	0.7084	0.7235	0.6922	0.052
Mof_C 	C 	0.7955	0.5604	0.7078	-0.043
Mof_H 	H 	0.8162	0.5777	0.6747	0.053
Mof_C 	C 	0.8289	0.4482	0.7461	-0.026
Mof_H 	H 	0.8717	0.3872	0.7392	0.046
Mof_C 	C 	0.7985	0.4273	0.7943	-0.033
Mof_C 	C 	0.8341	0.3151	0.8415	0.325
Mof_C 	C 	0.5314	0.2912	0.839	0.391
Mof_C 	C 	0.4916	0.393	0.8733	-0.07
Mof_C 	C 	0.4068	0.3842	0.8751	0.002
Mof_H 	H 	0.3689	0.3124	0.8536	0.019
Mof_C 	C 	0.3782	0.481	0.9085	-0.053
Mof_H 	H 	0.32	0.4767	0.9104	0.05
Mof_C 	C 	0.4354	0.5858	0.9397	-0.002
Mof_H 	H 	0.4168	0.6542	0.9628	0.042
Mof_C 	C 	0.5203	0.587	0.936	-0.055
Mof_C 	C 	0.5886	0.6902	0.9684	0.373
Mof_C 	C 	0.7563	0.2983	0.0285	0.291
Mof_C 	C 	0.8354	0.3919	0.0416	-0.063
Mof_C 	C 	0.9073	0.3804	0.0923	-0.025
Mof_H 	H 	0.9102	0.308	0.1207	0.038
Mof_C 	C 	0.9746	0.4764	0.1002	-0.016
Mof_H 	H 	0.0243	0.4715	0.1346	0.011
Mof_C 	C 	0.9688	0.5803	0.0574	0.072
Mof_H 	H 	0.0142	0.6476	0.0622	-0.016
Mof_C 	C 	0.8962	0.5843	0.0079	-0.128
Mof_C 	C 	0.8844	0.69	0.9585	0.424
Mof_Eu	Eu	0.29625	0.49446	0.59732	2.27
Mof_O 	O 	0.3736	0.6767	0.66621	-0.494
Mof_O 	O 	0.4013	0.8	0.75127	-0.421
Mof_O 	O 	0.1929	0.3211	0.61297	-0.489
Mof_O 	O 	0.113	0.2278	0.66683	-0.319
Mof_O 	O 	0.3886	0.3128	0.65705	-0.526
Mof_O 	O 	0.5155	0.1942	0.68919	-0.499
Mof_O 	O 	0.3344	0.6687	0.53339	-0.472
Mof_O 	O 	0.4335	0.7905	0.50428	-0.384
Mof_O 	O 	0.2999	0.3129	0.52212	-0.484
Mof_O 	O 	0.2495	0.2142	0.4317	-0.319
Mof_O 	O 	0.1823	0.6727	0.58688	-0.463
Mof_O 	O 	0.0604	0.7858	0.53527	-0.384
Mof_N 	N 	0.2624	0.5115	0.69488	-0.209
Mof_N 	N 	0.4526	0.4912	0.59633	-0.205
Mof_N 	N 	0.1693	0.4915	0.50041	-0.202
Mof_C 	C 	0.3627	0.7059	0.7164	0.39
Mof_C 	C 	0.296	0.6177	0.733	-0.05
Mof_C 	C 	0.268	0.6467	0.782	-0.008
Mof_H 	H 	0.2916	0.7235	0.8078	0.051
Mof_C 	C 	0.2045	0.5604	0.7922	-0.051
Mof_H 	H 	0.1838	0.5777	0.8253	0.051
Mof_C 	C 	0.1711	0.4482	0.7539	-0.023
Mof_H 	H 	0.1283	0.3872	0.7608	0.032
Mof_C 	C 	0.2015	0.4273	0.7057	-0.041
Mof_C 	C 	0.1659	0.3151	0.6585	0.33
Mof_C 	C 	0.4686	0.2912	0.661	0.39
Mof_C 	C 	0.5084	0.393	0.6267	-0.074
Mof_C 	C 	0.5932	0.3842	0.6249	0.001
Mof_H 	H 	0.6311	0.3124	0.6464	0.017
Mof_C 	C 	0.6218	0.481	0.5915	-0.062
Mof_H 	H 	0.68	0.4767	0.5896	0.049
Mof_C 	C 	0.5646	0.5858	0.5603	-0
Mof_H 	H 	0.5832	0.6542	0.5372	0.031
Mof_C 	C 	0.4797	0.587	0.564	-0.065
Mof_C 	C 	0.4114	0.6902	0.5316	0.377
Mof_C 	C 	0.2437	0.2983	0.4715	0.329
Mof_C 	C 	0.1646	0.3919	0.4584	-0.06
Mof_C 	C 	0.0927	0.3804	0.4077	0.006
Mof_H 	H 	0.0898	0.308	0.3793	0.009
Mof_C 	C 	0.0254	0.4764	0.3998	-0.111
Mof_H 	H 	0.9757	0.4715	0.3654	0.092
Mof_C 	C 	0.0312	0.5803	0.4426	-0.052
Mof_H 	H 	0.9858	0.6476	0.4378	0.08
Mof_C 	C 	0.1038	0.5843	0.4921	-0.045
Mof_C 	C 	0.1156	0.69	0.5415	0.371
Mof_Ca	Ca	0.5	0	-0	0.823
Mof_Ca	Ca	0.5	0	0.5	0.874
Mof_Ca	Ca	0.5	0.0035	0.25	1.039
Mof_Ca	Ca	0.5	0.9965	0.75	1.456
Mof_Ca	Ca	-0	0	-0	0.784
Mof_Ca	Ca	3.58037e-33	0	0.5	0.832
_end
