# CIF file generated by openbabel 3.1.0, see https://openbabel.org
data_I
_chemical_name_common 'image0'
_cell_length_a 24.8443
_cell_length_b 12.8836
_cell_length_c 15.0538
_cell_angle_alpha 90
_cell_angle_beta 96.709
_cell_angle_gamma 90
_space_group_name_H-M_alt 'P 1'
_space_group_name_Hall 'P 1'
loop_
    _symmetry_equiv_pos_as_xyz
    x,y,z
loop_
    _atom_site_label
    _atom_site_type_symbol
    _atom_site_fract_x
    _atom_site_fract_y
    _atom_site_fract_z
    _atom_site_occupancy
    Ce1      Ce       0.32881    0.79696    0.03383    1.000
    O1       O        0.30629    0.74110    0.87850    1.000
    O2       O        0.22817    0.65570    0.84840    1.000
    O3       O        0.20203    0.45270    0.56060    1.000
    O4       O        0.27345    0.36060    0.53670    1.000
    O5       O        0.59850    0.66790    0.50160    1.000
    O6       O        0.58481    0.82930    0.54030    1.000
    C1       C        0.27550    0.67850    0.83410    1.000
    C2       C        0.29716    0.62780    0.75490    1.000
    C3       C        0.26597    0.56010    0.70040    1.000
    H1       H        0.23020    0.54800    0.71030    1.000
    C4       C        0.28700    0.50970    0.63110    1.000
    C5       C        0.25216    0.43610    0.57300    1.000
    C6       C        0.33989    0.53060    0.61440    1.000
    H2       H        0.35440    0.49530    0.56880    1.000
    C7       C        0.37135    0.60360    0.66490    1.000
    C8       C        0.34965    0.65050    0.73650    1.000
    H3       H        0.37050    0.69760    0.77250    1.000
    C9       C        0.42532    0.63600    0.64070    1.000
    C10      C        0.45978    0.56530    0.60720    1.000
    H4       H        0.45050    0.49530    0.60440    1.000
    C11      C        0.50795    0.59720    0.57780    1.000
    H5       H        0.53080    0.54850    0.55630    1.000
    C12      C        0.52220    0.70070    0.58000    1.000
    C13      C        0.57176    0.73460    0.53830    1.000
    C14      C        0.48970    0.76970    0.61620    1.000
    H6       H        0.49990    0.83910    0.62080    1.000
    C15      C        0.44150    0.73880    0.64640    1.000
    H7       H        0.41980    0.78760    0.67080    1.000
    Ce2      Ce       0.82881    0.29696    0.03383    1.000
    O7       O        0.80629    0.24110    0.87850    1.000
    O8       O        0.72817    0.15570    0.84840    1.000
    O9       O        0.70203    0.95270    0.56060    1.000
    O10      O        0.77345    0.86060    0.53670    1.000
    O11      O        0.09850    0.16790    0.50160    1.000
    O12      O        0.08481    0.32930    0.54030    1.000
    C16      C        0.77550    0.17850    0.83410    1.000
    C17      C        0.79716    0.12780    0.75490    1.000
    C18      C        0.76597    0.06010    0.70040    1.000
    H8       H        0.73020    0.04800    0.71030    1.000
    C19      C        0.78700    0.00970    0.63110    1.000
    C20      C        0.75216    0.93610    0.57300    1.000
    C21      C        0.83989    0.03060    0.61440    1.000
    H9       H        0.85440    0.99530    0.56880    1.000
    C22      C        0.87135    0.10360    0.66490    1.000
    C23      C        0.84965    0.15050    0.73650    1.000
    H10      H        0.87050    0.19760    0.77250    1.000
    C24      C        0.92532    0.13600    0.64070    1.000
    C25      C        0.95978    0.06530    0.60720    1.000
    H11      H        0.95050    0.99530    0.60440    1.000
    C26      C        0.00795    0.09720    0.57780    1.000
    H12      H        0.03080    0.04850    0.55630    1.000
    C27      C        0.02220    0.20070    0.58000    1.000
    C28      C        0.07176    0.23460    0.53830    1.000
    C29      C        0.98970    0.26970    0.61620    1.000
    H13      H        0.99990    0.33910    0.62080    1.000
    C30      C        0.94150    0.23880    0.64640    1.000
    H14      H        0.91980    0.28760    0.67080    1.000
    Ce3      Ce       0.67119    0.79696    0.46617    1.000
    O13      O        0.69371    0.74110    0.62150    1.000
    O14      O        0.77183    0.65570    0.65160    1.000
    O15      O        0.79797    0.45270    0.93940    1.000
    O16      O        0.72655    0.36060    0.96330    1.000
    O17      O        0.40150    0.66790    0.99840    1.000
    O18      O        0.41519    0.82930    0.95970    1.000
    C31      C        0.72450    0.67850    0.66590    1.000
    C32      C        0.70284    0.62780    0.74510    1.000
    C33      C        0.73403    0.56010    0.79960    1.000
    H15      H        0.76980    0.54800    0.78970    1.000
    C34      C        0.71300    0.50970    0.86890    1.000
    C35      C        0.74784    0.43610    0.92700    1.000
    C36      C        0.66011    0.53060    0.88560    1.000
    H16      H        0.64560    0.49530    0.93120    1.000
    C37      C        0.62865    0.60360    0.83510    1.000
    C38      C        0.65035    0.65050    0.76350    1.000
    H17      H        0.62950    0.69760    0.72750    1.000
    C39      C        0.57468    0.63600    0.85930    1.000
    C40      C        0.54022    0.56530    0.89280    1.000
    H18      H        0.54950    0.49530    0.89560    1.000
    C41      C        0.49205    0.59720    0.92220    1.000
    H19      H        0.46920    0.54850    0.94370    1.000
    C42      C        0.47780    0.70070    0.92000    1.000
    C43      C        0.42824    0.73460    0.96170    1.000
    C44      C        0.51030    0.76970    0.88380    1.000
    H20      H        0.50010    0.83910    0.87920    1.000
    C45      C        0.55850    0.73880    0.85360    1.000
    H21      H        0.58020    0.78760    0.82920    1.000
    Ce4      Ce       0.17119    0.29696    0.46617    1.000
    O19      O        0.19371    0.24110    0.62150    1.000
    O20      O        0.27183    0.15570    0.65160    1.000
    O21      O        0.29797    0.95270    0.93940    1.000
    O22      O        0.22655    0.86060    0.96330    1.000
    O23      O        0.90150    0.16790    0.99840    1.000
    O24      O        0.91519    0.32930    0.95970    1.000
    C46      C        0.22450    0.17850    0.66590    1.000
    C47      C        0.20284    0.12780    0.74510    1.000
    C48      C        0.23403    0.06010    0.79960    1.000
    H22      H        0.26980    0.04800    0.78970    1.000
    C49      C        0.21300    0.00970    0.86890    1.000
    C50      C        0.24784    0.93610    0.92700    1.000
    C51      C        0.16011    0.03060    0.88560    1.000
    H23      H        0.14560    0.99530    0.93120    1.000
    C52      C        0.12865    0.10360    0.83510    1.000
    C53      C        0.15035    0.15050    0.76350    1.000
    H24      H        0.12950    0.19760    0.72750    1.000
    C54      C        0.07468    0.13600    0.85930    1.000
    C55      C        0.04022    0.06530    0.89280    1.000
    H25      H        0.04950    0.99530    0.89560    1.000
    C56      C        0.99205    0.09720    0.92220    1.000
    H26      H        0.96920    0.04850    0.94370    1.000
    C57      C        0.97780    0.20070    0.92000    1.000
    C58      C        0.92824    0.23460    0.96170    1.000
    C59      C        0.01030    0.26970    0.88380    1.000
    H27      H        0.00010    0.33910    0.87920    1.000
    C60      C        0.05850    0.23880    0.85360    1.000
    H28      H        0.08020    0.28760    0.82920    1.000
    Ce5      Ce       0.67119    0.20304    0.96617    1.000
    O25      O        0.69371    0.25890    0.12150    1.000
    O26      O        0.77183    0.34430    0.15160    1.000
    O27      O        0.79797    0.54730    0.43940    1.000
    O28      O        0.72655    0.63940    0.46330    1.000
    O29      O        0.40150    0.33210    0.49840    1.000
    O30      O        0.41519    0.17070    0.45970    1.000
    C61      C        0.72450    0.32150    0.16590    1.000
    C62      C        0.70284    0.37220    0.24510    1.000
    C63      C        0.73403    0.43990    0.29960    1.000
    H29      H        0.76980    0.45200    0.28970    1.000
    C64      C        0.71300    0.49030    0.36890    1.000
    C65      C        0.74784    0.56390    0.42700    1.000
    C66      C        0.66011    0.46940    0.38560    1.000
    H30      H        0.64560    0.50470    0.43120    1.000
    C67      C        0.62865    0.39640    0.33510    1.000
    C68      C        0.65035    0.34950    0.26350    1.000
    H31      H        0.62950    0.30240    0.22750    1.000
    C69      C        0.57468    0.36400    0.35930    1.000
    C70      C        0.54022    0.43470    0.39280    1.000
    H32      H        0.54950    0.50470    0.39560    1.000
    C71      C        0.49205    0.40280    0.42220    1.000
    H33      H        0.46920    0.45150    0.44370    1.000
    C72      C        0.47780    0.29930    0.42000    1.000
    C73      C        0.42824    0.26540    0.46170    1.000
    C74      C        0.51030    0.23030    0.38380    1.000
    H34      H        0.50010    0.16090    0.37920    1.000
    C75      C        0.55850    0.26120    0.35360    1.000
    H35      H        0.58020    0.21240    0.32920    1.000
    Ce6      Ce       0.17119    0.70304    0.96617    1.000
    O31      O        0.19371    0.75890    0.12150    1.000
    O32      O        0.27183    0.84430    0.15160    1.000
    O33      O        0.29797    0.04730    0.43940    1.000
    O34      O        0.22655    0.13940    0.46330    1.000
    O35      O        0.90150    0.83210    0.49840    1.000
    O36      O        0.91519    0.67070    0.45970    1.000
    C76      C        0.22450    0.82150    0.16590    1.000
    C77      C        0.20284    0.87220    0.24510    1.000
    C78      C        0.23403    0.93990    0.29960    1.000
    H36      H        0.26980    0.95200    0.28970    1.000
    C79      C        0.21300    0.99030    0.36890    1.000
    C80      C        0.24784    0.06390    0.42700    1.000
    C81      C        0.16011    0.96940    0.38560    1.000
    H37      H        0.14560    0.00470    0.43120    1.000
    C82      C        0.12865    0.89640    0.33510    1.000
    C83      C        0.15035    0.84950    0.26350    1.000
    H38      H        0.12950    0.80240    0.22750    1.000
    C84      C        0.07468    0.86400    0.35930    1.000
    C85      C        0.04022    0.93470    0.39280    1.000
    H39      H        0.04950    0.00470    0.39560    1.000
    C86      C        0.99205    0.90280    0.42220    1.000
    H40      H        0.96920    0.95150    0.44370    1.000
    C87      C        0.97780    0.79930    0.42000    1.000
    C88      C        0.92824    0.76540    0.46170    1.000
    C89      C        0.01030    0.73030    0.38380    1.000
    H41      H        0.00010    0.66090    0.37920    1.000
    C90      C        0.05850    0.76120    0.35360    1.000
    H42      H        0.08020    0.71240    0.32920    1.000
    Ce7      Ce       0.32881    0.20304    0.53383    1.000
    O37      O        0.30629    0.25890    0.37850    1.000
    O38      O        0.22817    0.34430    0.34840    1.000
    O39      O        0.20203    0.54730    0.06060    1.000
    O40      O        0.27345    0.63940    0.03670    1.000
    O41      O        0.59850    0.33210    0.00160    1.000
    O42      O        0.58481    0.17070    0.04030    1.000
    C91      C        0.27550    0.32150    0.33410    1.000
    C92      C        0.29716    0.37220    0.25490    1.000
    C93      C        0.26597    0.43990    0.20040    1.000
    H43      H        0.23020    0.45200    0.21030    1.000
    C94      C        0.28700    0.49030    0.13110    1.000
    C95      C        0.25216    0.56390    0.07300    1.000
    C96      C        0.33989    0.46940    0.11440    1.000
    H44      H        0.35440    0.50470    0.06880    1.000
    C97      C        0.37135    0.39640    0.16490    1.000
    C98      C        0.34965    0.34950    0.23650    1.000
    H45      H        0.37050    0.30240    0.27250    1.000
    C99      C        0.42532    0.36400    0.14070    1.000
    C100     C        0.45978    0.43470    0.10720    1.000
    H46      H        0.45050    0.50470    0.10440    1.000
    C101     C        0.50795    0.40280    0.07780    1.000
    H47      H        0.53080    0.45150    0.05630    1.000
    C102     C        0.52220    0.29930    0.08000    1.000
    C103     C        0.57176    0.26540    0.03830    1.000
    C104     C        0.48970    0.23030    0.11620    1.000
    H48      H        0.49990    0.16090    0.12080    1.000
    C105     C        0.44150    0.26120    0.14640    1.000
    H49      H        0.41980    0.21240    0.17080    1.000
    Ce8      Ce       0.82881    0.70304    0.53383    1.000
    O43      O        0.80629    0.75890    0.37850    1.000
    O44      O        0.72817    0.84430    0.34840    1.000
    O45      O        0.70203    0.04730    0.06060    1.000
    O46      O        0.77345    0.13940    0.03670    1.000
    O47      O        0.09850    0.83210    0.00160    1.000
    O48      O        0.08481    0.67070    0.04030    1.000
    C106     C        0.77550    0.82150    0.33410    1.000
    C107     C        0.79716    0.87220    0.25490    1.000
    C108     C        0.76597    0.93990    0.20040    1.000
    H50      H        0.73020    0.95200    0.21030    1.000
    C109     C        0.78700    0.99030    0.13110    1.000
    C110     C        0.75216    0.06390    0.07300    1.000
    C111     C        0.83989    0.96940    0.11440    1.000
    H51      H        0.85440    0.00470    0.06880    1.000
    C112     C        0.87135    0.89640    0.16490    1.000
    C113     C        0.84965    0.84950    0.23650    1.000
    H52      H        0.87050    0.80240    0.27250    1.000
    C114     C        0.92532    0.86400    0.14070    1.000
    C115     C        0.95978    0.93470    0.10720    1.000
    H53      H        0.95050    0.00470    0.10440    1.000
    C116     C        0.00795    0.90280    0.07780    1.000
    H54      H        0.03080    0.95150    0.05630    1.000
    C117     C        0.02220    0.79930    0.08000    1.000
    C118     C        0.07176    0.76540    0.03830    1.000
    C119     C        0.98970    0.73030    0.11620    1.000
    H55      H        0.99990    0.66090    0.12080    1.000
    C120     C        0.94150    0.76120    0.14640    1.000
    H56      H        0.91980    0.71240    0.17080    1.000
