# CIF file generated by openbabel 3.1.0, see https://openbabel.org
data_I
_chemical_name_common 'image0'
_cell_length_a 19.3717
_cell_length_b 19.3717
_cell_length_c 52.616
_cell_angle_alpha 90
_cell_angle_beta 90
_cell_angle_gamma 120
_space_group_name_H-M_alt 'P 1'
_space_group_name_Hall 'P 1'
loop_
    _symmetry_equiv_pos_as_xyz
    x,y,z
loop_
    _atom_site_label
    _atom_site_type_symbol
    _atom_site_fract_x
    _atom_site_fract_y
    _atom_site_fract_z
    _atom_site_occupancy
    Mn1      Mn       0.96505    0.89032    0.78083    1.000
    O1       O        0.92619    0.78065    0.78235    1.000
    O2       O        0.84528    0.93066    0.76896    1.000
    N1       N        0.99550    0.90190    0.82113    1.000
    N2       N        0.00920    0.85290    0.83018    1.000
    N3       N        0.02220    0.80580    0.83893    1.000
    N4       N        0.85340    0.86930    0.77937    1.000
    N5       N        0.09210    0.98720    0.86882    1.000
    C1       C        0.85920    0.72750    0.79343    1.000
    C2       C        0.85560    0.65750    0.80275    1.000
    H1       H        0.90110    0.65130    0.80140    1.000
    C3       C        0.78670    0.59770    0.81380    1.000
    H2       H        0.78500    0.55060    0.81970    1.000
    C4       C        0.72020    0.60660    0.81626    1.000
    H3       H        0.67340    0.56600    0.82420    1.000
    C5       C        0.72200    0.67380    0.80721    1.000
    H4       H        0.67600    0.67900    0.80890    1.000
    C6       C        0.79040    0.73550    0.79536    1.000
    C7       C        0.78750    0.80450    0.78525    1.000
    C8       C        0.70930    0.80160    0.78088    1.000
    H5       H        0.70290    0.83540    0.79340    1.000
    H6       H        0.66560    0.74650    0.78260    1.000
    H7       H        0.70860    0.82090    0.76370    1.000
    C9       C        0.15980    0.00360    0.85702    1.000
    H8       H        0.16890    0.02570    0.84040    1.000
    C10      C        0.21790    0.99030    0.86783    1.000
    H9       H        0.26520    0.00330    0.85870    1.000
    C11      C        0.20590    0.95800    0.89179    1.000
    C12      C        0.13560    0.93910    0.90400    1.000
    H10      H        0.12500    0.91630    0.92050    1.000
    C13      C        0.08040    0.95360    0.89192    1.000
    H11      H        0.03180    0.93910    0.90040    1.000
    C14      C        0.26950    0.94600    0.90416    1.000
    H12      H        0.29460    0.92860    0.89110    1.000
    H13      H        0.24480    0.90350    0.91710    1.000
    H14      H        0.35830    0.06540    0.90360    1.000
    Mn2      Mn       0.10968    0.07473    0.78083    1.000
    O3       O        0.21935    0.14554    0.78235    1.000
    O4       O        0.06934    0.91462    0.76896    1.000
    N6       N        0.09810    0.09360    0.82113    1.000
    N7       N        0.14710    0.15630    0.83018    1.000
    N8       N        0.19420    0.21640    0.83893    1.000
    N9       N        0.13070    0.98410    0.77937    1.000
    N10      N        0.01280    0.10490    0.86882    1.000
    C15      C        0.27250    0.13170    0.79343    1.000
    C16      C        0.34250    0.19810    0.80275    1.000
    H15      H        0.34870    0.24980    0.80140    1.000
    C17      C        0.40230    0.18900    0.81380    1.000
    H16      H        0.44940    0.23440    0.81970    1.000
    C18      C        0.39340    0.11360    0.81626    1.000
    H17      H        0.43400    0.10740    0.82420    1.000
    C19      C        0.32620    0.04820    0.80721    1.000
    H18      H        0.32100    0.99700    0.80890    1.000
    C20      C        0.26450    0.05490    0.79536    1.000
    C21      C        0.19550    0.98300    0.78525    1.000
    C22      C        0.19840    0.90770    0.78088    1.000
    H19      H        0.16460    0.86750    0.79340    1.000
    H20      H        0.25350    0.91910    0.78260    1.000
    H21      H        0.17910    0.88770    0.76370    1.000
    C23      C        0.99640    0.15620    0.85702    1.000
    H22      H        0.97430    0.14320    0.84040    1.000
    C24      C        0.00970    0.22760    0.86783    1.000
    H23      H        0.99670    0.26190    0.85870    1.000
    C25      C        0.04200    0.24790    0.89179    1.000
    C26      C        0.06090    0.19650    0.90400    1.000
    H24      H        0.08370    0.20870    0.92050    1.000
    C27      C        0.04640    0.12680    0.89192    1.000
    H25      H        0.06090    0.09270    0.90040    1.000
    C28      C        0.05400    0.32350    0.90416    1.000
    H26      H        0.07140    0.36600    0.89110    1.000
    H27      H        0.09650    0.34130    0.91710    1.000
    H28      H        0.93460    0.29290    0.90360    1.000
    Mn3      Mn       0.92527    0.03495    0.78083    1.000
    O5       O        0.85446    0.07381    0.78235    1.000
    O6       O        0.08538    0.15472    0.76896    1.000
    N11      N        0.90640    0.00450    0.82113    1.000
    N12      N        0.84370    0.99080    0.83018    1.000
    N13      N        0.78360    0.97780    0.83893    1.000
    N14      N        0.01590    0.14660    0.77937    1.000
    N15      N        0.89510    0.90790    0.86882    1.000
    C29      C        0.86830    0.14080    0.79343    1.000
    C30      C        0.80190    0.14440    0.80275    1.000
    H29      H        0.75020    0.09890    0.80140    1.000
    C31      C        0.81100    0.21330    0.81380    1.000
    H30      H        0.76560    0.21500    0.81970    1.000
    C32      C        0.88640    0.27980    0.81626    1.000
    H31      H        0.89260    0.32660    0.82420    1.000
    C33      C        0.95180    0.27800    0.80721    1.000
    H32      H        0.00300    0.32400    0.80890    1.000
    C34      C        0.94510    0.20960    0.79536    1.000
    C35      C        0.01700    0.21250    0.78525    1.000
    C36      C        0.09230    0.29070    0.78088    1.000
    H33      H        0.13250    0.29710    0.79340    1.000
    H34      H        0.08090    0.33440    0.78260    1.000
    H35      H        0.11230    0.29140    0.76370    1.000
    C37      C        0.84380    0.84020    0.85702    1.000
    H36      H        0.85680    0.83110    0.84040    1.000
    C38      C        0.77240    0.78210    0.86783    1.000
    H37      H        0.73810    0.73480    0.85870    1.000
    C39      C        0.75210    0.79410    0.89179    1.000
    C40      C        0.80350    0.86440    0.90400    1.000
    H38      H        0.79130    0.87500    0.92050    1.000
    C41      C        0.87320    0.91960    0.89192    1.000
    H39      H        0.90730    0.96820    0.90040    1.000
    C42      C        0.67650    0.73050    0.90416    1.000
    H40      H        0.63400    0.70540    0.89110    1.000
    H41      H        0.65870    0.75520    0.91710    1.000
    H42      H        0.70710    0.64170    0.90360    1.000
    Mn4      Mn       0.55699    0.29838    0.05251    1.000
    O7       O        0.44732    0.25952    0.05098    1.000
    O8       O        0.59733    0.17861    0.06437    1.000
    N16      N        0.56857    0.32883    0.01220    1.000
    N17      N        0.51957    0.34253    0.00315    1.000
    N18      N        0.47247    0.35553    0.99440    1.000
    N19      N        0.53597    0.18673    0.05396    1.000
    N20      N        0.65387    0.42543    0.96451    1.000
    C43      C        0.39417    0.19253    0.03990    1.000
    C44      C        0.32417    0.18893    0.03058    1.000
    H43      H        0.31797    0.23443    0.03193    1.000
    C45      C        0.26437    0.12003    0.01953    1.000
    H44      H        0.21727    0.11833    0.01363    1.000
    C46      C        0.27327    0.05353    0.01707    1.000
    H45      H        0.23267    0.00673    0.00913    1.000
    C47      C        0.34047    0.05533    0.02612    1.000
    H46      H        0.34567    0.00933    0.02443    1.000
    C48      C        0.40217    0.12373    0.03797    1.000
    C49      C        0.47117    0.12083    0.04808    1.000
    C50      C        0.46827    0.04263    0.05245    1.000
    H47      H        0.50207    0.03623    0.03993    1.000
    H48      H        0.41317    0.99893    0.05073    1.000
    H49      H        0.48757    0.04193    0.06963    1.000
    C51      C        0.67027    0.49313    0.97631    1.000
    H50      H        0.69237    0.50223    0.99293    1.000
    C52      C        0.65697    0.55123    0.96550    1.000
    H51      H        0.66997    0.59853    0.97463    1.000
    C53      C        0.62467    0.53923    0.94154    1.000
    C54      C        0.60577    0.46893    0.92933    1.000
    H52      H        0.58297    0.45833    0.91283    1.000
    C55      C        0.62027    0.41373    0.94141    1.000
    H53      H        0.60577    0.36513    0.93293    1.000
    C56      C        0.61267    0.60283    0.92917    1.000
    H54      H        0.59527    0.62793    0.94223    1.000
    H55      H        0.57017    0.57813    0.91623    1.000
    H56      H        0.73207    0.69163    0.92973    1.000
    Mn5      Mn       0.74140    0.44301    0.05251    1.000
    O9       O        0.81221    0.55268    0.05098    1.000
    O10      O        0.58129    0.40267    0.06437    1.000
    N21      N        0.76027    0.43143    0.01220    1.000
    N22      N        0.82297    0.48043    0.00315    1.000
    N23      N        0.88307    0.52753    0.99440    1.000
    N24      N        0.65077    0.46403    0.05396    1.000
    N25      N        0.77157    0.34613    0.96451    1.000
    C57      C        0.79837    0.60583    0.03990    1.000
    C58      C        0.86477    0.67583    0.03058    1.000
    H57      H        0.91647    0.68203    0.03193    1.000
    C59      C        0.85567    0.73563    0.01953    1.000
    H58      H        0.90107    0.78273    0.01363    1.000
    C60      C        0.78027    0.72673    0.01707    1.000
    H59      H        0.77407    0.76733    0.00913    1.000
    C61      C        0.71487    0.65953    0.02612    1.000
    H60      H        0.66367    0.65433    0.02443    1.000
    C62      C        0.72157    0.59783    0.03797    1.000
    C63      C        0.64967    0.52883    0.04808    1.000
    C64      C        0.57437    0.53173    0.05245    1.000
    H61      H        0.53417    0.49793    0.03993    1.000
    H62      H        0.58577    0.58683    0.05073    1.000
    H63      H        0.55437    0.51243    0.06963    1.000
    C65      C        0.82287    0.32973    0.97631    1.000
    H64      H        0.80987    0.30763    0.99293    1.000
    C66      C        0.89427    0.34303    0.96550    1.000
    H65      H        0.92857    0.33003    0.97463    1.000
    C67      C        0.91457    0.37533    0.94154    1.000
    C68      C        0.86317    0.39423    0.92933    1.000
    H66      H        0.87537    0.41703    0.91283    1.000
    C69      C        0.79347    0.37973    0.94141    1.000
    H67      H        0.75937    0.39423    0.93293    1.000
    C70      C        0.99017    0.38733    0.92917    1.000
    H68      H        0.03267    0.40473    0.94223    1.000
    H69      H        0.00797    0.42983    0.91623    1.000
    H70      H        0.95957    0.26793    0.92973    1.000
    Mn6      Mn       0.70162    0.25860    0.05251    1.000
    O11      O        0.74048    0.18779    0.05098    1.000
    O12      O        0.82139    0.41871    0.06437    1.000
    N26      N        0.67117    0.23973    0.01220    1.000
    N27      N        0.65747    0.17703    0.00315    1.000
    N28      N        0.64447    0.11693    0.99440    1.000
    N29      N        0.81327    0.34923    0.05396    1.000
    N30      N        0.57457    0.22843    0.96451    1.000
    C71      C        0.80747    0.20163    0.03990    1.000
    C72      C        0.81107    0.13523    0.03058    1.000
    H71      H        0.76557    0.08353    0.03193    1.000
    C73      C        0.87997    0.14433    0.01953    1.000
    H72      H        0.88167    0.09893    0.01363    1.000
    C74      C        0.94647    0.21973    0.01707    1.000
    H73      H        0.99327    0.22593    0.00913    1.000
    C75      C        0.94467    0.28513    0.02612    1.000
    H74      H        0.99067    0.33633    0.02443    1.000
    C76      C        0.87627    0.27843    0.03797    1.000
    C77      C        0.87917    0.35033    0.04808    1.000
    C78      C        0.95737    0.42563    0.05245    1.000
    H75      H        0.96377    0.46583    0.03993    1.000
    H76      H        0.00107    0.41423    0.05073    1.000
    H77      H        0.95807    0.44563    0.06963    1.000
    C79      C        0.50687    0.17713    0.97631    1.000
    H78      H        0.49777    0.19013    0.99293    1.000
    C80      C        0.44877    0.10573    0.96550    1.000
    H79      H        0.40147    0.07143    0.97463    1.000
    C81      C        0.46077    0.08543    0.94154    1.000
    C82      C        0.53107    0.13683    0.92933    1.000
    H80      H        0.54167    0.12463    0.91283    1.000
    C83      C        0.58627    0.20653    0.94141    1.000
    H81      H        0.63487    0.24063    0.93293    1.000
    C84      C        0.39717    0.00983    0.92917    1.000
    H82      H        0.37207    0.96733    0.94223    1.000
    H83      H        0.42187    0.99203    0.91623    1.000
    H84      H        0.30837    0.04043    0.92973    1.000
    Mn7      Mn       0.00000    0.00000    0.84502    1.000
    O13      O        0.00000    0.00000    0.77841    1.000
    Mn8      Mn       0.66667    0.33333    0.98831    1.000
    O14      O        0.66667    0.33333    0.05492    1.000
    C85      C        0.33333    0.02302    0.91667    1.000
    C86      C        0.97698    0.31032    0.91667    1.000
    C87      C        0.68968    0.66667    0.91667    1.000
    Mn9      Mn       0.63172    0.22365    0.11416    1.000
    O15      O        0.59286    0.11398    0.11568    1.000
    O16      O        0.51195    0.26399    0.10229    1.000
    N31      N        0.66217    0.23523    0.15446    1.000
    N32      N        0.67587    0.18623    0.16351    1.000
    N33      N        0.68887    0.13913    0.17226    1.000
    N34      N        0.52007    0.20263    0.11270    1.000
    N35      N        0.75877    0.32053    0.20215    1.000
    C88      C        0.52587    0.06083    0.12676    1.000
    C89      C        0.52227    0.99083    0.13608    1.000
    H85      H        0.56777    0.98463    0.13473    1.000
    C90      C        0.45337    0.93103    0.14713    1.000
    H86      H        0.45167    0.88393    0.15303    1.000
    C91      C        0.38687    0.93993    0.14959    1.000
    H87      H        0.34007    0.89933    0.15753    1.000
    C92      C        0.38867    0.00713    0.14054    1.000
    H88      H        0.34267    0.01233    0.14223    1.000
    C93      C        0.45707    0.06883    0.12869    1.000
    C94      C        0.45417    0.13783    0.11858    1.000
    C95      C        0.37597    0.13493    0.11421    1.000
    H89      H        0.36957    0.16873    0.12673    1.000
    H90      H        0.33227    0.07983    0.11593    1.000
    H91      H        0.37527    0.15423    0.09703    1.000
    C96      C        0.82647    0.33693    0.19035    1.000
    H92      H        0.83557    0.35903    0.17373    1.000
    C97      C        0.88457    0.32363    0.20116    1.000
    H93      H        0.93187    0.33663    0.19203    1.000
    C98      C        0.87257    0.29133    0.22512    1.000
    C99      C        0.80227    0.27243    0.23733    1.000
    H94      H        0.79167    0.24963    0.25383    1.000
    C100     C        0.74707    0.28693    0.22525    1.000
    H95      H        0.69847    0.27243    0.23373    1.000
    C101     C        0.93617    0.27933    0.23749    1.000
    H96      H        0.96127    0.26193    0.22443    1.000
    H97      H        0.91147    0.23683    0.25043    1.000
    H98      H        0.02497    0.39873    0.23693    1.000
    Mn10     Mn       0.77635    0.40806    0.11416    1.000
    O17      O        0.88602    0.47887    0.11568    1.000
    O18      O        0.73601    0.24795    0.10229    1.000
    N36      N        0.76477    0.42693    0.15446    1.000
    N37      N        0.81377    0.48963    0.16351    1.000
    N38      N        0.86087    0.54973    0.17226    1.000
    N39      N        0.79737    0.31743    0.11270    1.000
    N40      N        0.67947    0.43823    0.20215    1.000
    C102     C        0.93917    0.46503    0.12676    1.000
    C103     C        0.00917    0.53143    0.13608    1.000
    H99      H        0.01537    0.58313    0.13473    1.000
    C104     C        0.06897    0.52233    0.14713    1.000
    H100     H        0.11607    0.56773    0.15303    1.000
    C105     C        0.06007    0.44693    0.14959    1.000
    H101     H        0.10067    0.44073    0.15753    1.000
    C106     C        0.99287    0.38153    0.14054    1.000
    H102     H        0.98767    0.33033    0.14223    1.000
    C107     C        0.93117    0.38823    0.12869    1.000
    C108     C        0.86217    0.31633    0.11858    1.000
    C109     C        0.86507    0.24103    0.11421    1.000
    H103     H        0.83127    0.20083    0.12673    1.000
    H104     H        0.92017    0.25243    0.11593    1.000
    H105     H        0.84577    0.22103    0.09703    1.000
    C110     C        0.66307    0.48953    0.19035    1.000
    H106     H        0.64097    0.47653    0.17373    1.000
    C111     C        0.67637    0.56093    0.20116    1.000
    H107     H        0.66337    0.59523    0.19203    1.000
    C112     C        0.70867    0.58123    0.22512    1.000
    C113     C        0.72757    0.52983    0.23733    1.000
    H108     H        0.75037    0.54203    0.25383    1.000
    C114     C        0.71307    0.46013    0.22525    1.000
    H109     H        0.72757    0.42603    0.23373    1.000
    C115     C        0.72067    0.65683    0.23749    1.000
    H110     H        0.73807    0.69933    0.22443    1.000
    H111     H        0.76317    0.67463    0.25043    1.000
    H112     H        0.60127    0.62623    0.23693    1.000
    Mn11     Mn       0.59194    0.36828    0.11416    1.000
    O19      O        0.52113    0.40714    0.11568    1.000
    O20      O        0.75205    0.48805    0.10229    1.000
    N41      N        0.57307    0.33783    0.15446    1.000
    N42      N        0.51037    0.32413    0.16351    1.000
    N43      N        0.45027    0.31113    0.17226    1.000
    N44      N        0.68257    0.47993    0.11270    1.000
    N45      N        0.56177    0.24123    0.20215    1.000
    C116     C        0.53497    0.47413    0.12676    1.000
    C117     C        0.46857    0.47773    0.13608    1.000
    H113     H        0.41687    0.43223    0.13473    1.000
    C118     C        0.47767    0.54663    0.14713    1.000
    H114     H        0.43227    0.54833    0.15303    1.000
    C119     C        0.55307    0.61313    0.14959    1.000
    H115     H        0.55927    0.65993    0.15753    1.000
    C120     C        0.61847    0.61133    0.14054    1.000
    H116     H        0.66967    0.65733    0.14223    1.000
    C121     C        0.61177    0.54293    0.12869    1.000
    C122     C        0.68367    0.54583    0.11858    1.000
    C123     C        0.75897    0.62403    0.11421    1.000
    H117     H        0.79917    0.63043    0.12673    1.000
    H118     H        0.74757    0.66773    0.11593    1.000
    H119     H        0.77897    0.62473    0.09703    1.000
    C124     C        0.51047    0.17353    0.19035    1.000
    H120     H        0.52347    0.16443    0.17373    1.000
    C125     C        0.43907    0.11543    0.20116    1.000
    H121     H        0.40477    0.06813    0.19203    1.000
    C126     C        0.41877    0.12743    0.22512    1.000
    C127     C        0.47017    0.19773    0.23733    1.000
    H122     H        0.45797    0.20833    0.25383    1.000
    C128     C        0.53987    0.25293    0.22525    1.000
    H123     H        0.57397    0.30153    0.23373    1.000
    C129     C        0.34317    0.06383    0.23749    1.000
    H124     H        0.30067    0.03873    0.22443    1.000
    H125     H        0.32537    0.08853    0.25043    1.000
    H126     H        0.37377    0.97503    0.23693    1.000
    Mn12     Mn       0.22365    0.63172    0.38584    1.000
    O21      O        0.11398    0.59286    0.38432    1.000
    O22      O        0.26399    0.51195    0.39771    1.000
    N46      N        0.23523    0.66217    0.34554    1.000
    N47      N        0.18623    0.67587    0.33649    1.000
    N48      N        0.13913    0.68887    0.32774    1.000
    N49      N        0.20263    0.52007    0.38730    1.000
    N50      N        0.32053    0.75877    0.29785    1.000
    C130     C        0.06083    0.52587    0.37324    1.000
    C131     C        0.99083    0.52227    0.36392    1.000
    H127     H        0.98463    0.56777    0.36527    1.000
    C132     C        0.93103    0.45337    0.35287    1.000
    H128     H        0.88393    0.45167    0.34697    1.000
    C133     C        0.93993    0.38687    0.35041    1.000
    H129     H        0.89933    0.34007    0.34247    1.000
    C134     C        0.00713    0.38867    0.35946    1.000
    H130     H        0.01233    0.34267    0.35777    1.000
    C135     C        0.06883    0.45707    0.37131    1.000
    C136     C        0.13783    0.45417    0.38142    1.000
    C137     C        0.13493    0.37597    0.38579    1.000
    H131     H        0.16873    0.36957    0.37327    1.000
    H132     H        0.07983    0.33227    0.38407    1.000
    H133     H        0.15423    0.37527    0.40297    1.000
    C138     C        0.33693    0.82647    0.30965    1.000
    H134     H        0.35903    0.83557    0.32627    1.000
    C139     C        0.32363    0.88457    0.29884    1.000
    H135     H        0.33663    0.93187    0.30797    1.000
    C140     C        0.29133    0.87257    0.27488    1.000
    C141     C        0.27243    0.80227    0.26267    1.000
    H136     H        0.24963    0.79167    0.24617    1.000
    C142     C        0.28693    0.74707    0.27475    1.000
    H137     H        0.27243    0.69847    0.26627    1.000
    C143     C        0.27933    0.93617    0.26251    1.000
    H138     H        0.26193    0.96127    0.27557    1.000
    H139     H        0.23683    0.91147    0.24957    1.000
    H140     H        0.39873    0.02497    0.26307    1.000
    Mn13     Mn       0.40806    0.77635    0.38584    1.000
    O23      O        0.47887    0.88602    0.38432    1.000
    O24      O        0.24795    0.73601    0.39771    1.000
    N51      N        0.42693    0.76477    0.34554    1.000
    N52      N        0.48963    0.81377    0.33649    1.000
    N53      N        0.54973    0.86087    0.32774    1.000
    N54      N        0.31743    0.79737    0.38730    1.000
    N55      N        0.43823    0.67947    0.29785    1.000
    C144     C        0.46503    0.93917    0.37324    1.000
    C145     C        0.53143    0.00917    0.36392    1.000
    H141     H        0.58313    0.01537    0.36527    1.000
    C146     C        0.52233    0.06897    0.35287    1.000
    H142     H        0.56773    0.11607    0.34697    1.000
    C147     C        0.44693    0.06007    0.35041    1.000
    H143     H        0.44073    0.10067    0.34247    1.000
    C148     C        0.38153    0.99287    0.35946    1.000
    H144     H        0.33033    0.98767    0.35777    1.000
    C149     C        0.38823    0.93117    0.37131    1.000
    C150     C        0.31633    0.86217    0.38142    1.000
    C151     C        0.24103    0.86507    0.38579    1.000
    H145     H        0.20083    0.83127    0.37327    1.000
    H146     H        0.25243    0.92017    0.38407    1.000
    H147     H        0.22103    0.84577    0.40297    1.000
    C152     C        0.48953    0.66307    0.30965    1.000
    H148     H        0.47653    0.64097    0.32627    1.000
    C153     C        0.56093    0.67637    0.29884    1.000
    H149     H        0.59523    0.66337    0.30797    1.000
    C154     C        0.58123    0.70867    0.27488    1.000
    C155     C        0.52983    0.72757    0.26267    1.000
    H150     H        0.54203    0.75037    0.24617    1.000
    C156     C        0.46013    0.71307    0.27475    1.000
    H151     H        0.42603    0.72757    0.26627    1.000
    C157     C        0.65683    0.72067    0.26251    1.000
    H152     H        0.69933    0.73807    0.27557    1.000
    H153     H        0.67463    0.76317    0.24957    1.000
    H154     H        0.62623    0.60127    0.26307    1.000
    Mn14     Mn       0.36828    0.59194    0.38584    1.000
    O25      O        0.40714    0.52113    0.38432    1.000
    O26      O        0.48805    0.75205    0.39771    1.000
    N56      N        0.33783    0.57307    0.34554    1.000
    N57      N        0.32413    0.51037    0.33649    1.000
    N58      N        0.31113    0.45027    0.32774    1.000
    N59      N        0.47993    0.68257    0.38730    1.000
    N60      N        0.24123    0.56177    0.29785    1.000
    C158     C        0.47413    0.53497    0.37324    1.000
    C159     C        0.47773    0.46857    0.36392    1.000
    H155     H        0.43223    0.41687    0.36527    1.000
    C160     C        0.54663    0.47767    0.35287    1.000
    H156     H        0.54833    0.43227    0.34697    1.000
    C161     C        0.61313    0.55307    0.35041    1.000
    H157     H        0.65993    0.55927    0.34247    1.000
    C162     C        0.61133    0.61847    0.35946    1.000
    H158     H        0.65733    0.66967    0.35777    1.000
    C163     C        0.54293    0.61177    0.37131    1.000
    C164     C        0.54583    0.68367    0.38142    1.000
    C165     C        0.62403    0.75897    0.38579    1.000
    H159     H        0.63043    0.79917    0.37327    1.000
    H160     H        0.66773    0.74757    0.38407    1.000
    H161     H        0.62473    0.77897    0.40297    1.000
    C166     C        0.17353    0.51047    0.30965    1.000
    H162     H        0.16443    0.52347    0.32627    1.000
    C167     C        0.11543    0.43907    0.29884    1.000
    H163     H        0.06813    0.40477    0.30797    1.000
    C168     C        0.12743    0.41877    0.27488    1.000
    C169     C        0.19773    0.47017    0.26267    1.000
    H164     H        0.20833    0.45797    0.24617    1.000
    C170     C        0.25293    0.53987    0.27475    1.000
    H165     H        0.30153    0.57397    0.26627    1.000
    C171     C        0.06383    0.34317    0.26251    1.000
    H166     H        0.03873    0.30067    0.27557    1.000
    H167     H        0.08853    0.32537    0.24957    1.000
    H168     H        0.97503    0.37377    0.26307    1.000
    Mn15     Mn       0.66667    0.33333    0.17835    1.000
    O27      O        0.66667    0.33333    0.11174    1.000
    Mn16     Mn       0.33333    0.66667    0.32165    1.000
    O28      O        0.33333    0.66667    0.38826    1.000
    C172     C        0.00000    0.35635    0.25000    1.000
    C173     C        0.64365    0.64365    0.25000    1.000
    C174     C        0.35635    0.00000    0.25000    1.000
    Mn17     Mn       0.29838    0.55699    0.44749    1.000
    O29      O        0.25952    0.44732    0.44902    1.000
    O30      O        0.17861    0.59733    0.43563    1.000
    N61      N        0.32883    0.56857    0.48780    1.000
    N62      N        0.34253    0.51957    0.49685    1.000
    N63      N        0.35553    0.47247    0.50560    1.000
    N64      N        0.18673    0.53597    0.44604    1.000
    N65      N        0.42543    0.65387    0.53549    1.000
    C175     C        0.19253    0.39417    0.46010    1.000
    C176     C        0.18893    0.32417    0.46942    1.000
    H169     H        0.23443    0.31797    0.46807    1.000
    C177     C        0.12003    0.26437    0.48047    1.000
    H170     H        0.11833    0.21727    0.48637    1.000
    C178     C        0.05353    0.27327    0.48293    1.000
    H171     H        0.00673    0.23267    0.49087    1.000
    C179     C        0.05533    0.34047    0.47388    1.000
    H172     H        0.00933    0.34567    0.47557    1.000
    C180     C        0.12373    0.40217    0.46203    1.000
    C181     C        0.12083    0.47117    0.45192    1.000
    C182     C        0.04263    0.46827    0.44755    1.000
    H173     H        0.03623    0.50207    0.46007    1.000
    H174     H        0.99893    0.41317    0.44927    1.000
    H175     H        0.04193    0.48757    0.43037    1.000
    C183     C        0.49313    0.67027    0.52369    1.000
    H176     H        0.50223    0.69237    0.50707    1.000
    C184     C        0.55123    0.65697    0.53450    1.000
    H177     H        0.59853    0.66997    0.52537    1.000
    C185     C        0.53923    0.62467    0.55846    1.000
    C186     C        0.46893    0.60577    0.57067    1.000
    H178     H        0.45833    0.58297    0.58717    1.000
    C187     C        0.41373    0.62027    0.55859    1.000
    H179     H        0.36513    0.60577    0.56707    1.000
    C188     C        0.60283    0.61267    0.57083    1.000
    H180     H        0.62793    0.59527    0.55777    1.000
    H181     H        0.57813    0.57017    0.58377    1.000
    H182     H        0.69163    0.73207    0.57027    1.000
    Mn18     Mn       0.44301    0.74140    0.44749    1.000
    O31      O        0.55268    0.81221    0.44902    1.000
    O32      O        0.40267    0.58129    0.43563    1.000
    N66      N        0.43143    0.76027    0.48780    1.000
    N67      N        0.48043    0.82297    0.49685    1.000
    N68      N        0.52753    0.88307    0.50560    1.000
    N69      N        0.46403    0.65077    0.44604    1.000
    N70      N        0.34613    0.77157    0.53549    1.000
    C189     C        0.60583    0.79837    0.46010    1.000
    C190     C        0.67583    0.86477    0.46942    1.000
    H183     H        0.68203    0.91647    0.46807    1.000
    C191     C        0.73563    0.85567    0.48047    1.000
    H184     H        0.78273    0.90107    0.48637    1.000
    C192     C        0.72673    0.78027    0.48293    1.000
    H185     H        0.76733    0.77407    0.49087    1.000
    C193     C        0.65953    0.71487    0.47388    1.000
    H186     H        0.65433    0.66367    0.47557    1.000
    C194     C        0.59783    0.72157    0.46203    1.000
    C195     C        0.52883    0.64967    0.45192    1.000
    C196     C        0.53173    0.57437    0.44755    1.000
    H187     H        0.49793    0.53417    0.46007    1.000
    H188     H        0.58683    0.58577    0.44927    1.000
    H189     H        0.51243    0.55437    0.43037    1.000
    C197     C        0.32973    0.82287    0.52369    1.000
    H190     H        0.30763    0.80987    0.50707    1.000
    C198     C        0.34303    0.89427    0.53450    1.000
    H191     H        0.33003    0.92857    0.52537    1.000
    C199     C        0.37533    0.91457    0.55846    1.000
    C200     C        0.39423    0.86317    0.57067    1.000
    H192     H        0.41703    0.87537    0.58717    1.000
    C201     C        0.37973    0.79347    0.55859    1.000
    H193     H        0.39423    0.75937    0.56707    1.000
    C202     C        0.38733    0.99017    0.57083    1.000
    H194     H        0.40473    0.03267    0.55777    1.000
    H195     H        0.42983    0.00797    0.58377    1.000
    H196     H        0.26793    0.95957    0.57027    1.000
    Mn19     Mn       0.25860    0.70162    0.44749    1.000
    O33      O        0.18779    0.74048    0.44902    1.000
    O34      O        0.41871    0.82139    0.43563    1.000
    N71      N        0.23973    0.67117    0.48780    1.000
    N72      N        0.17703    0.65747    0.49685    1.000
    N73      N        0.11693    0.64447    0.50560    1.000
    N74      N        0.34923    0.81327    0.44604    1.000
    N75      N        0.22843    0.57457    0.53549    1.000
    C203     C        0.20163    0.80747    0.46010    1.000
    C204     C        0.13523    0.81107    0.46942    1.000
    H197     H        0.08353    0.76557    0.46807    1.000
    C205     C        0.14433    0.87997    0.48047    1.000
    H198     H        0.09893    0.88167    0.48637    1.000
    C206     C        0.21973    0.94647    0.48293    1.000
    H199     H        0.22593    0.99327    0.49087    1.000
    C207     C        0.28513    0.94467    0.47388    1.000
    H200     H        0.33633    0.99067    0.47557    1.000
    C208     C        0.27843    0.87627    0.46203    1.000
    C209     C        0.35033    0.87917    0.45192    1.000
    C210     C        0.42563    0.95737    0.44755    1.000
    H201     H        0.46583    0.96377    0.46007    1.000
    H202     H        0.41423    0.00107    0.44927    1.000
    H203     H        0.44563    0.95807    0.43037    1.000
    C211     C        0.17713    0.50687    0.52369    1.000
    H204     H        0.19013    0.49777    0.50707    1.000
    C212     C        0.10573    0.44877    0.53450    1.000
    H205     H        0.07143    0.40147    0.52537    1.000
    C213     C        0.08543    0.46077    0.55846    1.000
    C214     C        0.13683    0.53107    0.57067    1.000
    H206     H        0.12463    0.54167    0.58717    1.000
    C215     C        0.20653    0.58627    0.55859    1.000
    H207     H        0.24063    0.63487    0.56707    1.000
    C216     C        0.00983    0.39717    0.57083    1.000
    H208     H        0.96733    0.37207    0.55777    1.000
    H209     H        0.99203    0.42187    0.58377    1.000
    H210     H        0.04043    0.30837    0.57027    1.000
    Mn20     Mn       0.89032    0.96505    0.71917    1.000
    O35      O        0.78065    0.92619    0.71765    1.000
    O36      O        0.93066    0.84528    0.73104    1.000
    N76      N        0.90190    0.99550    0.67887    1.000
    N77      N        0.85290    0.00920    0.66982    1.000
    N78      N        0.80580    0.02220    0.66107    1.000
    N79      N        0.86930    0.85340    0.72063    1.000
    N80      N        0.98720    0.09210    0.63118    1.000
    C217     C        0.72750    0.85920    0.70657    1.000
    C218     C        0.65750    0.85560    0.69725    1.000
    H211     H        0.65130    0.90110    0.69860    1.000
    C219     C        0.59770    0.78670    0.68620    1.000
    H212     H        0.55060    0.78500    0.68030    1.000
    C220     C        0.60660    0.72020    0.68374    1.000
    H213     H        0.56600    0.67340    0.67580    1.000
    C221     C        0.67380    0.72200    0.69279    1.000
    H214     H        0.67900    0.67600    0.69110    1.000
    C222     C        0.73550    0.79040    0.70464    1.000
    C223     C        0.80450    0.78750    0.71475    1.000
    C224     C        0.80160    0.70930    0.71912    1.000
    H215     H        0.83540    0.70290    0.70660    1.000
    H216     H        0.74650    0.66560    0.71740    1.000
    H217     H        0.82090    0.70860    0.73630    1.000
    C225     C        0.00360    0.15980    0.64298    1.000
    H218     H        0.02570    0.16890    0.65960    1.000
    C226     C        0.99030    0.21790    0.63217    1.000
    H219     H        0.00330    0.26520    0.64130    1.000
    C227     C        0.95800    0.20590    0.60821    1.000
    C228     C        0.93910    0.13560    0.59600    1.000
    H220     H        0.91630    0.12500    0.57950    1.000
    C229     C        0.95360    0.08040    0.60808    1.000
    H221     H        0.93910    0.03180    0.59960    1.000
    C230     C        0.94600    0.26950    0.59584    1.000
    H222     H        0.92860    0.29460    0.60890    1.000
    H223     H        0.90350    0.24480    0.58290    1.000
    H224     H        0.06540    0.35830    0.59640    1.000
    Mn21     Mn       0.07473    0.10968    0.71917    1.000
    O37      O        0.14554    0.21935    0.71765    1.000
    O38      O        0.91462    0.06934    0.73104    1.000
    N81      N        0.09360    0.09810    0.67887    1.000
    N82      N        0.15630    0.14710    0.66982    1.000
    N83      N        0.21640    0.19420    0.66107    1.000
    N84      N        0.98410    0.13070    0.72063    1.000
    N85      N        0.10490    0.01280    0.63118    1.000
    C231     C        0.13170    0.27250    0.70657    1.000
    C232     C        0.19810    0.34250    0.69725    1.000
    H225     H        0.24980    0.34870    0.69860    1.000
    C233     C        0.18900    0.40230    0.68620    1.000
    H226     H        0.23440    0.44940    0.68030    1.000
    C234     C        0.11360    0.39340    0.68374    1.000
    H227     H        0.10740    0.43400    0.67580    1.000
    C235     C        0.04820    0.32620    0.69279    1.000
    H228     H        0.99700    0.32100    0.69110    1.000
    C236     C        0.05490    0.26450    0.70464    1.000
    C237     C        0.98300    0.19550    0.71475    1.000
    C238     C        0.90770    0.19840    0.71912    1.000
    H229     H        0.86750    0.16460    0.70660    1.000
    H230     H        0.91910    0.25350    0.71740    1.000
    H231     H        0.88770    0.17910    0.73630    1.000
    C239     C        0.15620    0.99640    0.64298    1.000
    H232     H        0.14320    0.97430    0.65960    1.000
    C240     C        0.22760    0.00970    0.63217    1.000
    H233     H        0.26190    0.99670    0.64130    1.000
    C241     C        0.24790    0.04200    0.60821    1.000
    C242     C        0.19650    0.06090    0.59600    1.000
    H234     H        0.20870    0.08370    0.57950    1.000
    C243     C        0.12680    0.04640    0.60808    1.000
    H235     H        0.09270    0.06090    0.59960    1.000
    C244     C        0.32350    0.05400    0.59584    1.000
    H236     H        0.36600    0.07140    0.60890    1.000
    H237     H        0.34130    0.09650    0.58290    1.000
    H238     H        0.29290    0.93460    0.59640    1.000
    Mn22     Mn       0.03495    0.92527    0.71917    1.000
    O39      O        0.07381    0.85446    0.71765    1.000
    O40      O        0.15472    0.08538    0.73104    1.000
    N86      N        0.00450    0.90640    0.67887    1.000
    N87      N        0.99080    0.84370    0.66982    1.000
    N88      N        0.97780    0.78360    0.66107    1.000
    N89      N        0.14660    0.01590    0.72063    1.000
    N90      N        0.90790    0.89510    0.63118    1.000
    C245     C        0.14080    0.86830    0.70657    1.000
    C246     C        0.14440    0.80190    0.69725    1.000
    H239     H        0.09890    0.75020    0.69860    1.000
    C247     C        0.21330    0.81100    0.68620    1.000
    H240     H        0.21500    0.76560    0.68030    1.000
    C248     C        0.27980    0.88640    0.68374    1.000
    H241     H        0.32660    0.89260    0.67580    1.000
    C249     C        0.27800    0.95180    0.69279    1.000
    H242     H        0.32400    0.00300    0.69110    1.000
    C250     C        0.20960    0.94510    0.70464    1.000
    C251     C        0.21250    0.01700    0.71475    1.000
    C252     C        0.29070    0.09230    0.71912    1.000
    H243     H        0.29710    0.13250    0.70660    1.000
    H244     H        0.33440    0.08090    0.71740    1.000
    H245     H        0.29140    0.11230    0.73630    1.000
    C253     C        0.84020    0.84380    0.64298    1.000
    H246     H        0.83110    0.85680    0.65960    1.000
    C254     C        0.78210    0.77240    0.63217    1.000
    H247     H        0.73480    0.73810    0.64130    1.000
    C255     C        0.79410    0.75210    0.60821    1.000
    C256     C        0.86440    0.80350    0.59600    1.000
    H248     H        0.87500    0.79130    0.57950    1.000
    C257     C        0.91960    0.87320    0.60808    1.000
    H249     H        0.96820    0.90730    0.59960    1.000
    C258     C        0.73050    0.67650    0.59584    1.000
    H250     H        0.70540    0.63400    0.60890    1.000
    H251     H        0.75520    0.65870    0.58290    1.000
    H252     H        0.64170    0.70710    0.59640    1.000
    Mn23     Mn       0.33333    0.66667    0.51169    1.000
    O41      O        0.33333    0.66667    0.44508    1.000
    Mn24     Mn       0.00000    0.00000    0.65498    1.000
    O42      O        0.00000    0.00000    0.72159    1.000
    C259     C        0.02302    0.33333    0.58333    1.000
    C260     C        0.31032    0.97698    0.58333    1.000
    C261     C        0.66667    0.68968    0.58333    1.000
    Mn25     Mn       0.03495    0.10968    0.21917    1.000
    O43      O        0.07381    0.21935    0.21765    1.000
    O44      O        0.15472    0.06934    0.23104    1.000
    N91      N        0.00450    0.09810    0.17887    1.000
    N92      N        0.99080    0.14710    0.16982    1.000
    N93      N        0.97780    0.19420    0.16107    1.000
    N94      N        0.14660    0.13070    0.22063    1.000
    N95      N        0.90790    0.01280    0.13118    1.000
    C262     C        0.14080    0.27250    0.20657    1.000
    C263     C        0.14440    0.34250    0.19725    1.000
    H253     H        0.09890    0.34870    0.19860    1.000
    C264     C        0.21330    0.40230    0.18620    1.000
    H254     H        0.21500    0.44940    0.18030    1.000
    C265     C        0.27980    0.39340    0.18374    1.000
    H255     H        0.32660    0.43400    0.17580    1.000
    C266     C        0.27800    0.32620    0.19279    1.000
    H256     H        0.32400    0.32100    0.19110    1.000
    C267     C        0.20960    0.26450    0.20464    1.000
    C268     C        0.21250    0.19550    0.21475    1.000
    C269     C        0.29070    0.19840    0.21912    1.000
    H257     H        0.29710    0.16460    0.20660    1.000
    H258     H        0.33440    0.25350    0.21740    1.000
    H259     H        0.29140    0.17910    0.23630    1.000
    C270     C        0.84020    0.99640    0.14298    1.000
    H260     H        0.83110    0.97430    0.15960    1.000
    C271     C        0.78210    0.00970    0.13217    1.000
    H261     H        0.73480    0.99670    0.14130    1.000
    C272     C        0.79410    0.04200    0.10821    1.000
    C273     C        0.86440    0.06090    0.09600    1.000
    H262     H        0.87500    0.08370    0.07950    1.000
    C274     C        0.91960    0.04640    0.10808    1.000
    H263     H        0.96820    0.06090    0.09960    1.000
    C275     C        0.73050    0.05400    0.09584    1.000
    H264     H        0.70540    0.07140    0.10890    1.000
    H265     H        0.75520    0.09650    0.08290    1.000
    H266     H        0.64170    0.93460    0.09640    1.000
    Mn26     Mn       0.89032    0.92527    0.21917    1.000
    O45      O        0.78065    0.85446    0.21765    1.000
    O46      O        0.93066    0.08538    0.23104    1.000
    N96      N        0.90190    0.90640    0.17887    1.000
    N97      N        0.85290    0.84370    0.16982    1.000
    N98      N        0.80580    0.78360    0.16107    1.000
    N99      N        0.86930    0.01590    0.22063    1.000
    N100     N        0.98720    0.89510    0.13118    1.000
    C276     C        0.72750    0.86830    0.20657    1.000
    C277     C        0.65750    0.80190    0.19725    1.000
    H267     H        0.65130    0.75020    0.19860    1.000
    C278     C        0.59770    0.81100    0.18620    1.000
    H268     H        0.55060    0.76560    0.18030    1.000
    C279     C        0.60660    0.88640    0.18374    1.000
    H269     H        0.56600    0.89260    0.17580    1.000
    C280     C        0.67380    0.95180    0.19279    1.000
    H270     H        0.67900    0.00300    0.19110    1.000
    C281     C        0.73550    0.94510    0.20464    1.000
    C282     C        0.80450    0.01700    0.21475    1.000
    C283     C        0.80160    0.09230    0.21912    1.000
    H271     H        0.83540    0.13250    0.20660    1.000
    H272     H        0.74650    0.08090    0.21740    1.000
    H273     H        0.82090    0.11230    0.23630    1.000
    C284     C        0.00360    0.84380    0.14298    1.000
    H274     H        0.02570    0.85680    0.15960    1.000
    C285     C        0.99030    0.77240    0.13217    1.000
    H275     H        0.00330    0.73810    0.14130    1.000
    C286     C        0.95800    0.75210    0.10821    1.000
    C287     C        0.93910    0.80350    0.09600    1.000
    H276     H        0.91630    0.79130    0.07950    1.000
    C288     C        0.95360    0.87320    0.10808    1.000
    H277     H        0.93910    0.90730    0.09960    1.000
    C289     C        0.94600    0.67650    0.09584    1.000
    H278     H        0.92860    0.63400    0.10890    1.000
    H279     H        0.90350    0.65870    0.08290    1.000
    H280     H        0.06540    0.70710    0.09640    1.000
    Mn27     Mn       0.07473    0.96505    0.21917    1.000
    O47      O        0.14554    0.92619    0.21765    1.000
    O48      O        0.91462    0.84528    0.23104    1.000
    N101     N        0.09360    0.99550    0.17887    1.000
    N102     N        0.15630    0.00920    0.16982    1.000
    N103     N        0.21640    0.02220    0.16107    1.000
    N104     N        0.98410    0.85340    0.22063    1.000
    N105     N        0.10490    0.09210    0.13118    1.000
    C290     C        0.13170    0.85920    0.20657    1.000
    C291     C        0.19810    0.85560    0.19725    1.000
    H281     H        0.24980    0.90110    0.19860    1.000
    C292     C        0.18900    0.78670    0.18620    1.000
    H282     H        0.23440    0.78500    0.18030    1.000
    C293     C        0.11360    0.72020    0.18374    1.000
    H283     H        0.10740    0.67340    0.17580    1.000
    C294     C        0.04820    0.72200    0.19279    1.000
    H284     H        0.99700    0.67600    0.19110    1.000
    C295     C        0.05490    0.79040    0.20464    1.000
    C296     C        0.98300    0.78750    0.21475    1.000
    C297     C        0.90770    0.70930    0.21912    1.000
    H285     H        0.86750    0.70290    0.20660    1.000
    H286     H        0.91910    0.66560    0.21740    1.000
    H287     H        0.88770    0.70860    0.23630    1.000
    C298     C        0.15620    0.15980    0.14298    1.000
    H288     H        0.14320    0.16890    0.15960    1.000
    C299     C        0.22760    0.21790    0.13217    1.000
    H289     H        0.26190    0.26520    0.14130    1.000
    C300     C        0.24790    0.20590    0.10821    1.000
    C301     C        0.19650    0.13560    0.09600    1.000
    H290     H        0.20870    0.12500    0.07950    1.000
    C302     C        0.12680    0.08040    0.10808    1.000
    H291     H        0.09270    0.03180    0.09960    1.000
    C303     C        0.32350    0.26950    0.09584    1.000
    H292     H        0.36600    0.29460    0.10890    1.000
    H293     H        0.34130    0.24480    0.08290    1.000
    H294     H        0.29290    0.35830    0.09640    1.000
    Mn28     Mn       0.44301    0.70162    0.94749    1.000
    O49      O        0.55268    0.74048    0.94902    1.000
    O50      O        0.40267    0.82139    0.93563    1.000
    N106     N        0.43143    0.67117    0.98780    1.000
    N107     N        0.48043    0.65747    0.99685    1.000
    N108     N        0.52753    0.64447    0.00560    1.000
    N109     N        0.46403    0.81327    0.94604    1.000
    N110     N        0.34613    0.57457    0.03549    1.000
    C304     C        0.60583    0.80747    0.96010    1.000
    C305     C        0.67583    0.81107    0.96942    1.000
    H295     H        0.68203    0.76557    0.96807    1.000
    C306     C        0.73563    0.87997    0.98047    1.000
    H296     H        0.78273    0.88167    0.98637    1.000
    C307     C        0.72673    0.94647    0.98293    1.000
    H297     H        0.76733    0.99327    0.99087    1.000
    C308     C        0.65953    0.94467    0.97388    1.000
    H298     H        0.65433    0.99067    0.97557    1.000
    C309     C        0.59783    0.87627    0.96203    1.000
    C310     C        0.52883    0.87917    0.95192    1.000
    C311     C        0.53173    0.95737    0.94755    1.000
    H299     H        0.49793    0.96377    0.96007    1.000
    H300     H        0.58683    0.00107    0.94927    1.000
    H301     H        0.51243    0.95807    0.93037    1.000
    C312     C        0.32973    0.50687    0.02369    1.000
    H302     H        0.30763    0.49777    0.00707    1.000
    C313     C        0.34303    0.44877    0.03450    1.000
    H303     H        0.33003    0.40147    0.02537    1.000
    C314     C        0.37533    0.46077    0.05846    1.000
    C315     C        0.39423    0.53107    0.07067    1.000
    H304     H        0.41703    0.54167    0.08717    1.000
    C316     C        0.37973    0.58627    0.05859    1.000
    H305     H        0.39423    0.63487    0.06707    1.000
    C317     C        0.38733    0.39717    0.07083    1.000
    H306     H        0.40473    0.37207    0.05777    1.000
    H307     H        0.42983    0.42187    0.08377    1.000
    H308     H        0.26793    0.30837    0.07027    1.000
    Mn29     Mn       0.25860    0.55699    0.94749    1.000
    O51      O        0.18779    0.44732    0.94902    1.000
    O52      O        0.41871    0.59733    0.93563    1.000
    N111     N        0.23973    0.56857    0.98780    1.000
    N112     N        0.17703    0.51957    0.99685    1.000
    N113     N        0.11693    0.47247    0.00560    1.000
    N114     N        0.34923    0.53597    0.94604    1.000
    N115     N        0.22843    0.65387    0.03549    1.000
    C318     C        0.20163    0.39417    0.96010    1.000
    C319     C        0.13523    0.32417    0.96942    1.000
    H309     H        0.08353    0.31797    0.96807    1.000
    C320     C        0.14433    0.26437    0.98047    1.000
    H310     H        0.09893    0.21727    0.98637    1.000
    C321     C        0.21973    0.27327    0.98293    1.000
    H311     H        0.22593    0.23267    0.99087    1.000
    C322     C        0.28513    0.34047    0.97388    1.000
    H312     H        0.33633    0.34567    0.97557    1.000
    C323     C        0.27843    0.40217    0.96203    1.000
    C324     C        0.35033    0.47117    0.95192    1.000
    C325     C        0.42563    0.46827    0.94755    1.000
    H313     H        0.46583    0.50207    0.96007    1.000
    H314     H        0.41423    0.41317    0.94927    1.000
    H315     H        0.44563    0.48757    0.93037    1.000
    C326     C        0.17713    0.67027    0.02369    1.000
    H316     H        0.19013    0.69237    0.00707    1.000
    C327     C        0.10573    0.65697    0.03450    1.000
    H317     H        0.07143    0.66997    0.02537    1.000
    C328     C        0.08543    0.62467    0.05846    1.000
    C329     C        0.13683    0.60577    0.07067    1.000
    H318     H        0.12463    0.58297    0.08717    1.000
    C330     C        0.20653    0.62027    0.05859    1.000
    H319     H        0.24063    0.60577    0.06707    1.000
    C331     C        0.00983    0.61267    0.07083    1.000
    H320     H        0.96733    0.59527    0.05777    1.000
    H321     H        0.99203    0.57017    0.08377    1.000
    H322     H        0.04043    0.73207    0.07027    1.000
    Mn30     Mn       0.29838    0.74140    0.94749    1.000
    O53      O        0.25952    0.81221    0.94902    1.000
    O54      O        0.17861    0.58129    0.93563    1.000
    N116     N        0.32883    0.76027    0.98780    1.000
    N117     N        0.34253    0.82297    0.99685    1.000
    N118     N        0.35553    0.88307    0.00560    1.000
    N119     N        0.18673    0.65077    0.94604    1.000
    N120     N        0.42543    0.77157    0.03549    1.000
    C332     C        0.19253    0.79837    0.96010    1.000
    C333     C        0.18893    0.86477    0.96942    1.000
    H323     H        0.23443    0.91647    0.96807    1.000
    C334     C        0.12003    0.85567    0.98047    1.000
    H324     H        0.11833    0.90107    0.98637    1.000
    C335     C        0.05353    0.78027    0.98293    1.000
    H325     H        0.00673    0.77407    0.99087    1.000
    C336     C        0.05533    0.71487    0.97388    1.000
    H326     H        0.00933    0.66367    0.97557    1.000
    C337     C        0.12373    0.72157    0.96203    1.000
    C338     C        0.12083    0.64967    0.95192    1.000
    C339     C        0.04263    0.57437    0.94755    1.000
    H327     H        0.03623    0.53417    0.96007    1.000
    H328     H        0.99893    0.58577    0.94927    1.000
    H329     H        0.04193    0.55437    0.93037    1.000
    C340     C        0.49313    0.82287    0.02369    1.000
    H330     H        0.50223    0.80987    0.00707    1.000
    C341     C        0.55123    0.89427    0.03450    1.000
    H331     H        0.59853    0.92857    0.02537    1.000
    C342     C        0.53923    0.91457    0.05846    1.000
    C343     C        0.46893    0.86317    0.07067    1.000
    H332     H        0.45833    0.87537    0.08717    1.000
    C344     C        0.41373    0.79347    0.05859    1.000
    H333     H        0.36513    0.75937    0.06707    1.000
    C345     C        0.60283    0.99017    0.07083    1.000
    H334     H        0.62793    0.03267    0.05777    1.000
    H335     H        0.57813    0.00797    0.08377    1.000
    H336     H        0.69163    0.95957    0.07027    1.000
    Mn31     Mn       0.00000    0.00000    0.15498    1.000
    O55      O        0.00000    0.00000    0.22159    1.000
    Mn32     Mn       0.33333    0.66667    0.01169    1.000
    O56      O        0.33333    0.66667    0.94508    1.000
    C346     C        0.66667    0.97698    0.08333    1.000
    C347     C        0.02302    0.68968    0.08333    1.000
    C348     C        0.31032    0.33333    0.08333    1.000
    Mn33     Mn       0.70162    0.44301    0.55251    1.000
    O57      O        0.74048    0.55268    0.55098    1.000
    O58      O        0.82139    0.40267    0.56437    1.000
    N121     N        0.67117    0.43143    0.51220    1.000
    N122     N        0.65747    0.48043    0.50315    1.000
    N123     N        0.64447    0.52753    0.49440    1.000
    N124     N        0.81327    0.46403    0.55396    1.000
    N125     N        0.57457    0.34613    0.46451    1.000
    C349     C        0.80747    0.60583    0.53990    1.000
    C350     C        0.81107    0.67583    0.53058    1.000
    H337     H        0.76557    0.68203    0.53193    1.000
    C351     C        0.87997    0.73563    0.51953    1.000
    H338     H        0.88167    0.78273    0.51363    1.000
    C352     C        0.94647    0.72673    0.51707    1.000
    H339     H        0.99327    0.76733    0.50913    1.000
    C353     C        0.94467    0.65953    0.52612    1.000
    H340     H        0.99067    0.65433    0.52443    1.000
    C354     C        0.87627    0.59783    0.53797    1.000
    C355     C        0.87917    0.52883    0.54808    1.000
    C356     C        0.95737    0.53173    0.55245    1.000
    H341     H        0.96377    0.49793    0.53993    1.000
    H342     H        0.00107    0.58683    0.55073    1.000
    H343     H        0.95807    0.51243    0.56963    1.000
    C357     C        0.50687    0.32973    0.47631    1.000
    H344     H        0.49777    0.30763    0.49293    1.000
    C358     C        0.44877    0.34303    0.46550    1.000
    H345     H        0.40147    0.33003    0.47463    1.000
    C359     C        0.46077    0.37533    0.44154    1.000
    C360     C        0.53107    0.39423    0.42933    1.000
    H346     H        0.54167    0.41703    0.41283    1.000
    C361     C        0.58627    0.37973    0.44141    1.000
    H347     H        0.63487    0.39423    0.43293    1.000
    C362     C        0.39717    0.38733    0.42917    1.000
    H348     H        0.37207    0.40473    0.44223    1.000
    H349     H        0.42187    0.42983    0.41623    1.000
    H350     H        0.30837    0.26793    0.42973    1.000
    Mn34     Mn       0.55699    0.25860    0.55251    1.000
    O59      O        0.44732    0.18779    0.55098    1.000
    O60      O        0.59733    0.41871    0.56437    1.000
    N126     N        0.56857    0.23973    0.51220    1.000
    N127     N        0.51957    0.17703    0.50315    1.000
    N128     N        0.47247    0.11693    0.49440    1.000
    N129     N        0.53597    0.34923    0.55396    1.000
    N130     N        0.65387    0.22843    0.46451    1.000
    C363     C        0.39417    0.20163    0.53990    1.000
    C364     C        0.32417    0.13523    0.53058    1.000
    H351     H        0.31797    0.08353    0.53193    1.000
    C365     C        0.26437    0.14433    0.51953    1.000
    H352     H        0.21727    0.09893    0.51363    1.000
    C366     C        0.27327    0.21973    0.51707    1.000
    H353     H        0.23267    0.22593    0.50913    1.000
    C367     C        0.34047    0.28513    0.52612    1.000
    H354     H        0.34567    0.33633    0.52443    1.000
    C368     C        0.40217    0.27843    0.53797    1.000
    C369     C        0.47117    0.35033    0.54808    1.000
    C370     C        0.46827    0.42563    0.55245    1.000
    H355     H        0.50207    0.46583    0.53993    1.000
    H356     H        0.41317    0.41423    0.55073    1.000
    H357     H        0.48757    0.44563    0.56963    1.000
    C371     C        0.67027    0.17713    0.47631    1.000
    H358     H        0.69237    0.19013    0.49293    1.000
    C372     C        0.65697    0.10573    0.46550    1.000
    H359     H        0.66997    0.07143    0.47463    1.000
    C373     C        0.62467    0.08543    0.44154    1.000
    C374     C        0.60577    0.13683    0.42933    1.000
    H360     H        0.58297    0.12463    0.41283    1.000
    C375     C        0.62027    0.20653    0.44141    1.000
    H361     H        0.60577    0.24063    0.43293    1.000
    C376     C        0.61267    0.00983    0.42917    1.000
    H362     H        0.59527    0.96733    0.44223    1.000
    H363     H        0.57017    0.99203    0.41623    1.000
    H364     H        0.73207    0.04043    0.42973    1.000
    Mn35     Mn       0.74140    0.29838    0.55251    1.000
    O61      O        0.81221    0.25952    0.55098    1.000
    O62      O        0.58129    0.17861    0.56437    1.000
    N131     N        0.76027    0.32883    0.51220    1.000
    N132     N        0.82297    0.34253    0.50315    1.000
    N133     N        0.88307    0.35553    0.49440    1.000
    N134     N        0.65077    0.18673    0.55396    1.000
    N135     N        0.77157    0.42543    0.46451    1.000
    C377     C        0.79837    0.19253    0.53990    1.000
    C378     C        0.86477    0.18893    0.53058    1.000
    H365     H        0.91647    0.23443    0.53193    1.000
    C379     C        0.85567    0.12003    0.51953    1.000
    H366     H        0.90107    0.11833    0.51363    1.000
    C380     C        0.78027    0.05353    0.51707    1.000
    H367     H        0.77407    0.00673    0.50913    1.000
    C381     C        0.71487    0.05533    0.52612    1.000
    H368     H        0.66367    0.00933    0.52443    1.000
    C382     C        0.72157    0.12373    0.53797    1.000
    C383     C        0.64967    0.12083    0.54808    1.000
    C384     C        0.57437    0.04263    0.55245    1.000
    H369     H        0.53417    0.03623    0.53993    1.000
    H370     H        0.58577    0.99893    0.55073    1.000
    H371     H        0.55437    0.04193    0.56963    1.000
    C385     C        0.82287    0.49313    0.47631    1.000
    H372     H        0.80987    0.50223    0.49293    1.000
    C386     C        0.89427    0.55123    0.46550    1.000
    H373     H        0.92857    0.59853    0.47463    1.000
    C387     C        0.91457    0.53923    0.44154    1.000
    C388     C        0.86317    0.46893    0.42933    1.000
    H374     H        0.87537    0.45833    0.41283    1.000
    C389     C        0.79347    0.41373    0.44141    1.000
    H375     H        0.75937    0.36513    0.43293    1.000
    C390     C        0.99017    0.60283    0.42917    1.000
    H376     H        0.03267    0.62793    0.44223    1.000
    H377     H        0.00797    0.57813    0.41623    1.000
    H378     H        0.95957    0.69163    0.42973    1.000
    Mn36     Mn       0.10968    0.03495    0.28083    1.000
    O63      O        0.21935    0.07381    0.28235    1.000
    O64      O        0.06934    0.15472    0.26896    1.000
    N136     N        0.09810    0.00450    0.32113    1.000
    N137     N        0.14710    0.99080    0.33018    1.000
    N138     N        0.19420    0.97780    0.33893    1.000
    N139     N        0.13070    0.14660    0.27937    1.000
    N140     N        0.01280    0.90790    0.36882    1.000
    C391     C        0.27250    0.14080    0.29343    1.000
    C392     C        0.34250    0.14440    0.30275    1.000
    H379     H        0.34870    0.09890    0.30140    1.000
    C393     C        0.40230    0.21330    0.31380    1.000
    H380     H        0.44940    0.21500    0.31970    1.000
    C394     C        0.39340    0.27980    0.31626    1.000
    H381     H        0.43400    0.32660    0.32420    1.000
    C395     C        0.32620    0.27800    0.30721    1.000
    H382     H        0.32100    0.32400    0.30890    1.000
    C396     C        0.26450    0.20960    0.29536    1.000
    C397     C        0.19550    0.21250    0.28525    1.000
    C398     C        0.19840    0.29070    0.28088    1.000
    H383     H        0.16460    0.29710    0.29340    1.000
    H384     H        0.25350    0.33440    0.28260    1.000
    H385     H        0.17910    0.29140    0.26370    1.000
    C399     C        0.99640    0.84020    0.35702    1.000
    H386     H        0.97430    0.83110    0.34040    1.000
    C400     C        0.00970    0.78210    0.36783    1.000
    H387     H        0.99670    0.73480    0.35870    1.000
    C401     C        0.04200    0.79410    0.39179    1.000
    C402     C        0.06090    0.86440    0.40400    1.000
    H388     H        0.08370    0.87500    0.42050    1.000
    C403     C        0.04640    0.91960    0.39192    1.000
    H389     H        0.06090    0.96820    0.40040    1.000
    C404     C        0.05400    0.73050    0.40416    1.000
    H390     H        0.07140    0.70540    0.39110    1.000
    H391     H        0.09650    0.75520    0.41710    1.000
    H392     H        0.93460    0.64170    0.40360    1.000
    Mn37     Mn       0.92527    0.89032    0.28083    1.000
    O65      O        0.85446    0.78065    0.28235    1.000
    O66      O        0.08538    0.93066    0.26896    1.000
    N141     N        0.90640    0.90190    0.32113    1.000
    N142     N        0.84370    0.85290    0.33018    1.000
    N143     N        0.78360    0.80580    0.33893    1.000
    N144     N        0.01590    0.86930    0.27937    1.000
    N145     N        0.89510    0.98720    0.36882    1.000
    C405     C        0.86830    0.72750    0.29343    1.000
    C406     C        0.80190    0.65750    0.30275    1.000
    H393     H        0.75020    0.65130    0.30140    1.000
    C407     C        0.81100    0.59770    0.31380    1.000
    H394     H        0.76560    0.55060    0.31970    1.000
    C408     C        0.88640    0.60660    0.31626    1.000
    H395     H        0.89260    0.56600    0.32420    1.000
    C409     C        0.95180    0.67380    0.30721    1.000
    H396     H        0.00300    0.67900    0.30890    1.000
    C410     C        0.94510    0.73550    0.29536    1.000
    C411     C        0.01700    0.80450    0.28525    1.000
    C412     C        0.09230    0.80160    0.28088    1.000
    H397     H        0.13250    0.83540    0.29340    1.000
    H398     H        0.08090    0.74650    0.28260    1.000
    H399     H        0.11230    0.82090    0.26370    1.000
    C413     C        0.84380    0.00360    0.35702    1.000
    H400     H        0.85680    0.02570    0.34040    1.000
    C414     C        0.77240    0.99030    0.36783    1.000
    H401     H        0.73810    0.00330    0.35870    1.000
    C415     C        0.75210    0.95800    0.39179    1.000
    C416     C        0.80350    0.93910    0.40400    1.000
    H402     H        0.79130    0.91630    0.42050    1.000
    C417     C        0.87320    0.95360    0.39192    1.000
    H403     H        0.90730    0.93910    0.40040    1.000
    C418     C        0.67650    0.94600    0.40416    1.000
    H404     H        0.63400    0.92860    0.39110    1.000
    H405     H        0.65870    0.90350    0.41710    1.000
    H406     H        0.70710    0.06540    0.40360    1.000
    Mn38     Mn       0.96505    0.07473    0.28083    1.000
    O67      O        0.92619    0.14554    0.28235    1.000
    O68      O        0.84528    0.91462    0.26896    1.000
    N146     N        0.99550    0.09360    0.32113    1.000
    N147     N        0.00920    0.15630    0.33018    1.000
    N148     N        0.02220    0.21640    0.33893    1.000
    N149     N        0.85340    0.98410    0.27937    1.000
    N150     N        0.09210    0.10490    0.36882    1.000
    C419     C        0.85920    0.13170    0.29343    1.000
    C420     C        0.85560    0.19810    0.30275    1.000
    H407     H        0.90110    0.24980    0.30140    1.000
    C421     C        0.78670    0.18900    0.31380    1.000
    H408     H        0.78500    0.23440    0.31970    1.000
    C422     C        0.72020    0.11360    0.31626    1.000
    H409     H        0.67340    0.10740    0.32420    1.000
    C423     C        0.72200    0.04820    0.30721    1.000
    H410     H        0.67600    0.99700    0.30890    1.000
    C424     C        0.79040    0.05490    0.29536    1.000
    C425     C        0.78750    0.98300    0.28525    1.000
    C426     C        0.70930    0.90770    0.28088    1.000
    H411     H        0.70290    0.86750    0.29340    1.000
    H412     H        0.66560    0.91910    0.28260    1.000
    H413     H        0.70860    0.88770    0.26370    1.000
    C427     C        0.15980    0.15620    0.35702    1.000
    H414     H        0.16890    0.14320    0.34040    1.000
    C428     C        0.21790    0.22760    0.36783    1.000
    H415     H        0.26520    0.26190    0.35870    1.000
    C429     C        0.20590    0.24790    0.39179    1.000
    C430     C        0.13560    0.19650    0.40400    1.000
    H416     H        0.12500    0.20870    0.42050    1.000
    C431     C        0.08040    0.12680    0.39192    1.000
    H417     H        0.03180    0.09270    0.40040    1.000
    C432     C        0.26950    0.32350    0.40416    1.000
    H418     H        0.29460    0.36600    0.39110    1.000
    H419     H        0.24480    0.34130    0.41710    1.000
    H420     H        0.35830    0.29290    0.40360    1.000
    Mn39     Mn       0.66667    0.33333    0.48831    1.000
    O69      O        0.66667    0.33333    0.55492    1.000
    Mn40     Mn       0.00000    0.00000    0.34502    1.000
    O70      O        0.00000    0.00000    0.27841    1.000
    C433     C        0.97698    0.66667    0.41667    1.000
    C434     C        0.68968    0.02302    0.41667    1.000
    C435     C        0.33333    0.31032    0.41667    1.000
    Mn41     Mn       0.36828    0.77635    0.88584    1.000
    O71      O        0.40714    0.88602    0.88432    1.000
    O72      O        0.48805    0.73601    0.89771    1.000
    N151     N        0.33783    0.76477    0.84554    1.000
    N152     N        0.32413    0.81377    0.83649    1.000
    N153     N        0.31113    0.86087    0.82774    1.000
    N154     N        0.47993    0.79737    0.88730    1.000
    N155     N        0.24123    0.67947    0.79785    1.000
    C436     C        0.47413    0.93917    0.87324    1.000
    C437     C        0.47773    0.00917    0.86392    1.000
    H421     H        0.43223    0.01537    0.86527    1.000
    C438     C        0.54663    0.06897    0.85287    1.000
    H422     H        0.54833    0.11607    0.84697    1.000
    C439     C        0.61313    0.06007    0.85041    1.000
    H423     H        0.65993    0.10067    0.84247    1.000
    C440     C        0.61133    0.99287    0.85946    1.000
    H424     H        0.65733    0.98767    0.85777    1.000
    C441     C        0.54293    0.93117    0.87131    1.000
    C442     C        0.54583    0.86217    0.88142    1.000
    C443     C        0.62403    0.86507    0.88579    1.000
    H425     H        0.63043    0.83127    0.87327    1.000
    H426     H        0.66773    0.92017    0.88407    1.000
    H427     H        0.62473    0.84577    0.90297    1.000
    C444     C        0.17353    0.66307    0.80965    1.000
    H428     H        0.16443    0.64097    0.82627    1.000
    C445     C        0.11543    0.67637    0.79884    1.000
    H429     H        0.06813    0.66337    0.80797    1.000
    C446     C        0.12743    0.70867    0.77488    1.000
    C447     C        0.19773    0.72757    0.76267    1.000
    H430     H        0.20833    0.75037    0.74617    1.000
    C448     C        0.25293    0.71307    0.77475    1.000
    H431     H        0.30153    0.72757    0.76627    1.000
    C449     C        0.06383    0.72067    0.76251    1.000
    H432     H        0.03873    0.73807    0.77557    1.000
    H433     H        0.08853    0.76317    0.74957    1.000
    H434     H        0.97503    0.60127    0.76307    1.000
    Mn42     Mn       0.22365    0.59194    0.88584    1.000
    O73      O        0.11398    0.52113    0.88432    1.000
    O74      O        0.26399    0.75205    0.89771    1.000
    N156     N        0.23523    0.57307    0.84554    1.000
    N157     N        0.18623    0.51037    0.83649    1.000
    N158     N        0.13913    0.45027    0.82774    1.000
    N159     N        0.20263    0.68257    0.88730    1.000
    N160     N        0.32053    0.56177    0.79785    1.000
    C450     C        0.06083    0.53497    0.87324    1.000
    C451     C        0.99083    0.46857    0.86392    1.000
    H435     H        0.98463    0.41687    0.86527    1.000
    C452     C        0.93103    0.47767    0.85287    1.000
    H436     H        0.88393    0.43227    0.84697    1.000
    C453     C        0.93993    0.55307    0.85041    1.000
    H437     H        0.89933    0.55927    0.84247    1.000
    C454     C        0.00713    0.61847    0.85946    1.000
    H438     H        0.01233    0.66967    0.85777    1.000
    C455     C        0.06883    0.61177    0.87131    1.000
    C456     C        0.13783    0.68367    0.88142    1.000
    C457     C        0.13493    0.75897    0.88579    1.000
    H439     H        0.16873    0.79917    0.87327    1.000
    H440     H        0.07983    0.74757    0.88407    1.000
    H441     H        0.15423    0.77897    0.90297    1.000
    C458     C        0.33693    0.51047    0.80965    1.000
    H442     H        0.35903    0.52347    0.82627    1.000
    C459     C        0.32363    0.43907    0.79884    1.000
    H443     H        0.33663    0.40477    0.80797    1.000
    C460     C        0.29133    0.41877    0.77488    1.000
    C461     C        0.27243    0.47017    0.76267    1.000
    H444     H        0.24963    0.45797    0.74617    1.000
    C462     C        0.28693    0.53987    0.77475    1.000
    H445     H        0.27243    0.57397    0.76627    1.000
    C463     C        0.27933    0.34317    0.76251    1.000
    H446     H        0.26193    0.30067    0.77557    1.000
    H447     H        0.23683    0.32537    0.74957    1.000
    H448     H        0.39873    0.37377    0.76307    1.000
    Mn43     Mn       0.40806    0.63172    0.88584    1.000
    O75      O        0.47887    0.59286    0.88432    1.000
    O76      O        0.24795    0.51195    0.89771    1.000
    N161     N        0.42693    0.66217    0.84554    1.000
    N162     N        0.48963    0.67587    0.83649    1.000
    N163     N        0.54973    0.68887    0.82774    1.000
    N164     N        0.31743    0.52007    0.88730    1.000
    N165     N        0.43823    0.75877    0.79785    1.000
    C464     C        0.46503    0.52587    0.87324    1.000
    C465     C        0.53143    0.52227    0.86392    1.000
    H449     H        0.58313    0.56777    0.86527    1.000
    C466     C        0.52233    0.45337    0.85287    1.000
    H450     H        0.56773    0.45167    0.84697    1.000
    C467     C        0.44693    0.38687    0.85041    1.000
    H451     H        0.44073    0.34007    0.84247    1.000
    C468     C        0.38153    0.38867    0.85946    1.000
    H452     H        0.33033    0.34267    0.85777    1.000
    C469     C        0.38823    0.45707    0.87131    1.000
    C470     C        0.31633    0.45417    0.88142    1.000
    C471     C        0.24103    0.37597    0.88579    1.000
    H453     H        0.20083    0.36957    0.87327    1.000
    H454     H        0.25243    0.33227    0.88407    1.000
    H455     H        0.22103    0.37527    0.90297    1.000
    C472     C        0.48953    0.82647    0.80965    1.000
    H456     H        0.47653    0.83557    0.82627    1.000
    C473     C        0.56093    0.88457    0.79884    1.000
    H457     H        0.59523    0.93187    0.80797    1.000
    C474     C        0.58123    0.87257    0.77488    1.000
    C475     C        0.52983    0.80227    0.76267    1.000
    H458     H        0.54203    0.79167    0.74617    1.000
    C476     C        0.46013    0.74707    0.77475    1.000
    H459     H        0.42603    0.69847    0.76627    1.000
    C477     C        0.65683    0.93617    0.76251    1.000
    H460     H        0.69933    0.96127    0.77557    1.000
    H461     H        0.67463    0.91147    0.74957    1.000
    H462     H        0.62623    0.02497    0.76307    1.000
    Mn44     Mn       0.77635    0.36828    0.61416    1.000
    O77      O        0.88602    0.40714    0.61568    1.000
    O78      O        0.73601    0.48805    0.60229    1.000
    N166     N        0.76477    0.33783    0.65446    1.000
    N167     N        0.81377    0.32413    0.66351    1.000
    N168     N        0.86087    0.31113    0.67226    1.000
    N169     N        0.79737    0.47993    0.61270    1.000
    N170     N        0.67947    0.24123    0.70215    1.000
    C478     C        0.93917    0.47413    0.62676    1.000
    C479     C        0.00917    0.47773    0.63608    1.000
    H463     H        0.01537    0.43223    0.63473    1.000
    C480     C        0.06897    0.54663    0.64713    1.000
    H464     H        0.11607    0.54833    0.65303    1.000
    C481     C        0.06007    0.61313    0.64959    1.000
    H465     H        0.10067    0.65993    0.65753    1.000
    C482     C        0.99287    0.61133    0.64054    1.000
    H466     H        0.98767    0.65733    0.64223    1.000
    C483     C        0.93117    0.54293    0.62869    1.000
    C484     C        0.86217    0.54583    0.61858    1.000
    C485     C        0.86507    0.62403    0.61421    1.000
    H467     H        0.83127    0.63043    0.62673    1.000
    H468     H        0.92017    0.66773    0.61593    1.000
    H469     H        0.84577    0.62473    0.59703    1.000
    C486     C        0.66307    0.17353    0.69035    1.000
    H470     H        0.64097    0.16443    0.67373    1.000
    C487     C        0.67637    0.11543    0.70116    1.000
    H471     H        0.66337    0.06813    0.69203    1.000
    C488     C        0.70867    0.12743    0.72512    1.000
    C489     C        0.72757    0.19773    0.73733    1.000
    H472     H        0.75037    0.20833    0.75383    1.000
    C490     C        0.71307    0.25293    0.72525    1.000
    H473     H        0.72757    0.30153    0.73373    1.000
    C491     C        0.72067    0.06383    0.73749    1.000
    H474     H        0.73807    0.03873    0.72443    1.000
    H475     H        0.76317    0.08853    0.75043    1.000
    H476     H        0.60127    0.97503    0.73693    1.000
    Mn45     Mn       0.59194    0.22365    0.61416    1.000
    O79      O        0.52113    0.11398    0.61568    1.000
    O80      O        0.75205    0.26399    0.60229    1.000
    N171     N        0.57307    0.23523    0.65446    1.000
    N172     N        0.51037    0.18623    0.66351    1.000
    N173     N        0.45027    0.13913    0.67226    1.000
    N174     N        0.68257    0.20263    0.61270    1.000
    N175     N        0.56177    0.32053    0.70215    1.000
    C492     C        0.53497    0.06083    0.62676    1.000
    C493     C        0.46857    0.99083    0.63608    1.000
    H477     H        0.41687    0.98463    0.63473    1.000
    C494     C        0.47767    0.93103    0.64713    1.000
    H478     H        0.43227    0.88393    0.65303    1.000
    C495     C        0.55307    0.93993    0.64959    1.000
    H479     H        0.55927    0.89933    0.65753    1.000
    C496     C        0.61847    0.00713    0.64054    1.000
    H480     H        0.66967    0.01233    0.64223    1.000
    C497     C        0.61177    0.06883    0.62869    1.000
    C498     C        0.68367    0.13783    0.61858    1.000
    C499     C        0.75897    0.13493    0.61421    1.000
    H481     H        0.79917    0.16873    0.62673    1.000
    H482     H        0.74757    0.07983    0.61593    1.000
    H483     H        0.77897    0.15423    0.59703    1.000
    C500     C        0.51047    0.33693    0.69035    1.000
    H484     H        0.52347    0.35903    0.67373    1.000
    C501     C        0.43907    0.32363    0.70116    1.000
    H485     H        0.40477    0.33663    0.69203    1.000
    C502     C        0.41877    0.29133    0.72512    1.000
    C503     C        0.47017    0.27243    0.73733    1.000
    H486     H        0.45797    0.24963    0.75383    1.000
    C504     C        0.53987    0.28693    0.72525    1.000
    H487     H        0.57397    0.27243    0.73373    1.000
    C505     C        0.34317    0.27933    0.73749    1.000
    H488     H        0.30067    0.26193    0.72443    1.000
    H489     H        0.32537    0.23683    0.75043    1.000
    H490     H        0.37377    0.39873    0.73693    1.000
    Mn46     Mn       0.63172    0.40806    0.61416    1.000
    O81      O        0.59286    0.47887    0.61568    1.000
    O82      O        0.51195    0.24795    0.60229    1.000
    N176     N        0.66217    0.42693    0.65446    1.000
    N177     N        0.67587    0.48963    0.66351    1.000
    N178     N        0.68887    0.54973    0.67226    1.000
    N179     N        0.52007    0.31743    0.61270    1.000
    N180     N        0.75877    0.43823    0.70215    1.000
    C506     C        0.52587    0.46503    0.62676    1.000
    C507     C        0.52227    0.53143    0.63608    1.000
    H491     H        0.56777    0.58313    0.63473    1.000
    C508     C        0.45337    0.52233    0.64713    1.000
    H492     H        0.45167    0.56773    0.65303    1.000
    C509     C        0.38687    0.44693    0.64959    1.000
    H493     H        0.34007    0.44073    0.65753    1.000
    C510     C        0.38867    0.38153    0.64054    1.000
    H494     H        0.34267    0.33033    0.64223    1.000
    C511     C        0.45707    0.38823    0.62869    1.000
    C512     C        0.45417    0.31633    0.61858    1.000
    C513     C        0.37597    0.24103    0.61421    1.000
    H495     H        0.36957    0.20083    0.62673    1.000
    H496     H        0.33227    0.25243    0.61593    1.000
    H497     H        0.37527    0.22103    0.59703    1.000
    C514     C        0.82647    0.48953    0.69035    1.000
    H498     H        0.83557    0.47653    0.67373    1.000
    C515     C        0.88457    0.56093    0.70116    1.000
    H499     H        0.93187    0.59523    0.69203    1.000
    C516     C        0.87257    0.58123    0.72512    1.000
    C517     C        0.80227    0.52983    0.73733    1.000
    H500     H        0.79167    0.54203    0.75383    1.000
    C518     C        0.74707    0.46013    0.72525    1.000
    H501     H        0.69847    0.42603    0.73373    1.000
    C519     C        0.93617    0.65683    0.73749    1.000
    H502     H        0.96127    0.69933    0.72443    1.000
    H503     H        0.91147    0.67463    0.75043    1.000
    H504     H        0.02497    0.62623    0.73693    1.000
    Mn47     Mn       0.33333    0.66667    0.82165    1.000
    O83      O        0.33333    0.66667    0.88826    1.000
    Mn48     Mn       0.66667    0.33333    0.67835    1.000
    O84      O        0.66667    0.33333    0.61174    1.000
    C520     C        0.64365    0.00000    0.75000    1.000
    C521     C        0.35635    0.35635    0.75000    1.000
    C522     C        0.00000    0.64365    0.75000    1.000
