# CIF file generated by openbabel 3.1.0, see https://openbabel.org
data_I
_chemical_name_common 'image0'
_cell_length_a 17.091
_cell_length_b 17.091
_cell_length_c 14.611
_cell_angle_alpha 90
_cell_angle_beta 90
_cell_angle_gamma 90
_space_group_name_H-M_alt 'P 1'
_space_group_name_Hall 'P 1'
loop_
    _symmetry_equiv_pos_as_xyz
    x,y,z
loop_
    _atom_site_label
    _atom_site_type_symbol
    _atom_site_fract_x
    _atom_site_fract_y
    _atom_site_fract_z
    _atom_site_occupancy
    V1       V        0.37871    0.38682    0.62810    1.000
    V2       V        0.68544    0.45266    0.58869    1.000
    V3       V        0.53321    0.31133    0.58704    1.000
    V4       V        0.56627    0.42894    0.73017    1.000
    C1       C        0.07860    0.27260    0.68410    1.000
    H1       H        0.06890    0.26150    0.74540    1.000
    C2       C        0.01580    0.27580    0.62590    1.000
    H2       H        0.96540    0.26740    0.64770    1.000
    C3       C        0.02860    0.29210    0.53270    1.000
    C4       C        0.16440    0.30480    0.57310    1.000
    H3       H        0.21480    0.31850    0.55550    1.000
    C5       C        0.82800    0.30460    0.42660    1.000
    H4       H        0.77760    0.31840    0.44450    1.000
    C6       C        0.88810    0.31170    0.48860    1.000
    H5       H        0.87790    0.33050    0.54710    1.000
    C7       C        0.96350    0.29100    0.46500    1.000
    C8       C        0.91420    0.26330    0.31570    1.000
    H6       H        0.92390    0.24930    0.25530    1.000
    C9       C        0.97670    0.26740    0.37470    1.000
    H7       H        0.02690    0.25480    0.35500    1.000
    C10      C        0.10570    0.30680    0.50790    1.000
    H8       H        0.11800    0.31810    0.44730    1.000
    N1       N        0.15240    0.28430    0.65910    1.000
    N2       N        0.27830    0.16020    0.65980    1.000
    O1       O        0.48090    0.37070    0.68200    1.000
    O2       O        0.62040    0.36920    0.62340    1.000
    O3       O        0.36890    0.49080    0.68220    1.000
    O4       O        0.31350    0.44050    0.53890    1.000
    O5       O        0.42710    0.32030    0.53700    1.000
    O6       O        0.31880    0.32830    0.68180    1.000
    V5       V        0.62129    0.61318    0.62810    1.000
    V6       V        0.31456    0.54734    0.58869    1.000
    V7       V        0.46679    0.68867    0.58704    1.000
    V8       V        0.43373    0.57106    0.73017    1.000
    C11      C        0.92140    0.72740    0.68410    1.000
    H9       H        0.93110    0.73850    0.74540    1.000
    C12      C        0.98420    0.72420    0.62590    1.000
    H10      H        0.03460    0.73260    0.64770    1.000
    C13      C        0.97140    0.70790    0.53270    1.000
    C14      C        0.83560    0.69520    0.57310    1.000
    H11      H        0.78520    0.68150    0.55550    1.000
    C15      C        0.17200    0.69540    0.42660    1.000
    H12      H        0.22240    0.68160    0.44450    1.000
    C16      C        0.11190    0.68830    0.48860    1.000
    H13      H        0.12210    0.66950    0.54710    1.000
    C17      C        0.03650    0.70900    0.46500    1.000
    C18      C        0.08580    0.73670    0.31570    1.000
    H14      H        0.07610    0.75070    0.25530    1.000
    C19      C        0.02330    0.73260    0.37470    1.000
    H15      H        0.97310    0.74520    0.35500    1.000
    C20      C        0.89430    0.69320    0.50790    1.000
    H16      H        0.88200    0.68190    0.44730    1.000
    N3       N        0.84760    0.71570    0.65910    1.000
    N4       N        0.72170    0.83980    0.65980    1.000
    O7       O        0.51910    0.62930    0.68200    1.000
    O8       O        0.37960    0.63080    0.62340    1.000
    O9       O        0.63110    0.50920    0.68220    1.000
    O10      O        0.68650    0.55950    0.53890    1.000
    O11      O        0.57290    0.67970    0.53700    1.000
    O12      O        0.68120    0.67170    0.68180    1.000
    V9       V        0.38682    0.62129    0.37190    1.000
    V10      V        0.45266    0.31456    0.41131    1.000
    V11      V        0.31133    0.46679    0.41296    1.000
    V12      V        0.42894    0.43373    0.26983    1.000
    C21      C        0.27260    0.92140    0.31590    1.000
    H17      H        0.26150    0.93110    0.25460    1.000
    C22      C        0.27580    0.98420    0.37410    1.000
    H18      H        0.26740    0.03460    0.35230    1.000
    C23      C        0.29210    0.97140    0.46730    1.000
    C24      C        0.30480    0.83560    0.42690    1.000
    H19      H        0.31850    0.78520    0.44450    1.000
    C25      C        0.30460    0.17200    0.57340    1.000
    H20      H        0.31840    0.22240    0.55550    1.000
    C26      C        0.31170    0.11190    0.51140    1.000
    H21      H        0.33050    0.12210    0.45290    1.000
    C27      C        0.29100    0.03650    0.53500    1.000
    C28      C        0.26330    0.08580    0.68430    1.000
    H22      H        0.24930    0.07610    0.74470    1.000
    C29      C        0.26740    0.02330    0.62530    1.000
    H23      H        0.25480    0.97310    0.64500    1.000
    C30      C        0.30680    0.89430    0.49210    1.000
    H24      H        0.31810    0.88200    0.55270    1.000
    N5       N        0.28430    0.84760    0.34090    1.000
    N6       N        0.16020    0.72170    0.34020    1.000
    O13      O        0.37070    0.51910    0.31800    1.000
    O14      O        0.36920    0.37960    0.37660    1.000
    O15      O        0.49080    0.63110    0.31780    1.000
    O16      O        0.44050    0.68650    0.46110    1.000
    O17      O        0.32030    0.57290    0.46300    1.000
    O18      O        0.32830    0.68120    0.31820    1.000
    V13      V        0.61318    0.37871    0.37190    1.000
    V14      V        0.54734    0.68544    0.41131    1.000
    V15      V        0.68867    0.53321    0.41296    1.000
    V16      V        0.57106    0.56627    0.26983    1.000
    C31      C        0.72740    0.07860    0.31590    1.000
    H25      H        0.73850    0.06890    0.25460    1.000
    C32      C        0.72420    0.01580    0.37410    1.000
    H26      H        0.73260    0.96540    0.35230    1.000
    C33      C        0.70790    0.02860    0.46730    1.000
    C34      C        0.69520    0.16440    0.42690    1.000
    H27      H        0.68150    0.21480    0.44450    1.000
    C35      C        0.69540    0.82800    0.57340    1.000
    H28      H        0.68160    0.77760    0.55550    1.000
    C36      C        0.68830    0.88810    0.51140    1.000
    H29      H        0.66950    0.87790    0.45290    1.000
    C37      C        0.70900    0.96350    0.53500    1.000
    C38      C        0.73670    0.91420    0.68430    1.000
    H30      H        0.75070    0.92390    0.74470    1.000
    C39      C        0.73260    0.97670    0.62530    1.000
    H31      H        0.74520    0.02690    0.64500    1.000
    C40      C        0.69320    0.10570    0.49210    1.000
    H32      H        0.68190    0.11800    0.55270    1.000
    N7       N        0.71570    0.15240    0.34090    1.000
    N8       N        0.83980    0.27830    0.34020    1.000
    O19      O        0.62930    0.48090    0.31800    1.000
    O20      O        0.63080    0.62040    0.37660    1.000
    O21      O        0.50920    0.36890    0.31780    1.000
    O22      O        0.55950    0.31350    0.46110    1.000
    O23      O        0.67970    0.42710    0.46300    1.000
    O24      O        0.67170    0.31880    0.31820    1.000
    V17      V        0.87871    0.11318    0.12810    1.000
    V18      V        0.18544    0.04734    0.08869    1.000
    V19      V        0.03321    0.18867    0.08704    1.000
    V20      V        0.06627    0.07106    0.23017    1.000
    C41      C        0.57860    0.22740    0.18410    1.000
    H33      H        0.56890    0.23850    0.24540    1.000
    C42      C        0.51580    0.22420    0.12590    1.000
    H34      H        0.46540    0.23260    0.14770    1.000
    C43      C        0.52860    0.20790    0.03270    1.000
    C44      C        0.66440    0.19520    0.07310    1.000
    H35      H        0.71480    0.18150    0.05550    1.000
    C45      C        0.32800    0.19540    0.92660    1.000
    H36      H        0.27760    0.18160    0.94450    1.000
    C46      C        0.38810    0.18830    0.98860    1.000
    H37      H        0.37790    0.16950    0.04710    1.000
    C47      C        0.46350    0.20900    0.96500    1.000
    C48      C        0.41420    0.23670    0.81570    1.000
    H38      H        0.42390    0.25070    0.75530    1.000
    C49      C        0.47670    0.23260    0.87470    1.000
    H39      H        0.52690    0.24520    0.85500    1.000
    C50      C        0.60570    0.19320    0.00790    1.000
    H40      H        0.61800    0.18190    0.94730    1.000
    N9       N        0.65240    0.21570    0.15910    1.000
    N10      N        0.77830    0.33980    0.15980    1.000
    O25      O        0.98090    0.12930    0.18200    1.000
    O26      O        0.12040    0.13080    0.12340    1.000
    O27      O        0.86890    0.00920    0.18220    1.000
    O28      O        0.81350    0.05950    0.03890    1.000
    O29      O        0.92710    0.17970    0.03700    1.000
    O30      O        0.81880    0.17170    0.18180    1.000
    V21      V        0.12129    0.88682    0.12810    1.000
    V22      V        0.81456    0.95266    0.08869    1.000
    V23      V        0.96679    0.81133    0.08704    1.000
    V24      V        0.93373    0.92894    0.23017    1.000
    C51      C        0.42140    0.77260    0.18410    1.000
    H41      H        0.43110    0.76150    0.24540    1.000
    C52      C        0.48420    0.77580    0.12590    1.000
    H42      H        0.53460    0.76740    0.14770    1.000
    C53      C        0.47140    0.79210    0.03270    1.000
    C54      C        0.33560    0.80480    0.07310    1.000
    H43      H        0.28520    0.81850    0.05550    1.000
    C55      C        0.67200    0.80460    0.92660    1.000
    H44      H        0.72240    0.81840    0.94450    1.000
    C56      C        0.61190    0.81170    0.98860    1.000
    H45      H        0.62210    0.83050    0.04710    1.000
    C57      C        0.53650    0.79100    0.96500    1.000
    C58      C        0.58580    0.76330    0.81570    1.000
    H46      H        0.57610    0.74930    0.75530    1.000
    C59      C        0.52330    0.76740    0.87470    1.000
    H47      H        0.47310    0.75480    0.85500    1.000
    C60      C        0.39430    0.80680    0.00790    1.000
    H48      H        0.38200    0.81810    0.94730    1.000
    N11      N        0.34760    0.78430    0.15910    1.000
    N12      N        0.22170    0.66020    0.15980    1.000
    O31      O        0.01910    0.87070    0.18200    1.000
    O32      O        0.87960    0.86920    0.12340    1.000
    O33      O        0.13110    0.99080    0.18220    1.000
    O34      O        0.18650    0.94050    0.03890    1.000
    O35      O        0.07290    0.82030    0.03700    1.000
    O36      O        0.18120    0.82830    0.18180    1.000
    V25      V        0.88682    0.87871    0.87190    1.000
    V26      V        0.95266    0.18544    0.91131    1.000
    V27      V        0.81133    0.03321    0.91296    1.000
    V28      V        0.92894    0.06627    0.76983    1.000
    C61      C        0.77260    0.57860    0.81590    1.000
    H49      H        0.76150    0.56890    0.75460    1.000
    C62      C        0.77580    0.51580    0.87410    1.000
    H50      H        0.76740    0.46540    0.85230    1.000
    C63      C        0.79210    0.52860    0.96730    1.000
    C64      C        0.80480    0.66440    0.92690    1.000
    H51      H        0.81850    0.71480    0.94450    1.000
    C65      C        0.80460    0.32800    0.07340    1.000
    H52      H        0.81840    0.27760    0.05550    1.000
    C66      C        0.81170    0.38810    0.01140    1.000
    H53      H        0.83050    0.37790    0.95290    1.000
    C67      C        0.79100    0.46350    0.03500    1.000
    C68      C        0.76330    0.41420    0.18430    1.000
    H54      H        0.74930    0.42390    0.24470    1.000
    C69      C        0.76740    0.47670    0.12530    1.000
    H55      H        0.75480    0.52690    0.14500    1.000
    C70      C        0.80680    0.60570    0.99210    1.000
    H56      H        0.81810    0.61800    0.05270    1.000
    N13      N        0.78430    0.65240    0.84090    1.000
    N14      N        0.66020    0.77830    0.84020    1.000
    O37      O        0.87070    0.98090    0.81800    1.000
    O38      O        0.86920    0.12040    0.87660    1.000
    O39      O        0.99080    0.86890    0.81780    1.000
    O40      O        0.94050    0.81350    0.96110    1.000
    O41      O        0.82030    0.92710    0.96300    1.000
    O42      O        0.82830    0.81880    0.81820    1.000
    V29      V        0.11318    0.12129    0.87190    1.000
    V30      V        0.04734    0.81456    0.91131    1.000
    V31      V        0.18867    0.96679    0.91296    1.000
    V32      V        0.07106    0.93373    0.76983    1.000
    C71      C        0.22740    0.42140    0.81590    1.000
    H57      H        0.23850    0.43110    0.75460    1.000
    C72      C        0.22420    0.48420    0.87410    1.000
    H58      H        0.23260    0.53460    0.85230    1.000
    C73      C        0.20790    0.47140    0.96730    1.000
    C74      C        0.19520    0.33560    0.92690    1.000
    H59      H        0.18150    0.28520    0.94450    1.000
    C75      C        0.19540    0.67200    0.07340    1.000
    H60      H        0.18160    0.72240    0.05550    1.000
    C76      C        0.18830    0.61190    0.01140    1.000
    H61      H        0.16950    0.62210    0.95290    1.000
    C77      C        0.20900    0.53650    0.03500    1.000
    C78      C        0.23670    0.58580    0.18430    1.000
    H62      H        0.25070    0.57610    0.24470    1.000
    C79      C        0.23260    0.52330    0.12530    1.000
    H63      H        0.24520    0.47310    0.14500    1.000
    C80      C        0.19320    0.39430    0.99210    1.000
    H64      H        0.18190    0.38200    0.05270    1.000
    N15      N        0.21570    0.34760    0.84090    1.000
    N16      N        0.33980    0.22170    0.84020    1.000
    O43      O        0.12930    0.01910    0.81800    1.000
    O44      O        0.13080    0.87960    0.87660    1.000
    O45      O        0.00920    0.13110    0.81780    1.000
    O46      O        0.05950    0.18650    0.96110    1.000
    O47      O        0.17970    0.07290    0.96300    1.000
    O48      O        0.17170    0.18120    0.81820    1.000
    Ni1      Ni       0.24639    0.25361    0.75000    1.000
    Ni2      Ni       0.75361    0.74639    0.75000    1.000
    Ni3      Ni       0.25361    0.75361    0.25000    1.000
    Ni4      Ni       0.74639    0.24639    0.25000    1.000
    O49      O        0.50000    0.50000    0.78240    1.000
    O50      O        0.50000    0.50000    0.21760    1.000
    O51      O        0.00000    0.00000    0.28240    1.000
    O52      O        0.00000    0.00000    0.71760    1.000
