data_functionalizedCrystal
_audit_creation_method	'EQeq! by Chris Wilmer'
_symmetry_space_group_name_H-M	'P1'
_symmetry_Int_Tables_number	1
_symmetry_cell_setting	triclinic
loop_
_symmetry_equiv_pos_as_xyz
  x,y,z
_cell_length_a	16.378
_cell_length_b	16.16
_cell_length_c	5.277
_cell_angle_alpha	90
_cell_angle_beta	90
_cell_angle_gamma	90
loop_
_atom_site_label
_atom_site_type_symbol
_atom_site_fract_x
_atom_site_fract_y
_atom_site_fract_z
_atom_site_charge
Mof_N 	N 	0.2532	0.1104	0.8847	-0.209
Mof_N 	N 	0.1389	0.0036	0.3585	-0.227
Mof_C 	C 	0.2486	0.1522	0.059	0.028
Mof_C 	C 	0.2454	0.2039	0.2844	-0.043
Mof_H 	H 	0.2921	0.192	0.3912	0.059
Mof_H 	H 	0.1963	0.1911	0.3798	-0.014
Mof_C 	C 	0.259	0.1764	0.966	0.036
Mof_C 	C 	0.251	0.255	0.102	-0.09
Mof_H 	H 	0.2011	0.2822	0.0506	0.062
Mof_H 	H 	0.2964	0.2907	0.0534	-0.015
Mof_C 	C 	0.0992	0.9974	0.182	-0.669
Mof_C 	C 	0.0455	0.9953	0.9628	0.451
Mof_H 	H 	0.053	0.9433	0.874	-0.171
Mof_H 	H 	0.0604	0.0397	0.848	-0.03
Mof_C 	C 	0.0764	0.0103	0.265	0.749
Mof_C 	C 	0.9976	0.0127	0.136	-0.496
Mof_H 	H 	0.9758	0.0685	0.146	0.018
Mof_H 	H 	0.9599	0.9763	0.2239	0.302
Mof_N 	N 	0.2468	0.8896	0.8847	-0.165
Mof_N 	N 	0.3611	0.9964	0.3585	-0.147
Mof_C 	C 	0.2514	0.8478	0.059	-0.011
Mof_C 	C 	0.2546	0.7961	0.2844	-0.004
Mof_H 	H 	0.2079	0.808	0.3912	0.092
Mof_H 	H 	0.3037	0.8089	0.3798	-0.014
Mof_C 	C 	0.241	0.8236	0.966	0.105
Mof_C 	C 	0.249	0.745	0.102	-0.108
Mof_H 	H 	0.2989	0.7178	0.0506	0.074
Mof_H 	H 	0.2036	0.7093	0.0534	-0.03
Mof_C 	C 	0.4008	0.0026	0.182	0.517
Mof_C 	C 	0.4545	0.0047	0.9628	-0.664
Mof_H 	H 	0.447	0.0567	0.874	0.339
Mof_H 	H 	0.4396	0.9603	0.848	0.094
Mof_C 	C 	0.4236	0.9897	0.265	-0.45
Mof_C 	C 	0.5024	0.9873	0.136	0.391
Mof_H 	H 	0.5242	0.9315	0.146	0.086
Mof_H 	H 	0.5401	0.0237	0.2239	-0.21
Mof_N 	N 	0.2468	0.6104	0.6153	-0.207
Mof_N 	N 	0.3611	0.5036	0.1415	-0.205
Mof_C 	C 	0.2514	0.6522	0.441	0.091
Mof_C 	C 	0.2546	0.7039	0.2156	-0.053
Mof_H 	H 	0.2079	0.692	0.1088	0.087
Mof_H 	H 	0.3037	0.6911	0.1202	-0.016
Mof_C 	C 	0.241	0.6764	0.534	-0.003
Mof_C 	C 	0.249	0.755	0.398	-0.093
Mof_H 	H 	0.2989	0.7822	0.4494	0.066
Mof_H 	H 	0.2036	0.7907	0.4466	-0.036
Mof_C 	C 	0.4008	0.4974	0.318	0.04
Mof_C 	C 	0.4545	0.4953	0.5372	-0.063
Mof_H 	H 	0.447	0.4433	0.626	0.024
Mof_H 	H 	0.4396	0.5397	0.652	0.008
Mof_C 	C 	0.4236	0.5103	0.235	0.038
Mof_C 	C 	0.5024	0.5127	0.364	-0.054
Mof_H 	H 	0.5242	0.5685	0.354	0.022
Mof_H 	H 	0.5401	0.4763	0.2761	0.037
Mof_N 	N 	0.2532	0.3896	0.6153	-0.206
Mof_N 	N 	0.1389	0.4964	0.1415	-0.207
Mof_C 	C 	0.2486	0.3478	0.441	0.048
Mof_C 	C 	0.2454	0.2961	0.2156	-0.041
Mof_H 	H 	0.2921	0.308	0.1088	0.06
Mof_H 	H 	0.1963	0.3089	0.1202	-0.02
Mof_C 	C 	0.259	0.3236	0.534	0.023
Mof_C 	C 	0.251	0.245	0.398	-0.076
Mof_H 	H 	0.2011	0.2178	0.4494	0.051
Mof_H 	H 	0.2964	0.2093	0.4466	-0.021
Mof_C 	C 	0.0992	0.5026	0.318	-0.14
Mof_C 	C 	0.0455	0.5047	0.5372	-0.144
Mof_H 	H 	0.053	0.5567	0.626	0.119
Mof_H 	H 	0.0604	0.4603	0.652	0.039
Mof_C 	C 	0.0764	0.4897	0.235	0.202
Mof_C 	C 	0.9976	0.4873	0.364	-0.061
Mof_H 	H 	0.9758	0.4315	0.354	0.102
Mof_H 	H 	0.9599	0.5237	0.2761	0.07
Mof_N 	N 	0.7468	0.8896	0.1153	-0.166
Mof_N 	N 	0.8611	0.9964	0.6415	-0.148
Mof_C 	C 	0.7514	0.8478	0.941	0.022
Mof_C 	C 	0.7546	0.7961	0.7156	-0.02
Mof_H 	H 	0.7079	0.808	0.6088	0.069
Mof_H 	H 	0.8037	0.8089	0.6202	-0.001
Mof_C 	C 	0.741	0.8236	0.034	0.076
Mof_C 	C 	0.749	0.745	0.898	-0.089
Mof_H 	H 	0.7989	0.7178	0.9494	0.065
Mof_H 	H 	0.7036	0.7093	0.9466	-0.008
Mof_C 	C 	0.9008	0.0026	0.818	0.693
Mof_C 	C 	0.9545	0.0047	0.0372	-0.586
Mof_H 	H 	0.947	0.0567	0.126	0.251
Mof_H 	H 	0.9396	0.9603	0.152	0.068
Mof_C 	C 	0.9236	0.9897	0.735	-0.609
Mof_C 	C 	0.0024	0.9873	0.864	0.387
Mof_H 	H 	0.0242	0.9315	0.854	0.005
Mof_H 	H 	0.0401	0.0237	0.7761	-0.237
Mof_N 	N 	0.7532	0.1104	0.1153	-0.209
Mof_N 	N 	0.6389	0.0036	0.6415	-0.227
Mof_C 	C 	0.7486	0.1522	0.941	0.059
Mof_C 	C 	0.7454	0.2039	0.7156	-0.059
Mof_H 	H 	0.7921	0.192	0.6088	0.037
Mof_H 	H 	0.6963	0.1911	0.6202	-0.001
Mof_C 	C 	0.759	0.1764	0.034	0.009
Mof_C 	C 	0.751	0.255	0.898	-0.072
Mof_H 	H 	0.7011	0.2822	0.9494	0.053
Mof_H 	H 	0.7964	0.2907	0.9466	0.007
Mof_C 	C 	0.5992	0.9974	0.818	-0.475
Mof_C 	C 	0.5455	0.9953	0.0372	0.532
Mof_H 	H 	0.553	0.9433	0.126	-0.266
Mof_H 	H 	0.5604	0.0397	0.152	-0.059
Mof_C 	C 	0.5764	0.0103	0.735	0.572
Mof_C 	C 	0.4976	0.0127	0.864	-0.503
Mof_H 	H 	0.4758	0.0685	0.854	-0.057
Mof_H 	H 	0.4599	0.9763	0.7761	0.281
Mof_N 	N 	0.7532	0.3896	0.3847	-0.208
Mof_N 	N 	0.6389	0.4964	0.8585	-0.207
Mof_C 	C 	0.7486	0.3478	0.559	0.05
Mof_C 	C 	0.7454	0.2961	0.7844	-0.047
Mof_H 	H 	0.7921	0.308	0.8912	0.037
Mof_H 	H 	0.6963	0.3089	0.8798	-0.006
Mof_C 	C 	0.759	0.3236	0.466	0.027
Mof_C 	C 	0.751	0.245	0.602	-0.069
Mof_H 	H 	0.7011	0.2178	0.5506	0.049
Mof_H 	H 	0.7964	0.2093	0.5534	0.004
Mof_C 	C 	0.5992	0.5026	0.682	0.042
Mof_C 	C 	0.5455	0.5047	0.4628	-0.068
Mof_H 	H 	0.553	0.5567	0.374	0.028
Mof_H 	H 	0.5604	0.4603	0.348	0.009
Mof_C 	C 	0.5764	0.4897	0.765	0.038
Mof_C 	C 	0.4976	0.4873	0.636	-0.059
Mof_H 	H 	0.4758	0.4315	0.646	0.022
Mof_H 	H 	0.4599	0.5237	0.7239	0.041
Mof_N 	N 	0.7468	0.6104	0.3847	-0.209
Mof_N 	N 	0.8611	0.5036	0.8585	-0.206
Mof_C 	C 	0.7514	0.6522	0.559	0.092
Mof_C 	C 	0.7546	0.7039	0.7844	-0.059
Mof_H 	H 	0.7079	0.692	0.8912	0.063
Mof_H 	H 	0.8037	0.6911	0.8798	-0.002
Mof_C 	C 	0.741	0.6764	0.466	0
Mof_C 	C 	0.749	0.755	0.602	-0.086
Mof_H 	H 	0.7989	0.7822	0.5506	0.063
Mof_H 	H 	0.7036	0.7907	0.5534	-0.01
Mof_C 	C 	0.9008	0.4974	0.682	0.223
Mof_C 	C 	0.9545	0.4953	0.4628	0.013
Mof_H 	H 	0.947	0.4433	0.374	-0.068
Mof_H 	H 	0.9396	0.5397	0.348	-0.022
Mof_C 	C 	0.9236	0.5103	0.765	-0.127
Mof_C 	C 	0.0024	0.5127	0.636	-0.053
Mof_H 	H 	0.0242	0.5685	0.646	-0.058
Mof_H 	H 	0.0401	0.4763	0.7239	0.007
Mof_Ag	Ag	0.25	0	0.61884	0.493
Mof_Ag	Ag	0.25	0.5	0.88116	0.622
Mof_Ag	Ag	0.75	0	0.38116	0.498
Mof_Ag	Ag	0.75	0.5	0.11884	0.632
_end
