data_functionalizedCrystal
_audit_creation_method	'EQeq! by Chris Wilmer'
_symmetry_space_group_name_H-M	'P1'
_symmetry_Int_Tables_number	1
_symmetry_cell_setting	triclinic
loop_
_symmetry_equiv_pos_as_xyz
  x,y,z
_cell_length_a	5.0169
_cell_length_b	20.6949
_cell_length_c	24.9851
_cell_angle_alpha	90
_cell_angle_beta	90
_cell_angle_gamma	95.721
loop_
_atom_site_label
_atom_site_type_symbol
_atom_site_fract_x
_atom_site_fract_y
_atom_site_fract_z
_atom_site_charge
Mof_Mn	Mn	0.17934	0.06154	0.96045	0.889
Mof_Mn	Mn	0.32066	0.43846	0.46045	0.892
Mof_Mn	Mn	0.82066	0.93846	0.03955	0.889
Mof_Mn	Mn	0.67934	0.56154	0.53955	0.892
Mof_H 	H 	0.6816	0.3416	0.4024	0.003
Mof_H 	H 	0.6917	0.2792	0.3245	0.125
Mof_H 	H 	0.0799	0.3698	0.2632	0.133
Mof_H 	H 	0.0697	0.4322	0.3411	0
Mof_H 	H 	0.94	0.3127	0.1226	0.071
Mof_H 	H 	0.998	0.2438	0.0512	0.042
Mof_H 	H 	0.0146	0.0432	0.1407	0.035
Mof_H 	H 	0.9358	0.1177	0.206	0.069
Mof_H 	H 	0.8184	0.1584	0.9024	0.003
Mof_H 	H 	0.8083	0.2208	0.8245	0.123
Mof_H 	H 	0.4201	0.1302	0.7632	0.132
Mof_H 	H 	0.4303	0.0678	0.8411	0.001
Mof_H 	H 	0.56	0.1873	0.6226	0.071
Mof_H 	H 	0.502	0.2562	0.5512	0.041
Mof_H 	H 	0.4854	0.4568	0.6407	0.033
Mof_H 	H 	0.5642	0.3823	0.706	0.072
Mof_H 	H 	0.3184	0.6584	0.5976	0.003
Mof_H 	H 	0.3083	0.7208	0.6755	0.125
Mof_H 	H 	0.9201	0.6302	0.7368	0.133
Mof_H 	H 	0.9303	0.5678	0.6589	0
Mof_H 	H 	0.06	0.6873	0.8774	0.071
Mof_H 	H 	0.002	0.7562	0.9488	0.042
Mof_H 	H 	0.9854	0.9568	0.8593	0.035
Mof_H 	H 	0.0642	0.8823	0.794	0.069
Mof_H 	H 	0.1816	0.8416	0.0976	0.003
Mof_H 	H 	0.1917	0.7792	0.1755	0.123
Mof_H 	H 	0.5799	0.8698	0.2368	0.132
Mof_H 	H 	0.5697	0.9322	0.1589	0.001
Mof_H 	H 	0.44	0.8127	0.3774	0.071
Mof_H 	H 	0.498	0.7438	0.4488	0.041
Mof_H 	H 	0.5146	0.5432	0.3593	0.033
Mof_H 	H 	0.4358	0.6177	0.294	0.072
Mof_C 	C 	0.5594	0.3473	0.3742	0.105
Mof_C 	C 	0.5654	0.3102	0.3279	-0.194
Mof_C 	C 	0.387	0.3186	0.2865	0.205
Mof_C 	C 	0.202	0.364	0.2915	-0.196
Mof_C 	C 	0.196	0.4011	0.3378	0.108
Mof_C 	C 	0.589	0.3003	0.2016	0.218
Mof_C 	C 	0.62	0.2572	0.1547	-0.03
Mof_C 	C 	0.4528	0.1985	0.1495	-0.001
Mof_C 	C 	0.247	0.1842	0.1869	-0.032
Mof_C 	C 	0.2	0.2278	0.2319	0.212
Mof_C 	C 	0.825	0.2736	0.1185	-0.057
Mof_C 	C 	0.859	0.2321	0.0763	0.029
Mof_C 	C 	0.7	0.1741	0.0691	-0.129
Mof_C 	C 	0.4996	0.1555	0.1066	0.096
Mof_C 	C 	0.3335	0.0953	0.1062	-0.123
Mof_C 	C 	0.1268	0.0829	0.1429	0.026
Mof_C 	C 	0.082	0.1267	0.182	-0.051
Mof_C 	C 	0.3933	0.0372	0.0726	0.377
Mof_C 	C 	0.7493	0.1393	0.0175	0.407
Mof_C 	C 	0.9406	0.1527	0.8742	0.106
Mof_C 	C 	0.9346	0.1898	0.8279	-0.188
Mof_C 	C 	0.113	0.1814	0.7865	0.199
Mof_C 	C 	0.298	0.136	0.7915	-0.194
Mof_C 	C 	0.304	0.0989	0.8378	0.106
Mof_C 	C 	0.911	0.1997	0.7016	0.221
Mof_C 	C 	0.88	0.2428	0.6547	-0.025
Mof_C 	C 	0.0472	0.3015	0.6495	-0.006
Mof_C 	C 	0.253	0.3158	0.6869	-0.03
Mof_C 	C 	0.3	0.2722	0.7319	0.21
Mof_C 	C 	0.675	0.2264	0.6185	-0.058
Mof_C 	C 	0.641	0.2679	0.5763	0.029
Mof_C 	C 	0.8	0.3259	0.5691	-0.126
Mof_C 	C 	0.0004	0.3445	0.6066	0.094
Mof_C 	C 	0.1665	0.4047	0.6062	-0.124
Mof_C 	C 	0.3732	0.4171	0.6429	0.029
Mof_C 	C 	0.418	0.3733	0.682	-0.056
Mof_C 	C 	0.1067	0.4628	0.5726	0.375
Mof_C 	C 	0.7507	0.3607	0.5175	0.406
Mof_C 	C 	0.4406	0.6527	0.6258	0.105
Mof_C 	C 	0.4346	0.6898	0.6721	-0.194
Mof_C 	C 	0.613	0.6814	0.7135	0.205
Mof_C 	C 	0.798	0.636	0.7085	-0.196
Mof_C 	C 	0.804	0.5989	0.6622	0.108
Mof_C 	C 	0.411	0.6997	0.7984	0.218
Mof_C 	C 	0.38	0.7428	0.8453	-0.03
Mof_C 	C 	0.5472	0.8015	0.8505	-0.001
Mof_C 	C 	0.753	0.8158	0.8131	-0.032
Mof_C 	C 	0.8	0.7722	0.7681	0.212
Mof_C 	C 	0.175	0.7264	0.8815	-0.057
Mof_C 	C 	0.141	0.7679	0.9237	0.029
Mof_C 	C 	0.3	0.8259	0.9309	-0.129
Mof_C 	C 	0.5004	0.8445	0.8934	0.096
Mof_C 	C 	0.6665	0.9047	0.8938	-0.123
Mof_C 	C 	0.8732	0.9171	0.8571	0.026
Mof_C 	C 	0.918	0.8733	0.818	-0.051
Mof_C 	C 	0.6067	0.9628	0.9274	0.377
Mof_C 	C 	0.2507	0.8607	0.9825	0.407
Mof_C 	C 	0.0594	0.8473	0.1258	0.106
Mof_C 	C 	0.0654	0.8102	0.1721	-0.188
Mof_C 	C 	0.887	0.8186	0.2135	0.199
Mof_C 	C 	0.702	0.864	0.2085	-0.194
Mof_C 	C 	0.696	0.9011	0.1622	0.106
Mof_C 	C 	0.089	0.8003	0.2984	0.221
Mof_C 	C 	0.12	0.7572	0.3453	-0.025
Mof_C 	C 	0.9528	0.6985	0.3505	-0.006
Mof_C 	C 	0.747	0.6842	0.3131	-0.03
Mof_C 	C 	0.7	0.7278	0.2681	0.21
Mof_C 	C 	0.325	0.7736	0.3815	-0.058
Mof_C 	C 	0.359	0.7321	0.4237	0.029
Mof_C 	C 	0.2	0.6741	0.4309	-0.126
Mof_C 	C 	0.9996	0.6555	0.3934	0.094
Mof_C 	C 	0.8335	0.5953	0.3938	-0.124
Mof_C 	C 	0.6268	0.5829	0.3571	0.029
Mof_C 	C 	0.582	0.6267	0.318	-0.056
Mof_C 	C 	0.8933	0.5372	0.4274	0.375
Mof_C 	C 	0.2493	0.6393	0.4825	0.406
Mof_N 	N 	0.3747	0.3928	0.3791	-0.195
Mof_N 	N 	0.3943	0.2808	0.2372	-0.191
Mof_N 	N 	0.1253	0.1072	0.8791	-0.197
Mof_N 	N 	0.1057	0.2192	0.7372	-0.193
Mof_N 	N 	0.6253	0.6072	0.6209	-0.195
Mof_N 	N 	0.6057	0.7192	0.7628	-0.191
Mof_N 	N 	0.8747	0.8928	0.1209	-0.197
Mof_N 	N 	0.8943	0.7808	0.2628	-0.193
Mof_O 	O 	0.2143	0.0096	0.042	-0.409
Mof_O 	O 	0.62	0.0187	0.0796	-0.364
Mof_O 	O 	0.5525	0.1218	0.9887	-0.367
Mof_O 	O 	0.9851	0.1363	0.006	-0.364
Mof_O 	O 	0.7349	0.3513	0.2069	-0.225
Mof_O 	O 	0.0166	0.218	0.2639	-0.22
Mof_O 	O 	0.2857	0.4904	0.542	-0.41
Mof_O 	O 	0.88	0.4813	0.5796	-0.363
Mof_O 	O 	0.9475	0.3782	0.4887	-0.365
Mof_O 	O 	0.5149	0.3637	0.506	-0.366
Mof_O 	O 	0.7651	0.1487	0.7069	-0.224
Mof_O 	O 	0.4834	0.282	0.7639	-0.22
Mof_O 	O 	0.7857	0.9904	0.958	-0.409
Mof_O 	O 	0.38	0.9813	0.9204	-0.364
Mof_O 	O 	0.4475	0.8782	0.0113	-0.367
Mof_O 	O 	0.0149	0.8637	0.994	-0.364
Mof_O 	O 	0.2651	0.6487	0.7931	-0.225
Mof_O 	O 	0.9834	0.782	0.7361	-0.22
Mof_O 	O 	0.7143	0.5096	0.458	-0.41
Mof_O 	O 	0.12	0.5187	0.4204	-0.363
Mof_O 	O 	0.0525	0.6218	0.5113	-0.365
Mof_O 	O 	0.4851	0.6363	0.494	-0.366
Mof_O 	O 	0.2349	0.8513	0.2931	-0.224
Mof_O 	O 	0.5166	0.718	0.2361	-0.22
_end
