# CIF file generated by openbabel 3.1.0, see https://openbabel.org
data_I
_chemical_name_common 'image0'
_cell_length_a 8.13
_cell_length_b 20.174
_cell_length_c 9.014
_cell_angle_alpha 90
_cell_angle_beta 91.423
_cell_angle_gamma 90
_space_group_name_H-M_alt 'P 1'
_space_group_name_Hall 'P 1'
loop_
    _symmetry_equiv_pos_as_xyz
    x,y,z
loop_
    _atom_site_label
    _atom_site_type_symbol
    _atom_site_fract_x
    _atom_site_fract_y
    _atom_site_fract_z
    _atom_site_occupancy
    N1       N        0.35150    0.57290    0.61039    1.000
    N2       N        0.18120    0.57947    0.58830    1.000
    N3       N        0.27770    0.66451    0.71400    1.000
    N4       N        0.30350    0.72663    0.77620    1.000
    N5       N        0.17360    0.75897    0.77020    1.000
    N6       N        0.20160    0.82169    0.82890    1.000
    N7       N        0.13810    0.91925    0.90871    1.000
    N8       N        0.30860    0.91289    0.92060    1.000
    N9       N        0.65960    0.49666    0.69416    1.000
    N10      N        0.58180    0.49526    0.83065    1.000
    N11      N        0.84750    0.49757    0.86827    1.000
    N12      N        0.00390    0.49955    0.93118    1.000
    C1       C        0.40530    0.62378    0.68520    1.000
    H1       H        0.51670    0.63120    0.71510    1.000
    C2       C        0.14040    0.63518    0.65000    1.000
    H2       H        0.03230    0.65300    0.65090    1.000
    C3       C        0.07770    0.86501    0.85190    1.000
    H3       H        0.96450    0.85700    0.82990    1.000
    C4       C        0.34380    0.85379    0.87160    1.000
    H4       H        0.45140    0.83580    0.86630    1.000
    C5       C        0.81840    0.49777    0.71900    1.000
    H5       H        0.89990    0.49860    0.64520    1.000
    C6       C        0.69670    0.49612    0.93360    1.000
    H6       H        0.67910    0.49580    0.03750    1.000
    N13      N        0.14850    0.07290    0.88961    1.000
    N14      N        0.31880    0.07947    0.91170    1.000
    N15      N        0.22230    0.16451    0.78600    1.000
    N16      N        0.19650    0.22663    0.72380    1.000
    N17      N        0.32640    0.25897    0.72980    1.000
    N18      N        0.29840    0.32169    0.67110    1.000
    N19      N        0.36190    0.41925    0.59129    1.000
    N20      N        0.19140    0.41289    0.57940    1.000
    N21      N        0.84040    0.99666    0.80584    1.000
    N22      N        0.91820    0.99526    0.66935    1.000
    N23      N        0.65250    0.99757    0.63173    1.000
    N24      N        0.49610    0.99955    0.56882    1.000
    C7       C        0.09470    0.12378    0.81480    1.000
    H7       H        0.98330    0.13120    0.78490    1.000
    C8       C        0.35960    0.13518    0.85000    1.000
    H8       H        0.46770    0.15300    0.84910    1.000
    C9       C        0.42230    0.36501    0.64810    1.000
    H9       H        0.53550    0.35700    0.67010    1.000
    C10      C        0.15620    0.35379    0.62840    1.000
    H10      H        0.04860    0.33580    0.63370    1.000
    C11      C        0.68160    0.99777    0.78100    1.000
    H11      H        0.60010    0.99860    0.85480    1.000
    C12      C        0.80330    0.99612    0.56640    1.000
    H12      H        0.82090    0.99580    0.46250    1.000
    N25      N        0.64850    0.42710    0.38961    1.000
    N26      N        0.81880    0.42053    0.41170    1.000
    N27      N        0.72230    0.33549    0.28600    1.000
    N28      N        0.69650    0.27337    0.22380    1.000
    N29      N        0.82640    0.24103    0.22980    1.000
    N30      N        0.79840    0.17831    0.17110    1.000
    N31      N        0.86190    0.08075    0.09129    1.000
    N32      N        0.69140    0.08711    0.07940    1.000
    N33      N        0.34040    0.50334    0.30584    1.000
    N34      N        0.41820    0.50474    0.16935    1.000
    N35      N        0.15250    0.50243    0.13173    1.000
    N36      N        0.99610    0.50045    0.06882    1.000
    C13      C        0.59470    0.37622    0.31480    1.000
    H13      H        0.48330    0.36880    0.28490    1.000
    C14      C        0.85960    0.36482    0.35000    1.000
    H14      H        0.96770    0.34700    0.34910    1.000
    C15      C        0.92230    0.13499    0.14810    1.000
    H15      H        0.03550    0.14300    0.17010    1.000
    C16      C        0.65620    0.14621    0.12840    1.000
    H16      H        0.54860    0.16420    0.13370    1.000
    C17      C        0.18160    0.50223    0.28100    1.000
    H17      H        0.10010    0.50140    0.35480    1.000
    C18      C        0.30330    0.50388    0.06640    1.000
    H18      H        0.32090    0.50420    0.96250    1.000
    N37      N        0.85150    0.92710    0.11039    1.000
    N38      N        0.68120    0.92053    0.08830    1.000
    N39      N        0.77770    0.83549    0.21400    1.000
    N40      N        0.80350    0.77337    0.27620    1.000
    N41      N        0.67360    0.74103    0.27020    1.000
    N42      N        0.70160    0.67831    0.32890    1.000
    N43      N        0.63810    0.58075    0.40871    1.000
    N44      N        0.80860    0.58711    0.42060    1.000
    N45      N        0.15960    0.00334    0.19416    1.000
    N46      N        0.08180    0.00474    0.33065    1.000
    N47      N        0.34750    0.00243    0.36827    1.000
    N48      N        0.50390    0.00045    0.43118    1.000
    C19      C        0.90530    0.87622    0.18520    1.000
    H19      H        0.01670    0.86880    0.21510    1.000
    C20      C        0.64040    0.86482    0.15000    1.000
    H20      H        0.53230    0.84700    0.15090    1.000
    C21      C        0.57770    0.63499    0.35190    1.000
    H21      H        0.46450    0.64300    0.32990    1.000
    C22      C        0.84380    0.64621    0.37160    1.000
    H22      H        0.95140    0.66420    0.36630    1.000
    C23      C        0.31840    0.00223    0.21900    1.000
    H23      H        0.39990    0.00140    0.14520    1.000
    C24      C        0.19670    0.00388    0.43360    1.000
    H24      H        0.17910    0.00420    0.53750    1.000
    Zn1      Zn       0.50000    0.50000    0.50000    1.000
    Zn2      Zn       0.00000    0.00000    0.00000    1.000
