data_functionalizedCrystal
_audit_creation_method	'EQeq! by Chris Wilmer'
_symmetry_space_group_name_H-M	'P1'
_symmetry_Int_Tables_number	1
_symmetry_cell_setting	triclinic
loop_
_symmetry_equiv_pos_as_xyz
  x,y,z
_cell_length_a	21.9848
_cell_length_b	16.5617
_cell_length_c	25.6443
_cell_angle_alpha	90
_cell_angle_beta	115.366
_cell_angle_gamma	90
loop_
_atom_site_label
_atom_site_type_symbol
_atom_site_fract_x
_atom_site_fract_y
_atom_site_fract_z
_atom_site_charge
Mof_Ag	Ag	0.2739	0.20897	0.86825	0.522
Mof_Ag	Ag	0.795	0.50132	0.36769	0.535
Mof_C 	C 	0.6278	0.476	0.08782	0.099
Mof_C 	C 	0.4227	0.9004	0.3926	0.063
Mof_H 	H 	0.4029	0.905	0.3526	-0.026
Mof_C 	C 	0.6538	0.7197	0.50129	0.098
Mof_C 	C 	0.628	0.5616	0.9113	-0.147
Mof_H 	H 	0.5855	0.5398	0.89	0.082
Mof_C 	C 	0.628	0.507	0.00244	0.097
Mof_C 	C 	0.4821	0.8872	0.5094	-0.138
Mof_H 	H 	0.5014	0.8842	0.5495	0.073
Mof_C 	C 	0.4031	0.3169	0.8892	0.085
Mof_H 	H 	0.3846	0.3113	0.8493	-0.012
Mof_C 	C 	0.7434	0.6335	0.49629	-0.138
Mof_H 	H 	0.7639	0.633	0.5364	0.086
Mof_C 	C 	0.5753	0.8007	0.5072	0.094
Mof_C 	C 	0.6599	0.5523	0.97032	0.063
Mof_C 	C 	0.7229	0.5865	0.9994	-0.15
Mof_H 	H 	0.7455	0.5821	0.0394	0.076
Mof_C 	C 	0.7719	0.5927	0.4656	0.087
Mof_H 	H 	0.8122	0.5654	0.4858	-0.013
Mof_C 	C 	0.7517	0.6266	0.9692	0.075
Mof_H 	H 	0.7942	0.649	0.9896	-0.021
Mof_C 	C 	0.4573	0.3341	0.0056	-0.134
Mof_H 	H 	0.475	0.338	0.0456	0.084
Mof_C 	C 	0.6583	0.4862	0.1518	0.063
Mof_C 	C 	0.4609	0.361	0.9156	-0.135
Mof_H 	H 	0.4813	0.3836	0.8939	0.085
Mof_C 	C 	0.6837	0.6751	0.46686	0.07
Mof_C 	C 	0.6902	0.7426	0.6519	0.057
Mof_C 	C 	0.4823	0.8576	0.41865	-0.134
Mof_H 	H 	0.5016	0.8341	0.3964	0.078
Mof_C 	C 	0.5498	0.4228	0.00565	0.103
Mof_C 	C 	0.7793	0.6987	0.7403	0.081
Mof_H 	H 	0.8215	0.675	0.7594	-0.016
Mof_C 	C 	0.7527	0.707	0.6811	-0.14
Mof_H 	H 	0.7767	0.6889	0.661	0.082
Mof_C 	C 	0.661	0.6042	0.8844	0.076
Mof_H 	H 	0.6388	0.6112	0.8446	-0.021
Mof_C 	C 	0.6565	0.768	0.6841	-0.147
Mof_H 	H 	0.6142	0.7918	0.6662	0.074
Mof_C 	C 	0.7122	0.538	0.1783	-0.138
Mof_H 	H 	0.7284	0.5686	0.1566	0.07
Mof_C 	C 	0.6869	0.7573	0.7429	0.08
Mof_H 	H 	0.664	0.775	0.764	-0.027
Mof_C 	C 	0.3989	0.2906	0.9747	0.089
Mof_H 	H 	0.3776	0.2664	0.9951	-0.014
Mof_C 	C 	0.6583	0.7522	0.5879	0.097
Mof_C 	C 	0.7414	0.5434	0.2377	0.072
Mof_H 	H 	0.7773	0.5788	0.2553	-0.017
Mof_C 	C 	0.5127	0.8502	0.47797	0.055
Mof_C 	C 	0.6556	0.6746	0.4075	-0.143
Mof_H 	H 	0.6163	0.7033	0.3864	0.082
Mof_C 	C 	0.4891	0.372	0.97511	0.068
Mof_C 	C 	0.6335	0.445	0.1853	-0.146
Mof_H 	H 	0.5953	0.4127	0.1687	0.085
Mof_C 	C 	0.4223	0.9286	0.4797	0.076
Mof_H 	H 	0.4021	0.953	0.501	-0.012
Mof_C 	C 	0.6675	0.4535	0.2445	0.091
Mof_H 	H 	0.6518	0.4243	0.2671	-0.023
Mof_C 	C 	0.6864	0.6312	0.3799	0.089
Mof_H 	H 	0.666	0.6299	0.3398	-0.009
Mof_N 	N 	0.37154	0.2813	0.91767	-0.194
Mof_N 	N 	0.72209	0.6356	0.91184	-0.215
Mof_N 	N 	0.7209	0.5003	0.27143	-0.201
Mof_N 	N 	0.57474	0.461	0.97288	-0.138
Mof_N 	N 	0.65628	0.5182	0.05968	-0.142
Mof_N 	N 	0.57504	0.4275	0.06315	-0.138
Mof_N 	N 	0.74411	0.5905	0.40749	-0.189
Mof_N 	N 	0.7468	0.7234	0.77159	-0.2
Mof_N 	N 	0.392	0.9355	0.42218	-0.208
Mof_N 	N 	0.59761	0.7604	0.47329	-0.141
Mof_N 	N 	0.68682	0.7124	0.55894	-0.137
Mof_N 	N 	0.60415	0.7989	0.56459	-0.15
Mof_Ag	Ag	0.7739	0.70897	0.86825	0.523
Mof_Ag	Ag	0.295	0.00132	0.36769	0.536
Mof_C 	C 	0.1278	0.976	0.08782	0.1
Mof_C 	C 	0.9227	0.4004	0.3926	0.064
Mof_H 	H 	0.9029	0.405	0.3526	-0.025
Mof_C 	C 	0.1538	0.2197	0.50129	0.099
Mof_C 	C 	0.128	0.0616	0.9113	-0.146
Mof_H 	H 	0.0855	0.0398	0.89	0.083
Mof_C 	C 	0.128	0.007	0.00244	0.096
Mof_C 	C 	0.9821	0.3872	0.5094	-0.137
Mof_H 	H 	0.0014	0.3842	0.5495	0.074
Mof_C 	C 	0.9031	0.8169	0.8892	0.085
Mof_H 	H 	0.8846	0.8113	0.8493	-0.01
Mof_C 	C 	0.2434	0.1335	0.49629	-0.137
Mof_H 	H 	0.2639	0.133	0.5364	0.087
Mof_C 	C 	0.0753	0.3007	0.5072	0.095
Mof_C 	C 	0.1599	0.0523	0.97032	0.064
Mof_C 	C 	0.2229	0.0865	0.9994	-0.147
Mof_H 	H 	0.2455	0.0821	0.0394	0.075
Mof_C 	C 	0.2719	0.0927	0.4656	0.087
Mof_H 	H 	0.3122	0.0654	0.4858	-0.013
Mof_C 	C 	0.2517	0.1266	0.9692	0.074
Mof_H 	H 	0.2942	0.149	0.9896	-0.021
Mof_C 	C 	0.9573	0.8341	0.0056	-0.13
Mof_H 	H 	0.975	0.838	0.0456	0.083
Mof_C 	C 	0.1583	0.9862	0.1518	0.063
Mof_C 	C 	0.9609	0.861	0.9156	-0.134
Mof_H 	H 	0.9813	0.8836	0.8939	0.084
Mof_C 	C 	0.1837	0.1751	0.46686	0.07
Mof_C 	C 	0.1902	0.2426	0.6519	0.057
Mof_C 	C 	0.9823	0.3576	0.41865	-0.134
Mof_H 	H 	0.0016	0.3341	0.3964	0.077
Mof_C 	C 	0.0498	0.9228	0.00565	0.103
Mof_C 	C 	0.2793	0.1987	0.7403	0.081
Mof_H 	H 	0.3215	0.175	0.7594	-0.016
Mof_C 	C 	0.2527	0.207	0.6811	-0.14
Mof_H 	H 	0.2767	0.1889	0.661	0.082
Mof_C 	C 	0.161	0.1042	0.8844	0.076
Mof_H 	H 	0.1388	0.1112	0.8446	-0.021
Mof_C 	C 	0.1565	0.268	0.6841	-0.147
Mof_H 	H 	0.1142	0.2918	0.6662	0.074
Mof_C 	C 	0.2122	0.038	0.1783	-0.138
Mof_H 	H 	0.2284	0.0686	0.1566	0.07
Mof_C 	C 	0.1869	0.2573	0.7429	0.08
Mof_H 	H 	0.164	0.275	0.764	-0.027
Mof_C 	C 	0.8989	0.7906	0.9747	0.086
Mof_H 	H 	0.8776	0.7664	0.9951	-0.013
Mof_C 	C 	0.1583	0.2522	0.5879	0.097
Mof_C 	C 	0.2414	0.0434	0.2377	0.072
Mof_H 	H 	0.2773	0.0788	0.2553	-0.018
Mof_C 	C 	0.0127	0.3502	0.47797	0.054
Mof_C 	C 	0.1556	0.1746	0.4075	-0.143
Mof_H 	H 	0.1163	0.2033	0.3864	0.082
Mof_C 	C 	0.9891	0.872	0.97511	0.066
Mof_C 	C 	0.1335	0.945	0.1853	-0.146
Mof_H 	H 	0.0953	0.9127	0.1687	0.085
Mof_C 	C 	0.9223	0.4286	0.4797	0.076
Mof_H 	H 	0.9021	0.453	0.501	-0.012
Mof_C 	C 	0.1675	0.9535	0.2445	0.091
Mof_H 	H 	0.1518	0.9243	0.2671	-0.023
Mof_C 	C 	0.1864	0.1312	0.3799	0.089
Mof_H 	H 	0.166	0.1299	0.3398	-0.009
Mof_N 	N 	0.87154	0.7813	0.91767	-0.193
Mof_N 	N 	0.22209	0.1356	0.91184	-0.215
Mof_N 	N 	0.2209	0.0003	0.27143	-0.201
Mof_N 	N 	0.07474	0.961	0.97288	-0.137
Mof_N 	N 	0.15628	0.0182	0.05968	-0.142
Mof_N 	N 	0.07504	0.9275	0.06315	-0.138
Mof_N 	N 	0.24411	0.0905	0.40749	-0.189
Mof_N 	N 	0.2468	0.2234	0.77159	-0.2
Mof_N 	N 	0.892	0.4355	0.42218	-0.208
Mof_N 	N 	0.09761	0.2604	0.47329	-0.141
Mof_N 	N 	0.18682	0.2124	0.55894	-0.137
Mof_N 	N 	0.10415	0.2989	0.56459	-0.15
Mof_Ag	Ag	0.7261	0.20897	0.63175	0.523
Mof_Ag	Ag	0.205	0.50132	0.13231	0.535
Mof_C 	C 	0.3722	0.476	0.41218	0.1
Mof_C 	C 	0.5773	0.9004	0.1074	0.065
Mof_H 	H 	0.5971	0.905	0.1474	-0.025
Mof_C 	C 	0.3462	0.7197	0.99871	0.099
Mof_C 	C 	0.372	0.5616	0.5887	-0.146
Mof_H 	H 	0.4145	0.5398	0.61	0.083
Mof_C 	C 	0.372	0.507	0.49756	0.098
Mof_C 	C 	0.5179	0.8872	0.9906	-0.138
Mof_H 	H 	0.4986	0.8842	0.9505	0.075
Mof_C 	C 	0.5969	0.3169	0.6108	0.085
Mof_H 	H 	0.6154	0.3113	0.6507	-0.011
Mof_C 	C 	0.2566	0.6335	0.00371	-0.139
Mof_H 	H 	0.2361	0.633	0.9636	0.088
Mof_C 	C 	0.4247	0.8007	0.9928	0.094
Mof_C 	C 	0.3401	0.5523	0.52968	0.063
Mof_C 	C 	0.2771	0.5865	0.5006	-0.147
Mof_H 	H 	0.2545	0.5821	0.4606	0.075
Mof_C 	C 	0.2281	0.5927	0.0344	0.087
Mof_H 	H 	0.1878	0.5654	0.0142	-0.013
Mof_C 	C 	0.2483	0.6266	0.5308	0.074
Mof_H 	H 	0.2058	0.649	0.5104	-0.021
Mof_C 	C 	0.5427	0.3341	0.4944	-0.133
Mof_H 	H 	0.525	0.338	0.4544	0.084
Mof_C 	C 	0.3417	0.4862	0.3482	0.063
Mof_C 	C 	0.5391	0.361	0.5844	-0.135
Mof_H 	H 	0.5187	0.3836	0.6061	0.084
Mof_C 	C 	0.3163	0.6751	0.03314	0.07
Mof_C 	C 	0.3098	0.7426	0.8481	0.057
Mof_C 	C 	0.5177	0.8576	0.08135	-0.135
Mof_H 	H 	0.4984	0.8341	0.1036	0.078
Mof_C 	C 	0.4502	0.4228	0.49435	0.103
Mof_C 	C 	0.2207	0.6987	0.7597	0.081
Mof_H 	H 	0.1785	0.675	0.7406	-0.016
Mof_C 	C 	0.2473	0.707	0.8189	-0.14
Mof_H 	H 	0.2233	0.6889	0.839	0.082
Mof_C 	C 	0.339	0.6042	0.6156	0.076
Mof_H 	H 	0.3612	0.6112	0.6554	-0.021
Mof_C 	C 	0.3435	0.768	0.8159	-0.147
Mof_H 	H 	0.3858	0.7918	0.8338	0.074
Mof_C 	C 	0.2878	0.538	0.3217	-0.138
Mof_H 	H 	0.2716	0.5686	0.3434	0.07
Mof_C 	C 	0.3131	0.7573	0.7571	0.08
Mof_H 	H 	0.336	0.775	0.736	-0.027
Mof_C 	C 	0.6011	0.2906	0.5253	0.088
Mof_H 	H 	0.6224	0.2664	0.5049	-0.013
Mof_C 	C 	0.3417	0.7522	0.9121	0.097
Mof_C 	C 	0.2586	0.5434	0.2623	0.072
Mof_H 	H 	0.2227	0.5788	0.2447	-0.018
Mof_C 	C 	0.4873	0.8502	0.02203	0.055
Mof_C 	C 	0.3444	0.6746	0.0925	-0.144
Mof_H 	H 	0.3837	0.7033	0.1136	0.082
Mof_C 	C 	0.5109	0.372	0.52489	0.068
Mof_C 	C 	0.3665	0.445	0.3147	-0.146
Mof_H 	H 	0.4047	0.4127	0.3313	0.085
Mof_C 	C 	0.5777	0.9286	0.0203	0.078
Mof_H 	H 	0.5979	0.953	0.999	-0.013
Mof_C 	C 	0.3325	0.4535	0.2555	0.091
Mof_H 	H 	0.3482	0.4243	0.2329	-0.023
Mof_C 	C 	0.3136	0.6312	0.1201	0.089
Mof_H 	H 	0.334	0.6299	0.1602	-0.009
Mof_N 	N 	0.62846	0.2813	0.58233	-0.194
Mof_N 	N 	0.27791	0.6356	0.58816	-0.215
Mof_N 	N 	0.2791	0.5003	0.22857	-0.201
Mof_N 	N 	0.42526	0.461	0.52712	-0.138
Mof_N 	N 	0.34372	0.5182	0.44032	-0.142
Mof_N 	N 	0.42496	0.4275	0.43685	-0.138
Mof_N 	N 	0.25589	0.5905	0.09251	-0.189
Mof_N 	N 	0.2532	0.7234	0.72841	-0.2
Mof_N 	N 	0.608	0.9355	0.07782	-0.209
Mof_N 	N 	0.40239	0.7604	0.02671	-0.141
Mof_N 	N 	0.31318	0.7124	0.94106	-0.137
Mof_N 	N 	0.39585	0.7989	0.93541	-0.15
Mof_Ag	Ag	0.2261	0.70897	0.63175	0.523
Mof_Ag	Ag	0.705	0.00132	0.13231	0.536
Mof_C 	C 	0.8722	0.976	0.41218	0.1
Mof_C 	C 	0.0773	0.4004	0.1074	0.065
Mof_H 	H 	0.0971	0.405	0.1474	-0.025
Mof_C 	C 	0.8462	0.2197	0.99871	0.098
Mof_C 	C 	0.872	0.0616	0.5887	-0.146
Mof_H 	H 	0.9145	0.0398	0.61	0.083
Mof_C 	C 	0.872	0.007	0.49756	0.098
Mof_C 	C 	0.0179	0.3872	0.9906	-0.134
Mof_H 	H 	0.9986	0.3842	0.9505	0.073
Mof_C 	C 	0.0969	0.8169	0.6108	0.085
Mof_H 	H 	0.1154	0.8113	0.6507	-0.01
Mof_C 	C 	0.7566	0.1335	0.00371	-0.137
Mof_H 	H 	0.7361	0.133	0.9636	0.087
Mof_C 	C 	0.9247	0.3007	0.9928	0.093
Mof_C 	C 	0.8401	0.0523	0.52968	0.063
Mof_C 	C 	0.7771	0.0865	0.5006	-0.147
Mof_H 	H 	0.7545	0.0821	0.4606	0.075
Mof_C 	C 	0.7281	0.0927	0.0344	0.087
Mof_H 	H 	0.6878	0.0654	0.0142	-0.013
Mof_C 	C 	0.7483	0.1266	0.5308	0.074
Mof_H 	H 	0.7058	0.149	0.5104	-0.021
Mof_C 	C 	0.0427	0.8341	0.4944	-0.133
Mof_H 	H 	0.025	0.838	0.4544	0.084
Mof_C 	C 	0.8417	0.9862	0.3482	0.063
Mof_C 	C 	0.0391	0.861	0.5844	-0.135
Mof_H 	H 	0.0187	0.8836	0.6061	0.084
Mof_C 	C 	0.8163	0.1751	0.03314	0.071
Mof_C 	C 	0.8098	0.2426	0.8481	0.057
Mof_C 	C 	0.0177	0.3576	0.08135	-0.137
Mof_H 	H 	0.9984	0.3341	0.1036	0.079
Mof_C 	C 	0.9502	0.9228	0.49435	0.103
Mof_C 	C 	0.7207	0.1987	0.7597	0.081
Mof_H 	H 	0.6785	0.175	0.7406	-0.016
Mof_C 	C 	0.7473	0.207	0.8189	-0.14
Mof_H 	H 	0.7233	0.1889	0.839	0.082
Mof_C 	C 	0.839	0.1042	0.6156	0.076
Mof_H 	H 	0.8612	0.1112	0.6554	-0.021
Mof_C 	C 	0.8435	0.268	0.8159	-0.147
Mof_H 	H 	0.8858	0.2918	0.8338	0.074
Mof_C 	C 	0.7878	0.038	0.3217	-0.138
Mof_H 	H 	0.7716	0.0686	0.3434	0.07
Mof_C 	C 	0.8131	0.2573	0.7571	0.08
Mof_H 	H 	0.836	0.275	0.736	-0.027
Mof_C 	C 	0.1011	0.7906	0.5253	0.088
Mof_H 	H 	0.1224	0.7664	0.5049	-0.013
Mof_C 	C 	0.8417	0.2522	0.9121	0.097
Mof_C 	C 	0.7586	0.0434	0.2623	0.072
Mof_H 	H 	0.7227	0.0788	0.2447	-0.018
Mof_C 	C 	0.9873	0.3502	0.02203	0.056
Mof_C 	C 	0.8444	0.1746	0.0925	-0.144
Mof_H 	H 	0.8837	0.2033	0.1136	0.082
Mof_C 	C 	0.0109	0.872	0.52489	0.068
Mof_C 	C 	0.8665	0.945	0.3147	-0.146
Mof_H 	H 	0.9047	0.9127	0.3313	0.085
Mof_C 	C 	0.0777	0.4286	0.0203	0.073
Mof_H 	H 	0.0979	0.453	0.999	-0.011
Mof_C 	C 	0.8325	0.9535	0.2555	0.091
Mof_H 	H 	0.8482	0.9243	0.2329	-0.023
Mof_C 	C 	0.8136	0.1312	0.1201	0.089
Mof_H 	H 	0.834	0.1299	0.1602	-0.009
Mof_N 	N 	0.12846	0.7813	0.58233	-0.194
Mof_N 	N 	0.77791	0.1356	0.58816	-0.215
Mof_N 	N 	0.7791	0.0003	0.22857	-0.201
Mof_N 	N 	0.92526	0.961	0.52712	-0.138
Mof_N 	N 	0.84372	0.0182	0.44032	-0.142
Mof_N 	N 	0.92496	0.9275	0.43685	-0.138
Mof_N 	N 	0.75589	0.0905	0.09251	-0.189
Mof_N 	N 	0.7532	0.2234	0.72841	-0.2
Mof_N 	N 	0.108	0.4355	0.07782	-0.208
Mof_N 	N 	0.90239	0.2604	0.02671	-0.14
Mof_N 	N 	0.81318	0.2124	0.94106	-0.137
Mof_N 	N 	0.89585	0.2989	0.93541	-0.15
Mof_Ag	Ag	0.7261	0.79103	0.13175	0.523
Mof_Ag	Ag	0.205	0.49868	0.63231	0.536
Mof_C 	C 	0.3722	0.524	0.91218	0.1
Mof_C 	C 	0.5773	0.0996	0.6074	0.064
Mof_H 	H 	0.5971	0.095	0.6474	-0.025
Mof_C 	C 	0.3462	0.2803	0.49871	0.099
Mof_C 	C 	0.372	0.4384	0.0887	-0.146
Mof_H 	H 	0.4145	0.4602	0.11	0.083
Mof_C 	C 	0.372	0.493	0.99756	0.098
Mof_C 	C 	0.5179	0.1128	0.4906	-0.137
Mof_H 	H 	0.4986	0.1158	0.4505	0.074
Mof_C 	C 	0.5969	0.6831	0.1108	0.086
Mof_H 	H 	0.6154	0.6887	0.1507	-0.011
Mof_C 	C 	0.2566	0.3665	0.50371	-0.137
Mof_H 	H 	0.2361	0.367	0.4636	0.087
Mof_C 	C 	0.4247	0.1993	0.4928	0.095
Mof_C 	C 	0.3401	0.4477	0.02968	0.064
Mof_C 	C 	0.2771	0.4135	0.0006	-0.149
Mof_H 	H 	0.2545	0.4179	0.9606	0.076
Mof_C 	C 	0.2281	0.4073	0.5344	0.087
Mof_H 	H 	0.1878	0.4346	0.5142	-0.013
Mof_C 	C 	0.2483	0.3734	0.0308	0.075
Mof_H 	H 	0.2058	0.351	0.0104	-0.021
Mof_C 	C 	0.5427	0.6659	0.9944	-0.134
Mof_H 	H 	0.525	0.662	0.9544	0.084
Mof_C 	C 	0.3417	0.5138	0.8482	0.063
Mof_C 	C 	0.5391	0.639	0.0844	-0.135
Mof_H 	H 	0.5187	0.6164	0.1061	0.085
Mof_C 	C 	0.3163	0.3249	0.53314	0.07
Mof_C 	C 	0.3098	0.2574	0.3481	0.057
Mof_C 	C 	0.5177	0.1424	0.58135	-0.134
Mof_H 	H 	0.4984	0.1659	0.6036	0.078
Mof_C 	C 	0.4502	0.5772	0.99435	0.103
Mof_C 	C 	0.2207	0.3013	0.2597	0.081
Mof_H 	H 	0.1785	0.325	0.2406	-0.016
Mof_C 	C 	0.2473	0.293	0.3189	-0.14
Mof_H 	H 	0.2233	0.3111	0.339	0.082
Mof_C 	C 	0.339	0.3958	0.1156	0.076
Mof_H 	H 	0.3612	0.3888	0.1554	-0.021
Mof_C 	C 	0.3435	0.232	0.3159	-0.147
Mof_H 	H 	0.3858	0.2082	0.3338	0.074
Mof_C 	C 	0.2878	0.462	0.8217	-0.138
Mof_H 	H 	0.2716	0.4314	0.8434	0.07
Mof_C 	C 	0.3131	0.2427	0.2571	0.08
Mof_H 	H 	0.336	0.225	0.236	-0.027
Mof_C 	C 	0.6011	0.7094	0.0253	0.089
Mof_H 	H 	0.6224	0.7336	0.0049	-0.014
Mof_C 	C 	0.3417	0.2478	0.4121	0.097
Mof_C 	C 	0.2586	0.4566	0.7623	0.072
Mof_H 	H 	0.2227	0.4212	0.7447	-0.017
Mof_C 	C 	0.4873	0.1498	0.52203	0.055
Mof_C 	C 	0.3444	0.3254	0.5925	-0.143
Mof_H 	H 	0.3837	0.2967	0.6136	0.082
Mof_C 	C 	0.5109	0.628	0.02489	0.068
Mof_C 	C 	0.3665	0.555	0.8147	-0.146
Mof_H 	H 	0.4047	0.5873	0.8313	0.085
Mof_C 	C 	0.5777	0.0714	0.5203	0.076
Mof_H 	H 	0.5979	0.047	0.499	-0.012
Mof_C 	C 	0.3325	0.5465	0.7555	0.091
Mof_H 	H 	0.3482	0.5757	0.7329	-0.023
Mof_C 	C 	0.3136	0.3688	0.6201	0.089
Mof_H 	H 	0.334	0.3701	0.6602	-0.009
Mof_N 	N 	0.62846	0.7187	0.08233	-0.194
Mof_N 	N 	0.27791	0.3644	0.08816	-0.215
Mof_N 	N 	0.2791	0.4997	0.72857	-0.201
Mof_N 	N 	0.42526	0.539	0.02712	-0.138
Mof_N 	N 	0.34372	0.4818	0.94032	-0.142
Mof_N 	N 	0.42496	0.5725	0.93685	-0.138
Mof_N 	N 	0.25589	0.4095	0.59251	-0.189
Mof_N 	N 	0.2532	0.2766	0.22841	-0.2
Mof_N 	N 	0.608	0.0645	0.57782	-0.208
Mof_N 	N 	0.40239	0.2396	0.52671	-0.141
Mof_N 	N 	0.31318	0.2876	0.44106	-0.137
Mof_N 	N 	0.39585	0.2011	0.43541	-0.15
Mof_Ag	Ag	0.2261	0.29103	0.13175	0.523
Mof_Ag	Ag	0.705	0.99868	0.63231	0.536
Mof_C 	C 	0.8722	0.024	0.91218	0.1
Mof_C 	C 	0.0773	0.5996	0.6074	0.064
Mof_H 	H 	0.0971	0.595	0.6474	-0.025
Mof_C 	C 	0.8462	0.7803	0.49871	0.099
Mof_C 	C 	0.872	0.9384	0.0887	-0.146
Mof_H 	H 	0.9145	0.9602	0.11	0.083
Mof_C 	C 	0.872	0.993	0.99756	0.096
Mof_C 	C 	0.0179	0.6128	0.4906	-0.137
Mof_H 	H 	0.9986	0.6158	0.4505	0.074
Mof_C 	C 	0.0969	0.1831	0.1108	0.085
Mof_H 	H 	0.1154	0.1887	0.1507	-0.01
Mof_C 	C 	0.7566	0.8665	0.50371	-0.137
Mof_H 	H 	0.7361	0.867	0.4636	0.087
Mof_C 	C 	0.9247	0.6993	0.4928	0.095
Mof_C 	C 	0.8401	0.9477	0.02968	0.064
Mof_C 	C 	0.7771	0.9135	0.0006	-0.147
Mof_H 	H 	0.7545	0.9179	0.9606	0.075
Mof_C 	C 	0.7281	0.9073	0.5344	0.087
Mof_H 	H 	0.6878	0.9346	0.5142	-0.013
Mof_C 	C 	0.7483	0.8734	0.0308	0.074
Mof_H 	H 	0.7058	0.851	0.0104	-0.021
Mof_C 	C 	0.0427	0.1659	0.9944	-0.13
Mof_H 	H 	0.025	0.162	0.9544	0.083
Mof_C 	C 	0.8417	0.0138	0.8482	0.063
Mof_C 	C 	0.0391	0.139	0.0844	-0.134
Mof_H 	H 	0.0187	0.1164	0.1061	0.084
Mof_C 	C 	0.8163	0.8249	0.53314	0.07
Mof_C 	C 	0.8098	0.7574	0.3481	0.057
Mof_C 	C 	0.0177	0.6424	0.58135	-0.134
Mof_H 	H 	0.9984	0.6659	0.6036	0.077
Mof_C 	C 	0.9502	0.0772	0.99435	0.103
Mof_C 	C 	0.7207	0.8013	0.2597	0.081
Mof_H 	H 	0.6785	0.825	0.2406	-0.016
Mof_C 	C 	0.7473	0.793	0.3189	-0.14
Mof_H 	H 	0.7233	0.8111	0.339	0.082
Mof_C 	C 	0.839	0.8958	0.1156	0.076
Mof_H 	H 	0.8612	0.8888	0.1554	-0.021
Mof_C 	C 	0.8435	0.732	0.3159	-0.147
Mof_H 	H 	0.8858	0.7082	0.3338	0.074
Mof_C 	C 	0.7878	0.962	0.8217	-0.138
Mof_H 	H 	0.7716	0.9314	0.8434	0.07
Mof_C 	C 	0.8131	0.7427	0.2571	0.08
Mof_H 	H 	0.836	0.725	0.236	-0.027
Mof_C 	C 	0.1011	0.2094	0.0253	0.086
Mof_H 	H 	0.1224	0.2336	0.0049	-0.013
Mof_C 	C 	0.8417	0.7478	0.4121	0.097
Mof_C 	C 	0.7586	0.9566	0.7623	0.072
Mof_H 	H 	0.7227	0.9212	0.7447	-0.018
Mof_C 	C 	0.9873	0.6498	0.52203	0.054
Mof_C 	C 	0.8444	0.8254	0.5925	-0.143
Mof_H 	H 	0.8837	0.7967	0.6136	0.082
Mof_C 	C 	0.0109	0.128	0.02489	0.066
Mof_C 	C 	0.8665	0.055	0.8147	-0.146
Mof_H 	H 	0.9047	0.0873	0.8313	0.085
Mof_C 	C 	0.0777	0.5714	0.5203	0.076
Mof_H 	H 	0.0979	0.547	0.499	-0.012
Mof_C 	C 	0.8325	0.0465	0.7555	0.091
Mof_H 	H 	0.8482	0.0757	0.7329	-0.023
Mof_C 	C 	0.8136	0.8688	0.6201	0.089
Mof_H 	H 	0.834	0.8701	0.6602	-0.009
Mof_N 	N 	0.12846	0.2187	0.08233	-0.193
Mof_N 	N 	0.77791	0.8644	0.08816	-0.215
Mof_N 	N 	0.7791	0.9997	0.72857	-0.201
Mof_N 	N 	0.92526	0.039	0.02712	-0.137
Mof_N 	N 	0.84372	0.9818	0.94032	-0.142
Mof_N 	N 	0.92496	0.0725	0.93685	-0.138
Mof_N 	N 	0.75589	0.9095	0.59251	-0.189
Mof_N 	N 	0.7532	0.7766	0.22841	-0.2
Mof_N 	N 	0.108	0.5645	0.57782	-0.208
Mof_N 	N 	0.90239	0.7396	0.52671	-0.141
Mof_N 	N 	0.81318	0.7876	0.44106	-0.137
Mof_N 	N 	0.89585	0.7011	0.43541	-0.15
Mof_Ag	Ag	0.2739	0.79103	0.36825	0.523
Mof_Ag	Ag	0.795	0.49868	0.86769	0.535
Mof_C 	C 	0.6278	0.524	0.58782	0.1
Mof_C 	C 	0.4227	0.0996	0.8926	0.065
Mof_H 	H 	0.4029	0.095	0.8526	-0.025
Mof_C 	C 	0.6538	0.2803	0.00129	0.099
Mof_C 	C 	0.628	0.4384	0.4113	-0.146
Mof_H 	H 	0.5855	0.4602	0.39	0.083
Mof_C 	C 	0.628	0.493	0.50244	0.098
Mof_C 	C 	0.4821	0.1128	0.0094	-0.138
Mof_H 	H 	0.5014	0.1158	0.0495	0.075
Mof_C 	C 	0.4031	0.6831	0.3892	0.085
Mof_H 	H 	0.3846	0.6887	0.3493	-0.011
Mof_C 	C 	0.7434	0.3665	0.99629	-0.139
Mof_H 	H 	0.7639	0.367	0.0364	0.088
Mof_C 	C 	0.5753	0.1993	0.0072	0.094
Mof_C 	C 	0.6599	0.4477	0.47032	0.063
Mof_C 	C 	0.7229	0.4135	0.4994	-0.147
Mof_H 	H 	0.7455	0.4179	0.5394	0.075
Mof_C 	C 	0.7719	0.4073	0.9656	0.087
Mof_H 	H 	0.8122	0.4346	0.9858	-0.013
Mof_C 	C 	0.7517	0.3734	0.4692	0.074
Mof_H 	H 	0.7942	0.351	0.4896	-0.021
Mof_C 	C 	0.4573	0.6659	0.5056	-0.133
Mof_H 	H 	0.475	0.662	0.5456	0.084
Mof_C 	C 	0.6583	0.5138	0.6518	0.063
Mof_C 	C 	0.4609	0.639	0.4156	-0.135
Mof_H 	H 	0.4813	0.6164	0.3939	0.084
Mof_C 	C 	0.6837	0.3249	0.96686	0.07
Mof_C 	C 	0.6902	0.2574	0.1519	0.057
Mof_C 	C 	0.4823	0.1424	0.91865	-0.135
Mof_H 	H 	0.5016	0.1659	0.8964	0.078
Mof_C 	C 	0.5498	0.5772	0.50565	0.103
Mof_C 	C 	0.7793	0.3013	0.2403	0.081
Mof_H 	H 	0.8215	0.325	0.2594	-0.016
Mof_C 	C 	0.7527	0.293	0.1811	-0.14
Mof_H 	H 	0.7767	0.3111	0.161	0.082
Mof_C 	C 	0.661	0.3958	0.3844	0.076
Mof_H 	H 	0.6388	0.3888	0.3446	-0.021
Mof_C 	C 	0.6565	0.232	0.1841	-0.147
Mof_H 	H 	0.6142	0.2082	0.1662	0.074
Mof_C 	C 	0.7122	0.462	0.6783	-0.138
Mof_H 	H 	0.7284	0.4314	0.6566	0.07
Mof_C 	C 	0.6869	0.2427	0.2429	0.08
Mof_H 	H 	0.664	0.225	0.264	-0.027
Mof_C 	C 	0.3989	0.7094	0.4747	0.088
Mof_H 	H 	0.3776	0.7336	0.4951	-0.013
Mof_C 	C 	0.6583	0.2478	0.0879	0.097
Mof_C 	C 	0.7414	0.4566	0.7377	0.072
Mof_H 	H 	0.7773	0.4212	0.7553	-0.018
Mof_C 	C 	0.5127	0.1498	0.97797	0.055
Mof_C 	C 	0.6556	0.3254	0.9075	-0.144
Mof_H 	H 	0.6163	0.2967	0.8864	0.082
Mof_C 	C 	0.4891	0.628	0.47511	0.068
Mof_C 	C 	0.6335	0.555	0.6853	-0.146
Mof_H 	H 	0.5953	0.5873	0.6687	0.085
Mof_C 	C 	0.4223	0.0714	0.9797	0.078
Mof_H 	H 	0.4021	0.047	0.001	-0.013
Mof_C 	C 	0.6675	0.5465	0.7445	0.091
Mof_H 	H 	0.6518	0.5757	0.7671	-0.023
Mof_C 	C 	0.6864	0.3688	0.8799	0.089
Mof_H 	H 	0.666	0.3701	0.8398	-0.009
Mof_N 	N 	0.37154	0.7187	0.41767	-0.194
Mof_N 	N 	0.72209	0.3644	0.41184	-0.215
Mof_N 	N 	0.7209	0.4997	0.77143	-0.201
Mof_N 	N 	0.57474	0.539	0.47288	-0.138
Mof_N 	N 	0.65628	0.4818	0.55968	-0.142
Mof_N 	N 	0.57504	0.5725	0.56315	-0.138
Mof_N 	N 	0.74411	0.4095	0.90749	-0.189
Mof_N 	N 	0.7468	0.2766	0.27159	-0.2
Mof_N 	N 	0.392	0.0645	0.92218	-0.209
Mof_N 	N 	0.59761	0.2396	0.97329	-0.141
Mof_N 	N 	0.68682	0.2876	0.05894	-0.137
Mof_N 	N 	0.60415	0.2011	0.06459	-0.15
Mof_Ag	Ag	0.7739	0.29103	0.36825	0.523
Mof_Ag	Ag	0.295	0.99868	0.86769	0.536
Mof_C 	C 	0.1278	0.024	0.58782	0.1
Mof_C 	C 	0.9227	0.5996	0.8926	0.065
Mof_H 	H 	0.9029	0.595	0.8526	-0.025
Mof_C 	C 	0.1538	0.7803	0.00129	0.098
Mof_C 	C 	0.128	0.9384	0.4113	-0.146
Mof_H 	H 	0.0855	0.9602	0.39	0.083
Mof_C 	C 	0.128	0.993	0.50244	0.098
Mof_C 	C 	0.9821	0.6128	0.0094	-0.134
Mof_H 	H 	0.0014	0.6158	0.0495	0.073
Mof_C 	C 	0.9031	0.1831	0.3892	0.085
Mof_H 	H 	0.8846	0.1887	0.3493	-0.01
Mof_C 	C 	0.2434	0.8665	0.99629	-0.137
Mof_H 	H 	0.2639	0.867	0.0364	0.087
Mof_C 	C 	0.0753	0.6993	0.0072	0.093
Mof_C 	C 	0.1599	0.9477	0.47032	0.063
Mof_C 	C 	0.2229	0.9135	0.4994	-0.147
Mof_H 	H 	0.2455	0.9179	0.5394	0.075
Mof_C 	C 	0.2719	0.9073	0.9656	0.087
Mof_H 	H 	0.3122	0.9346	0.9858	-0.013
Mof_C 	C 	0.2517	0.8734	0.4692	0.074
Mof_H 	H 	0.2942	0.851	0.4896	-0.021
Mof_C 	C 	0.9573	0.1659	0.5056	-0.133
Mof_H 	H 	0.975	0.162	0.5456	0.084
Mof_C 	C 	0.1583	0.0138	0.6518	0.063
Mof_C 	C 	0.9609	0.139	0.4156	-0.135
Mof_H 	H 	0.9813	0.1164	0.3939	0.084
Mof_C 	C 	0.1837	0.8249	0.96686	0.071
Mof_C 	C 	0.1902	0.7574	0.1519	0.057
Mof_C 	C 	0.9823	0.6424	0.91865	-0.137
Mof_H 	H 	0.0016	0.6659	0.8964	0.079
Mof_C 	C 	0.0498	0.0772	0.50565	0.103
Mof_C 	C 	0.2793	0.8013	0.2403	0.081
Mof_H 	H 	0.3215	0.825	0.2594	-0.016
Mof_C 	C 	0.2527	0.793	0.1811	-0.14
Mof_H 	H 	0.2767	0.8111	0.161	0.082
Mof_C 	C 	0.161	0.8958	0.3844	0.076
Mof_H 	H 	0.1388	0.8888	0.3446	-0.021
Mof_C 	C 	0.1565	0.732	0.1841	-0.147
Mof_H 	H 	0.1142	0.7082	0.1662	0.074
Mof_C 	C 	0.2122	0.962	0.6783	-0.138
Mof_H 	H 	0.2284	0.9314	0.6566	0.07
Mof_C 	C 	0.1869	0.7427	0.2429	0.08
Mof_H 	H 	0.164	0.725	0.264	-0.027
Mof_C 	C 	0.8989	0.2094	0.4747	0.088
Mof_H 	H 	0.8776	0.2336	0.4951	-0.013
Mof_C 	C 	0.1583	0.7478	0.0879	0.097
Mof_C 	C 	0.2414	0.9566	0.7377	0.072
Mof_H 	H 	0.2773	0.9212	0.7553	-0.018
Mof_C 	C 	0.0127	0.6498	0.97797	0.056
Mof_C 	C 	0.1556	0.8254	0.9075	-0.144
Mof_H 	H 	0.1163	0.7967	0.8864	0.082
Mof_C 	C 	0.9891	0.128	0.47511	0.068
Mof_C 	C 	0.1335	0.055	0.6853	-0.146
Mof_H 	H 	0.0953	0.0873	0.6687	0.085
Mof_C 	C 	0.9223	0.5714	0.9797	0.073
Mof_H 	H 	0.9021	0.547	0.001	-0.011
Mof_C 	C 	0.1675	0.0465	0.7445	0.091
Mof_H 	H 	0.1518	0.0757	0.7671	-0.023
Mof_C 	C 	0.1864	0.8688	0.8799	0.089
Mof_H 	H 	0.166	0.8701	0.8398	-0.009
Mof_N 	N 	0.87154	0.2187	0.41767	-0.194
Mof_N 	N 	0.22209	0.8644	0.41184	-0.215
Mof_N 	N 	0.2209	0.9997	0.77143	-0.201
Mof_N 	N 	0.07474	0.039	0.47288	-0.138
Mof_N 	N 	0.15628	0.9818	0.55968	-0.142
Mof_N 	N 	0.07504	0.0725	0.56315	-0.138
Mof_N 	N 	0.24411	0.9095	0.90749	-0.189
Mof_N 	N 	0.2468	0.7766	0.27159	-0.2
Mof_N 	N 	0.892	0.5645	0.92218	-0.208
Mof_N 	N 	0.09761	0.7396	0.97329	-0.14
Mof_N 	N 	0.18682	0.7876	0.05894	-0.137
Mof_N 	N 	0.10415	0.7011	0.06459	-0.15
_end
