data_functionalizedCrystal
_audit_creation_method	'EQeq! by Chris Wilmer'
_symmetry_space_group_name_H-M	'P1'
_symmetry_Int_Tables_number	1
_symmetry_cell_setting	triclinic
loop_
_symmetry_equiv_pos_as_xyz
  x,y,z
_cell_length_a	22.53
_cell_length_b	25.597
_cell_length_c	34.009
_cell_angle_alpha	90
_cell_angle_beta	107.439
_cell_angle_gamma	90
loop_
_atom_site_label
_atom_site_type_symbol
_atom_site_fract_x
_atom_site_fract_y
_atom_site_fract_z
_atom_site_charge
Mof_Zn	Zn	0.40536	0.02871	0.19975	1.235
Mof_Zn	Zn	0.3187	0.96324	0.12655	1.227
Mof_Zn	Zn	0.25955	0.02623	0.1822	1.221
Mof_Zn	Zn	0.30672	0.08636	0.11722	1.203
Mof_F 	F 	0.6595	0.8976	0.26994	-0.502
Mof_F 	F 	0.7028	0.8657	0.2276	-0.429
Mof_F 	F 	0.6729	0.8149	0.2666	-0.413
Mof_F 	F 	0.5734	0.663	0.2473	-0.319
Mof_F 	F 	0.5038	0.7057	0.1927	-0.374
Mof_F 	F 	0.5691	0.747	0.2549	-0.323
Mof_F 	F 	0.0984	0.7404	0.0789	-0.378
Mof_F 	F 	0.1636	0.6946	0.1393	-0.325
Mof_F 	F 	0.2003	0.7436	0.0978	-0.359
Mof_F 	F 	0.161	0.659	0.2517	-0.497
Mof_F 	F 	0.1494	0.7375	0.2591	-0.313
Mof_F 	F 	0.1969	0.6929	0.2061	-0.27
Mof_F 	F 	0.5263	0.0051	0.3971	-0.535
Mof_F 	F 	0.4934	0.9693	0.4381	-0.341
Mof_F 	F 	0.4959	0.0622	0.422	-0.347
Mof_F 	F 	0.3721	0.8573	0.4617	-0.39
Mof_F 	F 	0.3064	0.8896	0.4049	-0.397
Mof_F 	F 	0.4132	0.8957	0.4203	-0.368
Mof_O 	O 	0.4577	0.96792	0.19759	-0.469
Mof_O 	O 	0.3911	0.91885	0.15002	-0.434
Mof_O 	O 	0.7094	0.5873	0.1825	-0.434
Mof_O 	O 	0.7664	0.63449	0.15236	-0.474
Mof_O 	O 	0.2523	0.917	0.13172	-0.455
Mof_O 	O 	0.2066	0.9637	0.17004	-0.463
Mof_O 	O 	0.9566	0.58827	0.1969	-0.469
Mof_O 	O 	0.8913	0.6235	0.1402	-0.456
Mof_O 	O 	0.2955	0.0161	0.24179	-0.446
Mof_O 	O 	0.3978	0.02657	0.25557	-0.47
Mof_O 	O 	0.3171	0.0367	0.56988	-0.447
Mof_O 	O 	0.3384	0.9523	0.57287	-0.456
Mof_O 	O 	0.32586	0.02584	0.15778	-0.929
Mof_N 	N 	0.2822	0.1468	0.0729	-0.242
Mof_C 	C 	0.443	0.9291	0.1752	0.473
Mof_C 	C 	0.4931	0.8889	0.179	-0.164
Mof_C 	C 	0.5491	0.8913	0.2088	0.221
Mof_H 	H 	0.5576	0.9193	0.2271	0.015
Mof_C 	C 	0.5938	0.8525	0.2123	-0.248
Mof_C 	C 	0.5828	0.8103	0.186	0.198
Mof_C 	C 	0.5249	0.8094	0.1544	-0.144
Mof_H 	H 	0.5165	0.782	0.1356	0.163
Mof_C 	C 	0.4809	0.8479	0.1506	0.172
Mof_H 	H 	0.4435	0.8466	0.1294	0.064
Mof_C 	C 	0.6548	0.8569	0.2435	0.896
Mof_C 	C 	0.6247	0.7661	0.1865	0.121
Mof_C 	C 	0.6176	0.7198	0.2057	-0.096
Mof_C 	C 	0.6535	0.6767	0.1994	0.135
Mof_H 	H 	0.6493	0.6452	0.2119	0.097
Mof_C 	C 	0.6927	0.6785	0.177	-0.101
Mof_C 	C 	0.7019	0.725	0.1599	0.126
Mof_H 	H 	0.7306	0.7279	0.1453	0.062
Mof_C 	C 	0.6665	0.768	0.165	-0.104
Mof_H 	H 	0.672	0.7995	0.153	0.166
Mof_C 	C 	0.7283	0.631	0.1697	0.437
Mof_C 	C 	0.5625	0.7097	0.2212	0.707
Mof_C 	C 	0.217	0.9225	0.1539	0.458
Mof_C 	C 	0.1797	0.8765	0.1592	-0.15
Mof_C 	C 	0.1844	0.8302	0.1403	0.152
Mof_H 	H 	0.2098	0.8284	0.1233	0.088
Mof_C 	C 	0.1532	0.7867	0.1456	-0.097
Mof_C 	C 	0.113	0.7883	0.1684	0.12
Mof_C 	C 	0.1093	0.8343	0.1896	-0.171
Mof_C 	C 	0.1431	0.8771	0.1833	0.205
Mof_H 	H 	0.14	0.9081	0.1969	0.072
Mof_C 	C 	0.1515	0.7412	0.114	0.742
Mof_C 	C 	0.0725	0.7427	0.1705	0.291
Mof_C 	C 	0.0849	0.704	0.1993	-0.418
Mof_C 	C 	0.0444	0.665	0.1991	0.368
Mof_H 	H 	0.0556	0.6386	0.2187	-0.024
Mof_C 	C 	0.9866	0.6639	0.1699	-0.253
Mof_C 	C 	0.9724	0.7013	0.1401	0.257
Mof_H 	H 	0.9346	0.6998	0.1193	0.001
Mof_C 	C 	0.0143	0.7421	0.1403	-0.225
Mof_H 	H 	0.0035	0.7685	0.1206	0.178
Mof_C 	C 	0.9402	0.622	0.1689	0.508
Mof_C 	C 	0.1468	0.7013	0.2268	1.136
Mof_C 	C 	0.3493	0.019	0.2655	0.49
Mof_C 	C 	0.3564	0.0139	0.3105	-0.206
Mof_C 	C 	0.4144	0.0171	0.3401	0.321
Mof_H 	H 	0.4502	0.0221	0.3323	-0.014
Mof_C 	C 	0.418	0.0128	0.3808	-0.389
Mof_C 	C 	0.3661	0.0065	0.3941	0.266
Mof_C 	C 	0.3087	0.9985	0.3642	-0.176
Mof_H 	H 	0.274	0.9898	0.3722	0.184
Mof_C 	C 	0.3033	0.0034	0.3218	0.207
Mof_H 	H 	0.2649	0.9997	0.3019	0.054
Mof_C 	C 	0.4782	0.0113	0.4111	1.201
Mof_C 	C 	0.3633	0.0041	0.4376	0.21
Mof_C 	C 	0.3647	0.9558	0.4567	-0.168
Mof_C 	C 	0.3579	0.9544	0.496	0.192
Mof_H 	H 	0.3621	0.9227	0.5098	0.061
Mof_C 	C 	0.3451	0.9985	0.515	-0.141
Mof_C 	C 	0.3441	0.0454	0.4954	0.186
Mof_H 	H 	0.336	0.076	0.5076	0.07
Mof_C 	C 	0.3554	0.0472	0.4564	-0.211
Mof_C 	C 	0.3332	0.9949	0.5553	0.452
Mof_C 	C 	0.3635	0.9037	0.4374	0.714
Mof_C 	C 	0.3254	0.1706	0.0608	0.129
Mof_H 	H 	0.3666	0.1605	0.0725	0.04
Mof_C 	C 	0.3123	0.2103	0.0311	-0.141
Mof_H 	H 	0.3445	0.224	0.0224	0.134
Mof_C 	C 	0.2566	0.2286	0.0155	0.112
Mof_C 	C 	0.2148	0.2042	0.0287	-0.144
Mof_H 	H 	0.1733	0.2116	0.0151	0.119
Mof_C 	C 	0.2267	0.1688	0.0607	0.12
Mof_H 	H 	0.1965	0.1606	0.0733	-0.005
Mof_F 	F 	0.1888	0.7274	0.2364	-0.463
Mof_F 	F 	0.4872	0.0215	0.4454	-0.438
Mof_F 	F 	0.35	0.142	0.4646	-0.305
Mof_F 	F 	0.2748	0.0912	0.4046	-0.352
Mof_F 	F 	0.3814	0.1142	0.4219	-0.289
Mof_C 	C 	0.3344	0.093	0.44	0.679
Mof_F 	F 	0.0679	0.8818	0.232	-0.324
Mof_F 	F 	0.074	0.8056	0.2449	-0.408
Mof_F 	F 	0.0025	0.8517	0.1884	-0.358
Mof_C 	C 	0.0636	0.8319	0.2124	0.803
Mof_Zn	Zn	0.90536	0.52871	0.19975	1.234
Mof_Zn	Zn	0.8187	0.46324	0.12655	1.226
Mof_Zn	Zn	0.75955	0.52623	0.1822	1.22
Mof_Zn	Zn	0.80672	0.58636	0.11722	1.202
Mof_F 	F 	0.1595	0.3976	0.26994	-0.503
Mof_F 	F 	0.2028	0.3657	0.2276	-0.43
Mof_F 	F 	0.1729	0.3149	0.2666	-0.413
Mof_F 	F 	0.0734	0.163	0.2473	-0.319
Mof_F 	F 	0.0038	0.2057	0.1927	-0.374
Mof_F 	F 	0.0691	0.247	0.2549	-0.323
Mof_F 	F 	0.5984	0.2404	0.0789	-0.378
Mof_F 	F 	0.6636	0.1946	0.1393	-0.325
Mof_F 	F 	0.7003	0.2436	0.0978	-0.359
Mof_F 	F 	0.661	0.159	0.2517	-0.497
Mof_F 	F 	0.6494	0.2375	0.2591	-0.313
Mof_F 	F 	0.6969	0.1929	0.2061	-0.27
Mof_F 	F 	0.0263	0.5051	0.3971	-0.536
Mof_F 	F 	0.9934	0.4693	0.4381	-0.341
Mof_F 	F 	0.9959	0.5622	0.422	-0.347
Mof_F 	F 	0.8721	0.3573	0.4617	-0.39
Mof_F 	F 	0.8064	0.3896	0.4049	-0.397
Mof_F 	F 	0.9132	0.3957	0.4203	-0.368
Mof_O 	O 	0.9577	0.46792	0.19759	-0.469
Mof_O 	O 	0.8911	0.41885	0.15002	-0.435
Mof_O 	O 	0.2094	0.0873	0.1825	-0.433
Mof_O 	O 	0.2664	0.13449	0.15236	-0.474
Mof_O 	O 	0.7523	0.417	0.13172	-0.455
Mof_O 	O 	0.7066	0.4637	0.17004	-0.464
Mof_O 	O 	0.4566	0.08827	0.1969	-0.469
Mof_O 	O 	0.3913	0.1235	0.1402	-0.456
Mof_O 	O 	0.7955	0.5161	0.24179	-0.446
Mof_O 	O 	0.8978	0.52657	0.25557	-0.47
Mof_O 	O 	0.8171	0.5367	0.56988	-0.447
Mof_O 	O 	0.8384	0.4523	0.57287	-0.456
Mof_O 	O 	0.82586	0.52584	0.15778	-0.929
Mof_N 	N 	0.7822	0.6468	0.0729	-0.243
Mof_C 	C 	0.943	0.4291	0.1752	0.473
Mof_C 	C 	0.9931	0.3889	0.179	-0.165
Mof_C 	C 	0.0491	0.3913	0.2088	0.221
Mof_H 	H 	0.0576	0.4193	0.2271	0.015
Mof_C 	C 	0.0938	0.3525	0.2123	-0.248
Mof_C 	C 	0.0828	0.3103	0.186	0.198
Mof_C 	C 	0.0249	0.3094	0.1544	-0.144
Mof_H 	H 	0.0165	0.282	0.1356	0.163
Mof_C 	C 	0.9809	0.3479	0.1506	0.172
Mof_H 	H 	0.9435	0.3466	0.1294	0.064
Mof_C 	C 	0.1548	0.3569	0.2435	0.896
Mof_C 	C 	0.1247	0.2661	0.1865	0.121
Mof_C 	C 	0.1176	0.2198	0.2057	-0.096
Mof_C 	C 	0.1535	0.1767	0.1994	0.135
Mof_H 	H 	0.1493	0.1452	0.2119	0.097
Mof_C 	C 	0.1927	0.1785	0.177	-0.101
Mof_C 	C 	0.2019	0.225	0.1599	0.126
Mof_H 	H 	0.2306	0.2279	0.1453	0.062
Mof_C 	C 	0.1665	0.268	0.165	-0.104
Mof_H 	H 	0.172	0.2995	0.153	0.166
Mof_C 	C 	0.2283	0.131	0.1697	0.437
Mof_C 	C 	0.0625	0.2097	0.2212	0.707
Mof_C 	C 	0.717	0.4225	0.1539	0.458
Mof_C 	C 	0.6797	0.3765	0.1592	-0.151
Mof_C 	C 	0.6844	0.3302	0.1403	0.152
Mof_H 	H 	0.7098	0.3284	0.1233	0.088
Mof_C 	C 	0.6532	0.2867	0.1456	-0.097
Mof_C 	C 	0.613	0.2883	0.1684	0.12
Mof_C 	C 	0.6093	0.3343	0.1896	-0.171
Mof_C 	C 	0.6431	0.3771	0.1833	0.205
Mof_H 	H 	0.64	0.4081	0.1969	0.072
Mof_C 	C 	0.6515	0.2412	0.114	0.742
Mof_C 	C 	0.5725	0.2427	0.1705	0.291
Mof_C 	C 	0.5849	0.204	0.1993	-0.418
Mof_C 	C 	0.5444	0.165	0.1991	0.368
Mof_H 	H 	0.5556	0.1386	0.2187	-0.024
Mof_C 	C 	0.4866	0.1639	0.1699	-0.253
Mof_C 	C 	0.4724	0.2013	0.1401	0.257
Mof_H 	H 	0.4346	0.1998	0.1193	0.001
Mof_C 	C 	0.5143	0.2421	0.1403	-0.224
Mof_H 	H 	0.5035	0.2685	0.1206	0.178
Mof_C 	C 	0.4402	0.122	0.1689	0.508
Mof_C 	C 	0.6468	0.2013	0.2268	1.136
Mof_C 	C 	0.8493	0.519	0.2655	0.491
Mof_C 	C 	0.8564	0.5139	0.3105	-0.207
Mof_C 	C 	0.9144	0.5171	0.3401	0.321
Mof_H 	H 	0.9502	0.5221	0.3323	-0.014
Mof_C 	C 	0.918	0.5128	0.3808	-0.39
Mof_C 	C 	0.8661	0.5065	0.3941	0.267
Mof_C 	C 	0.8087	0.4985	0.3642	-0.177
Mof_H 	H 	0.774	0.4898	0.3722	0.184
Mof_C 	C 	0.8033	0.5034	0.3218	0.209
Mof_H 	H 	0.7649	0.4997	0.3019	0.053
Mof_C 	C 	0.9782	0.5113	0.4111	1.201
Mof_C 	C 	0.8633	0.5041	0.4376	0.209
Mof_C 	C 	0.8647	0.4558	0.4567	-0.168
Mof_C 	C 	0.8579	0.4544	0.496	0.192
Mof_H 	H 	0.8621	0.4227	0.5098	0.061
Mof_C 	C 	0.8451	0.4985	0.515	-0.142
Mof_C 	C 	0.8441	0.5454	0.4954	0.186
Mof_H 	H 	0.836	0.576	0.5076	0.07
Mof_C 	C 	0.8554	0.5472	0.4564	-0.21
Mof_C 	C 	0.8332	0.4949	0.5553	0.452
Mof_C 	C 	0.8635	0.4037	0.4374	0.714
Mof_C 	C 	0.8254	0.6706	0.0608	0.129
Mof_H 	H 	0.8666	0.6605	0.0725	0.04
Mof_C 	C 	0.8123	0.7103	0.0311	-0.143
Mof_H 	H 	0.8445	0.724	0.0224	0.135
Mof_C 	C 	0.7566	0.7286	0.0155	0.114
Mof_C 	C 	0.7148	0.7042	0.0287	-0.146
Mof_H 	H 	0.6733	0.7116	0.0151	0.119
Mof_C 	C 	0.7267	0.6688	0.0607	0.12
Mof_H 	H 	0.6965	0.6606	0.0733	-0.005
Mof_F 	F 	0.6888	0.2274	0.2364	-0.463
Mof_F 	F 	0.9872	0.5215	0.4454	-0.438
Mof_F 	F 	0.85	0.642	0.4646	-0.305
Mof_F 	F 	0.7748	0.5912	0.4046	-0.353
Mof_F 	F 	0.8814	0.6142	0.4219	-0.289
Mof_C 	C 	0.8344	0.593	0.44	0.679
Mof_F 	F 	0.5679	0.3818	0.232	-0.324
Mof_F 	F 	0.574	0.3056	0.2449	-0.408
Mof_F 	F 	0.5025	0.3517	0.1884	-0.357
Mof_C 	C 	0.5636	0.3319	0.2124	0.803
Mof_Zn	Zn	0.59464	0.02871	0.30025	1.234
Mof_Zn	Zn	0.6813	0.96324	0.37345	1.226
Mof_Zn	Zn	0.74045	0.02623	0.3178	1.22
Mof_Zn	Zn	0.69328	0.08636	0.38278	1.202
Mof_F 	F 	0.3405	0.8976	0.23006	-0.503
Mof_F 	F 	0.2972	0.8657	0.2724	-0.43
Mof_F 	F 	0.3271	0.8149	0.2334	-0.413
Mof_F 	F 	0.4266	0.663	0.2527	-0.319
Mof_F 	F 	0.4962	0.7057	0.3073	-0.374
Mof_F 	F 	0.4309	0.747	0.2451	-0.323
Mof_F 	F 	0.9016	0.7404	0.4211	-0.378
Mof_F 	F 	0.8364	0.6946	0.3607	-0.325
Mof_F 	F 	0.7997	0.7436	0.4022	-0.359
Mof_F 	F 	0.839	0.659	0.2483	-0.497
Mof_F 	F 	0.8506	0.7375	0.2409	-0.313
Mof_F 	F 	0.8031	0.6929	0.2939	-0.27
Mof_F 	F 	0.4737	0.0051	0.1029	-0.535
Mof_F 	F 	0.5066	0.9693	0.0619	-0.34
Mof_F 	F 	0.5041	0.0622	0.078	-0.347
Mof_F 	F 	0.6279	0.8573	0.0383	-0.39
Mof_F 	F 	0.6936	0.8896	0.0951	-0.397
Mof_F 	F 	0.5868	0.8957	0.0797	-0.368
Mof_O 	O 	0.5423	0.96792	0.30241	-0.469
Mof_O 	O 	0.6089	0.91885	0.34998	-0.434
Mof_O 	O 	0.2906	0.5873	0.3175	-0.434
Mof_O 	O 	0.2336	0.63449	0.34764	-0.474
Mof_O 	O 	0.7477	0.917	0.36828	-0.455
Mof_O 	O 	0.7934	0.9637	0.32996	-0.463
Mof_O 	O 	0.0434	0.58827	0.3031	-0.469
Mof_O 	O 	0.1087	0.6235	0.3598	-0.456
Mof_O 	O 	0.7045	0.0161	0.25821	-0.446
Mof_O 	O 	0.6022	0.02657	0.24443	-0.47
Mof_O 	O 	0.6829	0.0367	0.93012	-0.446
Mof_O 	O 	0.6616	0.9523	0.92713	-0.456
Mof_O 	O 	0.67414	0.02584	0.34222	-0.929
Mof_N 	N 	0.7178	0.1468	0.4271	-0.243
Mof_C 	C 	0.557	0.9291	0.3248	0.473
Mof_C 	C 	0.5069	0.8889	0.321	-0.164
Mof_C 	C 	0.4509	0.8913	0.2912	0.221
Mof_H 	H 	0.4424	0.9193	0.2729	0.015
Mof_C 	C 	0.4062	0.8525	0.2877	-0.248
Mof_C 	C 	0.4172	0.8103	0.314	0.198
Mof_C 	C 	0.4751	0.8094	0.3456	-0.144
Mof_H 	H 	0.4835	0.782	0.3644	0.163
Mof_C 	C 	0.5191	0.8479	0.3494	0.172
Mof_H 	H 	0.5565	0.8466	0.3706	0.064
Mof_C 	C 	0.3452	0.8569	0.2565	0.896
Mof_C 	C 	0.3753	0.7661	0.3135	0.121
Mof_C 	C 	0.3824	0.7198	0.2943	-0.096
Mof_C 	C 	0.3465	0.6767	0.3006	0.135
Mof_H 	H 	0.3507	0.6452	0.2881	0.097
Mof_C 	C 	0.3073	0.6785	0.323	-0.101
Mof_C 	C 	0.2981	0.725	0.3401	0.126
Mof_H 	H 	0.2694	0.7279	0.3547	0.062
Mof_C 	C 	0.3335	0.768	0.335	-0.104
Mof_H 	H 	0.328	0.7995	0.347	0.166
Mof_C 	C 	0.2717	0.631	0.3303	0.437
Mof_C 	C 	0.4375	0.7097	0.2788	0.707
Mof_C 	C 	0.783	0.9225	0.3461	0.458
Mof_C 	C 	0.8203	0.8765	0.3408	-0.15
Mof_C 	C 	0.8156	0.8302	0.3597	0.152
Mof_H 	H 	0.7902	0.8284	0.3767	0.088
Mof_C 	C 	0.8468	0.7867	0.3544	-0.097
Mof_C 	C 	0.887	0.7883	0.3316	0.12
Mof_C 	C 	0.8907	0.8343	0.3104	-0.171
Mof_C 	C 	0.8569	0.8771	0.3167	0.205
Mof_H 	H 	0.86	0.9081	0.3031	0.072
Mof_C 	C 	0.8485	0.7412	0.386	0.742
Mof_C 	C 	0.9275	0.7427	0.3295	0.291
Mof_C 	C 	0.9151	0.704	0.3007	-0.418
Mof_C 	C 	0.9556	0.665	0.3009	0.368
Mof_H 	H 	0.9444	0.6386	0.2813	-0.024
Mof_C 	C 	0.0134	0.6639	0.3301	-0.253
Mof_C 	C 	0.0276	0.7013	0.3599	0.257
Mof_H 	H 	0.0654	0.6998	0.3807	0.001
Mof_C 	C 	0.9857	0.7421	0.3597	-0.225
Mof_H 	H 	0.9965	0.7685	0.3794	0.178
Mof_C 	C 	0.0598	0.622	0.3311	0.508
Mof_C 	C 	0.8532	0.7013	0.2732	1.136
Mof_C 	C 	0.6507	0.019	0.2345	0.49
Mof_C 	C 	0.6436	0.0139	0.1895	-0.205
Mof_C 	C 	0.5856	0.0171	0.1599	0.32
Mof_H 	H 	0.5498	0.0221	0.1677	-0.014
Mof_C 	C 	0.582	0.0128	0.1192	-0.388
Mof_C 	C 	0.6339	0.0065	0.1059	0.265
Mof_C 	C 	0.6913	0.9985	0.1358	-0.174
Mof_H 	H 	0.726	0.9898	0.1278	0.183
Mof_C 	C 	0.6967	0.0034	0.1782	0.206
Mof_H 	H 	0.7351	0.9997	0.1981	0.055
Mof_C 	C 	0.5218	0.0113	0.0889	1.201
Mof_C 	C 	0.6367	0.0041	0.0624	0.21
Mof_C 	C 	0.6353	0.9558	0.0433	-0.169
Mof_C 	C 	0.6421	0.9544	0.004	0.194
Mof_H 	H 	0.6379	0.9227	0.9902	0.06
Mof_C 	C 	0.6549	0.9985	0.985	-0.142
Mof_C 	C 	0.6559	0.0454	0.0046	0.185
Mof_H 	H 	0.664	0.076	0.9924	0.071
Mof_C 	C 	0.6446	0.0472	0.0436	-0.21
Mof_C 	C 	0.6668	0.9949	0.9447	0.452
Mof_C 	C 	0.6365	0.9037	0.0626	0.714
Mof_C 	C 	0.6746	0.1706	0.4392	0.129
Mof_H 	H 	0.6334	0.1605	0.4275	0.04
Mof_C 	C 	0.6877	0.2103	0.4689	-0.142
Mof_H 	H 	0.6555	0.224	0.4776	0.135
Mof_C 	C 	0.7434	0.2286	0.4845	0.113
Mof_C 	C 	0.7852	0.2042	0.4713	-0.145
Mof_H 	H 	0.8267	0.2116	0.4849	0.119
Mof_C 	C 	0.7733	0.1688	0.4393	0.12
Mof_H 	H 	0.8035	0.1606	0.4267	-0.005
Mof_F 	F 	0.8112	0.7274	0.2636	-0.463
Mof_F 	F 	0.5128	0.0215	0.0546	-0.438
Mof_F 	F 	0.65	0.142	0.0354	-0.305
Mof_F 	F 	0.7252	0.0912	0.0954	-0.353
Mof_F 	F 	0.6186	0.1142	0.0781	-0.289
Mof_C 	C 	0.6656	0.093	0.06	0.679
Mof_F 	F 	0.9321	0.8818	0.268	-0.324
Mof_F 	F 	0.926	0.8056	0.2551	-0.408
Mof_F 	F 	0.9975	0.8517	0.3116	-0.358
Mof_C 	C 	0.9364	0.8319	0.2876	0.803
Mof_Zn	Zn	0.09464	0.52871	0.30025	1.234
Mof_Zn	Zn	0.1813	0.46324	0.37345	1.226
Mof_Zn	Zn	0.24045	0.52623	0.3178	1.22
Mof_Zn	Zn	0.19328	0.58636	0.38278	1.202
Mof_F 	F 	0.8405	0.3976	0.23006	-0.503
Mof_F 	F 	0.7972	0.3657	0.2724	-0.43
Mof_F 	F 	0.8271	0.3149	0.2334	-0.413
Mof_F 	F 	0.9266	0.163	0.2527	-0.319
Mof_F 	F 	0.9962	0.2057	0.3073	-0.374
Mof_F 	F 	0.9309	0.247	0.2451	-0.323
Mof_F 	F 	0.4016	0.2404	0.4211	-0.378
Mof_F 	F 	0.3364	0.1946	0.3607	-0.325
Mof_F 	F 	0.2997	0.2436	0.4022	-0.359
Mof_F 	F 	0.339	0.159	0.2483	-0.497
Mof_F 	F 	0.3506	0.2375	0.2409	-0.313
Mof_F 	F 	0.3031	0.1929	0.2939	-0.27
Mof_F 	F 	0.9737	0.5051	0.1029	-0.536
Mof_F 	F 	0.0066	0.4693	0.0619	-0.341
Mof_F 	F 	0.0041	0.5622	0.078	-0.347
Mof_F 	F 	0.1279	0.3573	0.0383	-0.39
Mof_F 	F 	0.1936	0.3896	0.0951	-0.397
Mof_F 	F 	0.0868	0.3957	0.0797	-0.368
Mof_O 	O 	0.0423	0.46792	0.30241	-0.469
Mof_O 	O 	0.1089	0.41885	0.34998	-0.435
Mof_O 	O 	0.7906	0.0873	0.3175	-0.433
Mof_O 	O 	0.7336	0.13449	0.34764	-0.474
Mof_O 	O 	0.2477	0.417	0.36828	-0.455
Mof_O 	O 	0.2934	0.4637	0.32996	-0.464
Mof_O 	O 	0.5434	0.08827	0.3031	-0.469
Mof_O 	O 	0.6087	0.1235	0.3598	-0.456
Mof_O 	O 	0.2045	0.5161	0.25821	-0.446
Mof_O 	O 	0.1022	0.52657	0.24443	-0.47
Mof_O 	O 	0.1829	0.5367	0.93012	-0.447
Mof_O 	O 	0.1616	0.4523	0.92713	-0.456
Mof_O 	O 	0.17414	0.52584	0.34222	-0.929
Mof_N 	N 	0.2178	0.6468	0.4271	-0.243
Mof_C 	C 	0.057	0.4291	0.3248	0.473
Mof_C 	C 	0.0069	0.3889	0.321	-0.165
Mof_C 	C 	0.9509	0.3913	0.2912	0.221
Mof_H 	H 	0.9424	0.4193	0.2729	0.015
Mof_C 	C 	0.9062	0.3525	0.2877	-0.248
Mof_C 	C 	0.9172	0.3103	0.314	0.198
Mof_C 	C 	0.9751	0.3094	0.3456	-0.144
Mof_H 	H 	0.9835	0.282	0.3644	0.163
Mof_C 	C 	0.0191	0.3479	0.3494	0.172
Mof_H 	H 	0.0565	0.3466	0.3706	0.064
Mof_C 	C 	0.8452	0.3569	0.2565	0.896
Mof_C 	C 	0.8753	0.2661	0.3135	0.121
Mof_C 	C 	0.8824	0.2198	0.2943	-0.096
Mof_C 	C 	0.8465	0.1767	0.3006	0.135
Mof_H 	H 	0.8507	0.1452	0.2881	0.097
Mof_C 	C 	0.8073	0.1785	0.323	-0.101
Mof_C 	C 	0.7981	0.225	0.3401	0.126
Mof_H 	H 	0.7694	0.2279	0.3547	0.062
Mof_C 	C 	0.8335	0.268	0.335	-0.104
Mof_H 	H 	0.828	0.2995	0.347	0.166
Mof_C 	C 	0.7717	0.131	0.3303	0.437
Mof_C 	C 	0.9375	0.2097	0.2788	0.707
Mof_C 	C 	0.283	0.4225	0.3461	0.458
Mof_C 	C 	0.3203	0.3765	0.3408	-0.151
Mof_C 	C 	0.3156	0.3302	0.3597	0.152
Mof_H 	H 	0.2902	0.3284	0.3767	0.088
Mof_C 	C 	0.3468	0.2867	0.3544	-0.097
Mof_C 	C 	0.387	0.2883	0.3316	0.12
Mof_C 	C 	0.3907	0.3343	0.3104	-0.171
Mof_C 	C 	0.3569	0.3771	0.3167	0.205
Mof_H 	H 	0.36	0.4081	0.3031	0.072
Mof_C 	C 	0.3485	0.2412	0.386	0.742
Mof_C 	C 	0.4275	0.2427	0.3295	0.291
Mof_C 	C 	0.4151	0.204	0.3007	-0.418
Mof_C 	C 	0.4556	0.165	0.3009	0.368
Mof_H 	H 	0.4444	0.1386	0.2813	-0.024
Mof_C 	C 	0.5134	0.1639	0.3301	-0.253
Mof_C 	C 	0.5276	0.2013	0.3599	0.257
Mof_H 	H 	0.5654	0.1998	0.3807	0.001
Mof_C 	C 	0.4857	0.2421	0.3597	-0.224
Mof_H 	H 	0.4965	0.2685	0.3794	0.178
Mof_C 	C 	0.5598	0.122	0.3311	0.508
Mof_C 	C 	0.3532	0.2013	0.2732	1.136
Mof_C 	C 	0.1507	0.519	0.2345	0.491
Mof_C 	C 	0.1436	0.5139	0.1895	-0.207
Mof_C 	C 	0.0856	0.5171	0.1599	0.321
Mof_H 	H 	0.0498	0.5221	0.1677	-0.014
Mof_C 	C 	0.082	0.5128	0.1192	-0.39
Mof_C 	C 	0.1339	0.5065	0.1059	0.267
Mof_C 	C 	0.1913	0.4985	0.1358	-0.177
Mof_H 	H 	0.226	0.4898	0.1278	0.184
Mof_C 	C 	0.1967	0.5034	0.1782	0.209
Mof_H 	H 	0.2351	0.4997	0.1981	0.053
Mof_C 	C 	0.0218	0.5113	0.0889	1.201
Mof_C 	C 	0.1367	0.5041	0.0624	0.209
Mof_C 	C 	0.1353	0.4558	0.0433	-0.168
Mof_C 	C 	0.1421	0.4544	0.004	0.192
Mof_H 	H 	0.1379	0.4227	0.9902	0.061
Mof_C 	C 	0.1549	0.4985	0.985	-0.142
Mof_C 	C 	0.1559	0.5454	0.0046	0.186
Mof_H 	H 	0.164	0.576	0.9924	0.07
Mof_C 	C 	0.1446	0.5472	0.0436	-0.211
Mof_C 	C 	0.1668	0.4949	0.9447	0.452
Mof_C 	C 	0.1365	0.4037	0.0626	0.714
Mof_C 	C 	0.1746	0.6706	0.4392	0.129
Mof_H 	H 	0.1334	0.6605	0.4275	0.04
Mof_C 	C 	0.1877	0.7103	0.4689	-0.142
Mof_H 	H 	0.1555	0.724	0.4776	0.135
Mof_C 	C 	0.2434	0.7286	0.4845	0.113
Mof_C 	C 	0.2852	0.7042	0.4713	-0.145
Mof_H 	H 	0.3267	0.7116	0.4849	0.119
Mof_C 	C 	0.2733	0.6688	0.4393	0.12
Mof_H 	H 	0.3035	0.6606	0.4267	-0.005
Mof_F 	F 	0.3112	0.2274	0.2636	-0.463
Mof_F 	F 	0.0128	0.5215	0.0546	-0.438
Mof_F 	F 	0.15	0.642	0.0354	-0.305
Mof_F 	F 	0.2252	0.5912	0.0954	-0.353
Mof_F 	F 	0.1186	0.6142	0.0781	-0.289
Mof_C 	C 	0.1656	0.593	0.06	0.679
Mof_F 	F 	0.4321	0.3818	0.268	-0.324
Mof_F 	F 	0.426	0.3056	0.2551	-0.408
Mof_F 	F 	0.4975	0.3517	0.3116	-0.357
Mof_C 	C 	0.4364	0.3319	0.2876	0.803
Mof_Zn	Zn	0.59464	0.97129	0.80025	1.234
Mof_Zn	Zn	0.6813	0.03676	0.87345	1.226
Mof_Zn	Zn	0.74045	0.97377	0.8178	1.22
Mof_Zn	Zn	0.69328	0.91364	0.88278	1.202
Mof_F 	F 	0.3405	0.1024	0.73006	-0.503
Mof_F 	F 	0.2972	0.1343	0.7724	-0.43
Mof_F 	F 	0.3271	0.1851	0.7334	-0.413
Mof_F 	F 	0.4266	0.337	0.7527	-0.319
Mof_F 	F 	0.4962	0.2943	0.8073	-0.374
Mof_F 	F 	0.4309	0.253	0.7451	-0.323
Mof_F 	F 	0.9016	0.2596	0.9211	-0.378
Mof_F 	F 	0.8364	0.3054	0.8607	-0.325
Mof_F 	F 	0.7997	0.2564	0.9022	-0.359
Mof_F 	F 	0.839	0.341	0.7483	-0.497
Mof_F 	F 	0.8506	0.2625	0.7409	-0.313
Mof_F 	F 	0.8031	0.3071	0.7939	-0.27
Mof_F 	F 	0.4737	0.9949	0.6029	-0.535
Mof_F 	F 	0.5066	0.0307	0.5619	-0.341
Mof_F 	F 	0.5041	0.9378	0.578	-0.347
Mof_F 	F 	0.6279	0.1427	0.5383	-0.39
Mof_F 	F 	0.6936	0.1104	0.5951	-0.397
Mof_F 	F 	0.5868	0.1043	0.5797	-0.368
Mof_O 	O 	0.5423	0.03208	0.80241	-0.469
Mof_O 	O 	0.6089	0.08115	0.84998	-0.434
Mof_O 	O 	0.2906	0.4127	0.8175	-0.434
Mof_O 	O 	0.2336	0.36551	0.84764	-0.474
Mof_O 	O 	0.7477	0.083	0.86828	-0.455
Mof_O 	O 	0.7934	0.0363	0.82996	-0.463
Mof_O 	O 	0.0434	0.41173	0.8031	-0.469
Mof_O 	O 	0.1087	0.3765	0.8598	-0.456
Mof_O 	O 	0.7045	0.9839	0.75821	-0.446
Mof_O 	O 	0.6022	0.97343	0.74443	-0.47
Mof_O 	O 	0.6829	0.9633	0.43012	-0.447
Mof_O 	O 	0.6616	0.0477	0.42713	-0.456
Mof_O 	O 	0.67414	0.97416	0.84222	-0.929
Mof_N 	N 	0.7178	0.8532	0.9271	-0.242
Mof_C 	C 	0.557	0.0709	0.8248	0.473
Mof_C 	C 	0.5069	0.1111	0.821	-0.164
Mof_C 	C 	0.4509	0.1087	0.7912	0.221
Mof_H 	H 	0.4424	0.0807	0.7729	0.015
Mof_C 	C 	0.4062	0.1475	0.7877	-0.248
Mof_C 	C 	0.4172	0.1897	0.814	0.198
Mof_C 	C 	0.4751	0.1906	0.8456	-0.144
Mof_H 	H 	0.4835	0.218	0.8644	0.163
Mof_C 	C 	0.5191	0.1521	0.8494	0.172
Mof_H 	H 	0.5565	0.1534	0.8706	0.064
Mof_C 	C 	0.3452	0.1431	0.7565	0.896
Mof_C 	C 	0.3753	0.2339	0.8135	0.121
Mof_C 	C 	0.3824	0.2802	0.7943	-0.096
Mof_C 	C 	0.3465	0.3233	0.8006	0.135
Mof_H 	H 	0.3507	0.3548	0.7881	0.097
Mof_C 	C 	0.3073	0.3215	0.823	-0.101
Mof_C 	C 	0.2981	0.275	0.8401	0.126
Mof_H 	H 	0.2694	0.2721	0.8547	0.062
Mof_C 	C 	0.3335	0.232	0.835	-0.104
Mof_H 	H 	0.328	0.2005	0.847	0.166
Mof_C 	C 	0.2717	0.369	0.8303	0.437
Mof_C 	C 	0.4375	0.2903	0.7788	0.707
Mof_C 	C 	0.783	0.0775	0.8461	0.458
Mof_C 	C 	0.8203	0.1235	0.8408	-0.15
Mof_C 	C 	0.8156	0.1698	0.8597	0.152
Mof_H 	H 	0.7902	0.1716	0.8767	0.088
Mof_C 	C 	0.8468	0.2133	0.8544	-0.097
Mof_C 	C 	0.887	0.2117	0.8316	0.12
Mof_C 	C 	0.8907	0.1657	0.8104	-0.171
Mof_C 	C 	0.8569	0.1229	0.8167	0.205
Mof_H 	H 	0.86	0.0919	0.8031	0.072
Mof_C 	C 	0.8485	0.2588	0.886	0.742
Mof_C 	C 	0.9275	0.2573	0.8295	0.291
Mof_C 	C 	0.9151	0.296	0.8007	-0.418
Mof_C 	C 	0.9556	0.335	0.8009	0.368
Mof_H 	H 	0.9444	0.3614	0.7813	-0.024
Mof_C 	C 	0.0134	0.3361	0.8301	-0.253
Mof_C 	C 	0.0276	0.2987	0.8599	0.257
Mof_H 	H 	0.0654	0.3002	0.8807	0.001
Mof_C 	C 	0.9857	0.2579	0.8597	-0.225
Mof_H 	H 	0.9965	0.2315	0.8794	0.178
Mof_C 	C 	0.0598	0.378	0.8311	0.508
Mof_C 	C 	0.8532	0.2987	0.7732	1.136
Mof_C 	C 	0.6507	0.981	0.7345	0.49
Mof_C 	C 	0.6436	0.9861	0.6895	-0.206
Mof_C 	C 	0.5856	0.9829	0.6599	0.321
Mof_H 	H 	0.5498	0.9779	0.6677	-0.014
Mof_C 	C 	0.582	0.9872	0.6192	-0.389
Mof_C 	C 	0.6339	0.9935	0.6059	0.266
Mof_C 	C 	0.6913	0.0015	0.6358	-0.176
Mof_H 	H 	0.726	0.0102	0.6278	0.184
Mof_C 	C 	0.6967	0.9966	0.6782	0.207
Mof_H 	H 	0.7351	0.0003	0.6981	0.054
Mof_C 	C 	0.5218	0.9887	0.5889	1.201
Mof_C 	C 	0.6367	0.9959	0.5624	0.21
Mof_C 	C 	0.6353	0.0442	0.5433	-0.168
Mof_C 	C 	0.6421	0.0456	0.504	0.192
Mof_H 	H 	0.6379	0.0773	0.4902	0.061
Mof_C 	C 	0.6549	0.0015	0.485	-0.141
Mof_C 	C 	0.6559	0.9546	0.5046	0.186
Mof_H 	H 	0.664	0.924	0.4924	0.07
Mof_C 	C 	0.6446	0.9528	0.5436	-0.211
Mof_C 	C 	0.6668	0.0051	0.4447	0.452
Mof_C 	C 	0.6365	0.0963	0.5626	0.714
Mof_C 	C 	0.6746	0.8294	0.9392	0.129
Mof_H 	H 	0.6334	0.8395	0.9275	0.04
Mof_C 	C 	0.6877	0.7897	0.9689	-0.141
Mof_H 	H 	0.6555	0.776	0.9776	0.134
Mof_C 	C 	0.7434	0.7714	0.9845	0.112
Mof_C 	C 	0.7852	0.7958	0.9713	-0.144
Mof_H 	H 	0.8267	0.7884	0.9849	0.119
Mof_C 	C 	0.7733	0.8312	0.9393	0.12
Mof_H 	H 	0.8035	0.8394	0.9267	-0.005
Mof_F 	F 	0.8112	0.2726	0.7636	-0.463
Mof_F 	F 	0.5128	0.9785	0.5546	-0.438
Mof_F 	F 	0.65	0.858	0.5354	-0.305
Mof_F 	F 	0.7252	0.9088	0.5954	-0.352
Mof_F 	F 	0.6186	0.8858	0.5781	-0.289
Mof_C 	C 	0.6656	0.907	0.56	0.679
Mof_F 	F 	0.9321	0.1182	0.768	-0.324
Mof_F 	F 	0.926	0.1944	0.7551	-0.408
Mof_F 	F 	0.9975	0.1483	0.8116	-0.358
Mof_C 	C 	0.9364	0.1681	0.7876	0.803
Mof_Zn	Zn	0.09464	0.47129	0.80025	1.234
Mof_Zn	Zn	0.1813	0.53676	0.87345	1.226
Mof_Zn	Zn	0.24045	0.47377	0.8178	1.22
Mof_Zn	Zn	0.19328	0.41364	0.88278	1.202
Mof_F 	F 	0.8405	0.6024	0.73006	-0.503
Mof_F 	F 	0.7972	0.6343	0.7724	-0.43
Mof_F 	F 	0.8271	0.6851	0.7334	-0.413
Mof_F 	F 	0.9266	0.837	0.7527	-0.319
Mof_F 	F 	0.9962	0.7943	0.8073	-0.374
Mof_F 	F 	0.9309	0.753	0.7451	-0.323
Mof_F 	F 	0.4016	0.7596	0.9211	-0.378
Mof_F 	F 	0.3364	0.8054	0.8607	-0.325
Mof_F 	F 	0.2997	0.7564	0.9022	-0.359
Mof_F 	F 	0.339	0.841	0.7483	-0.497
Mof_F 	F 	0.3506	0.7625	0.7409	-0.313
Mof_F 	F 	0.3031	0.8071	0.7939	-0.27
Mof_F 	F 	0.9737	0.4949	0.6029	-0.536
Mof_F 	F 	0.0066	0.5307	0.5619	-0.341
Mof_F 	F 	0.0041	0.4378	0.578	-0.347
Mof_F 	F 	0.1279	0.6427	0.5383	-0.39
Mof_F 	F 	0.1936	0.6104	0.5951	-0.397
Mof_F 	F 	0.0868	0.6043	0.5797	-0.368
Mof_O 	O 	0.0423	0.53208	0.80241	-0.469
Mof_O 	O 	0.1089	0.58115	0.84998	-0.435
Mof_O 	O 	0.7906	0.9127	0.8175	-0.433
Mof_O 	O 	0.7336	0.86551	0.84764	-0.474
Mof_O 	O 	0.2477	0.583	0.86828	-0.455
Mof_O 	O 	0.2934	0.5363	0.82996	-0.464
Mof_O 	O 	0.5434	0.91173	0.8031	-0.469
Mof_O 	O 	0.6087	0.8765	0.8598	-0.456
Mof_O 	O 	0.2045	0.4839	0.75821	-0.446
Mof_O 	O 	0.1022	0.47343	0.74443	-0.47
Mof_O 	O 	0.1829	0.4633	0.43012	-0.447
Mof_O 	O 	0.1616	0.5477	0.42713	-0.456
Mof_O 	O 	0.17414	0.47416	0.84222	-0.929
Mof_N 	N 	0.2178	0.3532	0.9271	-0.243
Mof_C 	C 	0.057	0.5709	0.8248	0.473
Mof_C 	C 	0.0069	0.6111	0.821	-0.165
Mof_C 	C 	0.9509	0.6087	0.7912	0.221
Mof_H 	H 	0.9424	0.5807	0.7729	0.015
Mof_C 	C 	0.9062	0.6475	0.7877	-0.248
Mof_C 	C 	0.9172	0.6897	0.814	0.198
Mof_C 	C 	0.9751	0.6906	0.8456	-0.144
Mof_H 	H 	0.9835	0.718	0.8644	0.163
Mof_C 	C 	0.0191	0.6521	0.8494	0.172
Mof_H 	H 	0.0565	0.6534	0.8706	0.064
Mof_C 	C 	0.8452	0.6431	0.7565	0.896
Mof_C 	C 	0.8753	0.7339	0.8135	0.121
Mof_C 	C 	0.8824	0.7802	0.7943	-0.096
Mof_C 	C 	0.8465	0.8233	0.8006	0.135
Mof_H 	H 	0.8507	0.8548	0.7881	0.097
Mof_C 	C 	0.8073	0.8215	0.823	-0.101
Mof_C 	C 	0.7981	0.775	0.8401	0.126
Mof_H 	H 	0.7694	0.7721	0.8547	0.062
Mof_C 	C 	0.8335	0.732	0.835	-0.104
Mof_H 	H 	0.828	0.7005	0.847	0.166
Mof_C 	C 	0.7717	0.869	0.8303	0.437
Mof_C 	C 	0.9375	0.7903	0.7788	0.707
Mof_C 	C 	0.283	0.5775	0.8461	0.458
Mof_C 	C 	0.3203	0.6235	0.8408	-0.151
Mof_C 	C 	0.3156	0.6698	0.8597	0.152
Mof_H 	H 	0.2902	0.6716	0.8767	0.088
Mof_C 	C 	0.3468	0.7133	0.8544	-0.097
Mof_C 	C 	0.387	0.7117	0.8316	0.12
Mof_C 	C 	0.3907	0.6657	0.8104	-0.171
Mof_C 	C 	0.3569	0.6229	0.8167	0.205
Mof_H 	H 	0.36	0.5919	0.8031	0.072
Mof_C 	C 	0.3485	0.7588	0.886	0.742
Mof_C 	C 	0.4275	0.7573	0.8295	0.291
Mof_C 	C 	0.4151	0.796	0.8007	-0.418
Mof_C 	C 	0.4556	0.835	0.8009	0.368
Mof_H 	H 	0.4444	0.8614	0.7813	-0.024
Mof_C 	C 	0.5134	0.8361	0.8301	-0.253
Mof_C 	C 	0.5276	0.7987	0.8599	0.257
Mof_H 	H 	0.5654	0.8002	0.8807	0.001
Mof_C 	C 	0.4857	0.7579	0.8597	-0.224
Mof_H 	H 	0.4965	0.7315	0.8794	0.178
Mof_C 	C 	0.5598	0.878	0.8311	0.508
Mof_C 	C 	0.3532	0.7987	0.7732	1.136
Mof_C 	C 	0.1507	0.481	0.7345	0.491
Mof_C 	C 	0.1436	0.4861	0.6895	-0.207
Mof_C 	C 	0.0856	0.4829	0.6599	0.321
Mof_H 	H 	0.0498	0.4779	0.6677	-0.014
Mof_C 	C 	0.082	0.4872	0.6192	-0.39
Mof_C 	C 	0.1339	0.4935	0.6059	0.267
Mof_C 	C 	0.1913	0.5015	0.6358	-0.177
Mof_H 	H 	0.226	0.5102	0.6278	0.184
Mof_C 	C 	0.1967	0.4966	0.6782	0.209
Mof_H 	H 	0.2351	0.5003	0.6981	0.053
Mof_C 	C 	0.0218	0.4887	0.5889	1.201
Mof_C 	C 	0.1367	0.4959	0.5624	0.209
Mof_C 	C 	0.1353	0.5442	0.5433	-0.168
Mof_C 	C 	0.1421	0.5456	0.504	0.192
Mof_H 	H 	0.1379	0.5773	0.4902	0.061
Mof_C 	C 	0.1549	0.5015	0.485	-0.142
Mof_C 	C 	0.1559	0.4546	0.5046	0.186
Mof_H 	H 	0.164	0.424	0.4924	0.07
Mof_C 	C 	0.1446	0.4528	0.5436	-0.21
Mof_C 	C 	0.1668	0.5051	0.4447	0.452
Mof_C 	C 	0.1365	0.5963	0.5626	0.714
Mof_C 	C 	0.1746	0.3294	0.9392	0.129
Mof_H 	H 	0.1334	0.3395	0.9275	0.04
Mof_C 	C 	0.1877	0.2897	0.9689	-0.143
Mof_H 	H 	0.1555	0.276	0.9776	0.135
Mof_C 	C 	0.2434	0.2714	0.9845	0.114
Mof_C 	C 	0.2852	0.2958	0.9713	-0.146
Mof_H 	H 	0.3267	0.2884	0.9849	0.119
Mof_C 	C 	0.2733	0.3312	0.9393	0.12
Mof_H 	H 	0.3035	0.3394	0.9267	-0.005
Mof_F 	F 	0.3112	0.7726	0.7636	-0.463
Mof_F 	F 	0.0128	0.4785	0.5546	-0.438
Mof_F 	F 	0.15	0.358	0.5354	-0.305
Mof_F 	F 	0.2252	0.4088	0.5954	-0.353
Mof_F 	F 	0.1186	0.3858	0.5781	-0.289
Mof_C 	C 	0.1656	0.407	0.56	0.679
Mof_F 	F 	0.4321	0.6182	0.768	-0.324
Mof_F 	F 	0.426	0.6944	0.7551	-0.408
Mof_F 	F 	0.4975	0.6483	0.8116	-0.357
Mof_C 	C 	0.4364	0.6681	0.7876	0.803
Mof_Zn	Zn	0.40536	0.97129	0.69975	1.234
Mof_Zn	Zn	0.3187	0.03676	0.62655	1.226
Mof_Zn	Zn	0.25955	0.97377	0.6822	1.22
Mof_Zn	Zn	0.30672	0.91364	0.61722	1.202
Mof_F 	F 	0.6595	0.1024	0.76994	-0.503
Mof_F 	F 	0.7028	0.1343	0.7276	-0.43
Mof_F 	F 	0.6729	0.1851	0.7666	-0.413
Mof_F 	F 	0.5734	0.337	0.7473	-0.319
Mof_F 	F 	0.5038	0.2943	0.6927	-0.374
Mof_F 	F 	0.5691	0.253	0.7549	-0.323
Mof_F 	F 	0.0984	0.2596	0.5789	-0.378
Mof_F 	F 	0.1636	0.3054	0.6393	-0.325
Mof_F 	F 	0.2003	0.2564	0.5978	-0.359
Mof_F 	F 	0.161	0.341	0.7517	-0.497
Mof_F 	F 	0.1494	0.2625	0.7591	-0.313
Mof_F 	F 	0.1969	0.3071	0.7061	-0.27
Mof_F 	F 	0.5263	0.9949	0.8971	-0.535
Mof_F 	F 	0.4934	0.0307	0.9381	-0.34
Mof_F 	F 	0.4959	0.9378	0.922	-0.347
Mof_F 	F 	0.3721	0.1427	0.9617	-0.39
Mof_F 	F 	0.3064	0.1104	0.9049	-0.397
Mof_F 	F 	0.4132	0.1043	0.9203	-0.368
Mof_O 	O 	0.4577	0.03208	0.69759	-0.469
Mof_O 	O 	0.3911	0.08115	0.65002	-0.434
Mof_O 	O 	0.7094	0.4127	0.6825	-0.434
Mof_O 	O 	0.7664	0.36551	0.65236	-0.474
Mof_O 	O 	0.2523	0.083	0.63172	-0.455
Mof_O 	O 	0.2066	0.0363	0.67004	-0.463
Mof_O 	O 	0.9566	0.41173	0.6969	-0.469
Mof_O 	O 	0.8913	0.3765	0.6402	-0.456
Mof_O 	O 	0.2955	0.9839	0.74179	-0.446
Mof_O 	O 	0.3978	0.97343	0.75557	-0.47
Mof_O 	O 	0.3171	0.9633	0.06988	-0.446
Mof_O 	O 	0.3384	0.0477	0.07287	-0.456
Mof_O 	O 	0.32586	0.97416	0.65778	-0.929
Mof_N 	N 	0.2822	0.8532	0.5729	-0.243
Mof_C 	C 	0.443	0.0709	0.6752	0.473
Mof_C 	C 	0.4931	0.1111	0.679	-0.164
Mof_C 	C 	0.5491	0.1087	0.7088	0.221
Mof_H 	H 	0.5576	0.0807	0.7271	0.015
Mof_C 	C 	0.5938	0.1475	0.7123	-0.248
Mof_C 	C 	0.5828	0.1897	0.686	0.198
Mof_C 	C 	0.5249	0.1906	0.6544	-0.144
Mof_H 	H 	0.5165	0.218	0.6356	0.163
Mof_C 	C 	0.4809	0.1521	0.6506	0.172
Mof_H 	H 	0.4435	0.1534	0.6294	0.064
Mof_C 	C 	0.6548	0.1431	0.7435	0.896
Mof_C 	C 	0.6247	0.2339	0.6865	0.121
Mof_C 	C 	0.6176	0.2802	0.7057	-0.096
Mof_C 	C 	0.6535	0.3233	0.6994	0.135
Mof_H 	H 	0.6493	0.3548	0.7119	0.097
Mof_C 	C 	0.6927	0.3215	0.677	-0.101
Mof_C 	C 	0.7019	0.275	0.6599	0.126
Mof_H 	H 	0.7306	0.2721	0.6453	0.062
Mof_C 	C 	0.6665	0.232	0.665	-0.104
Mof_H 	H 	0.672	0.2005	0.653	0.166
Mof_C 	C 	0.7283	0.369	0.6697	0.437
Mof_C 	C 	0.5625	0.2903	0.7212	0.707
Mof_C 	C 	0.217	0.0775	0.6539	0.458
Mof_C 	C 	0.1797	0.1235	0.6592	-0.15
Mof_C 	C 	0.1844	0.1698	0.6403	0.152
Mof_H 	H 	0.2098	0.1716	0.6233	0.088
Mof_C 	C 	0.1532	0.2133	0.6456	-0.097
Mof_C 	C 	0.113	0.2117	0.6684	0.12
Mof_C 	C 	0.1093	0.1657	0.6896	-0.171
Mof_C 	C 	0.1431	0.1229	0.6833	0.205
Mof_H 	H 	0.14	0.0919	0.6969	0.072
Mof_C 	C 	0.1515	0.2588	0.614	0.742
Mof_C 	C 	0.0725	0.2573	0.6705	0.291
Mof_C 	C 	0.0849	0.296	0.6993	-0.418
Mof_C 	C 	0.0444	0.335	0.6991	0.368
Mof_H 	H 	0.0556	0.3614	0.7187	-0.024
Mof_C 	C 	0.9866	0.3361	0.6699	-0.253
Mof_C 	C 	0.9724	0.2987	0.6401	0.257
Mof_H 	H 	0.9346	0.3002	0.6193	0.001
Mof_C 	C 	0.0143	0.2579	0.6403	-0.225
Mof_H 	H 	0.0035	0.2315	0.6206	0.178
Mof_C 	C 	0.9402	0.378	0.6689	0.508
Mof_C 	C 	0.1468	0.2987	0.7268	1.136
Mof_C 	C 	0.3493	0.981	0.7655	0.49
Mof_C 	C 	0.3564	0.9861	0.8105	-0.205
Mof_C 	C 	0.4144	0.9829	0.8401	0.32
Mof_H 	H 	0.4502	0.9779	0.8323	-0.014
Mof_C 	C 	0.418	0.9872	0.8808	-0.388
Mof_C 	C 	0.3661	0.9935	0.8941	0.265
Mof_C 	C 	0.3087	0.0015	0.8642	-0.174
Mof_H 	H 	0.274	0.0102	0.8722	0.183
Mof_C 	C 	0.3033	0.9966	0.8218	0.206
Mof_H 	H 	0.2649	0.0003	0.8019	0.055
Mof_C 	C 	0.4782	0.9887	0.9111	1.201
Mof_C 	C 	0.3633	0.9959	0.9376	0.21
Mof_C 	C 	0.3647	0.0442	0.9567	-0.169
Mof_C 	C 	0.3579	0.0456	0.996	0.194
Mof_H 	H 	0.3621	0.0773	0.0098	0.06
Mof_C 	C 	0.3451	0.0015	0.015	-0.142
Mof_C 	C 	0.3441	0.9546	0.9954	0.185
Mof_H 	H 	0.336	0.924	0.0076	0.071
Mof_C 	C 	0.3554	0.9528	0.9564	-0.21
Mof_C 	C 	0.3332	0.0051	0.0553	0.452
Mof_C 	C 	0.3635	0.0963	0.9374	0.714
Mof_C 	C 	0.3254	0.8294	0.5608	0.129
Mof_H 	H 	0.3666	0.8395	0.5725	0.04
Mof_C 	C 	0.3123	0.7897	0.5311	-0.142
Mof_H 	H 	0.3445	0.776	0.5224	0.135
Mof_C 	C 	0.2566	0.7714	0.5155	0.113
Mof_C 	C 	0.2148	0.7958	0.5287	-0.145
Mof_H 	H 	0.1733	0.7884	0.5151	0.119
Mof_C 	C 	0.2267	0.8312	0.5607	0.12
Mof_H 	H 	0.1965	0.8394	0.5733	-0.005
Mof_F 	F 	0.1888	0.2726	0.7364	-0.463
Mof_F 	F 	0.4872	0.9785	0.9454	-0.438
Mof_F 	F 	0.35	0.858	0.9646	-0.305
Mof_F 	F 	0.2748	0.9088	0.9046	-0.353
Mof_F 	F 	0.3814	0.8858	0.9219	-0.289
Mof_C 	C 	0.3344	0.907	0.94	0.679
Mof_F 	F 	0.0679	0.1182	0.732	-0.324
Mof_F 	F 	0.074	0.1944	0.7449	-0.408
Mof_F 	F 	0.0025	0.1483	0.6884	-0.358
Mof_C 	C 	0.0636	0.1681	0.7124	0.803
Mof_Zn	Zn	0.90536	0.47129	0.69975	1.234
Mof_Zn	Zn	0.8187	0.53676	0.62655	1.226
Mof_Zn	Zn	0.75955	0.47377	0.6822	1.22
Mof_Zn	Zn	0.80672	0.41364	0.61722	1.202
Mof_F 	F 	0.1595	0.6024	0.76994	-0.503
Mof_F 	F 	0.2028	0.6343	0.7276	-0.43
Mof_F 	F 	0.1729	0.6851	0.7666	-0.413
Mof_F 	F 	0.0734	0.837	0.7473	-0.319
Mof_F 	F 	0.0038	0.7943	0.6927	-0.374
Mof_F 	F 	0.0691	0.753	0.7549	-0.323
Mof_F 	F 	0.5984	0.7596	0.5789	-0.378
Mof_F 	F 	0.6636	0.8054	0.6393	-0.325
Mof_F 	F 	0.7003	0.7564	0.5978	-0.359
Mof_F 	F 	0.661	0.841	0.7517	-0.497
Mof_F 	F 	0.6494	0.7625	0.7591	-0.313
Mof_F 	F 	0.6969	0.8071	0.7061	-0.27
Mof_F 	F 	0.0263	0.4949	0.8971	-0.536
Mof_F 	F 	0.9934	0.5307	0.9381	-0.341
Mof_F 	F 	0.9959	0.4378	0.922	-0.347
Mof_F 	F 	0.8721	0.6427	0.9617	-0.39
Mof_F 	F 	0.8064	0.6104	0.9049	-0.397
Mof_F 	F 	0.9132	0.6043	0.9203	-0.368
Mof_O 	O 	0.9577	0.53208	0.69759	-0.469
Mof_O 	O 	0.8911	0.58115	0.65002	-0.435
Mof_O 	O 	0.2094	0.9127	0.6825	-0.433
Mof_O 	O 	0.2664	0.86551	0.65236	-0.474
Mof_O 	O 	0.7523	0.583	0.63172	-0.455
Mof_O 	O 	0.7066	0.5363	0.67004	-0.464
Mof_O 	O 	0.4566	0.91173	0.6969	-0.469
Mof_O 	O 	0.3913	0.8765	0.6402	-0.456
Mof_O 	O 	0.7955	0.4839	0.74179	-0.446
Mof_O 	O 	0.8978	0.47343	0.75557	-0.47
Mof_O 	O 	0.8171	0.4633	0.06988	-0.447
Mof_O 	O 	0.8384	0.5477	0.07287	-0.456
Mof_O 	O 	0.82586	0.47416	0.65778	-0.929
Mof_N 	N 	0.7822	0.3532	0.5729	-0.243
Mof_C 	C 	0.943	0.5709	0.6752	0.473
Mof_C 	C 	0.9931	0.6111	0.679	-0.165
Mof_C 	C 	0.0491	0.6087	0.7088	0.221
Mof_H 	H 	0.0576	0.5807	0.7271	0.015
Mof_C 	C 	0.0938	0.6475	0.7123	-0.248
Mof_C 	C 	0.0828	0.6897	0.686	0.198
Mof_C 	C 	0.0249	0.6906	0.6544	-0.144
Mof_H 	H 	0.0165	0.718	0.6356	0.163
Mof_C 	C 	0.9809	0.6521	0.6506	0.172
Mof_H 	H 	0.9435	0.6534	0.6294	0.064
Mof_C 	C 	0.1548	0.6431	0.7435	0.896
Mof_C 	C 	0.1247	0.7339	0.6865	0.121
Mof_C 	C 	0.1176	0.7802	0.7057	-0.096
Mof_C 	C 	0.1535	0.8233	0.6994	0.135
Mof_H 	H 	0.1493	0.8548	0.7119	0.097
Mof_C 	C 	0.1927	0.8215	0.677	-0.101
Mof_C 	C 	0.2019	0.775	0.6599	0.126
Mof_H 	H 	0.2306	0.7721	0.6453	0.062
Mof_C 	C 	0.1665	0.732	0.665	-0.104
Mof_H 	H 	0.172	0.7005	0.653	0.166
Mof_C 	C 	0.2283	0.869	0.6697	0.437
Mof_C 	C 	0.0625	0.7903	0.7212	0.707
Mof_C 	C 	0.717	0.5775	0.6539	0.458
Mof_C 	C 	0.6797	0.6235	0.6592	-0.151
Mof_C 	C 	0.6844	0.6698	0.6403	0.152
Mof_H 	H 	0.7098	0.6716	0.6233	0.088
Mof_C 	C 	0.6532	0.7133	0.6456	-0.097
Mof_C 	C 	0.613	0.7117	0.6684	0.12
Mof_C 	C 	0.6093	0.6657	0.6896	-0.171
Mof_C 	C 	0.6431	0.6229	0.6833	0.205
Mof_H 	H 	0.64	0.5919	0.6969	0.072
Mof_C 	C 	0.6515	0.7588	0.614	0.742
Mof_C 	C 	0.5725	0.7573	0.6705	0.291
Mof_C 	C 	0.5849	0.796	0.6993	-0.418
Mof_C 	C 	0.5444	0.835	0.6991	0.368
Mof_H 	H 	0.5556	0.8614	0.7187	-0.024
Mof_C 	C 	0.4866	0.8361	0.6699	-0.253
Mof_C 	C 	0.4724	0.7987	0.6401	0.257
Mof_H 	H 	0.4346	0.8002	0.6193	0.001
Mof_C 	C 	0.5143	0.7579	0.6403	-0.224
Mof_H 	H 	0.5035	0.7315	0.6206	0.178
Mof_C 	C 	0.4402	0.878	0.6689	0.508
Mof_C 	C 	0.6468	0.7987	0.7268	1.136
Mof_C 	C 	0.8493	0.481	0.7655	0.491
Mof_C 	C 	0.8564	0.4861	0.8105	-0.207
Mof_C 	C 	0.9144	0.4829	0.8401	0.321
Mof_H 	H 	0.9502	0.4779	0.8323	-0.014
Mof_C 	C 	0.918	0.4872	0.8808	-0.39
Mof_C 	C 	0.8661	0.4935	0.8941	0.267
Mof_C 	C 	0.8087	0.5015	0.8642	-0.177
Mof_H 	H 	0.774	0.5102	0.8722	0.184
Mof_C 	C 	0.8033	0.4966	0.8218	0.209
Mof_H 	H 	0.7649	0.5003	0.8019	0.053
Mof_C 	C 	0.9782	0.4887	0.9111	1.201
Mof_C 	C 	0.8633	0.4959	0.9376	0.209
Mof_C 	C 	0.8647	0.5442	0.9567	-0.168
Mof_C 	C 	0.8579	0.5456	0.996	0.192
Mof_H 	H 	0.8621	0.5773	0.0098	0.061
Mof_C 	C 	0.8451	0.5015	0.015	-0.142
Mof_C 	C 	0.8441	0.4546	0.9954	0.186
Mof_H 	H 	0.836	0.424	0.0076	0.07
Mof_C 	C 	0.8554	0.4528	0.9564	-0.211
Mof_C 	C 	0.8332	0.5051	0.0553	0.452
Mof_C 	C 	0.8635	0.5963	0.9374	0.714
Mof_C 	C 	0.8254	0.3294	0.5608	0.129
Mof_H 	H 	0.8666	0.3395	0.5725	0.04
Mof_C 	C 	0.8123	0.2897	0.5311	-0.142
Mof_H 	H 	0.8445	0.276	0.5224	0.135
Mof_C 	C 	0.7566	0.2714	0.5155	0.113
Mof_C 	C 	0.7148	0.2958	0.5287	-0.145
Mof_H 	H 	0.6733	0.2884	0.5151	0.119
Mof_C 	C 	0.7267	0.3312	0.5607	0.12
Mof_H 	H 	0.6965	0.3394	0.5733	-0.005
Mof_F 	F 	0.6888	0.7726	0.7364	-0.463
Mof_F 	F 	0.9872	0.4785	0.9454	-0.438
Mof_F 	F 	0.85	0.358	0.9646	-0.305
Mof_F 	F 	0.7748	0.4088	0.9046	-0.353
Mof_F 	F 	0.8814	0.3858	0.9219	-0.289
Mof_C 	C 	0.8344	0.407	0.94	0.679
Mof_F 	F 	0.5679	0.6182	0.732	-0.324
Mof_F 	F 	0.574	0.6944	0.7449	-0.408
Mof_F 	F 	0.5025	0.6483	0.6884	-0.357
Mof_C 	C 	0.5636	0.6681	0.7124	0.803
_end
