data_functionalizedCrystal
_audit_creation_method	'EQeq! by Chris Wilmer'
_symmetry_space_group_name_H-M	'P1'
_symmetry_Int_Tables_number	1
_symmetry_cell_setting	triclinic
loop_
_symmetry_equiv_pos_as_xyz
  x,y,z
_cell_length_a	33.137
_cell_length_b	9.7145
_cell_length_c	27.314
_cell_angle_alpha	90
_cell_angle_beta	107.642
_cell_angle_gamma	90
loop_
_atom_site_label
_atom_site_type_symbol
_atom_site_fract_x
_atom_site_fract_y
_atom_site_fract_z
_atom_site_charge
Mof_Tb	Tb	0.05228	0.11314	0.50238	1.975
Mof_C 	C 	0.37642	0.1146	0.7176	0.095
Mof_N 	N 	0.3409	0.9813	0.62906	-0.143
Mof_N 	N 	0.33419	0.1211	0.69799	-0.14
Mof_C 	C 	0.31809	0.0524	0.65359	0.103
Mof_N 	N 	0.40183	0.0497	0.69557	-0.143
Mof_C 	C 	0.38248	0.9845	0.6517	0.095
Mof_O 	O 	0.11825	0.1799	0.56719	-0.432
Mof_O 	O 	0.47755	0.5966	0.52943	-0.598
Mof_O 	O 	0.52448	0.7618	0.55432	-0.486
Mof_O 	O 	0.12095	0.0015	0.51977	-0.446
Mof_C 	C 	0.13832	0.0854	0.55488	0.333
Mof_C 	C 	0.46147	0.7801	0.57813	-0.182
Mof_C 	C 	0.48944	0.7082	0.55206	0.464
Mof_C 	C 	0.39362	0.8101	0.5909	-0.132
Mof_H 	H 	0.3645	0.7867	0.5827	0.078
Mof_C 	C 	0.27171	0.0575	0.62978	0.024
Mof_C 	C 	0.18476	0.0709	0.58212	-0.09
Mof_C 	C 	0.41913	0.7409	0.5677	0.074
Mof_H 	H 	0.408	0.667	0.5447	-0.003
Mof_C 	C 	0.47754	0.8848	0.6123	0.069
Mof_H 	H 	0.5062	0.9123	0.6189	0.017
Mof_C 	C 	0.24725	0.1433	0.6485	-0.083
Mof_H 	H 	0.2599	0.1976	0.6781	0.067
Mof_O 	O 	0.43968	0.475	0.92443	-0.507
Mof_O 	O 	0.49186	0.3211	0.93705	-0.559
Mof_C 	C 	0.45731	0.375	0.91192	0.511
Mof_C 	C 	0.39431	0.3415	0.83341	0.081
Mof_H 	H 	0.3795	0.4086	0.8466	0.019
Mof_C 	C 	0.20363	0.1516	0.6243	0.016
Mof_H 	H 	0.1869	0.2132	0.6371	0.041
Mof_C 	C 	0.41004	0.9128	0.6257	0.048
Mof_C 	C 	0.43561	0.3073	0.86082	-0.184
Mof_C 	C 	0.25292	0.9739	0.5878	-0.082
Mof_H 	H 	0.2698	0.9125	0.5753	0.064
Mof_C 	C 	0.20939	0.9796	0.5639	0.015
Mof_H 	H 	0.1965	0.9219	0.5353	0.035
Mof_C 	C 	0.45253	0.9498	0.637	-0.13
Mof_H 	H 	0.4641	0.0196	0.6616	0.071
Mof_C 	C 	0.37461	0.2781	0.7868	-0.125
Mof_H 	H 	0.3461	0.3004	0.7685	0.081
Mof_C 	C 	0.45708	0.2093	0.8419	0.086
Mof_H 	H 	0.4852	0.1845	0.861	-0.005
Mof_C 	C 	0.39625	0.1829	0.767	0.055
Mof_C 	C 	0.43777	0.1473	0.7952	-0.13
Mof_H 	H 	0.4527	0.0803	0.7821	0.078
Mof_Tb	Tb	0.55228	0.61314	0.50238	1.976
Mof_C 	C 	0.87642	0.6146	0.7176	0.096
Mof_N 	N 	0.8409	0.4813	0.62906	-0.144
Mof_N 	N 	0.83419	0.6211	0.69799	-0.14
Mof_C 	C 	0.81809	0.5524	0.65359	0.104
Mof_N 	N 	0.90183	0.5497	0.69557	-0.143
Mof_C 	C 	0.88248	0.4845	0.6517	0.094
Mof_O 	O 	0.61825	0.6799	0.56719	-0.432
Mof_O 	O 	0.97755	0.0966	0.52943	-0.598
Mof_O 	O 	0.02448	0.2618	0.55432	-0.486
Mof_O 	O 	0.62095	0.5015	0.51977	-0.445
Mof_C 	C 	0.63832	0.5854	0.55488	0.333
Mof_C 	C 	0.96147	0.2801	0.57813	-0.182
Mof_C 	C 	0.98944	0.2082	0.55206	0.464
Mof_C 	C 	0.89362	0.3101	0.5909	-0.133
Mof_H 	H 	0.8645	0.2867	0.5827	0.079
Mof_C 	C 	0.77171	0.5575	0.62978	0.024
Mof_C 	C 	0.68476	0.5709	0.58212	-0.09
Mof_C 	C 	0.91913	0.2409	0.5677	0.074
Mof_H 	H 	0.908	0.167	0.5447	-0.003
Mof_C 	C 	0.97754	0.3848	0.6123	0.07
Mof_H 	H 	0.0062	0.4123	0.6189	0.016
Mof_C 	C 	0.74725	0.6433	0.6485	-0.083
Mof_H 	H 	0.7599	0.6976	0.6781	0.067
Mof_O 	O 	0.93968	0.975	0.92443	-0.506
Mof_O 	O 	0.99186	0.8211	0.93705	-0.559
Mof_C 	C 	0.95731	0.875	0.91192	0.51
Mof_C 	C 	0.89431	0.8415	0.83341	0.081
Mof_H 	H 	0.8795	0.9086	0.8466	0.02
Mof_C 	C 	0.70363	0.6516	0.6243	0.016
Mof_H 	H 	0.6869	0.7132	0.6371	0.041
Mof_C 	C 	0.91004	0.4128	0.6257	0.049
Mof_C 	C 	0.93561	0.8073	0.86082	-0.184
Mof_C 	C 	0.75292	0.4739	0.5878	-0.083
Mof_H 	H 	0.7698	0.4125	0.5753	0.064
Mof_C 	C 	0.70939	0.4796	0.5639	0.014
Mof_H 	H 	0.6965	0.4219	0.5353	0.035
Mof_C 	C 	0.95253	0.4498	0.637	-0.132
Mof_H 	H 	0.9641	0.5196	0.6616	0.072
Mof_C 	C 	0.87461	0.7781	0.7868	-0.125
Mof_H 	H 	0.8461	0.8004	0.7685	0.081
Mof_C 	C 	0.95708	0.7093	0.8419	0.086
Mof_H 	H 	0.9852	0.6845	0.861	-0.005
Mof_C 	C 	0.89625	0.6829	0.767	0.055
Mof_C 	C 	0.93777	0.6473	0.7952	-0.129
Mof_H 	H 	0.9527	0.5803	0.7821	0.078
Mof_Tb	Tb	0.94772	0.11314	0.99762	1.977
Mof_C 	C 	0.62358	0.1146	0.7824	0.096
Mof_N 	N 	0.6591	0.9813	0.87094	-0.143
Mof_N 	N 	0.66581	0.1211	0.80201	-0.14
Mof_C 	C 	0.68191	0.0524	0.84641	0.103
Mof_N 	N 	0.59817	0.0497	0.80443	-0.143
Mof_C 	C 	0.61752	0.9845	0.8483	0.095
Mof_O 	O 	0.88175	0.1799	0.93281	-0.432
Mof_O 	O 	0.52245	0.5966	0.97057	-0.598
Mof_O 	O 	0.47552	0.7618	0.94568	-0.486
Mof_O 	O 	0.87905	0.0015	0.98023	-0.446
Mof_C 	C 	0.86168	0.0854	0.94512	0.333
Mof_C 	C 	0.53853	0.7801	0.92187	-0.182
Mof_C 	C 	0.51056	0.7082	0.94794	0.464
Mof_C 	C 	0.60638	0.8101	0.9091	-0.132
Mof_H 	H 	0.6355	0.7867	0.9173	0.079
Mof_C 	C 	0.72829	0.0575	0.87022	0.024
Mof_C 	C 	0.81524	0.0709	0.91788	-0.091
Mof_C 	C 	0.58087	0.7409	0.9323	0.074
Mof_H 	H 	0.592	0.667	0.9553	-0.003
Mof_C 	C 	0.52246	0.8848	0.8877	0.069
Mof_H 	H 	0.4938	0.9123	0.8811	0.017
Mof_C 	C 	0.75275	0.1433	0.8515	-0.083
Mof_H 	H 	0.7401	0.1976	0.8219	0.067
Mof_O 	O 	0.56032	0.475	0.57557	-0.506
Mof_O 	O 	0.50814	0.3211	0.56295	-0.559
Mof_C 	C 	0.54269	0.375	0.58808	0.51
Mof_C 	C 	0.60569	0.3415	0.66659	0.081
Mof_H 	H 	0.6205	0.4086	0.6534	0.019
Mof_C 	C 	0.79637	0.1516	0.8757	0.016
Mof_H 	H 	0.8131	0.2132	0.8629	0.041
Mof_C 	C 	0.58996	0.9128	0.8743	0.048
Mof_C 	C 	0.56439	0.3073	0.63918	-0.184
Mof_C 	C 	0.74708	0.9739	0.9122	-0.082
Mof_H 	H 	0.7302	0.9125	0.9247	0.064
Mof_C 	C 	0.79061	0.9796	0.9361	0.016
Mof_H 	H 	0.8035	0.9219	0.9647	0.035
Mof_C 	C 	0.54747	0.9498	0.863	-0.13
Mof_H 	H 	0.5359	0.0196	0.8384	0.071
Mof_C 	C 	0.62539	0.2781	0.7132	-0.125
Mof_H 	H 	0.6539	0.3004	0.7315	0.081
Mof_C 	C 	0.54292	0.2093	0.6581	0.086
Mof_H 	H 	0.5148	0.1845	0.639	-0.005
Mof_C 	C 	0.60375	0.1829	0.733	0.055
Mof_C 	C 	0.56223	0.1473	0.7048	-0.13
Mof_H 	H 	0.5473	0.0803	0.7179	0.078
Mof_Tb	Tb	0.44772	0.61314	0.99762	1.979
Mof_C 	C 	0.12358	0.6146	0.7824	0.097
Mof_N 	N 	0.1591	0.4813	0.87094	-0.143
Mof_N 	N 	0.16581	0.6211	0.80201	-0.14
Mof_C 	C 	0.18191	0.5524	0.84641	0.104
Mof_N 	N 	0.09817	0.5497	0.80443	-0.142
Mof_C 	C 	0.11752	0.4845	0.8483	0.094
Mof_O 	O 	0.38175	0.6799	0.93281	-0.432
Mof_O 	O 	0.02245	0.0966	0.97057	-0.598
Mof_O 	O 	0.97552	0.2618	0.94568	-0.486
Mof_O 	O 	0.37905	0.5015	0.98023	-0.445
Mof_C 	C 	0.36168	0.5854	0.94512	0.333
Mof_C 	C 	0.03853	0.2801	0.92187	-0.183
Mof_C 	C 	0.01056	0.2082	0.94794	0.465
Mof_C 	C 	0.10638	0.3101	0.9091	-0.133
Mof_H 	H 	0.1355	0.2867	0.9173	0.079
Mof_C 	C 	0.22829	0.5575	0.87022	0.025
Mof_C 	C 	0.31524	0.5709	0.91788	-0.09
Mof_C 	C 	0.08087	0.2409	0.9323	0.075
Mof_H 	H 	0.092	0.167	0.9553	-0.003
Mof_C 	C 	0.02246	0.3848	0.8877	0.072
Mof_H 	H 	0.9938	0.4123	0.8811	0.015
Mof_C 	C 	0.25275	0.6433	0.8515	-0.083
Mof_H 	H 	0.2401	0.6976	0.8219	0.067
Mof_O 	O 	0.06032	0.975	0.57557	-0.506
Mof_O 	O 	0.00814	0.8211	0.56295	-0.559
Mof_C 	C 	0.04269	0.875	0.58808	0.51
Mof_C 	C 	0.10569	0.8415	0.66659	0.081
Mof_H 	H 	0.1205	0.9086	0.6534	0.019
Mof_C 	C 	0.29637	0.6516	0.8757	0.016
Mof_H 	H 	0.3131	0.7132	0.8629	0.041
Mof_C 	C 	0.08996	0.4128	0.8743	0.05
Mof_C 	C 	0.06439	0.8073	0.63918	-0.184
Mof_C 	C 	0.24708	0.4739	0.9122	-0.082
Mof_H 	H 	0.2302	0.4125	0.9247	0.064
Mof_C 	C 	0.29061	0.4796	0.9361	0.014
Mof_H 	H 	0.3035	0.4219	0.9647	0.035
Mof_C 	C 	0.04747	0.4498	0.863	-0.133
Mof_H 	H 	0.0359	0.5196	0.8384	0.073
Mof_C 	C 	0.12539	0.7781	0.7132	-0.125
Mof_H 	H 	0.1539	0.8004	0.7315	0.081
Mof_C 	C 	0.04292	0.7093	0.6581	0.086
Mof_H 	H 	0.0148	0.6845	0.639	-0.005
Mof_C 	C 	0.10375	0.6829	0.733	0.055
Mof_C 	C 	0.06223	0.6473	0.7048	-0.129
Mof_H 	H 	0.0473	0.5803	0.7179	0.079
Mof_Tb	Tb	0.94772	0.88686	0.49762	1.976
Mof_C 	C 	0.62358	0.8854	0.2824	0.096
Mof_N 	N 	0.6591	0.0187	0.37094	-0.143
Mof_N 	N 	0.66581	0.8789	0.30201	-0.14
Mof_C 	C 	0.68191	0.9476	0.34641	0.103
Mof_N 	N 	0.59817	0.9503	0.30443	-0.143
Mof_C 	C 	0.61752	0.0155	0.3483	0.095
Mof_O 	O 	0.88175	0.8201	0.43281	-0.432
Mof_O 	O 	0.52245	0.4034	0.47057	-0.598
Mof_O 	O 	0.47552	0.2382	0.44568	-0.486
Mof_O 	O 	0.87905	0.9985	0.48023	-0.446
Mof_C 	C 	0.86168	0.9146	0.44512	0.333
Mof_C 	C 	0.53853	0.2199	0.42187	-0.182
Mof_C 	C 	0.51056	0.2918	0.44794	0.464
Mof_C 	C 	0.60638	0.1899	0.4091	-0.132
Mof_H 	H 	0.6355	0.2133	0.4173	0.078
Mof_C 	C 	0.72829	0.9425	0.37022	0.024
Mof_C 	C 	0.81524	0.9291	0.41788	-0.09
Mof_C 	C 	0.58087	0.2591	0.4323	0.074
Mof_H 	H 	0.592	0.333	0.4553	-0.003
Mof_C 	C 	0.52246	0.1152	0.3877	0.069
Mof_H 	H 	0.4938	0.0877	0.3811	0.017
Mof_C 	C 	0.75275	0.8567	0.3515	-0.083
Mof_H 	H 	0.7401	0.8024	0.3219	0.067
Mof_O 	O 	0.56032	0.525	0.07557	-0.507
Mof_O 	O 	0.50814	0.6789	0.06295	-0.559
Mof_C 	C 	0.54269	0.625	0.08808	0.511
Mof_C 	C 	0.60569	0.6585	0.16659	0.081
Mof_H 	H 	0.6205	0.5914	0.1534	0.019
Mof_C 	C 	0.79637	0.8484	0.3757	0.016
Mof_H 	H 	0.8131	0.7868	0.3629	0.041
Mof_C 	C 	0.58996	0.0872	0.3743	0.048
Mof_C 	C 	0.56439	0.6927	0.13918	-0.184
Mof_C 	C 	0.74708	0.0261	0.4122	-0.082
Mof_H 	H 	0.7302	0.0875	0.4247	0.064
Mof_C 	C 	0.79061	0.0204	0.4361	0.015
Mof_H 	H 	0.8035	0.0781	0.4647	0.035
Mof_C 	C 	0.54747	0.0502	0.363	-0.13
Mof_H 	H 	0.5359	0.9804	0.3384	0.071
Mof_C 	C 	0.62539	0.7219	0.2132	-0.125
Mof_H 	H 	0.6539	0.6996	0.2315	0.081
Mof_C 	C 	0.54292	0.7907	0.1581	0.086
Mof_H 	H 	0.5148	0.8155	0.139	-0.005
Mof_C 	C 	0.60375	0.8171	0.233	0.055
Mof_C 	C 	0.56223	0.8527	0.2048	-0.13
Mof_H 	H 	0.5473	0.9197	0.2179	0.078
Mof_Tb	Tb	0.44772	0.38686	0.49762	1.976
Mof_C 	C 	0.12358	0.3854	0.2824	0.096
Mof_N 	N 	0.1591	0.5187	0.37094	-0.144
Mof_N 	N 	0.16581	0.3789	0.30201	-0.14
Mof_C 	C 	0.18191	0.4476	0.34641	0.104
Mof_N 	N 	0.09817	0.4503	0.30443	-0.143
Mof_C 	C 	0.11752	0.5155	0.3483	0.094
Mof_O 	O 	0.38175	0.3201	0.43281	-0.432
Mof_O 	O 	0.02245	0.9034	0.47057	-0.598
Mof_O 	O 	0.97552	0.7382	0.44568	-0.486
Mof_O 	O 	0.37905	0.4985	0.48023	-0.445
Mof_C 	C 	0.36168	0.4146	0.44512	0.333
Mof_C 	C 	0.03853	0.7199	0.42187	-0.182
Mof_C 	C 	0.01056	0.7918	0.44794	0.464
Mof_C 	C 	0.10638	0.6899	0.4091	-0.133
Mof_H 	H 	0.1355	0.7133	0.4173	0.079
Mof_C 	C 	0.22829	0.4425	0.37022	0.024
Mof_C 	C 	0.31524	0.4291	0.41788	-0.09
Mof_C 	C 	0.08087	0.7591	0.4323	0.074
Mof_H 	H 	0.092	0.833	0.4553	-0.003
Mof_C 	C 	0.02246	0.6152	0.3877	0.07
Mof_H 	H 	0.9938	0.5877	0.3811	0.016
Mof_C 	C 	0.25275	0.3567	0.3515	-0.083
Mof_H 	H 	0.2401	0.3024	0.3219	0.067
Mof_O 	O 	0.06032	0.025	0.07557	-0.506
Mof_O 	O 	0.00814	0.1789	0.06295	-0.559
Mof_C 	C 	0.04269	0.125	0.08808	0.51
Mof_C 	C 	0.10569	0.1585	0.16659	0.081
Mof_H 	H 	0.1205	0.0914	0.1534	0.02
Mof_C 	C 	0.29637	0.3484	0.3757	0.016
Mof_H 	H 	0.3131	0.2868	0.3629	0.041
Mof_C 	C 	0.08996	0.5872	0.3743	0.049
Mof_C 	C 	0.06439	0.1927	0.13918	-0.184
Mof_C 	C 	0.24708	0.5261	0.4122	-0.083
Mof_H 	H 	0.2302	0.5875	0.4247	0.064
Mof_C 	C 	0.29061	0.5204	0.4361	0.014
Mof_H 	H 	0.3035	0.5781	0.4647	0.035
Mof_C 	C 	0.04747	0.5502	0.363	-0.132
Mof_H 	H 	0.0359	0.4804	0.3384	0.072
Mof_C 	C 	0.12539	0.2219	0.2132	-0.125
Mof_H 	H 	0.1539	0.1996	0.2315	0.081
Mof_C 	C 	0.04292	0.2907	0.1581	0.086
Mof_H 	H 	0.0148	0.3155	0.139	-0.005
Mof_C 	C 	0.10375	0.3171	0.233	0.055
Mof_C 	C 	0.06223	0.3527	0.2048	-0.129
Mof_H 	H 	0.0473	0.4197	0.2179	0.078
Mof_Tb	Tb	0.05228	0.88686	0.00238	1.977
Mof_C 	C 	0.37642	0.8854	0.2176	0.096
Mof_N 	N 	0.3409	0.0187	0.12906	-0.143
Mof_N 	N 	0.33419	0.8789	0.19799	-0.14
Mof_C 	C 	0.31809	0.9476	0.15359	0.103
Mof_N 	N 	0.40183	0.9503	0.19557	-0.143
Mof_C 	C 	0.38248	0.0155	0.1517	0.095
Mof_O 	O 	0.11825	0.8201	0.06719	-0.432
Mof_O 	O 	0.47755	0.4034	0.02943	-0.598
Mof_O 	O 	0.52448	0.2382	0.05432	-0.486
Mof_O 	O 	0.12095	0.9985	0.01977	-0.446
Mof_C 	C 	0.13832	0.9146	0.05488	0.333
Mof_C 	C 	0.46147	0.2199	0.07813	-0.182
Mof_C 	C 	0.48944	0.2918	0.05206	0.464
Mof_C 	C 	0.39362	0.1899	0.0909	-0.132
Mof_H 	H 	0.3645	0.2133	0.0827	0.079
Mof_C 	C 	0.27171	0.9425	0.12978	0.024
Mof_C 	C 	0.18476	0.9291	0.08212	-0.091
Mof_C 	C 	0.41913	0.2591	0.0677	0.074
Mof_H 	H 	0.408	0.333	0.0447	-0.003
Mof_C 	C 	0.47754	0.1152	0.1123	0.069
Mof_H 	H 	0.5062	0.0877	0.1189	0.017
Mof_C 	C 	0.24725	0.8567	0.1485	-0.083
Mof_H 	H 	0.2599	0.8024	0.1781	0.067
Mof_O 	O 	0.43968	0.525	0.42443	-0.506
Mof_O 	O 	0.49186	0.6789	0.43705	-0.559
Mof_C 	C 	0.45731	0.625	0.41192	0.51
Mof_C 	C 	0.39431	0.6585	0.33341	0.081
Mof_H 	H 	0.3795	0.5914	0.3466	0.019
Mof_C 	C 	0.20363	0.8484	0.1243	0.016
Mof_H 	H 	0.1869	0.7868	0.1371	0.041
Mof_C 	C 	0.41004	0.0872	0.1257	0.048
Mof_C 	C 	0.43561	0.6927	0.36082	-0.184
Mof_C 	C 	0.25292	0.0261	0.0878	-0.082
Mof_H 	H 	0.2698	0.0875	0.0753	0.064
Mof_C 	C 	0.20939	0.0204	0.0639	0.016
Mof_H 	H 	0.1965	0.0781	0.0353	0.035
Mof_C 	C 	0.45253	0.0502	0.137	-0.13
Mof_H 	H 	0.4641	0.9804	0.1616	0.071
Mof_C 	C 	0.37461	0.7219	0.2868	-0.125
Mof_H 	H 	0.3461	0.6996	0.2685	0.081
Mof_C 	C 	0.45708	0.7907	0.3419	0.086
Mof_H 	H 	0.4852	0.8155	0.361	-0.005
Mof_C 	C 	0.39625	0.8171	0.267	0.055
Mof_C 	C 	0.43777	0.8527	0.2952	-0.13
Mof_H 	H 	0.4527	0.9197	0.2821	0.078
Mof_Tb	Tb	0.55228	0.38686	0.00238	1.979
Mof_C 	C 	0.87642	0.3854	0.2176	0.097
Mof_N 	N 	0.8409	0.5187	0.12906	-0.143
Mof_N 	N 	0.83419	0.3789	0.19799	-0.14
Mof_C 	C 	0.81809	0.4476	0.15359	0.104
Mof_N 	N 	0.90183	0.4503	0.19557	-0.142
Mof_C 	C 	0.88248	0.5155	0.1517	0.094
Mof_O 	O 	0.61825	0.3201	0.06719	-0.432
Mof_O 	O 	0.97755	0.9034	0.02943	-0.598
Mof_O 	O 	0.02448	0.7382	0.05432	-0.486
Mof_O 	O 	0.62095	0.4985	0.01977	-0.445
Mof_C 	C 	0.63832	0.4146	0.05488	0.333
Mof_C 	C 	0.96147	0.7199	0.07813	-0.183
Mof_C 	C 	0.98944	0.7918	0.05206	0.465
Mof_C 	C 	0.89362	0.6899	0.0909	-0.133
Mof_H 	H 	0.8645	0.7133	0.0827	0.079
Mof_C 	C 	0.77171	0.4425	0.12978	0.025
Mof_C 	C 	0.68476	0.4291	0.08212	-0.09
Mof_C 	C 	0.91913	0.7591	0.0677	0.075
Mof_H 	H 	0.908	0.833	0.0447	-0.003
Mof_C 	C 	0.97754	0.6152	0.1123	0.072
Mof_H 	H 	0.0062	0.5877	0.1189	0.015
Mof_C 	C 	0.74725	0.3567	0.1485	-0.083
Mof_H 	H 	0.7599	0.3024	0.1781	0.067
Mof_O 	O 	0.93968	0.025	0.42443	-0.506
Mof_O 	O 	0.99186	0.1789	0.43705	-0.559
Mof_C 	C 	0.95731	0.125	0.41192	0.51
Mof_C 	C 	0.89431	0.1585	0.33341	0.081
Mof_H 	H 	0.8795	0.0914	0.3466	0.019
Mof_C 	C 	0.70363	0.3484	0.1243	0.016
Mof_H 	H 	0.6869	0.2868	0.1371	0.041
Mof_C 	C 	0.91004	0.5872	0.1257	0.05
Mof_C 	C 	0.93561	0.1927	0.36082	-0.184
Mof_C 	C 	0.75292	0.5261	0.0878	-0.082
Mof_H 	H 	0.7698	0.5875	0.0753	0.064
Mof_C 	C 	0.70939	0.5204	0.0639	0.014
Mof_H 	H 	0.6965	0.5781	0.0353	0.035
Mof_C 	C 	0.95253	0.5502	0.137	-0.133
Mof_H 	H 	0.9641	0.4804	0.1616	0.073
Mof_C 	C 	0.87461	0.2219	0.2868	-0.125
Mof_H 	H 	0.8461	0.1996	0.2685	0.081
Mof_C 	C 	0.95708	0.2907	0.3419	0.086
Mof_H 	H 	0.9852	0.3155	0.361	-0.005
Mof_C 	C 	0.89625	0.3171	0.267	0.055
Mof_C 	C 	0.93777	0.3527	0.2952	-0.129
Mof_H 	H 	0.9527	0.4197	0.2821	0.079
_end
