data_functionalizedCrystal
_audit_creation_method	'EQeq! by Chris Wilmer'
_symmetry_space_group_name_H-M	'P1'
_symmetry_Int_Tables_number	1
_symmetry_cell_setting	triclinic
loop_
_symmetry_equiv_pos_as_xyz
  x,y,z
_cell_length_a	8.2152
_cell_length_b	8.9387
_cell_length_c	12.3961
_cell_angle_alpha	109.846
_cell_angle_beta	92.651
_cell_angle_gamma	106.725
loop_
_atom_site_label
_atom_site_type_symbol
_atom_site_fract_x
_atom_site_fract_y
_atom_site_fract_z
_atom_site_charge
Mof_Co	Co	0.03208	0.05585	0.17923	1.091
Mof_Co	Co	0.96792	0.94415	0.82077	1.091
Mof_Co	Co	0.5	0.5	0.5	1.183
Mof_H 	H 	0.971	0.224	0.449	0.04
Mof_H 	H 	0.804	0.3761	0.5444	0.031
Mof_H 	H 	0.5773	0.3355	0.2477	0.032
Mof_H 	H 	0.3781	0.8672	0.3062	0.043
Mof_H 	H 	0.029	0.776	0.551	0.039
Mof_H 	H 	0.196	0.6239	0.4556	0.031
Mof_H 	H 	0.4227	0.6645	0.7523	0.032
Mof_H 	H 	0.6219	0.1328	0.6938	0.043
Mof_C 	C 	0.7584	0.1699	0.1068	0.091
Mof_C 	C 	0.7623	0.2268	0.2325	-0.003
Mof_C 	C 	0.8918	0.2468	0.4062	0.011
Mof_C 	C 	0.7899	0.3374	0.4638	0.009
Mof_C 	C 	0.6585	0.3148	0.2904	0.018
Mof_C 	C 	0.5331	0.8547	0.4312	-0.065
Mof_C 	C 	0.608	0.9351	0.5486	-0.086
Mof_C 	C 	0.427	0.9206	0.3842	0.015
Mof_C 	C 	0.5517	0.6917	0.3528	0.321
Mof_C 	C 	0.725	0.8721	0.6062	0.366
Mof_C 	C 	0.2416	0.8301	0.8932	0.091
Mof_C 	C 	0.2377	0.7732	0.7675	-0.003
Mof_C 	C 	0.1082	0.7532	0.5938	0.011
Mof_C 	C 	0.2101	0.6626	0.5362	0.009
Mof_C 	C 	0.3415	0.6852	0.7096	0.018
Mof_C 	C 	0.4669	0.1453	0.5688	-0.065
Mof_C 	C 	0.392	0.0649	0.4514	-0.086
Mof_C 	C 	0.573	0.0794	0.6158	0.015
Mof_C 	C 	0.4483	0.3083	0.6472	0.321
Mof_C 	C 	0.275	0.1279	0.3938	0.366
Mof_N 	N 	0.866	0.0912	0.05806	-0.229
Mof_N 	N 	0.8334	0.0635	0.94512	-0.179
Mof_N 	N 	0.7096	0.1222	0.9268	-0.054
Mof_N 	N 	0.66	0.1906	0.0285	-0.088
Mof_N 	N 	0.8791	0.1916	0.29104	-0.207
Mof_N 	N 	0.672	0.3704	0.40614	-0.19
Mof_N 	N 	0.134	0.9088	0.94194	-0.229
Mof_N 	N 	0.1666	0.9365	0.05488	-0.179
Mof_N 	N 	0.2904	0.8778	0.0732	-0.054
Mof_N 	N 	0.34	0.8094	0.9715	-0.088
Mof_N 	N 	0.1209	0.8084	0.70896	-0.207
Mof_N 	N 	0.328	0.6296	0.59386	-0.19
Mof_O 	O 	0.656	0.6935	0.2852	-0.267
Mof_O 	O 	0.4518	0.5585	0.35965	-0.408
Mof_O 	O 	0.7065	0.7179	0.57058	-0.444
Mof_O 	O 	0.8383	0.9807	0.689	-0.439
Mof_O 	O 	0.344	0.3065	0.7148	-0.267
Mof_O 	O 	0.5482	0.4415	0.64035	-0.408
Mof_O 	O 	0.2935	0.2821	0.42942	-0.444
Mof_O 	O 	0.1617	0.0193	0.311	-0.439
_end
