# CIF file generated by openbabel 3.1.0, see https://openbabel.org
data_I
_chemical_name_common 'HAWWEJ_charged'
_cell_length_a 11.5047
_cell_length_b 14.0214
_cell_length_c 15.8315
_cell_angle_alpha 93.8312
_cell_angle_beta 90
_cell_angle_gamma 90
_space_group_name_H-M_alt 'P 1'
_space_group_name_Hall 'P 1'
loop_
    _symmetry_equiv_pos_as_xyz
    x,y,z
loop_
    _atom_site_label
    _atom_site_type_symbol
    _atom_site_fract_x
    _atom_site_fract_y
    _atom_site_fract_z
    _atom_site_occupancy
    Yb1      Yb       0.88869    0.66142    0.01405    1.000
    Yb2      Yb       0.38869    0.83858    0.48595    1.000
    Yb3      Yb       0.11131    0.33858    0.98595    1.000
    Yb4      Yb       0.61131    0.16142    0.51405    1.000
    H1       H        0.68490    0.41620    0.11820    1.000
    H2       H        0.56490    0.65220    0.03930    1.000
    H3       H        0.93120    0.69970    0.80720    1.000
    H4       H        0.94970    0.70800    0.65410    1.000
    H5       H        0.85370    0.99810    0.18010    1.000
    H6       H        0.73890    0.07570    0.29450    1.000
    H7       H        0.48770    0.60970    0.18230    1.000
    H8       H        0.40460    0.57760    0.10600    1.000
    H9       H        0.46440    0.42370    0.10510    1.000
    H10      H        0.50950    0.45130    0.19790    1.000
    H11      H        0.18490    0.08380    0.38180    1.000
    H12      H        0.06490    0.84780    0.46070    1.000
    H13      H        0.43120    0.80030    0.69280    1.000
    H14      H        0.44970    0.79200    0.84590    1.000
    H15      H        0.35370    0.50190    0.31990    1.000
    H16      H        0.23890    0.42430    0.20550    1.000
    H17      H        0.98770    0.89030    0.31770    1.000
    H18      H        0.90460    0.92240    0.39400    1.000
    H19      H        0.96440    0.07630    0.39490    1.000
    H20      H        0.00950    0.04870    0.30210    1.000
    H21      H        0.31510    0.58380    0.88180    1.000
    H22      H        0.43510    0.34780    0.96070    1.000
    H23      H        0.06880    0.30030    0.19280    1.000
    H24      H        0.05030    0.29200    0.34590    1.000
    H25      H        0.14630    0.00190    0.81990    1.000
    H26      H        0.26110    0.92430    0.70550    1.000
    H27      H        0.51230    0.39030    0.81770    1.000
    H28      H        0.59540    0.42240    0.89400    1.000
    H29      H        0.53560    0.57630    0.89490    1.000
    H30      H        0.49050    0.54870    0.80210    1.000
    H31      H        0.81510    0.91620    0.61820    1.000
    H32      H        0.93510    0.15220    0.53930    1.000
    H33      H        0.56880    0.19970    0.30720    1.000
    H34      H        0.55030    0.20800    0.15410    1.000
    H35      H        0.64630    0.49810    0.68010    1.000
    H36      H        0.76110    0.57570    0.79450    1.000
    H37      H        0.01230    0.10970    0.68230    1.000
    H38      H        0.09540    0.07760    0.60600    1.000
    H39      H        0.03560    0.92370    0.60510    1.000
    H40      H        0.99050    0.95130    0.69790    1.000
    C1       C        0.10640    0.71380    0.82070    1.000
    C2       C        0.00180    0.70700    0.77970    1.000
    C3       C        0.01250    0.71230    0.69110    1.000
    C4       C        0.12500    0.72470    0.66570    1.000
    C5       C        0.13260    0.71520    0.91300    1.000
    C6       C        0.16870    0.73980    0.57950    1.000
    C7       C        0.76410    0.87430    0.19100    1.000
    C8       C        0.79510    0.96770    0.20850    1.000
    C9       C        0.72860    0.01250    0.27410    1.000
    C10      C        0.64710    0.95310    0.30460    1.000
    C11      C        0.81590    0.79980    0.13140    1.000
    C12      C        0.56260    0.97070    0.37440    1.000
    C13      C        0.65880    0.53850    0.06440    1.000
    C14      C        0.48230    0.57180    0.12880    1.000
    C15      C        0.51420    0.46680    0.13920    1.000
    C16      C        0.60640    0.78620    0.67930    1.000
    C17      C        0.50180    0.79300    0.72030    1.000
    C18      C        0.51250    0.78770    0.80890    1.000
    C19      C        0.62500    0.77530    0.83430    1.000
    C20      C        0.63260    0.78480    0.58700    1.000
    C21      C        0.66870    0.76020    0.92050    1.000
    C22      C        0.26410    0.62570    0.30900    1.000
    C23      C        0.29510    0.53230    0.29150    1.000
    C24      C        0.22860    0.48750    0.22590    1.000
    C25      C        0.14710    0.54690    0.19540    1.000
    C26      C        0.31590    0.70020    0.36860    1.000
    C27      C        0.06260    0.52930    0.12560    1.000
    C28      C        0.15880    0.96150    0.43560    1.000
    C29      C        0.98230    0.92820    0.37120    1.000
    C30      C        0.01420    0.03320    0.36080    1.000
    C31      C        0.89360    0.28620    0.17930    1.000
    C32      C        0.99820    0.29300    0.22030    1.000
    C33      C        0.98750    0.28770    0.30890    1.000
    C34      C        0.87500    0.27530    0.33430    1.000
    C35      C        0.86740    0.28480    0.08700    1.000
    C36      C        0.83130    0.26020    0.42050    1.000
    C37      C        0.23590    0.12570    0.80900    1.000
    C38      C        0.20490    0.03230    0.79150    1.000
    C39      C        0.27140    0.98750    0.72590    1.000
    C40      C        0.35290    0.04690    0.69540    1.000
    C41      C        0.18410    0.20020    0.86860    1.000
    C42      C        0.43740    0.02930    0.62560    1.000
    C43      C        0.34120    0.46150    0.93560    1.000
    C44      C        0.51770    0.42820    0.87120    1.000
    C45      C        0.48580    0.53320    0.86080    1.000
    C46      C        0.39360    0.21380    0.32070    1.000
    C47      C        0.49820    0.20700    0.27970    1.000
    C48      C        0.48750    0.21230    0.19110    1.000
    C49      C        0.37500    0.22470    0.16570    1.000
    C50      C        0.36740    0.21520    0.41300    1.000
    C51      C        0.33130    0.23980    0.07950    1.000
    C52      C        0.73590    0.37430    0.69100    1.000
    C53      C        0.70490    0.46770    0.70850    1.000
    C54      C        0.77140    0.51250    0.77410    1.000
    C55      C        0.85290    0.45310    0.80460    1.000
    C56      C        0.68410    0.29980    0.63140    1.000
    C57      C        0.93740    0.47070    0.87440    1.000
    C58      C        0.84120    0.03850    0.56440    1.000
    C59      C        0.01770    0.07180    0.62880    1.000
    C60      C        0.98580    0.96680    0.63920    1.000
    S1       S        0.21858    0.72783    0.75059    1.000
    S2       S        0.65114    0.84121    0.25339    1.000
    S3       S        0.71858    0.77217    0.74941    1.000
    S4       S        0.15114    0.65879    0.24661    1.000
    S5       S        0.78142    0.27217    0.24941    1.000
    S6       S        0.34886    0.15879    0.74661    1.000
    S7       S        0.28142    0.22783    0.25059    1.000
    S8       S        0.84886    0.34121    0.75339    1.000
    N1       N        0.63400    0.46300    0.10850    1.000
    N2       N        0.56980    0.60010    0.06940    1.000
    N3       N        0.13400    0.03700    0.39150    1.000
    N4       N        0.06980    0.89990    0.43060    1.000
    N5       N        0.36600    0.53700    0.89150    1.000
    N6       N        0.43020    0.39990    0.93060    1.000
    N7       N        0.86600    0.96300    0.60850    1.000
    N8       N        0.93020    0.10010    0.56940    1.000
    O1       O        0.04630    0.72597    0.96267    1.000
    O2       O        0.23570    0.71050    0.93510    1.000
    O3       O        0.27290    0.77101    0.57621    1.000
    O4       O        0.10390    0.72330    0.51800    1.000
    O5       O        0.78050    0.71488    0.13458    1.000
    O6       O        0.89290    0.82180    0.07980    1.000
    O7       O        0.56080    0.05096    0.41346    1.000
    O8       O        0.49610    0.90207    0.38857    1.000
    O9       O        0.75040    0.54890    0.02340    1.000
    O10      O        0.54630    0.77403    0.53733    1.000
    O11      O        0.73570    0.78950    0.56490    1.000
    O12      O        0.77290    0.72899    0.92379    1.000
    O13      O        0.60390    0.77670    0.98200    1.000
    O14      O        0.28050    0.78512    0.36542    1.000
    O15      O        0.39290    0.67820    0.42020    1.000
    O16      O        0.06080    0.44904    0.08654    1.000
    O17      O        0.99610    0.59793    0.11143    1.000
    O18      O        0.25040    0.95110    0.47660    1.000
    O19      O        0.95370    0.27403    0.03733    1.000
    O20      O        0.76430    0.28950    0.06490    1.000
    O21      O        0.72710    0.22899    0.42379    1.000
    O22      O        0.89610    0.27670    0.48200    1.000
    O23      O        0.21950    0.28512    0.86542    1.000
    O24      O        0.10710    0.17820    0.92020    1.000
    O25      O        0.43920    0.94904    0.58654    1.000
    O26      O        0.50390    0.09793    0.61143    1.000
    O27      O        0.24960    0.45110    0.97660    1.000
    O28      O        0.45370    0.22597    0.46267    1.000
    O29      O        0.26430    0.21050    0.43510    1.000
    O30      O        0.22710    0.27101    0.07621    1.000
    O31      O        0.39610    0.22330    0.01800    1.000
    O32      O        0.71950    0.21488    0.63458    1.000
    O33      O        0.60710    0.32180    0.57980    1.000
    O34      O        0.93920    0.55096    0.91346    1.000
    O35      O        0.00390    0.40207    0.88857    1.000
    O36      O        0.74960    0.04890    0.52340    1.000
