data_functionalizedCrystal
_audit_creation_method	'EQeq! by Chris Wilmer'
_symmetry_space_group_name_H-M	'P1'
_symmetry_Int_Tables_number	1
_symmetry_cell_setting	triclinic
loop_
_symmetry_equiv_pos_as_xyz
  x,y,z
_cell_length_a	13.5274
_cell_length_b	13.5274
_cell_length_c	19.2645
_cell_angle_alpha	90
_cell_angle_beta	90
_cell_angle_gamma	120
loop_
_atom_site_label
_atom_site_type_symbol
_atom_site_fract_x
_atom_site_fract_y
_atom_site_fract_z
_atom_site_charge
Mof_Fe	Fe	0.8556	0.5655	0.45037	1.063
Mof_P 	P 	0.9635	0.8121	0.3712	0.595
Mof_P 	P 	0.6321	0.5051	0.5439	0.55
Mof_O 	O 	0.8809	0.686	0.3831	-0.311
Mof_O 	O 	0.0812	0.8249	0.3475	-0.199
Mof_O 	O 	0.9234	0.8597	0.3128	-0.219
Mof_O 	O 	0.9836	0.8748	0.4402	-0.252
Mof_O 	O 	0.7135	0.5641	0.4837	-0.343
Mof_O 	O 	0.7025	0.495	0.6066	-0.14
Mof_O 	O 	0.0059	0.58	0.4289	-0.385
Mof_O 	O 	0.8392	0.4572	0.5273	-0.309
Mof_O 	O 	0.7722	0.4432	0.3862	-0.328
Mof_Fe	Fe	0.4345	0.2901	0.45037	1.001
Mof_P 	P 	0.1879	0.1514	0.3712	0.538
Mof_P 	P 	0.4949	0.127	0.5439	0.548
Mof_O 	O 	0.314	0.1949	0.3831	-0.327
Mof_O 	O 	0.1751	0.2563	0.3475	-0.183
Mof_O 	O 	0.1403	0.0637	0.3128	-0.323
Mof_O 	O 	0.1252	0.1088	0.4402	-0.363
Mof_O 	O 	0.4359	0.1494	0.4837	-0.358
Mof_O 	O 	0.505	0.2075	0.6066	-0.151
Mof_O 	O 	0.42	0.4259	0.4289	-0.325
Mof_O 	O 	0.5428	0.382	0.5273	-0.32
Mof_O 	O 	0.5568	0.329	0.3862	-0.337
Mof_Fe	Fe	0.7099	0.1444	0.45037	0.953
Mof_P 	P 	0.8486	0.0365	0.3712	0.485
Mof_P 	P 	0.873	0.3679	0.5439	0.552
Mof_O 	O 	0.8051	0.1191	0.3831	-0.308
Mof_O 	O 	0.7437	0.9188	0.3475	-0.11
Mof_O 	O 	0.9363	0.0766	0.3128	-0.236
Mof_O 	O 	0.8912	0.0164	0.4402	-0.313
Mof_O 	O 	0.8506	0.2865	0.4837	-0.315
Mof_O 	O 	0.7925	0.2975	0.6066	-0.142
Mof_O 	O 	0.5741	0.9941	0.4289	-0.266
Mof_O 	O 	0.618	0.1608	0.5273	-0.329
Mof_O 	O 	0.671	0.2278	0.3862	-0.337
Mof_Fe	Fe	0.5655	0.8556	0.04963	1.047
Mof_P 	P 	0.8121	0.9635	0.1288	0.594
Mof_P 	P 	0.5051	0.6321	0.9561	0.567
Mof_O 	O 	0.686	0.8809	0.1169	-0.31
Mof_O 	O 	0.8249	0.0812	0.1525	-0.2
Mof_O 	O 	0.8597	0.9234	0.1872	-0.219
Mof_O 	O 	0.8748	0.9836	0.0598	-0.253
Mof_O 	O 	0.5641	0.7135	0.0163	-0.359
Mof_O 	O 	0.495	0.7025	0.8934	-0.14
Mof_O 	O 	0.58	0.0059	0.0711	-0.386
Mof_O 	O 	0.4572	0.8392	0.9727	-0.297
Mof_O 	O 	0.4432	0.7722	0.1138	-0.328
Mof_Fe	Fe	0.2901	0.4345	0.04963	0.984
Mof_P 	P 	0.1514	0.1879	0.1288	0.536
Mof_P 	P 	0.127	0.4949	0.9561	0.566
Mof_O 	O 	0.1949	0.314	0.1169	-0.326
Mof_O 	O 	0.2563	0.1751	0.1525	-0.184
Mof_O 	O 	0.0637	0.1403	0.1872	-0.323
Mof_O 	O 	0.1088	0.1252	0.0598	-0.365
Mof_O 	O 	0.1494	0.4359	0.0163	-0.375
Mof_O 	O 	0.2075	0.505	0.8934	-0.15
Mof_O 	O 	0.4259	0.42	0.0711	-0.327
Mof_O 	O 	0.382	0.5428	0.9727	-0.307
Mof_O 	O 	0.329	0.5568	0.1138	-0.337
Mof_Fe	Fe	0.1444	0.7099	0.04963	0.934
Mof_P 	P 	0.0365	0.8486	0.1288	0.483
Mof_P 	P 	0.3679	0.873	0.9561	0.569
Mof_O 	O 	0.1191	0.8051	0.1169	-0.307
Mof_O 	O 	0.9188	0.7437	0.1525	-0.111
Mof_O 	O 	0.0766	0.9363	0.1872	-0.236
Mof_O 	O 	0.0164	0.8912	0.0598	-0.315
Mof_O 	O 	0.2865	0.8506	0.0163	-0.332
Mof_O 	O 	0.2975	0.7925	0.8934	-0.141
Mof_O 	O 	0.9941	0.5741	0.0711	-0.267
Mof_O 	O 	0.1608	0.618	0.9727	-0.316
Mof_O 	O 	0.2278	0.671	0.1138	-0.337
Mof_Fe	Fe	0.1444	0.4345	0.54963	0.947
Mof_P 	P 	0.0365	0.1879	0.6288	0.48
Mof_P 	P 	0.3679	0.4949	0.4561	0.549
Mof_O 	O 	0.1191	0.314	0.6169	-0.32
Mof_O 	O 	0.9188	0.1751	0.6525	-0.124
Mof_O 	O 	0.0766	0.1403	0.6872	-0.303
Mof_O 	O 	0.0164	0.1252	0.5598	-0.369
Mof_O 	O 	0.2865	0.4359	0.5163	-0.334
Mof_O 	O 	0.2975	0.505	0.3934	-0.149
Mof_O 	O 	0.9941	0.42	0.5711	-0.265
Mof_O 	O 	0.1608	0.5428	0.4727	-0.33
Mof_O 	O 	0.2278	0.5568	0.6138	-0.34
Mof_Fe	Fe	0.5655	0.7099	0.54963	1.011
Mof_P 	P 	0.8121	0.8486	0.6288	0.541
Mof_P 	P 	0.5051	0.873	0.4561	0.553
Mof_O 	O 	0.686	0.8051	0.6169	-0.304
Mof_O 	O 	0.8249	0.7437	0.6525	-0.148
Mof_O 	O 	0.8597	0.9363	0.6872	-0.201
Mof_O 	O 	0.8748	0.8912	0.5598	-0.259
Mof_O 	O 	0.5641	0.8506	0.5163	-0.32
Mof_O 	O 	0.495	0.7925	0.3934	-0.138
Mof_O 	O 	0.58	0.5741	0.5711	-0.326
Mof_O 	O 	0.4572	0.618	0.4727	-0.319
Mof_O 	O 	0.4432	0.671	0.6138	-0.331
Mof_Fe	Fe	0.2901	0.8556	0.54963	1.063
Mof_P 	P 	0.1514	0.9635	0.6288	0.6
Mof_P 	P 	0.127	0.6321	0.4561	0.549
Mof_O 	O 	0.1949	0.8809	0.6169	-0.322
Mof_O 	O 	0.2563	0.0812	0.6525	-0.224
Mof_O 	O 	0.0637	0.9234	0.6872	-0.276
Mof_O 	O 	0.1088	0.9836	0.5598	-0.297
Mof_O 	O 	0.1494	0.7135	0.5163	-0.361
Mof_O 	O 	0.2075	0.7025	0.3934	-0.146
Mof_O 	O 	0.4259	0.0059	0.5711	-0.387
Mof_O 	O 	0.382	0.8392	0.4727	-0.309
Mof_O 	O 	0.329	0.7722	0.6138	-0.331
Mof_Fe	Fe	0.4345	0.1444	0.95037	0.963
Mof_P 	P 	0.1879	0.0365	0.8712	0.477
Mof_P 	P 	0.4949	0.3679	0.0439	0.533
Mof_O 	O 	0.314	0.1191	0.8831	-0.32
Mof_O 	O 	0.1751	0.9188	0.8475	-0.119
Mof_O 	O 	0.1403	0.0766	0.8128	-0.301
Mof_O 	O 	0.1252	0.0164	0.9402	-0.353
Mof_O 	O 	0.4359	0.2865	0.9837	-0.317
Mof_O 	O 	0.505	0.2975	0.1066	-0.149
Mof_O 	O 	0.42	0.9941	0.9289	-0.263
Mof_O 	O 	0.5428	0.1608	0.0273	-0.341
Mof_O 	O 	0.5568	0.2278	0.8862	-0.34
Mof_Fe	Fe	0.7099	0.5655	0.95037	1.028
Mof_P 	P 	0.8486	0.8121	0.8712	0.541
Mof_P 	P 	0.873	0.5051	0.0439	0.538
Mof_O 	O 	0.8051	0.686	0.8831	-0.305
Mof_O 	O 	0.7437	0.8249	0.8475	-0.145
Mof_O 	O 	0.9363	0.8597	0.8128	-0.201
Mof_O 	O 	0.8912	0.8748	0.9402	-0.245
Mof_O 	O 	0.8506	0.5641	0.9837	-0.305
Mof_O 	O 	0.7925	0.495	0.1066	-0.138
Mof_O 	O 	0.5741	0.58	0.9289	-0.325
Mof_O 	O 	0.618	0.4572	0.0273	-0.33
Mof_O 	O 	0.671	0.4432	0.8862	-0.331
Mof_Fe	Fe	0.8556	0.2901	0.95037	1.076
Mof_P 	P 	0.9635	0.1514	0.8712	0.596
Mof_P 	P 	0.6321	0.127	0.0439	0.534
Mof_O 	O 	0.8809	0.1949	0.8831	-0.322
Mof_O 	O 	0.0812	0.2563	0.8475	-0.219
Mof_O 	O 	0.9234	0.0637	0.8128	-0.278
Mof_O 	O 	0.9836	0.1088	0.9402	-0.286
Mof_O 	O 	0.7135	0.1494	0.9837	-0.346
Mof_O 	O 	0.7025	0.2075	0.1066	-0.146
Mof_O 	O 	0.0059	0.4259	0.9289	-0.383
Mof_O 	O 	0.8392	0.382	0.0273	-0.319
Mof_O 	O 	0.7722	0.329	0.8862	-0.331
Mof_Fe	Fe	-0	0	0.25	0.761
Mof_Fe	Fe	-1.65373e-32	0	0.75	0.764
Mof_Fe	Fe	-0	0	0.5	0.836
Mof_Fe	Fe	-0	0	-0	0.802
Mof_P 	P 	0.66667	0.33333	0.3625	0.581
Mof_O 	O 	0.66667	0.33333	0.2818	-0.141
Mof_P 	P 	0.33333	0.66667	0.1375	0.579
Mof_O 	O 	0.33333	0.66667	0.2182	-0.14
Mof_P 	P 	0.33333	0.66667	0.6375	0.581
Mof_O 	O 	0.33333	0.66667	0.7182	-0.141
Mof_P 	P 	0.66667	0.33333	0.8625	0.584
Mof_O 	O 	0.66667	0.33333	0.7818	-0.142
_end
