# CIF file generated by openbabel 3.1.0, see https://openbabel.org
data_I
_chemical_name_common 'image0'
_cell_length_a 38.9025
_cell_length_b 38.9025
_cell_length_c 18.9223
_cell_angle_alpha 90
_cell_angle_beta 90
_cell_angle_gamma 90
_space_group_name_H-M_alt 'P 1'
_space_group_name_Hall 'P 1'
loop_
    _symmetry_equiv_pos_as_xyz
    x,y,z
loop_
    _atom_site_label
    _atom_site_type_symbol
    _atom_site_fract_x
    _atom_site_fract_y
    _atom_site_fract_z
    _atom_site_occupancy
    Zr1      Zr       0.26363    0.46466    0.78595    1.000
    Zr2      Zr       0.18925    0.50987    0.83637    1.000
    Zr3      Zr       0.23566    0.55545    0.96369    1.000
    C1       C        0.34380    0.45270    0.80870    1.000
    C2       C        0.37455    0.41290    0.72550    1.000
    H1       H        0.35329    0.40648    0.70726    1.000
    C3       C        0.37640    0.43710    0.77930    1.000
    C4       C        0.40817    0.44670    0.80650    1.000
    H2       H        0.40941    0.46293    0.84258    1.000
    C5       C        0.43809    0.43210    0.77980    1.000
    H3       H        0.45935    0.43857    0.79802    1.000
    C6       C        0.43623    0.40790    0.72590    1.000
    C7       C        0.40446    0.39830    0.69870    1.000
    H4       H        0.40322    0.38212    0.66269    1.000
    C8       C        0.46810    0.39460    0.69330    1.000
    C9       C        0.49440    0.36100    0.61280    1.000
    C10      C        0.52580    0.38940    0.69460    1.000
    C11      C        0.52418    0.33090    0.51460    1.000
    H5       H        0.54515    0.33567    0.53605    1.000
    C12      C        0.52325    0.31220    0.45200    1.000
    H6       H        0.54359    0.30456    0.43150    1.000
    C13      C        0.49192    0.30500    0.41990    1.000
    C14      C        0.46152    0.31650    0.45050    1.000
    H7       H        0.44055    0.31170    0.42900    1.000
    C15      C        0.46245    0.33510    0.51310    1.000
    H8       H        0.44211    0.34281    0.53355    1.000
    C16      C        0.49378    0.34230    0.54520    1.000
    C17      C        0.49100    0.28810    0.34890    1.000
    C18      C        0.55913    0.39960    0.72590    1.000
    C19      C        0.55960    0.42220    0.78280    1.000
    H9       H        0.53906    0.43005    0.80201    1.000
    C20      C        0.59078    0.43310    0.81080    1.000
    H10      H        0.59110    0.44821    0.84885    1.000
    C21      C        0.62148    0.42130    0.78210    1.000
    C22      C        0.62101    0.39870    0.72520    1.000
    H11      H        0.64155    0.39082    0.70596    1.000
    C23      C        0.58983    0.38780    0.69720    1.000
    H12      H        0.58952    0.37266    0.65912    1.000
    C24      C        0.65520    0.43460    0.80920    1.000
    N1       N        0.46490    0.37430    0.63640    1.000
    N2       N        0.52590    0.36980    0.63880    1.000
    N3       N        0.49700    0.40370    0.72240    1.000
    O1       O        0.31691    0.44580    0.77920    1.000
    O2       O        0.34783    0.47390    0.85940    1.000
    O3       O        0.46210    0.28270    0.32220    1.000
    O4       O        0.52027    0.28030    0.32110    1.000
    O5       O        0.68184    0.42497    0.77890    1.000
    O6       O        0.65247    0.45550    0.86040    1.000
    O7       O        0.26200    0.40870    0.81980    1.000
    O8       O        0.23900    0.61100    0.93250    1.000
    O9       O        0.21990    0.46620    0.85440    1.000
    O10      O        0.23290    0.51130    0.76560    1.000
    O11      O        0.20590    0.51010    0.94590    1.000
    O12      O        0.27960    0.55540    0.89650    1.000
    O13      O        0.26440    0.91640    0.20820    1.000
    C25      C        0.24700    0.68250    0.93690    1.000
    H13      H        0.24478    0.67053    0.97922    1.000
    N4       N        0.25590    0.78960    0.93730    1.000
    C26      C        0.24720    0.71810    0.93890    1.000
    H14      H        0.24544    0.72970    0.98167    1.000
    C27      C        0.25950    0.82530    0.93490    1.000
    O14      O        0.28260    0.95480    0.12290    1.000
    C28      C        0.27270    0.92620    0.14770    1.000
    C29      C        0.28460    0.90620    0.02500    1.000
    H15      H        0.29634    0.92666    0.01730    1.000
    C30      C        0.27850    0.88390    0.96900    1.000
    H16      H        0.28619    0.88937    0.92392    1.000
    C31      C        0.26090    0.85330    0.98050    1.000
    C32      C        0.24940    0.84500    0.04800    1.000
    H17      H        0.23757    0.82456    0.05565    1.000
    C33      C        0.25540    0.86740    0.10390    1.000
    H18      H        0.24772    0.86185    0.14903    1.000
    C34      C        0.27300    0.89800    0.09240    1.000
    O15      O        0.30480    0.88120    0.24260    1.000
    C35      C        0.28320    0.89100    0.19860    1.000
    C36      C        0.28770    0.83960    0.12150    1.000
    H19      H        0.29936    0.82896    0.15846    1.000
    C37      C        0.28140    0.82180    0.05920    1.000
    H20      H        0.28883    0.79917    0.05448    1.000
    C38      C        0.26410    0.83770    0.00410    1.000
    C39      C        0.25300    0.87150    0.01120    1.000
    H21      H        0.24137    0.88221    0.97426    1.000
    C40      C        0.25930    0.88940    0.07350    1.000
    H22      H        0.25190    0.91200    0.07824    1.000
    C41      C        0.27670    0.87340    0.12870    1.000
    H23      H        0.25947    0.34625    0.83131    1.000
    H24      H        0.26367    0.34625    0.91371    1.000
    H25      H        0.22686    0.34625    0.87998    1.000
    Zr4      Zr       0.76363    0.96466    0.28595    1.000
    Zr5      Zr       0.68925    0.00987    0.33637    1.000
    Zr6      Zr       0.73566    0.05545    0.46369    1.000
    C42      C        0.84380    0.95270    0.30870    1.000
    C43      C        0.87455    0.91290    0.22550    1.000
    H26      H        0.85329    0.90648    0.20726    1.000
    C44      C        0.87640    0.93710    0.27930    1.000
    C45      C        0.90817    0.94670    0.30650    1.000
    H27      H        0.90941    0.96293    0.34258    1.000
    C46      C        0.93809    0.93210    0.27980    1.000
    H28      H        0.95935    0.93857    0.29802    1.000
    C47      C        0.93623    0.90790    0.22590    1.000
    C48      C        0.90446    0.89830    0.19870    1.000
    H29      H        0.90322    0.88212    0.16269    1.000
    C49      C        0.96810    0.89460    0.19330    1.000
    C50      C        0.99440    0.86100    0.11280    1.000
    C51      C        0.02580    0.88940    0.19460    1.000
    C52      C        0.02418    0.83090    0.01460    1.000
    H30      H        0.04515    0.83567    0.03605    1.000
    C53      C        0.02325    0.81220    0.95200    1.000
    H31      H        0.04359    0.80456    0.93150    1.000
    C54      C        0.99192    0.80500    0.91990    1.000
    C55      C        0.96152    0.81650    0.95050    1.000
    H32      H        0.94055    0.81170    0.92900    1.000
    C56      C        0.96245    0.83510    0.01310    1.000
    H33      H        0.94211    0.84281    0.03355    1.000
    C57      C        0.99378    0.84230    0.04520    1.000
    C58      C        0.99100    0.78810    0.84890    1.000
    C59      C        0.05913    0.89960    0.22590    1.000
    C60      C        0.05960    0.92220    0.28280    1.000
    H34      H        0.03906    0.93005    0.30201    1.000
    C61      C        0.09078    0.93310    0.31080    1.000
    H35      H        0.09110    0.94821    0.34885    1.000
    C62      C        0.12148    0.92130    0.28210    1.000
    C63      C        0.12101    0.89870    0.22520    1.000
    H36      H        0.14155    0.89082    0.20596    1.000
    C64      C        0.08983    0.88780    0.19720    1.000
    H37      H        0.08952    0.87266    0.15912    1.000
    C65      C        0.15520    0.93460    0.30920    1.000
    N5       N        0.96490    0.87430    0.13640    1.000
    N6       N        0.02590    0.86980    0.13880    1.000
    N7       N        0.99700    0.90370    0.22240    1.000
    O16      O        0.81691    0.94580    0.27920    1.000
    O17      O        0.84783    0.97390    0.35940    1.000
    O18      O        0.96210    0.78270    0.82220    1.000
    O19      O        0.02027    0.78030    0.82110    1.000
    O20      O        0.18184    0.92497    0.27890    1.000
    O21      O        0.15247    0.95550    0.36040    1.000
    O22      O        0.76200    0.90870    0.31980    1.000
    O23      O        0.73900    0.11100    0.43250    1.000
    O24      O        0.71990    0.96620    0.35440    1.000
    O25      O        0.73290    0.01130    0.26560    1.000
    O26      O        0.70590    0.01010    0.44590    1.000
    O27      O        0.77960    0.05540    0.39650    1.000
    O28      O        0.76440    0.41640    0.70820    1.000
    C66      C        0.74700    0.18250    0.43690    1.000
    H38      H        0.74478    0.17053    0.47922    1.000
    N8       N        0.75590    0.28960    0.43730    1.000
    C67      C        0.74720    0.21810    0.43890    1.000
    H39      H        0.74544    0.22970    0.48167    1.000
    C68      C        0.75950    0.32530    0.43490    1.000
    O29      O        0.78260    0.45480    0.62290    1.000
    C69      C        0.77270    0.42620    0.64770    1.000
    C70      C        0.78460    0.40620    0.52500    1.000
    H40      H        0.79634    0.42666    0.51730    1.000
    C71      C        0.77850    0.38390    0.46900    1.000
    H41      H        0.78619    0.38937    0.42392    1.000
    C72      C        0.76090    0.35330    0.48050    1.000
    C73      C        0.74940    0.34500    0.54800    1.000
    H42      H        0.73757    0.32456    0.55565    1.000
    C74      C        0.75540    0.36740    0.60390    1.000
    H43      H        0.74772    0.36185    0.64903    1.000
    C75      C        0.77300    0.39800    0.59240    1.000
    O30      O        0.80480    0.38120    0.74260    1.000
    C76      C        0.78320    0.39100    0.69860    1.000
    C77      C        0.78770    0.33960    0.62150    1.000
    H44      H        0.79936    0.32896    0.65846    1.000
    C78      C        0.78140    0.32180    0.55920    1.000
    H45      H        0.78883    0.29917    0.55448    1.000
    C79      C        0.76410    0.33770    0.50410    1.000
    C80      C        0.75300    0.37150    0.51120    1.000
    H46      H        0.74137    0.38221    0.47426    1.000
    C81      C        0.75930    0.38940    0.57350    1.000
    H47      H        0.75190    0.41200    0.57824    1.000
    C82      C        0.77670    0.37340    0.62870    1.000
    H48      H        0.75947    0.84625    0.33131    1.000
    H49      H        0.76367    0.84625    0.41371    1.000
    H50      H        0.72686    0.84625    0.37998    1.000
    Zr7      Zr       0.73637    0.53534    0.78595    1.000
    Zr8      Zr       0.81075    0.49013    0.83637    1.000
    Zr9      Zr       0.76434    0.44455    0.96369    1.000
    C83      C        0.65620    0.54730    0.80870    1.000
    C84      C        0.62545    0.58710    0.72550    1.000
    H51      H        0.64671    0.59352    0.70726    1.000
    C85      C        0.62360    0.56290    0.77930    1.000
    C86      C        0.59183    0.55330    0.80650    1.000
    H52      H        0.59059    0.53707    0.84258    1.000
    C87      C        0.56191    0.56790    0.77980    1.000
    H53      H        0.54065    0.56143    0.79802    1.000
    C88      C        0.56377    0.59210    0.72590    1.000
    C89      C        0.59554    0.60170    0.69870    1.000
    H54      H        0.59678    0.61788    0.66269    1.000
    C90      C        0.53190    0.60540    0.69330    1.000
    C91      C        0.50560    0.63900    0.61280    1.000
    C92      C        0.47420    0.61060    0.69460    1.000
    C93      C        0.47582    0.66910    0.51460    1.000
    H55      H        0.45485    0.66433    0.53605    1.000
    C94      C        0.47675    0.68780    0.45200    1.000
    H56      H        0.45641    0.69544    0.43150    1.000
    C95      C        0.50808    0.69500    0.41990    1.000
    C96      C        0.53848    0.68350    0.45050    1.000
    H57      H        0.55945    0.68830    0.42900    1.000
    C97      C        0.53755    0.66490    0.51310    1.000
    H58      H        0.55789    0.65719    0.53355    1.000
    C98      C        0.50622    0.65770    0.54520    1.000
    C99      C        0.50900    0.71190    0.34890    1.000
    C100     C        0.44087    0.60040    0.72590    1.000
    C101     C        0.44040    0.57780    0.78280    1.000
    H59      H        0.46094    0.56995    0.80201    1.000
    C102     C        0.40922    0.56690    0.81080    1.000
    H60      H        0.40890    0.55179    0.84885    1.000
    C103     C        0.37852    0.57870    0.78210    1.000
    C104     C        0.37899    0.60130    0.72520    1.000
    H61      H        0.35845    0.60918    0.70596    1.000
    C105     C        0.41017    0.61220    0.69720    1.000
    H62      H        0.41048    0.62734    0.65912    1.000
    C106     C        0.34480    0.56540    0.80920    1.000
    N9       N        0.53510    0.62570    0.63640    1.000
    N10      N        0.47410    0.63020    0.63880    1.000
    N11      N        0.50300    0.59630    0.72240    1.000
    O31      O        0.68309    0.55420    0.77920    1.000
    O32      O        0.65217    0.52610    0.85940    1.000
    O33      O        0.53790    0.71730    0.32220    1.000
    O34      O        0.47973    0.71970    0.32110    1.000
    O35      O        0.31816    0.57503    0.77890    1.000
    O36      O        0.34753    0.54450    0.86040    1.000
    O37      O        0.73800    0.59130    0.81980    1.000
    O38      O        0.76100    0.38900    0.93250    1.000
    O39      O        0.78010    0.53380    0.85440    1.000
    O40      O        0.76710    0.48870    0.76560    1.000
    O41      O        0.79410    0.48990    0.94590    1.000
    O42      O        0.72040    0.44460    0.89650    1.000
    O43      O        0.73560    0.08360    0.20820    1.000
    C107     C        0.75300    0.31750    0.93690    1.000
    H63      H        0.75522    0.32947    0.97922    1.000
    N12      N        0.74410    0.21040    0.93730    1.000
    C108     C        0.75280    0.28190    0.93890    1.000
    H64      H        0.75456    0.27030    0.98167    1.000
    C109     C        0.74050    0.17470    0.93490    1.000
    O44      O        0.71740    0.04520    0.12290    1.000
    C110     C        0.72730    0.07380    0.14770    1.000
    C111     C        0.71540    0.09380    0.02500    1.000
    H65      H        0.70366    0.07334    0.01730    1.000
    C112     C        0.72150    0.11610    0.96900    1.000
    H66      H        0.71381    0.11063    0.92392    1.000
    C113     C        0.73910    0.14670    0.98050    1.000
    C114     C        0.75060    0.15500    0.04800    1.000
    H67      H        0.76243    0.17544    0.05565    1.000
    C115     C        0.74460    0.13260    0.10390    1.000
    H68      H        0.75228    0.13815    0.14903    1.000
    C116     C        0.72700    0.10200    0.09240    1.000
    O45      O        0.69520    0.11880    0.24260    1.000
    C117     C        0.71680    0.10900    0.19860    1.000
    C118     C        0.71230    0.16040    0.12150    1.000
    H69      H        0.70064    0.17104    0.15846    1.000
    C119     C        0.71860    0.17820    0.05920    1.000
    H70      H        0.71117    0.20083    0.05448    1.000
    C120     C        0.73590    0.16230    0.00410    1.000
    C121     C        0.74700    0.12850    0.01120    1.000
    H71      H        0.75863    0.11779    0.97426    1.000
    C122     C        0.74070    0.11060    0.07350    1.000
    H72      H        0.74810    0.08800    0.07824    1.000
    C123     C        0.72330    0.12660    0.12870    1.000
    H73      H        0.74053    0.65375    0.83131    1.000
    H74      H        0.73633    0.65375    0.91371    1.000
    H75      H        0.77314    0.65375    0.87998    1.000
    Zr10     Zr       0.23637    0.03534    0.28595    1.000
    Zr11     Zr       0.31075    0.99013    0.33637    1.000
    Zr12     Zr       0.26434    0.94455    0.46369    1.000
    C124     C        0.15620    0.04730    0.30870    1.000
    C125     C        0.12545    0.08710    0.22550    1.000
    H76      H        0.14671    0.09352    0.20726    1.000
    C126     C        0.12360    0.06290    0.27930    1.000
    C127     C        0.09183    0.05330    0.30650    1.000
    H77      H        0.09059    0.03707    0.34258    1.000
    C128     C        0.06191    0.06790    0.27980    1.000
    H78      H        0.04065    0.06143    0.29802    1.000
    C129     C        0.06377    0.09210    0.22590    1.000
    C130     C        0.09554    0.10170    0.19870    1.000
    H79      H        0.09678    0.11788    0.16269    1.000
    C131     C        0.03190    0.10540    0.19330    1.000
    C132     C        0.00560    0.13900    0.11280    1.000
    C133     C        0.97420    0.11060    0.19460    1.000
    C134     C        0.97582    0.16910    0.01460    1.000
    H80      H        0.95485    0.16433    0.03605    1.000
    C135     C        0.97675    0.18780    0.95200    1.000
    H81      H        0.95641    0.19544    0.93150    1.000
    C136     C        0.00808    0.19500    0.91990    1.000
    C137     C        0.03848    0.18350    0.95050    1.000
    H82      H        0.05945    0.18830    0.92900    1.000
    C138     C        0.03755    0.16490    0.01310    1.000
    H83      H        0.05789    0.15719    0.03355    1.000
    C139     C        0.00622    0.15770    0.04520    1.000
    C140     C        0.00900    0.21190    0.84890    1.000
    C141     C        0.94087    0.10040    0.22590    1.000
    C142     C        0.94040    0.07780    0.28280    1.000
    H84      H        0.96094    0.06995    0.30201    1.000
    C143     C        0.90922    0.06690    0.31080    1.000
    H85      H        0.90890    0.05179    0.34885    1.000
    C144     C        0.87852    0.07870    0.28210    1.000
    C145     C        0.87899    0.10130    0.22520    1.000
    H86      H        0.85845    0.10918    0.20596    1.000
    C146     C        0.91017    0.11220    0.19720    1.000
    H87      H        0.91048    0.12734    0.15912    1.000
    C147     C        0.84480    0.06540    0.30920    1.000
    N13      N        0.03510    0.12570    0.13640    1.000
    N14      N        0.97410    0.13020    0.13880    1.000
    N15      N        0.00300    0.09630    0.22240    1.000
    O46      O        0.18309    0.05420    0.27920    1.000
    O47      O        0.15217    0.02610    0.35940    1.000
    O48      O        0.03790    0.21730    0.82220    1.000
    O49      O        0.97973    0.21970    0.82110    1.000
    O50      O        0.81816    0.07503    0.27890    1.000
    O51      O        0.84753    0.04450    0.36040    1.000
    O52      O        0.23800    0.09130    0.31980    1.000
    O53      O        0.26100    0.88900    0.43250    1.000
    O54      O        0.28010    0.03380    0.35440    1.000
    O55      O        0.26710    0.98870    0.26560    1.000
    O56      O        0.29410    0.98990    0.44590    1.000
    O57      O        0.22040    0.94460    0.39650    1.000
    O58      O        0.23560    0.58360    0.70820    1.000
    C148     C        0.25300    0.81750    0.43690    1.000
    H88      H        0.25522    0.82947    0.47922    1.000
    N16      N        0.24410    0.71040    0.43730    1.000
    C149     C        0.25280    0.78190    0.43890    1.000
    H89      H        0.25456    0.77030    0.48167    1.000
    C150     C        0.24050    0.67470    0.43490    1.000
    O59      O        0.21740    0.54520    0.62290    1.000
    C151     C        0.22730    0.57380    0.64770    1.000
    C152     C        0.21540    0.59380    0.52500    1.000
    H90      H        0.20366    0.57334    0.51730    1.000
    C153     C        0.22150    0.61610    0.46900    1.000
    H91      H        0.21381    0.61063    0.42392    1.000
    C154     C        0.23910    0.64670    0.48050    1.000
    C155     C        0.25060    0.65500    0.54800    1.000
    H92      H        0.26243    0.67544    0.55565    1.000
    C156     C        0.24460    0.63260    0.60390    1.000
    H93      H        0.25228    0.63815    0.64903    1.000
    C157     C        0.22700    0.60200    0.59240    1.000
    O60      O        0.19520    0.61880    0.74260    1.000
    C158     C        0.21680    0.60900    0.69860    1.000
    C159     C        0.21230    0.66040    0.62150    1.000
    H94      H        0.20064    0.67104    0.65846    1.000
    C160     C        0.21860    0.67820    0.55920    1.000
    H95      H        0.21117    0.70083    0.55448    1.000
    C161     C        0.23590    0.66230    0.50410    1.000
    C162     C        0.24700    0.62850    0.51120    1.000
    H96      H        0.25863    0.61779    0.47426    1.000
    C163     C        0.24070    0.61060    0.57350    1.000
    H97      H        0.24810    0.58800    0.57824    1.000
    C164     C        0.22330    0.62660    0.62870    1.000
    H98      H        0.24053    0.15375    0.33131    1.000
    H99      H        0.23633    0.15375    0.41371    1.000
    H100     H        0.27314    0.15375    0.37998    1.000
    Zr13     Zr       0.46466    0.73637    0.21405    1.000
    Zr14     Zr       0.50987    0.81075    0.16363    1.000
    Zr15     Zr       0.55545    0.76434    0.03631    1.000
    C165     C        0.45270    0.65620    0.19130    1.000
    C166     C        0.41290    0.62545    0.27450    1.000
    H101     H        0.40648    0.64671    0.29274    1.000
    C167     C        0.43710    0.62360    0.22070    1.000
    C168     C        0.44670    0.59183    0.19350    1.000
    H102     H        0.46293    0.59059    0.15742    1.000
    C169     C        0.43210    0.56191    0.22020    1.000
    H103     H        0.43857    0.54065    0.20198    1.000
    C170     C        0.40790    0.56377    0.27410    1.000
    C171     C        0.39830    0.59554    0.30130    1.000
    H104     H        0.38212    0.59678    0.33731    1.000
    C172     C        0.39460    0.53190    0.30670    1.000
    C173     C        0.36100    0.50560    0.38720    1.000
    C174     C        0.38940    0.47420    0.30540    1.000
    C175     C        0.33090    0.47582    0.48540    1.000
    H105     H        0.33567    0.45485    0.46395    1.000
    C176     C        0.31220    0.47675    0.54800    1.000
    H106     H        0.30456    0.45641    0.56850    1.000
    C177     C        0.30500    0.50808    0.58010    1.000
    C178     C        0.31650    0.53848    0.54950    1.000
    H107     H        0.31170    0.55945    0.57100    1.000
    C179     C        0.33510    0.53755    0.48690    1.000
    H108     H        0.34281    0.55789    0.46645    1.000
    C180     C        0.34230    0.50622    0.45480    1.000
    C181     C        0.28810    0.50900    0.65110    1.000
    C182     C        0.39960    0.44087    0.27410    1.000
    C183     C        0.42220    0.44040    0.21720    1.000
    H109     H        0.43005    0.46094    0.19799    1.000
    C184     C        0.43310    0.40922    0.18920    1.000
    H110     H        0.44821    0.40890    0.15115    1.000
    C185     C        0.42130    0.37852    0.21790    1.000
    C186     C        0.39870    0.37899    0.27480    1.000
    H111     H        0.39082    0.35845    0.29404    1.000
    C187     C        0.38780    0.41017    0.30280    1.000
    H112     H        0.37266    0.41048    0.34088    1.000
    C188     C        0.43460    0.34480    0.19080    1.000
    N17      N        0.37430    0.53510    0.36360    1.000
    N18      N        0.36980    0.47410    0.36120    1.000
    N19      N        0.40370    0.50300    0.27760    1.000
    O61      O        0.44580    0.68309    0.22080    1.000
    O62      O        0.47390    0.65217    0.14060    1.000
    O63      O        0.28270    0.53790    0.67780    1.000
    O64      O        0.28030    0.47973    0.67890    1.000
    O65      O        0.42497    0.31816    0.22110    1.000
    O66      O        0.45550    0.34753    0.13960    1.000
    O67      O        0.40870    0.73800    0.18020    1.000
    O68      O        0.61100    0.76100    0.06750    1.000
    O69      O        0.46620    0.78010    0.14560    1.000
    O70      O        0.51130    0.76710    0.23440    1.000
    O71      O        0.51010    0.79410    0.05410    1.000
    O72      O        0.55540    0.72040    0.10350    1.000
    O73      O        0.91640    0.73560    0.79180    1.000
    C189     C        0.68250    0.75300    0.06310    1.000
    H113     H        0.67053    0.75522    0.02078    1.000
    N20      N        0.78960    0.74410    0.06270    1.000
    C190     C        0.71810    0.75280    0.06110    1.000
    H114     H        0.72970    0.75456    0.01833    1.000
    C191     C        0.82530    0.74050    0.06510    1.000
    O74      O        0.95480    0.71740    0.87710    1.000
    C192     C        0.92620    0.72730    0.85230    1.000
    C193     C        0.90620    0.71540    0.97500    1.000
    H115     H        0.92666    0.70366    0.98270    1.000
    C194     C        0.88390    0.72150    0.03100    1.000
    H116     H        0.88937    0.71381    0.07608    1.000
    C195     C        0.85330    0.73910    0.01950    1.000
    C196     C        0.84500    0.75060    0.95200    1.000
    H117     H        0.82456    0.76243    0.94435    1.000
    C197     C        0.86740    0.74460    0.89610    1.000
    H118     H        0.86185    0.75228    0.85097    1.000
    C198     C        0.89800    0.72700    0.90760    1.000
    O75      O        0.88120    0.69520    0.75740    1.000
    C199     C        0.89100    0.71680    0.80140    1.000
    C200     C        0.83960    0.71230    0.87850    1.000
    H119     H        0.82896    0.70064    0.84154    1.000
    C201     C        0.82180    0.71860    0.94080    1.000
    H120     H        0.79917    0.71117    0.94552    1.000
    C202     C        0.83770    0.73590    0.99590    1.000
    C203     C        0.87150    0.74700    0.98880    1.000
    H121     H        0.88221    0.75863    0.02574    1.000
    C204     C        0.88940    0.74070    0.92650    1.000
    H122     H        0.91200    0.74810    0.92176    1.000
    C205     C        0.87340    0.72330    0.87130    1.000
    H123     H        0.34625    0.74053    0.16869    1.000
    H124     H        0.34625    0.73633    0.08629    1.000
    H125     H        0.34625    0.77314    0.12002    1.000
    Zr16     Zr       0.96466    0.23637    0.71405    1.000
    Zr17     Zr       0.00987    0.31075    0.66363    1.000
    Zr18     Zr       0.05545    0.26434    0.53631    1.000
    C206     C        0.95270    0.15620    0.69130    1.000
    C207     C        0.91290    0.12545    0.77450    1.000
    H126     H        0.90648    0.14671    0.79274    1.000
    C208     C        0.93710    0.12360    0.72070    1.000
    C209     C        0.94670    0.09183    0.69350    1.000
    H127     H        0.96293    0.09059    0.65742    1.000
    C210     C        0.93210    0.06191    0.72020    1.000
    H128     H        0.93857    0.04065    0.70198    1.000
    C211     C        0.90790    0.06377    0.77410    1.000
    C212     C        0.89830    0.09554    0.80130    1.000
    H129     H        0.88212    0.09678    0.83731    1.000
    C213     C        0.89460    0.03190    0.80670    1.000
    C214     C        0.86100    0.00560    0.88720    1.000
    C215     C        0.88940    0.97420    0.80540    1.000
    C216     C        0.83090    0.97582    0.98540    1.000
    H130     H        0.83567    0.95485    0.96395    1.000
    C217     C        0.81220    0.97675    0.04800    1.000
    H131     H        0.80456    0.95641    0.06850    1.000
    C218     C        0.80500    0.00808    0.08010    1.000
    C219     C        0.81650    0.03848    0.04950    1.000
    H132     H        0.81170    0.05945    0.07100    1.000
    C220     C        0.83510    0.03755    0.98690    1.000
    H133     H        0.84281    0.05789    0.96645    1.000
    C221     C        0.84230    0.00622    0.95480    1.000
    C222     C        0.78810    0.00900    0.15110    1.000
    C223     C        0.89960    0.94087    0.77410    1.000
    C224     C        0.92220    0.94040    0.71720    1.000
    H134     H        0.93005    0.96094    0.69799    1.000
    C225     C        0.93310    0.90922    0.68920    1.000
    H135     H        0.94821    0.90890    0.65115    1.000
    C226     C        0.92130    0.87852    0.71790    1.000
    C227     C        0.89870    0.87899    0.77480    1.000
    H136     H        0.89082    0.85845    0.79404    1.000
    C228     C        0.88780    0.91017    0.80280    1.000
    H137     H        0.87266    0.91048    0.84088    1.000
    C229     C        0.93460    0.84480    0.69080    1.000
    N21      N        0.87430    0.03510    0.86360    1.000
    N22      N        0.86980    0.97410    0.86120    1.000
    N23      N        0.90370    0.00300    0.77760    1.000
    O76      O        0.94580    0.18309    0.72080    1.000
    O77      O        0.97390    0.15217    0.64060    1.000
    O78      O        0.78270    0.03790    0.17780    1.000
    O79      O        0.78030    0.97973    0.17890    1.000
    O80      O        0.92497    0.81816    0.72110    1.000
    O81      O        0.95550    0.84753    0.63960    1.000
    O82      O        0.90870    0.23800    0.68020    1.000
    O83      O        0.11100    0.26100    0.56750    1.000
    O84      O        0.96620    0.28010    0.64560    1.000
    O85      O        0.01130    0.26710    0.73440    1.000
    O86      O        0.01010    0.29410    0.55410    1.000
    O87      O        0.05540    0.22040    0.60350    1.000
    O88      O        0.41640    0.23560    0.29180    1.000
    C230     C        0.18250    0.25300    0.56310    1.000
    H138     H        0.17053    0.25522    0.52078    1.000
    N24      N        0.28960    0.24410    0.56270    1.000
    C231     C        0.21810    0.25280    0.56110    1.000
    H139     H        0.22970    0.25456    0.51833    1.000
    C232     C        0.32530    0.24050    0.56510    1.000
    O89      O        0.45480    0.21740    0.37710    1.000
    C233     C        0.42620    0.22730    0.35230    1.000
    C234     C        0.40620    0.21540    0.47500    1.000
    H140     H        0.42666    0.20366    0.48270    1.000
    C235     C        0.38390    0.22150    0.53100    1.000
    H141     H        0.38937    0.21381    0.57608    1.000
    C236     C        0.35330    0.23910    0.51950    1.000
    C237     C        0.34500    0.25060    0.45200    1.000
    H142     H        0.32456    0.26243    0.44435    1.000
    C238     C        0.36740    0.24460    0.39610    1.000
    H143     H        0.36185    0.25228    0.35097    1.000
    C239     C        0.39800    0.22700    0.40760    1.000
    O90      O        0.38120    0.19520    0.25740    1.000
    C240     C        0.39100    0.21680    0.30140    1.000
    C241     C        0.33960    0.21230    0.37850    1.000
    H144     H        0.32896    0.20064    0.34154    1.000
    C242     C        0.32180    0.21860    0.44080    1.000
    H145     H        0.29917    0.21117    0.44552    1.000
    C243     C        0.33770    0.23590    0.49590    1.000
    C244     C        0.37150    0.24700    0.48880    1.000
    H146     H        0.38221    0.25863    0.52574    1.000
    C245     C        0.38940    0.24070    0.42650    1.000
    H147     H        0.41200    0.24810    0.42176    1.000
    C246     C        0.37340    0.22330    0.37130    1.000
    H148     H        0.84625    0.24053    0.66869    1.000
    H149     H        0.84625    0.23633    0.58629    1.000
    H150     H        0.84625    0.27314    0.62002    1.000
    Zr19     Zr       0.53534    0.26363    0.21405    1.000
    Zr20     Zr       0.49013    0.18925    0.16363    1.000
    Zr21     Zr       0.44455    0.23566    0.03631    1.000
    C247     C        0.54730    0.34380    0.19130    1.000
    C248     C        0.58710    0.37455    0.27450    1.000
    H151     H        0.59352    0.35329    0.29274    1.000
    C249     C        0.56290    0.37640    0.22070    1.000
    C250     C        0.55330    0.40817    0.19350    1.000
    H152     H        0.53707    0.40941    0.15742    1.000
    C251     C        0.56790    0.43809    0.22020    1.000
    H153     H        0.56143    0.45935    0.20198    1.000
    C252     C        0.59210    0.43623    0.27410    1.000
    C253     C        0.60170    0.40446    0.30130    1.000
    H154     H        0.61788    0.40322    0.33731    1.000
    C254     C        0.60540    0.46810    0.30670    1.000
    C255     C        0.63900    0.49440    0.38720    1.000
    C256     C        0.61060    0.52580    0.30540    1.000
    C257     C        0.66910    0.52418    0.48540    1.000
    H155     H        0.66433    0.54515    0.46395    1.000
    C258     C        0.68780    0.52325    0.54800    1.000
    H156     H        0.69544    0.54359    0.56850    1.000
    C259     C        0.69500    0.49192    0.58010    1.000
    C260     C        0.68350    0.46152    0.54950    1.000
    H157     H        0.68830    0.44055    0.57100    1.000
    C261     C        0.66490    0.46245    0.48690    1.000
    H158     H        0.65719    0.44211    0.46645    1.000
    C262     C        0.65770    0.49378    0.45480    1.000
    C263     C        0.71190    0.49100    0.65110    1.000
    C264     C        0.60040    0.55913    0.27410    1.000
    C265     C        0.57780    0.55960    0.21720    1.000
    H159     H        0.56995    0.53906    0.19799    1.000
    C266     C        0.56690    0.59078    0.18920    1.000
    H160     H        0.55179    0.59110    0.15115    1.000
    C267     C        0.57870    0.62148    0.21790    1.000
    C268     C        0.60130    0.62101    0.27480    1.000
    H161     H        0.60918    0.64155    0.29404    1.000
    C269     C        0.61220    0.58983    0.30280    1.000
    H162     H        0.62734    0.58952    0.34088    1.000
    C270     C        0.56540    0.65520    0.19080    1.000
    N25      N        0.62570    0.46490    0.36360    1.000
    N26      N        0.63020    0.52590    0.36120    1.000
    N27      N        0.59630    0.49700    0.27760    1.000
    O91      O        0.55420    0.31691    0.22080    1.000
    O92      O        0.52610    0.34783    0.14060    1.000
    O93      O        0.71730    0.46210    0.67780    1.000
    O94      O        0.71970    0.52027    0.67890    1.000
    O95      O        0.57503    0.68184    0.22110    1.000
    O96      O        0.54450    0.65247    0.13960    1.000
    O97      O        0.59130    0.26200    0.18020    1.000
    O98      O        0.38900    0.23900    0.06750    1.000
    O99      O        0.53380    0.21990    0.14560    1.000
    O100     O        0.48870    0.23290    0.23440    1.000
    O101     O        0.48990    0.20590    0.05410    1.000
    O102     O        0.44460    0.27960    0.10350    1.000
    O103     O        0.08360    0.26440    0.79180    1.000
    C271     C        0.31750    0.24700    0.06310    1.000
    H163     H        0.32947    0.24478    0.02078    1.000
    N28      N        0.21040    0.25590    0.06270    1.000
    C272     C        0.28190    0.24720    0.06110    1.000
    H164     H        0.27030    0.24544    0.01833    1.000
    C273     C        0.17470    0.25950    0.06510    1.000
    O104     O        0.04520    0.28260    0.87710    1.000
    C274     C        0.07380    0.27270    0.85230    1.000
    C275     C        0.09380    0.28460    0.97500    1.000
    H165     H        0.07334    0.29634    0.98270    1.000
    C276     C        0.11610    0.27850    0.03100    1.000
    H166     H        0.11063    0.28619    0.07608    1.000
    C277     C        0.14670    0.26090    0.01950    1.000
    C278     C        0.15500    0.24940    0.95200    1.000
    H167     H        0.17544    0.23757    0.94435    1.000
    C279     C        0.13260    0.25540    0.89610    1.000
    H168     H        0.13815    0.24772    0.85097    1.000
    C280     C        0.10200    0.27300    0.90760    1.000
    O105     O        0.11880    0.30480    0.75740    1.000
    C281     C        0.10900    0.28320    0.80140    1.000
    C282     C        0.16040    0.28770    0.87850    1.000
    H169     H        0.17104    0.29936    0.84154    1.000
    C283     C        0.17820    0.28140    0.94080    1.000
    H170     H        0.20083    0.28883    0.94552    1.000
    C284     C        0.16230    0.26410    0.99590    1.000
    C285     C        0.12850    0.25300    0.98880    1.000
    H171     H        0.11779    0.24137    0.02574    1.000
    C286     C        0.11060    0.25930    0.92650    1.000
    H172     H        0.08800    0.25190    0.92176    1.000
    C287     C        0.12660    0.27670    0.87130    1.000
    H173     H        0.65375    0.25947    0.16869    1.000
    H174     H        0.65375    0.26367    0.08629    1.000
    H175     H        0.65375    0.22686    0.12002    1.000
    Zr22     Zr       0.03534    0.76363    0.71405    1.000
    Zr23     Zr       0.99013    0.68925    0.66363    1.000
    Zr24     Zr       0.94455    0.73566    0.53631    1.000
    C288     C        0.04730    0.84380    0.69130    1.000
    C289     C        0.08710    0.87455    0.77450    1.000
    H176     H        0.09352    0.85329    0.79274    1.000
    C290     C        0.06290    0.87640    0.72070    1.000
    C291     C        0.05330    0.90817    0.69350    1.000
    H177     H        0.03707    0.90941    0.65742    1.000
    C292     C        0.06790    0.93809    0.72020    1.000
    H178     H        0.06143    0.95935    0.70198    1.000
    C293     C        0.09210    0.93623    0.77410    1.000
    C294     C        0.10170    0.90446    0.80130    1.000
    H179     H        0.11788    0.90322    0.83731    1.000
    C295     C        0.10540    0.96810    0.80670    1.000
    C296     C        0.13900    0.99440    0.88720    1.000
    C297     C        0.11060    0.02580    0.80540    1.000
    C298     C        0.16910    0.02418    0.98540    1.000
    H180     H        0.16433    0.04515    0.96395    1.000
    C299     C        0.18780    0.02325    0.04800    1.000
    H181     H        0.19544    0.04359    0.06850    1.000
    C300     C        0.19500    0.99192    0.08010    1.000
    C301     C        0.18350    0.96152    0.04950    1.000
    H182     H        0.18830    0.94055    0.07100    1.000
    C302     C        0.16490    0.96245    0.98690    1.000
    H183     H        0.15719    0.94211    0.96645    1.000
    C303     C        0.15770    0.99378    0.95480    1.000
    C304     C        0.21190    0.99100    0.15110    1.000
    C305     C        0.10040    0.05913    0.77410    1.000
    C306     C        0.07780    0.05960    0.71720    1.000
    H184     H        0.06995    0.03906    0.69799    1.000
    C307     C        0.06690    0.09078    0.68920    1.000
    H185     H        0.05179    0.09110    0.65115    1.000
    C308     C        0.07870    0.12148    0.71790    1.000
    C309     C        0.10130    0.12101    0.77480    1.000
    H186     H        0.10918    0.14155    0.79404    1.000
    C310     C        0.11220    0.08983    0.80280    1.000
    H187     H        0.12734    0.08952    0.84088    1.000
    C311     C        0.06540    0.15520    0.69080    1.000
    N29      N        0.12570    0.96490    0.86360    1.000
    N30      N        0.13020    0.02590    0.86120    1.000
    N31      N        0.09630    0.99700    0.77760    1.000
    O106     O        0.05420    0.81691    0.72080    1.000
    O107     O        0.02610    0.84783    0.64060    1.000
    O108     O        0.21730    0.96210    0.17780    1.000
    O109     O        0.21970    0.02027    0.17890    1.000
    O110     O        0.07503    0.18184    0.72110    1.000
    O111     O        0.04450    0.15247    0.63960    1.000
    O112     O        0.09130    0.76200    0.68020    1.000
    O113     O        0.88900    0.73900    0.56750    1.000
    O114     O        0.03380    0.71990    0.64560    1.000
    O115     O        0.98870    0.73290    0.73440    1.000
    O116     O        0.98990    0.70590    0.55410    1.000
    O117     O        0.94460    0.77960    0.60350    1.000
    O118     O        0.58360    0.76440    0.29180    1.000
    C312     C        0.81750    0.74700    0.56310    1.000
    H188     H        0.82947    0.74478    0.52078    1.000
    N32      N        0.71040    0.75590    0.56270    1.000
    C313     C        0.78190    0.74720    0.56110    1.000
    H189     H        0.77030    0.74544    0.51833    1.000
    C314     C        0.67470    0.75950    0.56510    1.000
    O119     O        0.54520    0.78260    0.37710    1.000
    C315     C        0.57380    0.77270    0.35230    1.000
    C316     C        0.59380    0.78460    0.47500    1.000
    H190     H        0.57334    0.79634    0.48270    1.000
    C317     C        0.61610    0.77850    0.53100    1.000
    H191     H        0.61063    0.78619    0.57608    1.000
    C318     C        0.64670    0.76090    0.51950    1.000
    C319     C        0.65500    0.74940    0.45200    1.000
    H192     H        0.67544    0.73757    0.44435    1.000
    C320     C        0.63260    0.75540    0.39610    1.000
    H193     H        0.63815    0.74772    0.35097    1.000
    C321     C        0.60200    0.77300    0.40760    1.000
    O120     O        0.61880    0.80480    0.25740    1.000
    C322     C        0.60900    0.78320    0.30140    1.000
    C323     C        0.66040    0.78770    0.37850    1.000
    H194     H        0.67104    0.79936    0.34154    1.000
    C324     C        0.67820    0.78140    0.44080    1.000
    H195     H        0.70083    0.78883    0.44552    1.000
    C325     C        0.66230    0.76410    0.49590    1.000
    C326     C        0.62850    0.75300    0.48880    1.000
    H196     H        0.61779    0.74137    0.52574    1.000
    C327     C        0.61060    0.75930    0.42650    1.000
    H197     H        0.58800    0.75190    0.42176    1.000
    C328     C        0.62660    0.77670    0.37130    1.000
    H198     H        0.15375    0.75947    0.66869    1.000
    H199     H        0.15375    0.76367    0.58629    1.000
    H200     H        0.15375    0.72686    0.62002    1.000
    Zr25     Zr       0.23637    0.46466    0.96405    1.000
    Zr26     Zr       0.31075    0.50987    0.91363    1.000
    Zr27     Zr       0.26434    0.55545    0.78631    1.000
    C329     C        0.15620    0.45270    0.94130    1.000
    C330     C        0.12545    0.41290    0.02450    1.000
    H201     H        0.14671    0.40648    0.04274    1.000
    C331     C        0.12360    0.43710    0.97070    1.000
    C332     C        0.09183    0.44670    0.94350    1.000
    H202     H        0.09059    0.46293    0.90742    1.000
    C333     C        0.06191    0.43210    0.97020    1.000
    H203     H        0.04065    0.43857    0.95198    1.000
    C334     C        0.06377    0.40790    0.02410    1.000
    C335     C        0.09554    0.39830    0.05130    1.000
    H204     H        0.09678    0.38212    0.08731    1.000
    C336     C        0.03190    0.39460    0.05670    1.000
    C337     C        0.00560    0.36100    0.13720    1.000
    C338     C        0.97420    0.38940    0.05540    1.000
    C339     C        0.97582    0.33090    0.23540    1.000
    H205     H        0.95485    0.33567    0.21395    1.000
    C340     C        0.97675    0.31220    0.29800    1.000
    H206     H        0.95641    0.30456    0.31850    1.000
    C341     C        0.00808    0.30500    0.33010    1.000
    C342     C        0.03848    0.31650    0.29950    1.000
    H207     H        0.05945    0.31170    0.32100    1.000
    C343     C        0.03755    0.33510    0.23690    1.000
    H208     H        0.05789    0.34281    0.21645    1.000
    C344     C        0.00622    0.34230    0.20480    1.000
    C345     C        0.00900    0.28810    0.40110    1.000
    C346     C        0.94087    0.39960    0.02410    1.000
    C347     C        0.94040    0.42220    0.96720    1.000
    H209     H        0.96094    0.43005    0.94799    1.000
    C348     C        0.90922    0.43310    0.93920    1.000
    H210     H        0.90890    0.44821    0.90115    1.000
    C349     C        0.87852    0.42130    0.96790    1.000
    C350     C        0.87899    0.39870    0.02480    1.000
    H211     H        0.85845    0.39082    0.04404    1.000
    C351     C        0.91017    0.38780    0.05280    1.000
    H212     H        0.91048    0.37266    0.09088    1.000
    C352     C        0.84480    0.43460    0.94080    1.000
    N33      N        0.03510    0.37430    0.11360    1.000
    N34      N        0.97410    0.36980    0.11120    1.000
    N35      N        0.00300    0.40370    0.02760    1.000
    O121     O        0.18309    0.44580    0.97080    1.000
    O122     O        0.15217    0.47390    0.89060    1.000
    O123     O        0.03790    0.28270    0.42780    1.000
    O124     O        0.97973    0.28030    0.42890    1.000
    O125     O        0.81816    0.42497    0.97110    1.000
    O126     O        0.84753    0.45550    0.88960    1.000
    O127     O        0.23800    0.40870    0.93020    1.000
    O128     O        0.26100    0.61100    0.81750    1.000
    O129     O        0.28010    0.46620    0.89560    1.000
    O130     O        0.26710    0.51130    0.98440    1.000
    O131     O        0.29410    0.51010    0.80410    1.000
    O132     O        0.22040    0.55540    0.85350    1.000
    O133     O        0.23560    0.91640    0.54180    1.000
    C353     C        0.25300    0.68250    0.81310    1.000
    H213     H        0.25522    0.67053    0.77078    1.000
    N36      N        0.24410    0.78960    0.81270    1.000
    C354     C        0.25280    0.71810    0.81110    1.000
    H214     H        0.25456    0.72970    0.76833    1.000
    C355     C        0.24050    0.82530    0.81510    1.000
    O134     O        0.21740    0.95480    0.62710    1.000
    C356     C        0.22730    0.92620    0.60230    1.000
    C357     C        0.21540    0.90620    0.72500    1.000
    H215     H        0.20366    0.92666    0.73270    1.000
    C358     C        0.22150    0.88390    0.78100    1.000
    H216     H        0.21381    0.88937    0.82608    1.000
    C359     C        0.23910    0.85330    0.76950    1.000
    C360     C        0.25060    0.84500    0.70200    1.000
    H217     H        0.26243    0.82456    0.69435    1.000
    C361     C        0.24460    0.86740    0.64610    1.000
    H218     H        0.25228    0.86185    0.60097    1.000
    C362     C        0.22700    0.89800    0.65760    1.000
    O135     O        0.19520    0.88120    0.50740    1.000
    C363     C        0.21680    0.89100    0.55140    1.000
    C364     C        0.21230    0.83960    0.62850    1.000
    H219     H        0.20064    0.82896    0.59154    1.000
    C365     C        0.21860    0.82180    0.69080    1.000
    H220     H        0.21117    0.79917    0.69552    1.000
    C366     C        0.23590    0.83770    0.74590    1.000
    C367     C        0.24700    0.87150    0.73880    1.000
    H221     H        0.25863    0.88221    0.77574    1.000
    C368     C        0.24070    0.88940    0.67650    1.000
    H222     H        0.24810    0.91200    0.67176    1.000
    C369     C        0.22330    0.87340    0.62130    1.000
    H223     H        0.24053    0.34625    0.91869    1.000
    H224     H        0.23633    0.34625    0.83629    1.000
    H225     H        0.27314    0.34625    0.87002    1.000
    Zr28     Zr       0.73637    0.96466    0.46405    1.000
    Zr29     Zr       0.81075    0.00987    0.41363    1.000
    Zr30     Zr       0.76434    0.05545    0.28631    1.000
    C370     C        0.65620    0.95270    0.44130    1.000
    C371     C        0.62545    0.91290    0.52450    1.000
    H226     H        0.64671    0.90648    0.54274    1.000
    C372     C        0.62360    0.93710    0.47070    1.000
    C373     C        0.59183    0.94670    0.44350    1.000
    H227     H        0.59059    0.96293    0.40742    1.000
    C374     C        0.56191    0.93210    0.47020    1.000
    H228     H        0.54065    0.93857    0.45198    1.000
    C375     C        0.56377    0.90790    0.52410    1.000
    C376     C        0.59554    0.89830    0.55130    1.000
    H229     H        0.59678    0.88212    0.58731    1.000
    C377     C        0.53190    0.89460    0.55670    1.000
    C378     C        0.50560    0.86100    0.63720    1.000
    C379     C        0.47420    0.88940    0.55540    1.000
    C380     C        0.47582    0.83090    0.73540    1.000
    H230     H        0.45485    0.83567    0.71395    1.000
    C381     C        0.47675    0.81220    0.79800    1.000
    H231     H        0.45641    0.80456    0.81850    1.000
    C382     C        0.50808    0.80500    0.83010    1.000
    C383     C        0.53848    0.81650    0.79950    1.000
    H232     H        0.55945    0.81170    0.82100    1.000
    C384     C        0.53755    0.83510    0.73690    1.000
    H233     H        0.55789    0.84281    0.71645    1.000
    C385     C        0.50622    0.84230    0.70480    1.000
    C386     C        0.50900    0.78810    0.90110    1.000
    C387     C        0.44087    0.89960    0.52410    1.000
    C388     C        0.44040    0.92220    0.46720    1.000
    H234     H        0.46094    0.93005    0.44799    1.000
    C389     C        0.40922    0.93310    0.43920    1.000
    H235     H        0.40890    0.94821    0.40115    1.000
    C390     C        0.37852    0.92130    0.46790    1.000
    C391     C        0.37899    0.89870    0.52480    1.000
    H236     H        0.35845    0.89082    0.54404    1.000
    C392     C        0.41017    0.88780    0.55280    1.000
    H237     H        0.41048    0.87266    0.59088    1.000
    C393     C        0.34480    0.93460    0.44080    1.000
    N37      N        0.53510    0.87430    0.61360    1.000
    N38      N        0.47410    0.86980    0.61120    1.000
    N39      N        0.50300    0.90370    0.52760    1.000
    O136     O        0.68309    0.94580    0.47080    1.000
    O137     O        0.65217    0.97390    0.39060    1.000
    O138     O        0.53790    0.78270    0.92780    1.000
    O139     O        0.47973    0.78030    0.92890    1.000
    O140     O        0.31816    0.92497    0.47110    1.000
    O141     O        0.34753    0.95550    0.38960    1.000
    O142     O        0.73800    0.90870    0.43020    1.000
    O143     O        0.76100    0.11100    0.31750    1.000
    O144     O        0.78010    0.96620    0.39560    1.000
    O145     O        0.76710    0.01130    0.48440    1.000
    O146     O        0.79410    0.01010    0.30410    1.000
    O147     O        0.72040    0.05540    0.35350    1.000
    O148     O        0.73560    0.41640    0.04180    1.000
    C394     C        0.75300    0.18250    0.31310    1.000
    H238     H        0.75522    0.17053    0.27078    1.000
    N40      N        0.74410    0.28960    0.31270    1.000
    C395     C        0.75280    0.21810    0.31110    1.000
    H239     H        0.75456    0.22970    0.26833    1.000
    C396     C        0.74050    0.32530    0.31510    1.000
    O149     O        0.71740    0.45480    0.12710    1.000
    C397     C        0.72730    0.42620    0.10230    1.000
    C398     C        0.71540    0.40620    0.22500    1.000
    H240     H        0.70366    0.42666    0.23270    1.000
    C399     C        0.72150    0.38390    0.28100    1.000
    H241     H        0.71381    0.38937    0.32608    1.000
    C400     C        0.73910    0.35330    0.26950    1.000
    C401     C        0.75060    0.34500    0.20200    1.000
    H242     H        0.76243    0.32456    0.19435    1.000
    C402     C        0.74460    0.36740    0.14610    1.000
    H243     H        0.75228    0.36185    0.10097    1.000
    C403     C        0.72700    0.39800    0.15760    1.000
    O150     O        0.69520    0.38120    0.00740    1.000
    C404     C        0.71680    0.39100    0.05140    1.000
    C405     C        0.71230    0.33960    0.12850    1.000
    H244     H        0.70064    0.32896    0.09154    1.000
    C406     C        0.71860    0.32180    0.19080    1.000
    H245     H        0.71117    0.29917    0.19552    1.000
    C407     C        0.73590    0.33770    0.24590    1.000
    C408     C        0.74700    0.37150    0.23880    1.000
    H246     H        0.75863    0.38221    0.27574    1.000
    C409     C        0.74070    0.38940    0.17650    1.000
    H247     H        0.74810    0.41200    0.17176    1.000
    C410     C        0.72330    0.37340    0.12130    1.000
    H248     H        0.74053    0.84625    0.41869    1.000
    H249     H        0.73633    0.84625    0.33629    1.000
    H250     H        0.77314    0.84625    0.37002    1.000
    Zr31     Zr       0.76363    0.53534    0.96405    1.000
    Zr32     Zr       0.68925    0.49013    0.91363    1.000
    Zr33     Zr       0.73566    0.44455    0.78631    1.000
    C411     C        0.84380    0.54730    0.94130    1.000
    C412     C        0.87455    0.58710    0.02450    1.000
    H251     H        0.85329    0.59352    0.04274    1.000
    C413     C        0.87640    0.56290    0.97070    1.000
    C414     C        0.90817    0.55330    0.94350    1.000
    H252     H        0.90941    0.53707    0.90742    1.000
    C415     C        0.93809    0.56790    0.97020    1.000
    H253     H        0.95935    0.56143    0.95198    1.000
    C416     C        0.93623    0.59210    0.02410    1.000
    C417     C        0.90446    0.60170    0.05130    1.000
    H254     H        0.90322    0.61788    0.08731    1.000
    C418     C        0.96810    0.60540    0.05670    1.000
    C419     C        0.99440    0.63900    0.13720    1.000
    C420     C        0.02580    0.61060    0.05540    1.000
    C421     C        0.02418    0.66910    0.23540    1.000
    H255     H        0.04515    0.66433    0.21395    1.000
    C422     C        0.02325    0.68780    0.29800    1.000
    H256     H        0.04359    0.69544    0.31850    1.000
    C423     C        0.99192    0.69500    0.33010    1.000
    C424     C        0.96152    0.68350    0.29950    1.000
    H257     H        0.94055    0.68830    0.32100    1.000
    C425     C        0.96245    0.66490    0.23690    1.000
    H258     H        0.94211    0.65719    0.21645    1.000
    C426     C        0.99378    0.65770    0.20480    1.000
    C427     C        0.99100    0.71190    0.40110    1.000
    C428     C        0.05913    0.60040    0.02410    1.000
    C429     C        0.05960    0.57780    0.96720    1.000
    H259     H        0.03906    0.56995    0.94799    1.000
    C430     C        0.09078    0.56690    0.93920    1.000
    H260     H        0.09110    0.55179    0.90115    1.000
    C431     C        0.12148    0.57870    0.96790    1.000
    C432     C        0.12101    0.60130    0.02480    1.000
    H261     H        0.14155    0.60918    0.04404    1.000
    C433     C        0.08983    0.61220    0.05280    1.000
    H262     H        0.08952    0.62734    0.09088    1.000
    C434     C        0.15520    0.56540    0.94080    1.000
    N41      N        0.96490    0.62570    0.11360    1.000
    N42      N        0.02590    0.63020    0.11120    1.000
    N43      N        0.99700    0.59630    0.02760    1.000
    O151     O        0.81691    0.55420    0.97080    1.000
    O152     O        0.84783    0.52610    0.89060    1.000
    O153     O        0.96210    0.71730    0.42780    1.000
    O154     O        0.02027    0.71970    0.42890    1.000
    O155     O        0.18184    0.57503    0.97110    1.000
    O156     O        0.15247    0.54450    0.88960    1.000
    O157     O        0.76200    0.59130    0.93020    1.000
    O158     O        0.73900    0.38900    0.81750    1.000
    O159     O        0.71990    0.53380    0.89560    1.000
    O160     O        0.73290    0.48870    0.98440    1.000
    O161     O        0.70590    0.48990    0.80410    1.000
    O162     O        0.77960    0.44460    0.85350    1.000
    O163     O        0.76440    0.08360    0.54180    1.000
    C435     C        0.74700    0.31750    0.81310    1.000
    H263     H        0.74478    0.32947    0.77078    1.000
    N44      N        0.75590    0.21040    0.81270    1.000
    C436     C        0.74720    0.28190    0.81110    1.000
    H264     H        0.74544    0.27030    0.76833    1.000
    C437     C        0.75950    0.17470    0.81510    1.000
    O164     O        0.78260    0.04520    0.62710    1.000
    C438     C        0.77270    0.07380    0.60230    1.000
    C439     C        0.78460    0.09380    0.72500    1.000
    H265     H        0.79634    0.07334    0.73270    1.000
    C440     C        0.77850    0.11610    0.78100    1.000
    H266     H        0.78619    0.11063    0.82608    1.000
    C441     C        0.76090    0.14670    0.76950    1.000
    C442     C        0.74940    0.15500    0.70200    1.000
    H267     H        0.73757    0.17544    0.69435    1.000
    C443     C        0.75540    0.13260    0.64610    1.000
    H268     H        0.74772    0.13815    0.60097    1.000
    C444     C        0.77300    0.10200    0.65760    1.000
    O165     O        0.80480    0.11880    0.50740    1.000
    C445     C        0.78320    0.10900    0.55140    1.000
    C446     C        0.78770    0.16040    0.62850    1.000
    H269     H        0.79936    0.17104    0.59154    1.000
    C447     C        0.78140    0.17820    0.69080    1.000
    H270     H        0.78883    0.20083    0.69552    1.000
    C448     C        0.76410    0.16230    0.74590    1.000
    C449     C        0.75300    0.12850    0.73880    1.000
    H271     H        0.74137    0.11779    0.77574    1.000
    C450     C        0.75930    0.11060    0.67650    1.000
    H272     H        0.75190    0.08800    0.67176    1.000
    C451     C        0.77670    0.12660    0.62130    1.000
    H273     H        0.75947    0.65375    0.91869    1.000
    H274     H        0.76367    0.65375    0.83629    1.000
    H275     H        0.72686    0.65375    0.87002    1.000
    Zr34     Zr       0.26363    0.03534    0.46405    1.000
    Zr35     Zr       0.18925    0.99013    0.41363    1.000
    Zr36     Zr       0.23566    0.94455    0.28631    1.000
    C452     C        0.34380    0.04730    0.44130    1.000
    C453     C        0.37455    0.08710    0.52450    1.000
    H276     H        0.35329    0.09352    0.54274    1.000
    C454     C        0.37640    0.06290    0.47070    1.000
    C455     C        0.40817    0.05330    0.44350    1.000
    H277     H        0.40941    0.03707    0.40742    1.000
    C456     C        0.43809    0.06790    0.47020    1.000
    H278     H        0.45935    0.06143    0.45198    1.000
    C457     C        0.43623    0.09210    0.52410    1.000
    C458     C        0.40446    0.10170    0.55130    1.000
    H279     H        0.40322    0.11788    0.58731    1.000
    C459     C        0.46810    0.10540    0.55670    1.000
    C460     C        0.49440    0.13900    0.63720    1.000
    C461     C        0.52580    0.11060    0.55540    1.000
    C462     C        0.52418    0.16910    0.73540    1.000
    H280     H        0.54515    0.16433    0.71395    1.000
    C463     C        0.52325    0.18780    0.79800    1.000
    H281     H        0.54359    0.19544    0.81850    1.000
    C464     C        0.49192    0.19500    0.83010    1.000
    C465     C        0.46152    0.18350    0.79950    1.000
    H282     H        0.44055    0.18830    0.82100    1.000
    C466     C        0.46245    0.16490    0.73690    1.000
    H283     H        0.44211    0.15719    0.71645    1.000
    C467     C        0.49378    0.15770    0.70480    1.000
    C468     C        0.49100    0.21190    0.90110    1.000
    C469     C        0.55913    0.10040    0.52410    1.000
    C470     C        0.55960    0.07780    0.46720    1.000
    H284     H        0.53906    0.06995    0.44799    1.000
    C471     C        0.59078    0.06690    0.43920    1.000
    H285     H        0.59110    0.05179    0.40115    1.000
    C472     C        0.62148    0.07870    0.46790    1.000
    C473     C        0.62101    0.10130    0.52480    1.000
    H286     H        0.64155    0.10918    0.54404    1.000
    C474     C        0.58983    0.11220    0.55280    1.000
    H287     H        0.58952    0.12734    0.59088    1.000
    C475     C        0.65520    0.06540    0.44080    1.000
    N45      N        0.46490    0.12570    0.61360    1.000
    N46      N        0.52590    0.13020    0.61120    1.000
    N47      N        0.49700    0.09630    0.52760    1.000
    O166     O        0.31691    0.05420    0.47080    1.000
    O167     O        0.34783    0.02610    0.39060    1.000
    O168     O        0.46210    0.21730    0.92780    1.000
    O169     O        0.52027    0.21970    0.92890    1.000
    O170     O        0.68184    0.07503    0.47110    1.000
    O171     O        0.65247    0.04450    0.38960    1.000
    O172     O        0.26200    0.09130    0.43020    1.000
    O173     O        0.23900    0.88900    0.31750    1.000
    O174     O        0.21990    0.03380    0.39560    1.000
    O175     O        0.23290    0.98870    0.48440    1.000
    O176     O        0.20590    0.98990    0.30410    1.000
    O177     O        0.27960    0.94460    0.35350    1.000
    O178     O        0.26440    0.58360    0.04180    1.000
    C476     C        0.24700    0.81750    0.31310    1.000
    H288     H        0.24478    0.82947    0.27078    1.000
    N48      N        0.25590    0.71040    0.31270    1.000
    C477     C        0.24720    0.78190    0.31110    1.000
    H289     H        0.24544    0.77030    0.26833    1.000
    C478     C        0.25950    0.67470    0.31510    1.000
    O179     O        0.28260    0.54520    0.12710    1.000
    C479     C        0.27270    0.57380    0.10230    1.000
    C480     C        0.28460    0.59380    0.22500    1.000
    H290     H        0.29634    0.57334    0.23270    1.000
    C481     C        0.27850    0.61610    0.28100    1.000
    H291     H        0.28619    0.61063    0.32608    1.000
    C482     C        0.26090    0.64670    0.26950    1.000
    C483     C        0.24940    0.65500    0.20200    1.000
    H292     H        0.23757    0.67544    0.19435    1.000
    C484     C        0.25540    0.63260    0.14610    1.000
    H293     H        0.24772    0.63815    0.10097    1.000
    C485     C        0.27300    0.60200    0.15760    1.000
    O180     O        0.30480    0.61880    0.00740    1.000
    C486     C        0.28320    0.60900    0.05140    1.000
    C487     C        0.28770    0.66040    0.12850    1.000
    H294     H        0.29936    0.67104    0.09154    1.000
    C488     C        0.28140    0.67820    0.19080    1.000
    H295     H        0.28883    0.70083    0.19552    1.000
    C489     C        0.26410    0.66230    0.24590    1.000
    C490     C        0.25300    0.62850    0.23880    1.000
    H296     H        0.24137    0.61779    0.27574    1.000
    C491     C        0.25930    0.61060    0.17650    1.000
    H297     H        0.25190    0.58800    0.17176    1.000
    C492     C        0.27670    0.62660    0.12130    1.000
    H298     H        0.25947    0.15375    0.41869    1.000
    H299     H        0.26367    0.15375    0.33629    1.000
    H300     H        0.22686    0.15375    0.37002    1.000
    Zr37     Zr       0.03534    0.73637    0.53595    1.000
    Zr38     Zr       0.99013    0.81075    0.58637    1.000
    Zr39     Zr       0.94455    0.76434    0.71369    1.000
    C493     C        0.04730    0.65620    0.55870    1.000
    C494     C        0.08710    0.62545    0.47550    1.000
    H301     H        0.09352    0.64671    0.45726    1.000
    C495     C        0.06290    0.62360    0.52930    1.000
    C496     C        0.05330    0.59183    0.55650    1.000
    H302     H        0.03707    0.59059    0.59258    1.000
    C497     C        0.06790    0.56191    0.52980    1.000
    H303     H        0.06143    0.54065    0.54802    1.000
    C498     C        0.09210    0.56377    0.47590    1.000
    C499     C        0.10170    0.59554    0.44870    1.000
    H304     H        0.11788    0.59678    0.41269    1.000
    C500     C        0.10540    0.53190    0.44330    1.000
    C501     C        0.13900    0.50560    0.36280    1.000
    C502     C        0.11060    0.47420    0.44460    1.000
    C503     C        0.16910    0.47582    0.26460    1.000
    H305     H        0.16433    0.45485    0.28605    1.000
    C504     C        0.18780    0.47675    0.20200    1.000
    H306     H        0.19544    0.45641    0.18150    1.000
    C505     C        0.19500    0.50808    0.16990    1.000
    C506     C        0.18350    0.53848    0.20050    1.000
    H307     H        0.18830    0.55945    0.17900    1.000
    C507     C        0.16490    0.53755    0.26310    1.000
    H308     H        0.15719    0.55789    0.28355    1.000
    C508     C        0.15770    0.50622    0.29520    1.000
    C509     C        0.21190    0.50900    0.09890    1.000
    C510     C        0.10040    0.44087    0.47590    1.000
    C511     C        0.07780    0.44040    0.53280    1.000
    H309     H        0.06995    0.46094    0.55201    1.000
    C512     C        0.06690    0.40922    0.56080    1.000
    H310     H        0.05179    0.40890    0.59885    1.000
    C513     C        0.07870    0.37852    0.53210    1.000
    C514     C        0.10130    0.37899    0.47520    1.000
    H311     H        0.10918    0.35845    0.45596    1.000
    C515     C        0.11220    0.41017    0.44720    1.000
    H312     H        0.12734    0.41048    0.40912    1.000
    C516     C        0.06540    0.34480    0.55920    1.000
    N49      N        0.12570    0.53510    0.38640    1.000
    N50      N        0.13020    0.47410    0.38880    1.000
    N51      N        0.09630    0.50300    0.47240    1.000
    O181     O        0.05420    0.68309    0.52920    1.000
    O182     O        0.02610    0.65217    0.60940    1.000
    O183     O        0.21730    0.53790    0.07220    1.000
    O184     O        0.21970    0.47973    0.07110    1.000
    O185     O        0.07503    0.31816    0.52890    1.000
    O186     O        0.04450    0.34753    0.61040    1.000
    O187     O        0.09130    0.73800    0.56980    1.000
    O188     O        0.88900    0.76100    0.68250    1.000
    O189     O        0.03380    0.78010    0.60440    1.000
    O190     O        0.98870    0.76710    0.51560    1.000
    O191     O        0.98990    0.79410    0.69590    1.000
    O192     O        0.94460    0.72040    0.64650    1.000
    O193     O        0.58360    0.73560    0.95820    1.000
    C517     C        0.81750    0.75300    0.68690    1.000
    H313     H        0.82947    0.75522    0.72922    1.000
    N52      N        0.71040    0.74410    0.68730    1.000
    C518     C        0.78190    0.75280    0.68890    1.000
    H314     H        0.77030    0.75456    0.73167    1.000
    C519     C        0.67470    0.74050    0.68490    1.000
    O194     O        0.54520    0.71740    0.87290    1.000
    C520     C        0.57380    0.72730    0.89770    1.000
    C521     C        0.59380    0.71540    0.77500    1.000
    H315     H        0.57334    0.70366    0.76730    1.000
    C522     C        0.61610    0.72150    0.71900    1.000
    H316     H        0.61063    0.71381    0.67392    1.000
    C523     C        0.64670    0.73910    0.73050    1.000
    C524     C        0.65500    0.75060    0.79800    1.000
    H317     H        0.67544    0.76243    0.80565    1.000
    C525     C        0.63260    0.74460    0.85390    1.000
    H318     H        0.63815    0.75228    0.89903    1.000
    C526     C        0.60200    0.72700    0.84240    1.000
    O195     O        0.61880    0.69520    0.99260    1.000
    C527     C        0.60900    0.71680    0.94860    1.000
    C528     C        0.66040    0.71230    0.87150    1.000
    H319     H        0.67104    0.70064    0.90846    1.000
    C529     C        0.67820    0.71860    0.80920    1.000
    H320     H        0.70083    0.71117    0.80448    1.000
    C530     C        0.66230    0.73590    0.75410    1.000
    C531     C        0.62850    0.74700    0.76120    1.000
    H321     H        0.61779    0.75863    0.72426    1.000
    C532     C        0.61060    0.74070    0.82350    1.000
    H322     H        0.58800    0.74810    0.82824    1.000
    C533     C        0.62660    0.72330    0.87870    1.000
    H323     H        0.15375    0.74053    0.58131    1.000
    H324     H        0.15375    0.73633    0.66371    1.000
    H325     H        0.15375    0.77314    0.62998    1.000
    Zr40     Zr       0.53534    0.23637    0.03595    1.000
    Zr41     Zr       0.49013    0.31075    0.08637    1.000
    Zr42     Zr       0.44455    0.26434    0.21369    1.000
    C534     C        0.54730    0.15620    0.05870    1.000
    C535     C        0.58710    0.12545    0.97550    1.000
    H326     H        0.59352    0.14671    0.95726    1.000
    C536     C        0.56290    0.12360    0.02930    1.000
    C537     C        0.55330    0.09183    0.05650    1.000
    H327     H        0.53707    0.09059    0.09258    1.000
    C538     C        0.56790    0.06191    0.02980    1.000
    H328     H        0.56143    0.04065    0.04802    1.000
    C539     C        0.59210    0.06377    0.97590    1.000
    C540     C        0.60170    0.09554    0.94870    1.000
    H329     H        0.61788    0.09678    0.91269    1.000
    C541     C        0.60540    0.03190    0.94330    1.000
    C542     C        0.63900    0.00560    0.86280    1.000
    C543     C        0.61060    0.97420    0.94460    1.000
    C544     C        0.66910    0.97582    0.76460    1.000
    H330     H        0.66433    0.95485    0.78605    1.000
    C545     C        0.68780    0.97675    0.70200    1.000
    H331     H        0.69544    0.95641    0.68150    1.000
    C546     C        0.69500    0.00808    0.66990    1.000
    C547     C        0.68350    0.03848    0.70050    1.000
    H332     H        0.68830    0.05945    0.67900    1.000
    C548     C        0.66490    0.03755    0.76310    1.000
    H333     H        0.65719    0.05789    0.78355    1.000
    C549     C        0.65770    0.00622    0.79520    1.000
    C550     C        0.71190    0.00900    0.59890    1.000
    C551     C        0.60040    0.94087    0.97590    1.000
    C552     C        0.57780    0.94040    0.03280    1.000
    H334     H        0.56995    0.96094    0.05201    1.000
    C553     C        0.56690    0.90922    0.06080    1.000
    H335     H        0.55179    0.90890    0.09885    1.000
    C554     C        0.57870    0.87852    0.03210    1.000
    C555     C        0.60130    0.87899    0.97520    1.000
    H336     H        0.60918    0.85845    0.95596    1.000
    C556     C        0.61220    0.91017    0.94720    1.000
    H337     H        0.62734    0.91048    0.90912    1.000
    C557     C        0.56540    0.84480    0.05920    1.000
    N53      N        0.62570    0.03510    0.88640    1.000
    N54      N        0.63020    0.97410    0.88880    1.000
    N55      N        0.59630    0.00300    0.97240    1.000
    O196     O        0.55420    0.18309    0.02920    1.000
    O197     O        0.52610    0.15217    0.10940    1.000
    O198     O        0.71730    0.03790    0.57220    1.000
    O199     O        0.71970    0.97973    0.57110    1.000
    O200     O        0.57503    0.81816    0.02890    1.000
    O201     O        0.54450    0.84753    0.11040    1.000
    O202     O        0.59130    0.23800    0.06980    1.000
    O203     O        0.38900    0.26100    0.18250    1.000
    O204     O        0.53380    0.28010    0.10440    1.000
    O205     O        0.48870    0.26710    0.01560    1.000
    O206     O        0.48990    0.29410    0.19590    1.000
    O207     O        0.44460    0.22040    0.14650    1.000
    O208     O        0.08360    0.23560    0.45820    1.000
    C558     C        0.31750    0.25300    0.18690    1.000
    H338     H        0.32947    0.25522    0.22922    1.000
    N56      N        0.21040    0.24410    0.18730    1.000
    C559     C        0.28190    0.25280    0.18890    1.000
    H339     H        0.27030    0.25456    0.23167    1.000
    C560     C        0.17470    0.24050    0.18490    1.000
    O209     O        0.04520    0.21740    0.37290    1.000
    C561     C        0.07380    0.22730    0.39770    1.000
    C562     C        0.09380    0.21540    0.27500    1.000
    H340     H        0.07334    0.20366    0.26730    1.000
    C563     C        0.11610    0.22150    0.21900    1.000
    H341     H        0.11063    0.21381    0.17392    1.000
    C564     C        0.14670    0.23910    0.23050    1.000
    C565     C        0.15500    0.25060    0.29800    1.000
    H342     H        0.17544    0.26243    0.30565    1.000
    C566     C        0.13260    0.24460    0.35390    1.000
    H343     H        0.13815    0.25228    0.39903    1.000
    C567     C        0.10200    0.22700    0.34240    1.000
    O210     O        0.11880    0.19520    0.49260    1.000
    C568     C        0.10900    0.21680    0.44860    1.000
    C569     C        0.16040    0.21230    0.37150    1.000
    H344     H        0.17104    0.20064    0.40846    1.000
    C570     C        0.17820    0.21860    0.30920    1.000
    H345     H        0.20083    0.21117    0.30448    1.000
    C571     C        0.16230    0.23590    0.25410    1.000
    C572     C        0.12850    0.24700    0.26120    1.000
    H346     H        0.11779    0.25863    0.22426    1.000
    C573     C        0.11060    0.24070    0.32350    1.000
    H347     H        0.08800    0.24810    0.32824    1.000
    C574     C        0.12660    0.22330    0.37870    1.000
    H348     H        0.65375    0.24053    0.08131    1.000
    H349     H        0.65375    0.23633    0.16371    1.000
    H350     H        0.65375    0.27314    0.12998    1.000
    Zr43     Zr       0.96466    0.26363    0.53595    1.000
    Zr44     Zr       0.00987    0.18925    0.58637    1.000
    Zr45     Zr       0.05545    0.23566    0.71369    1.000
    C575     C        0.95270    0.34380    0.55870    1.000
    C576     C        0.91290    0.37455    0.47550    1.000
    H351     H        0.90648    0.35329    0.45726    1.000
    C577     C        0.93710    0.37640    0.52930    1.000
    C578     C        0.94670    0.40817    0.55650    1.000
    H352     H        0.96293    0.40941    0.59258    1.000
    C579     C        0.93210    0.43809    0.52980    1.000
    H353     H        0.93857    0.45935    0.54802    1.000
    C580     C        0.90790    0.43623    0.47590    1.000
    C581     C        0.89830    0.40446    0.44870    1.000
    H354     H        0.88212    0.40322    0.41269    1.000
    C582     C        0.89460    0.46810    0.44330    1.000
    C583     C        0.86100    0.49440    0.36280    1.000
    C584     C        0.88940    0.52580    0.44460    1.000
    C585     C        0.83090    0.52418    0.26460    1.000
    H355     H        0.83567    0.54515    0.28605    1.000
    C586     C        0.81220    0.52325    0.20200    1.000
    H356     H        0.80456    0.54359    0.18150    1.000
    C587     C        0.80500    0.49192    0.16990    1.000
    C588     C        0.81650    0.46152    0.20050    1.000
    H357     H        0.81170    0.44055    0.17900    1.000
    C589     C        0.83510    0.46245    0.26310    1.000
    H358     H        0.84281    0.44211    0.28355    1.000
    C590     C        0.84230    0.49378    0.29520    1.000
    C591     C        0.78810    0.49100    0.09890    1.000
    C592     C        0.89960    0.55913    0.47590    1.000
    C593     C        0.92220    0.55960    0.53280    1.000
    H359     H        0.93005    0.53906    0.55201    1.000
    C594     C        0.93310    0.59078    0.56080    1.000
    H360     H        0.94821    0.59110    0.59885    1.000
    C595     C        0.92130    0.62148    0.53210    1.000
    C596     C        0.89870    0.62101    0.47520    1.000
    H361     H        0.89082    0.64155    0.45596    1.000
    C597     C        0.88780    0.58983    0.44720    1.000
    H362     H        0.87266    0.58952    0.40912    1.000
    C598     C        0.93460    0.65520    0.55920    1.000
    N57      N        0.87430    0.46490    0.38640    1.000
    N58      N        0.86980    0.52590    0.38880    1.000
    N59      N        0.90370    0.49700    0.47240    1.000
    O211     O        0.94580    0.31691    0.52920    1.000
    O212     O        0.97390    0.34783    0.60940    1.000
    O213     O        0.78270    0.46210    0.07220    1.000
    O214     O        0.78030    0.52027    0.07110    1.000
    O215     O        0.92497    0.68184    0.52890    1.000
    O216     O        0.95550    0.65247    0.61040    1.000
    O217     O        0.90870    0.26200    0.56980    1.000
    O218     O        0.11100    0.23900    0.68250    1.000
    O219     O        0.96620    0.21990    0.60440    1.000
    O220     O        0.01130    0.23290    0.51560    1.000
    O221     O        0.01010    0.20590    0.69590    1.000
    O222     O        0.05540    0.27960    0.64650    1.000
    O223     O        0.41640    0.26440    0.95820    1.000
    C599     C        0.18250    0.24700    0.68690    1.000
    H363     H        0.17053    0.24478    0.72922    1.000
    N60      N        0.28960    0.25590    0.68730    1.000
    C600     C        0.21810    0.24720    0.68890    1.000
    H364     H        0.22970    0.24544    0.73167    1.000
    C601     C        0.32530    0.25950    0.68490    1.000
    O224     O        0.45480    0.28260    0.87290    1.000
    C602     C        0.42620    0.27270    0.89770    1.000
    C603     C        0.40620    0.28460    0.77500    1.000
    H365     H        0.42666    0.29634    0.76730    1.000
    C604     C        0.38390    0.27850    0.71900    1.000
    H366     H        0.38937    0.28619    0.67392    1.000
    C605     C        0.35330    0.26090    0.73050    1.000
    C606     C        0.34500    0.24940    0.79800    1.000
    H367     H        0.32456    0.23757    0.80565    1.000
    C607     C        0.36740    0.25540    0.85390    1.000
    H368     H        0.36185    0.24772    0.89903    1.000
    C608     C        0.39800    0.27300    0.84240    1.000
    O225     O        0.38120    0.30480    0.99260    1.000
    C609     C        0.39100    0.28320    0.94860    1.000
    C610     C        0.33960    0.28770    0.87150    1.000
    H369     H        0.32896    0.29936    0.90846    1.000
    C611     C        0.32180    0.28140    0.80920    1.000
    H370     H        0.29917    0.28883    0.80448    1.000
    C612     C        0.33770    0.26410    0.75410    1.000
    C613     C        0.37150    0.25300    0.76120    1.000
    H371     H        0.38221    0.24137    0.72426    1.000
    C614     C        0.38940    0.25930    0.82350    1.000
    H372     H        0.41200    0.25190    0.82824    1.000
    C615     C        0.37340    0.27670    0.87870    1.000
    H373     H        0.84625    0.25947    0.58131    1.000
    H374     H        0.84625    0.26367    0.66371    1.000
    H375     H        0.84625    0.22686    0.62998    1.000
    Zr46     Zr       0.46466    0.76363    0.03595    1.000
    Zr47     Zr       0.50987    0.68925    0.08637    1.000
    Zr48     Zr       0.55545    0.73566    0.21369    1.000
    C616     C        0.45270    0.84380    0.05870    1.000
    C617     C        0.41290    0.87455    0.97550    1.000
    H376     H        0.40648    0.85329    0.95726    1.000
    C618     C        0.43710    0.87640    0.02930    1.000
    C619     C        0.44670    0.90817    0.05650    1.000
    H377     H        0.46293    0.90941    0.09258    1.000
    C620     C        0.43210    0.93809    0.02980    1.000
    H378     H        0.43857    0.95935    0.04802    1.000
    C621     C        0.40790    0.93623    0.97590    1.000
    C622     C        0.39830    0.90446    0.94870    1.000
    H379     H        0.38212    0.90322    0.91269    1.000
    C623     C        0.39460    0.96810    0.94330    1.000
    C624     C        0.36100    0.99440    0.86280    1.000
    C625     C        0.38940    0.02580    0.94460    1.000
    C626     C        0.33090    0.02418    0.76460    1.000
    H380     H        0.33567    0.04515    0.78605    1.000
    C627     C        0.31220    0.02325    0.70200    1.000
    H381     H        0.30456    0.04359    0.68150    1.000
    C628     C        0.30500    0.99192    0.66990    1.000
    C629     C        0.31650    0.96152    0.70050    1.000
    H382     H        0.31170    0.94055    0.67900    1.000
    C630     C        0.33510    0.96245    0.76310    1.000
    H383     H        0.34281    0.94211    0.78355    1.000
    C631     C        0.34230    0.99378    0.79520    1.000
    C632     C        0.28810    0.99100    0.59890    1.000
    C633     C        0.39960    0.05913    0.97590    1.000
    C634     C        0.42220    0.05960    0.03280    1.000
    H384     H        0.43005    0.03906    0.05201    1.000
    C635     C        0.43310    0.09078    0.06080    1.000
    H385     H        0.44821    0.09110    0.09885    1.000
    C636     C        0.42130    0.12148    0.03210    1.000
    C637     C        0.39870    0.12101    0.97520    1.000
    H386     H        0.39082    0.14155    0.95596    1.000
    C638     C        0.38780    0.08983    0.94720    1.000
    H387     H        0.37266    0.08952    0.90912    1.000
    C639     C        0.43460    0.15520    0.05920    1.000
    N61      N        0.37430    0.96490    0.88640    1.000
    N62      N        0.36980    0.02590    0.88880    1.000
    N63      N        0.40370    0.99700    0.97240    1.000
    O226     O        0.44580    0.81691    0.02920    1.000
    O227     O        0.47390    0.84783    0.10940    1.000
    O228     O        0.28270    0.96210    0.57220    1.000
    O229     O        0.28030    0.02027    0.57110    1.000
    O230     O        0.42497    0.18184    0.02890    1.000
    O231     O        0.45550    0.15247    0.11040    1.000
    O232     O        0.40870    0.76200    0.06980    1.000
    O233     O        0.61100    0.73900    0.18250    1.000
    O234     O        0.46620    0.71990    0.10440    1.000
    O235     O        0.51130    0.73290    0.01560    1.000
    O236     O        0.51010    0.70590    0.19590    1.000
    O237     O        0.55540    0.77960    0.14650    1.000
    O238     O        0.91640    0.76440    0.45820    1.000
    C640     C        0.68250    0.74700    0.18690    1.000
    H388     H        0.67053    0.74478    0.22922    1.000
    N64      N        0.78960    0.75590    0.18730    1.000
    C641     C        0.71810    0.74720    0.18890    1.000
    H389     H        0.72970    0.74544    0.23167    1.000
    C642     C        0.82530    0.75950    0.18490    1.000
    O239     O        0.95480    0.78260    0.37290    1.000
    C643     C        0.92620    0.77270    0.39770    1.000
    C644     C        0.90620    0.78460    0.27500    1.000
    H390     H        0.92666    0.79634    0.26730    1.000
    C645     C        0.88390    0.77850    0.21900    1.000
    H391     H        0.88937    0.78619    0.17392    1.000
    C646     C        0.85330    0.76090    0.23050    1.000
    C647     C        0.84500    0.74940    0.29800    1.000
    H392     H        0.82456    0.73757    0.30565    1.000
    C648     C        0.86740    0.75540    0.35390    1.000
    H393     H        0.86185    0.74772    0.39903    1.000
    C649     C        0.89800    0.77300    0.34240    1.000
    O240     O        0.88120    0.80480    0.49260    1.000
    C650     C        0.89100    0.78320    0.44860    1.000
    C651     C        0.83960    0.78770    0.37150    1.000
    H394     H        0.82896    0.79936    0.40846    1.000
    C652     C        0.82180    0.78140    0.30920    1.000
    H395     H        0.79917    0.78883    0.30448    1.000
    C653     C        0.83770    0.76410    0.25410    1.000
    C654     C        0.87150    0.75300    0.26120    1.000
    H396     H        0.88221    0.74137    0.22426    1.000
    C655     C        0.88940    0.75930    0.32350    1.000
    H397     H        0.91200    0.75190    0.32824    1.000
    C656     C        0.87340    0.77670    0.37870    1.000
    H398     H        0.34625    0.75947    0.08131    1.000
    H399     H        0.34625    0.76367    0.16371    1.000
    H400     H        0.34625    0.72686    0.12998    1.000
    C657     C        0.25000    0.39400    0.87500    1.000
    C658     C        0.25000    0.35450    0.87500    1.000
    C659     C        0.25000    0.62670    0.87500    1.000
    C660     C        0.25000    0.66410    0.87500    1.000
    C661     C        0.25000    0.77190    0.87500    1.000
    C662     C        0.25000    0.73620    0.87500    1.000
    N65      N        0.25000    0.84330    0.87500    1.000
    C663     C        0.75000    0.89400    0.37500    1.000
    C664     C        0.75000    0.85450    0.37500    1.000
    C665     C        0.75000    0.12670    0.37500    1.000
    C666     C        0.75000    0.16410    0.37500    1.000
    C667     C        0.75000    0.27190    0.37500    1.000
    C668     C        0.75000    0.23620    0.37500    1.000
    N66      N        0.75000    0.34330    0.37500    1.000
    C669     C        0.75000    0.60600    0.87500    1.000
    C670     C        0.75000    0.64550    0.87500    1.000
    C671     C        0.75000    0.37330    0.87500    1.000
    C672     C        0.75000    0.33590    0.87500    1.000
    C673     C        0.75000    0.22810    0.87500    1.000
    C674     C        0.75000    0.26380    0.87500    1.000
    N67      N        0.75000    0.15670    0.87500    1.000
    C675     C        0.25000    0.10600    0.37500    1.000
    C676     C        0.25000    0.14550    0.37500    1.000
    C677     C        0.25000    0.87330    0.37500    1.000
    C678     C        0.25000    0.83590    0.37500    1.000
    C679     C        0.25000    0.72810    0.37500    1.000
    C680     C        0.25000    0.76380    0.37500    1.000
    N68      N        0.25000    0.65670    0.37500    1.000
    C681     C        0.39400    0.75000    0.12500    1.000
    C682     C        0.35450    0.75000    0.12500    1.000
    C683     C        0.62670    0.75000    0.12500    1.000
    C684     C        0.66410    0.75000    0.12500    1.000
    C685     C        0.77190    0.75000    0.12500    1.000
    C686     C        0.73620    0.75000    0.12500    1.000
    N69      N        0.84330    0.75000    0.12500    1.000
    C687     C        0.60600    0.25000    0.12500    1.000
    C688     C        0.64550    0.25000    0.12500    1.000
    C689     C        0.37330    0.25000    0.12500    1.000
    C690     C        0.33590    0.25000    0.12500    1.000
    C691     C        0.22810    0.25000    0.12500    1.000
    C692     C        0.26380    0.25000    0.12500    1.000
    N70      N        0.15670    0.25000    0.12500    1.000
    C693     C        0.10600    0.75000    0.62500    1.000
    C694     C        0.14550    0.75000    0.62500    1.000
    C695     C        0.87330    0.75000    0.62500    1.000
    C696     C        0.83590    0.75000    0.62500    1.000
    C697     C        0.72810    0.75000    0.62500    1.000
    C698     C        0.76380    0.75000    0.62500    1.000
    N71      N        0.65670    0.75000    0.62500    1.000
    C699     C        0.89400    0.25000    0.62500    1.000
    C700     C        0.85450    0.25000    0.62500    1.000
    C701     C        0.12670    0.25000    0.62500    1.000
    C702     C        0.16410    0.25000    0.62500    1.000
    C703     C        0.27190    0.25000    0.62500    1.000
    C704     C        0.23620    0.25000    0.62500    1.000
    N72      N        0.34330    0.25000    0.62500    1.000
