data_functionalizedCrystal
_audit_creation_method	'EQeq! by Chris Wilmer'
_symmetry_space_group_name_H-M	'P1'
_symmetry_Int_Tables_number	1
_symmetry_cell_setting	triclinic
loop_
_symmetry_equiv_pos_as_xyz
  x,y,z
_cell_length_a	16.578
_cell_length_b	16.68
_cell_length_c	18.006
_cell_angle_alpha	90
_cell_angle_beta	90
_cell_angle_gamma	90
loop_
_atom_site_label
_atom_site_type_symbol
_atom_site_fract_x
_atom_site_fract_y
_atom_site_fract_z
_atom_site_charge
Mof_Mn	Mn	0.60533	0.87007	0.86865	0.582
Mof_Mn	Mn	0.39467	0.62993	0.36865	0.583
Mof_Mn	Mn	0.10533	0.12993	0.63135	0.582
Mof_Mn	Mn	0.89467	0.37007	0.13135	0.582
Mof_Mn	Mn	0.39467	0.12993	0.13135	0.582
Mof_Mn	Mn	0.60533	0.37007	0.63135	0.583
Mof_Mn	Mn	0.89467	0.87007	0.36865	0.582
Mof_Mn	Mn	0.10533	0.62993	0.86865	0.582
Mof_Re	Re	0.90102	0.96468	0.96669	0.337
Mof_Re	Re	0.04085	0.89787	0.99055	0.339
Mof_Re	Re	0.02968	0.02203	0.90379	0.333
Mof_Re	Re	0.09898	0.53532	0.46669	0.338
Mof_Re	Re	0.95915	0.60213	0.49055	0.339
Mof_Re	Re	0.97032	0.47797	0.40379	0.334
Mof_Re	Re	0.40102	0.03532	0.53331	0.337
Mof_Re	Re	0.54085	0.10213	0.50945	0.339
Mof_Re	Re	0.52968	0.97797	0.59621	0.334
Mof_Re	Re	0.59898	0.46468	0.03331	0.336
Mof_Re	Re	0.45915	0.39787	0.00945	0.339
Mof_Re	Re	0.47032	0.52203	0.09621	0.334
Mof_Re	Re	0.09898	0.03532	0.03331	0.336
Mof_Re	Re	0.95915	0.10213	0.00945	0.338
Mof_Re	Re	0.97032	0.97797	0.09621	0.332
Mof_Re	Re	0.90102	0.46468	0.53331	0.337
Mof_Re	Re	0.04085	0.39787	0.50945	0.339
Mof_Re	Re	0.02968	0.52203	0.59621	0.334
Mof_Re	Re	0.59898	0.96468	0.46669	0.337
Mof_Re	Re	0.45915	0.89787	0.49055	0.339
Mof_Re	Re	0.47032	0.02203	0.40379	0.334
Mof_Re	Re	0.40102	0.53532	0.96669	0.336
Mof_Re	Re	0.54085	0.60213	0.99055	0.339
Mof_Re	Re	0.52968	0.47797	0.90379	0.334
Mof_C 	C 	0.7883	0.9248	0.925	-0.016
Mof_C 	C 	0.0848	0.7804	0.9773	-0.038
Mof_C 	C 	0.0662	0.0462	0.7916	-0.015
Mof_C 	C 	0.2117	0.5752	0.425	-0.016
Mof_C 	C 	0.9152	0.7196	0.4773	-0.038
Mof_C 	C 	0.9338	0.4538	0.2916	-0.015
Mof_C 	C 	0.2883	0.0752	0.575	-0.016
Mof_C 	C 	0.5848	0.2196	0.5227	-0.037
Mof_C 	C 	0.5662	0.9538	0.7084	-0.015
Mof_C 	C 	0.7117	0.4248	0.075	-0.016
Mof_C 	C 	0.4152	0.2804	0.0227	-0.037
Mof_C 	C 	0.4338	0.5462	0.2084	-0.015
Mof_C 	C 	0.2117	0.0752	0.075	-0.016
Mof_C 	C 	0.9152	0.2196	0.0227	-0.038
Mof_C 	C 	0.9338	0.9538	0.2084	-0.015
Mof_C 	C 	0.7883	0.4248	0.575	-0.016
Mof_C 	C 	0.0848	0.2804	0.5227	-0.038
Mof_C 	C 	0.0662	0.5462	0.7084	-0.015
Mof_C 	C 	0.7117	0.9248	0.425	-0.016
Mof_C 	C 	0.4152	0.7804	0.4773	-0.037
Mof_C 	C 	0.4338	0.0462	0.2916	-0.015
Mof_C 	C 	0.2883	0.5752	0.925	-0.016
Mof_C 	C 	0.5848	0.7196	0.9773	-0.037
Mof_C 	C 	0.5662	0.4538	0.7916	-0.015
Mof_S 	S 	0.9747	0.8929	0.872	-0.258
Mof_S 	S 	0.8984	0.0828	0.8891	-0.241
Mof_S 	S 	0.9188	0.8526	0.0501	-0.25
Mof_S 	S 	0.8435	0.0407	0.0673	-0.249
Mof_S 	S 	0.0253	0.6071	0.372	-0.257
Mof_S 	S 	0.1016	0.4172	0.3891	-0.245
Mof_S 	S 	0.0812	0.6474	0.5501	-0.249
Mof_S 	S 	0.1565	0.4593	0.5673	-0.25
Mof_S 	S 	0.4747	0.1071	0.628	-0.258
Mof_S 	S 	0.3984	0.9172	0.6109	-0.245
Mof_S 	S 	0.4188	0.1474	0.4499	-0.25
Mof_S 	S 	0.3435	0.9593	0.4327	-0.248
Mof_S 	S 	0.5253	0.3929	0.128	-0.258
Mof_S 	S 	0.6016	0.5828	0.1109	-0.245
Mof_S 	S 	0.5812	0.3526	0.9499	-0.248
Mof_S 	S 	0.6565	0.5407	0.9327	-0.249
Mof_S 	S 	0.0253	0.1071	0.128	-0.258
Mof_S 	S 	0.1016	0.9172	0.1109	-0.241
Mof_S 	S 	0.0812	0.1474	0.9499	-0.25
Mof_S 	S 	0.1565	0.9593	0.9327	-0.249
Mof_S 	S 	0.9747	0.3929	0.628	-0.257
Mof_S 	S 	0.8984	0.5828	0.6109	-0.245
Mof_S 	S 	0.9188	0.3526	0.4499	-0.249
Mof_S 	S 	0.8435	0.5407	0.4327	-0.25
Mof_S 	S 	0.5253	0.8929	0.372	-0.258
Mof_S 	S 	0.6016	0.0828	0.3891	-0.245
Mof_S 	S 	0.5812	0.8526	0.5501	-0.25
Mof_S 	S 	0.6565	0.0407	0.5673	-0.248
Mof_S 	S 	0.4747	0.6071	0.872	-0.258
Mof_S 	S 	0.3984	0.4172	0.8891	-0.245
Mof_S 	S 	0.4188	0.6474	0.0501	-0.248
Mof_S 	S 	0.3435	0.4593	0.0673	-0.249
Mof_N 	N 	0.7292	0.9068	0.8987	-0.173
Mof_N 	N 	0.1059	0.7148	0.9651	-0.168
Mof_N 	N 	0.0864	0.0608	0.7341	-0.182
Mof_N 	N 	0.2708	0.5932	0.3987	-0.173
Mof_N 	N 	0.8941	0.7852	0.4651	-0.168
Mof_N 	N 	0.9136	0.4392	0.2341	-0.182
Mof_N 	N 	0.2292	0.0932	0.6013	-0.173
Mof_N 	N 	0.6059	0.2852	0.5349	-0.168
Mof_N 	N 	0.5864	0.9392	0.7659	-0.182
Mof_N 	N 	0.7708	0.4068	0.1013	-0.173
Mof_N 	N 	0.3941	0.2148	0.0349	-0.168
Mof_N 	N 	0.4136	0.5608	0.2659	-0.182
Mof_N 	N 	0.2708	0.0932	0.1013	-0.173
Mof_N 	N 	0.8941	0.2852	0.0349	-0.168
Mof_N 	N 	0.9136	0.9392	0.2659	-0.182
Mof_N 	N 	0.7292	0.4068	0.6013	-0.173
Mof_N 	N 	0.1059	0.2148	0.5349	-0.168
Mof_N 	N 	0.0864	0.5608	0.7659	-0.182
Mof_N 	N 	0.7708	0.9068	0.3987	-0.173
Mof_N 	N 	0.3941	0.7148	0.4651	-0.168
Mof_N 	N 	0.4136	0.0608	0.2341	-0.182
Mof_N 	N 	0.2292	0.5932	0.8987	-0.173
Mof_N 	N 	0.6059	0.7852	0.9651	-0.168
Mof_N 	N 	0.5864	0.4392	0.7341	-0.182
_end
