# CIF file generated by openbabel 3.1.0, see https://openbabel.org
data_I
_chemical_name_common 'image0'
_cell_length_a 9.9523
_cell_length_b 9.9523
_cell_length_c 36.798
_cell_angle_alpha 90
_cell_angle_beta 90
_cell_angle_gamma 90
_space_group_name_H-M_alt 'P 1'
_space_group_name_Hall 'P 1'
loop_
    _symmetry_equiv_pos_as_xyz
    x,y,z
loop_
    _atom_site_label
    _atom_site_type_symbol
    _atom_site_fract_x
    _atom_site_fract_y
    _atom_site_fract_z
    _atom_site_occupancy
    C1       C        0.06670    0.37850    0.01860    1.000
    C2       C        0.08630    0.26410    0.03890    1.000
    H1       H        0.07680    0.26190    0.06410    1.000
    C3       C        0.12000    0.15600    0.01910    1.000
    H2       H        0.14520    0.07730    0.03110    1.000
    C4       C        0.93330    0.62150    0.01860    1.000
    C5       C        0.91370    0.73590    0.03890    1.000
    H3       H        0.92320    0.73810    0.06410    1.000
    C6       C        0.88000    0.84400    0.01910    1.000
    H4       H        0.85480    0.92270    0.03110    1.000
    C7       C        0.62150    0.06670    0.51860    1.000
    C8       C        0.73590    0.08630    0.53890    1.000
    H5       H        0.73810    0.07680    0.56410    1.000
    C9       C        0.84400    0.12000    0.51910    1.000
    H6       H        0.92270    0.14520    0.53110    1.000
    C10      C        0.37850    0.93330    0.51860    1.000
    C11      C        0.26410    0.91370    0.53890    1.000
    H7       H        0.26190    0.92320    0.56410    1.000
    C12      C        0.15600    0.88000    0.51910    1.000
    H8       H        0.07730    0.85480    0.53110    1.000
    C13      C        0.93330    0.37850    0.98140    1.000
    C14      C        0.91370    0.26410    0.96110    1.000
    H9       H        0.92320    0.26190    0.93590    1.000
    C15      C        0.88000    0.15600    0.98090    1.000
    H10      H        0.85480    0.07730    0.96890    1.000
    C16      C        0.06670    0.62150    0.98140    1.000
    C17      C        0.08630    0.73590    0.96110    1.000
    H11      H        0.07680    0.73810    0.93590    1.000
    C18      C        0.12000    0.84400    0.98090    1.000
    H12      H        0.14520    0.92270    0.96890    1.000
    C19      C        0.37850    0.06670    0.48140    1.000
    C20      C        0.26410    0.08630    0.46110    1.000
    H13      H        0.26190    0.07680    0.43590    1.000
    C21      C        0.15600    0.12000    0.48090    1.000
    H14      H        0.07730    0.14520    0.46890    1.000
    C22      C        0.62150    0.93330    0.48140    1.000
    C23      C        0.73590    0.91370    0.46110    1.000
    H15      H        0.73810    0.92320    0.43590    1.000
    C24      C        0.84400    0.88000    0.48090    1.000
    H16      H        0.92270    0.85480    0.46890    1.000
    C25      C        0.93330    0.62150    0.98140    1.000
    C26      C        0.91370    0.73590    0.96110    1.000
    H17      H        0.92320    0.73810    0.93590    1.000
    C27      C        0.88000    0.84400    0.98090    1.000
    H18      H        0.85480    0.92270    0.96890    1.000
    C28      C        0.06670    0.37850    0.98140    1.000
    C29      C        0.08630    0.26410    0.96110    1.000
    H19      H        0.07680    0.26190    0.93590    1.000
    C30      C        0.12000    0.15600    0.98090    1.000
    H20      H        0.14520    0.07730    0.96890    1.000
    C31      C        0.37850    0.93330    0.48140    1.000
    C32      C        0.26410    0.91370    0.46110    1.000
    H21      H        0.26190    0.92320    0.43590    1.000
    C33      C        0.15600    0.88000    0.48090    1.000
    H22      H        0.07730    0.85480    0.46890    1.000
    C34      C        0.62150    0.06670    0.48140    1.000
    C35      C        0.73590    0.08630    0.46110    1.000
    H23      H        0.73810    0.07680    0.43590    1.000
    C36      C        0.84400    0.12000    0.48090    1.000
    H24      H        0.92270    0.14520    0.46890    1.000
    C37      C        0.06670    0.62150    0.01860    1.000
    C38      C        0.08630    0.73590    0.03890    1.000
    H25      H        0.07680    0.73810    0.06410    1.000
    C39      C        0.12000    0.84400    0.01910    1.000
    H26      H        0.14520    0.92270    0.03110    1.000
    C40      C        0.93330    0.37850    0.01860    1.000
    C41      C        0.91370    0.26410    0.03890    1.000
    H27      H        0.92320    0.26190    0.06410    1.000
    C42      C        0.88000    0.15600    0.01910    1.000
    H28      H        0.85480    0.07730    0.03110    1.000
    C43      C        0.62150    0.93330    0.51860    1.000
    C44      C        0.73590    0.91370    0.53890    1.000
    H29      H        0.73810    0.92320    0.56410    1.000
    C45      C        0.84400    0.88000    0.51910    1.000
    H30      H        0.92270    0.85480    0.53110    1.000
    C46      C        0.37850    0.06670    0.51860    1.000
    C47      C        0.26410    0.08630    0.53890    1.000
    H31      H        0.26190    0.07680    0.56410    1.000
    C48      C        0.15600    0.12000    0.51910    1.000
    H32      H        0.07730    0.14520    0.53110    1.000
    In1      In       0.00000    0.00000    0.25000    1.000
    In2      In       0.00000    0.00000    0.75000    1.000
    O1       O        0.00000    0.14310    0.20526    1.000
    O2       O        0.00000    0.24440    0.25683    1.000
    C49      C        0.00000    0.24570    0.22408    1.000
    C50      C        0.00000    0.38170    0.20457    1.000
    C51      C        0.00000    0.38260    0.16726    1.000
    H33      H        0.00000    0.30170    0.15460    1.000
    O3       O        0.00000    0.85690    0.20526    1.000
    O4       O        0.00000    0.75560    0.25683    1.000
    C52      C        0.00000    0.75430    0.22408    1.000
    C53      C        0.00000    0.61830    0.20457    1.000
    C54      C        0.00000    0.61740    0.16726    1.000
    H34      H        0.00000    0.69830    0.15460    1.000
    O5       O        0.85690    0.00000    0.70526    1.000
    O6       O        0.75560    0.00000    0.75683    1.000
    C55      C        0.75430    0.00000    0.72408    1.000
    C56      C        0.61830    0.00000    0.70457    1.000
    C57      C        0.61740    0.00000    0.66726    1.000
    H35      H        0.69830    0.00000    0.65460    1.000
    O7       O        0.14310    0.00000    0.70526    1.000
    O8       O        0.24440    0.00000    0.75683    1.000
    C58      C        0.24570    0.00000    0.72408    1.000
    C59      C        0.38170    0.00000    0.70457    1.000
    C60      C        0.38260    0.00000    0.66726    1.000
    H36      H        0.30170    0.00000    0.65460    1.000
    O9       O        0.00000    0.14310    0.79474    1.000
    O10      O        0.00000    0.24440    0.74317    1.000
    C61      C        0.00000    0.24570    0.77592    1.000
    C62      C        0.00000    0.38170    0.79543    1.000
    C63      C        0.00000    0.38260    0.83274    1.000
    H37      H        0.00000    0.30170    0.84540    1.000
    O11      O        0.00000    0.85690    0.79474    1.000
    O12      O        0.00000    0.75560    0.74317    1.000
    C64      C        0.00000    0.75430    0.77592    1.000
    C65      C        0.00000    0.61830    0.79543    1.000
    C66      C        0.00000    0.61740    0.83274    1.000
    H38      H        0.00000    0.69830    0.84540    1.000
    O13      O        0.14310    0.00000    0.29474    1.000
    O14      O        0.24440    0.00000    0.24317    1.000
    C67      C        0.24570    0.00000    0.27592    1.000
    C68      C        0.38170    0.00000    0.29543    1.000
    C69      C        0.38260    0.00000    0.33274    1.000
    H39      H        0.30170    0.00000    0.34540    1.000
    O15      O        0.85690    0.00000    0.29474    1.000
    O16      O        0.75560    0.00000    0.24317    1.000
    C70      C        0.75430    0.00000    0.27592    1.000
    C71      C        0.61830    0.00000    0.29543    1.000
    C72      C        0.61740    0.00000    0.33274    1.000
    H40      H        0.69830    0.00000    0.34540    1.000
    C73      C        0.00000    0.50000    0.22350    1.000
    H41      H        0.00000    0.50000    0.24880    1.000
    C74      C        0.00000    0.50000    0.14880    1.000
    C75      C        0.00000    0.50000    0.10770    1.000
    C76      C        0.00000    0.50000    0.07660    1.000
    C77      C        0.00000    0.50000    0.03780    1.000
    C78      C        0.50000    0.00000    0.72350    1.000
    H42      H        0.50000    0.00000    0.74880    1.000
    C79      C        0.50000    0.00000    0.64880    1.000
    C80      C        0.50000    0.00000    0.60770    1.000
    C81      C        0.50000    0.00000    0.57660    1.000
    C82      C        0.50000    0.00000    0.53780    1.000
    C83      C        0.00000    0.50000    0.77650    1.000
    H43      H        0.00000    0.50000    0.75120    1.000
    C84      C        0.00000    0.50000    0.85120    1.000
    C85      C        0.00000    0.50000    0.89230    1.000
    C86      C        0.00000    0.50000    0.92340    1.000
    C87      C        0.00000    0.50000    0.96220    1.000
    C88      C        0.50000    0.00000    0.27650    1.000
    H44      H        0.50000    0.00000    0.25120    1.000
    C89      C        0.50000    0.00000    0.35120    1.000
    C90      C        0.50000    0.00000    0.39230    1.000
    C91      C        0.50000    0.00000    0.42340    1.000
    C92      C        0.50000    0.00000    0.46220    1.000
