data_functionalizedCrystal
_audit_creation_method	'EQeq! by Chris Wilmer'
_symmetry_space_group_name_H-M	'P1'
_symmetry_Int_Tables_number	1
_symmetry_cell_setting	triclinic
loop_
_symmetry_equiv_pos_as_xyz
  x,y,z
_cell_length_a	18.986
_cell_length_b	19.683
_cell_length_c	12.081
_cell_angle_alpha	90
_cell_angle_beta	90
_cell_angle_gamma	90
loop_
_atom_site_label
_atom_site_type_symbol
_atom_site_fract_x
_atom_site_fract_y
_atom_site_fract_z
_atom_site_charge
Mof_Co	Co	0.30923	0.16208	0.67025	1.153
Mof_C 	C 	0.2135	0.0382	0.6118	0.03
Mof_H 	H 	0.187	0.0558	0.672	0.026
Mof_C 	C 	0.1891	0.9818	0.5583	-0.05
Mof_H 	H 	0.147	0.9602	0.5822	0.051
Mof_C 	C 	0.2268	0.956	0.4675	-0.06
Mof_C 	C 	0.2884	0.9889	0.4381	-0.057
Mof_H 	H 	0.3162	0.9729	0.3781	0.054
Mof_C 	C 	0.3087	0.0452	0.4976	0.039
Mof_H 	H 	0.3507	0.0675	0.4754	0.003
Mof_C 	C 	0.2018	0.8956	0.4032	0.345
Mof_C 	C 	0.0079	0.6921	0.421	0.007
Mof_H 	H 	0.0325	0.6504	0.429	0.012
Mof_C 	C 	0.9353	0.6902	0.4006	-0.04
Mof_H 	H 	0.9113	0.648	0.394	0.049
Mof_C 	C 	0.1912	0.7983	0.6729	0.002
Mof_H 	H 	0.2172	0.8321	0.6344	0.018
Mof_C 	C 	0.189	0.8011	0.7857	-0.022
Mof_H 	H 	0.2096	0.8384	0.8236	0.041
Mof_N 	N 	0.2748	0.0705	0.5824	-0.204
Mof_O 	O 	0.1599	0.8549	0.4504	-0.453
Mof_O 	O 	0.2248	0.8901	0.307	-0.45
Mof_O 	O 	0.7928	0.6948	0.3478	-0.449
Mof_O 	O 	0.1591	0.8054	0.0156	-0.484
Mof_C 	C 	0.1253	0.7012	0.6703	0.011
Mof_C 	C 	0.1237	0.6984	0.7851	-0.026
Mof_H 	H 	0.1018	0.6666	0.6299	0.021
Mof_H 	H 	0.1005	0.6622	0.8223	0.036
Mof_Co	Co	0.19077	0.83792	0.17025	1.152
Mof_C 	C 	0.2865	0.9618	0.1118	0.03
Mof_H 	H 	0.313	0.9442	0.172	0.025
Mof_C 	C 	0.3109	0.0182	0.0583	-0.051
Mof_H 	H 	0.353	0.0398	0.0822	0.05
Mof_C 	C 	0.2732	0.044	0.9675	-0.062
Mof_C 	C 	0.2116	0.0111	0.9381	-0.054
Mof_H 	H 	0.1838	0.0271	0.8781	0.052
Mof_C 	C 	0.1913	0.9548	0.9976	0.034
Mof_H 	H 	0.1493	0.9325	0.9754	0.003
Mof_C 	C 	0.2982	0.1044	0.9032	0.346
Mof_C 	C 	0.4921	0.3079	0.921	0.006
Mof_H 	H 	0.4675	0.3496	0.929	0.012
Mof_C 	C 	0.5647	0.3098	0.9006	-0.04
Mof_H 	H 	0.5887	0.352	0.894	0.049
Mof_C 	C 	0.3088	0.2017	0.1729	0.002
Mof_H 	H 	0.2828	0.1679	0.1344	0.018
Mof_C 	C 	0.311	0.1989	0.2857	-0.021
Mof_H 	H 	0.2904	0.1616	0.3236	0.041
Mof_N 	N 	0.2252	0.9295	0.0824	-0.202
Mof_O 	O 	0.3401	0.1451	0.9504	-0.453
Mof_O 	O 	0.2752	0.1099	0.807	-0.45
Mof_O 	O 	0.7072	0.3052	0.8478	-0.449
Mof_O 	O 	0.3409	0.1946	0.5156	-0.487
Mof_C 	C 	0.3747	0.2988	0.1703	0.011
Mof_C 	C 	0.3763	0.3016	0.2851	-0.025
Mof_H 	H 	0.3982	0.3334	0.1299	0.021
Mof_H 	H 	0.3995	0.3378	0.3223	0.037
Mof_Co	Co	0.69077	0.66208	0.32975	1.152
Mof_C 	C 	0.7865	0.5382	0.3882	0.029
Mof_H 	H 	0.813	0.5558	0.328	0.025
Mof_C 	C 	0.8109	0.4818	0.4417	-0.05
Mof_H 	H 	0.853	0.4602	0.4178	0.05
Mof_C 	C 	0.7732	0.456	0.5325	-0.061
Mof_C 	C 	0.7116	0.4889	0.5619	-0.057
Mof_H 	H 	0.6838	0.4729	0.6219	0.053
Mof_C 	C 	0.6913	0.5452	0.5024	0.039
Mof_H 	H 	0.6493	0.5675	0.5246	0.003
Mof_C 	C 	0.7982	0.3956	0.5968	0.345
Mof_C 	C 	0.9921	0.1921	0.579	0.007
Mof_H 	H 	0.9675	0.1504	0.571	0.012
Mof_C 	C 	0.0647	0.1902	0.5994	-0.04
Mof_H 	H 	0.0887	0.148	0.606	0.049
Mof_C 	C 	0.8088	0.2983	0.3271	0.002
Mof_H 	H 	0.7828	0.3321	0.3656	0.018
Mof_C 	C 	0.811	0.3011	0.2143	-0.022
Mof_H 	H 	0.7904	0.3384	0.1764	0.041
Mof_N 	N 	0.7252	0.5705	0.4176	-0.204
Mof_O 	O 	0.8401	0.3549	0.5496	-0.453
Mof_O 	O 	0.7752	0.3901	0.693	-0.45
Mof_O 	O 	0.2072	0.1948	0.6522	-0.449
Mof_O 	O 	0.8409	0.3054	0.9844	-0.484
Mof_C 	C 	0.8747	0.2012	0.3297	0.011
Mof_C 	C 	0.8763	0.1984	0.2149	-0.026
Mof_H 	H 	0.8982	0.1666	0.3701	0.021
Mof_H 	H 	0.8995	0.1622	0.1777	0.036
Mof_Co	Co	0.80923	0.33792	0.82975	1.152
Mof_C 	C 	0.7135	0.4618	0.8882	0.028
Mof_H 	H 	0.687	0.4442	0.828	0.025
Mof_C 	C 	0.6891	0.5182	0.9417	-0.048
Mof_H 	H 	0.647	0.5398	0.9178	0.049
Mof_C 	C 	0.7268	0.544	0.0325	-0.063
Mof_C 	C 	0.7884	0.5111	0.0619	-0.056
Mof_H 	H 	0.8162	0.5271	0.1219	0.053
Mof_C 	C 	0.8087	0.4548	0.0024	0.037
Mof_H 	H 	0.8507	0.4325	0.0246	0.003
Mof_C 	C 	0.7018	0.6044	0.0968	0.346
Mof_C 	C 	0.5079	0.8079	0.079	0.006
Mof_H 	H 	0.5325	0.8496	0.071	0.013
Mof_C 	C 	0.4353	0.8098	0.0994	-0.04
Mof_H 	H 	0.4113	0.852	0.106	0.049
Mof_C 	C 	0.6912	0.7017	0.8271	0.002
Mof_H 	H 	0.7172	0.6679	0.8656	0.018
Mof_C 	C 	0.689	0.6989	0.7143	-0.021
Mof_H 	H 	0.7096	0.6616	0.6764	0.041
Mof_N 	N 	0.7748	0.4295	0.9176	-0.203
Mof_O 	O 	0.6599	0.6451	0.0496	-0.453
Mof_O 	O 	0.7248	0.6099	0.193	-0.45
Mof_O 	O 	0.2928	0.8052	0.1522	-0.449
Mof_O 	O 	0.6591	0.6946	0.4844	-0.487
Mof_C 	C 	0.6253	0.7988	0.8297	0.011
Mof_C 	C 	0.6237	0.8016	0.7149	-0.025
Mof_H 	H 	0.6018	0.8334	0.8701	0.021
Mof_H 	H 	0.6005	0.8378	0.6777	0.037
Mof_Co	Co	0.69077	0.83792	0.32975	1.152
Mof_C 	C 	0.7865	0.9618	0.3882	0.029
Mof_H 	H 	0.813	0.9442	0.328	0.025
Mof_C 	C 	0.8109	0.0182	0.4417	-0.051
Mof_H 	H 	0.853	0.0398	0.4178	0.05
Mof_C 	C 	0.7732	0.044	0.5325	-0.061
Mof_C 	C 	0.7116	0.0111	0.5619	-0.058
Mof_H 	H 	0.6838	0.0271	0.6219	0.053
Mof_C 	C 	0.6913	0.9548	0.5024	0.039
Mof_H 	H 	0.6493	0.9325	0.5246	0.003
Mof_C 	C 	0.7982	0.1044	0.5968	0.345
Mof_C 	C 	0.9921	0.3079	0.579	0.007
Mof_H 	H 	0.9675	0.3496	0.571	0.012
Mof_C 	C 	0.0647	0.3098	0.5994	-0.04
Mof_H 	H 	0.0887	0.352	0.606	0.049
Mof_C 	C 	0.8088	0.2017	0.3271	0.002
Mof_H 	H 	0.7828	0.1679	0.3656	0.018
Mof_C 	C 	0.811	0.1989	0.2143	-0.022
Mof_H 	H 	0.7904	0.1616	0.1764	0.041
Mof_N 	N 	0.7252	0.9295	0.4176	-0.204
Mof_O 	O 	0.8401	0.1451	0.5496	-0.453
Mof_O 	O 	0.7752	0.1099	0.693	-0.45
Mof_O 	O 	0.2072	0.3052	0.6522	-0.449
Mof_O 	O 	0.8409	0.1946	0.9844	-0.484
Mof_C 	C 	0.8747	0.2988	0.3297	0.011
Mof_C 	C 	0.8763	0.3016	0.2149	-0.026
Mof_H 	H 	0.8982	0.3334	0.3701	0.021
Mof_H 	H 	0.8995	0.3378	0.1777	0.036
Mof_Co	Co	0.80923	0.16208	0.82975	1.152
Mof_C 	C 	0.7135	0.0382	0.8882	0.03
Mof_H 	H 	0.687	0.0558	0.828	0.025
Mof_C 	C 	0.6891	0.9818	0.9417	-0.051
Mof_H 	H 	0.647	0.9602	0.9178	0.05
Mof_C 	C 	0.7268	0.956	0.0325	-0.062
Mof_C 	C 	0.7884	0.9889	0.0619	-0.054
Mof_H 	H 	0.8162	0.9729	0.1219	0.052
Mof_C 	C 	0.8087	0.0452	0.0024	0.034
Mof_H 	H 	0.8507	0.0675	0.0246	0.003
Mof_C 	C 	0.7018	0.8956	0.0968	0.346
Mof_C 	C 	0.5079	0.6921	0.079	0.006
Mof_H 	H 	0.5325	0.6504	0.071	0.012
Mof_C 	C 	0.4353	0.6902	0.0994	-0.04
Mof_H 	H 	0.4113	0.648	0.106	0.049
Mof_C 	C 	0.6912	0.7983	0.8271	0.002
Mof_H 	H 	0.7172	0.8321	0.8656	0.018
Mof_C 	C 	0.689	0.8011	0.7143	-0.021
Mof_H 	H 	0.7096	0.8384	0.6764	0.041
Mof_N 	N 	0.7748	0.0705	0.9176	-0.202
Mof_O 	O 	0.6599	0.8549	0.0496	-0.453
Mof_O 	O 	0.7248	0.8901	0.193	-0.45
Mof_O 	O 	0.2928	0.6948	0.1522	-0.449
Mof_O 	O 	0.6591	0.8054	0.4844	-0.487
Mof_C 	C 	0.6253	0.7012	0.8297	0.011
Mof_C 	C 	0.6237	0.6984	0.7149	-0.025
Mof_H 	H 	0.6018	0.6666	0.8701	0.021
Mof_H 	H 	0.6005	0.6622	0.6777	0.037
Mof_Co	Co	0.30923	0.33792	0.67025	1.152
Mof_C 	C 	0.2135	0.4618	0.6118	0.029
Mof_H 	H 	0.187	0.4442	0.672	0.025
Mof_C 	C 	0.1891	0.5182	0.5583	-0.05
Mof_H 	H 	0.147	0.5398	0.5822	0.05
Mof_C 	C 	0.2268	0.544	0.4675	-0.061
Mof_C 	C 	0.2884	0.5111	0.4381	-0.057
Mof_H 	H 	0.3162	0.5271	0.3781	0.053
Mof_C 	C 	0.3087	0.4548	0.4976	0.039
Mof_H 	H 	0.3507	0.4325	0.4754	0.003
Mof_C 	C 	0.2018	0.6044	0.4032	0.345
Mof_C 	C 	0.0079	0.8079	0.421	0.007
Mof_H 	H 	0.0325	0.8496	0.429	0.012
Mof_C 	C 	0.9353	0.8098	0.4006	-0.04
Mof_H 	H 	0.9113	0.852	0.394	0.049
Mof_C 	C 	0.1912	0.7017	0.6729	0.002
Mof_H 	H 	0.2172	0.6679	0.6344	0.018
Mof_C 	C 	0.189	0.6989	0.7857	-0.022
Mof_H 	H 	0.2096	0.6616	0.8236	0.041
Mof_N 	N 	0.2748	0.4295	0.5824	-0.204
Mof_O 	O 	0.1599	0.6451	0.4504	-0.453
Mof_O 	O 	0.2248	0.6099	0.307	-0.45
Mof_O 	O 	0.7928	0.8052	0.3478	-0.449
Mof_O 	O 	0.1591	0.6946	0.0156	-0.484
Mof_C 	C 	0.1253	0.7988	0.6703	0.011
Mof_C 	C 	0.1237	0.8016	0.7851	-0.026
Mof_H 	H 	0.1018	0.8334	0.6299	0.021
Mof_H 	H 	0.1005	0.8378	0.8223	0.036
Mof_Co	Co	0.19077	0.66208	0.17025	1.152
Mof_C 	C 	0.2865	0.5382	0.1118	0.028
Mof_H 	H 	0.313	0.5558	0.172	0.025
Mof_C 	C 	0.3109	0.4818	0.0583	-0.048
Mof_H 	H 	0.353	0.4602	0.0822	0.049
Mof_C 	C 	0.2732	0.456	0.9675	-0.063
Mof_C 	C 	0.2116	0.4889	0.9381	-0.056
Mof_H 	H 	0.1838	0.4729	0.8781	0.053
Mof_C 	C 	0.1913	0.5452	0.9976	0.037
Mof_H 	H 	0.1493	0.5675	0.9754	0.003
Mof_C 	C 	0.2982	0.3956	0.9032	0.346
Mof_C 	C 	0.4921	0.1921	0.921	0.006
Mof_H 	H 	0.4675	0.1504	0.929	0.013
Mof_C 	C 	0.5647	0.1902	0.9006	-0.04
Mof_H 	H 	0.5887	0.148	0.894	0.049
Mof_C 	C 	0.3088	0.2983	0.1729	0.002
Mof_H 	H 	0.2828	0.3321	0.1344	0.018
Mof_C 	C 	0.311	0.3011	0.2857	-0.021
Mof_H 	H 	0.2904	0.3384	0.3236	0.041
Mof_N 	N 	0.2252	0.5705	0.0824	-0.203
Mof_O 	O 	0.3401	0.3549	0.9504	-0.453
Mof_O 	O 	0.2752	0.3901	0.807	-0.45
Mof_O 	O 	0.7072	0.1948	0.8478	-0.449
Mof_O 	O 	0.3409	0.3054	0.5156	-0.487
Mof_C 	C 	0.3747	0.2012	0.1703	0.011
Mof_C 	C 	0.3763	0.1984	0.2851	-0.025
Mof_H 	H 	0.3982	0.1666	0.1299	0.021
Mof_H 	H 	0.3995	0.1622	0.3223	0.037
Mof_Co	Co	0.15669	0.75	0.42999	1.132
Mof_C 	C 	0.8996	0.75	0.3905	-0.078
Mof_C 	C 	0.822	0.75	0.3591	0.402
Mof_C 	C 	0.1569	0.75	0.8444	-0.083
Mof_C 	C 	0.1593	0.75	0.9713	0.422
Mof_N 	N 	0.0441	0.75	0.4296	-0.222
Mof_N 	N 	0.1584	0.75	0.6135	-0.208
Mof_O 	O 	0.1563	0.75	0.255	-0.818
Mof_H 	H 	0.115	0.75	0.24	0.258
Mof_Co	Co	0.34331	0.25	0.92999	1.132
Mof_C 	C 	0.6004	0.25	0.8905	-0.079
Mof_C 	C 	0.678	0.25	0.8591	0.402
Mof_C 	C 	0.3431	0.25	0.3444	-0.085
Mof_C 	C 	0.3407	0.25	0.4713	0.428
Mof_N 	N 	0.4559	0.25	0.9296	-0.222
Mof_N 	N 	0.3416	0.25	0.1135	-0.208
Mof_O 	O 	0.3437	0.25	0.755	-0.818
Mof_H 	H 	0.385	0.25	0.74	0.258
Mof_Co	Co	0.84331	0.25	0.57001	1.132
Mof_C 	C 	0.1004	0.25	0.6095	-0.078
Mof_C 	C 	0.178	0.25	0.6409	0.402
Mof_C 	C 	0.8431	0.25	0.1556	-0.083
Mof_C 	C 	0.8407	0.25	0.0287	0.422
Mof_N 	N 	0.9559	0.25	0.5704	-0.222
Mof_N 	N 	0.8416	0.25	0.3865	-0.208
Mof_O 	O 	0.8437	0.25	0.745	-0.818
Mof_H 	H 	0.885	0.25	0.76	0.258
Mof_Co	Co	0.65669	0.75	0.07001	1.132
Mof_C 	C 	0.3996	0.75	0.1095	-0.079
Mof_C 	C 	0.322	0.75	0.1409	0.402
Mof_C 	C 	0.6569	0.75	0.6556	-0.085
Mof_C 	C 	0.6593	0.75	0.5287	0.428
Mof_N 	N 	0.5441	0.75	0.0704	-0.222
Mof_N 	N 	0.6584	0.75	0.8865	-0.208
Mof_O 	O 	0.6563	0.75	0.245	-0.818
Mof_H 	H 	0.615	0.75	0.26	0.258
_end
