data_functionalizedCrystal
_audit_creation_method	'EQeq! by Chris Wilmer'
_symmetry_space_group_name_H-M	'P1'
_symmetry_Int_Tables_number	1
_symmetry_cell_setting	triclinic
loop_
_symmetry_equiv_pos_as_xyz
  x,y,z
_cell_length_a	9.6867
_cell_length_b	15.449
_cell_length_c	27.303
_cell_angle_alpha	90
_cell_angle_beta	90
_cell_angle_gamma	90
loop_
_atom_site_label
_atom_site_type_symbol
_atom_site_fract_x
_atom_site_fract_y
_atom_site_fract_z
_atom_site_charge
Mof_O 	O 	0.3798	0.72987	0.51646	-0.515
Mof_O 	O 	0.3625	0.59402	0.53806	-0.419
Mof_C 	C 	0.4347	0.6598	0.52924	0.41
Mof_C 	C 	0.5878	0.6597	0.53208	-0.147
Mof_H 	H 	0.6327	0.7128	0.534	0.083
Mof_O 	O 	0.1144	0.53856	0.58426	-0.378
Mof_O 	O 	0.3798	0.22987	0.01646	-0.516
Mof_O 	O 	0.3625	0.09402	0.03806	-0.42
Mof_C 	C 	0.4347	0.1598	0.02924	0.41
Mof_C 	C 	0.5878	0.1597	0.03208	-0.149
Mof_H 	H 	0.6327	0.2128	0.034	0.084
Mof_O 	O 	0.1144	0.03856	0.08426	-0.379
Mof_O 	O 	0.8798	0.72987	0.01646	-0.515
Mof_O 	O 	0.8625	0.59402	0.03806	-0.419
Mof_C 	C 	0.9347	0.6598	0.02924	0.409
Mof_C 	C 	0.0878	0.6597	0.03208	-0.148
Mof_H 	H 	0.1327	0.7128	0.034	0.084
Mof_O 	O 	0.6144	0.53856	0.08426	-0.378
Mof_O 	O 	0.8798	0.22987	0.51646	-0.516
Mof_O 	O 	0.8625	0.09402	0.53806	-0.42
Mof_C 	C 	0.9347	0.1598	0.52924	0.412
Mof_C 	C 	0.0878	0.1597	0.53208	-0.152
Mof_H 	H 	0.1327	0.2128	0.534	0.085
Mof_O 	O 	0.6144	0.03856	0.58426	-0.378
Mof_O 	O 	0.3702	0.02013	0.51646	-0.516
Mof_O 	O 	0.3875	0.15598	0.53806	-0.42
Mof_C 	C 	0.3153	0.0902	0.52924	0.408
Mof_C 	C 	0.1622	0.0903	0.53208	-0.146
Mof_H 	H 	0.1173	0.0372	0.534	0.082
Mof_O 	O 	0.6356	0.21144	0.58426	-0.378
Mof_O 	O 	0.3702	0.52013	0.01646	-0.516
Mof_O 	O 	0.3875	0.65598	0.03806	-0.42
Mof_C 	C 	0.3153	0.5902	0.02924	0.409
Mof_C 	C 	0.1622	0.5903	0.03208	-0.148
Mof_H 	H 	0.1173	0.5372	0.034	0.083
Mof_O 	O 	0.6356	0.71144	0.08426	-0.378
Mof_O 	O 	0.8702	0.02013	0.01646	-0.513
Mof_O 	O 	0.8875	0.15598	0.03806	-0.417
Mof_C 	C 	0.8153	0.0902	0.02924	0.408
Mof_C 	C 	0.6622	0.0903	0.03208	-0.147
Mof_H 	H 	0.6173	0.0372	0.034	0.083
Mof_O 	O 	0.1356	0.21144	0.08426	-0.378
Mof_O 	O 	0.8702	0.52013	0.51646	-0.516
Mof_O 	O 	0.8875	0.65598	0.53806	-0.42
Mof_C 	C 	0.8153	0.5902	0.52924	0.409
Mof_C 	C 	0.6622	0.5903	0.53208	-0.148
Mof_H 	H 	0.6173	0.5372	0.534	0.084
Mof_O 	O 	0.1356	0.71144	0.58426	-0.378
Mof_O 	O 	0.3702	0.72987	0.23354	-0.516
Mof_O 	O 	0.3875	0.59402	0.21194	-0.42
Mof_C 	C 	0.3153	0.6598	0.22076	0.409
Mof_C 	C 	0.1622	0.6597	0.21792	-0.148
Mof_H 	H 	0.1173	0.7128	0.216	0.084
Mof_O 	O 	0.6356	0.53856	0.16574	-0.378
Mof_O 	O 	0.3702	0.22987	0.73354	-0.516
Mof_O 	O 	0.3875	0.09402	0.71194	-0.42
Mof_C 	C 	0.3153	0.1598	0.72076	0.408
Mof_C 	C 	0.1622	0.1597	0.71792	-0.146
Mof_H 	H 	0.1173	0.2128	0.716	0.083
Mof_O 	O 	0.6356	0.03856	0.66574	-0.378
Mof_O 	O 	0.8702	0.72987	0.73354	-0.516
Mof_O 	O 	0.8875	0.59402	0.71194	-0.42
Mof_C 	C 	0.8153	0.6598	0.72076	0.409
Mof_C 	C 	0.6622	0.6597	0.71792	-0.148
Mof_H 	H 	0.6173	0.7128	0.716	0.084
Mof_O 	O 	0.1356	0.53856	0.66574	-0.378
Mof_O 	O 	0.8702	0.22987	0.23354	-0.515
Mof_O 	O 	0.8875	0.09402	0.21194	-0.418
Mof_C 	C 	0.8153	0.1598	0.22076	0.409
Mof_C 	C 	0.6622	0.1597	0.21792	-0.147
Mof_H 	H 	0.6173	0.2128	0.216	0.083
Mof_O 	O 	0.1356	0.03856	0.16574	-0.379
Mof_O 	O 	0.3798	0.02013	0.23354	-0.517
Mof_O 	O 	0.3625	0.15598	0.21194	-0.419
Mof_C 	C 	0.4347	0.0902	0.22076	0.409
Mof_C 	C 	0.5878	0.0903	0.21792	-0.148
Mof_H 	H 	0.6327	0.0372	0.216	0.084
Mof_O 	O 	0.1144	0.21144	0.16574	-0.378
Mof_O 	O 	0.3798	0.52013	0.73354	-0.516
Mof_O 	O 	0.3625	0.65598	0.71194	-0.42
Mof_C 	C 	0.4347	0.5902	0.72076	0.409
Mof_C 	C 	0.5878	0.5903	0.71792	-0.148
Mof_H 	H 	0.6327	0.5372	0.716	0.084
Mof_O 	O 	0.1144	0.71144	0.66574	-0.378
Mof_O 	O 	0.8798	0.02013	0.73354	-0.515
Mof_O 	O 	0.8625	0.15598	0.71194	-0.42
Mof_C 	C 	0.9347	0.0902	0.72076	0.411
Mof_C 	C 	0.0878	0.0903	0.71792	-0.151
Mof_H 	H 	0.1327	0.0372	0.716	0.084
Mof_O 	O 	0.6144	0.21144	0.66574	-0.378
Mof_O 	O 	0.8798	0.52013	0.23354	-0.516
Mof_O 	O 	0.8625	0.65598	0.21194	-0.42
Mof_C 	C 	0.9347	0.5902	0.22076	0.409
Mof_C 	C 	0.0878	0.5903	0.21792	-0.148
Mof_H 	H 	0.1327	0.5372	0.216	0.083
Mof_O 	O 	0.6144	0.71144	0.16574	-0.378
Mof_O 	O 	0.6202	0.27013	0.48354	-0.516
Mof_O 	O 	0.6375	0.40598	0.46194	-0.42
Mof_C 	C 	0.5653	0.3402	0.47076	0.409
Mof_C 	C 	0.4122	0.3403	0.46792	-0.148
Mof_H 	H 	0.3673	0.2872	0.466	0.083
Mof_O 	O 	0.8856	0.46144	0.41574	-0.378
Mof_O 	O 	0.6202	0.77013	0.98354	-0.516
Mof_O 	O 	0.6375	0.90598	0.96194	-0.42
Mof_C 	C 	0.5653	0.8402	0.97076	0.41
Mof_C 	C 	0.4122	0.8403	0.96792	-0.149
Mof_H 	H 	0.3673	0.7872	0.966	0.084
Mof_O 	O 	0.8856	0.96144	0.91574	-0.379
Mof_O 	O 	0.1202	0.27013	0.98354	-0.515
Mof_O 	O 	0.1375	0.40598	0.96194	-0.419
Mof_C 	C 	0.0653	0.3402	0.97076	0.409
Mof_C 	C 	0.9122	0.3403	0.96792	-0.148
Mof_H 	H 	0.8673	0.2872	0.966	0.084
Mof_O 	O 	0.3856	0.46144	0.91574	-0.378
Mof_O 	O 	0.1202	0.77013	0.48354	-0.516
Mof_O 	O 	0.1375	0.90598	0.46194	-0.42
Mof_C 	C 	0.0653	0.8402	0.47076	0.412
Mof_C 	C 	0.9122	0.8403	0.46792	-0.152
Mof_H 	H 	0.8673	0.7872	0.466	0.085
Mof_O 	O 	0.3856	0.96144	0.41574	-0.378
Mof_O 	O 	0.6298	0.97987	0.48354	-0.516
Mof_O 	O 	0.6125	0.84402	0.46194	-0.42
Mof_C 	C 	0.6847	0.9098	0.47076	0.408
Mof_C 	C 	0.8378	0.9097	0.46792	-0.146
Mof_H 	H 	0.8827	0.9628	0.466	0.082
Mof_O 	O 	0.3644	0.78856	0.41574	-0.378
Mof_O 	O 	0.6298	0.47987	0.98354	-0.516
Mof_O 	O 	0.6125	0.34402	0.96194	-0.42
Mof_C 	C 	0.6847	0.4098	0.97076	0.409
Mof_C 	C 	0.8378	0.4097	0.96792	-0.148
Mof_H 	H 	0.8827	0.4628	0.966	0.083
Mof_O 	O 	0.3644	0.28856	0.91574	-0.378
Mof_O 	O 	0.1298	0.97987	0.98354	-0.513
Mof_O 	O 	0.1125	0.84402	0.96194	-0.417
Mof_C 	C 	0.1847	0.9098	0.97076	0.408
Mof_C 	C 	0.3378	0.9097	0.96792	-0.147
Mof_H 	H 	0.3827	0.9628	0.966	0.083
Mof_O 	O 	0.8644	0.78856	0.91574	-0.378
Mof_O 	O 	0.1298	0.47987	0.48354	-0.516
Mof_O 	O 	0.1125	0.34402	0.46194	-0.42
Mof_C 	C 	0.1847	0.4098	0.47076	0.409
Mof_C 	C 	0.3378	0.4097	0.46792	-0.148
Mof_H 	H 	0.3827	0.4628	0.466	0.084
Mof_O 	O 	0.8644	0.28856	0.41574	-0.378
Mof_O 	O 	0.6298	0.27013	0.76646	-0.516
Mof_O 	O 	0.6125	0.40598	0.78806	-0.42
Mof_C 	C 	0.6847	0.3402	0.77924	0.409
Mof_C 	C 	0.8378	0.3403	0.78208	-0.148
Mof_H 	H 	0.8827	0.2872	0.784	0.084
Mof_O 	O 	0.3644	0.46144	0.83426	-0.378
Mof_O 	O 	0.6298	0.77013	0.26646	-0.516
Mof_O 	O 	0.6125	0.90598	0.28806	-0.42
Mof_C 	C 	0.6847	0.8402	0.27924	0.408
Mof_C 	C 	0.8378	0.8403	0.28208	-0.146
Mof_H 	H 	0.8827	0.7872	0.284	0.083
Mof_O 	O 	0.3644	0.96144	0.33426	-0.378
Mof_O 	O 	0.1298	0.27013	0.26646	-0.516
Mof_O 	O 	0.1125	0.40598	0.28806	-0.42
Mof_C 	C 	0.1847	0.3402	0.27924	0.409
Mof_C 	C 	0.3378	0.3403	0.28208	-0.148
Mof_H 	H 	0.3827	0.2872	0.284	0.084
Mof_O 	O 	0.8644	0.46144	0.33426	-0.378
Mof_O 	O 	0.1298	0.77013	0.76646	-0.515
Mof_O 	O 	0.1125	0.90598	0.78806	-0.418
Mof_C 	C 	0.1847	0.8402	0.77924	0.409
Mof_C 	C 	0.3378	0.8403	0.78208	-0.147
Mof_H 	H 	0.3827	0.7872	0.784	0.083
Mof_O 	O 	0.8644	0.96144	0.83426	-0.379
Mof_O 	O 	0.6202	0.97987	0.76646	-0.517
Mof_O 	O 	0.6375	0.84402	0.78806	-0.419
Mof_C 	C 	0.5653	0.9098	0.77924	0.409
Mof_C 	C 	0.4122	0.9097	0.78208	-0.148
Mof_H 	H 	0.3673	0.9628	0.784	0.084
Mof_O 	O 	0.8856	0.78856	0.83426	-0.378
Mof_O 	O 	0.6202	0.47987	0.26646	-0.516
Mof_O 	O 	0.6375	0.34402	0.28806	-0.42
Mof_C 	C 	0.5653	0.4098	0.27924	0.409
Mof_C 	C 	0.4122	0.4097	0.28208	-0.148
Mof_H 	H 	0.3673	0.4628	0.284	0.084
Mof_O 	O 	0.8856	0.28856	0.33426	-0.378
Mof_O 	O 	0.1202	0.97987	0.26646	-0.515
Mof_O 	O 	0.1375	0.84402	0.28806	-0.42
Mof_C 	C 	0.0653	0.9098	0.27924	0.411
Mof_C 	C 	0.9122	0.9097	0.28208	-0.151
Mof_H 	H 	0.8673	0.9628	0.284	0.084
Mof_O 	O 	0.3856	0.78856	0.33426	-0.378
Mof_O 	O 	0.1202	0.47987	0.76646	-0.516
Mof_O 	O 	0.1375	0.34402	0.78806	-0.42
Mof_C 	C 	0.0653	0.4098	0.77924	0.409
Mof_C 	C 	0.9122	0.4097	0.78208	-0.148
Mof_H 	H 	0.8673	0.4628	0.784	0.083
Mof_O 	O 	0.3856	0.28856	0.83426	-0.378
Mof_Gd	Gd	0.125	0.625	0.50944	1.67
Mof_Gd	Gd	0.125	0.125	0.00944	1.664
Mof_Gd	Gd	0.625	0.625	0.00944	1.67
Mof_Gd	Gd	0.625	0.125	0.50944	1.669
Mof_Gd	Gd	0.625	0.625	0.24056	1.669
Mof_Gd	Gd	0.625	0.125	0.74056	1.669
Mof_Gd	Gd	0.125	0.125	0.24056	1.665
Mof_Gd	Gd	0.125	0.625	0.74056	1.67
Mof_Gd	Gd	0.875	0.375	0.49056	1.67
Mof_Gd	Gd	0.875	0.875	0.99056	1.664
Mof_Gd	Gd	0.375	0.875	0.49056	1.669
Mof_Gd	Gd	0.375	0.375	0.99056	1.67
Mof_Gd	Gd	0.375	0.375	0.75944	1.669
Mof_Gd	Gd	0.375	0.875	0.25944	1.669
Mof_Gd	Gd	0.875	0.875	0.75944	1.665
Mof_Gd	Gd	0.875	0.375	0.25944	1.67
Mof_C 	C 	0.125	0.5745	0.625	0.269
Mof_C 	C 	0.125	0.0745	0.125	0.269
Mof_C 	C 	0.625	0.0745	0.625	0.269
Mof_C 	C 	0.625	0.1755	0.625	0.269
Mof_C 	C 	0.625	0.6755	0.125	0.269
Mof_C 	C 	0.625	0.5745	0.125	0.269
Mof_C 	C 	0.125	0.1755	0.125	0.269
Mof_C 	C 	0.125	0.6755	0.625	0.269
Mof_C 	C 	0.875	0.4255	0.375	0.269
Mof_C 	C 	0.875	0.9255	0.875	0.269
Mof_C 	C 	0.375	0.8245	0.375	0.269
Mof_C 	C 	0.375	0.3245	0.875	0.269
Mof_C 	C 	0.375	0.4255	0.875	0.269
Mof_C 	C 	0.375	0.9255	0.375	0.269
Mof_C 	C 	0.875	0.8245	0.875	0.269
Mof_C 	C 	0.875	0.3245	0.375	0.269
_end
