# CIF file generated by openbabel 3.1.0, see https://openbabel.org
data_I
_chemical_name_common 'image0'
_cell_length_a 26.7264
_cell_length_b 26.7264
_cell_length_c 26.7264
_cell_angle_alpha 90
_cell_angle_beta 90
_cell_angle_gamma 90
_space_group_name_H-M_alt 'P 1'
_space_group_name_Hall 'P 1'
loop_
    _symmetry_equiv_pos_as_xyz
    x,y,z
loop_
    _atom_site_label
    _atom_site_type_symbol
    _atom_site_fract_x
    _atom_site_fract_y
    _atom_site_fract_z
    _atom_site_occupancy
    O1       O        0.05730    0.42810    0.39380    1.000
    O2       O        0.03690    0.43180    0.32020    1.000
    C1       C        0.07410    0.43030    0.35050    1.000
    C2       C        0.11900    0.39840    0.33830    1.000
    C3       C        0.13780    0.39940    0.29050    1.000
    C4       C        0.14200    0.36890    0.37280    1.000
    H1       H        0.12180    0.41820    0.26600    1.000
    C5       C        0.18020    0.37250    0.27850    1.000
    C6       C        0.18390    0.34040    0.36110    1.000
    H2       H        0.12920    0.36770    0.40520    1.000
    H3       H        0.19320    0.37450    0.24630    1.000
    C7       C        0.20320    0.34310    0.31280    1.000
    H4       H        0.19870    0.31990    0.38500    1.000
    C8       C        0.24710    0.31310    0.29890    1.000
    N1       N        0.27340    0.32790    0.25880    1.000
    O3       O        0.06790    0.44530    0.39400    1.000
    O4       O        0.06680    0.46740    0.32050    1.000
    O5       O        0.94270    0.57190    0.39380    1.000
    O6       O        0.96310    0.56820    0.32020    1.000
    C9       C        0.92590    0.56970    0.35050    1.000
    C10      C        0.88100    0.60160    0.33830    1.000
    C11      C        0.86220    0.60060    0.29050    1.000
    C12      C        0.85800    0.63110    0.37280    1.000
    H5       H        0.87820    0.58180    0.26600    1.000
    C13      C        0.81980    0.62750    0.27850    1.000
    C14      C        0.81610    0.65960    0.36110    1.000
    H6       H        0.87080    0.63230    0.40520    1.000
    H7       H        0.80680    0.62550    0.24630    1.000
    C15      C        0.79680    0.65690    0.31280    1.000
    H8       H        0.80130    0.68010    0.38500    1.000
    C16      C        0.75290    0.68690    0.29890    1.000
    N2       N        0.72660    0.67210    0.25880    1.000
    O7       O        0.93210    0.55470    0.39400    1.000
    O8       O        0.93320    0.53260    0.32050    1.000
    O9       O        0.94270    0.42810    0.60620    1.000
    O10      O        0.96310    0.43180    0.67980    1.000
    C17      C        0.92590    0.43030    0.64950    1.000
    C18      C        0.88100    0.39840    0.66170    1.000
    C19      C        0.86220    0.39940    0.70950    1.000
    C20      C        0.85800    0.36890    0.62720    1.000
    H9       H        0.87820    0.41820    0.73400    1.000
    C21      C        0.81980    0.37250    0.72150    1.000
    C22      C        0.81610    0.34040    0.63890    1.000
    H10      H        0.87080    0.36770    0.59480    1.000
    H11      H        0.80680    0.37450    0.75370    1.000
    C23      C        0.79680    0.34310    0.68720    1.000
    H12      H        0.80130    0.31990    0.61500    1.000
    C24      C        0.75290    0.31310    0.70110    1.000
    N3       N        0.72660    0.32790    0.74120    1.000
    O11      O        0.93210    0.44530    0.60600    1.000
    O12      O        0.93320    0.46740    0.67950    1.000
    O13      O        0.05730    0.57190    0.60620    1.000
    O14      O        0.03690    0.56820    0.67980    1.000
    C25      C        0.07410    0.56970    0.64950    1.000
    C26      C        0.11900    0.60160    0.66170    1.000
    C27      C        0.13780    0.60060    0.70950    1.000
    C28      C        0.14200    0.63110    0.62720    1.000
    H13      H        0.12180    0.58180    0.73400    1.000
    C29      C        0.18020    0.62750    0.72150    1.000
    C30      C        0.18390    0.65960    0.63890    1.000
    H14      H        0.12920    0.63230    0.59480    1.000
    H15      H        0.19320    0.62550    0.75370    1.000
    C31      C        0.20320    0.65690    0.68720    1.000
    H16      H        0.19870    0.68010    0.61500    1.000
    C32      C        0.24710    0.68690    0.70110    1.000
    N4       N        0.27340    0.67210    0.74120    1.000
    O15      O        0.06790    0.55470    0.60600    1.000
    O16      O        0.06680    0.53260    0.67950    1.000
    O17      O        0.39380    0.05730    0.42810    1.000
    O18      O        0.32020    0.03690    0.43180    1.000
    C33      C        0.35050    0.07410    0.43030    1.000
    C34      C        0.33830    0.11900    0.39840    1.000
    C35      C        0.29050    0.13780    0.39940    1.000
    C36      C        0.37280    0.14200    0.36890    1.000
    H17      H        0.26600    0.12180    0.41820    1.000
    C37      C        0.27850    0.18020    0.37250    1.000
    C38      C        0.36110    0.18390    0.34040    1.000
    H18      H        0.40520    0.12920    0.36770    1.000
    H19      H        0.24630    0.19320    0.37450    1.000
    C39      C        0.31280    0.20320    0.34310    1.000
    H20      H        0.38500    0.19870    0.31990    1.000
    C40      C        0.29890    0.24710    0.31310    1.000
    N5       N        0.25880    0.27340    0.32790    1.000
    O19      O        0.39400    0.06790    0.44530    1.000
    O20      O        0.32050    0.06680    0.46740    1.000
    O21      O        0.39380    0.94270    0.57190    1.000
    O22      O        0.32020    0.96310    0.56820    1.000
    C41      C        0.35050    0.92590    0.56970    1.000
    C42      C        0.33830    0.88100    0.60160    1.000
    C43      C        0.29050    0.86220    0.60060    1.000
    C44      C        0.37280    0.85800    0.63110    1.000
    H21      H        0.26600    0.87820    0.58180    1.000
    C45      C        0.27850    0.81980    0.62750    1.000
    C46      C        0.36110    0.81610    0.65960    1.000
    H22      H        0.40520    0.87080    0.63230    1.000
    H23      H        0.24630    0.80680    0.62550    1.000
    C47      C        0.31280    0.79680    0.65690    1.000
    H24      H        0.38500    0.80130    0.68010    1.000
    C48      C        0.29890    0.75290    0.68690    1.000
    N6       N        0.25880    0.72660    0.67210    1.000
    O23      O        0.39400    0.93210    0.55470    1.000
    O24      O        0.32050    0.93320    0.53260    1.000
    O25      O        0.60620    0.94270    0.42810    1.000
    O26      O        0.67980    0.96310    0.43180    1.000
    C49      C        0.64950    0.92590    0.43030    1.000
    C50      C        0.66170    0.88100    0.39840    1.000
    C51      C        0.70950    0.86220    0.39940    1.000
    C52      C        0.62720    0.85800    0.36890    1.000
    H25      H        0.73400    0.87820    0.41820    1.000
    C53      C        0.72150    0.81980    0.37250    1.000
    C54      C        0.63890    0.81610    0.34040    1.000
    H26      H        0.59480    0.87080    0.36770    1.000
    H27      H        0.75370    0.80680    0.37450    1.000
    C55      C        0.68720    0.79680    0.34310    1.000
    H28      H        0.61500    0.80130    0.31990    1.000
    C56      C        0.70110    0.75290    0.31310    1.000
    N7       N        0.74120    0.72660    0.32790    1.000
    O27      O        0.60600    0.93210    0.44530    1.000
    O28      O        0.67950    0.93320    0.46740    1.000
    O29      O        0.60620    0.05730    0.57190    1.000
    O30      O        0.67980    0.03690    0.56820    1.000
    C57      C        0.64950    0.07410    0.56970    1.000
    C58      C        0.66170    0.11900    0.60160    1.000
    C59      C        0.70950    0.13780    0.60060    1.000
    C60      C        0.62720    0.14200    0.63110    1.000
    H29      H        0.73400    0.12180    0.58180    1.000
    C61      C        0.72150    0.18020    0.62750    1.000
    C62      C        0.63890    0.18390    0.65960    1.000
    H30      H        0.59480    0.12920    0.63230    1.000
    H31      H        0.75370    0.19320    0.62550    1.000
    C63      C        0.68720    0.20320    0.65690    1.000
    H32      H        0.61500    0.19870    0.68010    1.000
    C64      C        0.70110    0.24710    0.68690    1.000
    N8       N        0.74120    0.27340    0.67210    1.000
    O31      O        0.60600    0.06790    0.55470    1.000
    O32      O        0.67950    0.06680    0.53260    1.000
    O33      O        0.42810    0.39380    0.05730    1.000
    O34      O        0.43180    0.32020    0.03690    1.000
    C65      C        0.43030    0.35050    0.07410    1.000
    C66      C        0.39840    0.33830    0.11900    1.000
    C67      C        0.39940    0.29050    0.13780    1.000
    C68      C        0.36890    0.37280    0.14200    1.000
    H33      H        0.41820    0.26600    0.12180    1.000
    C69      C        0.37250    0.27850    0.18020    1.000
    C70      C        0.34040    0.36110    0.18390    1.000
    H34      H        0.36770    0.40520    0.12920    1.000
    H35      H        0.37450    0.24630    0.19320    1.000
    C71      C        0.34310    0.31280    0.20320    1.000
    H36      H        0.31990    0.38500    0.19870    1.000
    C72      C        0.31310    0.29890    0.24710    1.000
    N9       N        0.32790    0.25880    0.27340    1.000
    O35      O        0.44530    0.39400    0.06790    1.000
    O36      O        0.46740    0.32050    0.06680    1.000
    O37      O        0.57190    0.39380    0.94270    1.000
    O38      O        0.56820    0.32020    0.96310    1.000
    C73      C        0.56970    0.35050    0.92590    1.000
    C74      C        0.60160    0.33830    0.88100    1.000
    C75      C        0.60060    0.29050    0.86220    1.000
    C76      C        0.63110    0.37280    0.85800    1.000
    H37      H        0.58180    0.26600    0.87820    1.000
    C77      C        0.62750    0.27850    0.81980    1.000
    C78      C        0.65960    0.36110    0.81610    1.000
    H38      H        0.63230    0.40520    0.87080    1.000
    H39      H        0.62550    0.24630    0.80680    1.000
    C79      C        0.65690    0.31280    0.79680    1.000
    H40      H        0.68010    0.38500    0.80130    1.000
    C80      C        0.68690    0.29890    0.75290    1.000
    N10      N        0.67210    0.25880    0.72660    1.000
    O39      O        0.55470    0.39400    0.93210    1.000
    O40      O        0.53260    0.32050    0.93320    1.000
    O41      O        0.42810    0.60620    0.94270    1.000
    O42      O        0.43180    0.67980    0.96310    1.000
    C81      C        0.43030    0.64950    0.92590    1.000
    C82      C        0.39840    0.66170    0.88100    1.000
    C83      C        0.39940    0.70950    0.86220    1.000
    C84      C        0.36890    0.62720    0.85800    1.000
    H41      H        0.41820    0.73400    0.87820    1.000
    C85      C        0.37250    0.72150    0.81980    1.000
    C86      C        0.34040    0.63890    0.81610    1.000
    H42      H        0.36770    0.59480    0.87080    1.000
    H43      H        0.37450    0.75370    0.80680    1.000
    C87      C        0.34310    0.68720    0.79680    1.000
    H44      H        0.31990    0.61500    0.80130    1.000
    C88      C        0.31310    0.70110    0.75290    1.000
    N11      N        0.32790    0.74120    0.72660    1.000
    O43      O        0.44530    0.60600    0.93210    1.000
    O44      O        0.46740    0.67950    0.93320    1.000
    O45      O        0.57190    0.60620    0.05730    1.000
    O46      O        0.56820    0.67980    0.03690    1.000
    C89      C        0.56970    0.64950    0.07410    1.000
    C90      C        0.60160    0.66170    0.11900    1.000
    C91      C        0.60060    0.70950    0.13780    1.000
    C92      C        0.63110    0.62720    0.14200    1.000
    H45      H        0.58180    0.73400    0.12180    1.000
    C93      C        0.62750    0.72150    0.18020    1.000
    C94      C        0.65960    0.63890    0.18390    1.000
    H46      H        0.63230    0.59480    0.12920    1.000
    H47      H        0.62550    0.75370    0.19320    1.000
    C95      C        0.65690    0.68720    0.20320    1.000
    H48      H        0.68010    0.61500    0.19870    1.000
    C96      C        0.68690    0.70110    0.24710    1.000
    N12      N        0.67210    0.74120    0.27340    1.000
    O47      O        0.55470    0.60600    0.06790    1.000
    O48      O        0.53260    0.67950    0.06680    1.000
    O49      O        0.94270    0.57190    0.60620    1.000
    O50      O        0.96310    0.56820    0.67980    1.000
    C97      C        0.92590    0.56970    0.64950    1.000
    C98      C        0.88100    0.60160    0.66170    1.000
    C99      C        0.86220    0.60060    0.70950    1.000
    C100     C        0.85800    0.63110    0.62720    1.000
    H49      H        0.87820    0.58180    0.73400    1.000
    C101     C        0.81980    0.62750    0.72150    1.000
    C102     C        0.81610    0.65960    0.63890    1.000
    H50      H        0.87080    0.63230    0.59480    1.000
    H51      H        0.80680    0.62550    0.75370    1.000
    C103     C        0.79680    0.65690    0.68720    1.000
    H52      H        0.80130    0.68010    0.61500    1.000
    C104     C        0.75290    0.68690    0.70110    1.000
    N13      N        0.72660    0.67210    0.74120    1.000
    O51      O        0.93210    0.55470    0.60600    1.000
    O52      O        0.93320    0.53260    0.67950    1.000
    O53      O        0.05730    0.42810    0.60620    1.000
    O54      O        0.03690    0.43180    0.67980    1.000
    C105     C        0.07410    0.43030    0.64950    1.000
    C106     C        0.11900    0.39840    0.66170    1.000
    C107     C        0.13780    0.39940    0.70950    1.000
    C108     C        0.14200    0.36890    0.62720    1.000
    H53      H        0.12180    0.41820    0.73400    1.000
    C109     C        0.18020    0.37250    0.72150    1.000
    C110     C        0.18390    0.34040    0.63890    1.000
    H54      H        0.12920    0.36770    0.59480    1.000
    H55      H        0.19320    0.37450    0.75370    1.000
    C111     C        0.20320    0.34310    0.68720    1.000
    H56      H        0.19870    0.31990    0.61500    1.000
    C112     C        0.24710    0.31310    0.70110    1.000
    N14      N        0.27340    0.32790    0.74120    1.000
    O55      O        0.06790    0.44530    0.60600    1.000
    O56      O        0.06680    0.46740    0.67950    1.000
    O57      O        0.05730    0.57190    0.39380    1.000
    O58      O        0.03690    0.56820    0.32020    1.000
    C113     C        0.07410    0.56970    0.35050    1.000
    C114     C        0.11900    0.60160    0.33830    1.000
    C115     C        0.13780    0.60060    0.29050    1.000
    C116     C        0.14200    0.63110    0.37280    1.000
    H57      H        0.12180    0.58180    0.26600    1.000
    C117     C        0.18020    0.62750    0.27850    1.000
    C118     C        0.18390    0.65960    0.36110    1.000
    H58      H        0.12920    0.63230    0.40520    1.000
    H59      H        0.19320    0.62550    0.24630    1.000
    C119     C        0.20320    0.65690    0.31280    1.000
    H60      H        0.19870    0.68010    0.38500    1.000
    C120     C        0.24710    0.68690    0.29890    1.000
    N15      N        0.27340    0.67210    0.25880    1.000
    O59      O        0.06790    0.55470    0.39400    1.000
    O60      O        0.06680    0.53260    0.32050    1.000
    O61      O        0.94270    0.42810    0.39380    1.000
    O62      O        0.96310    0.43180    0.32020    1.000
    C121     C        0.92590    0.43030    0.35050    1.000
    C122     C        0.88100    0.39840    0.33830    1.000
    C123     C        0.86220    0.39940    0.29050    1.000
    C124     C        0.85800    0.36890    0.37280    1.000
    H61      H        0.87820    0.41820    0.26600    1.000
    C125     C        0.81980    0.37250    0.27850    1.000
    C126     C        0.81610    0.34040    0.36110    1.000
    H62      H        0.87080    0.36770    0.40520    1.000
    H63      H        0.80680    0.37450    0.24630    1.000
    C127     C        0.79680    0.34310    0.31280    1.000
    H64      H        0.80130    0.31990    0.38500    1.000
    C128     C        0.75290    0.31310    0.29890    1.000
    N16      N        0.72660    0.32790    0.25880    1.000
    O63      O        0.93210    0.44530    0.39400    1.000
    O64      O        0.93320    0.46740    0.32050    1.000
    O65      O        0.60620    0.94270    0.57190    1.000
    O66      O        0.67980    0.96310    0.56820    1.000
    C129     C        0.64950    0.92590    0.56970    1.000
    C130     C        0.66170    0.88100    0.60160    1.000
    C131     C        0.70950    0.86220    0.60060    1.000
    C132     C        0.62720    0.85800    0.63110    1.000
    H65      H        0.73400    0.87820    0.58180    1.000
    C133     C        0.72150    0.81980    0.62750    1.000
    C134     C        0.63890    0.81610    0.65960    1.000
    H66      H        0.59480    0.87080    0.63230    1.000
    H67      H        0.75370    0.80680    0.62550    1.000
    C135     C        0.68720    0.79680    0.65690    1.000
    H68      H        0.61500    0.80130    0.68010    1.000
    C136     C        0.70110    0.75290    0.68690    1.000
    N17      N        0.74120    0.72660    0.67210    1.000
    O67      O        0.60600    0.93210    0.55470    1.000
    O68      O        0.67950    0.93320    0.53260    1.000
    O69      O        0.60620    0.05730    0.42810    1.000
    O70      O        0.67980    0.03690    0.43180    1.000
    C137     C        0.64950    0.07410    0.43030    1.000
    C138     C        0.66170    0.11900    0.39840    1.000
    C139     C        0.70950    0.13780    0.39940    1.000
    C140     C        0.62720    0.14200    0.36890    1.000
    H69      H        0.73400    0.12180    0.41820    1.000
    C141     C        0.72150    0.18020    0.37250    1.000
    C142     C        0.63890    0.18390    0.34040    1.000
    H70      H        0.59480    0.12920    0.36770    1.000
    H71      H        0.75370    0.19320    0.37450    1.000
    C143     C        0.68720    0.20320    0.34310    1.000
    H72      H        0.61500    0.19870    0.31990    1.000
    C144     C        0.70110    0.24710    0.31310    1.000
    N18      N        0.74120    0.27340    0.32790    1.000
    O71      O        0.60600    0.06790    0.44530    1.000
    O72      O        0.67950    0.06680    0.46740    1.000
    O73      O        0.39380    0.05730    0.57190    1.000
    O74      O        0.32020    0.03690    0.56820    1.000
    C145     C        0.35050    0.07410    0.56970    1.000
    C146     C        0.33830    0.11900    0.60160    1.000
    C147     C        0.29050    0.13780    0.60060    1.000
    C148     C        0.37280    0.14200    0.63110    1.000
    H73      H        0.26600    0.12180    0.58180    1.000
    C149     C        0.27850    0.18020    0.62750    1.000
    C150     C        0.36110    0.18390    0.65960    1.000
    H74      H        0.40520    0.12920    0.63230    1.000
    H75      H        0.24630    0.19320    0.62550    1.000
    C151     C        0.31280    0.20320    0.65690    1.000
    H76      H        0.38500    0.19870    0.68010    1.000
    C152     C        0.29890    0.24710    0.68690    1.000
    N19      N        0.25880    0.27340    0.67210    1.000
    O75      O        0.39400    0.06790    0.55470    1.000
    O76      O        0.32050    0.06680    0.53260    1.000
    O77      O        0.39380    0.94270    0.42810    1.000
    O78      O        0.32020    0.96310    0.43180    1.000
    C153     C        0.35050    0.92590    0.43030    1.000
    C154     C        0.33830    0.88100    0.39840    1.000
    C155     C        0.29050    0.86220    0.39940    1.000
    C156     C        0.37280    0.85800    0.36890    1.000
    H77      H        0.26600    0.87820    0.41820    1.000
    C157     C        0.27850    0.81980    0.37250    1.000
    C158     C        0.36110    0.81610    0.34040    1.000
    H78      H        0.40520    0.87080    0.36770    1.000
    H79      H        0.24630    0.80680    0.37450    1.000
    C159     C        0.31280    0.79680    0.34310    1.000
    H80      H        0.38500    0.80130    0.31990    1.000
    C160     C        0.29890    0.75290    0.31310    1.000
    N20      N        0.25880    0.72660    0.32790    1.000
    O79      O        0.39400    0.93210    0.44530    1.000
    O80      O        0.32050    0.93320    0.46740    1.000
    O81      O        0.57190    0.60620    0.94270    1.000
    O82      O        0.56820    0.67980    0.96310    1.000
    C161     C        0.56970    0.64950    0.92590    1.000
    C162     C        0.60160    0.66170    0.88100    1.000
    C163     C        0.60060    0.70950    0.86220    1.000
    C164     C        0.63110    0.62720    0.85800    1.000
    H81      H        0.58180    0.73400    0.87820    1.000
    C165     C        0.62750    0.72150    0.81980    1.000
    C166     C        0.65960    0.63890    0.81610    1.000
    H82      H        0.63230    0.59480    0.87080    1.000
    H83      H        0.62550    0.75370    0.80680    1.000
    C167     C        0.65690    0.68720    0.79680    1.000
    H84      H        0.68010    0.61500    0.80130    1.000
    C168     C        0.68690    0.70110    0.75290    1.000
    N21      N        0.67210    0.74120    0.72660    1.000
    O83      O        0.55470    0.60600    0.93210    1.000
    O84      O        0.53260    0.67950    0.93320    1.000
    O85      O        0.42810    0.60620    0.05730    1.000
    O86      O        0.43180    0.67980    0.03690    1.000
    C169     C        0.43030    0.64950    0.07410    1.000
    C170     C        0.39840    0.66170    0.11900    1.000
    C171     C        0.39940    0.70950    0.13780    1.000
    C172     C        0.36890    0.62720    0.14200    1.000
    H85      H        0.41820    0.73400    0.12180    1.000
    C173     C        0.37250    0.72150    0.18020    1.000
    C174     C        0.34040    0.63890    0.18390    1.000
    H86      H        0.36770    0.59480    0.12920    1.000
    H87      H        0.37450    0.75370    0.19320    1.000
    C175     C        0.34310    0.68720    0.20320    1.000
    H88      H        0.31990    0.61500    0.19870    1.000
    C176     C        0.31310    0.70110    0.24710    1.000
    N22      N        0.32790    0.74120    0.27340    1.000
    O87      O        0.44530    0.60600    0.06790    1.000
    O88      O        0.46740    0.67950    0.06680    1.000
    O89      O        0.57190    0.39380    0.05730    1.000
    O90      O        0.56820    0.32020    0.03690    1.000
    C177     C        0.56970    0.35050    0.07410    1.000
    C178     C        0.60160    0.33830    0.11900    1.000
    C179     C        0.60060    0.29050    0.13780    1.000
    C180     C        0.63110    0.37280    0.14200    1.000
    H89      H        0.58180    0.26600    0.12180    1.000
    C181     C        0.62750    0.27850    0.18020    1.000
    C182     C        0.65960    0.36110    0.18390    1.000
    H90      H        0.63230    0.40520    0.12920    1.000
    H91      H        0.62550    0.24630    0.19320    1.000
    C183     C        0.65690    0.31280    0.20320    1.000
    H92      H        0.68010    0.38500    0.19870    1.000
    C184     C        0.68690    0.29890    0.24710    1.000
    N23      N        0.67210    0.25880    0.27340    1.000
    O91      O        0.55470    0.39400    0.06790    1.000
    O92      O        0.53260    0.32050    0.06680    1.000
    O93      O        0.42810    0.39380    0.94270    1.000
    O94      O        0.43180    0.32020    0.96310    1.000
    C185     C        0.43030    0.35050    0.92590    1.000
    C186     C        0.39840    0.33830    0.88100    1.000
    C187     C        0.39940    0.29050    0.86220    1.000
    C188     C        0.36890    0.37280    0.85800    1.000
    H93      H        0.41820    0.26600    0.87820    1.000
    C189     C        0.37250    0.27850    0.81980    1.000
    C190     C        0.34040    0.36110    0.81610    1.000
    H94      H        0.36770    0.40520    0.87080    1.000
    H95      H        0.37450    0.24630    0.80680    1.000
    C191     C        0.34310    0.31280    0.79680    1.000
    H96      H        0.31990    0.38500    0.80130    1.000
    C192     C        0.31310    0.29890    0.75290    1.000
    N24      N        0.32790    0.25880    0.72660    1.000
    O95      O        0.44530    0.39400    0.93210    1.000
    O96      O        0.46740    0.32050    0.93320    1.000
    Tb1      Tb       0.00000    0.50000    0.37297    1.000
    O97      O        0.00000    0.50000    0.45770    1.000
    Tb2      Tb       0.00000    0.50000    0.62703    1.000
    O98      O        0.00000    0.50000    0.54230    1.000
    Tb3      Tb       0.37297    0.00000    0.50000    1.000
    O99      O        0.45770    0.00000    0.50000    1.000
    Tb4      Tb       0.62703    0.00000    0.50000    1.000
    O100     O        0.54230    0.00000    0.50000    1.000
    Tb5      Tb       0.50000    0.37297    0.00000    1.000
    O101     O        0.50000    0.45770    0.00000    1.000
    Tb6      Tb       0.50000    0.62703    0.00000    1.000
    O102     O        0.50000    0.54230    0.00000    1.000
    C193     C        0.01750    0.50000    0.50000    1.000
    C194     C        0.98250    0.50000    0.50000    1.000
    C195     C        0.50000    0.01750    0.50000    1.000
    C196     C        0.50000    0.98250    0.50000    1.000
    C197     C        0.50000    0.50000    0.01750    1.000
    C198     C        0.50000    0.50000    0.98250    1.000
    O103     O        0.55730    0.92810    0.89380    1.000
    O104     O        0.53690    0.93180    0.82020    1.000
    C199     C        0.57410    0.93030    0.85050    1.000
    C200     C        0.61900    0.89840    0.83830    1.000
    C201     C        0.63780    0.89940    0.79050    1.000
    C202     C        0.64200    0.86890    0.87280    1.000
    H97      H        0.62180    0.91820    0.76600    1.000
    C203     C        0.68020    0.87250    0.77850    1.000
    C204     C        0.68390    0.84040    0.86110    1.000
    H98      H        0.62920    0.86770    0.90520    1.000
    H99      H        0.69320    0.87450    0.74630    1.000
    C205     C        0.70320    0.84310    0.81280    1.000
    H100     H        0.69870    0.81990    0.88500    1.000
    C206     C        0.74710    0.81310    0.79890    1.000
    N25      N        0.77340    0.82790    0.75880    1.000
    O105     O        0.56790    0.94530    0.89400    1.000
    O106     O        0.56680    0.96740    0.82050    1.000
    O107     O        0.44270    0.07190    0.89380    1.000
    O108     O        0.46310    0.06820    0.82020    1.000
    C207     C        0.42590    0.06970    0.85050    1.000
    C208     C        0.38100    0.10160    0.83830    1.000
    C209     C        0.36220    0.10060    0.79050    1.000
    C210     C        0.35800    0.13110    0.87280    1.000
    H101     H        0.37820    0.08180    0.76600    1.000
    C211     C        0.31980    0.12750    0.77850    1.000
    C212     C        0.31610    0.15960    0.86110    1.000
    H102     H        0.37080    0.13230    0.90520    1.000
    H103     H        0.30680    0.12550    0.74630    1.000
    C213     C        0.29680    0.15690    0.81280    1.000
    H104     H        0.30130    0.18010    0.88500    1.000
    C214     C        0.25290    0.18690    0.79890    1.000
    N26      N        0.22660    0.17210    0.75880    1.000
    O109     O        0.43210    0.05470    0.89400    1.000
    O110     O        0.43320    0.03260    0.82050    1.000
    O111     O        0.44270    0.92810    0.10620    1.000
    O112     O        0.46310    0.93180    0.17980    1.000
    C215     C        0.42590    0.93030    0.14950    1.000
    C216     C        0.38100    0.89840    0.16170    1.000
    C217     C        0.36220    0.89940    0.20950    1.000
    C218     C        0.35800    0.86890    0.12720    1.000
    H105     H        0.37820    0.91820    0.23400    1.000
    C219     C        0.31980    0.87250    0.22150    1.000
    C220     C        0.31610    0.84040    0.13890    1.000
    H106     H        0.37080    0.86770    0.09480    1.000
    H107     H        0.30680    0.87450    0.25370    1.000
    C221     C        0.29680    0.84310    0.18720    1.000
    H108     H        0.30130    0.81990    0.11500    1.000
    C222     C        0.25290    0.81310    0.20110    1.000
    N27      N        0.22660    0.82790    0.24120    1.000
    O113     O        0.43210    0.94530    0.10600    1.000
    O114     O        0.43320    0.96740    0.17950    1.000
    O115     O        0.55730    0.07190    0.10620    1.000
    O116     O        0.53690    0.06820    0.17980    1.000
    C223     C        0.57410    0.06970    0.14950    1.000
    C224     C        0.61900    0.10160    0.16170    1.000
    C225     C        0.63780    0.10060    0.20950    1.000
    C226     C        0.64200    0.13110    0.12720    1.000
    H109     H        0.62180    0.08180    0.23400    1.000
    C227     C        0.68020    0.12750    0.22150    1.000
    C228     C        0.68390    0.15960    0.13890    1.000
    H110     H        0.62920    0.13230    0.09480    1.000
    H111     H        0.69320    0.12550    0.25370    1.000
    C229     C        0.70320    0.15690    0.18720    1.000
    H112     H        0.69870    0.18010    0.11500    1.000
    C230     C        0.74710    0.18690    0.20110    1.000
    N28      N        0.77340    0.17210    0.24120    1.000
    O117     O        0.56790    0.05470    0.10600    1.000
    O118     O        0.56680    0.03260    0.17950    1.000
    O119     O        0.89380    0.55730    0.92810    1.000
    O120     O        0.82020    0.53690    0.93180    1.000
    C231     C        0.85050    0.57410    0.93030    1.000
    C232     C        0.83830    0.61900    0.89840    1.000
    C233     C        0.79050    0.63780    0.89940    1.000
    C234     C        0.87280    0.64200    0.86890    1.000
    H113     H        0.76600    0.62180    0.91820    1.000
    C235     C        0.77850    0.68020    0.87250    1.000
    C236     C        0.86110    0.68390    0.84040    1.000
    H114     H        0.90520    0.62920    0.86770    1.000
    H115     H        0.74630    0.69320    0.87450    1.000
    C237     C        0.81280    0.70320    0.84310    1.000
    H116     H        0.88500    0.69870    0.81990    1.000
    C238     C        0.79890    0.74710    0.81310    1.000
    N29      N        0.75880    0.77340    0.82790    1.000
    O121     O        0.89400    0.56790    0.94530    1.000
    O122     O        0.82050    0.56680    0.96740    1.000
    O123     O        0.89380    0.44270    0.07190    1.000
    O124     O        0.82020    0.46310    0.06820    1.000
    C239     C        0.85050    0.42590    0.06970    1.000
    C240     C        0.83830    0.38100    0.10160    1.000
    C241     C        0.79050    0.36220    0.10060    1.000
    C242     C        0.87280    0.35800    0.13110    1.000
    H117     H        0.76600    0.37820    0.08180    1.000
    C243     C        0.77850    0.31980    0.12750    1.000
    C244     C        0.86110    0.31610    0.15960    1.000
    H118     H        0.90520    0.37080    0.13230    1.000
    H119     H        0.74630    0.30680    0.12550    1.000
    C245     C        0.81280    0.29680    0.15690    1.000
    H120     H        0.88500    0.30130    0.18010    1.000
    C246     C        0.79890    0.25290    0.18690    1.000
    N30      N        0.75880    0.22660    0.17210    1.000
    O125     O        0.89400    0.43210    0.05470    1.000
    O126     O        0.82050    0.43320    0.03260    1.000
    O127     O        0.10620    0.44270    0.92810    1.000
    O128     O        0.17980    0.46310    0.93180    1.000
    C247     C        0.14950    0.42590    0.93030    1.000
    C248     C        0.16170    0.38100    0.89840    1.000
    C249     C        0.20950    0.36220    0.89940    1.000
    C250     C        0.12720    0.35800    0.86890    1.000
    H121     H        0.23400    0.37820    0.91820    1.000
    C251     C        0.22150    0.31980    0.87250    1.000
    C252     C        0.13890    0.31610    0.84040    1.000
    H122     H        0.09480    0.37080    0.86770    1.000
    H123     H        0.25370    0.30680    0.87450    1.000
    C253     C        0.18720    0.29680    0.84310    1.000
    H124     H        0.11500    0.30130    0.81990    1.000
    C254     C        0.20110    0.25290    0.81310    1.000
    N31      N        0.24120    0.22660    0.82790    1.000
    O129     O        0.10600    0.43210    0.94530    1.000
    O130     O        0.17950    0.43320    0.96740    1.000
    O131     O        0.10620    0.55730    0.07190    1.000
    O132     O        0.17980    0.53690    0.06820    1.000
    C255     C        0.14950    0.57410    0.06970    1.000
    C256     C        0.16170    0.61900    0.10160    1.000
    C257     C        0.20950    0.63780    0.10060    1.000
    C258     C        0.12720    0.64200    0.13110    1.000
    H125     H        0.23400    0.62180    0.08180    1.000
    C259     C        0.22150    0.68020    0.12750    1.000
    C260     C        0.13890    0.68390    0.15960    1.000
    H126     H        0.09480    0.62920    0.13230    1.000
    H127     H        0.25370    0.69320    0.12550    1.000
    C261     C        0.18720    0.70320    0.15690    1.000
    H128     H        0.11500    0.69870    0.18010    1.000
    C262     C        0.20110    0.74710    0.18690    1.000
    N32      N        0.24120    0.77340    0.17210    1.000
    O133     O        0.10600    0.56790    0.05470    1.000
    O134     O        0.17950    0.56680    0.03260    1.000
    O135     O        0.92810    0.89380    0.55730    1.000
    O136     O        0.93180    0.82020    0.53690    1.000
    C263     C        0.93030    0.85050    0.57410    1.000
    C264     C        0.89840    0.83830    0.61900    1.000
    C265     C        0.89940    0.79050    0.63780    1.000
    C266     C        0.86890    0.87280    0.64200    1.000
    H129     H        0.91820    0.76600    0.62180    1.000
    C267     C        0.87250    0.77850    0.68020    1.000
    C268     C        0.84040    0.86110    0.68390    1.000
    H130     H        0.86770    0.90520    0.62920    1.000
    H131     H        0.87450    0.74630    0.69320    1.000
    C269     C        0.84310    0.81280    0.70320    1.000
    H132     H        0.81990    0.88500    0.69870    1.000
    C270     C        0.81310    0.79890    0.74710    1.000
    N33      N        0.82790    0.75880    0.77340    1.000
    O137     O        0.94530    0.89400    0.56790    1.000
    O138     O        0.96740    0.82050    0.56680    1.000
    O139     O        0.07190    0.89380    0.44270    1.000
    O140     O        0.06820    0.82020    0.46310    1.000
    C271     C        0.06970    0.85050    0.42590    1.000
    C272     C        0.10160    0.83830    0.38100    1.000
    C273     C        0.10060    0.79050    0.36220    1.000
    C274     C        0.13110    0.87280    0.35800    1.000
    H133     H        0.08180    0.76600    0.37820    1.000
    C275     C        0.12750    0.77850    0.31980    1.000
    C276     C        0.15960    0.86110    0.31610    1.000
    H134     H        0.13230    0.90520    0.37080    1.000
    H135     H        0.12550    0.74630    0.30680    1.000
    C277     C        0.15690    0.81280    0.29680    1.000
    H136     H        0.18010    0.88500    0.30130    1.000
    C278     C        0.18690    0.79890    0.25290    1.000
    N34      N        0.17210    0.75880    0.22660    1.000
    O141     O        0.05470    0.89400    0.43210    1.000
    O142     O        0.03260    0.82050    0.43320    1.000
    O143     O        0.92810    0.10620    0.44270    1.000
    O144     O        0.93180    0.17980    0.46310    1.000
    C279     C        0.93030    0.14950    0.42590    1.000
    C280     C        0.89840    0.16170    0.38100    1.000
    C281     C        0.89940    0.20950    0.36220    1.000
    C282     C        0.86890    0.12720    0.35800    1.000
    H137     H        0.91820    0.23400    0.37820    1.000
    C283     C        0.87250    0.22150    0.31980    1.000
    C284     C        0.84040    0.13890    0.31610    1.000
    H138     H        0.86770    0.09480    0.37080    1.000
    H139     H        0.87450    0.25370    0.30680    1.000
    C285     C        0.84310    0.18720    0.29680    1.000
    H140     H        0.81990    0.11500    0.30130    1.000
    C286     C        0.81310    0.20110    0.25290    1.000
    N35      N        0.82790    0.24120    0.22660    1.000
    O145     O        0.94530    0.10600    0.43210    1.000
    O146     O        0.96740    0.17950    0.43320    1.000
    O147     O        0.07190    0.10620    0.55730    1.000
    O148     O        0.06820    0.17980    0.53690    1.000
    C287     C        0.06970    0.14950    0.57410    1.000
    C288     C        0.10160    0.16170    0.61900    1.000
    C289     C        0.10060    0.20950    0.63780    1.000
    C290     C        0.13110    0.12720    0.64200    1.000
    H141     H        0.08180    0.23400    0.62180    1.000
    C291     C        0.12750    0.22150    0.68020    1.000
    C292     C        0.15960    0.13890    0.68390    1.000
    H142     H        0.13230    0.09480    0.62920    1.000
    H143     H        0.12550    0.25370    0.69320    1.000
    C293     C        0.15690    0.18720    0.70320    1.000
    H144     H        0.18010    0.11500    0.69870    1.000
    C294     C        0.18690    0.20110    0.74710    1.000
    N36      N        0.17210    0.24120    0.77340    1.000
    O149     O        0.05470    0.10600    0.56790    1.000
    O150     O        0.03260    0.17950    0.56680    1.000
    O151     O        0.44270    0.07190    0.10620    1.000
    O152     O        0.46310    0.06820    0.17980    1.000
    C295     C        0.42590    0.06970    0.14950    1.000
    C296     C        0.38100    0.10160    0.16170    1.000
    C297     C        0.36220    0.10060    0.20950    1.000
    C298     C        0.35800    0.13110    0.12720    1.000
    H145     H        0.37820    0.08180    0.23400    1.000
    C299     C        0.31980    0.12750    0.22150    1.000
    C300     C        0.31610    0.15960    0.13890    1.000
    H146     H        0.37080    0.13230    0.09480    1.000
    H147     H        0.30680    0.12550    0.25370    1.000
    C301     C        0.29680    0.15690    0.18720    1.000
    H148     H        0.30130    0.18010    0.11500    1.000
    C302     C        0.25290    0.18690    0.20110    1.000
    N37      N        0.22660    0.17210    0.24120    1.000
    O153     O        0.43210    0.05470    0.10600    1.000
    O154     O        0.43320    0.03260    0.17950    1.000
    O155     O        0.55730    0.92810    0.10620    1.000
    O156     O        0.53690    0.93180    0.17980    1.000
    C303     C        0.57410    0.93030    0.14950    1.000
    C304     C        0.61900    0.89840    0.16170    1.000
    C305     C        0.63780    0.89940    0.20950    1.000
    C306     C        0.64200    0.86890    0.12720    1.000
    H149     H        0.62180    0.91820    0.23400    1.000
    C307     C        0.68020    0.87250    0.22150    1.000
    C308     C        0.68390    0.84040    0.13890    1.000
    H150     H        0.62920    0.86770    0.09480    1.000
    H151     H        0.69320    0.87450    0.25370    1.000
    C309     C        0.70320    0.84310    0.18720    1.000
    H152     H        0.69870    0.81990    0.11500    1.000
    C310     C        0.74710    0.81310    0.20110    1.000
    N38      N        0.77340    0.82790    0.24120    1.000
    O157     O        0.56790    0.94530    0.10600    1.000
    O158     O        0.56680    0.96740    0.17950    1.000
    O159     O        0.55730    0.07190    0.89380    1.000
    O160     O        0.53690    0.06820    0.82020    1.000
    C311     C        0.57410    0.06970    0.85050    1.000
    C312     C        0.61900    0.10160    0.83830    1.000
    C313     C        0.63780    0.10060    0.79050    1.000
    C314     C        0.64200    0.13110    0.87280    1.000
    H153     H        0.62180    0.08180    0.76600    1.000
    C315     C        0.68020    0.12750    0.77850    1.000
    C316     C        0.68390    0.15960    0.86110    1.000
    H154     H        0.62920    0.13230    0.90520    1.000
    H155     H        0.69320    0.12550    0.74630    1.000
    C317     C        0.70320    0.15690    0.81280    1.000
    H156     H        0.69870    0.18010    0.88500    1.000
    C318     C        0.74710    0.18690    0.79890    1.000
    N39      N        0.77340    0.17210    0.75880    1.000
    O161     O        0.56790    0.05470    0.89400    1.000
    O162     O        0.56680    0.03260    0.82050    1.000
    O163     O        0.44270    0.92810    0.89380    1.000
    O164     O        0.46310    0.93180    0.82020    1.000
    C319     C        0.42590    0.93030    0.85050    1.000
    C320     C        0.38100    0.89840    0.83830    1.000
    C321     C        0.36220    0.89940    0.79050    1.000
    C322     C        0.35800    0.86890    0.87280    1.000
    H157     H        0.37820    0.91820    0.76600    1.000
    C323     C        0.31980    0.87250    0.77850    1.000
    C324     C        0.31610    0.84040    0.86110    1.000
    H158     H        0.37080    0.86770    0.90520    1.000
    H159     H        0.30680    0.87450    0.74630    1.000
    C325     C        0.29680    0.84310    0.81280    1.000
    H160     H        0.30130    0.81990    0.88500    1.000
    C326     C        0.25290    0.81310    0.79890    1.000
    N40      N        0.22660    0.82790    0.75880    1.000
    O165     O        0.43210    0.94530    0.89400    1.000
    O166     O        0.43320    0.96740    0.82050    1.000
    O167     O        0.10620    0.44270    0.07190    1.000
    O168     O        0.17980    0.46310    0.06820    1.000
    C327     C        0.14950    0.42590    0.06970    1.000
    C328     C        0.16170    0.38100    0.10160    1.000
    C329     C        0.20950    0.36220    0.10060    1.000
    C330     C        0.12720    0.35800    0.13110    1.000
    H161     H        0.23400    0.37820    0.08180    1.000
    C331     C        0.22150    0.31980    0.12750    1.000
    C332     C        0.13890    0.31610    0.15960    1.000
    H162     H        0.09480    0.37080    0.13230    1.000
    H163     H        0.25370    0.30680    0.12550    1.000
    C333     C        0.18720    0.29680    0.15690    1.000
    H164     H        0.11500    0.30130    0.18010    1.000
    C334     C        0.20110    0.25290    0.18690    1.000
    N41      N        0.24120    0.22660    0.17210    1.000
    O169     O        0.10600    0.43210    0.05470    1.000
    O170     O        0.17950    0.43320    0.03260    1.000
    O171     O        0.10620    0.55730    0.92810    1.000
    O172     O        0.17980    0.53690    0.93180    1.000
    C335     C        0.14950    0.57410    0.93030    1.000
    C336     C        0.16170    0.61900    0.89840    1.000
    C337     C        0.20950    0.63780    0.89940    1.000
    C338     C        0.12720    0.64200    0.86890    1.000
    H165     H        0.23400    0.62180    0.91820    1.000
    C339     C        0.22150    0.68020    0.87250    1.000
    C340     C        0.13890    0.68390    0.84040    1.000
    H166     H        0.09480    0.62920    0.86770    1.000
    H167     H        0.25370    0.69320    0.87450    1.000
    C341     C        0.18720    0.70320    0.84310    1.000
    H168     H        0.11500    0.69870    0.81990    1.000
    C342     C        0.20110    0.74710    0.81310    1.000
    N42      N        0.24120    0.77340    0.82790    1.000
    O173     O        0.10600    0.56790    0.94530    1.000
    O174     O        0.17950    0.56680    0.96740    1.000
    O175     O        0.89380    0.55730    0.07190    1.000
    O176     O        0.82020    0.53690    0.06820    1.000
    C343     C        0.85050    0.57410    0.06970    1.000
    C344     C        0.83830    0.61900    0.10160    1.000
    C345     C        0.79050    0.63780    0.10060    1.000
    C346     C        0.87280    0.64200    0.13110    1.000
    H169     H        0.76600    0.62180    0.08180    1.000
    C347     C        0.77850    0.68020    0.12750    1.000
    C348     C        0.86110    0.68390    0.15960    1.000
    H170     H        0.90520    0.62920    0.13230    1.000
    H171     H        0.74630    0.69320    0.12550    1.000
    C349     C        0.81280    0.70320    0.15690    1.000
    H172     H        0.88500    0.69870    0.18010    1.000
    C350     C        0.79890    0.74710    0.18690    1.000
    N43      N        0.75880    0.77340    0.17210    1.000
    O177     O        0.89400    0.56790    0.05470    1.000
    O178     O        0.82050    0.56680    0.03260    1.000
    O179     O        0.89380    0.44270    0.92810    1.000
    O180     O        0.82020    0.46310    0.93180    1.000
    C351     C        0.85050    0.42590    0.93030    1.000
    C352     C        0.83830    0.38100    0.89840    1.000
    C353     C        0.79050    0.36220    0.89940    1.000
    C354     C        0.87280    0.35800    0.86890    1.000
    H173     H        0.76600    0.37820    0.91820    1.000
    C355     C        0.77850    0.31980    0.87250    1.000
    C356     C        0.86110    0.31610    0.84040    1.000
    H174     H        0.90520    0.37080    0.86770    1.000
    H175     H        0.74630    0.30680    0.87450    1.000
    C357     C        0.81280    0.29680    0.84310    1.000
    H176     H        0.88500    0.30130    0.81990    1.000
    C358     C        0.79890    0.25290    0.81310    1.000
    N44      N        0.75880    0.22660    0.82790    1.000
    O181     O        0.89400    0.43210    0.94530    1.000
    O182     O        0.82050    0.43320    0.96740    1.000
    O183     O        0.07190    0.10620    0.44270    1.000
    O184     O        0.06820    0.17980    0.46310    1.000
    C359     C        0.06970    0.14950    0.42590    1.000
    C360     C        0.10160    0.16170    0.38100    1.000
    C361     C        0.10060    0.20950    0.36220    1.000
    C362     C        0.13110    0.12720    0.35800    1.000
    H177     H        0.08180    0.23400    0.37820    1.000
    C363     C        0.12750    0.22150    0.31980    1.000
    C364     C        0.15960    0.13890    0.31610    1.000
    H178     H        0.13230    0.09480    0.37080    1.000
    H179     H        0.12550    0.25370    0.30680    1.000
    C365     C        0.15690    0.18720    0.29680    1.000
    H180     H        0.18010    0.11500    0.30130    1.000
    C366     C        0.18690    0.20110    0.25290    1.000
    N45      N        0.17210    0.24120    0.22660    1.000
    O185     O        0.05470    0.10600    0.43210    1.000
    O186     O        0.03260    0.17950    0.43320    1.000
    O187     O        0.92810    0.10620    0.55730    1.000
    O188     O        0.93180    0.17980    0.53690    1.000
    C367     C        0.93030    0.14950    0.57410    1.000
    C368     C        0.89840    0.16170    0.61900    1.000
    C369     C        0.89940    0.20950    0.63780    1.000
    C370     C        0.86890    0.12720    0.64200    1.000
    H181     H        0.91820    0.23400    0.62180    1.000
    C371     C        0.87250    0.22150    0.68020    1.000
    C372     C        0.84040    0.13890    0.68390    1.000
    H182     H        0.86770    0.09480    0.62920    1.000
    H183     H        0.87450    0.25370    0.69320    1.000
    C373     C        0.84310    0.18720    0.70320    1.000
    H184     H        0.81990    0.11500    0.69870    1.000
    C374     C        0.81310    0.20110    0.74710    1.000
    N46      N        0.82790    0.24120    0.77340    1.000
    O189     O        0.94530    0.10600    0.56790    1.000
    O190     O        0.96740    0.17950    0.56680    1.000
    O191     O        0.07190    0.89380    0.55730    1.000
    O192     O        0.06820    0.82020    0.53690    1.000
    C375     C        0.06970    0.85050    0.57410    1.000
    C376     C        0.10160    0.83830    0.61900    1.000
    C377     C        0.10060    0.79050    0.63780    1.000
    C378     C        0.13110    0.87280    0.64200    1.000
    H185     H        0.08180    0.76600    0.62180    1.000
    C379     C        0.12750    0.77850    0.68020    1.000
    C380     C        0.15960    0.86110    0.68390    1.000
    H186     H        0.13230    0.90520    0.62920    1.000
    H187     H        0.12550    0.74630    0.69320    1.000
    C381     C        0.15690    0.81280    0.70320    1.000
    H188     H        0.18010    0.88500    0.69870    1.000
    C382     C        0.18690    0.79890    0.74710    1.000
    N47      N        0.17210    0.75880    0.77340    1.000
    O193     O        0.05470    0.89400    0.56790    1.000
    O194     O        0.03260    0.82050    0.56680    1.000
    O195     O        0.92810    0.89380    0.44270    1.000
    O196     O        0.93180    0.82020    0.46310    1.000
    C383     C        0.93030    0.85050    0.42590    1.000
    C384     C        0.89840    0.83830    0.38100    1.000
    C385     C        0.89940    0.79050    0.36220    1.000
    C386     C        0.86890    0.87280    0.35800    1.000
    H189     H        0.91820    0.76600    0.37820    1.000
    C387     C        0.87250    0.77850    0.31980    1.000
    C388     C        0.84040    0.86110    0.31610    1.000
    H190     H        0.86770    0.90520    0.37080    1.000
    H191     H        0.87450    0.74630    0.30680    1.000
    C389     C        0.84310    0.81280    0.29680    1.000
    H192     H        0.81990    0.88500    0.30130    1.000
    C390     C        0.81310    0.79890    0.25290    1.000
    N48      N        0.82790    0.75880    0.22660    1.000
    O197     O        0.94530    0.89400    0.43210    1.000
    O198     O        0.96740    0.82050    0.43320    1.000
    Tb7      Tb       0.50000    0.00000    0.87297    1.000
    O199     O        0.50000    0.00000    0.95770    1.000
    Tb8      Tb       0.50000    0.00000    0.12703    1.000
    O200     O        0.50000    0.00000    0.04230    1.000
    Tb9      Tb       0.87297    0.50000    0.00000    1.000
    O201     O        0.95770    0.50000    0.00000    1.000
    Tb10     Tb       0.12703    0.50000    0.00000    1.000
    O202     O        0.04230    0.50000    0.00000    1.000
    Tb11     Tb       0.00000    0.87297    0.50000    1.000
    O203     O        0.00000    0.95770    0.50000    1.000
    Tb12     Tb       0.00000    0.12703    0.50000    1.000
    O204     O        0.00000    0.04230    0.50000    1.000
    C391     C        0.51750    0.00000    0.00000    1.000
    C392     C        0.48250    0.00000    0.00000    1.000
    C393     C        0.00000    0.51750    0.00000    1.000
    C394     C        0.00000    0.48250    0.00000    1.000
    C395     C        0.00000    0.00000    0.51750    1.000
    C396     C        0.00000    0.00000    0.48250    1.000
