data_functionalizedCrystal
_audit_creation_method	'EQeq! by Chris Wilmer'
_symmetry_space_group_name_H-M	'P1'
_symmetry_Int_Tables_number	1
_symmetry_cell_setting	triclinic
loop_
_symmetry_equiv_pos_as_xyz
  x,y,z
_cell_length_a	18.5167
_cell_length_b	18.5167
_cell_length_c	18.5167
_cell_angle_alpha	95.4507
_cell_angle_beta	95.4507
_cell_angle_gamma	95.4507
loop_
_atom_site_label
_atom_site_type_symbol
_atom_site_fract_x
_atom_site_fract_y
_atom_site_fract_z
_atom_site_charge
Mof_Co	Co	0.91821	0.72438	0.24653	1.099
Mof_Co	Co	0.77877	0.29499	0.0839	1.145
Mof_Co	Co	0.87163	0.96171	0.25606	1.115
Mof_Co	Co	0.79369	0.79617	0.32263	1.16
Mof_Co	Co	0.24653	0.91821	0.72438	1.099
Mof_Co	Co	0.0839	0.77877	0.29499	1.145
Mof_Co	Co	0.25606	0.87163	0.96171	1.115
Mof_Co	Co	0.32263	0.79369	0.79617	1.16
Mof_Co	Co	0.72438	0.24653	0.91821	1.099
Mof_Co	Co	0.29499	0.0839	0.77877	1.145
Mof_Co	Co	0.96171	0.25606	0.87163	1.115
Mof_Co	Co	0.79617	0.32263	0.79369	1.16
Mof_Co	Co	0.08179	0.27562	0.75347	1.099
Mof_Co	Co	0.22123	0.70501	0.9161	1.145
Mof_Co	Co	0.12837	0.03829	0.74394	1.115
Mof_Co	Co	0.20631	0.20383	0.67737	1.16
Mof_Co	Co	0.75347	0.08179	0.27562	1.099
Mof_Co	Co	0.9161	0.22123	0.70501	1.145
Mof_Co	Co	0.74394	0.12837	0.03829	1.115
Mof_Co	Co	0.67737	0.20631	0.20383	1.16
Mof_Co	Co	0.27562	0.75347	0.08179	1.099
Mof_Co	Co	0.70501	0.9161	0.22123	1.145
Mof_Co	Co	0.03829	0.74394	0.12837	1.115
Mof_Co	Co	0.20383	0.67737	0.20631	1.16
Mof_H 	H 	0.689	0.6085	0.3791	0.024
Mof_H 	H 	0.6109	0.5016	0.3766	0.065
Mof_H 	H 	0.6267	0.3983	0.3018	0.019
Mof_H 	H 	0.8009	0.506	0.2287	0.03
Mof_H 	H 	0.9888	0.8365	0.2152	0.314
Mof_H 	H 	0.6617	0.217	0.0758	0.186
Mof_H 	H 	0.3791	0.689	0.6085	0.024
Mof_H 	H 	0.3766	0.6109	0.5016	0.065
Mof_H 	H 	0.3018	0.6267	0.3983	0.019
Mof_H 	H 	0.2287	0.8009	0.506	0.03
Mof_H 	H 	0.2152	0.9888	0.8365	0.314
Mof_H 	H 	0.0758	0.6617	0.217	0.186
Mof_H 	H 	0.6085	0.3791	0.689	0.024
Mof_H 	H 	0.5016	0.3766	0.6109	0.065
Mof_H 	H 	0.3983	0.3018	0.6267	0.019
Mof_H 	H 	0.506	0.2287	0.8009	0.03
Mof_H 	H 	0.8365	0.2152	0.9888	0.314
Mof_H 	H 	0.217	0.0758	0.6617	0.186
Mof_H 	H 	0.311	0.3915	0.6209	0.024
Mof_H 	H 	0.3891	0.4984	0.6234	0.065
Mof_H 	H 	0.3733	0.6017	0.6982	0.019
Mof_H 	H 	0.1991	0.494	0.7713	0.03
Mof_H 	H 	0.0112	0.1635	0.7848	0.314
Mof_H 	H 	0.3383	0.783	0.9242	0.186
Mof_H 	H 	0.6209	0.311	0.3915	0.024
Mof_H 	H 	0.6234	0.3891	0.4984	0.065
Mof_H 	H 	0.6982	0.3733	0.6017	0.019
Mof_H 	H 	0.7713	0.1991	0.494	0.03
Mof_H 	H 	0.7848	0.0112	0.1635	0.314
Mof_H 	H 	0.9242	0.3383	0.783	0.186
Mof_H 	H 	0.3915	0.6209	0.311	0.024
Mof_H 	H 	0.4984	0.6234	0.3891	0.065
Mof_H 	H 	0.6017	0.6982	0.3733	0.019
Mof_H 	H 	0.494	0.7713	0.1991	0.03
Mof_H 	H 	0.1635	0.7848	0.0112	0.314
Mof_H 	H 	0.783	0.9242	0.3383	0.186
Mof_C 	C 	0.8038	0.6353	0.3059	0.378
Mof_C 	C 	0.7258	0.3729	0.2113	0.394
Mof_C 	C 	0.7542	0.5663	0.3045	-0.134
Mof_C 	C 	0.696	0.566	0.3486	0.052
Mof_C 	C 	0.6498	0.5028	0.3467	-0.117
Mof_C 	C 	0.6592	0.4413	0.3022	0.056
Mof_C 	C 	0.7157	0.4417	0.2579	-0.138
Mof_C 	C 	0.7626	0.505	0.2593	0.074
Mof_C 	C 	0.3059	0.8038	0.6353	0.378
Mof_C 	C 	0.2113	0.7258	0.3729	0.394
Mof_C 	C 	0.3045	0.7542	0.5663	-0.134
Mof_C 	C 	0.3486	0.696	0.566	0.052
Mof_C 	C 	0.3467	0.6498	0.5028	-0.117
Mof_C 	C 	0.3022	0.6592	0.4413	0.056
Mof_C 	C 	0.2579	0.7157	0.4417	-0.138
Mof_C 	C 	0.2593	0.7626	0.505	0.074
Mof_C 	C 	0.6353	0.3059	0.8038	0.378
Mof_C 	C 	0.3729	0.2113	0.7258	0.394
Mof_C 	C 	0.5663	0.3045	0.7542	-0.134
Mof_C 	C 	0.566	0.3486	0.696	0.052
Mof_C 	C 	0.5028	0.3467	0.6498	-0.117
Mof_C 	C 	0.4413	0.3022	0.6592	0.056
Mof_C 	C 	0.4417	0.2579	0.7157	-0.138
Mof_C 	C 	0.505	0.2593	0.7626	0.074
Mof_C 	C 	0.1962	0.3647	0.6941	0.378
Mof_C 	C 	0.2742	0.6271	0.7887	0.394
Mof_C 	C 	0.2458	0.4337	0.6955	-0.134
Mof_C 	C 	0.304	0.434	0.6514	0.052
Mof_C 	C 	0.3502	0.4972	0.6533	-0.117
Mof_C 	C 	0.3408	0.5587	0.6978	0.056
Mof_C 	C 	0.2843	0.5583	0.7421	-0.138
Mof_C 	C 	0.2374	0.495	0.7407	0.074
Mof_C 	C 	0.6941	0.1962	0.3647	0.378
Mof_C 	C 	0.7887	0.2742	0.6271	0.394
Mof_C 	C 	0.6955	0.2458	0.4337	-0.134
Mof_C 	C 	0.6514	0.304	0.434	0.052
Mof_C 	C 	0.6533	0.3502	0.4972	-0.117
Mof_C 	C 	0.6978	0.3408	0.5587	0.056
Mof_C 	C 	0.7421	0.2843	0.5583	-0.138
Mof_C 	C 	0.7407	0.2374	0.495	0.074
Mof_C 	C 	0.3647	0.6941	0.1962	0.378
Mof_C 	C 	0.6271	0.7887	0.2742	0.394
Mof_C 	C 	0.4337	0.6955	0.2458	-0.134
Mof_C 	C 	0.434	0.6514	0.304	0.052
Mof_C 	C 	0.4972	0.6533	0.3502	-0.117
Mof_C 	C 	0.5587	0.6978	0.3408	0.056
Mof_C 	C 	0.5583	0.7421	0.2843	-0.138
Mof_C 	C 	0.495	0.7407	0.2374	0.074
Mof_S 	S 	0.81675	0.81713	0.14967	0.674
Mof_S 	S 	0.96234	0.86804	0.36813	0.732
Mof_S 	S 	0.14967	0.81675	0.81713	0.674
Mof_S 	S 	0.36813	0.96234	0.86804	0.732
Mof_S 	S 	0.81713	0.14967	0.81675	0.674
Mof_S 	S 	0.86804	0.36813	0.96234	0.732
Mof_S 	S 	0.18325	0.18287	0.85033	0.674
Mof_S 	S 	0.03766	0.13196	0.63187	0.732
Mof_S 	S 	0.85033	0.18325	0.18287	0.674
Mof_S 	S 	0.63187	0.03766	0.13196	0.732
Mof_S 	S 	0.18287	0.85033	0.18325	0.674
Mof_S 	S 	0.13196	0.63187	0.03766	0.732
Mof_O 	O 	0.793	0.6907	0.3483	-0.437
Mof_O 	O 	0.8529	0.6352	0.2626	-0.476
Mof_O 	O 	0.7613	0.3788	0.1573	-0.443
Mof_O 	O 	0.6968	0.3147	0.2304	-0.462
Mof_O 	O 	0.8202	0.7668	0.2093	-0.54
Mof_O 	O 	0.7433	0.8424	0.144	-0.427
Mof_O 	O 	0.8291	0.7769	0.0811	-0.317
Mof_O 	O 	0.8741	0.8795	0.1693	-0.489
Mof_O 	O 	0.9092	0.802	0.3395	-0.592
Mof_O 	O 	0.9567	0.9232	0.316	-0.503
Mof_O 	O 	0.0361	0.8457	0.372	-0.443
Mof_O 	O 	0.9454	0.8955	0.4396	-0.328
Mof_O 	O 	0.9983	0.7926	0.2178	-0.878
Mof_O 	O 	0.7011	0.2094	0.1001	-0.793
Mof_O 	O 	0.3483	0.793	0.6907	-0.437
Mof_O 	O 	0.2626	0.8529	0.6352	-0.476
Mof_O 	O 	0.1573	0.7613	0.3788	-0.443
Mof_O 	O 	0.2304	0.6968	0.3147	-0.462
Mof_O 	O 	0.2093	0.8202	0.7668	-0.54
Mof_O 	O 	0.144	0.7433	0.8424	-0.427
Mof_O 	O 	0.0811	0.8291	0.7769	-0.317
Mof_O 	O 	0.1693	0.8741	0.8795	-0.489
Mof_O 	O 	0.3395	0.9092	0.802	-0.592
Mof_O 	O 	0.316	0.9567	0.9232	-0.503
Mof_O 	O 	0.372	0.0361	0.8457	-0.443
Mof_O 	O 	0.4396	0.9454	0.8955	-0.328
Mof_O 	O 	0.2178	0.9983	0.7926	-0.878
Mof_O 	O 	0.1001	0.7011	0.2094	-0.793
Mof_O 	O 	0.6907	0.3483	0.793	-0.437
Mof_O 	O 	0.6352	0.2626	0.8529	-0.476
Mof_O 	O 	0.3788	0.1573	0.7613	-0.443
Mof_O 	O 	0.3147	0.2304	0.6968	-0.462
Mof_O 	O 	0.7668	0.2093	0.8202	-0.54
Mof_O 	O 	0.8424	0.144	0.7433	-0.427
Mof_O 	O 	0.7769	0.0811	0.8291	-0.317
Mof_O 	O 	0.8795	0.1693	0.8741	-0.489
Mof_O 	O 	0.802	0.3395	0.9092	-0.592
Mof_O 	O 	0.9232	0.316	0.9567	-0.503
Mof_O 	O 	0.8457	0.372	0.0361	-0.443
Mof_O 	O 	0.8955	0.4396	0.9454	-0.328
Mof_O 	O 	0.7926	0.2178	0.9983	-0.878
Mof_O 	O 	0.2094	0.1001	0.7011	-0.793
Mof_O 	O 	0.207	0.3093	0.6517	-0.437
Mof_O 	O 	0.1471	0.3648	0.7374	-0.476
Mof_O 	O 	0.2387	0.6212	0.8427	-0.443
Mof_O 	O 	0.3032	0.6853	0.7696	-0.462
Mof_O 	O 	0.1798	0.2332	0.7907	-0.54
Mof_O 	O 	0.2567	0.1576	0.856	-0.427
Mof_O 	O 	0.1709	0.2231	0.9189	-0.317
Mof_O 	O 	0.1259	0.1205	0.8307	-0.489
Mof_O 	O 	0.0908	0.198	0.6605	-0.592
Mof_O 	O 	0.0433	0.0768	0.684	-0.503
Mof_O 	O 	0.9639	0.1543	0.628	-0.443
Mof_O 	O 	0.0546	0.1045	0.5604	-0.328
Mof_O 	O 	0.0017	0.2074	0.7822	-0.878
Mof_O 	O 	0.2989	0.7906	0.8999	-0.793
Mof_O 	O 	0.6517	0.207	0.3093	-0.437
Mof_O 	O 	0.7374	0.1471	0.3648	-0.476
Mof_O 	O 	0.8427	0.2387	0.6212	-0.443
Mof_O 	O 	0.7696	0.3032	0.6853	-0.462
Mof_O 	O 	0.7907	0.1798	0.2332	-0.54
Mof_O 	O 	0.856	0.2567	0.1576	-0.427
Mof_O 	O 	0.9189	0.1709	0.2231	-0.317
Mof_O 	O 	0.8307	0.1259	0.1205	-0.489
Mof_O 	O 	0.6605	0.0908	0.198	-0.592
Mof_O 	O 	0.684	0.0433	0.0768	-0.503
Mof_O 	O 	0.628	0.9639	0.1543	-0.443
Mof_O 	O 	0.5604	0.0546	0.1045	-0.328
Mof_O 	O 	0.7822	0.0017	0.2074	-0.878
Mof_O 	O 	0.8999	0.2989	0.7906	-0.793
Mof_O 	O 	0.3093	0.6517	0.207	-0.437
Mof_O 	O 	0.3648	0.7374	0.1471	-0.476
Mof_O 	O 	0.6212	0.8427	0.2387	-0.443
Mof_O 	O 	0.6853	0.7696	0.3032	-0.462
Mof_O 	O 	0.2332	0.7907	0.1798	-0.54
Mof_O 	O 	0.1576	0.856	0.2567	-0.427
Mof_O 	O 	0.2231	0.9189	0.1709	-0.317
Mof_O 	O 	0.1205	0.8307	0.1259	-0.489
Mof_O 	O 	0.198	0.6605	0.0908	-0.592
Mof_O 	O 	0.0768	0.684	0.0433	-0.503
Mof_O 	O 	0.1543	0.628	0.9639	-0.443
Mof_O 	O 	0.1045	0.5604	0.0546	-0.328
Mof_O 	O 	0.2074	0.7822	0.0017	-0.878
Mof_O 	O 	0.7906	0.8999	0.2989	-0.793
_end
