data_functionalizedCrystal
_audit_creation_method	'EQeq! by Chris Wilmer'
_symmetry_space_group_name_H-M	'P1'
_symmetry_Int_Tables_number	1
_symmetry_cell_setting	triclinic
loop_
_symmetry_equiv_pos_as_xyz
  x,y,z
_cell_length_a	17.1216
_cell_length_b	17.444
_cell_length_c	7.8768
_cell_angle_alpha	90
_cell_angle_beta	90
_cell_angle_gamma	90
loop_
_atom_site_label
_atom_site_type_symbol
_atom_site_fract_x
_atom_site_fract_y
_atom_site_fract_z
_atom_site_charge
Mof_Ca	Ca	0.07915	0.30342	0.67783	-13.709
Mof_O 	O 	0.00593	0.24441	0.9237	-0.636
Mof_O 	O 	0.0749	0.62853	0.0461	-1.285
Mof_O 	O 	0.02452	0.61185	0.306	-0.893
Mof_C 	C 	0.0609	0.5868	0.1783	0.809
Mof_C 	C 	0.0903	0.5065	0.1787	2.483
Mof_C 	C 	0.1056	0.4686	0.0262	1.695
Mof_H 	H 	0.0949	0.4931	0.9239	8.452
Mof_C 	C 	0.1366	0.3947	0.0247	7.587
Mof_O 	O 	0.15436	0.35783	0.8805	3.174
Mof_C 	C 	0.1505	0.3581	0.1815	-2.443
Mof_O 	O 	0.17846	0.2865	0.1831	12.238
Mof_C 	C 	0.137	0.3958	0.3387	-3.942
Mof_O 	O 	0.15652	0.36105	0.4822	0.055
Mof_C 	C 	0.1048	0.4702	0.3345	-3.895
Mof_H 	H 	0.093	0.4952	0.4355	-0.489
Mof_K 	K 	0.21561	0.48232	0.681	-176.391
Mof_O 	O 	0.0651	0.6091	0.6945	5.734
Mof_O 	O 	0.2345	0.5931	0.9402	9.605
Mof_Ca	Ca	0.0784	0.3036	0.9599	2.942
Mof_K 	K 	0.2164	0.4807	0.9514	-58.955
Mof_O 	O 	0.0061	0.2465	0.714	2.685
Mof_O 	O 	0.062	0.615	0.782	-3.685
Mof_O 	O 	0.0254	0.612	0.053	-1.852
Mof_C 	C 	0.064	0.584	0.931	-1.888
Mof_C 	C 	0.0893	0.503	0.451	-0.108
Mof_C 	C 	0.102	0.476	0.292	-1.205
Mof_H 	H 	0.0926	0.503	0.192	-2.828
Mof_C 	C 	0.133	0.4014	0.299	-1.982
Mof_O 	O 	0.1515	0.3624	0.158	-6.329
Mof_C 	C 	0.153	0.3555	0.471	-3.15
Mof_O 	O 	0.1792	0.2838	0.463	-5.446
Mof_C 	C 	0.1365	0.3922	0.612	22.403
Mof_O 	O 	0.155	0.3594	0.758	9.01
Mof_C 	C 	0.1059	0.4664	0.603	25.696
Mof_H 	H 	0.0962	0.4924	0.7042	7.184
Mof_O 	O 	0.0689	0.6125	0.945	5.729
Mof_O 	O 	0.237	0.5951	0.203	-27.501
Mof_Ca	Ca	0.42085	0.19658	0.67783	-2.985
Mof_O 	O 	0.49407	0.25559	0.9237	0.098
Mof_O 	O 	0.4251	0.87147	0.0461	-0.742
Mof_O 	O 	0.47548	0.88815	0.306	-0.989
Mof_C 	C 	0.4391	0.9132	0.1783	0.751
Mof_C 	C 	0.4097	0.9935	0.1787	1.313
Mof_C 	C 	0.3944	0.0314	0.0262	3.422
Mof_H 	H 	0.4051	0.0069	0.9239	6.175
Mof_C 	C 	0.3634	0.1053	0.0247	8.449
Mof_O 	O 	0.34564	0.14217	0.8805	4.064
Mof_C 	C 	0.3495	0.1419	0.1815	-2.306
Mof_O 	O 	0.32154	0.2135	0.1831	11.9
Mof_C 	C 	0.363	0.1042	0.3387	-1.995
Mof_O 	O 	0.34348	0.13895	0.4822	-0.544
Mof_C 	C 	0.3952	0.0298	0.3345	-2.622
Mof_H 	H 	0.407	0.0048	0.4355	-0.509
Mof_K 	K 	0.28439	0.01768	0.681	-102.772
Mof_O 	O 	0.4349	0.8909	0.6945	3
Mof_O 	O 	0.2655	0.9069	0.9402	9.546
Mof_Ca	Ca	0.4216	0.1964	0.9599	-3.985
Mof_K 	K 	0.2836	0.0193	0.9514	-58.88
Mof_O 	O 	0.4939	0.2535	0.714	0.409
Mof_O 	O 	0.438	0.885	0.782	-1.809
Mof_O 	O 	0.4746	0.888	0.053	-0.787
Mof_C 	C 	0.436	0.916	0.931	-2.006
Mof_C 	C 	0.4107	0.997	0.451	0.218
Mof_C 	C 	0.398	0.024	0.292	-1.397
Mof_H 	H 	0.4074	0.997	0.192	-1.107
Mof_C 	C 	0.367	0.0986	0.299	-1.973
Mof_O 	O 	0.3485	0.1376	0.158	-4.117
Mof_C 	C 	0.347	0.1445	0.471	-2.34
Mof_O 	O 	0.3208	0.2162	0.463	-5.488
Mof_C 	C 	0.3635	0.1078	0.612	12.571
Mof_O 	O 	0.345	0.1406	0.758	3.652
Mof_C 	C 	0.3941	0.0336	0.603	13.95
Mof_H 	H 	0.4038	0.0076	0.7042	5.129
Mof_O 	O 	0.4311	0.8875	0.945	3.837
Mof_O 	O 	0.263	0.9049	0.203	-16.443
Mof_Ca	Ca	0.92085	0.80342	0.82217	4.76
Mof_O 	O 	0.99407	0.74441	0.5763	-1.742
Mof_O 	O 	0.9251	0.12853	0.4539	0.449
Mof_O 	O 	0.97548	0.11185	0.194	0.353
Mof_C 	C 	0.9391	0.0868	0.3217	0.117
Mof_C 	C 	0.9097	0.0065	0.3213	-1.246
Mof_C 	C 	0.8944	0.9686	0.4738	-5.04
Mof_H 	H 	0.9051	0.9931	0.5761	-5.675
Mof_C 	C 	0.8634	0.8947	0.4753	-10.429
Mof_O 	O 	0.84564	0.85783	0.6195	-5.44
Mof_C 	C 	0.8495	0.8581	0.3185	1.473
Mof_O 	O 	0.82154	0.7865	0.3169	-14.851
Mof_C 	C 	0.863	0.8958	0.1613	1.935
Mof_O 	O 	0.84348	0.86105	0.0178	1.504
Mof_C 	C 	0.8952	0.9702	0.1655	2.171
Mof_H 	H 	0.907	0.9952	0.0645	0.193
Mof_K 	K 	0.78439	0.98232	0.819	110.867
Mof_O 	O 	0.9349	0.1091	0.8055	-3.322
Mof_O 	O 	0.7655	0.0931	0.5598	-11.174
Mof_Ca	Ca	0.9216	0.8036	0.5401	9.97
Mof_K 	K 	0.7836	0.9807	0.5486	61.443
Mof_O 	O 	0.9939	0.7465	0.786	-1.596
Mof_O 	O 	0.938	0.115	0.718	1.774
Mof_O 	O 	0.9746	0.112	0.447	0.22
Mof_C 	C 	0.936	0.084	0.569	0.873
Mof_C 	C 	0.9107	0.003	0.049	0.757
Mof_C 	C 	0.898	0.976	0.208	1.229
Mof_H 	H 	0.9074	0.003	0.308	1.241
Mof_C 	C 	0.867	0.9014	0.201	1.747
Mof_O 	O 	0.8485	0.8624	0.342	4.732
Mof_C 	C 	0.847	0.8555	0.029	1.644
Mof_O 	O 	0.8208	0.7838	0.037	3.069
Mof_C 	C 	0.8635	0.8922	0.888	-14.26
Mof_O 	O 	0.845	0.8594	0.742	-4.899
Mof_C 	C 	0.8941	0.9664	0.897	-16.312
Mof_H 	H 	0.9038	0.9924	0.7958	-5.144
Mof_O 	O 	0.9311	0.1125	0.555	-2.983
Mof_O 	O 	0.763	0.0951	0.297	14.734
Mof_Ca	Ca	0.57915	0.69658	0.82217	15.816
Mof_O 	O 	0.50593	0.75559	0.5763	-0.862
Mof_O 	O 	0.5749	0.37147	0.4539	0.534
Mof_O 	O 	0.52452	0.38815	0.194	0.085
Mof_C 	C 	0.5609	0.4132	0.3217	0.19
Mof_C 	C 	0.5903	0.4935	0.3213	-2.248
Mof_C 	C 	0.6056	0.5314	0.4738	-2.831
Mof_H 	H 	0.5949	0.5069	0.5761	-8.344
Mof_C 	C 	0.6366	0.6053	0.4753	-9.717
Mof_O 	O 	0.65436	0.64217	0.6195	-4.634
Mof_C 	C 	0.6505	0.6419	0.3185	1.656
Mof_O 	O 	0.67846	0.7135	0.3169	-15.184
Mof_C 	C 	0.637	0.6042	0.1613	3.834
Mof_O 	O 	0.65652	0.63895	0.0178	0.762
Mof_C 	C 	0.6048	0.5298	0.1655	3.706
Mof_H 	H 	0.593	0.5048	0.0645	0.504
Mof_K 	K 	0.71561	0.51768	0.819	182.662
Mof_O 	O 	0.5651	0.3909	0.8055	-5.621
Mof_O 	O 	0.7345	0.4069	0.5598	-11.107
Mof_Ca	Ca	0.5784	0.6964	0.5401	3.256
Mof_K 	K 	0.7164	0.5193	0.5486	62.606
Mof_O 	O 	0.5061	0.7535	0.786	-3.799
Mof_O 	O 	0.562	0.385	0.718	3.168
Mof_O 	O 	0.5254	0.388	0.447	0.855
Mof_C 	C 	0.564	0.416	0.569	1.443
Mof_C 	C 	0.5893	0.497	0.049	0.28
Mof_C 	C 	0.602	0.524	0.208	0.867
Mof_H 	H 	0.5926	0.497	0.308	2.608
Mof_C 	C 	0.633	0.5986	0.201	1.726
Mof_O 	O 	0.6515	0.6376	0.342	6.981
Mof_C 	C 	0.653	0.6445	0.029	2.351
Mof_O 	O 	0.6792	0.7162	0.037	3.027
Mof_C 	C 	0.6365	0.6078	0.888	-23.865
Mof_O 	O 	0.655	0.6406	0.742	-10.215
Mof_C 	C 	0.6059	0.5336	0.897	-27.121
Mof_H 	H 	0.5962	0.5076	0.7958	-7.331
Mof_O 	O 	0.5689	0.3875	0.555	-4.619
Mof_O 	O 	0.737	0.4049	0.297	25.889
Mof_Ca	Ca	0.92085	0.69658	0.32217	-13.708
Mof_O 	O 	0.99407	0.75559	0.0763	-0.635
Mof_O 	O 	0.9251	0.37147	0.9539	-1.284
Mof_O 	O 	0.97548	0.38815	0.694	-0.892
Mof_C 	C 	0.9391	0.4132	0.8217	0.81
Mof_C 	C 	0.9097	0.4935	0.8213	2.484
Mof_C 	C 	0.8944	0.5314	0.9738	1.696
Mof_H 	H 	0.9051	0.5069	0.0761	8.453
Mof_C 	C 	0.8634	0.6053	0.9753	7.587
Mof_O 	O 	0.84564	0.64217	0.1195	3.174
Mof_C 	C 	0.8495	0.6419	0.8185	-2.443
Mof_O 	O 	0.82154	0.7135	0.8169	12.238
Mof_C 	C 	0.863	0.6042	0.6613	-3.942
Mof_O 	O 	0.84348	0.63895	0.5178	0.055
Mof_C 	C 	0.8952	0.5298	0.6655	-3.895
Mof_H 	H 	0.907	0.5048	0.5645	-0.489
Mof_K 	K 	0.78439	0.51768	0.319	-176.391
Mof_O 	O 	0.9349	0.3909	0.3055	5.734
Mof_O 	O 	0.7655	0.4069	0.0598	9.605
Mof_Ca	Ca	0.9216	0.6964	0.0401	2.942
Mof_K 	K 	0.7836	0.5193	0.0486	-58.955
Mof_O 	O 	0.9939	0.7535	0.286	2.685
Mof_O 	O 	0.938	0.385	0.218	-3.685
Mof_O 	O 	0.9746	0.388	0.947	-1.852
Mof_C 	C 	0.936	0.416	0.069	-1.888
Mof_C 	C 	0.9107	0.497	0.549	-0.108
Mof_C 	C 	0.898	0.524	0.708	-1.205
Mof_H 	H 	0.9074	0.497	0.808	-2.828
Mof_C 	C 	0.867	0.5986	0.701	-1.982
Mof_O 	O 	0.8485	0.6376	0.842	-6.329
Mof_C 	C 	0.847	0.6445	0.529	-3.15
Mof_O 	O 	0.8208	0.7162	0.537	-5.446
Mof_C 	C 	0.8635	0.6078	0.388	22.403
Mof_O 	O 	0.845	0.6406	0.242	9.01
Mof_C 	C 	0.8941	0.5336	0.397	25.696
Mof_H 	H 	0.9038	0.5076	0.2958	7.184
Mof_O 	O 	0.9311	0.3875	0.055	5.729
Mof_O 	O 	0.763	0.4049	0.797	-27.501
Mof_Ca	Ca	0.57915	0.80342	0.32217	-2.985
Mof_O 	O 	0.50593	0.74441	0.0763	0.098
Mof_O 	O 	0.5749	0.12853	0.9539	-0.742
Mof_O 	O 	0.52452	0.11185	0.694	-0.989
Mof_C 	C 	0.5609	0.0868	0.8217	0.751
Mof_C 	C 	0.5903	0.0065	0.8213	1.313
Mof_C 	C 	0.6056	0.9686	0.9738	3.422
Mof_H 	H 	0.5949	0.9931	0.0761	6.175
Mof_C 	C 	0.6366	0.8947	0.9753	8.449
Mof_O 	O 	0.65436	0.85783	0.1195	4.064
Mof_C 	C 	0.6505	0.8581	0.8185	-2.306
Mof_O 	O 	0.67846	0.7865	0.8169	11.9
Mof_C 	C 	0.637	0.8958	0.6613	-1.995
Mof_O 	O 	0.65652	0.86105	0.5178	-0.544
Mof_C 	C 	0.6048	0.9702	0.6655	-2.622
Mof_H 	H 	0.593	0.9952	0.5645	-0.509
Mof_K 	K 	0.71561	0.98232	0.319	-102.772
Mof_O 	O 	0.5651	0.1091	0.3055	3
Mof_O 	O 	0.7345	0.0931	0.0598	9.546
Mof_Ca	Ca	0.5784	0.8036	0.0401	-3.985
Mof_K 	K 	0.7164	0.9807	0.0486	-58.88
Mof_O 	O 	0.5061	0.7465	0.286	0.409
Mof_O 	O 	0.562	0.115	0.218	-1.809
Mof_O 	O 	0.5254	0.112	0.947	-0.787
Mof_C 	C 	0.564	0.084	0.069	-2.006
Mof_C 	C 	0.5893	0.003	0.549	0.218
Mof_C 	C 	0.602	0.976	0.708	-1.397
Mof_H 	H 	0.5926	0.003	0.808	-1.107
Mof_C 	C 	0.633	0.9014	0.701	-1.973
Mof_O 	O 	0.6515	0.8624	0.842	-4.117
Mof_C 	C 	0.653	0.8555	0.529	-2.34
Mof_O 	O 	0.6792	0.7838	0.537	-5.488
Mof_C 	C 	0.6365	0.8922	0.388	12.571
Mof_O 	O 	0.655	0.8594	0.242	3.652
Mof_C 	C 	0.6059	0.9664	0.397	13.95
Mof_H 	H 	0.5962	0.9924	0.2958	5.129
Mof_O 	O 	0.5689	0.1125	0.055	3.837
Mof_O 	O 	0.737	0.0951	0.797	-16.443
Mof_Ca	Ca	0.07915	0.19658	0.17783	4.76
Mof_O 	O 	0.00593	0.25559	0.4237	-1.742
Mof_O 	O 	0.0749	0.87147	0.5461	0.449
Mof_O 	O 	0.02452	0.88815	0.806	0.353
Mof_C 	C 	0.0609	0.9132	0.6783	0.117
Mof_C 	C 	0.0903	0.9935	0.6787	-1.246
Mof_C 	C 	0.1056	0.0314	0.5262	-5.04
Mof_H 	H 	0.0949	0.0069	0.4239	-5.675
Mof_C 	C 	0.1366	0.1053	0.5247	-10.429
Mof_O 	O 	0.15436	0.14217	0.3805	-5.44
Mof_C 	C 	0.1505	0.1419	0.6815	1.473
Mof_O 	O 	0.17846	0.2135	0.6831	-14.851
Mof_C 	C 	0.137	0.1042	0.8387	1.935
Mof_O 	O 	0.15652	0.13895	0.9822	1.504
Mof_C 	C 	0.1048	0.0298	0.8345	2.171
Mof_H 	H 	0.093	0.0048	0.9355	0.193
Mof_K 	K 	0.21561	0.01768	0.181	110.867
Mof_O 	O 	0.0651	0.8909	0.1945	-3.322
Mof_O 	O 	0.2345	0.9069	0.4402	-11.174
Mof_Ca	Ca	0.0784	0.1964	0.4599	9.97
Mof_K 	K 	0.2164	0.0193	0.4514	61.443
Mof_O 	O 	0.0061	0.2535	0.214	-1.596
Mof_O 	O 	0.062	0.885	0.282	1.774
Mof_O 	O 	0.0254	0.888	0.553	0.22
Mof_C 	C 	0.064	0.916	0.431	0.873
Mof_C 	C 	0.0893	0.997	0.951	0.757
Mof_C 	C 	0.102	0.024	0.792	1.229
Mof_H 	H 	0.0926	0.997	0.692	1.241
Mof_C 	C 	0.133	0.0986	0.799	1.747
Mof_O 	O 	0.1515	0.1376	0.658	4.732
Mof_C 	C 	0.153	0.1445	0.971	1.644
Mof_O 	O 	0.1792	0.2162	0.963	3.069
Mof_C 	C 	0.1365	0.1078	0.112	-14.26
Mof_O 	O 	0.155	0.1406	0.258	-4.899
Mof_C 	C 	0.1059	0.0336	0.103	-16.312
Mof_H 	H 	0.0962	0.0076	0.2042	-5.144
Mof_O 	O 	0.0689	0.8875	0.445	-2.983
Mof_O 	O 	0.237	0.9049	0.703	14.734
Mof_Ca	Ca	0.42085	0.30342	0.17783	15.816
Mof_O 	O 	0.49407	0.24441	0.4237	-0.862
Mof_O 	O 	0.4251	0.62853	0.5461	0.534
Mof_O 	O 	0.47548	0.61185	0.806	0.085
Mof_C 	C 	0.4391	0.5868	0.6783	0.19
Mof_C 	C 	0.4097	0.5065	0.6787	-2.248
Mof_C 	C 	0.3944	0.4686	0.5262	-2.831
Mof_H 	H 	0.4051	0.4931	0.4239	-8.344
Mof_C 	C 	0.3634	0.3947	0.5247	-9.717
Mof_O 	O 	0.34564	0.35783	0.3805	-4.634
Mof_C 	C 	0.3495	0.3581	0.6815	1.656
Mof_O 	O 	0.32154	0.2865	0.6831	-15.184
Mof_C 	C 	0.363	0.3958	0.8387	3.834
Mof_O 	O 	0.34348	0.36105	0.9822	0.762
Mof_C 	C 	0.3952	0.4702	0.8345	3.706
Mof_H 	H 	0.407	0.4952	0.9355	0.504
Mof_K 	K 	0.28439	0.48232	0.181	182.662
Mof_O 	O 	0.4349	0.6091	0.1945	-5.621
Mof_O 	O 	0.2655	0.5931	0.4402	-11.107
Mof_Ca	Ca	0.4216	0.3036	0.4599	3.256
Mof_K 	K 	0.2836	0.4807	0.4514	62.606
Mof_O 	O 	0.4939	0.2465	0.214	-3.799
Mof_O 	O 	0.438	0.615	0.282	3.168
Mof_O 	O 	0.4746	0.612	0.553	0.855
Mof_C 	C 	0.436	0.584	0.431	1.443
Mof_C 	C 	0.4107	0.503	0.951	0.28
Mof_C 	C 	0.398	0.476	0.792	0.867
Mof_H 	H 	0.4074	0.503	0.692	2.608
Mof_C 	C 	0.367	0.4014	0.799	1.726
Mof_O 	O 	0.3485	0.3624	0.658	6.981
Mof_C 	C 	0.347	0.3555	0.971	2.351
Mof_O 	O 	0.3208	0.2838	0.963	3.027
Mof_C 	C 	0.3635	0.3922	0.112	-23.865
Mof_O 	O 	0.345	0.3594	0.258	-10.215
Mof_C 	C 	0.3941	0.4664	0.103	-27.121
Mof_H 	H 	0.4038	0.4924	0.2042	-7.331
Mof_O 	O 	0.4311	0.6125	0.445	-4.619
Mof_O 	O 	0.263	0.5951	0.703	25.889
Mof_Ca	Ca	0.25	0.25	0.9321	-11.941
Mof_Ca	Ca	0.25	0.25	0.7074	43.65
Mof_Ca	Ca	0.75	0.75	0.5679	15.207
Mof_Ca	Ca	0.75	0.75	0.7926	-38.927
Mof_Ca	Ca	0.75	0.75	0.0679	-11.941
Mof_Ca	Ca	0.75	0.75	0.2926	43.65
Mof_Ca	Ca	0.25	0.25	0.4321	15.207
Mof_Ca	Ca	0.25	0.25	0.2074	-38.927
_end
