data_functionalizedCrystal
_audit_creation_method	'EQeq! by Chris Wilmer'
_symmetry_space_group_name_H-M	'P1'
_symmetry_Int_Tables_number	1
_symmetry_cell_setting	triclinic
loop_
_symmetry_equiv_pos_as_xyz
  x,y,z
_cell_length_a	13.3961
_cell_length_b	10.1579
_cell_length_c	17.6555
_cell_angle_alpha	90
_cell_angle_beta	90.079
_cell_angle_gamma	90
loop_
_atom_site_label
_atom_site_type_symbol
_atom_site_fract_x
_atom_site_fract_y
_atom_site_fract_z
_atom_site_charge
Mof_Mn	Mn	0.8465	0.42418	0.01539	0.919
Mof_Mn	Mn	0.61117	0.58167	0.03189	0.882
Mof_C 	C 	0.628	0.4115	0.91712	0.361
Mof_C 	C 	0.6396	0.3476	0.84198	-0.102
Mof_C 	C 	0.5654	0.2301	0.7378	-0.02
Mof_H 	H 	0.509	0.1902	0.7146	0.046
Mof_C 	C 	0.658	0.2237	0.70287	-0.075
Mof_C 	C 	0.7411	0.2813	0.7367	-0.024
Mof_H 	H 	0.8037	0.2795	0.7116	0.052
Mof_C 	C 	0.9127	0.663	0.81928	-0.09
Mof_C 	C 	0.6706	0.1496	0.63	0.363
Mof_C 	C 	0.7639	0.7087	0.7464	-0.02
Mof_H 	H 	0.6935	0.7033	0.7405	0.049
Mof_C 	C 	0.8213	0.7685	0.6902	-0.075
Mof_C 	C 	0.9249	0.7766	0.6991	-0.024
Mof_H 	H 	0.9645	0.8182	0.6615	0.046
Mof_C 	C 	0.7709	0.8239	0.6213	0.353
Mof_C 	C 	0.5553	0.2942	0.80615	-0.007
Mof_H 	H 	0.4914	0.3022	0.82894	0.044
Mof_C 	C 	0.9695	0.7235	0.7632	-0.004
Mof_H 	H 	0.04	0.7285	0.7689	0.04
Mof_C 	C 	0.7326	0.3414	0.8069	-0.007
Mof_H 	H 	0.7898	0.3781	0.8309	0.036
Mof_C 	C 	0.8089	0.6566	0.8111	-0.014
Mof_H 	H 	0.7693	0.617	0.8494	0.044
Mof_O 	O 	0.9154	0.5148	0.92297	-0.406
Mof_O 	O 	0.70009	0.4766	0.94566	-0.428
Mof_O 	O 	0.54646	0.4024	0.95199	-0.422
Mof_O 	O 	0.6079	0.0596	0.61818	-0.379
Mof_O 	O 	0.7411	0.1817	0.58701	-0.372
Mof_O 	O 	0.8195	0.8983	0.57794	-0.39
Mof_O 	O 	0.681	0.7905	0.60982	-0.376
Mof_O 	O 	0.0456	0.6493	0.90674	-0.385
Mof_C 	C 	0.962	0.604	0.88885	0.389
Mof_Mn	Mn	0.1535	0.92418	0.48461	0.919
Mof_Mn	Mn	0.38883	0.08167	0.46811	0.881
Mof_C 	C 	0.372	0.9115	0.58288	0.361
Mof_C 	C 	0.3604	0.8476	0.65802	-0.103
Mof_C 	C 	0.4346	0.7301	0.7622	-0.02
Mof_H 	H 	0.491	0.6902	0.7854	0.046
Mof_C 	C 	0.342	0.7237	0.79713	-0.075
Mof_C 	C 	0.2589	0.7813	0.7633	-0.025
Mof_H 	H 	0.1963	0.7795	0.7884	0.052
Mof_C 	C 	0.0873	0.163	0.68072	-0.087
Mof_C 	C 	0.3294	0.6496	0.87	0.363
Mof_C 	C 	0.2361	0.2087	0.7536	-0.018
Mof_H 	H 	0.3065	0.2033	0.7595	0.048
Mof_C 	C 	0.1787	0.2685	0.8098	-0.077
Mof_C 	C 	0.0751	0.2766	0.8009	-0.02
Mof_H 	H 	0.0355	0.3182	0.8385	0.044
Mof_C 	C 	0.2291	0.3239	0.8787	0.354
Mof_C 	C 	0.4447	0.7942	0.69385	-0.007
Mof_H 	H 	0.5086	0.8022	0.67106	0.044
Mof_C 	C 	0.0305	0.2235	0.7368	-0.011
Mof_H 	H 	0.96	0.2285	0.7311	0.044
Mof_C 	C 	0.2674	0.8414	0.6931	-0.007
Mof_H 	H 	0.2102	0.8781	0.6691	0.036
Mof_C 	C 	0.1911	0.1566	0.6889	-0.017
Mof_H 	H 	0.2307	0.117	0.6506	0.045
Mof_O 	O 	0.0846	0.0148	0.57703	-0.406
Mof_O 	O 	0.29991	0.9766	0.55434	-0.429
Mof_O 	O 	0.45354	0.9024	0.54801	-0.423
Mof_O 	O 	0.3921	0.5596	0.88182	-0.379
Mof_O 	O 	0.2589	0.6817	0.91299	-0.372
Mof_O 	O 	0.1805	0.3983	0.92206	-0.391
Mof_O 	O 	0.319	0.2905	0.89018	-0.376
Mof_O 	O 	0.9544	0.1493	0.59326	-0.383
Mof_C 	C 	0.038	0.104	0.61115	0.385
Mof_Mn	Mn	0.1535	0.57582	0.98461	0.919
Mof_Mn	Mn	0.38883	0.41833	0.96811	0.882
Mof_C 	C 	0.372	0.5885	0.08288	0.361
Mof_C 	C 	0.3604	0.6524	0.15802	-0.102
Mof_C 	C 	0.4346	0.7699	0.2622	-0.02
Mof_H 	H 	0.491	0.8098	0.2854	0.046
Mof_C 	C 	0.342	0.7763	0.29713	-0.075
Mof_C 	C 	0.2589	0.7187	0.2633	-0.024
Mof_H 	H 	0.1963	0.7205	0.2884	0.052
Mof_C 	C 	0.0873	0.337	0.18072	-0.09
Mof_C 	C 	0.3294	0.8504	0.37	0.363
Mof_C 	C 	0.2361	0.2913	0.2536	-0.02
Mof_H 	H 	0.3065	0.2967	0.2595	0.049
Mof_C 	C 	0.1787	0.2315	0.3098	-0.075
Mof_C 	C 	0.0751	0.2234	0.3009	-0.024
Mof_H 	H 	0.0355	0.1818	0.3385	0.046
Mof_C 	C 	0.2291	0.1761	0.3787	0.353
Mof_C 	C 	0.4447	0.7058	0.19385	-0.007
Mof_H 	H 	0.5086	0.6978	0.17106	0.044
Mof_C 	C 	0.0305	0.2765	0.2368	-0.004
Mof_H 	H 	0.96	0.2715	0.2311	0.04
Mof_C 	C 	0.2674	0.6586	0.1931	-0.007
Mof_H 	H 	0.2102	0.6219	0.1691	0.036
Mof_C 	C 	0.1911	0.3434	0.1889	-0.014
Mof_H 	H 	0.2307	0.383	0.1506	0.044
Mof_O 	O 	0.0846	0.4852	0.07703	-0.406
Mof_O 	O 	0.29991	0.5234	0.05434	-0.428
Mof_O 	O 	0.45354	0.5976	0.04801	-0.422
Mof_O 	O 	0.3921	0.9404	0.38182	-0.379
Mof_O 	O 	0.2589	0.8183	0.41299	-0.372
Mof_O 	O 	0.1805	0.1017	0.42206	-0.39
Mof_O 	O 	0.319	0.2095	0.39018	-0.376
Mof_O 	O 	0.9544	0.3507	0.09326	-0.385
Mof_C 	C 	0.038	0.396	0.11115	0.389
Mof_Mn	Mn	0.8465	0.07582	0.51539	0.919
Mof_Mn	Mn	0.61117	0.91833	0.53189	0.881
Mof_C 	C 	0.628	0.0885	0.41712	0.361
Mof_C 	C 	0.6396	0.1524	0.34198	-0.103
Mof_C 	C 	0.5654	0.2699	0.2378	-0.02
Mof_H 	H 	0.509	0.3098	0.2146	0.046
Mof_C 	C 	0.658	0.2763	0.20287	-0.075
Mof_C 	C 	0.7411	0.2187	0.2367	-0.025
Mof_H 	H 	0.8037	0.2205	0.2116	0.052
Mof_C 	C 	0.9127	0.837	0.31928	-0.087
Mof_C 	C 	0.6706	0.3504	0.13	0.363
Mof_C 	C 	0.7639	0.7913	0.2464	-0.018
Mof_H 	H 	0.6935	0.7967	0.2405	0.048
Mof_C 	C 	0.8213	0.7315	0.1902	-0.077
Mof_C 	C 	0.9249	0.7234	0.1991	-0.02
Mof_H 	H 	0.9645	0.6818	0.1615	0.044
Mof_C 	C 	0.7709	0.6761	0.1213	0.354
Mof_C 	C 	0.5553	0.2058	0.30615	-0.007
Mof_H 	H 	0.4914	0.1978	0.32894	0.044
Mof_C 	C 	0.9695	0.7765	0.2632	-0.011
Mof_H 	H 	0.04	0.7715	0.2689	0.044
Mof_C 	C 	0.7326	0.1586	0.3069	-0.007
Mof_H 	H 	0.7898	0.1219	0.3309	0.036
Mof_C 	C 	0.8089	0.8434	0.3111	-0.017
Mof_H 	H 	0.7693	0.883	0.3494	0.045
Mof_O 	O 	0.9154	0.9852	0.42297	-0.406
Mof_O 	O 	0.70009	0.0234	0.44566	-0.429
Mof_O 	O 	0.54646	0.0976	0.45199	-0.423
Mof_O 	O 	0.6079	0.4404	0.11818	-0.379
Mof_O 	O 	0.7411	0.3183	0.08701	-0.372
Mof_O 	O 	0.8195	0.6017	0.07794	-0.391
Mof_O 	O 	0.681	0.7095	0.10982	-0.376
Mof_O 	O 	0.0456	0.8507	0.40674	-0.383
Mof_C 	C 	0.962	0.896	0.38885	0.385
_end
