# CIF file generated by openbabel 3.1.0, see https://openbabel.org
data_I
_chemical_name_common 'image0'
_cell_length_a 40.537
_cell_length_b 10.192
_cell_length_c 18.2312
_cell_angle_alpha 90
_cell_angle_beta 95.188
_cell_angle_gamma 90
_space_group_name_H-M_alt 'P 1'
_space_group_name_Hall 'P 1'
loop_
    _symmetry_equiv_pos_as_xyz
    x,y,z
loop_
    _atom_site_label
    _atom_site_type_symbol
    _atom_site_fract_x
    _atom_site_fract_y
    _atom_site_fract_z
    _atom_site_occupancy
    Cd1      Cd       0.66300    0.20986    0.72892    1.000
    Cd2      Cd       0.83750    0.36213    0.77079    1.000
    Cd3      Cd       0.75041    0.28616    0.74979    1.000
    O1       O        0.72815    0.32690    0.63650    1.000
    O2       O        0.67413    0.35890    0.64290    1.000
    O3       O        0.71470    0.65290    0.30010    1.000
    O4       O        0.66310    0.72490    0.32260    1.000
    C1       C        0.69800    0.45510    0.54330    1.000
    C2       C        0.72490    0.45480    0.49940    1.000
    H1       H        0.74470    0.40860    0.51450    1.000
    C3       C        0.72170    0.52280    0.43460    1.000
    H2       H        0.73970    0.52420    0.40470    1.000
    C4       C        0.69450    0.58600    0.41230    1.000
    C5       C        0.66780    0.58710    0.45950    1.000
    H3       H        0.64830    0.63600    0.44580    1.000
    C6       C        0.67060    0.51890    0.52270    1.000
    H4       H        0.65260    0.51680    0.55270    1.000
    C7       C        0.70140    0.37130    0.61320    1.000
    C8       C        0.68980    0.66750    0.33990    1.000
    O5       O        0.66608    0.34350    0.82540    1.000
    O6       O        0.71516    0.41850    0.80350    1.000
    O7       O        0.67413    0.72270    0.14230    1.000
    O8       O        0.72814    0.74220    0.13620    1.000
    C9       C        0.69310    0.48110    0.91200    1.000
    C10      C        0.66700    0.48650    0.95350    1.000
    H5       H        0.64690    0.44400    0.93670    1.000
    C11      C        0.66930    0.55240    0.01930    1.000
    H6       H        0.65100    0.55030    0.04850    1.000
    C12      C        0.69810    0.62340    0.04490    1.000
    C13      C        0.72340    0.61470    0.00470    1.000
    H7       H        0.74380    0.65300    0.02330    1.000
    C14      C        0.72200    0.55300    0.93630    1.000
    H8       H        0.74000    0.55820    0.90670    1.000
    C15      C        0.69160    0.41320    0.84050    1.000
    C16      C        0.69900    0.69840    0.11430    1.000
    O9       O        0.78651    0.45850    0.73700    1.000
    O10      O        0.81685    0.56530    0.82300    1.000
    O11      O        0.68350    0.00370    0.67710    1.000
    O12      O        0.71313    0.11270    0.76300    1.000
    C17      C        0.76950    0.67820    0.76460    1.000
    C18      C        0.74850    0.67560    0.70300    1.000
    H9       H        0.74660    0.60360    0.66980    1.000
    C19      C        0.72880    0.79790    0.69290    1.000
    H10      H        0.71380    0.80280    0.64980    1.000
    C20      C        0.72970    0.90020    0.73690    1.000
    C21      C        0.75390    0.88590    0.79800    1.000
    H11      H        0.75640    0.95800    0.83100    1.000
    C22      C        0.77290    0.78620    0.81350    1.000
    H12      H        0.78830    0.78520    0.85590    1.000
    C23      C        0.79180    0.55570    0.77680    1.000
    C24      C        0.70710    0.00650    0.72360    1.000
    Cu1      Cu       0.48436    0.08270    0.55980    1.000
    O13      O        0.52170    0.19210    0.55010    1.000
    N1       N        0.61200    0.20300    0.67030    1.000
    N2       N        0.51180    0.96300    0.62500    1.000
    C25      C        0.59240    0.09700    0.67280    1.000
    H13      H        0.60070    0.02200    0.69910    1.000
    C26      C        0.55970    0.09370    0.63740    1.000
    C27      C        0.54960    0.19900    0.58570    1.000
    C28      C        0.57410    0.30550    0.57920    1.000
    C29      C        0.60250    0.30430    0.62470    1.000
    H14      H        0.61660    0.37870    0.62470    1.000
    C30      C        0.56390    0.42400    0.53420    1.000
    H15      H        0.57320    0.50310    0.55910    1.000
    H16      H        0.53970    0.43050    0.52860    1.000
    H17      H        0.57220    0.41700    0.48560    1.000
    C31      C        0.54010    0.98650    0.65090    1.000
    H18      H        0.54990    0.92320    0.68440    1.000
    C32      C        0.49640    0.83840    0.65930    1.000
    H19      H        0.51250    0.78100    0.68890    1.000
    C33      C        0.47140    0.91060    0.70410    1.000
    H20      H        0.47110    0.87010    0.75340    1.000
    H21      H        0.47780    0.00390    0.71070    1.000
    C34      C        0.43690    0.90050    0.66180    1.000
    H22      H        0.42200    0.84600    0.68930    1.000
    H23      H        0.42690    0.98870    0.65410    1.000
    C35      C        0.44240    0.83650    0.58770    1.000
    C36      C        0.41190    0.76290    0.56760    1.000
    H24      H        0.39320    0.80840    0.58670    1.000
    H25      H        0.41390    0.67460    0.58880    1.000
    H26      H        0.40820    0.75660    0.51380    1.000
    C37      C        0.47410    0.76970    0.60390    1.000
    C38      C        0.46990    0.63110    0.63570    1.000
    H27      H        0.48500    0.62010    0.68040    1.000
    H28      H        0.47490    0.56530    0.59910    1.000
    H29      H        0.44700    0.61980    0.64770    1.000
    C39      C        0.49020    0.74900    0.53130    1.000
    H30      H        0.50860    0.81040    0.52880    1.000
    H31      H        0.47370    0.76370    0.48950    1.000
    H32      H        0.49860    0.65860    0.52950    1.000
    Cu2      Cu       0.99701    0.55220    0.01710    1.000
    C40      C        0.00630    0.77300    0.21370    1.000
    C41      C        0.97350    0.83600    0.09280    1.000
    C42      C        0.96620    0.96600    0.13110    1.000
    H33      H        0.94250    0.98600    0.12270    1.000
    H34      H        0.97900    0.03670    0.11090    1.000
    H35      H        0.97240    0.95800    0.18410    1.000
    C43      C        0.99940    0.87000    0.03880    1.000
    H36      H        0.98830    0.88030    0.98910    1.000
    H37      H        0.01570    0.79860    0.03870    1.000
    H38      H        0.01060    0.95150    0.05420    1.000
    O14      O        0.98060    0.44500    0.93710    1.000
    N3       N        0.89060    0.39900    0.82550    1.000
    N4       N        0.95480    0.64220    0.01630    1.000
    C44      C        0.89510    0.47800    0.87710    1.000
    H39      H        0.87630    0.52700    0.88920    1.000
    C45      C        0.92640    0.50520    0.92120    1.000
    C46      C        0.95170    0.41600    0.90660    1.000
    C47      C        0.94560    0.31700    0.85870    1.000
    C48      C        0.91320    0.31900    0.81870    1.000
    H40      H        0.90870    0.25210    0.78300    1.000
    C49      C        0.97300    0.22100    0.85200    1.000
    H41      H        0.96400    0.14080    0.82740    1.000
    H42      H        0.98330    0.19850    0.90080    1.000
    H43      H        0.98950    0.25930    0.82230    1.000
    C50      C        0.93070    0.61900    0.96330    1.000
    H44      H        0.91480    0.68660    0.95320    1.000
    C51      C        0.94320    0.77600    0.04770    1.000
    H45      H        0.92890    0.83540    0.01460    1.000
    C52      C        0.92770    0.70300    0.10960    1.000
    H46      H        0.91710    0.62090    0.09040    1.000
    H47      H        0.91060    0.75830    0.12990    1.000
    C53      C        0.95560    0.67200    0.16970    1.000
    H48      H        0.95690    0.57660    0.17900    1.000
    H49      H        0.95160    0.71730    0.21620    1.000
    C54      C        0.98810    0.72200    0.14100    1.000
    H50      H        0.99050    0.81870    0.24230    1.000
    H51      H        0.02380    0.83400    0.20250    1.000
    H52      H        0.01600    0.69900    0.24230    1.000
    O15      O        0.03120    0.41150    0.02320    1.000
    N5       N        0.11490    0.37300    0.16070    1.000
    N6       N        0.01570    0.64900    0.10100    1.000
    C55      C        0.09720    0.48100    0.16870    1.000
    H53      H        0.10450    0.54500    0.20450    1.000
    C56      C        0.06580    0.50100    0.12110    1.000
    C57      C        0.05730    0.40700    0.06640    1.000
    C58      C        0.07950    0.29200    0.05460    1.000
    C59      C        0.10700    0.29000    0.10480    1.000
    H54      H        0.12240    0.22160    0.09900    1.000
    C60      C        0.06540    0.19300    0.99920    1.000
    H55      H        0.04200    0.21350    0.98540    1.000
    H56      H        0.06730    0.10540    0.02070    1.000
    H57      H        0.07770    0.19710    0.95540    1.000
    C61      C        0.04650    0.61800    0.13670    1.000
    H58      H        0.05570    0.67660    0.17370    1.000
    O16      O        0.46620    0.22600    0.49960    1.000
    N7       N        0.38420    0.18400    0.34550    1.000
    N8       N        0.44410    0.95740    0.53470    1.000
    C62      C        0.39430    0.07800    0.38390    1.000
    H59      H        0.38450    0.99500    0.37330    1.000
    C63      C        0.42000    0.09300    0.44070    1.000
    C64      C        0.43570    0.21400    0.45620    1.000
    C65      C        0.43240    0.31700    0.39940    1.000
    C66      C        0.40590    0.30700    0.34840    1.000
    H60      H        0.40080    0.37670    0.31450    1.000
    C67      C        0.44630    0.45200    0.41310    1.000
    H61      H        0.46420    0.44880    0.45320    1.000
    H62      H        0.42880    0.51110    0.42700    1.000
    H63      H        0.45520    0.48500    0.36830    1.000
    C68      C        0.42440    0.97740    0.48330    1.000
    H64      H        0.40970    0.90710    0.46940    1.000
    Cd4      Cd       0.16300    0.70986    0.72892    1.000
    Cd5      Cd       0.33750    0.86213    0.77079    1.000
    Cd6      Cd       0.25041    0.78616    0.74979    1.000
    O17      O        0.22815    0.82690    0.63650    1.000
    O18      O        0.17413    0.85890    0.64290    1.000
    O19      O        0.21470    0.15290    0.30010    1.000
    O20      O        0.16310    0.22490    0.32260    1.000
    C69      C        0.19800    0.95510    0.54330    1.000
    C70      C        0.22490    0.95480    0.49940    1.000
    H65      H        0.24470    0.90860    0.51450    1.000
    C71      C        0.22170    0.02280    0.43460    1.000
    H66      H        0.23970    0.02420    0.40470    1.000
    C72      C        0.19450    0.08600    0.41230    1.000
    C73      C        0.16780    0.08710    0.45950    1.000
    H67      H        0.14830    0.13600    0.44580    1.000
    C74      C        0.17060    0.01890    0.52270    1.000
    H68      H        0.15260    0.01680    0.55270    1.000
    C75      C        0.20140    0.87130    0.61320    1.000
    C76      C        0.18980    0.16750    0.33990    1.000
    O21      O        0.16608    0.84350    0.82540    1.000
    O22      O        0.21516    0.91850    0.80350    1.000
    O23      O        0.17413    0.22270    0.14230    1.000
    O24      O        0.22814    0.24220    0.13620    1.000
    C77      C        0.19310    0.98110    0.91200    1.000
    C78      C        0.16700    0.98650    0.95350    1.000
    H69      H        0.14690    0.94400    0.93670    1.000
    C79      C        0.16930    0.05240    0.01930    1.000
    H70      H        0.15100    0.05030    0.04850    1.000
    C80      C        0.19810    0.12340    0.04490    1.000
    C81      C        0.22340    0.11470    0.00470    1.000
    H71      H        0.24380    0.15300    0.02330    1.000
    C82      C        0.22200    0.05300    0.93630    1.000
    H72      H        0.24000    0.05820    0.90670    1.000
    C83      C        0.19160    0.91320    0.84050    1.000
    C84      C        0.19900    0.19840    0.11430    1.000
    O25      O        0.28651    0.95850    0.73700    1.000
    O26      O        0.31685    0.06530    0.82300    1.000
    O27      O        0.18350    0.50370    0.67710    1.000
    O28      O        0.21313    0.61270    0.76300    1.000
    C85      C        0.26950    0.17820    0.76460    1.000
    C86      C        0.24850    0.17560    0.70300    1.000
    H73      H        0.24660    0.10360    0.66980    1.000
    C87      C        0.22880    0.29790    0.69290    1.000
    H74      H        0.21380    0.30280    0.64980    1.000
    C88      C        0.22970    0.40020    0.73690    1.000
    C89      C        0.25390    0.38590    0.79800    1.000
    H75      H        0.25640    0.45800    0.83100    1.000
    C90      C        0.27290    0.28620    0.81350    1.000
    H76      H        0.28830    0.28520    0.85590    1.000
    C91      C        0.29180    0.05570    0.77680    1.000
    C92      C        0.20710    0.50650    0.72360    1.000
    Cu3      Cu       0.98436    0.58270    0.55980    1.000
    O29      O        0.02170    0.69210    0.55010    1.000
    N9       N        0.11200    0.70300    0.67030    1.000
    N10      N        0.01180    0.46300    0.62500    1.000
    C93      C        0.09240    0.59700    0.67280    1.000
    H77      H        0.10070    0.52200    0.69910    1.000
    C94      C        0.05970    0.59370    0.63740    1.000
    C95      C        0.04960    0.69900    0.58570    1.000
    C96      C        0.07410    0.80550    0.57920    1.000
    C97      C        0.10250    0.80430    0.62470    1.000
    H78      H        0.11660    0.87870    0.62470    1.000
    C98      C        0.06390    0.92400    0.53420    1.000
    H79      H        0.07320    0.00310    0.55910    1.000
    H80      H        0.03970    0.93050    0.52860    1.000
    H81      H        0.07220    0.91700    0.48560    1.000
    C99      C        0.04010    0.48650    0.65090    1.000
    H82      H        0.04990    0.42320    0.68440    1.000
    C100     C        0.99640    0.33840    0.65930    1.000
    H83      H        0.01250    0.28100    0.68890    1.000
    C101     C        0.97140    0.41060    0.70410    1.000
    H84      H        0.97110    0.37010    0.75340    1.000
    H85      H        0.97780    0.50390    0.71070    1.000
    C102     C        0.93690    0.40050    0.66180    1.000
    H86      H        0.92200    0.34600    0.68930    1.000
    H87      H        0.92690    0.48870    0.65410    1.000
    C103     C        0.94240    0.33650    0.58770    1.000
    C104     C        0.91190    0.26290    0.56760    1.000
    H88      H        0.89320    0.30840    0.58670    1.000
    H89      H        0.91390    0.17460    0.58880    1.000
    H90      H        0.90820    0.25660    0.51380    1.000
    C105     C        0.97410    0.26970    0.60390    1.000
    C106     C        0.96990    0.13110    0.63570    1.000
    H91      H        0.98500    0.12010    0.68040    1.000
    H92      H        0.97490    0.06530    0.59910    1.000
    H93      H        0.94700    0.11980    0.64770    1.000
    C107     C        0.99020    0.24900    0.53130    1.000
    H94      H        0.00860    0.31040    0.52880    1.000
    H95      H        0.97370    0.26370    0.48950    1.000
    H96      H        0.99860    0.15860    0.52950    1.000
    Cu4      Cu       0.49701    0.05220    0.01710    1.000
    C108     C        0.50630    0.27300    0.21370    1.000
    C109     C        0.47350    0.33600    0.09280    1.000
    C110     C        0.46620    0.46600    0.13110    1.000
    H97      H        0.44250    0.48600    0.12270    1.000
    H98      H        0.47900    0.53670    0.11090    1.000
    H99      H        0.47240    0.45800    0.18410    1.000
    C111     C        0.49940    0.37000    0.03880    1.000
    H100     H        0.48830    0.38030    0.98910    1.000
    H101     H        0.51570    0.29860    0.03870    1.000
    H102     H        0.51060    0.45150    0.05420    1.000
    O30      O        0.48060    0.94500    0.93710    1.000
    N11      N        0.39060    0.89900    0.82550    1.000
    N12      N        0.45480    0.14220    0.01630    1.000
    C112     C        0.39510    0.97800    0.87710    1.000
    H103     H        0.37630    0.02700    0.88920    1.000
    C113     C        0.42640    0.00520    0.92120    1.000
    C114     C        0.45170    0.91600    0.90660    1.000
    C115     C        0.44560    0.81700    0.85870    1.000
    C116     C        0.41320    0.81900    0.81870    1.000
    H104     H        0.40870    0.75210    0.78300    1.000
    C117     C        0.47300    0.72100    0.85200    1.000
    H105     H        0.46400    0.64080    0.82740    1.000
    H106     H        0.48330    0.69850    0.90080    1.000
    H107     H        0.48950    0.75930    0.82230    1.000
    C118     C        0.43070    0.11900    0.96330    1.000
    H108     H        0.41480    0.18660    0.95320    1.000
    C119     C        0.44320    0.27600    0.04770    1.000
    H109     H        0.42890    0.33540    0.01460    1.000
    C120     C        0.42770    0.20300    0.10960    1.000
    H110     H        0.41710    0.12090    0.09040    1.000
    H111     H        0.41060    0.25830    0.12990    1.000
    C121     C        0.45560    0.17200    0.16970    1.000
    H112     H        0.45690    0.07660    0.17900    1.000
    H113     H        0.45160    0.21730    0.21620    1.000
    C122     C        0.48810    0.22200    0.14100    1.000
    H114     H        0.49050    0.31870    0.24230    1.000
    H115     H        0.52380    0.33400    0.20250    1.000
    H116     H        0.51600    0.19900    0.24230    1.000
    O31      O        0.53120    0.91150    0.02320    1.000
    N13      N        0.61490    0.87300    0.16070    1.000
    N14      N        0.51570    0.14900    0.10100    1.000
    C123     C        0.59720    0.98100    0.16870    1.000
    H117     H        0.60450    0.04500    0.20450    1.000
    C124     C        0.56580    0.00100    0.12110    1.000
    C125     C        0.55730    0.90700    0.06640    1.000
    C126     C        0.57950    0.79200    0.05460    1.000
    C127     C        0.60700    0.79000    0.10480    1.000
    H118     H        0.62240    0.72160    0.09900    1.000
    C128     C        0.56540    0.69300    0.99920    1.000
    H119     H        0.54200    0.71350    0.98540    1.000
    H120     H        0.56730    0.60540    0.02070    1.000
    H121     H        0.57770    0.69710    0.95540    1.000
    C129     C        0.54650    0.11800    0.13670    1.000
    H122     H        0.55570    0.17660    0.17370    1.000
    O32      O        0.96620    0.72600    0.49960    1.000
    N15      N        0.88420    0.68400    0.34550    1.000
    N16      N        0.94410    0.45740    0.53470    1.000
    C130     C        0.89430    0.57800    0.38390    1.000
    H123     H        0.88450    0.49500    0.37330    1.000
    C131     C        0.92000    0.59300    0.44070    1.000
    C132     C        0.93570    0.71400    0.45620    1.000
    C133     C        0.93240    0.81700    0.39940    1.000
    C134     C        0.90590    0.80700    0.34840    1.000
    H124     H        0.90080    0.87670    0.31450    1.000
    C135     C        0.94630    0.95200    0.41310    1.000
    H125     H        0.96420    0.94880    0.45320    1.000
    H126     H        0.92880    0.01110    0.42700    1.000
    H127     H        0.95520    0.98500    0.36830    1.000
    C136     C        0.92440    0.47740    0.48330    1.000
    H128     H        0.90970    0.40710    0.46940    1.000
    Cd7      Cd       0.33700    0.20986    0.27108    1.000
    Cd8      Cd       0.16250    0.36213    0.22921    1.000
    Cd9      Cd       0.24959    0.28616    0.25021    1.000
    O33      O        0.27185    0.32690    0.36350    1.000
    O34      O        0.32587    0.35890    0.35710    1.000
    O35      O        0.28530    0.65290    0.69990    1.000
    O36      O        0.33690    0.72490    0.67740    1.000
    C137     C        0.30200    0.45510    0.45670    1.000
    C138     C        0.27510    0.45480    0.50060    1.000
    H129     H        0.25530    0.40860    0.48550    1.000
    C139     C        0.27830    0.52280    0.56540    1.000
    H130     H        0.26030    0.52420    0.59530    1.000
    C140     C        0.30550    0.58600    0.58770    1.000
    C141     C        0.33220    0.58710    0.54050    1.000
    H131     H        0.35170    0.63600    0.55420    1.000
    C142     C        0.32940    0.51890    0.47730    1.000
    H132     H        0.34740    0.51680    0.44730    1.000
    C143     C        0.29860    0.37130    0.38680    1.000
    C144     C        0.31020    0.66750    0.66010    1.000
    O37      O        0.33392    0.34350    0.17460    1.000
    O38      O        0.28484    0.41850    0.19650    1.000
    O39      O        0.32587    0.72270    0.85770    1.000
    O40      O        0.27186    0.74220    0.86380    1.000
    C145     C        0.30690    0.48110    0.08800    1.000
    C146     C        0.33300    0.48650    0.04650    1.000
    H133     H        0.35310    0.44400    0.06330    1.000
    C147     C        0.33070    0.55240    0.98070    1.000
    H134     H        0.34900    0.55030    0.95150    1.000
    C148     C        0.30190    0.62340    0.95510    1.000
    C149     C        0.27660    0.61470    0.99530    1.000
    H135     H        0.25620    0.65300    0.97670    1.000
    C150     C        0.27800    0.55300    0.06370    1.000
    H136     H        0.26000    0.55820    0.09330    1.000
    C151     C        0.30840    0.41320    0.15950    1.000
    C152     C        0.30100    0.69840    0.88570    1.000
    O41      O        0.21349    0.45850    0.26300    1.000
    O42      O        0.18315    0.56530    0.17700    1.000
    O43      O        0.31650    0.00370    0.32290    1.000
    O44      O        0.28687    0.11270    0.23700    1.000
    C153     C        0.23050    0.67820    0.23540    1.000
    C154     C        0.25150    0.67560    0.29700    1.000
    H137     H        0.25340    0.60360    0.33020    1.000
    C155     C        0.27120    0.79790    0.30710    1.000
    H138     H        0.28620    0.80280    0.35020    1.000
    C156     C        0.27030    0.90020    0.26310    1.000
    C157     C        0.24610    0.88590    0.20200    1.000
    H139     H        0.24360    0.95800    0.16900    1.000
    C158     C        0.22710    0.78620    0.18650    1.000
    H140     H        0.21170    0.78520    0.14410    1.000
    C159     C        0.20820    0.55570    0.22320    1.000
    C160     C        0.29290    0.00650    0.27640    1.000
    Cu5      Cu       0.51564    0.08270    0.44020    1.000
    O45      O        0.47830    0.19210    0.44990    1.000
    N17      N        0.38800    0.20300    0.32970    1.000
    N18      N        0.48820    0.96300    0.37500    1.000
    C161     C        0.40760    0.09700    0.32720    1.000
    H141     H        0.39930    0.02200    0.30090    1.000
    C162     C        0.44030    0.09370    0.36260    1.000
    C163     C        0.45040    0.19900    0.41430    1.000
    C164     C        0.42590    0.30550    0.42080    1.000
    C165     C        0.39750    0.30430    0.37530    1.000
    H142     H        0.38340    0.37870    0.37530    1.000
    C166     C        0.43610    0.42400    0.46580    1.000
    H143     H        0.42680    0.50310    0.44090    1.000
    H144     H        0.46030    0.43050    0.47140    1.000
    H145     H        0.42780    0.41700    0.51440    1.000
    C167     C        0.45990    0.98650    0.34910    1.000
    H146     H        0.45010    0.92320    0.31560    1.000
    C168     C        0.50360    0.83840    0.34070    1.000
    H147     H        0.48750    0.78100    0.31110    1.000
    C169     C        0.52860    0.91060    0.29590    1.000
    H148     H        0.52890    0.87010    0.24660    1.000
    H149     H        0.52220    0.00390    0.28930    1.000
    C170     C        0.56310    0.90050    0.33820    1.000
    H150     H        0.57800    0.84600    0.31070    1.000
    H151     H        0.57310    0.98870    0.34590    1.000
    C171     C        0.55760    0.83650    0.41230    1.000
    C172     C        0.58810    0.76290    0.43240    1.000
    H152     H        0.60680    0.80840    0.41330    1.000
    H153     H        0.58610    0.67460    0.41120    1.000
    H154     H        0.59180    0.75660    0.48620    1.000
    C173     C        0.52590    0.76970    0.39610    1.000
    C174     C        0.53010    0.63110    0.36430    1.000
    H155     H        0.51500    0.62010    0.31960    1.000
    H156     H        0.52510    0.56530    0.40090    1.000
    H157     H        0.55300    0.61980    0.35230    1.000
    C175     C        0.50980    0.74900    0.46870    1.000
    H158     H        0.49140    0.81040    0.47120    1.000
    H159     H        0.52630    0.76370    0.51050    1.000
    H160     H        0.50140    0.65860    0.47050    1.000
    Cu6      Cu       0.00299    0.55220    0.98290    1.000
    C176     C        0.99370    0.77300    0.78630    1.000
    C177     C        0.02650    0.83600    0.90720    1.000
    C178     C        0.03380    0.96600    0.86890    1.000
    H161     H        0.05750    0.98600    0.87730    1.000
    H162     H        0.02100    0.03670    0.88910    1.000
    H163     H        0.02760    0.95800    0.81590    1.000
    C179     C        0.00060    0.87000    0.96120    1.000
    H164     H        0.01170    0.88030    0.01090    1.000
    H165     H        0.98430    0.79860    0.96130    1.000
    H166     H        0.98940    0.95150    0.94580    1.000
    O46      O        0.01940    0.44500    0.06290    1.000
    N19      N        0.10940    0.39900    0.17450    1.000
    N20      N        0.04520    0.64220    0.98370    1.000
    C180     C        0.10490    0.47800    0.12290    1.000
    H167     H        0.12370    0.52700    0.11080    1.000
    C181     C        0.07360    0.50520    0.07880    1.000
    C182     C        0.04830    0.41600    0.09340    1.000
    C183     C        0.05440    0.31700    0.14130    1.000
    C184     C        0.08680    0.31900    0.18130    1.000
    H168     H        0.09130    0.25210    0.21700    1.000
    C185     C        0.02700    0.22100    0.14800    1.000
    H169     H        0.03600    0.14080    0.17260    1.000
    H170     H        0.01670    0.19850    0.09920    1.000
    H171     H        0.01050    0.25930    0.17770    1.000
    C186     C        0.06930    0.61900    0.03670    1.000
    H172     H        0.08520    0.68660    0.04680    1.000
    C187     C        0.05680    0.77600    0.95230    1.000
    H173     H        0.07110    0.83540    0.98540    1.000
    C188     C        0.07230    0.70300    0.89040    1.000
    H174     H        0.08290    0.62090    0.90960    1.000
    H175     H        0.08940    0.75830    0.87010    1.000
    C189     C        0.04440    0.67200    0.83030    1.000
    H176     H        0.04310    0.57660    0.82100    1.000
    H177     H        0.04840    0.71730    0.78380    1.000
    C190     C        0.01190    0.72200    0.85900    1.000
    H178     H        0.00950    0.81870    0.75770    1.000
    H179     H        0.97620    0.83400    0.79750    1.000
    H180     H        0.98400    0.69900    0.75770    1.000
    O47      O        0.96880    0.41150    0.97680    1.000
    N21      N        0.88510    0.37300    0.83930    1.000
    N22      N        0.98430    0.64900    0.89900    1.000
    C191     C        0.90280    0.48100    0.83130    1.000
    H181     H        0.89550    0.54500    0.79550    1.000
    C192     C        0.93420    0.50100    0.87890    1.000
    C193     C        0.94270    0.40700    0.93360    1.000
    C194     C        0.92050    0.29200    0.94540    1.000
    C195     C        0.89300    0.29000    0.89520    1.000
    H182     H        0.87760    0.22160    0.90100    1.000
    C196     C        0.93460    0.19300    0.00080    1.000
    H183     H        0.95800    0.21350    0.01460    1.000
    H184     H        0.93270    0.10540    0.97930    1.000
    H185     H        0.92230    0.19710    0.04460    1.000
    C197     C        0.95350    0.61800    0.86330    1.000
    H186     H        0.94430    0.67660    0.82630    1.000
    O48      O        0.53380    0.22600    0.50040    1.000
    N23      N        0.61580    0.18400    0.65450    1.000
    N24      N        0.55590    0.95740    0.46530    1.000
    C198     C        0.60570    0.07800    0.61610    1.000
    H187     H        0.61550    0.99500    0.62670    1.000
    C199     C        0.58000    0.09300    0.55930    1.000
    C200     C        0.56430    0.21400    0.54380    1.000
    C201     C        0.56760    0.31700    0.60060    1.000
    C202     C        0.59410    0.30700    0.65160    1.000
    H188     H        0.59920    0.37670    0.68550    1.000
    C203     C        0.55370    0.45200    0.58690    1.000
    H189     H        0.53580    0.44880    0.54680    1.000
    H190     H        0.57120    0.51110    0.57300    1.000
    H191     H        0.54480    0.48500    0.63170    1.000
    C204     C        0.57560    0.97740    0.51670    1.000
    H192     H        0.59030    0.90710    0.53060    1.000
    Cd10     Cd       0.83700    0.70986    0.27108    1.000
    Cd11     Cd       0.66250    0.86213    0.22921    1.000
    Cd12     Cd       0.74959    0.78616    0.25021    1.000
    O49      O        0.77185    0.82690    0.36350    1.000
    O50      O        0.82587    0.85890    0.35710    1.000
    O51      O        0.78530    0.15290    0.69990    1.000
    O52      O        0.83690    0.22490    0.67740    1.000
    C205     C        0.80200    0.95510    0.45670    1.000
    C206     C        0.77510    0.95480    0.50060    1.000
    H193     H        0.75530    0.90860    0.48550    1.000
    C207     C        0.77830    0.02280    0.56540    1.000
    H194     H        0.76030    0.02420    0.59530    1.000
    C208     C        0.80550    0.08600    0.58770    1.000
    C209     C        0.83220    0.08710    0.54050    1.000
    H195     H        0.85170    0.13600    0.55420    1.000
    C210     C        0.82940    0.01890    0.47730    1.000
    H196     H        0.84740    0.01680    0.44730    1.000
    C211     C        0.79860    0.87130    0.38680    1.000
    C212     C        0.81020    0.16750    0.66010    1.000
    O53      O        0.83392    0.84350    0.17460    1.000
    O54      O        0.78484    0.91850    0.19650    1.000
    O55      O        0.82587    0.22270    0.85770    1.000
    O56      O        0.77186    0.24220    0.86380    1.000
    C213     C        0.80690    0.98110    0.08800    1.000
    C214     C        0.83300    0.98650    0.04650    1.000
    H197     H        0.85310    0.94400    0.06330    1.000
    C215     C        0.83070    0.05240    0.98070    1.000
    H198     H        0.84900    0.05030    0.95150    1.000
    C216     C        0.80190    0.12340    0.95510    1.000
    C217     C        0.77660    0.11470    0.99530    1.000
    H199     H        0.75620    0.15300    0.97670    1.000
    C218     C        0.77800    0.05300    0.06370    1.000
    H200     H        0.76000    0.05820    0.09330    1.000
    C219     C        0.80840    0.91320    0.15950    1.000
    C220     C        0.80100    0.19840    0.88570    1.000
    O57      O        0.71349    0.95850    0.26300    1.000
    O58      O        0.68315    0.06530    0.17700    1.000
    O59      O        0.81650    0.50370    0.32290    1.000
    O60      O        0.78687    0.61270    0.23700    1.000
    C221     C        0.73050    0.17820    0.23540    1.000
    C222     C        0.75150    0.17560    0.29700    1.000
    H201     H        0.75340    0.10360    0.33020    1.000
    C223     C        0.77120    0.29790    0.30710    1.000
    H202     H        0.78620    0.30280    0.35020    1.000
    C224     C        0.77030    0.40020    0.26310    1.000
    C225     C        0.74610    0.38590    0.20200    1.000
    H203     H        0.74360    0.45800    0.16900    1.000
    C226     C        0.72710    0.28620    0.18650    1.000
    H204     H        0.71170    0.28520    0.14410    1.000
    C227     C        0.70820    0.05570    0.22320    1.000
    C228     C        0.79290    0.50650    0.27640    1.000
    Cu7      Cu       0.01564    0.58270    0.44020    1.000
    O61      O        0.97830    0.69210    0.44990    1.000
    N25      N        0.88800    0.70300    0.32970    1.000
    N26      N        0.98820    0.46300    0.37500    1.000
    C229     C        0.90760    0.59700    0.32720    1.000
    H205     H        0.89930    0.52200    0.30090    1.000
    C230     C        0.94030    0.59370    0.36260    1.000
    C231     C        0.95040    0.69900    0.41430    1.000
    C232     C        0.92590    0.80550    0.42080    1.000
    C233     C        0.89750    0.80430    0.37530    1.000
    H206     H        0.88340    0.87870    0.37530    1.000
    C234     C        0.93610    0.92400    0.46580    1.000
    H207     H        0.92680    0.00310    0.44090    1.000
    H208     H        0.96030    0.93050    0.47140    1.000
    H209     H        0.92780    0.91700    0.51440    1.000
    C235     C        0.95990    0.48650    0.34910    1.000
    H210     H        0.95010    0.42320    0.31560    1.000
    C236     C        0.00360    0.33840    0.34070    1.000
    H211     H        0.98750    0.28100    0.31110    1.000
    C237     C        0.02860    0.41060    0.29590    1.000
    H212     H        0.02890    0.37010    0.24660    1.000
    H213     H        0.02220    0.50390    0.28930    1.000
    C238     C        0.06310    0.40050    0.33820    1.000
    H214     H        0.07800    0.34600    0.31070    1.000
    H215     H        0.07310    0.48870    0.34590    1.000
    C239     C        0.05760    0.33650    0.41230    1.000
    C240     C        0.08810    0.26290    0.43240    1.000
    H216     H        0.10680    0.30840    0.41330    1.000
    H217     H        0.08610    0.17460    0.41120    1.000
    H218     H        0.09180    0.25660    0.48620    1.000
    C241     C        0.02590    0.26970    0.39610    1.000
    C242     C        0.03010    0.13110    0.36430    1.000
    H219     H        0.01500    0.12010    0.31960    1.000
    H220     H        0.02510    0.06530    0.40090    1.000
    H221     H        0.05300    0.11980    0.35230    1.000
    C243     C        0.00980    0.24900    0.46870    1.000
    H222     H        0.99140    0.31040    0.47120    1.000
    H223     H        0.02630    0.26370    0.51050    1.000
    H224     H        0.00140    0.15860    0.47050    1.000
    Cu8      Cu       0.50299    0.05220    0.98290    1.000
    C244     C        0.49370    0.27300    0.78630    1.000
    C245     C        0.52650    0.33600    0.90720    1.000
    C246     C        0.53380    0.46600    0.86890    1.000
    H225     H        0.55750    0.48600    0.87730    1.000
    H226     H        0.52100    0.53670    0.88910    1.000
    H227     H        0.52760    0.45800    0.81590    1.000
    C247     C        0.50060    0.37000    0.96120    1.000
    H228     H        0.51170    0.38030    0.01090    1.000
    H229     H        0.48430    0.29860    0.96130    1.000
    H230     H        0.48940    0.45150    0.94580    1.000
    O62      O        0.51940    0.94500    0.06290    1.000
    N27      N        0.60940    0.89900    0.17450    1.000
    N28      N        0.54520    0.14220    0.98370    1.000
    C248     C        0.60490    0.97800    0.12290    1.000
    H231     H        0.62370    0.02700    0.11080    1.000
    C249     C        0.57360    0.00520    0.07880    1.000
    C250     C        0.54830    0.91600    0.09340    1.000
    C251     C        0.55440    0.81700    0.14130    1.000
    C252     C        0.58680    0.81900    0.18130    1.000
    H232     H        0.59130    0.75210    0.21700    1.000
    C253     C        0.52700    0.72100    0.14800    1.000
    H233     H        0.53600    0.64080    0.17260    1.000
    H234     H        0.51670    0.69850    0.09920    1.000
    H235     H        0.51050    0.75930    0.17770    1.000
    C254     C        0.56930    0.11900    0.03670    1.000
    H236     H        0.58520    0.18660    0.04680    1.000
    C255     C        0.55680    0.27600    0.95230    1.000
    H237     H        0.57110    0.33540    0.98540    1.000
    C256     C        0.57230    0.20300    0.89040    1.000
    H238     H        0.58290    0.12090    0.90960    1.000
    H239     H        0.58940    0.25830    0.87010    1.000
    C257     C        0.54440    0.17200    0.83030    1.000
    H240     H        0.54310    0.07660    0.82100    1.000
    H241     H        0.54840    0.21730    0.78380    1.000
    C258     C        0.51190    0.22200    0.85900    1.000
    H242     H        0.50950    0.31870    0.75770    1.000
    H243     H        0.47620    0.33400    0.79750    1.000
    H244     H        0.48400    0.19900    0.75770    1.000
    O63      O        0.46880    0.91150    0.97680    1.000
    N29      N        0.38510    0.87300    0.83930    1.000
    N30      N        0.48430    0.14900    0.89900    1.000
    C259     C        0.40280    0.98100    0.83130    1.000
    H245     H        0.39550    0.04500    0.79550    1.000
    C260     C        0.43420    0.00100    0.87890    1.000
    C261     C        0.44270    0.90700    0.93360    1.000
    C262     C        0.42050    0.79200    0.94540    1.000
    C263     C        0.39300    0.79000    0.89520    1.000
    H246     H        0.37760    0.72160    0.90100    1.000
    C264     C        0.43460    0.69300    0.00080    1.000
    H247     H        0.45800    0.71350    0.01460    1.000
    H248     H        0.43270    0.60540    0.97930    1.000
    H249     H        0.42230    0.69710    0.04460    1.000
    C265     C        0.45350    0.11800    0.86330    1.000
    H250     H        0.44430    0.17660    0.82630    1.000
    O64      O        0.03380    0.72600    0.50040    1.000
    N31      N        0.11580    0.68400    0.65450    1.000
    N32      N        0.05590    0.45740    0.46530    1.000
    C266     C        0.10570    0.57800    0.61610    1.000
    H251     H        0.11550    0.49500    0.62670    1.000
    C267     C        0.08000    0.59300    0.55930    1.000
    C268     C        0.06430    0.71400    0.54380    1.000
    C269     C        0.06760    0.81700    0.60060    1.000
    C270     C        0.09410    0.80700    0.65160    1.000
    H252     H        0.09920    0.87670    0.68550    1.000
    C271     C        0.05370    0.95200    0.58690    1.000
    H253     H        0.03580    0.94880    0.54680    1.000
    H254     H        0.07120    0.01110    0.57300    1.000
    H255     H        0.04480    0.98500    0.63170    1.000
    C272     C        0.07560    0.47740    0.51670    1.000
    H256     H        0.09030    0.40710    0.53060    1.000
