# CIF file generated by openbabel 3.1.0, see https://openbabel.org
data_I
_chemical_name_common 'EFAYEQ_clean_h'
_cell_length_a 29.4392
_cell_length_b 29.4392
_cell_length_c 59.6168
_cell_angle_alpha 127.937
_cell_angle_beta 127.937
_cell_angle_gamma 90.4129
_space_group_name_H-M_alt 'P 1'
_space_group_name_Hall 'P 1'
loop_
    _symmetry_equiv_pos_as_xyz
    x,y,z
loop_
    _atom_site_label
    _atom_site_type_symbol
    _atom_site_fract_x
    _atom_site_fract_y
    _atom_site_fract_z
    _atom_site_occupancy
    Cu1      Cu       0.67998    0.46612    0.97296    1.000
    Cu2      Cu       0.50273    0.96669    0.97331    1.000
    Cu3      Cu       0.81929    0.53323    0.02657    1.000
    Cu4      Cu       0.00297    0.96699    0.97353    1.000
    H5       H        0.73629    0.35858    0.08896    1.000
    H6       H        0.13787    0.76304    0.40914    1.000
    H7       H        0.07910    0.75850    0.42388    1.000
    H8       H        0.07139    0.84906    0.47015    1.000
    H9       H        0.93919    0.84093    0.37250    1.000
    H10      H        0.94691    0.75038    0.32623    1.000
    H11      H        0.74429    0.26954    0.07742    1.000
    H12      H        0.65047    0.14547    0.02984    1.000
    H13      H        0.65462    0.25715    0.12569    1.000
    H14      H        0.74844    0.38123    0.17326    1.000
    H15      H        0.93282    0.55457    0.17423    1.000
    H16      H        0.91004    0.56189    0.12815    1.000
    H17      H        0.67188    0.42361    0.02686    1.000
    H18      H        0.69454    0.41611    0.07281    1.000
    H19      H        0.69393    0.76570    0.07357    1.000
    H20      H        0.66963    0.64258    0.02781    1.000
    H21      H        0.90699    0.75725    0.12656    1.000
    H22      H        0.93111    0.88033    0.17212    1.000
    H23      H        0.73451    0.85986    0.08739    1.000
    H24      H        0.75728    0.73227    0.92435    1.000
    H25      H        0.84835    0.85638    0.97081    1.000
    H26      H        0.84112    0.74507    0.87352    1.000
    H27      H        0.75024    0.62098    0.82723    1.000
    H28      H        0.76648    0.63840    0.91263    1.000
    H29      H        0.80279    0.58269    0.92551    1.000
    H30      H        0.82781    0.57658    0.97251    1.000
    H31      H        0.59006    0.43638    0.87178    1.000
    H32      H        0.56508    0.44257    0.82479    1.000
    H33      H        0.11770    0.56371    0.32616    1.000
    H34      H        0.24124    0.58867    0.37192    1.000
    H35      H        0.35456    0.82574    0.47030    1.000
    H36      H        0.23107    0.80075    0.42454    1.000
    H37      H        0.73923    0.91983    0.07504    1.000
    H38      H        0.64863    0.92701    0.02840    1.000
    H39      H        0.65732    0.06105    0.12624    1.000
    H40      H        0.74790    0.05388    0.17288    1.000
    C41      C        0.90780    0.87960    0.95240    1.000
    C42      C        0.59330    0.99730    0.04630    1.000
    C43      C        0.90549    0.53231    0.22490    1.000
    C44      C        0.85943    0.46437    0.20150    1.000
    C45      C        0.79920    0.40252    0.15310    1.000
    C46      C        0.78500    0.40860    0.12810    1.000
    C47      C        0.83103    0.47651    0.15150    1.000
    C48      C        0.89128    0.53836    0.19990    1.000
    C49      C        0.96424    0.59104    0.27320    1.000
    C50      C        0.03234    0.60460    0.29670    1.000
    C51      C        0.09419    0.66581    0.34510    1.000
    C52      C        0.08789    0.71349    0.37000    1.000
    C53      C        0.01991    0.70001    0.34660    1.000
    C54      C        0.95807    0.63881    0.29820    1.000
    C55      C        0.01352    0.74974    0.37270    1.000
    C56      C        0.04784    0.77694    0.41240    1.000
    C57      C        0.04357    0.82703    0.43800    1.000
    C58      C        0.00490    0.84982    0.42380    1.000
    C59      C        0.97048    0.82252    0.38400    1.000
    C60      C        0.97475    0.77243    0.35840    1.000
    C61      C        0.75124    0.33194    0.12780    1.000
    C62      C        0.72422    0.26678    0.08820    1.000
    C63      C        0.67237    0.19815    0.06190    1.000
    C64      C        0.64764    0.19476    0.07530    1.000
    C65      C        0.67467    0.25991    0.11490    1.000
    C66      C        0.72653    0.32855    0.14120    1.000
    C67      C        0.81493    0.48501    0.12600    1.000
    C68      C        0.87448    0.52528    0.14128    1.000
    C69      C        0.86188    0.52934    0.11580    1.000
    C70      C        0.78979    0.49317    0.07510    1.000
    C71      C        0.73021    0.45287    0.05980    1.000
    C72      C        0.74272    0.44874    0.08520    1.000
    C73      C        0.81383    0.82955    0.12530    1.000
    C74      C        0.74155    0.76381    0.08540    1.000
    C75      C        0.72810    0.69570    0.06010    1.000
    C76      C        0.78708    0.69340    0.07480    1.000
    C77      C        0.85936    0.75914    0.11470    1.000
    C78      C        0.87269    0.82717    0.13990    1.000
    C79      C        0.80086    0.97810    0.15130    1.000
    C80      C        0.78352    0.90836    0.12653    1.000
    C81      C        0.82672    0.89848    0.15010    1.000
    C82      C        0.88733    0.95841    0.19850    1.000
    C83      C        0.90476    0.02824    0.22336    1.000
    C84      C        0.86157    0.03813    0.19980    1.000
    C85      C        0.74891    0.67003    0.87330    1.000
    C86      C        0.77605    0.73513    0.91300    1.000
    C87      C        0.82640    0.80380    0.93870    1.000
    C88      C        0.84955    0.80731    0.92460    1.000
    C89      C        0.82241    0.74221    0.88490    1.000
    C90      C        0.77214    0.67362    0.85930    1.000
    C91      C        0.59550    0.47250    0.77670    1.000
    C92      C        0.61141    0.46091    0.79960    1.000
    C93      C        0.67231    0.51997    0.84800    1.000
    C94      C        0.71725    0.59065    0.87350    1.000
    C95      C        0.70128    0.60224    0.85060    1.000
    C96      C        0.64037    0.54319    0.80220    1.000
    C97      C        0.68262    0.51302    0.87270    1.000
    C98      C        0.75523    0.55001    0.91350    1.000
    C99      C        0.76908    0.54660    0.93950    1.000
    C100     C        0.71023    0.50609    0.92460    1.000
    C101     C        0.63763    0.46909    0.88380    1.000
    C102     C        0.62378    0.47252    0.85780    1.000
    C103     C        0.16791    0.68095    0.37300    1.000
    C104     C        0.17067    0.62227    0.35840    1.000
    C105     C        0.23896    0.63608    0.38370    1.000
    C106     C        0.30450    0.70858    0.42360    1.000
    C107     C        0.30164    0.76716    0.43810    1.000
    C108     C        0.23335    0.75335    0.41280    1.000
    C109     C        0.74845    0.98655    0.12650    1.000
    C110     C        0.72094    0.95142    0.08650    1.000
    C111     C        0.67083    0.95539    0.06070    1.000
    C112     C        0.64823    0.99449    0.07490    1.000
    C113     C        0.67564    0.02950    0.11480    1.000
    C114     C        0.72574    0.02554    0.14060    1.000
    C115     C        0.59210    0.11750    0.04600    1.000
    C116     C        0.77050    0.49530    0.04610    1.000
    C117     C        0.77200    0.62240    0.04810    1.000
    C118     C        0.71770    0.49910    0.95010    1.000
    C119     C        0.37870    0.72410    0.45230    1.000
    C120     C        0.00040    0.90540    0.45160    1.000
    C121     C        0.91740    0.14600    0.22720    1.000
    C122     C        0.90910    0.20910    0.24240    1.000
    C123     C        0.58310    0.57770    0.77380    1.000
    C124     C        0.54840    0.57120    0.73810    1.000
    C125     C        0.91000    0.64660    0.23460    1.000
    C126     C        0.96790    0.73050    0.27150    1.000
    C127     C        0.84860    0.57500    0.26450    1.000
    C128     C        0.76680    0.54100    0.22470    1.000
    O129     O        0.91961    0.93125    0.98270    1.000
    O130     O        0.92677    0.87645    0.93830    1.000
    O131     O        0.57672    0.97034    0.01390    1.000
    O132     O        0.57265    0.03009    0.06110    1.000
    O133     O        0.97113    0.92971    0.43990    1.000
    O134     O        0.82737    0.62253    0.06000    1.000
    O135     O        0.71062    0.56510    0.01460    1.000
    O136     O        0.71107    0.47293    0.01600    1.000
    O137     O        0.82953    0.52879    0.06140    1.000
    O138     O        0.43637    0.78963    0.48590    1.000
    O139     O        0.37950    0.67088    0.44070    1.000
    O140     O        0.66954    0.47062    0.93940    1.000
    O141     O        0.78664    0.52758    0.98340    1.000
    O142     O        0.02799    0.92327    0.48520    1.000
    O143     O        0.57800    0.06642    0.01540    1.000
    O144     O        0.57261    0.12383    0.06150    1.000
    O145     O        0.87510    0.10330    0.22190    1.000
    O146     O        0.62240    0.54800    0.77640    1.000
    O147     O        0.93770    0.60690    0.22600    1.000
    O148     O        0.89170    0.62450    0.27450    1.000
    H149     H        0.87092    0.45951    0.22172    1.000
    H150     H        0.03742    0.56605    0.27656    1.000
    H151     H        0.92230    0.95046    0.21758    1.000
    H152     H        0.57504    0.40379    0.77899    1.000
    H153     H        0.97757    0.17093    0.25503    1.000
    H154     H        0.89368    0.11088    0.19353    1.000
    H155     H        0.89487    0.21808    0.25809    1.000
    H156     H        0.86355    0.19223    0.21112    1.000
    H157     H        0.96295    0.26212    0.26887    1.000
    H158     H        0.53770    0.54709    0.76384    1.000
    H159     H        0.62339    0.63792    0.80933    1.000
    H160     H        0.53427    0.61026    0.74514    1.000
    H161     H        0.49638    0.51252    0.70199    1.000
    H162     H        0.58919    0.58607    0.74108    1.000
    H163     H        0.85764    0.62183    0.20116    1.000
    H164     H        0.89684    0.64082    0.24752    1.000
    H165     H        0.97040    0.73733    0.25534    1.000
    H166     H        0.02421    0.75222    0.30174    1.000
    H167     H        0.95090    0.76252    0.28406    1.000
    H168     H        0.85438    0.52971    0.25309    1.000
    H169     H        0.86675    0.60561    0.29597    1.000
    H170     H        0.72905    0.48694    0.20629    1.000
    H171     H        0.75526    0.53067    0.19931    1.000
    H172     H        0.75652    0.58063    0.23952    1.000
    Cu173    Cu       0.53388    0.32002    0.52704    1.000
    Cu174    Cu       0.03331    0.49727    0.52669    1.000
    Cu175    Cu       0.46677    0.18071    0.47343    1.000
    Cu176    Cu       0.03301    0.99703    0.52647    1.000
    H177     H        0.64142    0.26371    0.41104    1.000
    H178     H        0.23696    0.86213    0.09086    1.000
    H179     H        0.24150    0.92090    0.07612    1.000
    H180     H        0.15094    0.92861    0.02985    1.000
    H181     H        0.15907    0.06081    0.12750    1.000
    H182     H        0.24962    0.05309    0.17377    1.000
    H183     H        0.73046    0.25571    0.42258    1.000
    H184     H        0.85453    0.34953    0.47016    1.000
    H185     H        0.74285    0.34538    0.37431    1.000
    H186     H        0.61877    0.25156    0.32674    1.000
    H187     H        0.44543    0.06718    0.32577    1.000
    H188     H        0.43811    0.08996    0.37185    1.000
    H189     H        0.57639    0.32812    0.47314    1.000
    H190     H        0.58389    0.30546    0.42719    1.000
    H191     H        0.23430    0.30607    0.42643    1.000
    H192     H        0.35742    0.33037    0.47219    1.000
    H193     H        0.24275    0.09301    0.37344    1.000
    H194     H        0.11967    0.06889    0.32788    1.000
    H195     H        0.14014    0.26549    0.41261    1.000
    H196     H        0.26773    0.24272    0.57565    1.000
    H197     H        0.14362    0.15165    0.52919    1.000
    H198     H        0.25493    0.15888    0.62648    1.000
    H199     H        0.37902    0.24976    0.67277    1.000
    H200     H        0.36160    0.23352    0.58737    1.000
    H201     H        0.41731    0.19721    0.57449    1.000
    H202     H        0.42342    0.17219    0.52749    1.000
    H203     H        0.56362    0.40994    0.62822    1.000
    H204     H        0.55743    0.43492    0.67521    1.000
    H205     H        0.43629    0.88230    0.17384    1.000
    H206     H        0.41133    0.75876    0.12808    1.000
    H207     H        0.17426    0.64544    0.02970    1.000
    H208     H        0.19925    0.76893    0.07546    1.000
    H209     H        0.08017    0.26077    0.42496    1.000
    H210     H        0.07299    0.35137    0.47160    1.000
    H211     H        0.93895    0.34268    0.37376    1.000
    H212     H        0.94612    0.25210    0.32712    1.000
    C213     C        0.12040    0.09220    0.54760    1.000
    C214     C        0.00270    0.40670    0.45370    1.000
    C215     C        0.46769    0.09451    0.27510    1.000
    C216     C        0.53563    0.14057    0.29850    1.000
    C217     C        0.59748    0.20080    0.34690    1.000
    C218     C        0.59140    0.21500    0.37190    1.000
    C219     C        0.52349    0.16897    0.34850    1.000
    C220     C        0.46164    0.10872    0.30010    1.000
    C221     C        0.40896    0.03576    0.22680    1.000
    C222     C        0.39540    0.96766    0.20330    1.000
    C223     C        0.33419    0.90581    0.15490    1.000
    C224     C        0.28651    0.91211    0.13000    1.000
    C225     C        0.29999    0.98009    0.15340    1.000
    C226     C        0.36119    0.04193    0.20180    1.000
    C227     C        0.25026    0.98648    0.12730    1.000
    C228     C        0.22306    0.95216    0.08760    1.000
    C229     C        0.17297    0.95643    0.06200    1.000
    C230     C        0.15018    0.99510    0.07620    1.000
    C231     C        0.17748    0.02952    0.11600    1.000
    C232     C        0.22757    0.02525    0.14160    1.000
    C233     C        0.66806    0.24876    0.37220    1.000
    C234     C        0.73322    0.27578    0.41180    1.000
    C235     C        0.80185    0.32763    0.43810    1.000
    C236     C        0.80524    0.35236    0.42470    1.000
    C237     C        0.74009    0.32533    0.38510    1.000
    C238     C        0.67145    0.27347    0.35880    1.000
    C239     C        0.51499    0.18507    0.37400    1.000
    C240     C        0.47472    0.12552    0.35872    1.000
    C241     C        0.47066    0.13812    0.38420    1.000
    C242     C        0.50683    0.21021    0.42490    1.000
    C243     C        0.54713    0.26979    0.44020    1.000
    C244     C        0.55126    0.25728    0.41480    1.000
    C245     C        0.17045    0.18617    0.37470    1.000
    C246     C        0.23619    0.25845    0.41460    1.000
    C247     C        0.30430    0.27190    0.43990    1.000
    C248     C        0.30660    0.21292    0.42520    1.000
    C249     C        0.24086    0.14064    0.38530    1.000
    C250     C        0.17283    0.12731    0.36010    1.000
    C251     C        0.02190    0.19914    0.34870    1.000
    C252     C        0.09164    0.21648    0.37347    1.000
    C253     C        0.10152    0.17328    0.34990    1.000
    C254     C        0.04159    0.11267    0.30150    1.000
    C255     C        0.97176    0.09524    0.27664    1.000
    C256     C        0.96187    0.13843    0.30020    1.000
    C257     C        0.32997    0.25109    0.62670    1.000
    C258     C        0.26487    0.22395    0.58700    1.000
    C259     C        0.19620    0.17360    0.56130    1.000
    C260     C        0.19269    0.15045    0.57540    1.000
    C261     C        0.25779    0.17759    0.61510    1.000
    C262     C        0.32638    0.22786    0.64070    1.000
    C263     C        0.52750    0.40450    0.72330    1.000
    C264     C        0.53909    0.38859    0.70040    1.000
    C265     C        0.48003    0.32769    0.65200    1.000
    C266     C        0.40935    0.28275    0.62650    1.000
    C267     C        0.39776    0.29872    0.64940    1.000
    C268     C        0.45681    0.35963    0.69780    1.000
    C269     C        0.48698    0.31738    0.62730    1.000
    C270     C        0.44999    0.24477    0.58650    1.000
    C271     C        0.45340    0.23092    0.56050    1.000
    C272     C        0.49391    0.28977    0.57540    1.000
    C273     C        0.53091    0.36237    0.61620    1.000
    C274     C        0.52748    0.37622    0.64220    1.000
    C275     C        0.31905    0.83209    0.12700    1.000
    C276     C        0.37773    0.82933    0.14160    1.000
    C277     C        0.36392    0.76104    0.11630    1.000
    C278     C        0.29142    0.69550    0.07640    1.000
    C279     C        0.23284    0.69836    0.06190    1.000
    C280     C        0.24665    0.76665    0.08720    1.000
    C281     C        0.01345    0.25155    0.37350    1.000
    C282     C        0.04858    0.27906    0.41350    1.000
    C283     C        0.04461    0.32917    0.43930    1.000
    C284     C        0.00551    0.35177    0.42510    1.000
    C285     C        0.97050    0.32436    0.38520    1.000
    C286     C        0.97446    0.27426    0.35940    1.000
    C287     C        0.88250    0.40790    0.45400    1.000
    C288     C        0.50470    0.22950    0.45390    1.000
    C289     C        0.37760    0.22800    0.45190    1.000
    C290     C        0.50090    0.28230    0.54990    1.000
    C291     C        0.27590    0.62130    0.04770    1.000
    C292     C        0.09460    0.99960    0.04840    1.000
    C293     C        0.85400    0.08260    0.27280    1.000
    C294     C        0.79090    0.09090    0.25760    1.000
    C295     C        0.42230    0.41690    0.72620    1.000
    C296     C        0.42880    0.45160    0.76190    1.000
    C297     C        0.35340    0.09000    0.26540    1.000
    C298     C        0.26950    0.03210    0.22850    1.000
    C299     C        0.42500    0.15140    0.23550    1.000
    C300     C        0.45900    0.23320    0.27530    1.000
    O301     O        0.06875    0.08039    0.51730    1.000
    O302     O        0.12355    0.07323    0.56170    1.000
    O303     O        0.02966    0.42328    0.48610    1.000
    O304     O        0.96991    0.42735    0.43890    1.000
    O305     O        0.07029    0.02887    0.06010    1.000
    O306     O        0.37747    0.17263    0.44000    1.000
    O307     O        0.43490    0.28938    0.48540    1.000
    O308     O        0.52707    0.28893    0.48400    1.000
    O309     O        0.47121    0.17047    0.43860    1.000
    O310     O        0.21037    0.56363    0.01410    1.000
    O311     O        0.32912    0.62050    0.05930    1.000
    O312     O        0.52938    0.33046    0.56060    1.000
    O313     O        0.47242    0.21336    0.51660    1.000
    O314     O        0.07673    0.97201    0.01480    1.000
    O315     O        0.93358    0.42200    0.48460    1.000
    O316     O        0.87617    0.42739    0.43850    1.000
    O317     O        0.89670    0.12490    0.27810    1.000
    O318     O        0.45200    0.37760    0.72360    1.000
    O319     O        0.39310    0.06230    0.27400    1.000
    O320     O        0.37550    0.10830    0.22550    1.000
    H321     H        0.54049    0.12908    0.27828    1.000
    H322     H        0.43395    0.96258    0.22344    1.000
    H323     H        0.04954    0.07770    0.28242    1.000
    H324     H        0.59621    0.42496    0.72101    1.000
    H325     H        0.82907    0.02243    0.24497    1.000
    H326     H        0.88912    0.10632    0.30647    1.000
    H327     H        0.78192    0.10513    0.24191    1.000
    H328     H        0.80777    0.13645    0.28888    1.000
    H329     H        0.73788    0.03705    0.23113    1.000
    H330     H        0.45291    0.46230    0.73616    1.000
    H331     H        0.36208    0.37661    0.69067    1.000
    H332     H        0.38974    0.46573    0.75486    1.000
    H333     H        0.48748    0.50362    0.79801    1.000
    H334     H        0.41393    0.41081    0.75892    1.000
    H335     H        0.37817    0.14236    0.29884    1.000
    H336     H        0.35918    0.10316    0.25248    1.000
    H337     H        0.26267    0.02960    0.24466    1.000
    H338     H        0.24778    0.97579    0.19826    1.000
    H339     H        0.23748    0.04910    0.21594    1.000
    H340     H        0.47029    0.14562    0.24691    1.000
    H341     H        0.39439    0.13325    0.20403    1.000
    H342     H        0.51306    0.27095    0.29371    1.000
    H343     H        0.46933    0.24474    0.30069    1.000
    H344     H        0.41937    0.24348    0.26048    1.000
    Cu345    Cu       0.32002    0.53388    0.02704    1.000
    Cu346    Cu       0.49727    0.03331    0.02669    1.000
    Cu347    Cu       0.18071    0.46677    0.97343    1.000
    Cu348    Cu       0.99703    0.03301    0.02647    1.000
    H349     H        0.26371    0.64142    0.91104    1.000
    H350     H        0.86213    0.23696    0.59086    1.000
    H351     H        0.92090    0.24150    0.57612    1.000
    H352     H        0.92861    0.15094    0.52985    1.000
    H353     H        0.06081    0.15907    0.62750    1.000
    H354     H        0.05309    0.24962    0.67377    1.000
    H355     H        0.25571    0.73046    0.92258    1.000
    H356     H        0.34953    0.85453    0.97016    1.000
    H357     H        0.34538    0.74285    0.87431    1.000
    H358     H        0.25156    0.61877    0.82674    1.000
    H359     H        0.06718    0.44543    0.82577    1.000
    H360     H        0.08996    0.43811    0.87185    1.000
    H361     H        0.32812    0.57639    0.97314    1.000
    H362     H        0.30546    0.58389    0.92719    1.000
    H363     H        0.30607    0.23430    0.92643    1.000
    H364     H        0.33037    0.35742    0.97219    1.000
    H365     H        0.09301    0.24275    0.87344    1.000
    H366     H        0.06889    0.11967    0.82788    1.000
    H367     H        0.26549    0.14014    0.91261    1.000
    H368     H        0.24272    0.26773    0.07565    1.000
    H369     H        0.15165    0.14362    0.02919    1.000
    H370     H        0.15888    0.25493    0.12648    1.000
    H371     H        0.24976    0.37902    0.17277    1.000
    H372     H        0.23352    0.36160    0.08737    1.000
    H373     H        0.19721    0.41731    0.07449    1.000
    H374     H        0.17219    0.42342    0.02749    1.000
    H375     H        0.40994    0.56362    0.12822    1.000
    H376     H        0.43492    0.55743    0.17521    1.000
    H377     H        0.88230    0.43629    0.67384    1.000
    H378     H        0.75876    0.41133    0.62808    1.000
    H379     H        0.64544    0.17426    0.52970    1.000
    H380     H        0.76893    0.19925    0.57546    1.000
    H381     H        0.26077    0.08017    0.92496    1.000
    H382     H        0.35137    0.07299    0.97160    1.000
    H383     H        0.34268    0.93895    0.87376    1.000
    H384     H        0.25210    0.94612    0.82712    1.000
    C385     C        0.09220    0.12040    0.04760    1.000
    C386     C        0.40670    0.00270    0.95370    1.000
    C387     C        0.09451    0.46769    0.77510    1.000
    C388     C        0.14057    0.53563    0.79850    1.000
    C389     C        0.20080    0.59748    0.84690    1.000
    C390     C        0.21500    0.59140    0.87190    1.000
    C391     C        0.16897    0.52349    0.84850    1.000
    C392     C        0.10872    0.46164    0.80010    1.000
    C393     C        0.03576    0.40896    0.72680    1.000
    C394     C        0.96766    0.39540    0.70330    1.000
    C395     C        0.90581    0.33419    0.65490    1.000
    C396     C        0.91211    0.28651    0.63000    1.000
    C397     C        0.98009    0.29999    0.65340    1.000
    C398     C        0.04193    0.36119    0.70180    1.000
    C399     C        0.98648    0.25026    0.62730    1.000
    C400     C        0.95216    0.22306    0.58760    1.000
    C401     C        0.95643    0.17297    0.56200    1.000
    C402     C        0.99510    0.15018    0.57620    1.000
    C403     C        0.02952    0.17748    0.61600    1.000
    C404     C        0.02525    0.22757    0.64160    1.000
    C405     C        0.24876    0.66806    0.87220    1.000
    C406     C        0.27578    0.73322    0.91180    1.000
    C407     C        0.32763    0.80185    0.93810    1.000
    C408     C        0.35236    0.80524    0.92470    1.000
    C409     C        0.32533    0.74009    0.88510    1.000
    C410     C        0.27347    0.67145    0.85880    1.000
    C411     C        0.18507    0.51499    0.87400    1.000
    C412     C        0.12552    0.47472    0.85872    1.000
    C413     C        0.13812    0.47066    0.88420    1.000
    C414     C        0.21021    0.50683    0.92490    1.000
    C415     C        0.26979    0.54713    0.94020    1.000
    C416     C        0.25728    0.55126    0.91480    1.000
    C417     C        0.18617    0.17045    0.87470    1.000
    C418     C        0.25845    0.23619    0.91460    1.000
    C419     C        0.27190    0.30430    0.93990    1.000
    C420     C        0.21292    0.30660    0.92520    1.000
    C421     C        0.14064    0.24086    0.88530    1.000
    C422     C        0.12731    0.17283    0.86010    1.000
    C423     C        0.19914    0.02190    0.84870    1.000
    C424     C        0.21648    0.09164    0.87347    1.000
    C425     C        0.17328    0.10152    0.84990    1.000
    C426     C        0.11267    0.04159    0.80150    1.000
    C427     C        0.09524    0.97176    0.77664    1.000
    C428     C        0.13843    0.96187    0.80020    1.000
    C429     C        0.25109    0.32997    0.12670    1.000
    C430     C        0.22395    0.26487    0.08700    1.000
    C431     C        0.17360    0.19620    0.06130    1.000
    C432     C        0.15045    0.19269    0.07540    1.000
    C433     C        0.17759    0.25779    0.11510    1.000
    C434     C        0.22786    0.32638    0.14070    1.000
    C435     C        0.40450    0.52750    0.22330    1.000
    C436     C        0.38859    0.53909    0.20040    1.000
    C437     C        0.32769    0.48003    0.15200    1.000
    C438     C        0.28275    0.40935    0.12650    1.000
    C439     C        0.29872    0.39776    0.14940    1.000
    C440     C        0.35963    0.45681    0.19780    1.000
    C441     C        0.31738    0.48698    0.12730    1.000
    C442     C        0.24477    0.44999    0.08650    1.000
    C443     C        0.23092    0.45340    0.06050    1.000
    C444     C        0.28977    0.49391    0.07540    1.000
    C445     C        0.36237    0.53091    0.11620    1.000
    C446     C        0.37622    0.52748    0.14220    1.000
    C447     C        0.83209    0.31905    0.62700    1.000
    C448     C        0.82933    0.37773    0.64160    1.000
    C449     C        0.76104    0.36392    0.61630    1.000
    C450     C        0.69550    0.29142    0.57640    1.000
    C451     C        0.69836    0.23284    0.56190    1.000
    C452     C        0.76665    0.24665    0.58720    1.000
    C453     C        0.25155    0.01345    0.87350    1.000
    C454     C        0.27906    0.04858    0.91350    1.000
    C455     C        0.32917    0.04461    0.93930    1.000
    C456     C        0.35177    0.00551    0.92510    1.000
    C457     C        0.32436    0.97050    0.88520    1.000
    C458     C        0.27426    0.97446    0.85940    1.000
    C459     C        0.40790    0.88250    0.95400    1.000
    C460     C        0.22950    0.50470    0.95390    1.000
    C461     C        0.22800    0.37760    0.95190    1.000
    C462     C        0.28230    0.50090    0.04990    1.000
    C463     C        0.62130    0.27590    0.54770    1.000
    C464     C        0.99960    0.09460    0.54840    1.000
    C465     C        0.08260    0.85400    0.77280    1.000
    C466     C        0.09090    0.79090    0.75760    1.000
    C467     C        0.41690    0.42230    0.22620    1.000
    C468     C        0.45160    0.42880    0.26190    1.000
    C469     C        0.09000    0.35340    0.76540    1.000
    C470     C        0.03210    0.26950    0.72850    1.000
    C471     C        0.15140    0.42500    0.73550    1.000
    C472     C        0.23320    0.45900    0.77530    1.000
    O473     O        0.08039    0.06875    0.01730    1.000
    O474     O        0.07323    0.12355    0.06170    1.000
    O475     O        0.42328    0.02966    0.98610    1.000
    O476     O        0.42735    0.96991    0.93890    1.000
    O477     O        0.02887    0.07029    0.56010    1.000
    O478     O        0.17263    0.37747    0.94000    1.000
    O479     O        0.28938    0.43490    0.98540    1.000
    O480     O        0.28893    0.52707    0.98400    1.000
    O481     O        0.17047    0.47121    0.93860    1.000
    O482     O        0.56363    0.21037    0.51410    1.000
    O483     O        0.62050    0.32912    0.55930    1.000
    O484     O        0.33046    0.52938    0.06060    1.000
    O485     O        0.21336    0.47242    0.01660    1.000
    O486     O        0.97201    0.07673    0.51480    1.000
    O487     O        0.42200    0.93358    0.98460    1.000
    O488     O        0.42739    0.87617    0.93850    1.000
    O489     O        0.12490    0.89670    0.77810    1.000
    O490     O        0.37760    0.45200    0.22360    1.000
    O491     O        0.06230    0.39310    0.77400    1.000
    O492     O        0.10830    0.37550    0.72550    1.000
    H493     H        0.12908    0.54049    0.77828    1.000
    H494     H        0.96258    0.43395    0.72344    1.000
    H495     H        0.07770    0.04954    0.78242    1.000
    H496     H        0.42496    0.59621    0.22101    1.000
    H497     H        0.02243    0.82907    0.74497    1.000
    H498     H        0.10632    0.88912    0.80647    1.000
    H499     H        0.10513    0.78192    0.74191    1.000
    H500     H        0.13645    0.80777    0.78888    1.000
    H501     H        0.03705    0.73788    0.73113    1.000
    H502     H        0.46230    0.45291    0.23616    1.000
    H503     H        0.37661    0.36208    0.19067    1.000
    H504     H        0.46573    0.38974    0.25486    1.000
    H505     H        0.50362    0.48748    0.29801    1.000
    H506     H        0.41081    0.41393    0.25892    1.000
    H507     H        0.14236    0.37817    0.79884    1.000
    H508     H        0.10316    0.35918    0.75248    1.000
    H509     H        0.02960    0.26267    0.74466    1.000
    H510     H        0.97579    0.24778    0.69826    1.000
    H511     H        0.04910    0.23748    0.71594    1.000
    H512     H        0.14562    0.47029    0.74691    1.000
    H513     H        0.13325    0.39439    0.70403    1.000
    H514     H        0.27095    0.51306    0.79371    1.000
    H515     H        0.24474    0.46933    0.80069    1.000
    H516     H        0.24348    0.41937    0.76048    1.000
    Cu517    Cu       0.46612    0.67998    0.47296    1.000
    Cu518    Cu       0.96669    0.50273    0.47331    1.000
    Cu519    Cu       0.53323    0.81929    0.52657    1.000
    Cu520    Cu       0.96699    0.00297    0.47353    1.000
    H521     H        0.35858    0.73629    0.58896    1.000
    H522     H        0.76304    0.13787    0.90914    1.000
    H523     H        0.75850    0.07910    0.92388    1.000
    H524     H        0.84906    0.07139    0.97015    1.000
    H525     H        0.84093    0.93919    0.87250    1.000
    H526     H        0.75038    0.94691    0.82623    1.000
    H527     H        0.26954    0.74429    0.57742    1.000
    H528     H        0.14547    0.65047    0.52984    1.000
    H529     H        0.25715    0.65462    0.62569    1.000
    H530     H        0.38123    0.74844    0.67326    1.000
    H531     H        0.55457    0.93282    0.67423    1.000
    H532     H        0.56189    0.91004    0.62815    1.000
    H533     H        0.42361    0.67188    0.52686    1.000
    H534     H        0.41611    0.69454    0.57281    1.000
    H535     H        0.76570    0.69393    0.57357    1.000
    H536     H        0.64258    0.66963    0.52781    1.000
    H537     H        0.75725    0.90699    0.62656    1.000
    H538     H        0.88033    0.93111    0.67212    1.000
    H539     H        0.85986    0.73451    0.58739    1.000
    H540     H        0.73227    0.75728    0.42435    1.000
    H541     H        0.85638    0.84835    0.47081    1.000
    H542     H        0.74507    0.84112    0.37352    1.000
    H543     H        0.62098    0.75024    0.32723    1.000
    H544     H        0.63840    0.76648    0.41263    1.000
    H545     H        0.58269    0.80279    0.42551    1.000
    H546     H        0.57658    0.82781    0.47251    1.000
    H547     H        0.43638    0.59006    0.37178    1.000
    H548     H        0.44257    0.56508    0.32479    1.000
    H549     H        0.56371    0.11770    0.82616    1.000
    H550     H        0.58867    0.24124    0.87192    1.000
    H551     H        0.82574    0.35456    0.97030    1.000
    H552     H        0.80075    0.23107    0.92454    1.000
    H553     H        0.91983    0.73923    0.57504    1.000
    H554     H        0.92701    0.64863    0.52840    1.000
    H555     H        0.06105    0.65732    0.62624    1.000
    H556     H        0.05388    0.74790    0.67288    1.000
    C557     C        0.87960    0.90780    0.45240    1.000
    C558     C        0.99730    0.59330    0.54630    1.000
    C559     C        0.53231    0.90549    0.72490    1.000
    C560     C        0.46437    0.85943    0.70150    1.000
    C561     C        0.40252    0.79920    0.65310    1.000
    C562     C        0.40860    0.78500    0.62810    1.000
    C563     C        0.47651    0.83103    0.65150    1.000
    C564     C        0.53836    0.89128    0.69990    1.000
    C565     C        0.59104    0.96424    0.77320    1.000
    C566     C        0.60460    0.03234    0.79670    1.000
    C567     C        0.66581    0.09419    0.84510    1.000
    C568     C        0.71349    0.08789    0.87000    1.000
    C569     C        0.70001    0.01991    0.84660    1.000
    C570     C        0.63881    0.95807    0.79820    1.000
    C571     C        0.74974    0.01352    0.87270    1.000
    C572     C        0.77694    0.04784    0.91240    1.000
    C573     C        0.82703    0.04357    0.93800    1.000
    C574     C        0.84982    0.00490    0.92380    1.000
    C575     C        0.82252    0.97048    0.88400    1.000
    C576     C        0.77243    0.97475    0.85840    1.000
    C577     C        0.33194    0.75124    0.62780    1.000
    C578     C        0.26678    0.72422    0.58820    1.000
    C579     C        0.19815    0.67237    0.56190    1.000
    C580     C        0.19476    0.64764    0.57530    1.000
    C581     C        0.25991    0.67467    0.61490    1.000
    C582     C        0.32855    0.72653    0.64120    1.000
    C583     C        0.48501    0.81493    0.62600    1.000
    C584     C        0.52528    0.87448    0.64128    1.000
    C585     C        0.52934    0.86188    0.61580    1.000
    C586     C        0.49317    0.78979    0.57510    1.000
    C587     C        0.45287    0.73021    0.55980    1.000
    C588     C        0.44874    0.74272    0.58520    1.000
    C589     C        0.82955    0.81383    0.62530    1.000
    C590     C        0.76381    0.74155    0.58540    1.000
    C591     C        0.69570    0.72810    0.56010    1.000
    C592     C        0.69340    0.78708    0.57480    1.000
    C593     C        0.75914    0.85936    0.61470    1.000
    C594     C        0.82717    0.87269    0.63990    1.000
    C595     C        0.97810    0.80086    0.65130    1.000
    C596     C        0.90836    0.78352    0.62653    1.000
    C597     C        0.89848    0.82672    0.65010    1.000
    C598     C        0.95841    0.88733    0.69850    1.000
    C599     C        0.02824    0.90476    0.72336    1.000
    C600     C        0.03813    0.86157    0.69980    1.000
    C601     C        0.67003    0.74891    0.37330    1.000
    C602     C        0.73513    0.77605    0.41300    1.000
    C603     C        0.80380    0.82640    0.43870    1.000
    C604     C        0.80731    0.84955    0.42460    1.000
    C605     C        0.74221    0.82241    0.38490    1.000
    C606     C        0.67362    0.77214    0.35930    1.000
    C607     C        0.47250    0.59550    0.27670    1.000
    C608     C        0.46091    0.61141    0.29960    1.000
    C609     C        0.51997    0.67231    0.34800    1.000
    C610     C        0.59065    0.71725    0.37350    1.000
    C611     C        0.60224    0.70128    0.35060    1.000
    C612     C        0.54319    0.64037    0.30220    1.000
    C613     C        0.51302    0.68262    0.37270    1.000
    C614     C        0.55001    0.75523    0.41350    1.000
    C615     C        0.54660    0.76908    0.43950    1.000
    C616     C        0.50609    0.71023    0.42460    1.000
    C617     C        0.46909    0.63763    0.38380    1.000
    C618     C        0.47252    0.62378    0.35780    1.000
    C619     C        0.68095    0.16791    0.87300    1.000
    C620     C        0.62227    0.17067    0.85840    1.000
    C621     C        0.63608    0.23896    0.88370    1.000
    C622     C        0.70858    0.30450    0.92360    1.000
    C623     C        0.76716    0.30164    0.93810    1.000
    C624     C        0.75335    0.23335    0.91280    1.000
    C625     C        0.98655    0.74845    0.62650    1.000
    C626     C        0.95142    0.72094    0.58650    1.000
    C627     C        0.95539    0.67083    0.56070    1.000
    C628     C        0.99449    0.64823    0.57490    1.000
    C629     C        0.02950    0.67564    0.61480    1.000
    C630     C        0.02554    0.72574    0.64060    1.000
    C631     C        0.11750    0.59210    0.54600    1.000
    C632     C        0.49530    0.77050    0.54610    1.000
    C633     C        0.62240    0.77200    0.54810    1.000
    C634     C        0.49910    0.71770    0.45010    1.000
    C635     C        0.72410    0.37870    0.95230    1.000
    C636     C        0.90540    0.00040    0.95160    1.000
    C637     C        0.14600    0.91740    0.72720    1.000
    C638     C        0.20910    0.90910    0.74240    1.000
    C639     C        0.57770    0.58310    0.27380    1.000
    C640     C        0.57120    0.54840    0.23810    1.000
    C641     C        0.64660    0.91000    0.73460    1.000
    C642     C        0.73050    0.96790    0.77150    1.000
    C643     C        0.57500    0.84860    0.76450    1.000
    C644     C        0.54100    0.76680    0.72470    1.000
    O645     O        0.93125    0.91961    0.48270    1.000
    O646     O        0.87645    0.92677    0.43830    1.000
    O647     O        0.97034    0.57672    0.51390    1.000
    O648     O        0.03009    0.57265    0.56110    1.000
    O649     O        0.92971    0.97113    0.93990    1.000
    O650     O        0.62253    0.82737    0.56000    1.000
    O651     O        0.56510    0.71062    0.51460    1.000
    O652     O        0.47293    0.71107    0.51600    1.000
    O653     O        0.52879    0.82953    0.56140    1.000
    O654     O        0.78963    0.43637    0.98590    1.000
    O655     O        0.67088    0.37950    0.94070    1.000
    O656     O        0.47062    0.66954    0.43940    1.000
    O657     O        0.52758    0.78664    0.48340    1.000
    O658     O        0.92327    0.02799    0.98520    1.000
    O659     O        0.06642    0.57800    0.51540    1.000
    O660     O        0.12383    0.57261    0.56150    1.000
    O661     O        0.10330    0.87510    0.72190    1.000
    O662     O        0.54800    0.62240    0.27640    1.000
    O663     O        0.60690    0.93770    0.72600    1.000
    O664     O        0.62450    0.89170    0.77450    1.000
    H665     H        0.45951    0.87092    0.72172    1.000
    H666     H        0.56605    0.03742    0.77656    1.000
    H667     H        0.95046    0.92230    0.71758    1.000
    H668     H        0.40379    0.57504    0.27899    1.000
    H669     H        0.17093    0.97757    0.75503    1.000
    H670     H        0.11088    0.89368    0.69353    1.000
    H671     H        0.21808    0.89487    0.75809    1.000
    H672     H        0.19223    0.86355    0.71112    1.000
    H673     H        0.26212    0.96295    0.76887    1.000
    H674     H        0.54709    0.53770    0.26384    1.000
    H675     H        0.63792    0.62339    0.30933    1.000
    H676     H        0.61026    0.53427    0.24514    1.000
    H677     H        0.51252    0.49638    0.20199    1.000
    H678     H        0.58607    0.58919    0.24108    1.000
    H679     H        0.62183    0.85764    0.70116    1.000
    H680     H        0.64082    0.89684    0.74752    1.000
    H681     H        0.73733    0.97040    0.75534    1.000
    H682     H        0.75222    0.02421    0.80174    1.000
    H683     H        0.76252    0.95090    0.78406    1.000
    H684     H        0.52971    0.85438    0.75309    1.000
    H685     H        0.60561    0.86675    0.79597    1.000
    H686     H        0.48694    0.72905    0.70629    1.000
    H687     H        0.53067    0.75526    0.69931    1.000
    H688     H        0.58063    0.75652    0.73952    1.000
