data_functionalizedCrystal
_audit_creation_method	'EQeq! by Chris Wilmer'
_symmetry_space_group_name_H-M	'P1'
_symmetry_Int_Tables_number	1
_symmetry_cell_setting	triclinic
loop_
_symmetry_equiv_pos_as_xyz
  x,y,z
_cell_length_a	15.352
_cell_length_b	15.352
_cell_length_c	12.226
_cell_angle_alpha	90
_cell_angle_beta	90
_cell_angle_gamma	90
loop_
_atom_site_label
_atom_site_type_symbol
_atom_site_fract_x
_atom_site_fract_y
_atom_site_fract_z
_atom_site_charge
Mof_O 	O 	0.9071	0.2095	0.7564	-0.781
Mof_O 	O 	0.8887	0.1169	0.6142	-0.79
Mof_C 	C 	0.9606	0.0673	0.7688	-0.184
Mof_C 	C 	0.9628	0.069	0.8815	0.032
Mof_H 	H 	0.9389	0.1173	0.9197	0.035
Mof_C 	C 	0.9149	0.1365	0.7066	0.623
Mof_O 	O 	0.4071	0.7095	0.2564	-0.783
Mof_O 	O 	0.3887	0.6169	0.1142	-0.775
Mof_C 	C 	0.4606	0.5673	0.2688	-0.27
Mof_C 	C 	0.4628	0.569	0.3815	0.096
Mof_H 	H 	0.4389	0.6173	0.4197	-0.02
Mof_C 	C 	0.4149	0.6365	0.2066	0.627
Mof_O 	O 	0.5929	0.2905	0.2564	-0.785
Mof_O 	O 	0.6113	0.3831	0.1142	-0.774
Mof_C 	C 	0.5394	0.4327	0.2688	-0.27
Mof_C 	C 	0.5372	0.431	0.3815	0.095
Mof_H 	H 	0.5611	0.3827	0.4197	-0.02
Mof_C 	C 	0.5851	0.3635	0.2066	0.627
Mof_O 	O 	0.0929	0.7905	0.7564	-0.787
Mof_O 	O 	0.1113	0.8831	0.6142	-0.796
Mof_C 	C 	0.0394	0.9327	0.7688	-0.199
Mof_C 	C 	0.0372	0.931	0.8815	0.016
Mof_H 	H 	0.0611	0.8827	0.9197	0.035
Mof_C 	C 	0.0851	0.8635	0.7066	0.623
Mof_O 	O 	0.7905	0.4071	0.0064	-0.889
Mof_O 	O 	0.8831	0.3887	0.8642	-0.865
Mof_C 	C 	0.9327	0.4606	0.0188	-0.711
Mof_C 	C 	0.931	0.4628	0.1315	0.406
Mof_H 	H 	0.8827	0.4389	0.1697	-0.123
Mof_C 	C 	0.8635	0.4149	0.9566	0.961
Mof_O 	O 	0.2905	0.9071	0.5064	-0.795
Mof_O 	O 	0.3831	0.8887	0.3642	-0.805
Mof_C 	C 	0.4327	0.9606	0.5188	-0.302
Mof_C 	C 	0.431	0.9628	0.6315	0.172
Mof_H 	H 	0.3827	0.9389	0.6697	-0.044
Mof_C 	C 	0.3635	0.9149	0.4566	0.656
Mof_O 	O 	0.7095	0.0929	0.5064	-0.795
Mof_O 	O 	0.6169	0.1113	0.3642	-0.807
Mof_C 	C 	0.5673	0.0394	0.5188	-0.307
Mof_C 	C 	0.569	0.0372	0.6315	0.165
Mof_H 	H 	0.6173	0.0611	0.6697	-0.042
Mof_C 	C 	0.6365	0.0851	0.4566	0.657
Mof_O 	O 	0.2095	0.5929	0.0064	-0.888
Mof_O 	O 	0.1169	0.6113	0.8642	-0.872
Mof_C 	C 	0.0673	0.5394	0.0188	-0.723
Mof_C 	C 	0.069	0.5372	0.1315	0.384
Mof_H 	H 	0.1173	0.5611	0.1697	-0.119
Mof_C 	C 	0.1365	0.5851	0.9566	0.954
Mof_O 	O 	0.5929	0.2095	0.9936	-0.583
Mof_O 	O 	0.6113	0.1169	0.1358	-0.714
Mof_C 	C 	0.5394	0.0673	0.9812	0.225
Mof_C 	C 	0.5372	0.069	0.8685	-0.221
Mof_H 	H 	0.5611	0.1173	0.8303	0.091
Mof_C 	C 	0.5851	0.1365	0.0434	0.288
Mof_O 	O 	0.0929	0.7095	0.4936	-0.792
Mof_O 	O 	0.1113	0.6169	0.6358	-0.801
Mof_C 	C 	0.0394	0.5673	0.4812	-0.226
Mof_C 	C 	0.0372	0.569	0.3685	0.025
Mof_H 	H 	0.0611	0.6173	0.3303	0.002
Mof_C 	C 	0.0851	0.6365	0.5434	0.629
Mof_O 	O 	0.9071	0.2905	0.4936	-0.788
Mof_O 	O 	0.8887	0.3831	0.6358	-0.793
Mof_C 	C 	0.9606	0.4327	0.4812	-0.206
Mof_C 	C 	0.9628	0.431	0.3685	0.046
Mof_H 	H 	0.9389	0.3827	0.3303	0
Mof_C 	C 	0.9149	0.3635	0.5434	0.628
Mof_O 	O 	0.4071	0.7905	0.9936	-0.58
Mof_O 	O 	0.3887	0.8831	0.1358	-0.712
Mof_C 	C 	0.4606	0.9327	0.9812	0.233
Mof_C 	C 	0.4628	0.931	0.8685	-0.214
Mof_H 	H 	0.4389	0.8827	0.8303	0.091
Mof_C 	C 	0.4149	0.8635	0.0434	0.284
Mof_O 	O 	0.7095	0.4071	0.7436	-0.779
Mof_O 	O 	0.6169	0.3887	0.8858	-0.712
Mof_C 	C 	0.5673	0.4606	0.7312	-0.242
Mof_C 	C 	0.569	0.4628	0.6185	0.08
Mof_H 	H 	0.6173	0.4389	0.5803	-0.014
Mof_C 	C 	0.6365	0.4149	0.7934	0.62
Mof_O 	O 	0.2095	0.9071	0.2436	-0.799
Mof_O 	O 	0.1169	0.8887	0.3858	-0.808
Mof_C 	C 	0.0673	0.9606	0.2312	-0.31
Mof_C 	C 	0.069	0.9628	0.1185	0.178
Mof_H 	H 	0.1173	0.9389	0.0803	-0.073
Mof_C 	C 	0.1365	0.9149	0.2934	0.656
Mof_O 	O 	0.7905	0.0929	0.2436	-0.798
Mof_O 	O 	0.8831	0.1113	0.3858	-0.802
Mof_C 	C 	0.9327	0.0394	0.2312	-0.297
Mof_C 	C 	0.931	0.0372	0.1185	0.192
Mof_H 	H 	0.8827	0.0611	0.0803	-0.075
Mof_C 	C 	0.8635	0.0851	0.2934	0.655
Mof_O 	O 	0.2905	0.5929	0.7436	-0.781
Mof_O 	O 	0.3831	0.6113	0.8858	-0.712
Mof_C 	C 	0.4327	0.5394	0.7312	-0.243
Mof_C 	C 	0.431	0.5372	0.6185	0.08
Mof_H 	H 	0.3827	0.5611	0.5803	-0.015
Mof_C 	C 	0.3635	0.5851	0.7934	0.62
Mof_In	In	0.8124	0.3124	0.75	3.2
Mof_In	In	0.3124	0.8124	0.25	3.095
Mof_In	In	0.6876	0.1876	0.25	3.096
Mof_In	In	0.1876	0.6876	0.75	3.194
Mof_In	In	0.6876	0.3124	-0	2.797
Mof_In	In	0.1876	0.8124	0.5	3.143
Mof_In	In	0.8124	0.1876	0.5	3.147
Mof_In	In	0.3124	0.6876	-0	2.797
Mof_O 	O 	0.75	0.245	0.875	-1.218
Mof_H 	H 	0.75	0.1831	0.875	0.333
Mof_O 	O 	0.25	0.745	0.375	-1.282
Mof_H 	H 	0.25	0.6831	0.375	0.332
Mof_O 	O 	0.75	0.255	0.375	-1.283
Mof_H 	H 	0.75	0.3169	0.375	0.333
Mof_O 	O 	0.25	0.755	0.875	-1.217
Mof_H 	H 	0.25	0.8169	0.875	0.333
Mof_O 	O 	0.755	0.25	0.125	-1.238
Mof_H 	H 	0.8169	0.25	0.125	0.311
Mof_O 	O 	0.255	0.75	0.625	-1.297
Mof_H 	H 	0.3169	0.75	0.625	0.334
Mof_O 	O 	0.745	0.25	0.625	-1.299
Mof_H 	H 	0.6831	0.25	0.625	0.334
Mof_O 	O 	0.245	0.75	0.125	-1.237
Mof_H 	H 	0.1831	0.75	0.125	0.31
Mof_C 	C 	-2.25702e-33	-4.38032e-33	0.7111	0.095
Mof_H 	H 	1.89129e-33	0	0.6334	0.011
Mof_C 	C 	2.80798e-33	0	0.9404	0.075
Mof_C 	C 	0.5	0.5	0.2111	0.186
Mof_H 	H 	0.5	0.5	0.1334	-0.027
Mof_C 	C 	0.5	0.5	0.4404	-0.074
Mof_C 	C 	2.86979e-33	0.5	0.9611	0.712
Mof_H 	H 	-2.36442e-32	0.5	0.8834	-0.177
Mof_C 	C 	-4.90688e-33	0.5	0.1904	-0.318
Mof_C 	C 	0.5	0	0.4611	0.217
Mof_H 	H 	0.5	-2.19016e-33	0.3834	-0.029
Mof_C 	C 	0.5	-4.38032e-33	0.6904	-0.19
Mof_C 	C 	0.5	-2.7377e-34	0.0389	-0.403
Mof_H 	H 	0.5	-1.09508e-33	0.1166	0.169
Mof_C 	C 	0.5	0	0.8096	0.174
Mof_C 	C 	-1.15318e-32	0.5	0.5389	0.119
Mof_H 	H 	1.84113e-33	0.5	0.6166	0.011
Mof_C 	C 	-1.26571e-33	0.5	0.3096	0.02
Mof_C 	C 	0.5	0.5	0.7889	0.167
Mof_H 	H 	0.5	0.5	0.8666	0.017
Mof_C 	C 	0.5	0.5	0.5596	-0.057
Mof_C 	C 	8.62638e-34	0	0.2889	0.19
Mof_H 	H 	1.09465e-33	-2.19016e-33	0.3666	-0.022
Mof_C 	C 	1.77962e-34	0	0.0596	-0.26
_end
