# CIF file generated by openbabel 3.1.0, see https://openbabel.org
data_I
_chemical_name_common 'image0'
_cell_length_a 24.544
_cell_length_b 15.455
_cell_length_c 19.431
_cell_angle_alpha 90
_cell_angle_beta 117.551
_cell_angle_gamma 90
_space_group_name_H-M_alt 'P 1'
_space_group_name_Hall 'P 1'
loop_
    _symmetry_equiv_pos_as_xyz
    x,y,z
loop_
    _atom_site_label
    _atom_site_type_symbol
    _atom_site_fract_x
    _atom_site_fract_y
    _atom_site_fract_z
    _atom_site_occupancy
    Mn1      Mn       0.86132    0.83864    0.92139    1.000
    O1       O        0.81770    0.90320    0.81520    1.000
    O2       O        0.70700    0.23940    0.60750    1.000
    O3       O        0.82420    0.10580    0.48960    1.000
    O4       O        0.07120    0.24590    0.09670    1.000
    O5       O        0.06960    0.24730    0.98240    1.000
    C1       C        0.83090    0.89880    0.75980    1.000
    Mn2      Mn       0.88032    0.70501    0.78541    1.000
    O6       O        0.85730    0.83750    0.74770    1.000
    C2       C        0.81210    0.97310    0.70430    1.000
    O7       O        0.70380    0.18050    0.70960    1.000
    O8       O        0.90040    0.57380    0.82680    1.000
    O9       O        0.96510    0.69970    0.77020    1.000
    C3       C        0.83710    0.97700    0.65240    1.000
    C4       C        0.77540    0.04030    0.70690    1.000
    C5       C        0.93420    0.50870    0.83980    1.000
    H1       H        0.86320    0.93360    0.65200    1.000
    C6       C        0.82210    0.04780    0.60100    1.000
    C7       C        0.76060    0.11010    0.65440    1.000
    H2       H        0.76070    0.03930    0.74320    1.000
    O10      O        0.96110    0.48660    0.80200    1.000
    C8       C        0.94330    0.45220    0.90730    1.000
    O11      O        0.91640    0.42380    0.13490    1.000
    C9       C        0.84870    0.05030    0.54470    1.000
    C10      C        0.78270    0.11050    0.60250    1.000
    C11      C        0.72100    0.18270    0.65740    1.000
    C12      C        0.91040    0.47030    0.95030    1.000
    C13      C        0.98530    0.38840    0.93190    1.000
    O12      O        0.89440    0.00610    0.55820    1.000
    H3       H        0.77080    0.15490    0.56620    1.000
    H4       H        0.88020    0.51290    0.93310    1.000
    C14      C        0.92320    0.42480    0.01660    1.000
    H5       H        0.00570    0.37540    0.90300    1.000
    C15      C        0.99940    0.34060    0.99930    1.000
    C16      C        0.96930    0.36030    0.04160    1.000
    C17      C        0.89280    0.44630    0.06400    1.000
    C18      C        0.04920    0.27510    0.02680    1.000
    H6       H        0.97940    0.33080    0.08770    1.000
    O13      O        0.84100    0.48340    0.02940    1.000
    H7       H        0.02900    0.85710    0.73360    1.000
    H8       H        0.01130    0.85710    0.80140    1.000
    H9       H        0.95970    0.85710    0.71500    1.000
    Mn3      Mn       0.36132    0.33864    0.92139    1.000
    O14      O        0.31770    0.40320    0.81520    1.000
    O15      O        0.20700    0.73940    0.60750    1.000
    O16      O        0.32420    0.60580    0.48960    1.000
    O17      O        0.57120    0.74590    0.09670    1.000
    O18      O        0.56960    0.74730    0.98240    1.000
    C19      C        0.33090    0.39880    0.75980    1.000
    Mn4      Mn       0.38032    0.20501    0.78541    1.000
    O19      O        0.35730    0.33750    0.74770    1.000
    C20      C        0.31210    0.47310    0.70430    1.000
    O20      O        0.20380    0.68050    0.70960    1.000
    O21      O        0.40040    0.07380    0.82680    1.000
    O22      O        0.46510    0.19970    0.77020    1.000
    C21      C        0.33710    0.47700    0.65240    1.000
    C22      C        0.27540    0.54030    0.70690    1.000
    C23      C        0.43420    0.00870    0.83980    1.000
    H10      H        0.36320    0.43360    0.65200    1.000
    C24      C        0.32210    0.54780    0.60100    1.000
    C25      C        0.26060    0.61010    0.65440    1.000
    H11      H        0.26070    0.53930    0.74320    1.000
    O23      O        0.46110    0.98660    0.80200    1.000
    C26      C        0.44330    0.95220    0.90730    1.000
    O24      O        0.41640    0.92380    0.13490    1.000
    C27      C        0.34870    0.55030    0.54470    1.000
    C28      C        0.28270    0.61050    0.60250    1.000
    C29      C        0.22100    0.68270    0.65740    1.000
    C30      C        0.41040    0.97030    0.95030    1.000
    C31      C        0.48530    0.88840    0.93190    1.000
    O25      O        0.39440    0.50610    0.55820    1.000
    H12      H        0.27080    0.65490    0.56620    1.000
    H13      H        0.38020    0.01290    0.93310    1.000
    C32      C        0.42320    0.92480    0.01660    1.000
    H14      H        0.50570    0.87540    0.90300    1.000
    C33      C        0.49940    0.84060    0.99930    1.000
    C34      C        0.46930    0.86030    0.04160    1.000
    C35      C        0.39280    0.94630    0.06400    1.000
    C36      C        0.54920    0.77510    0.02680    1.000
    H15      H        0.47940    0.83080    0.08770    1.000
    O26      O        0.34100    0.98340    0.02940    1.000
    H16      H        0.52900    0.35710    0.73360    1.000
    H17      H        0.51130    0.35710    0.80140    1.000
    H18      H        0.45970    0.35710    0.71500    1.000
    Mn5      Mn       0.13868    0.83864    0.57861    1.000
    O27      O        0.18230    0.90320    0.68480    1.000
    O28      O        0.29300    0.23940    0.89250    1.000
    O29      O        0.17580    0.10580    0.01040    1.000
    O30      O        0.92880    0.24590    0.40330    1.000
    O31      O        0.93040    0.24730    0.51760    1.000
    C37      C        0.16910    0.89880    0.74020    1.000
    Mn6      Mn       0.11968    0.70501    0.71459    1.000
    O32      O        0.14270    0.83750    0.75230    1.000
    C38      C        0.18790    0.97310    0.79570    1.000
    O33      O        0.29620    0.18050    0.79040    1.000
    O34      O        0.09960    0.57380    0.67320    1.000
    O35      O        0.03490    0.69970    0.72980    1.000
    C39      C        0.16290    0.97700    0.84760    1.000
    C40      C        0.22460    0.04030    0.79310    1.000
    C41      C        0.06580    0.50870    0.66020    1.000
    H19      H        0.13680    0.93360    0.84800    1.000
    C42      C        0.17790    0.04780    0.89900    1.000
    C43      C        0.23940    0.11010    0.84560    1.000
    H20      H        0.23930    0.03930    0.75680    1.000
    O36      O        0.03890    0.48660    0.69800    1.000
    C44      C        0.05670    0.45220    0.59270    1.000
    O37      O        0.08360    0.42380    0.36510    1.000
    C45      C        0.15130    0.05030    0.95530    1.000
    C46      C        0.21730    0.11050    0.89750    1.000
    C47      C        0.27900    0.18270    0.84260    1.000
    C48      C        0.08960    0.47030    0.54970    1.000
    C49      C        0.01470    0.38840    0.56810    1.000
    O38      O        0.10560    0.00610    0.94180    1.000
    H21      H        0.22920    0.15490    0.93380    1.000
    H22      H        0.11980    0.51290    0.56690    1.000
    C50      C        0.07680    0.42480    0.48340    1.000
    H23      H        0.99430    0.37540    0.59700    1.000
    C51      C        0.00060    0.34060    0.50070    1.000
    C52      C        0.03070    0.36030    0.45840    1.000
    C53      C        0.10720    0.44630    0.43600    1.000
    C54      C        0.95080    0.27510    0.47320    1.000
    H24      H        0.02060    0.33080    0.41230    1.000
    O39      O        0.15900    0.48340    0.47060    1.000
    H25      H        0.97100    0.85710    0.76640    1.000
    H26      H        0.98870    0.85710    0.69860    1.000
    H27      H        0.04030    0.85710    0.78500    1.000
    Mn7      Mn       0.63868    0.33864    0.57861    1.000
    O40      O        0.68230    0.40320    0.68480    1.000
    O41      O        0.79300    0.73940    0.89250    1.000
    O42      O        0.67580    0.60580    0.01040    1.000
    O43      O        0.42880    0.74590    0.40330    1.000
    O44      O        0.43040    0.74730    0.51760    1.000
    C55      C        0.66910    0.39880    0.74020    1.000
    Mn8      Mn       0.61968    0.20501    0.71459    1.000
    O45      O        0.64270    0.33750    0.75230    1.000
    C56      C        0.68790    0.47310    0.79570    1.000
    O46      O        0.79620    0.68050    0.79040    1.000
    O47      O        0.59960    0.07380    0.67320    1.000
    O48      O        0.53490    0.19970    0.72980    1.000
    C57      C        0.66290    0.47700    0.84760    1.000
    C58      C        0.72460    0.54030    0.79310    1.000
    C59      C        0.56580    0.00870    0.66020    1.000
    H28      H        0.63680    0.43360    0.84800    1.000
    C60      C        0.67790    0.54780    0.89900    1.000
    C61      C        0.73940    0.61010    0.84560    1.000
    H29      H        0.73930    0.53930    0.75680    1.000
    O49      O        0.53890    0.98660    0.69800    1.000
    C62      C        0.55670    0.95220    0.59270    1.000
    O50      O        0.58360    0.92380    0.36510    1.000
    C63      C        0.65130    0.55030    0.95530    1.000
    C64      C        0.71730    0.61050    0.89750    1.000
    C65      C        0.77900    0.68270    0.84260    1.000
    C66      C        0.58960    0.97030    0.54970    1.000
    C67      C        0.51470    0.88840    0.56810    1.000
    O51      O        0.60560    0.50610    0.94180    1.000
    H30      H        0.72920    0.65490    0.93380    1.000
    H31      H        0.61980    0.01290    0.56690    1.000
    C68      C        0.57680    0.92480    0.48340    1.000
    H32      H        0.49430    0.87540    0.59700    1.000
    C69      C        0.50060    0.84060    0.50070    1.000
    C70      C        0.53070    0.86030    0.45840    1.000
    C71      C        0.60720    0.94630    0.43600    1.000
    C72      C        0.45080    0.77510    0.47320    1.000
    H33      H        0.52060    0.83080    0.41230    1.000
    O52      O        0.65900    0.98340    0.47060    1.000
    H34      H        0.47100    0.35710    0.76640    1.000
    H35      H        0.48870    0.35710    0.69860    1.000
    H36      H        0.54030    0.35710    0.78500    1.000
    Mn9      Mn       0.13868    0.16136    0.07861    1.000
    O53      O        0.18230    0.09680    0.18480    1.000
    O54      O        0.29300    0.76060    0.39250    1.000
    O55      O        0.17580    0.89420    0.51040    1.000
    O56      O        0.92880    0.75410    0.90330    1.000
    O57      O        0.93040    0.75270    0.01760    1.000
    C73      C        0.16910    0.10120    0.24020    1.000
    Mn10     Mn       0.11968    0.29499    0.21459    1.000
    O58      O        0.14270    0.16250    0.25230    1.000
    C74      C        0.18790    0.02690    0.29570    1.000
    O59      O        0.29620    0.81950    0.29040    1.000
    O60      O        0.09960    0.42620    0.17320    1.000
    O61      O        0.03490    0.30030    0.22980    1.000
    C75      C        0.16290    0.02300    0.34760    1.000
    C76      C        0.22460    0.95970    0.29310    1.000
    C77      C        0.06580    0.49130    0.16020    1.000
    H37      H        0.13680    0.06640    0.34800    1.000
    C78      C        0.17790    0.95220    0.39900    1.000
    C79      C        0.23940    0.88990    0.34560    1.000
    H38      H        0.23930    0.96070    0.25680    1.000
    O62      O        0.03890    0.51340    0.19800    1.000
    C80      C        0.05670    0.54780    0.09270    1.000
    O63      O        0.08360    0.57620    0.86510    1.000
    C81      C        0.15130    0.94970    0.45530    1.000
    C82      C        0.21730    0.88950    0.39750    1.000
    C83      C        0.27900    0.81730    0.34260    1.000
    C84      C        0.08960    0.52970    0.04970    1.000
    C85      C        0.01470    0.61160    0.06810    1.000
    O64      O        0.10560    0.99390    0.44180    1.000
    H39      H        0.22920    0.84510    0.43380    1.000
    H40      H        0.11980    0.48710    0.06690    1.000
    C86      C        0.07680    0.57520    0.98340    1.000
    H41      H        0.99430    0.62460    0.09700    1.000
    C87      C        0.00060    0.65940    0.00070    1.000
    C88      C        0.03070    0.63970    0.95840    1.000
    C89      C        0.10720    0.55370    0.93600    1.000
    C90      C        0.95080    0.72490    0.97320    1.000
    H42      H        0.02060    0.66920    0.91230    1.000
    O65      O        0.15900    0.51660    0.97060    1.000
    H43      H        0.97100    0.14290    0.26640    1.000
    H44      H        0.98870    0.14290    0.19860    1.000
    H45      H        0.04030    0.14290    0.28500    1.000
    Mn11     Mn       0.63868    0.66136    0.07861    1.000
    O66      O        0.68230    0.59680    0.18480    1.000
    O67      O        0.79300    0.26060    0.39250    1.000
    O68      O        0.67580    0.39420    0.51040    1.000
    O69      O        0.42880    0.25410    0.90330    1.000
    O70      O        0.43040    0.25270    0.01760    1.000
    C91      C        0.66910    0.60120    0.24020    1.000
    Mn12     Mn       0.61968    0.79499    0.21459    1.000
    O71      O        0.64270    0.66250    0.25230    1.000
    C92      C        0.68790    0.52690    0.29570    1.000
    O72      O        0.79620    0.31950    0.29040    1.000
    O73      O        0.59960    0.92620    0.17320    1.000
    O74      O        0.53490    0.80030    0.22980    1.000
    C93      C        0.66290    0.52300    0.34760    1.000
    C94      C        0.72460    0.45970    0.29310    1.000
    C95      C        0.56580    0.99130    0.16020    1.000
    H46      H        0.63680    0.56640    0.34800    1.000
    C96      C        0.67790    0.45220    0.39900    1.000
    C97      C        0.73940    0.38990    0.34560    1.000
    H47      H        0.73930    0.46070    0.25680    1.000
    O75      O        0.53890    0.01340    0.19800    1.000
    C98      C        0.55670    0.04780    0.09270    1.000
    O76      O        0.58360    0.07620    0.86510    1.000
    C99      C        0.65130    0.44970    0.45530    1.000
    C100     C        0.71730    0.38950    0.39750    1.000
    C101     C        0.77900    0.31730    0.34260    1.000
    C102     C        0.58960    0.02970    0.04970    1.000
    C103     C        0.51470    0.11160    0.06810    1.000
    O77      O        0.60560    0.49390    0.44180    1.000
    H48      H        0.72920    0.34510    0.43380    1.000
    H49      H        0.61980    0.98710    0.06690    1.000
    C104     C        0.57680    0.07520    0.98340    1.000
    H50      H        0.49430    0.12460    0.09700    1.000
    C105     C        0.50060    0.15940    0.00070    1.000
    C106     C        0.53070    0.13970    0.95840    1.000
    C107     C        0.60720    0.05370    0.93600    1.000
    C108     C        0.45080    0.22490    0.97320    1.000
    H51      H        0.52060    0.16920    0.91230    1.000
    O78      O        0.65900    0.01660    0.97060    1.000
    H52      H        0.47100    0.64290    0.26640    1.000
    H53      H        0.48870    0.64290    0.19860    1.000
    H54      H        0.54030    0.64290    0.28500    1.000
    Mn13     Mn       0.86132    0.16136    0.42139    1.000
    O79      O        0.81770    0.09680    0.31520    1.000
    O80      O        0.70700    0.76060    0.10750    1.000
    O81      O        0.82420    0.89420    0.98960    1.000
    O82      O        0.07120    0.75410    0.59670    1.000
    O83      O        0.06960    0.75270    0.48240    1.000
    C109     C        0.83090    0.10120    0.25980    1.000
    Mn14     Mn       0.88032    0.29499    0.28541    1.000
    O84      O        0.85730    0.16250    0.24770    1.000
    C110     C        0.81210    0.02690    0.20430    1.000
    O85      O        0.70380    0.81950    0.20960    1.000
    O86      O        0.90040    0.42620    0.32680    1.000
    O87      O        0.96510    0.30030    0.27020    1.000
    C111     C        0.83710    0.02300    0.15240    1.000
    C112     C        0.77540    0.95970    0.20690    1.000
    C113     C        0.93420    0.49130    0.33980    1.000
    H55      H        0.86320    0.06640    0.15200    1.000
    C114     C        0.82210    0.95220    0.10100    1.000
    C115     C        0.76060    0.88990    0.15440    1.000
    H56      H        0.76070    0.96070    0.24320    1.000
    O88      O        0.96110    0.51340    0.30200    1.000
    C116     C        0.94330    0.54780    0.40730    1.000
    O89      O        0.91640    0.57620    0.63490    1.000
    C117     C        0.84870    0.94970    0.04470    1.000
    C118     C        0.78270    0.88950    0.10250    1.000
    C119     C        0.72100    0.81730    0.15740    1.000
    C120     C        0.91040    0.52970    0.45030    1.000
    C121     C        0.98530    0.61160    0.43190    1.000
    O90      O        0.89440    0.99390    0.05820    1.000
    H57      H        0.77080    0.84510    0.06620    1.000
    H58      H        0.88020    0.48710    0.43310    1.000
    C122     C        0.92320    0.57520    0.51660    1.000
    H59      H        0.00570    0.62460    0.40300    1.000
    C123     C        0.99940    0.65940    0.49930    1.000
    C124     C        0.96930    0.63970    0.54160    1.000
    C125     C        0.89280    0.55370    0.56400    1.000
    C126     C        0.04920    0.72490    0.52680    1.000
    H60      H        0.97940    0.66920    0.58770    1.000
    O91      O        0.84100    0.51660    0.52940    1.000
    H61      H        0.02900    0.14290    0.23360    1.000
    H62      H        0.01130    0.14290    0.30140    1.000
    H63      H        0.95970    0.14290    0.21500    1.000
    Mn15     Mn       0.36132    0.66136    0.42139    1.000
    O92      O        0.31770    0.59680    0.31520    1.000
    O93      O        0.20700    0.26060    0.10750    1.000
    O94      O        0.32420    0.39420    0.98960    1.000
    O95      O        0.57120    0.25410    0.59670    1.000
    O96      O        0.56960    0.25270    0.48240    1.000
    C127     C        0.33090    0.60120    0.25980    1.000
    Mn16     Mn       0.38032    0.79499    0.28541    1.000
    O97      O        0.35730    0.66250    0.24770    1.000
    C128     C        0.31210    0.52690    0.20430    1.000
    O98      O        0.20380    0.31950    0.20960    1.000
    O99      O        0.40040    0.92620    0.32680    1.000
    O100     O        0.46510    0.80030    0.27020    1.000
    C129     C        0.33710    0.52300    0.15240    1.000
    C130     C        0.27540    0.45970    0.20690    1.000
    C131     C        0.43420    0.99130    0.33980    1.000
    H64      H        0.36320    0.56640    0.15200    1.000
    C132     C        0.32210    0.45220    0.10100    1.000
    C133     C        0.26060    0.38990    0.15440    1.000
    H65      H        0.26070    0.46070    0.24320    1.000
    O101     O        0.46110    0.01340    0.30200    1.000
    C134     C        0.44330    0.04780    0.40730    1.000
    O102     O        0.41640    0.07620    0.63490    1.000
    C135     C        0.34870    0.44970    0.04470    1.000
    C136     C        0.28270    0.38950    0.10250    1.000
    C137     C        0.22100    0.31730    0.15740    1.000
    C138     C        0.41040    0.02970    0.45030    1.000
    C139     C        0.48530    0.11160    0.43190    1.000
    O103     O        0.39440    0.49390    0.05820    1.000
    H66      H        0.27080    0.34510    0.06620    1.000
    H67      H        0.38020    0.98710    0.43310    1.000
    C140     C        0.42320    0.07520    0.51660    1.000
    H68      H        0.50570    0.12460    0.40300    1.000
    C141     C        0.49940    0.15940    0.49930    1.000
    C142     C        0.46930    0.13970    0.54160    1.000
    C143     C        0.39280    0.05370    0.56400    1.000
    C144     C        0.54920    0.22490    0.52680    1.000
    H69      H        0.47940    0.16920    0.58770    1.000
    O104     O        0.34100    0.01660    0.52940    1.000
    H70      H        0.52900    0.64290    0.23360    1.000
    H71      H        0.51130    0.64290    0.30140    1.000
    H72      H        0.45970    0.64290    0.21500    1.000
    Mn17     Mn       0.00000    0.56802    0.75000    1.000
    C145     C        0.00000    0.74020    0.75000    1.000
    C146     C        0.00000    0.83640    0.75000    1.000
    Mn18     Mn       0.50000    0.06802    0.75000    1.000
    C147     C        0.50000    0.24020    0.75000    1.000
    C148     C        0.50000    0.33640    0.75000    1.000
    Mn19     Mn       0.00000    0.43198    0.25000    1.000
    C149     C        0.00000    0.25980    0.25000    1.000
    C150     C        0.00000    0.16360    0.25000    1.000
    Mn20     Mn       0.50000    0.93198    0.25000    1.000
    C151     C        0.50000    0.75980    0.25000    1.000
    C152     C        0.50000    0.66360    0.25000    1.000
