data_functionalizedCrystal
_audit_creation_method	'EQeq! by Chris Wilmer'
_symmetry_space_group_name_H-M	'P1'
_symmetry_Int_Tables_number	1
_symmetry_cell_setting	triclinic
loop_
_symmetry_equiv_pos_as_xyz
  x,y,z
_cell_length_a	16.9881
_cell_length_b	16.9881
_cell_length_c	16.9881
_cell_angle_alpha	63.2673
_cell_angle_beta	77.1611
_cell_angle_gamma	109.145
loop_
_atom_site_label
_atom_site_type_symbol
_atom_site_fract_x
_atom_site_fract_y
_atom_site_fract_z
_atom_site_charge
Mof_Co	Co	0.14104	0.02741	0.56291	1.175
Mof_Co	Co	0.18738	0.14192	0.33364	1.166
Mof_Co	Co	0.13789	0.89665	0.44126	1.155
Mof_Co	Co	0.85896	0.29605	0.11363	1.164
Mof_Co	Co	0.81262	0.47898	0.04546	1.159
Mof_Co	Co	0.86211	0.42085	0.24124	1.157
Mof_Co	Co	0.59032	0.52741	0.61363	1.171
Mof_Co	Co	0.47556	0.64192	0.54546	1.167
Mof_Co	Co	0.33791	0.39665	0.74124	1.158
Mof_Co	Co	0.40968	0.79605	0.06291	1.165
Mof_Co	Co	0.52444	0.97898	0.83364	1.163
Mof_Co	Co	0.66209	0.92085	0.94126	1.165
Mof_H 	H 	0.9731	0.2007	0.3822	0.041
Mof_H 	H 	0.8589	0.9882	0.6731	0.021
Mof_H 	H 	0.7126	0.079	0.2588	0.296
Mof_H 	H 	0.7119	0.1137	0.5554	0.047
Mof_H 	H 	0.9649	0.1007	0.2794	0.017
Mof_H 	H 	0.8534	0.8099	0.4881	0.025
Mof_H 	H 	0.6925	0.9308	0.4037	0.019
Mof_H 	H 	0.141	0.967	0.504	0.059
Mof_H 	H 	0.0269	0.6447	0.7724	0.038
Mof_H 	H 	0.1411	0.468	0.8707	0.036
Mof_H 	H 	0.2874	0.0286	0.6336	0.317
Mof_H 	H 	0.2881	0.7327	0.5982	0.041
Mof_H 	H 	0.0351	0.7557	0.8642	0.019
Mof_H 	H 	0.1466	0.6585	0.0435	-0.022
Mof_H 	H 	0.3075	0.9038	0.7617	0.006
Mof_H 	H 	0.859	0.355	0.174	0.072
Mof_H 	H 	0.5829	0.7007	0.2724	0.037
Mof_H 	H 	0.6613	0.4882	0.3707	0.033
Mof_H 	H 	0.3378	0.579	0.1336	0.294
Mof_H 	H 	0.6691	0.6137	0.0982	0.037
Mof_H 	H 	0.3801	0.6007	0.3642	0.019
Mof_H 	H 	0.298	0.3099	0.5435	0.024
Mof_H 	H 	0.3345	0.4308	0.2617	0.014
Mof_H 	H 	0.471	0.467	0.674	0.074
Mof_H 	H 	0.4171	0.1447	0.8822	0.032
Mof_H 	H 	0.3387	0.968	0.1731	0.016
Mof_H 	H 	0.6622	0.5286	0.7588	0.297
Mof_H 	H 	0.3309	0.2327	0.0554	0.045
Mof_H 	H 	0.6199	0.2557	0.7794	0.028
Mof_H 	H 	0.702	0.1585	0.9881	0.045
Mof_H 	H 	0.6655	0.4038	0.9037	0.035
Mof_H 	H 	0.529	0.855	0.004	0.036
Mof_C 	C 	0.8423	0.2584	0.3761	0.289
Mof_C 	C 	0.8441	0.1743	0.457	-0.093
Mof_C 	C 	0.9239	0.1615	0.4444	0.055
Mof_C 	C 	0.7782	0.0457	0.6329	-0.129
Mof_C 	C 	0.8543	0.0338	0.6199	0.097
Mof_C 	C 	0.9286	0.0935	0.5215	-0.124
Mof_C 	C 	0.0154	0.0816	0.5058	0.411
Mof_C 	C 	0.7673	0.1127	0.5482	0.045
Mof_C 	C 	0.8273	0.0265	0.3272	-0.157
Mof_C 	C 	0.9126	0.037	0.3228	0.122
Mof_C 	C 	0.9227	0.9558	0.3807	-0.177
Mof_C 	C 	0.8471	0.8636	0.4463	0.092
Mof_C 	C 	0.7544	0.8472	0.4522	-0.153
Mof_C 	C 	0.7503	0.9353	0.3948	0.08
Mof_C 	C 	0.8119	0.1155	0.2644	0.439
Mof_C 	C 	0.016	0.966	0.3786	0.413
Mof_C 	C 	0.7027	0.9941	0.7278	0.389
Mof_C 	C 	0.6742	0.7469	0.5183	0.396
Mof_C 	C 	0.1577	0.7816	0.5839	0.29
Mof_C 	C 	0.1559	0.6989	0.6698	-0.096
Mof_C 	C 	0.0761	0.6317	0.7624	0.057
Mof_C 	C 	0.2218	0.5889	0.7325	-0.14
Mof_C 	C 	0.1457	0.5258	0.8205	0.077
Mof_C 	C 	0.0714	0.5499	0.8351	-0.132
Mof_C 	C 	0.9846	0.4788	0.9338	0.42
Mof_C 	C 	0.2327	0.6845	0.6546	0.048
Mof_C 	C 	0.1727	0.8455	0.8008	-0.189
Mof_C 	C 	0.0874	0.7646	0.8756	0.126
Mof_C 	C 	0.0773	0.6966	0.9669	-0.179
Mof_C 	C 	0.1529	0.7066	0.9835	0.167
Mof_C 	C 	0.2456	0.7934	0.9072	-0.193
Mof_C 	C 	0.2497	0.8549	0.815	0.126
Mof_C 	C 	0.1881	0.9237	0.6964	0.455
Mof_C 	C 	0.984	0.6054	0.05	0.415
Mof_C 	C 	0.2973	0.5695	0.7086	0.403
Mof_C 	C 	0.3258	0.8075	0.9273	0.449
Mof_C 	C 	0.6345	0.7584	0.0839	0.292
Mof_C 	C 	0.6313	0.6743	0.1698	-0.101
Mof_C 	C 	0.6059	0.6615	0.2624	0.057
Mof_C 	C 	0.6786	0.5457	0.2325	-0.144
Mof_C 	C 	0.6537	0.5338	0.3205	0.077
Mof_C 	C 	0.615	0.5935	0.3351	-0.131
Mof_C 	C 	0.5874	0.5816	0.4338	0.416
Mof_C 	C 	0.6609	0.6127	0.1546	0.049
Mof_C 	C 	0.3537	0.5265	0.3008	-0.173
Mof_C 	C 	0.3598	0.537	0.3756	0.113
Mof_C 	C 	0.3365	0.4558	0.4669	-0.171
Mof_C 	C 	0.3099	0.3636	0.4835	0.095
Mof_C 	C 	0.2994	0.3472	0.4072	-0.158
Mof_C 	C 	0.3301	0.4353	0.315	0.102
Mof_C 	C 	0.3799	0.6155	0.1964	0.443
Mof_C 	C 	0.3446	0.466	0.55	0.429
Mof_C 	C 	0.7219	0.4941	0.2086	0.404
Mof_C 	C 	0.2652	0.2469	0.4273	0.398
Mof_C 	C 	0.3655	0.2816	0.8761	0.284
Mof_C 	C 	0.3687	0.1989	0.957	-0.067
Mof_C 	C 	0.3941	0.1317	0.9444	0.095
Mof_C 	C 	0.3214	0.0889	0.1329	-0.15
Mof_C 	C 	0.3463	0.0258	0.1199	0.104
Mof_C 	C 	0.385	0.0499	0.0215	-0.162
Mof_C 	C 	0.4126	0.9788	0.0058	0.378
Mof_C 	C 	0.3391	0.1845	0.0482	0.01
Mof_C 	C 	0.6463	0.3455	0.8272	-0.15
Mof_C 	C 	0.6402	0.2646	0.8228	0.095
Mof_C 	C 	0.6635	0.1966	0.8807	-0.146
Mof_C 	C 	0.6901	0.2066	0.9463	0.069
Mof_C 	C 	0.7006	0.2934	0.9522	-0.102
Mof_C 	C 	0.6699	0.3549	0.8948	0.073
Mof_C 	C 	0.6201	0.4237	0.7644	0.435
Mof_C 	C 	0.6554	0.1054	0.8786	0.421
Mof_C 	C 	0.2781	0.0695	0.2278	0.419
Mof_C 	C 	0.7348	0.3075	0.0183	0.353
Mof_O 	O 	0.7719	0.2678	0.3871	-0.347
Mof_O 	O 	0.9168	0.3227	0.2937	-0.391
Mof_O 	O 	0.0787	0.1408	0.4215	-0.469
Mof_O 	O 	0.0168	0.0211	0.5789	-0.453
Mof_O 	O 	0.8917	0.1934	0.1891	-0.443
Mof_O 	O 	0.739	0.1096	0.2794	-0.604
Mof_O 	O 	0.02	0.8979	0.4397	-0.492
Mof_O 	O 	0.0848	0.0549	0.3153	-0.447
Mof_O 	O 	0.5974	0.7451	0.5359	-0.418
Mof_O 	O 	0.6198	0.976	0.7388	-0.421
Mof_O 	O 	0.1831	0.022	0.4513	-0.631
Mof_O 	O 	0.7226	0.9661	0.7979	-0.44
Mof_O 	O 	0.6867	0.6713	0.5504	-0.451
Mof_O 	O 	0.2281	0.841	0.5041	-0.351
Mof_O 	O 	0.0832	0.7895	0.5941	-0.391
Mof_O 	O 	0.9213	0.4998	0.9379	-0.45
Mof_O 	O 	0.9832	0.4043	0.9957	-0.439
Mof_O 	O 	0.1083	0.9192	0.6983	-0.445
Mof_O 	O 	0.261	0.9816	0.6294	-0.634
Mof_O 	O 	0.98	0.5403	0.1221	-0.493
Mof_O 	O 	0.9152	0.5999	0.0299	-0.462
Mof_O 	O 	0.4026	0.8667	0.8523	-0.429
Mof_O 	O 	0.3802	0.6414	0.6438	-0.42
Mof_O 	O 	0.8169	0.3656	0.1611	-0.651
Mof_O 	O 	0.2774	0.4795	0.7565	-0.442
Mof_O 	O 	0.3133	0.7629	0.0154	-0.487
Mof_O 	O 	0.6549	0.7678	0.0041	-0.365
Mof_O 	O 	0.6164	0.8227	0.0941	-0.402
Mof_O 	O 	0.5623	0.6408	0.4379	-0.47
Mof_O 	O 	0.6	0.5211	0.4957	-0.46
Mof_O 	O 	0.3825	0.6934	0.1983	-0.44
Mof_O 	O 	0.389	0.6096	0.1294	-0.612
Mof_O 	O 	0.3376	0.3979	0.6221	-0.49
Mof_O 	O 	0.3702	0.5549	0.5299	-0.454
Mof_O 	O 	0.281	0.2451	0.3523	-0.419
Mof_O 	O 	0.7148	0.476	0.1438	-0.424
Mof_O 	O 	0.4733	0.522	0.6611	-0.648
Mof_O 	O 	0.764	0.4661	0.2565	-0.445
Mof_O 	O 	0.2217	0.1713	0.5154	-0.45
Mof_O 	O 	0.3451	0.341	0.8871	-0.337
Mof_O 	O 	0.3836	0.2895	0.7937	-0.386
Mof_O 	O 	0.4377	0.9998	0.9215	-0.447
Mof_O 	O 	0.4	0.9043	0.0789	-0.458
Mof_O 	O 	0.6175	0.4192	0.6891	-0.436
Mof_O 	O 	0.611	0.4816	0.7794	-0.601
Mof_O 	O 	0.6624	0.0403	0.9397	-0.469
Mof_O 	O 	0.6298	0.0999	0.8153	-0.442
Mof_O 	O 	0.719	0.3667	0.0359	-0.419
Mof_O 	O 	0.2852	0.1414	0.2388	-0.426
Mof_O 	O 	0.5267	0.8656	0.9513	-0.605
Mof_O 	O 	0.236	0.9795	0.2979	-0.459
Mof_O 	O 	0.7783	0.2629	0.0504	-0.453
_end
