data_functionalizedCrystal
_audit_creation_method	'EQeq! by Chris Wilmer'
_symmetry_space_group_name_H-M	'P1'
_symmetry_Int_Tables_number	1
_symmetry_cell_setting	triclinic
loop_
_symmetry_equiv_pos_as_xyz
  x,y,z
_cell_length_a	33.41
_cell_length_b	26.932
_cell_length_c	12.365
_cell_angle_alpha	90
_cell_angle_beta	91.533
_cell_angle_gamma	90
loop_
_atom_site_label
_atom_site_type_symbol
_atom_site_fract_x
_atom_site_fract_y
_atom_site_fract_z
_atom_site_charge
Mof_Ag	Ag	0.63857	0.28053	0.22189	0.554
Mof_Ag	Ag	0.14268	0.27752	0.74792	0.562
Mof_Co	Co	0.38671	0.43014	0.4682	1.175
Mof_Co	Co	0.88616	0.43224	0.51814	1.171
Mof_C 	C 	0.45542	0.4695	0.5936	0.032
Mof_H 	H 	0.439	0.4919	0.6318	0.01
Mof_C 	C 	0.49633	0.4654	0.6098	-0.042
Mof_H 	H 	0.5123	0.4839	0.6602	0.046
Mof_C 	C 	0.50974	0.4299	0.5399	-0.097
Mof_H 	H 	0.5365	0.4188	0.5328	0.066
Mof_C 	C 	0.47491	0.413	0.4797	0.11
Mof_C 	C 	0.4723	0.3738	0.4049	-0.153
Mof_C 	C 	0.43742	0.3539	0.3593	0.111
Mof_C 	C 	0.433	0.3128	0.2877	-0.1
Mof_H 	H 	0.454	0.294	0.2571	0.062
Mof_C 	C 	0.3933	0.3057	0.2715	-0.048
Mof_H 	H 	0.3807	0.2805	0.2291	0.043
Mof_C 	C 	0.3738	0.3442	0.3319	0.041
Mof_H 	H 	0.3456	0.3485	0.3337	0.006
Mof_C 	C 	0.5107	0.3532	0.365	0.139
Mof_C 	C 	0.52202	0.3038	0.3877	-0.19
Mof_H 	H 	0.5058	0.2832	0.4309	0.089
Mof_C 	C 	0.55729	0.2859	0.3456	0.104
Mof_H 	H 	0.5648	0.2525	0.3606	-0.03
Mof_C 	C 	0.53667	0.3818	0.3043	-0.191
Mof_H 	H 	0.5307	0.4156	0.2884	0.09
Mof_C 	C 	0.571	0.3602	0.2679	0.101
Mof_H 	H 	0.5888	0.38	0.2275	-0.024
Mof_C 	C 	0.6433	0.9834	0.8421	0.026
Mof_H 	H 	0.6442	0.9537	0.8009	0.012
Mof_C 	C 	0.6564	0.0301	0.8034	-0.04
Mof_H 	H 	0.6656	0.0375	0.7332	0.035
Mof_C 	C 	0.6527	0.0624	0.8888	-0.105
Mof_H 	H 	0.6598	0.0965	0.8901	0.066
Mof_C 	C 	0.636	0.0343	0.9761	0.118
Mof_C 	C 	0.6255	0.0515	0.077	-0.161
Mof_C 	C 	0.60867	0.0248	0.1567	0.11
Mof_C 	C 	0.5977	0.0414	0.2641	-0.097
Mof_H 	H 	0.6007	0.0739	0.2929	0.058
Mof_C 	C 	0.5822	0.0002	0.3159	-0.052
Mof_H 	H 	0.5715	0.9993	0.3863	0.04
Mof_C 	C 	0.5853	0.9611	0.2455	0.032
Mof_H 	H 	0.5771	0.9284	0.2628	0.01
Mof_C 	C 	0.6335	0.1053	0.1016	0.144
Mof_C 	C 	0.6617	0.1208	0.1764	-0.195
Mof_H 	H 	0.6781	0.0968	0.2122	0.09
Mof_C 	C 	0.667	0.1702	0.2013	0.099
Mof_H 	H 	0.6865	0.1793	0.2547	-0.026
Mof_C 	C 	0.6126	0.1429	0.0444	-0.188
Mof_H 	H 	0.5947	0.1345	0.9863	0.093
Mof_C 	C 	0.6182	0.1918	0.0724	0.09
Mof_H 	H 	0.603	0.2166	0.0356	-0.028
Mof_C 	C 	0.3165	0.4485	0.3256	0.02
Mof_H 	H 	0.332	0.4653	0.2738	0.015
Mof_C 	C 	0.2741	0.4423	0.3162	-0.036
Mof_H 	H 	0.2569	0.4539	0.2594	0.035
Mof_C 	C 	0.2632	0.4154	0.4082	-0.109
Mof_H 	H 	0.237	0.4056	0.427	0.071
Mof_C 	C 	0.29985	0.4058	0.4677	0.122
Mof_C 	C 	0.30385	0.3774	0.561	-0.16
Mof_C 	C 	0.34062	0.3658	0.613	0.12
Mof_C 	C 	0.3468	0.335	0.7066	-0.108
Mof_H 	H 	0.3268	0.3186	0.7463	0.064
Mof_C 	C 	0.3868	0.3338	0.7273	-0.039
Mof_H 	H 	0.4004	0.3155	0.7827	0.038
Mof_C 	C 	0.40448	0.3651	0.651	0.026
Mof_H 	H 	0.4324	0.3714	0.6472	0.013
Mof_C 	C 	0.26684	0.3541	0.6053	0.149
Mof_C 	C 	0.2539	0.3679	0.7049	-0.192
Mof_H 	H 	0.2677	0.3924	0.7468	0.092
Mof_C 	C 	0.2196	0.3447	0.7424	0.095
Mof_H 	H 	0.2109	0.3534	0.8124	-0.026
Mof_C 	C 	0.2451	0.3192	0.5438	-0.193
Mof_H 	H 	0.2529	0.3105	0.4729	0.09
Mof_C 	C 	0.21187	0.2976	0.5896	0.106
Mof_H 	H 	0.1983	0.272	0.5503	-0.032
Mof_C 	C 	0.91898	0.4554	0.7375	0.021
Mof_H 	H 	0.9277	0.4223	0.7494	0.014
Mof_C 	C 	0.9224	0.4933	0.8128	-0.041
Mof_H 	H 	0.934	0.4908	0.8835	0.037
Mof_C 	C 	0.9059	0.5354	0.7659	-0.106
Mof_H 	H 	0.9033	0.5671	0.7988	0.062
Mof_C 	C 	0.89332	0.5219	0.6581	0.117
Mof_C 	C 	0.875	0.5523	0.5816	-0.163
Mof_C 	C 	0.86339	0.538	0.4767	0.118
Mof_C 	C 	0.84553	0.5682	0.3945	-0.106
Mof_H 	H 	0.8392	0.6025	0.3996	0.062
Mof_C 	C 	0.83934	0.5384	0.3073	-0.04
Mof_H 	H 	0.8271	0.5477	0.2401	0.034
Mof_C 	C 	0.85427	0.4917	0.3345	0.028
Mof_H 	H 	0.8542	0.4641	0.2868	0.011
Mof_C 	C 	0.86706	0.6046	0.6146	0.153
Mof_C 	C 	0.8402	0.6165	0.6909	-0.211
Mof_H 	H 	0.8248	0.5917	0.7253	0.096
Mof_C 	C 	0.83602	0.667	0.7171	0.122
Mof_H 	H 	0.8175	0.675	0.7713	-0.034
Mof_C 	C 	0.8886	0.6434	0.564	-0.194
Mof_H 	H 	0.9075	0.6366	0.51	0.095
Mof_C 	C 	0.88059	0.6917	0.5973	0.097
Mof_H 	H 	0.8942	0.7182	0.5633	-0.03
Mof_C 	C 	0.89815	0.3705	0.3272	0.026
Mof_H 	H 	0.9263	0.3754	0.3303	0.012
Mof_C 	C 	0.8772	0.341	0.2485	-0.037
Mof_H 	H 	0.8886	0.3231	0.1906	0.037
Mof_C 	C 	0.8377	0.3437	0.2729	-0.112
Mof_H 	H 	0.8164	0.327	0.2361	0.066
Mof_C 	C 	0.83414	0.3751	0.3607	0.115
Mof_C 	C 	0.79965	0.3873	0.418	-0.157
Mof_C 	C 	0.79808	0.4115	0.5144	0.112
Mof_C 	C 	0.7638	0.4221	0.5784	-0.1
Mof_H 	H 	0.7367	0.4155	0.5586	0.067
Mof_C 	C 	0.7773	0.4435	0.6731	-0.044
Mof_H 	H 	0.7616	0.4539	0.7318	0.037
Mof_C 	C 	0.81916	0.4469	0.666	0.034
Mof_H 	H 	0.8362	0.46	0.7218	0.01
Mof_C 	C 	0.76139	0.3674	0.3708	0.143
Mof_C 	C 	0.7408	0.3308	0.427	-0.188
Mof_H 	H 	0.7505	0.3196	0.4957	0.089
Mof_C 	C 	0.70591	0.3109	0.3808	0.103
Mof_H 	H 	0.6917	0.2868	0.4206	-0.031
Mof_C 	C 	0.74589	0.3827	0.2705	-0.187
Mof_H 	H 	0.7588	0.4076	0.2299	0.09
Mof_C 	C 	0.71092	0.3602	0.2316	0.095
Mof_H 	H 	0.7	0.3709	0.1638	-0.024
Mof_C 	C 	0.95265	0.4723	0.395	0.03
Mof_H 	H 	0.9355	0.495	0.3574	0.008
Mof_C 	C 	0.99447	0.4686	0.3788	-0.041
Mof_H 	H 	0.0098	0.4872	0.3292	0.043
Mof_C 	C 	0.00794	0.4336	0.4477	-0.098
Mof_H 	H 	0.035	0.4233	0.4573	0.064
Mof_C 	C 	0.97424	0.4145	0.5047	0.11
Mof_C 	C 	0.97292	0.3741	0.574	-0.153
Mof_C 	C 	0.93865	0.3528	0.6152	0.113
Mof_C 	C 	0.9347	0.3094	0.681	-0.104
Mof_H 	H 	0.9559	0.2891	0.7082	0.064
Mof_C 	C 	0.8955	0.3027	0.6974	-0.04
Mof_H 	H 	0.8838	0.2764	0.7366	0.039
Mof_C 	C 	0.8749	0.3425	0.6449	0.028
Mof_H 	H 	0.8467	0.3476	0.6455	0.01
Mof_C 	C 	0.01194	0.351	0.6141	0.137
Mof_C 	C 	0.03889	0.3794	0.6758	-0.187
Mof_H 	H 	0.0333	0.4131	0.6922	0.09
Mof_C 	C 	0.07433	0.357	0.7129	0.097
Mof_H 	H 	0.0924	0.3761	0.7566	-0.024
Mof_C 	C 	0.02269	0.3031	0.5841	-0.187
Mof_H 	H 	0.0061	0.2838	0.5366	0.089
Mof_C 	C 	0.05832	0.2846	0.6261	0.093
Mof_H 	H 	0.0652	0.2514	0.6086	-0.024
Mof_N 	N 	0.44178	0.43805	0.5177	-0.257
Mof_N 	N 	0.39932	0.37201	0.3831	-0.259
Mof_N 	N 	0.58077	0.31298	0.286	-0.213
Mof_N 	N 	0.62976	0.98561	0.9427	-0.255
Mof_N 	N 	0.60098	0.97309	0.1504	-0.259
Mof_N 	N 	0.64514	0.20574	0.1518	-0.214
Mof_N 	N 	0.33188	0.42754	0.4173	-0.258
Mof_N 	N 	0.37661	0.3845	0.5846	-0.26
Mof_N 	N 	0.19802	0.3106	0.6853	-0.215
Mof_N 	N 	0.90142	0.4721	0.6446	-0.255
Mof_N 	N 	0.86862	0.4907	0.4359	-0.256
Mof_N 	N 	0.8547	0.70295	0.675	-0.224
Mof_N 	N 	0.87263	0.39013	0.3956	-0.257
Mof_N 	N 	0.83204	0.4299	0.573	-0.255
Mof_N 	N 	0.69155	0.32393	0.2848	-0.212
Mof_N 	N 	0.94018	0.44034	0.4686	-0.258
Mof_N 	N 	0.90054	0.37131	0.5952	-0.256
Mof_N 	N 	0.08414	0.31072	0.6905	-0.212
Mof_Ag	Ag	0.36143	0.78053	0.27811	0.554
Mof_Ag	Ag	0.85732	0.77752	0.75208	0.561
Mof_Co	Co	0.61329	0.93014	0.0318	1.174
Mof_Co	Co	0.11384	0.93224	0.98186	1.169
Mof_C 	C 	0.54458	0.9695	0.9064	0.031
Mof_H 	H 	0.561	0.9919	0.8682	0.009
Mof_C 	C 	0.50367	0.9654	0.8902	-0.044
Mof_H 	H 	0.4877	0.9839	0.8398	0.045
Mof_C 	C 	0.49026	0.9299	0.9601	-0.097
Mof_H 	H 	0.4635	0.9188	0.9672	0.064
Mof_C 	C 	0.52509	0.913	0.0203	0.108
Mof_C 	C 	0.5277	0.8738	0.0951	-0.153
Mof_C 	C 	0.56258	0.8539	0.1407	0.11
Mof_C 	C 	0.567	0.8128	0.2123	-0.1
Mof_H 	H 	0.546	0.794	0.2429	0.062
Mof_C 	C 	0.6067	0.8057	0.2285	-0.049
Mof_H 	H 	0.6193	0.7805	0.2709	0.043
Mof_C 	C 	0.6262	0.8442	0.1681	0.041
Mof_H 	H 	0.6544	0.8485	0.1663	0.006
Mof_C 	C 	0.4893	0.8532	0.135	0.139
Mof_C 	C 	0.47798	0.8038	0.1123	-0.19
Mof_H 	H 	0.4942	0.7832	0.0691	0.089
Mof_C 	C 	0.44271	0.7859	0.1544	0.104
Mof_H 	H 	0.4352	0.7525	0.1394	-0.029
Mof_C 	C 	0.46333	0.8818	0.1957	-0.191
Mof_H 	H 	0.4693	0.9156	0.2116	0.09
Mof_C 	C 	0.429	0.8602	0.2321	0.101
Mof_H 	H 	0.4112	0.88	0.2725	-0.024
Mof_C 	C 	0.3567	0.4834	0.6579	0.026
Mof_H 	H 	0.3558	0.4537	0.6991	0.012
Mof_C 	C 	0.3436	0.5301	0.6966	-0.04
Mof_H 	H 	0.3344	0.5375	0.7668	0.035
Mof_C 	C 	0.3473	0.5624	0.6112	-0.105
Mof_H 	H 	0.3402	0.5965	0.6099	0.065
Mof_C 	C 	0.364	0.5343	0.5239	0.117
Mof_C 	C 	0.3745	0.5515	0.423	-0.159
Mof_C 	C 	0.39133	0.5248	0.3433	0.109
Mof_C 	C 	0.4023	0.5414	0.2359	-0.097
Mof_H 	H 	0.3993	0.5739	0.2071	0.058
Mof_C 	C 	0.4178	0.5002	0.1841	-0.053
Mof_H 	H 	0.4285	0.4993	0.1137	0.04
Mof_C 	C 	0.4147	0.4611	0.2545	0.033
Mof_H 	H 	0.4229	0.4284	0.2372	0.01
Mof_C 	C 	0.3665	0.6053	0.3984	0.143
Mof_C 	C 	0.3383	0.6208	0.3236	-0.195
Mof_H 	H 	0.3219	0.5968	0.2878	0.09
Mof_C 	C 	0.333	0.6702	0.2987	0.099
Mof_H 	H 	0.3135	0.6793	0.2453	-0.026
Mof_C 	C 	0.3874	0.6429	0.4556	-0.186
Mof_H 	H 	0.4053	0.6345	0.5137	0.092
Mof_C 	C 	0.3818	0.6918	0.4276	0.089
Mof_H 	H 	0.397	0.7166	0.4644	-0.028
Mof_C 	C 	0.6835	0.9485	0.1744	0.02
Mof_H 	H 	0.668	0.9653	0.2262	0.015
Mof_C 	C 	0.7259	0.9423	0.1838	-0.037
Mof_H 	H 	0.7431	0.9539	0.2406	0.035
Mof_C 	C 	0.7368	0.9154	0.0918	-0.108
Mof_H 	H 	0.763	0.9056	0.073	0.07
Mof_C 	C 	0.70015	0.9058	0.0323	0.118
Mof_C 	C 	0.69615	0.8774	0.939	-0.157
Mof_C 	C 	0.65938	0.8658	0.887	0.119
Mof_C 	C 	0.6532	0.835	0.7934	-0.107
Mof_H 	H 	0.6732	0.8186	0.7537	0.064
Mof_C 	C 	0.6132	0.8338	0.7727	-0.039
Mof_H 	H 	0.5996	0.8155	0.7173	0.038
Mof_C 	C 	0.59552	0.8651	0.849	0.026
Mof_H 	H 	0.5676	0.8714	0.8528	0.013
Mof_C 	C 	0.73316	0.8541	0.8947	0.146
Mof_C 	C 	0.7461	0.8679	0.7951	-0.19
Mof_H 	H 	0.7323	0.8924	0.7532	0.091
Mof_C 	C 	0.7804	0.8447	0.7576	0.094
Mof_H 	H 	0.7891	0.8534	0.6876	-0.025
Mof_C 	C 	0.7549	0.8192	0.9562	-0.187
Mof_H 	H 	0.7471	0.8105	0.0271	0.087
Mof_C 	C 	0.78813	0.7976	0.9104	0.103
Mof_H 	H 	0.8017	0.772	0.9497	-0.03
Mof_C 	C 	0.08102	0.9554	0.7625	0.021
Mof_H 	H 	0.0723	0.9223	0.7506	0.014
Mof_C 	C 	0.0776	0.9933	0.6872	-0.041
Mof_H 	H 	0.066	0.9908	0.6165	0.036
Mof_C 	C 	0.0941	0.0354	0.7341	-0.107
Mof_H 	H 	0.0967	0.0671	0.7012	0.062
Mof_C 	C 	0.10668	0.0219	0.8419	0.118
Mof_C 	C 	0.125	0.0523	0.9184	-0.166
Mof_C 	C 	0.13661	0.038	0.0233	0.121
Mof_C 	C 	0.15447	0.0682	0.1055	-0.107
Mof_H 	H 	0.1608	0.1025	0.1004	0.063
Mof_C 	C 	0.16066	0.0384	0.1927	-0.039
Mof_H 	H 	0.1729	0.0477	0.2599	0.034
Mof_C 	C 	0.14573	0.9917	0.1655	0.027
Mof_H 	H 	0.1458	0.9641	0.2132	0.011
Mof_C 	C 	0.13294	0.1046	0.8854	0.153
Mof_C 	C 	0.1598	0.1165	0.8091	-0.212
Mof_H 	H 	0.1752	0.0917	0.7747	0.096
Mof_C 	C 	0.16398	0.167	0.7829	0.122
Mof_H 	H 	0.1825	0.175	0.7287	-0.034
Mof_C 	C 	0.1114	0.1434	0.936	-0.195
Mof_H 	H 	0.0925	0.1366	0.99	0.095
Mof_C 	C 	0.11941	0.1917	0.9027	0.097
Mof_H 	H 	0.1058	0.2182	0.9367	-0.031
Mof_C 	C 	0.10185	0.8705	0.1728	0.026
Mof_H 	H 	0.0737	0.8754	0.1697	0.012
Mof_C 	C 	0.1228	0.841	0.2515	-0.037
Mof_H 	H 	0.1114	0.8231	0.3094	0.037
Mof_C 	C 	0.1623	0.8437	0.2271	-0.111
Mof_H 	H 	0.1836	0.827	0.2639	0.066
Mof_C 	C 	0.16586	0.8751	0.1393	0.115
Mof_C 	C 	0.20035	0.8873	0.082	-0.155
Mof_C 	C 	0.20192	0.9115	0.9856	0.109
Mof_C 	C 	0.2362	0.9221	0.9216	-0.099
Mof_H 	H 	0.2633	0.9155	0.9414	0.067
Mof_C 	C 	0.2227	0.9435	0.8269	-0.045
Mof_H 	H 	0.2384	0.9539	0.7682	0.037
Mof_C 	C 	0.18084	0.9469	0.834	0.034
Mof_H 	H 	0.1638	0.96	0.7782	0.01
Mof_C 	C 	0.23861	0.8674	0.1292	0.142
Mof_C 	C 	0.2592	0.8308	0.073	-0.188
Mof_H 	H 	0.2495	0.8196	0.0043	0.09
Mof_C 	C 	0.29409	0.8109	0.1192	0.102
Mof_H 	H 	0.3083	0.7868	0.0794	-0.03
Mof_C 	C 	0.25411	0.8827	0.2295	-0.187
Mof_H 	H 	0.2412	0.9076	0.2701	0.09
Mof_C 	C 	0.28908	0.8602	0.2684	0.095
Mof_H 	H 	0.3	0.8709	0.3362	-0.023
Mof_C 	C 	0.04735	0.9723	0.105	0.029
Mof_H 	H 	0.0645	0.995	0.1426	0.009
Mof_C 	C 	0.00553	0.9686	0.1212	-0.038
Mof_H 	H 	0.9902	0.9872	0.1708	0.042
Mof_C 	C 	0.99206	0.9336	0.0523	-0.1
Mof_H 	H 	0.965	0.9233	0.0427	0.065
Mof_C 	C 	0.02576	0.9145	0.9953	0.111
Mof_C 	C 	0.02708	0.8741	0.926	-0.154
Mof_C 	C 	0.06135	0.8528	0.8848	0.113
Mof_C 	C 	0.0653	0.8094	0.819	-0.104
Mof_H 	H 	0.0441	0.7891	0.7918	0.063
Mof_C 	C 	0.1045	0.8027	0.8026	-0.04
Mof_H 	H 	0.1162	0.7764	0.7634	0.039
Mof_C 	C 	0.1251	0.8425	0.8551	0.028
Mof_H 	H 	0.1533	0.8476	0.8545	0.01
Mof_C 	C 	0.98806	0.851	0.8859	0.138
Mof_C 	C 	0.96111	0.8794	0.8242	-0.188
Mof_H 	H 	0.9667	0.9131	0.8078	0.09
Mof_C 	C 	0.92567	0.857	0.7871	0.098
Mof_H 	H 	0.9076	0.8761	0.7434	-0.023
Mof_C 	C 	0.97731	0.8031	0.9159	-0.188
Mof_H 	H 	0.9939	0.7838	0.9634	0.089
Mof_C 	C 	0.94168	0.7846	0.8739	0.094
Mof_H 	H 	0.9348	0.7514	0.8914	-0.024
Mof_N 	N 	0.55822	0.93805	0.9823	-0.256
Mof_N 	N 	0.60068	0.87201	0.1169	-0.259
Mof_N 	N 	0.41923	0.81298	0.214	-0.212
Mof_N 	N 	0.37024	0.48561	0.5573	-0.255
Mof_N 	N 	0.39902	0.47309	0.3496	-0.259
Mof_N 	N 	0.35486	0.70574	0.3482	-0.213
Mof_N 	N 	0.66812	0.92754	0.0827	-0.258
Mof_N 	N 	0.62339	0.8845	0.9154	-0.26
Mof_N 	N 	0.80198	0.8106	0.8147	-0.214
Mof_N 	N 	0.09858	0.9721	0.8554	-0.255
Mof_N 	N 	0.13138	0.9907	0.0641	-0.255
Mof_N 	N 	0.1453	0.20295	0.825	-0.224
Mof_N 	N 	0.12737	0.89013	0.1044	-0.256
Mof_N 	N 	0.16796	0.9299	0.927	-0.255
Mof_N 	N 	0.30845	0.82393	0.2152	-0.212
Mof_N 	N 	0.05982	0.94034	0.0314	-0.258
Mof_N 	N 	0.09946	0.87131	0.9048	-0.256
Mof_N 	N 	0.91586	0.81072	0.8095	-0.212
Mof_Ag	Ag	0.36143	0.71947	0.77811	0.553
Mof_Ag	Ag	0.85732	0.72248	0.25208	0.561
Mof_Co	Co	0.61329	0.56986	0.5318	1.174
Mof_Co	Co	0.11384	0.56776	0.48186	1.17
Mof_C 	C 	0.54458	0.5305	0.4064	0.031
Mof_H 	H 	0.561	0.5081	0.3682	0.009
Mof_C 	C 	0.50367	0.5346	0.3902	-0.043
Mof_H 	H 	0.4877	0.5161	0.3398	0.045
Mof_C 	C 	0.49026	0.5701	0.4601	-0.098
Mof_H 	H 	0.4635	0.5812	0.4672	0.065
Mof_C 	C 	0.52509	0.587	0.5203	0.11
Mof_C 	C 	0.5277	0.6262	0.5951	-0.153
Mof_C 	C 	0.56258	0.6461	0.6407	0.111
Mof_C 	C 	0.567	0.6872	0.7123	-0.1
Mof_H 	H 	0.546	0.706	0.7429	0.062
Mof_C 	C 	0.6067	0.6943	0.7285	-0.048
Mof_H 	H 	0.6193	0.7195	0.7709	0.043
Mof_C 	C 	0.6262	0.6558	0.6681	0.041
Mof_H 	H 	0.6544	0.6515	0.6663	0.006
Mof_C 	C 	0.4893	0.6468	0.635	0.139
Mof_C 	C 	0.47798	0.6962	0.6123	-0.19
Mof_H 	H 	0.4942	0.7168	0.5691	0.089
Mof_C 	C 	0.44271	0.7141	0.6544	0.104
Mof_H 	H 	0.4352	0.7475	0.6394	-0.03
Mof_C 	C 	0.46333	0.6182	0.6957	-0.191
Mof_H 	H 	0.4693	0.5844	0.7116	0.09
Mof_C 	C 	0.429	0.6398	0.7321	0.101
Mof_H 	H 	0.4112	0.62	0.7725	-0.024
Mof_C 	C 	0.3567	0.0166	0.1579	0.026
Mof_H 	H 	0.3558	0.0463	0.1991	0.012
Mof_C 	C 	0.3436	0.9699	0.1966	-0.04
Mof_H 	H 	0.3344	0.9625	0.2668	0.035
Mof_C 	C 	0.3473	0.9376	0.1112	-0.105
Mof_H 	H 	0.3402	0.9035	0.1099	0.066
Mof_C 	C 	0.364	0.9657	0.0239	0.118
Mof_C 	C 	0.3745	0.9485	0.923	-0.161
Mof_C 	C 	0.39133	0.9752	0.8433	0.11
Mof_C 	C 	0.4023	0.9586	0.7359	-0.097
Mof_H 	H 	0.3993	0.9261	0.7071	0.058
Mof_C 	C 	0.4178	0.9998	0.6841	-0.052
Mof_H 	H 	0.4285	0.0007	0.6137	0.04
Mof_C 	C 	0.4147	0.0389	0.7545	0.032
Mof_H 	H 	0.4229	0.0716	0.7372	0.01
Mof_C 	C 	0.3665	0.8947	0.8984	0.144
Mof_C 	C 	0.3383	0.8792	0.8236	-0.195
Mof_H 	H 	0.3219	0.9032	0.7878	0.09
Mof_C 	C 	0.333	0.8298	0.7987	0.099
Mof_H 	H 	0.3135	0.8207	0.7453	-0.026
Mof_C 	C 	0.3874	0.8571	0.9556	-0.188
Mof_H 	H 	0.4053	0.8655	0.0137	0.093
Mof_C 	C 	0.3818	0.8082	0.9276	0.09
Mof_H 	H 	0.397	0.7834	0.9644	-0.028
Mof_C 	C 	0.6835	0.5515	0.6744	0.02
Mof_H 	H 	0.668	0.5347	0.7262	0.015
Mof_C 	C 	0.7259	0.5577	0.6838	-0.036
Mof_H 	H 	0.7431	0.5461	0.7406	0.035
Mof_C 	C 	0.7368	0.5846	0.5918	-0.109
Mof_H 	H 	0.763	0.5944	0.573	0.071
Mof_C 	C 	0.70015	0.5942	0.5323	0.122
Mof_C 	C 	0.69615	0.6226	0.439	-0.16
Mof_C 	C 	0.65938	0.6342	0.387	0.12
Mof_C 	C 	0.6532	0.665	0.2934	-0.108
Mof_H 	H 	0.6732	0.6814	0.2537	0.064
Mof_C 	C 	0.6132	0.6662	0.2727	-0.039
Mof_H 	H 	0.5996	0.6845	0.2173	0.038
Mof_C 	C 	0.59552	0.6349	0.349	0.026
Mof_H 	H 	0.5676	0.6286	0.3528	0.013
Mof_C 	C 	0.73316	0.6459	0.3947	0.149
Mof_C 	C 	0.7461	0.6321	0.2951	-0.192
Mof_H 	H 	0.7323	0.6076	0.2532	0.092
Mof_C 	C 	0.7804	0.6553	0.2576	0.095
Mof_H 	H 	0.7891	0.6466	0.1876	-0.026
Mof_C 	C 	0.7549	0.6808	0.4562	-0.193
Mof_H 	H 	0.7471	0.6895	0.5271	0.09
Mof_C 	C 	0.78813	0.7024	0.4104	0.106
Mof_H 	H 	0.8017	0.728	0.4497	-0.032
Mof_C 	C 	0.08102	0.5446	0.2625	0.021
Mof_H 	H 	0.0723	0.5777	0.2506	0.014
Mof_C 	C 	0.0776	0.5067	0.1872	-0.041
Mof_H 	H 	0.066	0.5092	0.1165	0.037
Mof_C 	C 	0.0941	0.4646	0.2341	-0.106
Mof_H 	H 	0.0967	0.4329	0.2012	0.062
Mof_C 	C 	0.10668	0.4781	0.3419	0.117
Mof_C 	C 	0.125	0.4477	0.4184	-0.163
Mof_C 	C 	0.13661	0.462	0.5233	0.118
Mof_C 	C 	0.15447	0.4318	0.6055	-0.106
Mof_H 	H 	0.1608	0.3975	0.6004	0.062
Mof_C 	C 	0.16066	0.4616	0.6927	-0.04
Mof_H 	H 	0.1729	0.4523	0.7599	0.034
Mof_C 	C 	0.14573	0.5083	0.6655	0.028
Mof_H 	H 	0.1458	0.5359	0.7132	0.011
Mof_C 	C 	0.13294	0.3954	0.3854	0.153
Mof_C 	C 	0.1598	0.3835	0.3091	-0.211
Mof_H 	H 	0.1752	0.4083	0.2747	0.096
Mof_C 	C 	0.16398	0.333	0.2829	0.122
Mof_H 	H 	0.1825	0.325	0.2287	-0.034
Mof_C 	C 	0.1114	0.3566	0.436	-0.194
Mof_H 	H 	0.0925	0.3634	0.49	0.095
Mof_C 	C 	0.11941	0.3083	0.4027	0.097
Mof_H 	H 	0.1058	0.2818	0.4367	-0.03
Mof_C 	C 	0.10185	0.6295	0.6728	0.026
Mof_H 	H 	0.0737	0.6246	0.6697	0.012
Mof_C 	C 	0.1228	0.659	0.7515	-0.037
Mof_H 	H 	0.1114	0.6769	0.8094	0.037
Mof_C 	C 	0.1623	0.6563	0.7271	-0.112
Mof_H 	H 	0.1836	0.673	0.7639	0.066
Mof_C 	C 	0.16586	0.6249	0.6393	0.115
Mof_C 	C 	0.20035	0.6127	0.582	-0.157
Mof_C 	C 	0.20192	0.5885	0.4856	0.112
Mof_C 	C 	0.2362	0.5779	0.4216	-0.1
Mof_H 	H 	0.2633	0.5845	0.4414	0.067
Mof_C 	C 	0.2227	0.5565	0.3269	-0.044
Mof_H 	H 	0.2384	0.5461	0.2682	0.037
Mof_C 	C 	0.18084	0.5531	0.334	0.034
Mof_H 	H 	0.1638	0.54	0.2782	0.01
Mof_C 	C 	0.23861	0.6326	0.6292	0.143
Mof_C 	C 	0.2592	0.6692	0.573	-0.188
Mof_H 	H 	0.2495	0.6804	0.5043	0.089
Mof_C 	C 	0.29409	0.6891	0.6192	0.103
Mof_H 	H 	0.3083	0.7132	0.5794	-0.031
Mof_C 	C 	0.25411	0.6173	0.7295	-0.187
Mof_H 	H 	0.2412	0.5924	0.7701	0.09
Mof_C 	C 	0.28908	0.6398	0.7684	0.095
Mof_H 	H 	0.3	0.6291	0.8362	-0.024
Mof_C 	C 	0.04735	0.5277	0.605	0.03
Mof_H 	H 	0.0645	0.505	0.6426	0.008
Mof_C 	C 	0.00553	0.5314	0.6212	-0.041
Mof_H 	H 	0.9902	0.5128	0.6708	0.043
Mof_C 	C 	0.99206	0.5664	0.5523	-0.098
Mof_H 	H 	0.965	0.5767	0.5427	0.064
Mof_C 	C 	0.02576	0.5855	0.4953	0.11
Mof_C 	C 	0.02708	0.6259	0.426	-0.153
Mof_C 	C 	0.06135	0.6472	0.3848	0.113
Mof_C 	C 	0.0653	0.6906	0.319	-0.104
Mof_H 	H 	0.0441	0.7109	0.2918	0.064
Mof_C 	C 	0.1045	0.6973	0.3026	-0.04
Mof_H 	H 	0.1162	0.7236	0.2634	0.039
Mof_C 	C 	0.1251	0.6575	0.3551	0.028
Mof_H 	H 	0.1533	0.6524	0.3545	0.01
Mof_C 	C 	0.98806	0.649	0.3859	0.137
Mof_C 	C 	0.96111	0.6206	0.3242	-0.187
Mof_H 	H 	0.9667	0.5869	0.3078	0.09
Mof_C 	C 	0.92567	0.643	0.2871	0.097
Mof_H 	H 	0.9076	0.6239	0.2434	-0.024
Mof_C 	C 	0.97731	0.6969	0.4159	-0.187
Mof_H 	H 	0.9939	0.7162	0.4634	0.089
Mof_C 	C 	0.94168	0.7154	0.3739	0.093
Mof_H 	H 	0.9348	0.7486	0.3914	-0.024
Mof_N 	N 	0.55822	0.56195	0.4823	-0.257
Mof_N 	N 	0.60068	0.62799	0.6169	-0.259
Mof_N 	N 	0.41923	0.68702	0.714	-0.213
Mof_N 	N 	0.37024	0.01439	0.0573	-0.255
Mof_N 	N 	0.39902	0.02691	0.8496	-0.259
Mof_N 	N 	0.35486	0.79426	0.8482	-0.214
Mof_N 	N 	0.66812	0.57246	0.5827	-0.258
Mof_N 	N 	0.62339	0.6155	0.4154	-0.26
Mof_N 	N 	0.80198	0.6894	0.3147	-0.215
Mof_N 	N 	0.09858	0.5279	0.3554	-0.255
Mof_N 	N 	0.13138	0.5093	0.5641	-0.256
Mof_N 	N 	0.1453	0.29705	0.325	-0.224
Mof_N 	N 	0.12737	0.60987	0.6044	-0.257
Mof_N 	N 	0.16796	0.5701	0.427	-0.255
Mof_N 	N 	0.30845	0.67607	0.7152	-0.212
Mof_N 	N 	0.05982	0.55966	0.5314	-0.258
Mof_N 	N 	0.09946	0.62869	0.4048	-0.256
Mof_N 	N 	0.91586	0.68928	0.3095	-0.212
Mof_Ag	Ag	0.63857	0.21947	0.72189	0.554
Mof_Ag	Ag	0.14268	0.22248	0.24792	0.561
Mof_Co	Co	0.38671	0.06986	0.9682	1.174
Mof_Co	Co	0.88616	0.06776	0.01814	1.169
Mof_C 	C 	0.45542	0.0305	0.0936	0.031
Mof_H 	H 	0.439	0.0081	0.1318	0.009
Mof_C 	C 	0.49633	0.0346	0.1098	-0.044
Mof_H 	H 	0.5123	0.0161	0.1602	0.045
Mof_C 	C 	0.50974	0.0701	0.0399	-0.097
Mof_H 	H 	0.5365	0.0812	0.0328	0.064
Mof_C 	C 	0.47491	0.087	0.9797	0.108
Mof_C 	C 	0.4723	0.1262	0.9049	-0.153
Mof_C 	C 	0.43742	0.1461	0.8593	0.11
Mof_C 	C 	0.433	0.1872	0.7877	-0.1
Mof_H 	H 	0.454	0.206	0.7571	0.062
Mof_C 	C 	0.3933	0.1943	0.7715	-0.049
Mof_H 	H 	0.3807	0.2195	0.7291	0.043
Mof_C 	C 	0.3738	0.1558	0.8319	0.041
Mof_H 	H 	0.3456	0.1515	0.8337	0.006
Mof_C 	C 	0.5107	0.1468	0.865	0.139
Mof_C 	C 	0.52202	0.1962	0.8877	-0.19
Mof_H 	H 	0.5058	0.2168	0.9309	0.089
Mof_C 	C 	0.55729	0.2141	0.8456	0.104
Mof_H 	H 	0.5648	0.2475	0.8606	-0.029
Mof_C 	C 	0.53667	0.1182	0.8043	-0.191
Mof_H 	H 	0.5307	0.0844	0.7884	0.09
Mof_C 	C 	0.571	0.1398	0.7679	0.101
Mof_H 	H 	0.5888	0.12	0.7275	-0.024
Mof_C 	C 	0.6433	0.5166	0.3421	0.026
Mof_H 	H 	0.6442	0.5463	0.3009	0.012
Mof_C 	C 	0.6564	0.4699	0.3034	-0.04
Mof_H 	H 	0.6656	0.4625	0.2332	0.035
Mof_C 	C 	0.6527	0.4376	0.3888	-0.105
Mof_H 	H 	0.6598	0.4035	0.3901	0.065
Mof_C 	C 	0.636	0.4657	0.4761	0.117
Mof_C 	C 	0.6255	0.4485	0.577	-0.159
Mof_C 	C 	0.60867	0.4752	0.6567	0.109
Mof_C 	C 	0.5977	0.4586	0.7641	-0.097
Mof_H 	H 	0.6007	0.4261	0.7929	0.058
Mof_C 	C 	0.5822	0.4998	0.8159	-0.053
Mof_H 	H 	0.5715	0.5007	0.8863	0.04
Mof_C 	C 	0.5853	0.5389	0.7455	0.033
Mof_H 	H 	0.5771	0.5716	0.7628	0.01
Mof_C 	C 	0.6335	0.3947	0.6016	0.143
Mof_C 	C 	0.6617	0.3792	0.6764	-0.195
Mof_H 	H 	0.6781	0.4032	0.7122	0.09
Mof_C 	C 	0.667	0.3298	0.7013	0.099
Mof_H 	H 	0.6865	0.3207	0.7547	-0.026
Mof_C 	C 	0.6126	0.3571	0.5444	-0.186
Mof_H 	H 	0.5947	0.3655	0.4863	0.092
Mof_C 	C 	0.6182	0.3082	0.5724	0.089
Mof_H 	H 	0.603	0.2834	0.5356	-0.028
Mof_C 	C 	0.3165	0.0515	0.8256	0.02
Mof_H 	H 	0.332	0.0347	0.7738	0.015
Mof_C 	C 	0.2741	0.0577	0.8162	-0.037
Mof_H 	H 	0.2569	0.0461	0.7594	0.035
Mof_C 	C 	0.2632	0.0846	0.9082	-0.108
Mof_H 	H 	0.237	0.0944	0.927	0.07
Mof_C 	C 	0.29985	0.0942	0.9677	0.118
Mof_C 	C 	0.30385	0.1226	0.061	-0.157
Mof_C 	C 	0.34062	0.1342	0.113	0.119
Mof_C 	C 	0.3468	0.165	0.2066	-0.107
Mof_H 	H 	0.3268	0.1814	0.2463	0.064
Mof_C 	C 	0.3868	0.1662	0.2273	-0.039
Mof_H 	H 	0.4004	0.1845	0.2827	0.038
Mof_C 	C 	0.40448	0.1349	0.151	0.026
Mof_H 	H 	0.4324	0.1286	0.1472	0.013
Mof_C 	C 	0.26684	0.1459	0.1053	0.146
Mof_C 	C 	0.2539	0.1321	0.2049	-0.19
Mof_H 	H 	0.2677	0.1076	0.2468	0.091
Mof_C 	C 	0.2196	0.1553	0.2424	0.094
Mof_H 	H 	0.2109	0.1466	0.3124	-0.025
Mof_C 	C 	0.2451	0.1808	0.0438	-0.187
Mof_H 	H 	0.2529	0.1895	0.9729	0.087
Mof_C 	C 	0.21187	0.2024	0.0896	0.103
Mof_H 	H 	0.1983	0.228	0.0503	-0.03
Mof_C 	C 	0.91898	0.0446	0.2375	0.021
Mof_H 	H 	0.9277	0.0777	0.2494	0.014
Mof_C 	C 	0.9224	0.0067	0.3128	-0.041
Mof_H 	H 	0.934	0.0092	0.3835	0.036
Mof_C 	C 	0.9059	0.9646	0.2659	-0.107
Mof_H 	H 	0.9033	0.9329	0.2988	0.062
Mof_C 	C 	0.89332	0.9781	0.1581	0.118
Mof_C 	C 	0.875	0.9477	0.0816	-0.166
Mof_C 	C 	0.86339	0.962	0.9767	0.121
Mof_C 	C 	0.84553	0.9318	0.8945	-0.107
Mof_H 	H 	0.8392	0.8975	0.8996	0.063
Mof_C 	C 	0.83934	0.9616	0.8073	-0.039
Mof_H 	H 	0.8271	0.9523	0.7401	0.034
Mof_C 	C 	0.85427	0.0083	0.8345	0.027
Mof_H 	H 	0.8542	0.0359	0.7868	0.011
Mof_C 	C 	0.86706	0.8954	0.1146	0.153
Mof_C 	C 	0.8402	0.8835	0.1909	-0.212
Mof_H 	H 	0.8248	0.9083	0.2253	0.096
Mof_C 	C 	0.83602	0.833	0.2171	0.122
Mof_H 	H 	0.8175	0.825	0.2713	-0.034
Mof_C 	C 	0.8886	0.8566	0.064	-0.195
Mof_H 	H 	0.9075	0.8634	0.01	0.095
Mof_C 	C 	0.88059	0.8083	0.0973	0.097
Mof_H 	H 	0.8942	0.7818	0.0633	-0.031
Mof_C 	C 	0.89815	0.1295	0.8272	0.026
Mof_H 	H 	0.9263	0.1246	0.8303	0.012
Mof_C 	C 	0.8772	0.159	0.7485	-0.037
Mof_H 	H 	0.8886	0.1769	0.6906	0.037
Mof_C 	C 	0.8377	0.1563	0.7729	-0.111
Mof_H 	H 	0.8164	0.173	0.7361	0.066
Mof_C 	C 	0.83414	0.1249	0.8607	0.115
Mof_C 	C 	0.79965	0.1127	0.918	-0.155
Mof_C 	C 	0.79808	0.0885	0.0144	0.109
Mof_C 	C 	0.7638	0.0779	0.0784	-0.099
Mof_H 	H 	0.7367	0.0845	0.0586	0.067
Mof_C 	C 	0.7773	0.0565	0.1731	-0.045
Mof_H 	H 	0.7616	0.0461	0.2318	0.037
Mof_C 	C 	0.81916	0.0531	0.166	0.034
Mof_H 	H 	0.8362	0.04	0.2218	0.01
Mof_C 	C 	0.76139	0.1326	0.8708	0.142
Mof_C 	C 	0.7408	0.1692	0.927	-0.188
Mof_H 	H 	0.7505	0.1804	0.9957	0.09
Mof_C 	C 	0.70591	0.1891	0.8808	0.102
Mof_H 	H 	0.6917	0.2132	0.9206	-0.03
Mof_C 	C 	0.74589	0.1173	0.7705	-0.187
Mof_H 	H 	0.7588	0.0924	0.7299	0.09
Mof_C 	C 	0.71092	0.1398	0.7316	0.095
Mof_H 	H 	0.7	0.1291	0.6638	-0.023
Mof_C 	C 	0.95265	0.0277	0.895	0.029
Mof_H 	H 	0.9355	0.005	0.8574	0.009
Mof_C 	C 	0.99447	0.0314	0.8788	-0.038
Mof_H 	H 	0.0098	0.0128	0.8292	0.042
Mof_C 	C 	0.00794	0.0664	0.9477	-0.1
Mof_H 	H 	0.035	0.0767	0.9573	0.065
Mof_C 	C 	0.97424	0.0855	0.0047	0.111
Mof_C 	C 	0.97292	0.1259	0.074	-0.154
Mof_C 	C 	0.93865	0.1472	0.1152	0.113
Mof_C 	C 	0.9347	0.1906	0.181	-0.104
Mof_H 	H 	0.9559	0.2109	0.2082	0.063
Mof_C 	C 	0.8955	0.1973	0.1974	-0.04
Mof_H 	H 	0.8838	0.2236	0.2366	0.039
Mof_C 	C 	0.8749	0.1575	0.1449	0.028
Mof_H 	H 	0.8467	0.1524	0.1455	0.01
Mof_C 	C 	0.01194	0.149	0.1141	0.138
Mof_C 	C 	0.03889	0.1206	0.1758	-0.188
Mof_H 	H 	0.0333	0.0869	0.1922	0.09
Mof_C 	C 	0.07433	0.143	0.2129	0.098
Mof_H 	H 	0.0924	0.1239	0.2566	-0.023
Mof_C 	C 	0.02269	0.1969	0.0841	-0.188
Mof_H 	H 	0.0061	0.2162	0.0366	0.089
Mof_C 	C 	0.05832	0.2154	0.1261	0.094
Mof_H 	H 	0.0652	0.2486	0.1086	-0.024
Mof_N 	N 	0.44178	0.06195	0.0177	-0.256
Mof_N 	N 	0.39932	0.12799	0.8831	-0.259
Mof_N 	N 	0.58077	0.18702	0.786	-0.212
Mof_N 	N 	0.62976	0.51439	0.4427	-0.255
Mof_N 	N 	0.60098	0.52691	0.6504	-0.259
Mof_N 	N 	0.64514	0.29426	0.6518	-0.213
Mof_N 	N 	0.33188	0.07246	0.9173	-0.258
Mof_N 	N 	0.37661	0.1155	0.0846	-0.26
Mof_N 	N 	0.19802	0.1894	0.1853	-0.214
Mof_N 	N 	0.90142	0.0279	0.1446	-0.255
Mof_N 	N 	0.86862	0.0093	0.9359	-0.255
Mof_N 	N 	0.8547	0.79705	0.175	-0.224
Mof_N 	N 	0.87263	0.10987	0.8956	-0.256
Mof_N 	N 	0.83204	0.0701	0.073	-0.255
Mof_N 	N 	0.69155	0.17607	0.7848	-0.212
Mof_N 	N 	0.94018	0.05966	0.9686	-0.258
Mof_N 	N 	0.90054	0.12869	0.0952	-0.256
Mof_N 	N 	0.08414	0.18928	0.1905	-0.212
_end
