# CIF file generated by openbabel 3.1.0, see https://openbabel.org
data_I
_chemical_name_common 'image0'
_cell_length_a 10.66
_cell_length_b 11.377
_cell_length_c 12.509
_cell_angle_alpha 86.24
_cell_angle_beta 81.85
_cell_angle_gamma 89.07
_space_group_name_H-M_alt 'P 1'
_space_group_name_Hall 'P 1'
loop_
    _symmetry_equiv_pos_as_xyz
    x,y,z
loop_
    _atom_site_label
    _atom_site_type_symbol
    _atom_site_fract_x
    _atom_site_fract_y
    _atom_site_fract_z
    _atom_site_occupancy
    O1       O        0.50300    0.32280    0.64170    1.000
    O2       O        0.30740    0.38860    0.63910    1.000
    C1       C        0.39650    0.31690    0.61060    1.000
    Dy1      Dy       0.57331    0.51408    0.23813    1.000
    Zn1      Zn       0.36811    0.16410    0.20067    1.000
    C2       C        0.62080    0.88550    0.08900    1.000
    N1       N        0.35220    0.12650    0.37700    1.000
    C3       C        0.30110    0.01350    0.54550    1.000
    H1       H        0.27560    0.94240    0.58240    1.000
    C4       C        0.32720    0.10840    0.60190    1.000
    H2       H        0.31730    0.10210    0.67710    1.000
    C5       C        0.38180    0.21790    0.43230    1.000
    C6       C        0.36870    0.21450    0.54520    1.000
    C7       C        0.16800    0.34790    0.14710    1.000
    H3       H        0.23700    0.38340    0.10380    1.000
    C8       C        0.31340    0.02510    0.43330    1.000
    H4       H        0.29430    0.96120    0.39590    1.000
    C9       C        0.08410    0.19510    0.26480    1.000
    H5       H        0.09460    0.12390    0.30350    1.000
    N2       N        0.18660    0.24500    0.20420    1.000
    C10      C        0.96430    0.24480    0.27220    1.000
    H6       H        0.89640    0.20770    0.31560    1.000
    C11      C        0.05110    0.40170    0.15100    1.000
    H7       H        0.04230    0.47250    0.11100    1.000
    O3       O        0.72270    0.35880    0.28120    1.000
    N3       N        0.53990    0.06640    0.16360    1.000
    C12      C        0.65980    0.10660    0.15610    1.000
    H8       H        0.67300    0.18060    0.17980    1.000
    C13      C        0.81670    0.40770    0.21980    1.000
    C14      C        0.38140    0.92010    0.14440    1.000
    C15      C        0.60000    0.76200    0.05530    1.000
    C16      C        0.43420    0.32420    0.36190    1.000
    C17      C        0.51980    0.95760    0.13150    1.000
    C18      C        0.74360    0.92880    0.08020    1.000
    H9       H        0.81200    0.88330    0.05170    1.000
    C19      C        0.94610    0.35050    0.21440    1.000
    C20      C        0.76390    0.04020    0.11400    1.000
    H10      H        0.84560    0.06980    0.10850    1.000
    O4       O        0.60790    0.68010    0.12600    1.000
    O5       O        0.29880    0.99840    0.17480    1.000
    O6       O        0.58260    0.74850    0.95890    1.000
    O7       O        0.80190    0.50260    0.16410    1.000
    O8       O        0.44720    0.31790    0.25910    1.000
    O9       O        0.46820    0.41280    0.40480    1.000
    O10      O        0.35770    0.81730    0.12510    1.000
    O11      O        0.49700    0.67720    0.35830    1.000
    O12      O        0.69260    0.61140    0.36090    1.000
    C21      C        0.60350    0.68310    0.38940    1.000
    Dy2      Dy       0.42669    0.48592    0.76187    1.000
    Zn2      Zn       0.63189    0.83590    0.79933    1.000
    C22      C        0.37920    0.11450    0.91100    1.000
    N4       N        0.64780    0.87350    0.62300    1.000
    C23      C        0.69890    0.98650    0.45450    1.000
    H11      H        0.72440    0.05760    0.41760    1.000
    C24      C        0.67280    0.89160    0.39810    1.000
    H12      H        0.68270    0.89790    0.32290    1.000
    C25      C        0.61820    0.78210    0.56770    1.000
    C26      C        0.63130    0.78550    0.45480    1.000
    C27      C        0.83200    0.65210    0.85290    1.000
    H13      H        0.76300    0.61660    0.89620    1.000
    C28      C        0.68660    0.97490    0.56670    1.000
    H14      H        0.70570    0.03880    0.60410    1.000
    C29      C        0.91590    0.80490    0.73520    1.000
    H15      H        0.90540    0.87610    0.69650    1.000
    N5       N        0.81340    0.75500    0.79580    1.000
    C30      C        0.03570    0.75520    0.72780    1.000
    H16      H        0.10360    0.79230    0.68440    1.000
    C31      C        0.94890    0.59830    0.84900    1.000
    H17      H        0.95770    0.52750    0.88900    1.000
    O13      O        0.27730    0.64120    0.71880    1.000
    N6       N        0.46010    0.93360    0.83640    1.000
    C32      C        0.34020    0.89340    0.84390    1.000
    H18      H        0.32700    0.81940    0.82020    1.000
    C33      C        0.18330    0.59230    0.78020    1.000
    C34      C        0.61860    0.07990    0.85560    1.000
    C35      C        0.40000    0.23800    0.94470    1.000
    C36      C        0.56580    0.67580    0.63810    1.000
    C37      C        0.48020    0.04240    0.86850    1.000
    C38      C        0.25640    0.07120    0.91980    1.000
    H19      H        0.18800    0.11670    0.94830    1.000
    C39      C        0.05390    0.64950    0.78560    1.000
    C40      C        0.23610    0.95980    0.88600    1.000
    H20      H        0.15440    0.93020    0.89150    1.000
    O14      O        0.39210    0.31990    0.87400    1.000
    O15      O        0.70120    0.00160    0.82520    1.000
    O16      O        0.41740    0.25150    0.04110    1.000
    O17      O        0.19810    0.49740    0.83590    1.000
    O18      O        0.55280    0.68210    0.74090    1.000
    O19      O        0.53180    0.58720    0.59520    1.000
    O20      O        0.64230    0.18270    0.87490    1.000
