data_functionalizedCrystal
_audit_creation_method	'EQeq! by Chris Wilmer'
_symmetry_space_group_name_H-M	'P1'
_symmetry_Int_Tables_number	1
_symmetry_cell_setting	triclinic
loop_
_symmetry_equiv_pos_as_xyz
  x,y,z
_cell_length_a	18.41
_cell_length_b	18.41
_cell_length_c	21.321
_cell_angle_alpha	90
_cell_angle_beta	90
_cell_angle_gamma	120
loop_
_atom_site_label
_atom_site_type_symbol
_atom_site_fract_x
_atom_site_fract_y
_atom_site_fract_z
_atom_site_charge
Mof_Cu	Cu	0.5074	0.6635	0.65819	0.833
Mof_Cu	Cu	0.1561	0.4926	0.99152	0.833
Mof_Cu	Cu	0.3365	0.8439	0.32486	0.833
Mof_Cu	Cu	0.8439	0.3365	0.34181	0.833
Mof_Cu	Cu	0.6635	0.5074	0.00848	0.834
Mof_Cu	Cu	0.4926	0.1561	0.67514	0.834
Mof_P 	P 	0.3803	0.6456	0.69325	-0.06
Mof_P 	P 	0.139	0.4702	0.88651	-0.063
Mof_P 	P 	0.2653	0.6197	0.02658	-0.059
Mof_P 	P 	0.3312	0.861	0.21984	-0.062
Mof_P 	P 	0.3544	0.7347	0.35992	-0.06
Mof_P 	P 	0.5298	0.6688	0.55318	-0.062
Mof_P 	P 	0.7347	0.3544	0.30675	-0.06
Mof_P 	P 	0.6688	0.5298	0.11349	-0.063
Mof_P 	P 	0.6456	0.3803	0.97342	-0.059
Mof_P 	P 	0.4702	0.139	0.78016	-0.062
Mof_P 	P 	0.6197	0.2653	0.64008	-0.06
Mof_P 	P 	0.861	0.3312	0.44682	-0.062
Mof_H 	H 	0.6472	0.6415	0.9355	0.017
Mof_H 	H 	0.5466	0.6508	0.8791	0.079
Mof_H 	H 	0.372	0.4219	0.9346	0.076
Mof_H 	H 	0.4787	0.4184	0.9935	-0.012
Mof_H 	H 	0.4622	0.6119	0.7904	0.05
Mof_H 	H 	0.2227	0.5584	0.7661	0.064
Mof_H 	H 	0.2876	0.477	0.9211	0.046
Mof_H 	H 	0.4915	0.815	0.7273	0.068
Mof_H 	H 	0.4787	0.9324	0.7502	0.029
Mof_H 	H 	0.3483	0.9246	0.741	0.047
Mof_H 	H 	0.2307	0.7994	0.709	0.03
Mof_H 	H 	0.2435	0.682	0.6861	0.06
Mof_H 	H 	0.304	0.6675	0.5796	0.058
Mof_H 	H 	0.2048	0.5726	0.5089	0.035
Mof_H 	H 	0.1428	0.4388	0.5232	0.055
Mof_H 	H 	0.1529	0.378	0.6178	0.032
Mof_H 	H 	0.2659	0.4668	0.6868	0.053
Mof_H 	H 	0.1305	0.3812	0.7668	0.056
Mof_H 	H 	0.0612	0.2467	0.7346	0.031
Mof_H 	H 	0.9662	0.137	0.8036	0.058
Mof_H 	H 	0.9556	0.1741	0.907	0.032
Mof_H 	H 	0.0166	0.3077	0.9406	0.052
Mof_H 	H 	0.0138	0.4178	0.7824	0.057
Mof_H 	H 	0.9588	0.4895	0.7274	0.032
Mof_H 	H 	0.9998	0.6281	0.7539	0.055
Mof_H 	H 	0.0957	0.6951	0.8353	0.033
Mof_H 	H 	0.1506	0.6233	0.8903	0.038
Mof_H 	H 	0.9943	0.3528	0.26883	0.015
Mof_H 	H 	0.1042	0.4534	0.21243	0.08
Mof_H 	H 	0.0499	0.628	0.26793	0.076
Mof_H 	H 	0.9397	0.5213	0.32683	-0.012
Mof_H 	H 	0.1497	0.5378	0.12373	0.05
Mof_H 	H 	0.3357	0.7773	0.09943	0.064
Mof_H 	H 	0.1894	0.7124	0.25443	0.046
Mof_H 	H 	0.3235	0.5085	0.06063	0.068
Mof_H 	H 	0.4537	0.5213	0.08353	0.029
Mof_H 	H 	0.5763	0.6517	0.07433	0.047
Mof_H 	H 	0.5687	0.7693	0.04233	0.03
Mof_H 	H 	0.4385	0.7565	0.01943	0.06
Mof_H 	H 	0.3635	0.696	0.91293	0.058
Mof_H 	H 	0.3678	0.7952	0.84223	0.034
Mof_H 	H 	0.296	0.8572	0.85653	0.055
Mof_H 	H 	0.2251	0.8471	0.95113	0.031
Mof_H 	H 	0.2009	0.7341	0.02013	0.054
Mof_H 	H 	0.2507	0.8695	0.10013	0.056
Mof_H 	H 	0.1855	0.9388	0.06793	0.031
Mof_H 	H 	0.1708	0.0338	0.13693	0.058
Mof_H 	H 	0.2185	0.0444	0.24033	0.033
Mof_H 	H 	0.2911	0.9834	0.27393	0.052
Mof_H 	H 	0.404	0.9862	0.11573	0.055
Mof_H 	H 	0.5307	0.0412	0.06073	0.034
Mof_H 	H 	0.6283	0.0002	0.08723	0.051
Mof_H 	H 	0.5994	0.9043	0.16863	0.035
Mof_H 	H 	0.4727	0.8494	0.22363	0.037
Mof_H 	H 	0.3585	0.0057	0.60217	0.017
Mof_H 	H 	0.3492	0.8958	0.54577	0.079
Mof_H 	H 	0.5781	0.9501	0.60127	0.076
Mof_H 	H 	0.5816	0.0603	0.66017	-0.012
Mof_H 	H 	0.3881	0.8503	0.45707	0.049
Mof_H 	H 	0.4416	0.6643	0.43277	0.064
Mof_H 	H 	0.523	0.8106	0.58777	0.046
Mof_H 	H 	0.185	0.6765	0.39397	0.068
Mof_H 	H 	0.0676	0.5463	0.41687	0.029
Mof_H 	H 	0.0754	0.4237	0.40767	0.047
Mof_H 	H 	0.2006	0.4313	0.37567	0.03
Mof_H 	H 	0.318	0.5615	0.35277	0.06
Mof_H 	H 	0.3325	0.6365	0.24627	0.058
Mof_H 	H 	0.4274	0.6322	0.17557	0.035
Mof_H 	H 	0.5612	0.704	0.18987	0.055
Mof_H 	H 	0.622	0.7749	0.28447	0.032
Mof_H 	H 	0.5332	0.7991	0.35347	0.053
Mof_H 	H 	0.6188	0.7493	0.43347	0.056
Mof_H 	H 	0.7533	0.8145	0.40127	0.031
Mof_H 	H 	0.863	0.8292	0.47027	0.058
Mof_H 	H 	0.8259	0.7815	0.57367	0.033
Mof_H 	H 	0.6923	0.7089	0.60727	0.052
Mof_H 	H 	0.5822	0.596	0.44907	0.055
Mof_H 	H 	0.5105	0.4693	0.39407	0.034
Mof_H 	H 	0.3719	0.3717	0.42057	0.052
Mof_H 	H 	0.3049	0.4006	0.50197	0.035
Mof_H 	H 	0.3767	0.5273	0.55697	0.037
Mof_H 	H 	0.0057	0.3585	0.0645	0.02
Mof_H 	H 	0.8958	0.3492	0.1209	0.078
Mof_H 	H 	0.9501	0.5781	0.0654	0.076
Mof_H 	H 	0.0603	0.5816	0.0065	-0.012
Mof_H 	H 	0.8503	0.3881	0.2096	0.049
Mof_H 	H 	0.6643	0.4416	0.2339	0.064
Mof_H 	H 	0.8106	0.523	0.0789	0.045
Mof_H 	H 	0.6765	0.185	0.2727	0.068
Mof_H 	H 	0.5463	0.0676	0.2498	0.029
Mof_H 	H 	0.4237	0.0754	0.259	0.047
Mof_H 	H 	0.4313	0.2006	0.291	0.03
Mof_H 	H 	0.5615	0.318	0.3139	0.06
Mof_H 	H 	0.6365	0.3325	0.4204	0.058
Mof_H 	H 	0.6322	0.4274	0.4911	0.035
Mof_H 	H 	0.704	0.5612	0.4768	0.055
Mof_H 	H 	0.7749	0.622	0.3822	0.032
Mof_H 	H 	0.7991	0.5332	0.3132	0.052
Mof_H 	H 	0.7493	0.6188	0.2332	0.056
Mof_H 	H 	0.8145	0.7533	0.2654	0.031
Mof_H 	H 	0.8292	0.863	0.1964	0.058
Mof_H 	H 	0.7815	0.8259	0.093	0.033
Mof_H 	H 	0.7089	0.6923	0.0594	0.052
Mof_H 	H 	0.596	0.5822	0.2176	0.055
Mof_H 	H 	0.4693	0.5105	0.2726	0.034
Mof_H 	H 	0.3717	0.3719	0.2461	0.052
Mof_H 	H 	0.4006	0.3049	0.1647	0.035
Mof_H 	H 	0.5273	0.3767	0.1097	0.037
Mof_H 	H 	0.6415	0.6472	0.73117	0.017
Mof_H 	H 	0.6508	0.5466	0.78757	0.079
Mof_H 	H 	0.4219	0.372	0.73207	0.076
Mof_H 	H 	0.4184	0.4787	0.67317	-0.012
Mof_H 	H 	0.6119	0.4622	0.87627	0.049
Mof_H 	H 	0.5584	0.2227	0.90057	0.064
Mof_H 	H 	0.477	0.2876	0.74557	0.046
Mof_H 	H 	0.815	0.4915	0.93937	0.068
Mof_H 	H 	0.9324	0.4787	0.91647	0.03
Mof_H 	H 	0.9246	0.3483	0.92567	0.047
Mof_H 	H 	0.7994	0.2307	0.95767	0.03
Mof_H 	H 	0.682	0.2435	0.98057	0.06
Mof_H 	H 	0.6675	0.304	0.08707	0.058
Mof_H 	H 	0.5726	0.2048	0.15777	0.035
Mof_H 	H 	0.4388	0.1428	0.14347	0.055
Mof_H 	H 	0.378	0.1529	0.04887	0.032
Mof_H 	H 	0.4668	0.2659	0.97987	0.053
Mof_H 	H 	0.3812	0.1305	0.89987	0.056
Mof_H 	H 	0.2467	0.0612	0.93207	0.03
Mof_H 	H 	0.137	0.9662	0.86307	0.058
Mof_H 	H 	0.1741	0.9556	0.75967	0.033
Mof_H 	H 	0.3077	0.0166	0.72607	0.052
Mof_H 	H 	0.4178	0.0138	0.88427	0.055
Mof_H 	H 	0.4895	0.9588	0.93927	0.035
Mof_H 	H 	0.6281	0.9998	0.91277	0.052
Mof_H 	H 	0.6951	0.0957	0.83137	0.035
Mof_H 	H 	0.6233	0.1506	0.77637	0.037
Mof_H 	H 	0.3528	0.9943	0.39783	0.017
Mof_H 	H 	0.4534	0.1042	0.45423	0.079
Mof_H 	H 	0.628	0.0499	0.39873	0.076
Mof_H 	H 	0.5213	0.9397	0.33983	-0.012
Mof_H 	H 	0.5378	0.1497	0.54293	0.049
Mof_H 	H 	0.7773	0.3357	0.56723	0.064
Mof_H 	H 	0.7124	0.1894	0.41223	0.046
Mof_H 	H 	0.5085	0.3235	0.60603	0.068
Mof_H 	H 	0.5213	0.4537	0.58313	0.029
Mof_H 	H 	0.6517	0.5763	0.59233	0.047
Mof_H 	H 	0.7693	0.5687	0.62433	0.03
Mof_H 	H 	0.7565	0.4385	0.64723	0.06
Mof_H 	H 	0.696	0.3635	0.75373	0.058
Mof_H 	H 	0.7952	0.3678	0.82443	0.035
Mof_H 	H 	0.8572	0.296	0.81013	0.055
Mof_H 	H 	0.8471	0.2251	0.71553	0.032
Mof_H 	H 	0.7341	0.2009	0.64653	0.053
Mof_H 	H 	0.8695	0.2507	0.56653	0.056
Mof_H 	H 	0.9388	0.1855	0.59873	0.031
Mof_H 	H 	0.0338	0.1708	0.52973	0.058
Mof_H 	H 	0.0444	0.2185	0.42633	0.033
Mof_H 	H 	0.9834	0.2911	0.39273	0.052
Mof_H 	H 	0.9862	0.404	0.55093	0.055
Mof_H 	H 	0.0412	0.5307	0.60593	0.034
Mof_H 	H 	0.0002	0.6283	0.57943	0.052
Mof_H 	H 	0.9043	0.5994	0.49803	0.035
Mof_H 	H 	0.8494	0.4727	0.44303	0.037
Mof_C 	C 	0.592	0.5945	0.9351	0.068
Mof_C 	C 	0.5303	0.6002	0.9013	-0.126
Mof_C 	C 	0.4504	0.5403	0.8976	0.062
Mof_C 	C 	0.428	0.4675	0.9334	-0.117
Mof_C 	C 	0.4941	0.466	0.9677	0.055
Mof_C 	C 	0.3847	0.5441	0.8623	0.03
Mof_C 	C 	0.4061	0.5873	0.8052	-0.1
Mof_C 	C 	0.3479	0.5951	0.7698	0.016
Mof_C 	C 	0.2641	0.557	0.7919	-0.087
Mof_C 	C 	0.2408	0.5182	0.8492	0.007
Mof_C 	C 	0.3031	0.5085	0.8833	-0.103
Mof_C 	C 	0.3687	0.7374	0.7046	0.017
Mof_C 	C 	0.4385	0.8117	0.7236	-0.097
Mof_C 	C 	0.4309	0.8815	0.7372	0.006
Mof_C 	C 	0.3535	0.8769	0.7318	-0.073
Mof_C 	C 	0.2837	0.8026	0.7127	-0.002
Mof_C 	C 	0.2912	0.7328	0.6991	-0.081
Mof_C 	C 	0.2942	0.5737	0.6424	-0.005
Mof_C 	C 	0.2764	0.6088	0.587	-0.088
Mof_C 	C 	0.2173	0.552	0.5457	0.006
Mof_C 	C 	0.1795	0.4742	0.555	-0.074
Mof_C 	C 	0.188	0.4361	0.6096	-0.011
Mof_C 	C 	0.2524	0.4899	0.6519	-0.081
Mof_C 	C 	0.0884	0.3625	0.8606	0.007
Mof_C 	C 	0.0952	0.3386	0.7956	-0.074
Mof_C 	C 	0.0536	0.2598	0.7764	-0.004
Mof_C 	C 	0.9972	0.1937	0.8173	-0.073
Mof_C 	C 	0.9903	0.2174	0.8785	0.008
Mof_C 	C 	0.0286	0.2958	0.8998	-0.085
Mof_C 	C 	0.0874	0.5138	0.8415	0.004
Mof_C 	C 	0.0304	0.4741	0.7932	-0.078
Mof_C 	C 	0.9977	0.5166	0.7605	-0.006
Mof_C 	C 	0.0221	0.599	0.7762	-0.07
Mof_C 	C 	0.079	0.6387	0.8246	-0.004
Mof_C 	C 	0.1117	0.5962	0.8572	-0.082
Mof_C 	C 	0.0025	0.408	0.26843	0.071
Mof_C 	C 	0.0699	0.4697	0.23463	-0.128
Mof_C 	C 	0.0899	0.5496	0.23093	0.063
Mof_C 	C 	0.0395	0.572	0.26673	-0.116
Mof_C 	C 	0.9719	0.5059	0.30103	0.053
Mof_C 	C 	0.1594	0.6153	0.19563	0.03
Mof_C 	C 	0.1812	0.5939	0.13853	-0.099
Mof_C 	C 	0.2472	0.6521	0.10313	0.016
Mof_C 	C 	0.2929	0.7359	0.12523	-0.087
Mof_C 	C 	0.2774	0.7592	0.18253	0.007
Mof_C 	C 	0.2054	0.6969	0.21663	-0.103
Mof_C 	C 	0.3687	0.6313	0.03793	0.018
Mof_C 	C 	0.3732	0.5615	0.05693	-0.097
Mof_C 	C 	0.4506	0.5691	0.07053	0.006
Mof_C 	C 	0.5234	0.6465	0.06513	-0.073
Mof_C 	C 	0.5189	0.7163	0.04603	-0.002
Mof_C 	C 	0.4416	0.7088	0.03243	-0.081
Mof_C 	C 	0.2795	0.7058	0.97573	-0.005
Mof_C 	C 	0.3324	0.7236	0.92033	-0.089
Mof_C 	C 	0.3347	0.7827	0.87903	0.007
Mof_C 	C 	0.2947	0.8205	0.88833	-0.075
Mof_C 	C 	0.2481	0.812	0.94293	-0.01
Mof_C 	C 	0.2375	0.7476	0.98523	-0.083
Mof_C 	C 	0.2741	0.9116	0.19393	0.007
Mof_C 	C 	0.2434	0.9048	0.12893	-0.074
Mof_C 	C 	0.2062	0.9464	0.10973	-0.003
Mof_C 	C 	0.1965	0.0028	0.15063	-0.073
Mof_C 	C 	0.2271	0.0097	0.21183	0.006
Mof_C 	C 	0.2672	0.9714	0.23313	-0.082
Mof_C 	C 	0.4264	0.9126	0.17483	0.002
Mof_C 	C 	0.4437	0.9696	0.12653	-0.073
Mof_C 	C 	0.5189	0.0023	0.09383	-0.014
Mof_C 	C 	0.5769	0.9779	0.10953	-0.062
Mof_C 	C 	0.5597	0.921	0.15793	-0.009
Mof_C 	C 	0.4845	0.8883	0.19053	-0.078
Mof_C 	C 	0.4055	0.9975	0.60177	0.068
Mof_C 	C 	0.3998	0.9301	0.56797	-0.126
Mof_C 	C 	0.4597	0.9101	0.56427	0.062
Mof_C 	C 	0.5325	0.9605	0.60007	-0.117
Mof_C 	C 	0.534	0.0281	0.63437	0.055
Mof_C 	C 	0.4559	0.8406	0.52897	0.03
Mof_C 	C 	0.4127	0.8188	0.47187	-0.1
Mof_C 	C 	0.4049	0.7528	0.43647	0.016
Mof_C 	C 	0.443	0.7071	0.45857	-0.087
Mof_C 	C 	0.4818	0.7226	0.51587	0.007
Mof_C 	C 	0.4915	0.7946	0.54997	-0.103
Mof_C 	C 	0.2626	0.6313	0.37127	0.017
Mof_C 	C 	0.1883	0.6268	0.39027	-0.097
Mof_C 	C 	0.1185	0.5494	0.40387	0.006
Mof_C 	C 	0.1231	0.4766	0.39847	-0.073
Mof_C 	C 	0.1974	0.4811	0.37937	-0.002
Mof_C 	C 	0.2672	0.5584	0.36577	-0.081
Mof_C 	C 	0.4263	0.7205	0.30907	-0.005
Mof_C 	C 	0.3912	0.6676	0.25367	-0.088
Mof_C 	C 	0.448	0.6653	0.21237	0.006
Mof_C 	C 	0.5258	0.7053	0.22167	-0.074
Mof_C 	C 	0.5639	0.7519	0.27627	-0.011
Mof_C 	C 	0.5101	0.7625	0.31857	-0.081
Mof_C 	C 	0.6375	0.7259	0.52727	0.007
Mof_C 	C 	0.6614	0.7566	0.46227	-0.074
Mof_C 	C 	0.7402	0.7938	0.44307	-0.003
Mof_C 	C 	0.8063	0.8035	0.48397	-0.073
Mof_C 	C 	0.7826	0.7729	0.54517	0.006
Mof_C 	C 	0.7042	0.7328	0.56647	-0.082
Mof_C 	C 	0.4862	0.5736	0.50817	0.002
Mof_C 	C 	0.5259	0.5563	0.45987	-0.073
Mof_C 	C 	0.4834	0.4811	0.42717	-0.012
Mof_C 	C 	0.401	0.4231	0.44287	-0.063
Mof_C 	C 	0.3613	0.4403	0.49127	-0.008
Mof_C 	C 	0.4038	0.5155	0.52387	-0.079
Mof_C 	C 	0.9975	0.4055	0.0649	0.062
Mof_C 	C 	0.9301	0.3998	0.0987	-0.124
Mof_C 	C 	0.9101	0.4597	0.1024	0.061
Mof_C 	C 	0.9605	0.5325	0.0666	-0.119
Mof_C 	C 	0.0281	0.534	0.0323	0.057
Mof_C 	C 	0.8406	0.4559	0.1377	0.03
Mof_C 	C 	0.8188	0.4127	0.1948	-0.1
Mof_C 	C 	0.7528	0.4049	0.2302	0.016
Mof_C 	C 	0.7071	0.443	0.2081	-0.087
Mof_C 	C 	0.7226	0.4818	0.1508	0.007
Mof_C 	C 	0.7946	0.4915	0.1167	-0.103
Mof_C 	C 	0.6313	0.2626	0.2954	0.017
Mof_C 	C 	0.6268	0.1883	0.2764	-0.097
Mof_C 	C 	0.5494	0.1185	0.2628	0.006
Mof_C 	C 	0.4766	0.1231	0.2682	-0.073
Mof_C 	C 	0.4811	0.1974	0.2873	-0.002
Mof_C 	C 	0.5584	0.2672	0.3009	-0.081
Mof_C 	C 	0.7205	0.4263	0.3576	-0.005
Mof_C 	C 	0.6676	0.3912	0.413	-0.088
Mof_C 	C 	0.6653	0.448	0.4543	0.006
Mof_C 	C 	0.7053	0.5258	0.445	-0.074
Mof_C 	C 	0.7519	0.5639	0.3904	-0.011
Mof_C 	C 	0.7625	0.5101	0.3481	-0.081
Mof_C 	C 	0.7259	0.6375	0.1394	0.007
Mof_C 	C 	0.7566	0.6614	0.2044	-0.074
Mof_C 	C 	0.7938	0.7402	0.2236	-0.003
Mof_C 	C 	0.8035	0.8063	0.1827	-0.073
Mof_C 	C 	0.7729	0.7826	0.1215	0.006
Mof_C 	C 	0.7328	0.7042	0.1002	-0.083
Mof_C 	C 	0.5736	0.4862	0.1585	0.002
Mof_C 	C 	0.5563	0.5259	0.2068	-0.073
Mof_C 	C 	0.4811	0.4834	0.2395	-0.012
Mof_C 	C 	0.4231	0.401	0.2238	-0.063
Mof_C 	C 	0.4403	0.3613	0.1754	-0.008
Mof_C 	C 	0.5155	0.4038	0.1428	-0.079
Mof_C 	C 	0.5945	0.592	0.73157	0.068
Mof_C 	C 	0.6002	0.5303	0.76537	-0.126
Mof_C 	C 	0.5403	0.4504	0.76907	0.062
Mof_C 	C 	0.4675	0.428	0.73327	-0.117
Mof_C 	C 	0.466	0.4941	0.69897	0.055
Mof_C 	C 	0.5441	0.3847	0.80437	0.03
Mof_C 	C 	0.5873	0.4061	0.86147	-0.099
Mof_C 	C 	0.5951	0.3479	0.89687	0.016
Mof_C 	C 	0.557	0.2641	0.87477	-0.087
Mof_C 	C 	0.5182	0.2408	0.81747	0.007
Mof_C 	C 	0.5085	0.3031	0.78337	-0.103
Mof_C 	C 	0.7374	0.3687	0.96207	0.018
Mof_C 	C 	0.8117	0.4385	0.94307	-0.097
Mof_C 	C 	0.8815	0.4309	0.92947	0.007
Mof_C 	C 	0.8769	0.3535	0.93487	-0.073
Mof_C 	C 	0.8026	0.2837	0.95397	-0.002
Mof_C 	C 	0.7328	0.2912	0.96757	-0.081
Mof_C 	C 	0.5737	0.2942	0.02427	-0.006
Mof_C 	C 	0.6088	0.2764	0.07967	-0.088
Mof_C 	C 	0.552	0.2173	0.12097	0.005
Mof_C 	C 	0.4742	0.1795	0.11167	-0.074
Mof_C 	C 	0.4361	0.188	0.05707	-0.011
Mof_C 	C 	0.4899	0.2524	0.01477	-0.081
Mof_C 	C 	0.3625	0.0884	0.80607	0.007
Mof_C 	C 	0.3386	0.0952	0.87107	-0.074
Mof_C 	C 	0.2598	0.0536	0.89027	-0.003
Mof_C 	C 	0.1937	0.9972	0.84937	-0.073
Mof_C 	C 	0.2174	0.9903	0.78817	0.006
Mof_C 	C 	0.2958	0.0286	0.76687	-0.082
Mof_C 	C 	0.5138	0.0874	0.82517	0.002
Mof_C 	C 	0.4741	0.0304	0.87347	-0.073
Mof_C 	C 	0.5166	0.9977	0.90617	-0.013
Mof_C 	C 	0.599	0.0221	0.89047	-0.063
Mof_C 	C 	0.6387	0.079	0.84207	-0.008
Mof_C 	C 	0.5962	0.1117	0.80947	-0.078
Mof_C 	C 	0.408	0.0025	0.39823	0.068
Mof_C 	C 	0.4697	0.0699	0.43203	-0.126
Mof_C 	C 	0.5496	0.0899	0.43573	0.062
Mof_C 	C 	0.572	0.0395	0.39993	-0.117
Mof_C 	C 	0.5059	0.9719	0.36563	0.055
Mof_C 	C 	0.6153	0.1594	0.47103	0.03
Mof_C 	C 	0.5939	0.1812	0.52813	-0.1
Mof_C 	C 	0.6521	0.2472	0.56353	0.016
Mof_C 	C 	0.7359	0.2929	0.54143	-0.087
Mof_C 	C 	0.7592	0.2774	0.48413	0.007
Mof_C 	C 	0.6969	0.2054	0.45003	-0.103
Mof_C 	C 	0.6313	0.3687	0.62873	0.017
Mof_C 	C 	0.5615	0.3732	0.60973	-0.097
Mof_C 	C 	0.5691	0.4506	0.59613	0.006
Mof_C 	C 	0.6465	0.5234	0.60153	-0.073
Mof_C 	C 	0.7163	0.5189	0.62063	-0.002
Mof_C 	C 	0.7088	0.4416	0.63423	-0.081
Mof_C 	C 	0.7058	0.2795	0.69093	-0.005
Mof_C 	C 	0.7236	0.3324	0.74633	-0.088
Mof_C 	C 	0.7827	0.3347	0.78763	0.006
Mof_C 	C 	0.8205	0.2947	0.77833	-0.074
Mof_C 	C 	0.812	0.2481	0.72373	-0.011
Mof_C 	C 	0.7476	0.2375	0.68143	-0.081
Mof_C 	C 	0.9116	0.2741	0.47273	0.007
Mof_C 	C 	0.9048	0.2434	0.53773	-0.074
Mof_C 	C 	0.9464	0.2062	0.55693	-0.003
Mof_C 	C 	0.0028	0.1965	0.51603	-0.074
Mof_C 	C 	0.0097	0.2271	0.45483	0.007
Mof_C 	C 	0.9714	0.2672	0.43353	-0.083
Mof_C 	C 	0.9126	0.4264	0.49183	0.002
Mof_C 	C 	0.9696	0.4437	0.54013	-0.073
Mof_C 	C 	0.0023	0.5189	0.57283	-0.013
Mof_C 	C 	0.9779	0.5769	0.55713	-0.062
Mof_C 	C 	0.921	0.5597	0.50873	-0.009
Mof_C 	C 	0.8883	0.4845	0.47613	-0.078
Mof_N 	N 	0.5771	0.526	0.9671	-0.238
Mof_N 	N 	0.9489	0.4229	0.30043	-0.239
Mof_N 	N 	0.474	0.0511	0.63377	-0.238
Mof_N 	N 	0.0511	0.474	0.0329	-0.237
Mof_N 	N 	0.526	0.5771	0.69957	-0.238
Mof_N 	N 	0.4229	0.9489	0.36623	-0.238
Mof_Cl	Cl	0.6213	0.7834	0.7059	-0.471
Mof_Cl	Cl	0.1621	0.3787	0.03923	-0.47
Mof_Cl	Cl	0.2166	0.8379	0.37257	-0.471
Mof_Cl	Cl	0.8379	0.2166	0.2941	-0.471
Mof_Cl	Cl	0.7834	0.6213	0.96077	-0.47
Mof_Cl	Cl	0.3787	0.1621	0.62743	-0.471
_end
