# CIF file generated by openbabel 3.1.0, see https://openbabel.org
data_I
_chemical_name_common 'image0'
_cell_length_a 17.859
_cell_length_b 17.086
_cell_length_c 7.9378
_cell_angle_alpha 90
_cell_angle_beta 111.577
_cell_angle_gamma 90
_space_group_name_H-M_alt 'P 1'
_space_group_name_Hall 'P 1'
loop_
    _symmetry_equiv_pos_as_xyz
    x,y,z
loop_
    _atom_site_label
    _atom_site_type_symbol
    _atom_site_fract_x
    _atom_site_fract_y
    _atom_site_fract_z
    _atom_site_occupancy
    O1       O        0.32340    0.19050    0.20800    1.000
    O2       O        0.25940    0.09270    0.01600    1.000
    O3       O        0.42980    0.07450    0.39100    1.000
    O4       O        0.24280    0.07100    0.06900    1.000
    O5       O        0.31630    0.17110    0.16600    1.000
    C1       C        0.31300    0.12290    0.16700    1.000
    C2       C        0.37080    0.05900    0.28800    1.000
    C3       C        0.44920    0.09820    0.39400    1.000
    H1       H        0.45370    0.15410    0.38890    1.000
    C4       C        0.51850    0.05180    0.50900    1.000
    H2       H        0.56810    0.07730    0.57890    1.000
    C5       C        0.49040    0.02590    0.48660    1.000
    C6       C        0.56100    0.06170    0.58440    1.000
    H3       H        0.56550    0.11760    0.57960    1.000
    C7       C        0.37410    0.98130    0.30870    1.000
    H4       H        0.32450    0.95580    0.23840    1.000
    C8       C        0.36700    0.03700    0.26900    1.000
    H5       H        0.37940    0.00130    0.19050    1.000
    H6       H        0.34030    0.00930    0.33630    1.000
    C9       C        0.30500    0.10110    0.15500    1.000
    N1       N        0.16060    0.23910    0.09430    1.000
    C10      C        0.17040    0.25780    0.26210    1.000
    H7       H        0.22140    0.27330    0.33920    1.000
    C11      C        0.10940    0.25570    0.33070    1.000
    H8       H        0.11960    0.26960    0.45040    1.000
    C12      C        0.03420    0.23280    0.21960    1.000
    C13      C        0.02430    0.21230    0.04400    1.000
    H9       H        0.97440    0.19560    0.96360    1.000
    C14      C        0.08890    0.21700    0.98920    1.000
    H10      H        0.08080    0.20360    0.87020    1.000
    O6       O        0.82340    0.69050    0.20800    1.000
    O7       O        0.75940    0.59270    0.01600    1.000
    O8       O        0.92980    0.57450    0.39100    1.000
    O9       O        0.74280    0.57100    0.06900    1.000
    O10      O        0.81630    0.67110    0.16600    1.000
    C15      C        0.81300    0.62290    0.16700    1.000
    C16      C        0.87080    0.55900    0.28800    1.000
    C17      C        0.94920    0.59820    0.39400    1.000
    H11      H        0.95370    0.65410    0.38890    1.000
    C18      C        0.01850    0.55180    0.50900    1.000
    H12      H        0.06810    0.57730    0.57890    1.000
    C19      C        0.99040    0.52590    0.48660    1.000
    C20      C        0.06100    0.56170    0.58440    1.000
    H13      H        0.06550    0.61760    0.57960    1.000
    C21      C        0.87410    0.48130    0.30870    1.000
    H14      H        0.82450    0.45580    0.23840    1.000
    C22      C        0.86700    0.53700    0.26900    1.000
    H15      H        0.87940    0.50130    0.19050    1.000
    H16      H        0.84030    0.50930    0.33630    1.000
    C23      C        0.80500    0.60110    0.15500    1.000
    N2       N        0.66060    0.73910    0.09430    1.000
    C24      C        0.67040    0.75780    0.26210    1.000
    H17      H        0.72140    0.77330    0.33920    1.000
    C25      C        0.60940    0.75570    0.33070    1.000
    H18      H        0.61960    0.76960    0.45040    1.000
    C26      C        0.53420    0.73280    0.21960    1.000
    C27      C        0.52430    0.71230    0.04400    1.000
    H19      H        0.47440    0.69560    0.96360    1.000
    C28      C        0.58890    0.71700    0.98920    1.000
    H20      H        0.58080    0.70360    0.87020    1.000
    O11      O        0.67660    0.19050    0.29200    1.000
    O12      O        0.74060    0.09270    0.48400    1.000
    O13      O        0.57020    0.07450    0.10900    1.000
    O14      O        0.75720    0.07100    0.43100    1.000
    O15      O        0.68370    0.17110    0.33400    1.000
    C29      C        0.68700    0.12290    0.33300    1.000
    C30      C        0.62920    0.05900    0.21200    1.000
    C31      C        0.55080    0.09820    0.10600    1.000
    H21      H        0.54630    0.15410    0.11110    1.000
    C32      C        0.48150    0.05180    0.99100    1.000
    H22      H        0.43190    0.07730    0.92110    1.000
    C33      C        0.50960    0.02590    0.01340    1.000
    C34      C        0.43900    0.06170    0.91560    1.000
    H23      H        0.43450    0.11760    0.92040    1.000
    C35      C        0.62590    0.98130    0.19130    1.000
    H24      H        0.67550    0.95580    0.26160    1.000
    C36      C        0.63300    0.03700    0.23100    1.000
    H25      H        0.62060    0.00130    0.30950    1.000
    H26      H        0.65970    0.00930    0.16370    1.000
    C37      C        0.69500    0.10110    0.34500    1.000
    N3       N        0.83940    0.23910    0.40570    1.000
    C38      C        0.82960    0.25780    0.23790    1.000
    H27      H        0.77860    0.27330    0.16080    1.000
    C39      C        0.89060    0.25570    0.16930    1.000
    H28      H        0.88040    0.26960    0.04960    1.000
    C40      C        0.96580    0.23280    0.28040    1.000
    C41      C        0.97570    0.21230    0.45600    1.000
    H29      H        0.02560    0.19560    0.53640    1.000
    C42      C        0.91110    0.21700    0.51080    1.000
    H30      H        0.91920    0.20360    0.62980    1.000
    O16      O        0.17660    0.69050    0.29200    1.000
    O17      O        0.24060    0.59270    0.48400    1.000
    O18      O        0.07020    0.57450    0.10900    1.000
    O19      O        0.25720    0.57100    0.43100    1.000
    O20      O        0.18370    0.67110    0.33400    1.000
    C43      C        0.18700    0.62290    0.33300    1.000
    C44      C        0.12920    0.55900    0.21200    1.000
    C45      C        0.05080    0.59820    0.10600    1.000
    H31      H        0.04630    0.65410    0.11110    1.000
    C46      C        0.98150    0.55180    0.99100    1.000
    H32      H        0.93190    0.57730    0.92110    1.000
    C47      C        0.00960    0.52590    0.01340    1.000
    C48      C        0.93900    0.56170    0.91560    1.000
    H33      H        0.93450    0.61760    0.92040    1.000
    C49      C        0.12590    0.48130    0.19130    1.000
    H34      H        0.17550    0.45580    0.26160    1.000
    C50      C        0.13300    0.53700    0.23100    1.000
    H35      H        0.12060    0.50130    0.30950    1.000
    H36      H        0.15970    0.50930    0.16370    1.000
    C51      C        0.19500    0.60110    0.34500    1.000
    N4       N        0.33940    0.73910    0.40570    1.000
    C52      C        0.32960    0.75780    0.23790    1.000
    H37      H        0.27860    0.77330    0.16080    1.000
    C53      C        0.39060    0.75570    0.16930    1.000
    H38      H        0.38040    0.76960    0.04960    1.000
    C54      C        0.46580    0.73280    0.28040    1.000
    C55      C        0.47570    0.71230    0.45600    1.000
    H39      H        0.52560    0.69560    0.53640    1.000
    C56      C        0.41110    0.71700    0.51080    1.000
    H40      H        0.41920    0.70360    0.62980    1.000
    O21      O        0.67660    0.80950    0.79200    1.000
    O22      O        0.74060    0.90730    0.98400    1.000
    O23      O        0.57020    0.92550    0.60900    1.000
    O24      O        0.75720    0.92900    0.93100    1.000
    O25      O        0.68370    0.82890    0.83400    1.000
    C57      C        0.68700    0.87710    0.83300    1.000
    C58      C        0.62920    0.94100    0.71200    1.000
    C59      C        0.55080    0.90180    0.60600    1.000
    H41      H        0.54630    0.84590    0.61110    1.000
    C60      C        0.48150    0.94820    0.49100    1.000
    H42      H        0.43190    0.92270    0.42110    1.000
    C61      C        0.50960    0.97410    0.51340    1.000
    C62      C        0.43900    0.93830    0.41560    1.000
    H43      H        0.43450    0.88240    0.42040    1.000
    C63      C        0.62590    0.01870    0.69130    1.000
    H44      H        0.67550    0.04420    0.76160    1.000
    C64      C        0.63300    0.96300    0.73100    1.000
    H45      H        0.62060    0.99870    0.80950    1.000
    H46      H        0.65970    0.99070    0.66370    1.000
    C65      C        0.69500    0.89890    0.84500    1.000
    N5       N        0.83940    0.76090    0.90570    1.000
    C66      C        0.82960    0.74220    0.73790    1.000
    H47      H        0.77860    0.72670    0.66080    1.000
    C67      C        0.89060    0.74430    0.66930    1.000
    H48      H        0.88040    0.73040    0.54960    1.000
    C68      C        0.96580    0.76720    0.78040    1.000
    C69      C        0.97570    0.78770    0.95600    1.000
    H49      H        0.02560    0.80440    0.03640    1.000
    C70      C        0.91110    0.78300    0.01080    1.000
    H50      H        0.91920    0.79640    0.12980    1.000
    O26      O        0.17660    0.30950    0.79200    1.000
    O27      O        0.24060    0.40730    0.98400    1.000
    O28      O        0.07020    0.42550    0.60900    1.000
    O29      O        0.25720    0.42900    0.93100    1.000
    O30      O        0.18370    0.32890    0.83400    1.000
    C71      C        0.18700    0.37710    0.83300    1.000
    C72      C        0.12920    0.44100    0.71200    1.000
    C73      C        0.05080    0.40180    0.60600    1.000
    H51      H        0.04630    0.34590    0.61110    1.000
    C74      C        0.98150    0.44820    0.49100    1.000
    H52      H        0.93190    0.42270    0.42110    1.000
    C75      C        0.00960    0.47410    0.51340    1.000
    C76      C        0.93900    0.43830    0.41560    1.000
    H53      H        0.93450    0.38240    0.42040    1.000
    C77      C        0.12590    0.51870    0.69130    1.000
    H54      H        0.17550    0.54420    0.76160    1.000
    C78      C        0.13300    0.46300    0.73100    1.000
    H55      H        0.12060    0.49870    0.80950    1.000
    H56      H        0.15970    0.49070    0.66370    1.000
    C79      C        0.19500    0.39890    0.84500    1.000
    N6       N        0.33940    0.26090    0.90570    1.000
    C80      C        0.32960    0.24220    0.73790    1.000
    H57      H        0.27860    0.22670    0.66080    1.000
    C81      C        0.39060    0.24430    0.66930    1.000
    H58      H        0.38040    0.23040    0.54960    1.000
    C82      C        0.46580    0.26720    0.78040    1.000
    C83      C        0.47570    0.28770    0.95600    1.000
    H59      H        0.52560    0.30440    0.03640    1.000
    C84      C        0.41110    0.28300    0.01080    1.000
    H60      H        0.41920    0.29640    0.12980    1.000
    O31      O        0.32340    0.80950    0.70800    1.000
    O32      O        0.25940    0.90730    0.51600    1.000
    O33      O        0.42980    0.92550    0.89100    1.000
    O34      O        0.24280    0.92900    0.56900    1.000
    O35      O        0.31630    0.82890    0.66600    1.000
    C85      C        0.31300    0.87710    0.66700    1.000
    C86      C        0.37080    0.94100    0.78800    1.000
    C87      C        0.44920    0.90180    0.89400    1.000
    H61      H        0.45370    0.84590    0.88890    1.000
    C88      C        0.51850    0.94820    0.00900    1.000
    H62      H        0.56810    0.92270    0.07890    1.000
    C89      C        0.49040    0.97410    0.98660    1.000
    C90      C        0.56100    0.93830    0.08440    1.000
    H63      H        0.56550    0.88240    0.07960    1.000
    C91      C        0.37410    0.01870    0.80870    1.000
    H64      H        0.32450    0.04420    0.73840    1.000
    C92      C        0.36700    0.96300    0.76900    1.000
    H65      H        0.37940    0.99870    0.69050    1.000
    H66      H        0.34030    0.99070    0.83630    1.000
    C93      C        0.30500    0.89890    0.65500    1.000
    N7       N        0.16060    0.76090    0.59430    1.000
    C94      C        0.17040    0.74220    0.76210    1.000
    H67      H        0.22140    0.72670    0.83920    1.000
    C95      C        0.10940    0.74430    0.83070    1.000
    H68      H        0.11960    0.73040    0.95040    1.000
    C96      C        0.03420    0.76720    0.71960    1.000
    C97      C        0.02430    0.78770    0.54400    1.000
    H69      H        0.97440    0.80440    0.46360    1.000
    C98      C        0.08890    0.78300    0.48920    1.000
    H70      H        0.08080    0.79640    0.37020    1.000
    O36      O        0.82340    0.30950    0.70800    1.000
    O37      O        0.75940    0.40730    0.51600    1.000
    O38      O        0.92980    0.42550    0.89100    1.000
    O39      O        0.74280    0.42900    0.56900    1.000
    O40      O        0.81630    0.32890    0.66600    1.000
    C99      C        0.81300    0.37710    0.66700    1.000
    C100     C        0.87080    0.44100    0.78800    1.000
    C101     C        0.94920    0.40180    0.89400    1.000
    H71      H        0.95370    0.34590    0.88890    1.000
    C102     C        0.01850    0.44820    0.00900    1.000
    H72      H        0.06810    0.42270    0.07890    1.000
    C103     C        0.99040    0.47410    0.98660    1.000
    C104     C        0.06100    0.43830    0.08440    1.000
    H73      H        0.06550    0.38240    0.07960    1.000
    C105     C        0.87410    0.51870    0.80870    1.000
    H74      H        0.82450    0.54420    0.73840    1.000
    C106     C        0.86700    0.46300    0.76900    1.000
    H75      H        0.87940    0.49870    0.69050    1.000
    H76      H        0.84030    0.49070    0.83630    1.000
    C107     C        0.80500    0.39890    0.65500    1.000
    N8       N        0.66060    0.26090    0.59430    1.000
    C108     C        0.67040    0.24220    0.76210    1.000
    H77      H        0.72140    0.22670    0.83920    1.000
    C109     C        0.60940    0.24430    0.83070    1.000
    H78      H        0.61960    0.23040    0.95040    1.000
    C110     C        0.53420    0.26720    0.71960    1.000
    C111     C        0.52430    0.28770    0.54400    1.000
    H79      H        0.47440    0.30440    0.46360    1.000
    C112     C        0.58890    0.28300    0.48920    1.000
    H80      H        0.58080    0.29640    0.37020    1.000
    Cu1      Cu       0.25000    0.25000    0.00000    1.000
    Cu2      Cu       0.75000    0.25000    0.50000    1.000
    Cu3      Cu       0.75000    0.75000    0.00000    1.000
    Cu4      Cu       0.25000    0.75000    0.50000    1.000
