# CIF file generated by openbabel 3.1.0, see https://openbabel.org
data_I
_chemical_name_common 'YIWLEV_clean'
_cell_length_a 8.849
_cell_length_b 8.849
_cell_length_c 11.553
_cell_angle_alpha 67.4821
_cell_angle_beta 67.4821
_cell_angle_gamma 60
_space_group_name_H-M_alt 'P 1'
_space_group_name_Hall 'P 1'
loop_
    _symmetry_equiv_pos_as_xyz
    x,y,z
loop_
    _atom_site_label
    _atom_site_type_symbol
    _atom_site_fract_x
    _atom_site_fract_y
    _atom_site_fract_z
    _atom_site_occupancy
    Cd1      Cd       0.00000    0.00000    0.00000    1.000
    Cd2      Cd       0.40985    0.40985    0.77045    1.000
    Cd3      Cd       0.59015    0.59015    0.22955    1.000
    C1       C        0.48013    0.48013    0.55961    1.000
    C2       C        0.51987    0.51987    0.44039    1.000
    C3       C        0.25160    0.66270    0.83410    1.000
    C4       C        0.66270    0.25160    0.83410    1.000
    C5       C        0.25160    0.25160    0.83410    1.000
    C6       C        0.74840    0.74840    0.16590    1.000
    C7       C        0.33730    0.74840    0.16590    1.000
    C8       C        0.74840    0.33730    0.16590    1.000
    N1       N        0.16880    0.78600    0.87640    1.000
    N2       N        0.78600    0.16880    0.87640    1.000
    N3       N        0.16880    0.16880    0.87640    1.000
    N4       N        0.83120    0.83120    0.12360    1.000
    N5       N        0.21400    0.83120    0.12360    1.000
    N6       N        0.83120    0.21400    0.12360    1.000
