# CIF file generated by openbabel 3.1.0, see https://openbabel.org
data_I
_chemical_name_common 'ic403175w_si_002_clean'
_cell_length_a 7.2084
_cell_length_b 13.3051
_cell_length_c 13.3051
_cell_angle_alpha 63.187
_cell_angle_beta 79.5958
_cell_angle_gamma 100.404
_space_group_name_H-M_alt 'P 1'
_space_group_name_Hall 'P 1'
loop_
    _symmetry_equiv_pos_as_xyz
    x,y,z
loop_
    _atom_site_label
    _atom_site_type_symbol
    _atom_site_fract_x
    _atom_site_fract_y
    _atom_site_fract_z
    _atom_site_occupancy
    Ga1      Ga       0.03287    0.00284    0.52893    1.000
    Ga2      Ga       0.59117    0.34965    0.40085    1.000
    Ga3      Ga       0.03003    0.46823    0.00284    1.000
    Ga4      Ga       0.24152    0.24950    0.34965    1.000
    Ga5      Ga       0.03432    0.59381    0.75210    1.000
    Ga6      Ga       0.56180    0.52893    0.46823    1.000
    Ga7      Ga       0.44051    0.65409    0.59381    1.000
    Ga8      Ga       0.78642    0.75210    0.65409    1.000
    Ga9      Ga       0.99202    0.40085    0.24950    1.000
    B1       B        0.22840    0.83700    0.53280    1.000
    B2       B        0.76840    0.36790    0.59370    1.000
    B3       B        0.40050    0.03840    0.36790    1.000
    B4       B        0.39140    0.63020    0.83700    1.000
    B5       B        0.24770    0.63480    0.40970    1.000
    B6       B        0.61290    0.95550    0.63480    1.000
    B7       B        0.36210    0.59370    0.03840    1.000
    B8       B        0.26760    0.47140    0.36360    1.000
    B9       B        0.76120    0.53280    0.63020    1.000
    B10      B        0.63120    0.36360    0.16500    1.000
    B11      B        0.65740    0.40970    0.95550    1.000
    B12      B        0.12990    0.26500    0.13430    1.000
    B13      B        0.89660    0.71780    0.87800    1.000
    B14      B        0.86490    0.60070    0.26500    1.000
    B15      B        0.26420    0.13430    0.60070    1.000
    B16      B        0.77460    0.87800    0.40420    1.000
    B17      B        0.79620    0.16500    0.47140    1.000
    B18      B        0.17880    0.40420    0.71780    1.000
    H1       H        0.83800    0.85600    0.82030    1.000
    H2       H        0.36640    0.91830    0.72840    1.000
    H3       H        0.65830    0.82030    0.32370    1.000
    H4       H        0.26990    0.32010    0.65710    1.000
    H5       H        0.62819    0.05700    0.27721    1.000
    H6       H        0.18770    0.13080    0.74060    1.000
    H7       H        0.94980    0.02280    0.32010    1.000
    H8       H        0.98200    0.32370    0.85600    1.000
    H9       H        0.09480    0.72840    0.35330    1.000
    H10      H        0.92700    0.65710    0.02280    1.000
    H11      H        0.57119    0.66579    0.05700    1.000
    H12      H        0.90540    0.27721    0.66579    1.000
    H13      H        0.44810    0.35330    0.91830    1.000
    H14      H        0.92830    0.74060    0.12860    1.000
    H15      H        0.05690    0.12860    0.13080    1.000
    O1       O        0.19580    0.59390    0.85560    1.000
    O2       O        0.90170    0.70170    0.78330    1.000
    O3       O        0.05140    0.85560    0.55050    1.000
    O4       O        0.87930    0.98130    0.38870    1.000
    O5       O        0.12030    0.15000    0.16690    1.000
    O6       O        0.73230    0.88410    0.30620    1.000
    O7       O        0.13280    0.70510    0.41220    1.000
    O8       O        0.54500    0.41220    0.88270    1.000
    O9       O        0.68500    0.78330    0.51500    1.000
    O10      O        0.51180    0.33850    0.26740    1.000
    O11      O        0.56400    0.10490    0.26970    1.000
    O12      O        0.60190    0.55050    0.59390    1.000
    O13      O        0.46340    0.63470    0.92310    1.000
    O14      O        0.63190    0.07200    0.55480    1.000
    O15      O        0.77080    0.90770    0.63680    1.000
    O16      O        0.89800    0.63000    0.98130    1.000
    O17      O        0.83280    0.38610    0.14850    1.000
    O18      O        0.81010    0.85630    0.30600    1.000
    O19      O        0.44670    0.46540    0.38610    1.000
    O20      O        0.16240    0.02380    0.63180    1.000
    O21      O        0.17330    0.39410    0.33850    1.000
    O22      O        0.26800    0.38870    0.63000    1.000
    O23      O        0.26020    0.08890    0.38510    1.000
    O24      O        0.42770    0.88270    0.70510    1.000
    O25      O        0.82980    0.48460    0.29020    1.000
    O26      O        0.77920    0.26740    0.39410    1.000
    O27      O        0.45910    0.62540    0.10490    1.000
    O28      O        0.28720    0.16690    0.68310    1.000
    O29      O        0.17130    0.52600    0.08890    1.000
    O30      O        0.03850    0.30620    0.80970    1.000
    O31      O        0.97030    0.68310    0.15000    1.000
    O32      O        0.95380    0.83770    0.85630    1.000
    O33      O        0.79420    0.63180    0.34440    1.000
    O34      O        0.12000    0.29020    0.22520    1.000
    O35      O        0.55990    0.37320    0.07200    1.000
    O36      O        0.24760    0.73020    0.60770    1.000
    O37      O        0.82870    0.44220    0.63470    1.000
    O38      O        0.51740    0.66210    0.73020    1.000
    O39      O        0.84820    0.80970    0.88410    1.000
    O40      O        0.11610    0.30600    0.83770    1.000
    O41      O        0.64530    0.38510    0.52600    1.000
    O42      O        0.40760    0.63680    0.45550    1.000
    O43      O        0.13860    0.34440    0.02380    1.000
    O44      O        0.85530    0.60770    0.66210    1.000
    O45      O        0.38650    0.92310    0.44220    1.000
    O46      O        0.20000    0.51500    0.70170    1.000
    O47      O        0.34520    0.22520    0.48460    1.000
    O48      O        0.86310    0.45550    0.90770    1.000
    O49      O        0.83370    0.26970    0.62540    1.000
    O50      O        0.18670    0.55480    0.37320    1.000
    O51      O        0.98130    0.14850    0.46540    1.000
