# CIF file generated by openbabel 3.1.0, see https://openbabel.org
data_I
_chemical_name_common 'HIHFOV_clean'
_cell_length_a 9.6535
_cell_length_b 12.9132
_cell_length_c 17.2072
_cell_angle_alpha 105.774
_cell_angle_beta 90
_cell_angle_gamma 111.949
_space_group_name_H-M_alt 'P 1'
_space_group_name_Hall 'P 1'
loop_
    _symmetry_equiv_pos_as_xyz
    x,y,z
loop_
    _atom_site_label
    _atom_site_type_symbol
    _atom_site_fract_x
    _atom_site_fract_y
    _atom_site_fract_z
    _atom_site_occupancy
    Ni1      Ni       0.08261    0.05512    0.61039    1.000
    Ni2      Ni       0.97251    0.05512    0.11039    1.000
    H1       H        0.16610    0.98580    0.76310    1.000
    H2       H        0.20270    0.80560    0.76460    1.000
    H3       H        0.15710    0.68160    0.62130    1.000
    H4       H        0.04860    0.74560    0.33620    1.000
    H5       H        0.02180    0.90840    0.29700    1.000
    H6       H        0.02520    0.05720    0.42650    1.000
    H7       H        0.31350    0.70640    0.47870    1.000
    H8       H        0.30990    0.52480    0.40860    1.000
    H9       H        0.85970    0.39820    0.36730    1.000
    H10      H        0.86410    0.58200    0.43190    1.000
    H11      H        0.92080    0.26880    0.24550    1.000
    H12      H        0.20140    0.13400    0.29080    1.000
    H13      H        0.26070    0.31780    0.39910    1.000
    H14      H        0.40590    0.04180    0.61640    1.000
    H15      H        0.65350    0.20820    0.63670    1.000
    H16      H        0.60210    0.37860    0.62640    1.000
    H17      H        0.09650    0.43600    0.56060    1.000
    H18      H        0.82930    0.29940    0.52260    1.000
    H19      H        0.81220    0.11060    0.54290    1.000
    H20      H        0.49300    0.43380    0.50800    1.000
    H21      H        0.63320    0.62940    0.52210    1.000
    H22      H        0.44820    0.72060    0.72560    1.000
    H23      H        0.30020    0.52560    0.70820    1.000
    H24      H        0.84490    0.80540    0.59860    1.000
    H25      H        0.74280    0.07900    0.67640    1.000
    H26      H        0.51930    0.90880    0.68030    1.000
    H27      H        0.81970    0.98580    0.26310    1.000
    H28      H        0.60290    0.80560    0.26460    1.000
    H29      H        0.52450    0.68160    0.12130    1.000
    H30      H        0.69700    0.74560    0.83620    1.000
    H31      H        0.88660    0.90840    0.79700    1.000
    H32      H        0.03200    0.05720    0.92650    1.000
    H33      H        0.39290    0.70640    0.97870    1.000
    H34      H        0.21490    0.52480    0.90860    1.000
    H35      H        0.53850    0.39820    0.86730    1.000
    H36      H        0.71790    0.58200    0.93190    1.000
    H37      H        0.34800    0.26880    0.74550    1.000
    H38      H        0.93260    0.13400    0.79080    1.000
    H39      H        0.05710    0.31780    0.89910    1.000
    H40      H        0.63590    0.04180    0.11640    1.000
    H41      H        0.55470    0.20820    0.13670    1.000
    H42      H        0.77650    0.37860    0.12640    1.000
    H43      H        0.33950    0.43600    0.06060    1.000
    H44      H        0.47010    0.29940    0.02260    1.000
    H45      H        0.29840    0.11060    0.04290    1.000
    H46      H        0.94080    0.43380    0.00800    1.000
    H47      H        0.99620    0.62940    0.02210    1.000
    H48      H        0.27240    0.72060    0.22560    1.000
    H49      H        0.22540    0.52560    0.20820    1.000
    H50      H        0.96050    0.80540    0.09860    1.000
    H51      H        0.33620    0.07900    0.17640    1.000
    H52      H        0.38950    0.90880    0.18030    1.000
    C1       C        0.15846    0.92532    0.71699    1.000
    C2       C        0.17823    0.82326    0.71885    1.000
    C3       C        0.15408    0.75536    0.63974    1.000
    C4       C        0.12376    0.81904    0.59123    1.000
    C5       C        0.09048    0.78180    0.50630    1.000
    C6       C        0.05966    0.84392    0.45815    1.000
    C7       C        0.04685    0.81390    0.37136    1.000
    C8       C        0.03144    0.90308    0.34943    1.000
    C9       C        0.03352    0.98684    0.42379    1.000
    C10      C        0.08938    0.66394    0.46199    1.000
    C11      C        0.22252    0.64524    0.45537    1.000
    C12      C        0.22037    0.53614    0.41424    1.000
    C13      C        0.08532    0.44430    0.38163    1.000
    C14      C        0.95076    0.46054    0.38871    1.000
    C15      C        0.95373    0.57046    0.42807    1.000
    C16      C        0.99834    0.25786    0.26966    1.000
    C17      C        0.15245    0.18470    0.29470    1.000
    C18      C        0.18557    0.28614    0.35556    1.000
    C19      C        0.41876    0.11626    0.61480    1.000
    C20      C        0.55987    0.21000    0.62677    1.000
    C21      C        0.53146    0.30386    0.62091    1.000
    C22      C        0.37209    0.26464    0.60480    1.000
    C23      C        0.29119    0.33296    0.59785    1.000
    C24      C        0.13490    0.29484    0.58350    1.000
    C25      C        0.05562    0.35868    0.56110    1.000
    C26      C        0.90814    0.28372    0.54054    1.000
    C27      C        0.90052    0.17698    0.55226    1.000
    C28      C        0.38236    0.45930    0.60679    1.000
    C29      C        0.48286    0.49112    0.55124    1.000
    C30      C        0.56818    0.60830    0.56010    1.000
    C31      C        0.55599    0.69328    0.62557    1.000
    C32      C        0.45617    0.66310    0.68172    1.000
    C33      C        0.36864    0.54622    0.67155    1.000
    C34      C        0.79269    0.85306    0.61807    1.000
    C35      C        0.73556    0.00224    0.66093    1.000
    C36      C        0.61062    0.90842    0.66332    1.000
    C37      C        0.76686    0.92532    0.21699    1.000
    C38      C        0.64503    0.82326    0.21885    1.000
    C39      C        0.60128    0.75536    0.13974    1.000
    C40      C        0.69528    0.81904    0.09123    1.000
    C41      C        0.69132    0.78180    0.00630    1.000
    C42      C        0.78426    0.84392    0.95815    1.000
    C43      C        0.76705    0.81390    0.87136    1.000
    C44      C        0.87164    0.90308    0.84943    1.000
    C45      C        0.95332    0.98684    0.92379    1.000
    C46      C        0.57456    0.66394    0.96199    1.000
    C47      C        0.42272    0.64524    0.95537    1.000
    C48      C        0.31577    0.53614    0.91424    1.000
    C49      C        0.35898    0.44430    0.88163    1.000
    C50      C        0.50978    0.46054    0.88871    1.000
    C51      C        0.61673    0.57046    0.92807    1.000
    C52      C        0.25952    0.25786    0.76966    1.000
    C53      C        0.03225    0.18470    0.79470    1.000
    C54      C        0.10057    0.28614    0.85556    1.000
    C55      C        0.69750    0.11626    0.11480    1.000
    C56      C        0.65013    0.21000    0.12677    1.000
    C57      C        0.77240    0.30386    0.12091    1.000
    C58      C        0.89255    0.26464    0.10480    1.000
    C59      C        0.04177    0.33296    0.09785    1.000
    C60      C        0.15994    0.29484    0.08350    1.000
    C61      C        0.30306    0.35868    0.06110    1.000
    C62      C        0.37558    0.28372    0.04054    1.000
    C63      C        0.27646    0.17698    0.05226    1.000
    C64      C        0.07694    0.45930    0.10679    1.000
    C65      C        0.00826    0.49112    0.05124    1.000
    C66      C        0.04012    0.60830    0.06010    1.000
    C67      C        0.13729    0.69328    0.12557    1.000
    C68      C        0.20693    0.66310    0.18172    1.000
    C69      C        0.17758    0.54622    0.17155    1.000
    C70      C        0.06037    0.85306    0.11807    1.000
    C71      C        0.26668    0.00224    0.16093    1.000
    C72      C        0.29780    0.90842    0.16332    1.000
    N1       N        0.12767    0.92518    0.64167    1.000
    N2       N        0.04874    0.95306    0.48883    1.000
    N3       N        0.08500    0.33222    0.33936    1.000
    N4       N        0.03646    0.16776    0.23983    1.000
    N5       N        0.30646    0.14748    0.60101    1.000
    N6       N        0.03340    0.18232    0.57809    1.000
    N7       N        0.64820    0.81344    0.63531    1.000
    N8       N        0.84983    0.96756    0.63234    1.000
    N9       N        0.79751    0.92518    0.14167    1.000
    N10      N        0.90432    0.95306    0.98883    1.000
    N11      N        0.24722    0.33222    0.83936    1.000
    N12      N        0.13130    0.16776    0.73983    1.000
    N13      N        0.84102    0.14748    0.10101    1.000
    N14      N        0.14892    0.18232    0.07809    1.000
    N15      N        0.16524    0.81344    0.13531    1.000
    N16      N        0.11773    0.96756    0.13234    1.000
