data_functionalizedCrystal
_audit_creation_method	'EQeq! by Chris Wilmer'
_symmetry_space_group_name_H-M	'P1'
_symmetry_Int_Tables_number	1
_symmetry_cell_setting	triclinic
loop_
_symmetry_equiv_pos_as_xyz
  x,y,z
_cell_length_a	8.447
_cell_length_b	11.1251
_cell_length_c	17.581
_cell_angle_alpha	77.882
_cell_angle_beta	88.741
_cell_angle_gamma	79.06
loop_
_atom_site_label
_atom_site_type_symbol
_atom_site_fract_x
_atom_site_fract_y
_atom_site_fract_z
_atom_site_charge
Mof_C 	C 	0.7935	0.4863	0.3652	0.094
Mof_C 	C 	0.796	0.4279	0.3012	-0.134
Mof_H 	H 	0.7118	0.4374	0.266	0.069
Mof_C 	C 	0.9442	0.3553	0.3006	0.004
Mof_H 	H 	0.9811	0.3059	0.2649	-0.012
Mof_C 	C 	0.0343	0.3697	0.3667	0.005
Mof_C 	C 	0.1885	0.3075	0.3848	-0.09
Mof_C 	C 	0.2686	0.3171	0.448	0.071
Mof_C 	C 	0.4284	0.2508	0.4717	-0.08
Mof_H 	H 	0.4939	0.1967	0.4452	0.052
Mof_C 	C 	0.4667	0.2782	0.5358	-0.071
Mof_H 	H 	0.561	0.2433	0.565	0.04
Mof_C 	C 	0.3368	0.3732	0.5547	0.069
Mof_C 	C 	0.3395	0.4237	0.6178	-0.097
Mof_C 	C 	0.2707	0.2255	0.3312	-0.001
Mof_C 	C 	0.3569	0.2781	0.2685	-0.044
Mof_H 	H 	0.3681	0.3613	0.2614	0.037
Mof_C 	C 	0.4281	0.2028	0.2152	-0.167
Mof_H 	H 	0.4851	0.238	0.1732	0.056
Mof_C 	C 	0.4141	0.0843	0.2247	0.127
Mof_C 	C 	0.3288	0.0292	0.2869	-0.196
Mof_H 	H 	0.3178	0.9461	0.2931	0.018
Mof_C 	C 	0.2597	0.1014	0.3402	-0.035
Mof_H 	H 	0.2053	0.0644	0.3826	0.01
Mof_C 	C 	0.5822	0.0392	0.1179	-0.116
Mof_H 	H 	0.6482	0.9637	0.1068	-0.013
Mof_H 	H 	0.653	0.0837	0.1392	-0.021
Mof_C 	C 	0.5082	0.1212	0.0416	0.42
Mof_C 	C 	0.4787	0.3868	0.6741	-0.015
Mof_C 	C 	0.4539	0.3242	0.75	0.028
Mof_H 	H 	0.3524	0.3069	0.7639	0.013
Mof_C 	C 	0.5783	0.288	0.8043	-0.229
Mof_H 	H 	0.5605	0.2464	0.8545	0.046
Mof_C 	C 	0.7302	0.3137	0.7842	0.166
Mof_C 	C 	0.7556	0.3746	0.7094	-0.182
Mof_H 	H 	0.8572	0.3913	0.6953	0.07
Mof_C 	C 	0.6293	0.4112	0.6548	-0.009
Mof_H 	H 	0.6474	0.4527	0.6046	0.019
Mof_C 	C 	0.9986	0.298	0.8332	-0.214
Mof_H 	H 	0.9938	0.3875	0.8262	0.099
Mof_H 	H 	0.0474	0.2708	0.7877	0.022
Mof_C 	C 	0.095	0.2305	0.9043	0.578
Mof_K 	K 	0.84368	0.00772	0.90829	3.008
Mof_N 	N 	0.9397	0.4494	0.4068	-0.252
Mof_N 	N 	0.2123	0.3929	0.5006	-0.275
Mof_O 	O 	0.4696	0.0042	0.1756	-0.381
Mof_O 	O 	0.3566	0.1653	0.0397	-0.596
Mof_O 	O 	0.6008	0.137	0.9867	-0.631
Mof_O 	O 	0.8433	0.2705	0.8431	-0.428
Mof_O 	O 	0.2254	0.273	0.9123	-0.619
Mof_H 	H 	0.2555	0.2527	0.958	0.312
Mof_O 	O 	0.0583	0.1444	0.9484	-0.983
Mof_C 	C 	0.2065	0.5137	0.6348	0.065
Mof_C 	C 	0.204	0.5721	0.6988	-0.075
Mof_H 	H 	0.2882	0.5626	0.734	0.044
Mof_C 	C 	0.0558	0.6447	0.6994	-0.128
Mof_H 	H 	0.0189	0.6941	0.7351	0.01
Mof_C 	C 	0.9657	0.6303	0.6333	0.14
Mof_C 	C 	0.8115	0.6925	0.6152	-0.145
Mof_C 	C 	0.7314	0.6829	0.552	0.103
Mof_C 	C 	0.5716	0.7492	0.5283	-0.096
Mof_H 	H 	0.5061	0.8033	0.5548	0.057
Mof_C 	C 	0.5333	0.7218	0.4642	-0.063
Mof_H 	H 	0.439	0.7567	0.435	0.035
Mof_C 	C 	0.6632	0.6268	0.4453	0.074
Mof_C 	C 	0.6605	0.5763	0.3822	-0.109
Mof_C 	C 	0.7293	0.7745	0.6688	0.045
Mof_C 	C 	0.6431	0.7219	0.7315	-0.074
Mof_H 	H 	0.6319	0.6387	0.7386	0.05
Mof_C 	C 	0.5719	0.7972	0.7848	-0.138
Mof_H 	H 	0.5149	0.762	0.8268	0.045
Mof_C 	C 	0.5859	0.9157	0.7753	0.1
Mof_C 	C 	0.6712	0.9708	0.7131	-0.15
Mof_H 	H 	0.6822	0.0539	0.7069	-0.003
Mof_C 	C 	0.7403	0.8986	0.6598	-0.072
Mof_H 	H 	0.7947	0.9356	0.6174	0.036
Mof_C 	C 	0.4178	0.9608	0.8821	-0.09
Mof_H 	H 	0.3518	0.0363	0.8932	-0.03
Mof_H 	H 	0.347	0.9163	0.8608	-0.035
Mof_C 	C 	0.4918	0.8788	0.9584	0.406
Mof_C 	C 	0.5213	0.6132	0.3259	0.006
Mof_C 	C 	0.5461	0.6758	0.25	0.005
Mof_H 	H 	0.6476	0.6931	0.2361	0.026
Mof_C 	C 	0.4217	0.712	0.1957	-0.198
Mof_H 	H 	0.4395	0.7536	0.1455	0.039
Mof_C 	C 	0.2698	0.6863	0.2158	0.126
Mof_C 	C 	0.2444	0.6254	0.2906	-0.152
Mof_H 	H 	0.1428	0.6087	0.3047	0.045
Mof_C 	C 	0.3707	0.5888	0.3452	-0.036
Mof_H 	H 	0.3526	0.5473	0.3954	0.026
Mof_C 	C 	0.0014	0.702	0.1668	-0.461
Mof_H 	H 	0.0062	0.6125	0.1738	0.15
Mof_H 	H 	0.9526	0.7292	0.2123	0.138
Mof_C 	C 	0.905	0.7695	0.0957	0.702
Mof_K 	K 	0.15632	0.99228	0.09171	2.881
Mof_N 	N 	0.0603	0.5506	0.5932	-0.3
Mof_N 	N 	0.7877	0.6071	0.4994	-0.272
Mof_O 	O 	0.5304	0.9958	0.8244	-0.382
Mof_O 	O 	0.6434	0.8347	0.9603	-0.6
Mof_O 	O 	0.3992	0.863	0.0133	-0.618
Mof_O 	O 	0.1567	0.7295	0.1569	-0.378
Mof_O 	O 	0.7746	0.727	0.0877	-0.652
Mof_H 	H 	0.7445	0.7473	0.042	0.327
Mof_O 	O 	0.9417	0.8556	0.0516	-0.993
Mof_Ni	Ni	-0	0.5	0.5	1.027
_end
