# CIF file generated by openbabel 3.1.0, see https://openbabel.org
data_I
_chemical_name_common 'image0'
_cell_length_a 18.228
_cell_length_b 11.9701
_cell_length_c 34.062
_cell_angle_alpha 90
_cell_angle_beta 122.355
_cell_angle_gamma 90
_space_group_name_H-M_alt 'P 1'
_space_group_name_Hall 'P 1'
loop_
    _symmetry_equiv_pos_as_xyz
    x,y,z
loop_
    _atom_site_label
    _atom_site_type_symbol
    _atom_site_fract_x
    _atom_site_fract_y
    _atom_site_fract_z
    _atom_site_occupancy
    In1      In       0.12494    0.99447    0.12466    1.000
    In2      In       0.25082    0.99281    0.25032    1.000
    In3      In       0.62472    0.49530    0.12514    1.000
    C1       C        0.16680    0.14630    0.06343    1.000
    C2       C        0.23610    0.21320    0.06309    1.000
    C3       C        0.22280    0.25430    0.02160    1.000
    H1       H        0.16930    0.24490    0.99410    1.000
    C4       C        0.28780    0.30810    0.02116    1.000
    H2       H        0.27880    0.33360    0.99310    1.000
    C5       C        0.36840    0.32590    0.06245    1.000
    C6       C        0.38080    0.28760    0.10340    1.000
    H3       H        0.43360    0.30000    0.13100    1.000
    C7       C        0.31430    0.22980    0.10421    1.000
    H4       H        0.32310    0.20320    0.13210    1.000
    C8       C        0.44000    0.38400    0.06150    1.000
    C9       C        0.58550    0.64430    0.18776    1.000
    C10      C        0.51610    0.71240    0.18807    1.000
    C11      C        0.52170    0.73370    0.22909    1.000
    H5       H        0.56980    0.70900    0.25690    1.000
    C12      C        0.45520    0.79270    0.22940    1.000
    H6       H        0.46020    0.81010    0.25740    1.000
    C13      C        0.38280    0.82410    0.18777    1.000
    C14      C        0.37700    0.80180    0.14571    1.000
    H7       H        0.32840    0.82450    0.11770    1.000
    C15      C        0.44310    0.74670    0.14626    1.000
    H8       H        0.43930    0.73190    0.11840    1.000
    C16      C        0.30870    0.88190    0.18700    1.000
    C17      C        0.94270    0.11280    0.06334    1.000
    C18      C        0.87030    0.17250    0.06333    1.000
    C19      C        0.79850    0.21080    0.02158    1.000
    H9       H        0.79610    0.19950    0.99390    1.000
    C20      C        0.73260    0.26420    0.02099    1.000
    H10      H        0.68440    0.28690    0.99280    1.000
    C21      C        0.73620    0.28560    0.06213    1.000
    C22      C        0.80670    0.24910    0.10363    1.000
    H11      H        0.80990    0.26300    0.13140    1.000
    C23      C        0.87360    0.19090    0.10380    1.000
    H12      H        0.92060    0.16460    0.13170    1.000
    C24      C        0.66640    0.35060    0.06214    1.000
    C25      C        0.80740    0.61110    0.18779    1.000
    C26      C        0.87990    0.67180    0.18816    1.000
    C27      C        0.95520    0.69590    0.22936    1.000
    H13      H        0.96230    0.67340    0.25730    1.000
    C28      C        0.02180    0.75500    0.22909    1.000
    H14      H        0.07210    0.77460    0.25700    1.000
    C29      C        0.01230    0.78370    0.18736    1.000
    C30      C        0.93490    0.75780    0.14565    1.000
    H15      H        0.92800    0.77810    0.11750    1.000
    C31      C        0.87010    0.70370    0.14595    1.000
    H16      H        0.81880    0.68750    0.11800    1.000
    C32      C        0.08370    0.84760    0.18750    1.000
    O1       O        0.17990    0.07890    0.18770    1.000
    O2       O        0.06880    0.90990    0.06168    1.000
    O3       O        0.67960    0.40590    0.18711    1.000
    O4       O        0.57040    0.58390    0.06325    1.000
    O5       O        0.10060    0.12290    0.02440    1.000
    O6       O        0.17920    0.12010    0.10227    1.000
    O7       O        0.42740    0.40980    0.02293    1.000
    O8       O        0.50820    0.40210    0.10036    1.000
    O9       O        0.57310    0.61860    0.14924    1.000
    O10      O        0.64950    0.61740    0.22681    1.000
    O11      O        0.31900    0.90060    0.22583    1.000
    O12      O        0.24360    0.90470    0.14850    1.000
    O13      O        0.00860    0.08800    0.10272    1.000
    O14      O        0.93220    0.09340    0.02460    1.000
    O15      O        0.67790    0.37370    0.10094    1.000
    O16      O        0.59970    0.37470    0.02317    1.000
    O17      O        0.74160    0.58980    0.14946    1.000
    O18      O        0.81930    0.58790    0.22680    1.000
    O19      O        0.14850    0.87130    0.22615    1.000
    O20      O        0.07160    0.87100    0.14864    1.000
    H17      H        0.19400    0.14200    0.20000    1.000
    H18      H        0.07700    0.84080    0.06000    1.000
    H19      H        0.68800    0.33900    0.18300    1.000
    H20      H        0.58900    0.65000    0.06400    1.000
    In4      In       0.87506    0.49447    0.37534    1.000
    In5      In       0.74918    0.49281    0.24968    1.000
    In6      In       0.37528    0.99530    0.37486    1.000
    C33      C        0.83320    0.64630    0.43657    1.000
    C34      C        0.76390    0.71320    0.43691    1.000
    C35      C        0.77720    0.75430    0.47840    1.000
    H21      H        0.83070    0.74490    0.50590    1.000
    C36      C        0.71220    0.80810    0.47884    1.000
    H22      H        0.72120    0.83360    0.50690    1.000
    C37      C        0.63160    0.82590    0.43755    1.000
    C38      C        0.61920    0.78760    0.39660    1.000
    H23      H        0.56640    0.80000    0.36900    1.000
    C39      C        0.68570    0.72980    0.39579    1.000
    H24      H        0.67690    0.70320    0.36790    1.000
    C40      C        0.56000    0.88400    0.43850    1.000
    C41      C        0.41450    0.14430    0.31224    1.000
    C42      C        0.48390    0.21240    0.31193    1.000
    C43      C        0.47830    0.23370    0.27091    1.000
    H25      H        0.43020    0.20900    0.24310    1.000
    C44      C        0.54480    0.29270    0.27060    1.000
    H26      H        0.53980    0.31010    0.24260    1.000
    C45      C        0.61720    0.32410    0.31223    1.000
    C46      C        0.62300    0.30180    0.35429    1.000
    H27      H        0.67160    0.32450    0.38230    1.000
    C47      C        0.55690    0.24670    0.35374    1.000
    H28      H        0.56070    0.23190    0.38160    1.000
    C48      C        0.69130    0.38190    0.31300    1.000
    C49      C        0.05730    0.61280    0.43666    1.000
    C50      C        0.12970    0.67250    0.43667    1.000
    C51      C        0.20150    0.71080    0.47842    1.000
    H29      H        0.20390    0.69950    0.50610    1.000
    C52      C        0.26740    0.76420    0.47901    1.000
    H30      H        0.31560    0.78690    0.50720    1.000
    C53      C        0.26380    0.78560    0.43787    1.000
    C54      C        0.19330    0.74910    0.39637    1.000
    H31      H        0.19010    0.76300    0.36860    1.000
    C55      C        0.12640    0.69090    0.39620    1.000
    H32      H        0.07940    0.66460    0.36830    1.000
    C56      C        0.33360    0.85060    0.43786    1.000
    C57      C        0.19260    0.11110    0.31221    1.000
    C58      C        0.12010    0.17180    0.31184    1.000
    C59      C        0.04480    0.19590    0.27064    1.000
    H33      H        0.03770    0.17340    0.24270    1.000
    C60      C        0.97820    0.25500    0.27091    1.000
    H34      H        0.92790    0.27460    0.24300    1.000
    C61      C        0.98770    0.28370    0.31264    1.000
    C62      C        0.06510    0.25780    0.35435    1.000
    H35      H        0.07200    0.27810    0.38250    1.000
    C63      C        0.12990    0.20370    0.35405    1.000
    H36      H        0.18120    0.18750    0.38200    1.000
    C64      C        0.91630    0.34760    0.31250    1.000
    O21      O        0.82010    0.57890    0.31230    1.000
    O22      O        0.93120    0.40990    0.43832    1.000
    O23      O        0.32040    0.90590    0.31289    1.000
    O24      O        0.42960    0.08390    0.43675    1.000
    O25      O        0.89940    0.62290    0.47560    1.000
    O26      O        0.82080    0.62010    0.39773    1.000
    O27      O        0.57260    0.90980    0.47707    1.000
    O28      O        0.49180    0.90210    0.39964    1.000
    O29      O        0.42690    0.11860    0.35076    1.000
    O30      O        0.35050    0.11740    0.27319    1.000
    O31      O        0.68100    0.40060    0.27417    1.000
    O32      O        0.75640    0.40470    0.35150    1.000
    O33      O        0.99140    0.58800    0.39728    1.000
    O34      O        0.06780    0.59340    0.47540    1.000
    O35      O        0.32210    0.87370    0.39906    1.000
    O36      O        0.40030    0.87470    0.47683    1.000
    O37      O        0.25840    0.08980    0.35054    1.000
    O38      O        0.18070    0.08790    0.27320    1.000
    O39      O        0.85150    0.37130    0.27385    1.000
    O40      O        0.92840    0.37100    0.35136    1.000
    H37      H        0.80600    0.64200    0.30000    1.000
    H38      H        0.92300    0.34080    0.44000    1.000
    H39      H        0.31200    0.83900    0.31700    1.000
    H40      H        0.41100    0.15000    0.43600    1.000
    In7      In       0.87506    0.00553    0.87534    1.000
    In8      In       0.74918    0.00719    0.74968    1.000
    In9      In       0.37528    0.50470    0.87486    1.000
    C65      C        0.83320    0.85370    0.93657    1.000
    C66      C        0.76390    0.78680    0.93691    1.000
    C67      C        0.77720    0.74570    0.97840    1.000
    H41      H        0.83070    0.75510    0.00590    1.000
    C68      C        0.71220    0.69190    0.97884    1.000
    H42      H        0.72120    0.66640    0.00690    1.000
    C69      C        0.63160    0.67410    0.93755    1.000
    C70      C        0.61920    0.71240    0.89660    1.000
    H43      H        0.56640    0.70000    0.86900    1.000
    C71      C        0.68570    0.77020    0.89579    1.000
    H44      H        0.67690    0.79680    0.86790    1.000
    C72      C        0.56000    0.61600    0.93850    1.000
    C73      C        0.41450    0.35570    0.81224    1.000
    C74      C        0.48390    0.28760    0.81193    1.000
    C75      C        0.47830    0.26630    0.77091    1.000
    H45      H        0.43020    0.29100    0.74310    1.000
    C76      C        0.54480    0.20730    0.77060    1.000
    H46      H        0.53980    0.18990    0.74260    1.000
    C77      C        0.61720    0.17590    0.81223    1.000
    C78      C        0.62300    0.19820    0.85429    1.000
    H47      H        0.67160    0.17550    0.88230    1.000
    C79      C        0.55690    0.25330    0.85374    1.000
    H48      H        0.56070    0.26810    0.88160    1.000
    C80      C        0.69130    0.11810    0.81300    1.000
    C81      C        0.05730    0.88720    0.93666    1.000
    C82      C        0.12970    0.82750    0.93667    1.000
    C83      C        0.20150    0.78920    0.97842    1.000
    H49      H        0.20390    0.80050    0.00610    1.000
    C84      C        0.26740    0.73580    0.97901    1.000
    H50      H        0.31560    0.71310    0.00720    1.000
    C85      C        0.26380    0.71440    0.93787    1.000
    C86      C        0.19330    0.75090    0.89637    1.000
    H51      H        0.19010    0.73700    0.86860    1.000
    C87      C        0.12640    0.80910    0.89620    1.000
    H52      H        0.07940    0.83540    0.86830    1.000
    C88      C        0.33360    0.64940    0.93786    1.000
    C89      C        0.19260    0.38890    0.81221    1.000
    C90      C        0.12010    0.32820    0.81184    1.000
    C91      C        0.04480    0.30410    0.77064    1.000
    H53      H        0.03770    0.32660    0.74270    1.000
    C92      C        0.97820    0.24500    0.77091    1.000
    H54      H        0.92790    0.22540    0.74300    1.000
    C93      C        0.98770    0.21630    0.81264    1.000
    C94      C        0.06510    0.24220    0.85435    1.000
    H55      H        0.07200    0.22190    0.88250    1.000
    C95      C        0.12990    0.29630    0.85405    1.000
    H56      H        0.18120    0.31250    0.88200    1.000
    C96      C        0.91630    0.15240    0.81250    1.000
    O41      O        0.82010    0.92110    0.81230    1.000
    O42      O        0.93120    0.09010    0.93832    1.000
    O43      O        0.32040    0.59410    0.81289    1.000
    O44      O        0.42960    0.41610    0.93675    1.000
    O45      O        0.89940    0.87710    0.97560    1.000
    O46      O        0.82080    0.87990    0.89773    1.000
    O47      O        0.57260    0.59020    0.97707    1.000
    O48      O        0.49180    0.59790    0.89964    1.000
    O49      O        0.42690    0.38140    0.85076    1.000
    O50      O        0.35050    0.38260    0.77319    1.000
    O51      O        0.68100    0.09940    0.77417    1.000
    O52      O        0.75640    0.09530    0.85150    1.000
    O53      O        0.99140    0.91200    0.89728    1.000
    O54      O        0.06780    0.90660    0.97540    1.000
    O55      O        0.32210    0.62630    0.89906    1.000
    O56      O        0.40030    0.62530    0.97683    1.000
    O57      O        0.25840    0.41020    0.85054    1.000
    O58      O        0.18070    0.41210    0.77320    1.000
    O59      O        0.85150    0.12870    0.77385    1.000
    O60      O        0.92840    0.12900    0.85136    1.000
    H57      H        0.80600    0.85800    0.80000    1.000
    H58      H        0.92300    0.15920    0.94000    1.000
    H59      H        0.31200    0.66100    0.81700    1.000
    H60      H        0.41100    0.35000    0.93600    1.000
    In10     In       0.12494    0.50553    0.62466    1.000
    In11     In       0.25082    0.50719    0.75032    1.000
    In12     In       0.62472    0.00470    0.62514    1.000
    C97      C        0.16680    0.35370    0.56343    1.000
    C98      C        0.23610    0.28680    0.56309    1.000
    C99      C        0.22280    0.24570    0.52160    1.000
    H61      H        0.16930    0.25510    0.49410    1.000
    C100     C        0.28780    0.19190    0.52116    1.000
    H62      H        0.27880    0.16640    0.49310    1.000
    C101     C        0.36840    0.17410    0.56245    1.000
    C102     C        0.38080    0.21240    0.60340    1.000
    H63      H        0.43360    0.20000    0.63100    1.000
    C103     C        0.31430    0.27020    0.60421    1.000
    H64      H        0.32310    0.29680    0.63210    1.000
    C104     C        0.44000    0.11600    0.56150    1.000
    C105     C        0.58550    0.85570    0.68776    1.000
    C106     C        0.51610    0.78760    0.68807    1.000
    C107     C        0.52170    0.76630    0.72909    1.000
    H65      H        0.56980    0.79100    0.75690    1.000
    C108     C        0.45520    0.70730    0.72940    1.000
    H66      H        0.46020    0.68990    0.75740    1.000
    C109     C        0.38280    0.67590    0.68777    1.000
    C110     C        0.37700    0.69820    0.64571    1.000
    H67      H        0.32840    0.67550    0.61770    1.000
    C111     C        0.44310    0.75330    0.64626    1.000
    H68      H        0.43930    0.76810    0.61840    1.000
    C112     C        0.30870    0.61810    0.68700    1.000
    C113     C        0.94270    0.38720    0.56334    1.000
    C114     C        0.87030    0.32750    0.56333    1.000
    C115     C        0.79850    0.28920    0.52158    1.000
    H69      H        0.79610    0.30050    0.49390    1.000
    C116     C        0.73260    0.23580    0.52099    1.000
    H70      H        0.68440    0.21310    0.49280    1.000
    C117     C        0.73620    0.21440    0.56213    1.000
    C118     C        0.80670    0.25090    0.60363    1.000
    H71      H        0.80990    0.23700    0.63140    1.000
    C119     C        0.87360    0.30910    0.60380    1.000
    H72      H        0.92060    0.33540    0.63170    1.000
    C120     C        0.66640    0.14940    0.56214    1.000
    C121     C        0.80740    0.88890    0.68779    1.000
    C122     C        0.87990    0.82820    0.68816    1.000
    C123     C        0.95520    0.80410    0.72936    1.000
    H73      H        0.96230    0.82660    0.75730    1.000
    C124     C        0.02180    0.74500    0.72909    1.000
    H74      H        0.07210    0.72540    0.75700    1.000
    C125     C        0.01230    0.71630    0.68736    1.000
    C126     C        0.93490    0.74220    0.64565    1.000
    H75      H        0.92800    0.72190    0.61750    1.000
    C127     C        0.87010    0.79630    0.64595    1.000
    H76      H        0.81880    0.81250    0.61800    1.000
    C128     C        0.08370    0.65240    0.68750    1.000
    O61      O        0.17990    0.42110    0.68770    1.000
    O62      O        0.06880    0.59010    0.56168    1.000
    O63      O        0.67960    0.09410    0.68711    1.000
    O64      O        0.57040    0.91610    0.56325    1.000
    O65      O        0.10060    0.37710    0.52440    1.000
    O66      O        0.17920    0.37990    0.60227    1.000
    O67      O        0.42740    0.09020    0.52293    1.000
    O68      O        0.50820    0.09790    0.60036    1.000
    O69      O        0.57310    0.88140    0.64924    1.000
    O70      O        0.64950    0.88260    0.72681    1.000
    O71      O        0.31900    0.59940    0.72583    1.000
    O72      O        0.24360    0.59530    0.64850    1.000
    O73      O        0.00860    0.41200    0.60272    1.000
    O74      O        0.93220    0.40660    0.52460    1.000
    O75      O        0.67790    0.12630    0.60094    1.000
    O76      O        0.59970    0.12530    0.52317    1.000
    O77      O        0.74160    0.91020    0.64946    1.000
    O78      O        0.81930    0.91210    0.72680    1.000
    O79      O        0.14850    0.62870    0.72615    1.000
    O80      O        0.07160    0.62900    0.64864    1.000
    H77      H        0.19400    0.35800    0.70000    1.000
    H78      H        0.07700    0.65920    0.56000    1.000
    H79      H        0.68800    0.16100    0.68300    1.000
    H80      H        0.58900    0.85000    0.56400    1.000
    In13     In       0.50000    0.50000    0.00000    1.000
    In14     In       0.50000    0.00000    0.50000    1.000
    In15     In       0.00000    0.00000    0.00000    1.000
    In16     In       0.00000    0.50000    0.50000    1.000
