data_functionalizedCrystal
_audit_creation_method	'EQeq! by Chris Wilmer'
_symmetry_space_group_name_H-M	'P1'
_symmetry_Int_Tables_number	1
_symmetry_cell_setting	triclinic
loop_
_symmetry_equiv_pos_as_xyz
  x,y,z
_cell_length_a	19.0396
_cell_length_b	19.0396
_cell_length_c	23.563
_cell_angle_alpha	90
_cell_angle_beta	90
_cell_angle_gamma	90
loop_
_atom_site_label
_atom_site_type_symbol
_atom_site_fract_x
_atom_site_fract_y
_atom_site_fract_z
_atom_site_charge
Mof_Zn	Zn	0.52708	0.54886	0.29603	1.198
Mof_Zn	Zn	0.97292	0.95114	0.29603	1.197
Mof_Zn	Zn	0.95114	0.52708	0.29603	1.198
Mof_Zn	Zn	0.54886	0.97292	0.29603	1.198
Mof_Zn	Zn	0.47292	0.04886	0.20397	1.197
Mof_Zn	Zn	0.02708	0.45114	0.20397	1.196
Mof_Zn	Zn	0.04886	0.02708	0.20397	1.196
Mof_Zn	Zn	0.45114	0.47292	0.20397	1.197
Mof_Zn	Zn	0.47292	0.45114	0.70397	1.197
Mof_Zn	Zn	0.02708	0.04886	0.70397	1.196
Mof_Zn	Zn	0.04886	0.47292	0.70397	1.197
Mof_Zn	Zn	0.45114	0.02708	0.70397	1.197
Mof_Zn	Zn	0.52708	0.95114	0.79603	1.196
Mof_Zn	Zn	0.97292	0.54886	0.79603	1.196
Mof_Zn	Zn	0.95114	0.97292	0.79603	1.196
Mof_Zn	Zn	0.54886	0.52708	0.79603	1.197
Mof_H 	H 	0.3372	0.6123	0.3878	0.085
Mof_H 	H 	0.302	0.6559	0.4855	0.049
Mof_H 	H 	0.3113	0.7093	0.435	0.049
Mof_H 	H 	0.2428	0.4886	0.2717	0.057
Mof_H 	H 	0.127	0.5952	0.3843	0.089
Mof_H 	H 	0.1628	0.8877	0.3878	0.084
Mof_H 	H 	0.198	0.8441	0.4855	0.049
Mof_H 	H 	0.1887	0.7907	0.435	0.05
Mof_H 	H 	0.2572	0.0114	0.2717	0.053
Mof_H 	H 	0.373	0.9048	0.3843	0.088
Mof_H 	H 	0.8877	0.3372	0.3878	0.084
Mof_H 	H 	0.8441	0.302	0.4855	0.049
Mof_H 	H 	0.7907	0.3113	0.435	0.05
Mof_H 	H 	0.0114	0.2428	0.2717	0.053
Mof_H 	H 	0.9048	0.127	0.3843	0.088
Mof_H 	H 	0.6123	0.1628	0.3878	0.085
Mof_H 	H 	0.6559	0.198	0.4855	0.049
Mof_H 	H 	0.7093	0.1887	0.435	0.05
Mof_H 	H 	0.4886	0.2572	0.2717	0.057
Mof_H 	H 	0.5952	0.373	0.3843	0.088
Mof_H 	H 	0.6628	0.1123	0.1122	0.085
Mof_H 	H 	0.698	0.1559	0.0145	0.048
Mof_H 	H 	0.6887	0.2093	0.065	0.049
Mof_H 	H 	0.7572	0.9886	0.2283	0.055
Mof_H 	H 	0.873	0.0952	0.1157	0.088
Mof_H 	H 	0.8372	0.3877	0.1122	0.085
Mof_H 	H 	0.802	0.3441	0.0145	0.048
Mof_H 	H 	0.8113	0.2907	0.065	0.049
Mof_H 	H 	0.7428	0.5114	0.2283	0.057
Mof_H 	H 	0.627	0.4048	0.1157	0.088
Mof_H 	H 	0.1123	0.8372	0.1122	0.085
Mof_H 	H 	0.1559	0.802	0.0145	0.048
Mof_H 	H 	0.2093	0.8113	0.065	0.049
Mof_H 	H 	0.9886	0.7428	0.2283	0.055
Mof_H 	H 	0.0952	0.627	0.1157	0.088
Mof_H 	H 	0.3877	0.6628	0.1122	0.085
Mof_H 	H 	0.3441	0.698	0.0145	0.048
Mof_H 	H 	0.2907	0.6887	0.065	0.049
Mof_H 	H 	0.5114	0.7572	0.2283	0.057
Mof_H 	H 	0.4048	0.873	0.1157	0.089
Mof_H 	H 	0.6628	0.3877	0.6122	0.085
Mof_H 	H 	0.698	0.3441	0.5145	0.049
Mof_H 	H 	0.6887	0.2907	0.565	0.049
Mof_H 	H 	0.7572	0.5114	0.7283	0.057
Mof_H 	H 	0.873	0.4048	0.6157	0.089
Mof_H 	H 	0.8372	0.1123	0.6122	0.084
Mof_H 	H 	0.802	0.1559	0.5145	0.049
Mof_H 	H 	0.8113	0.2093	0.565	0.05
Mof_H 	H 	0.7428	0.9886	0.7283	0.054
Mof_H 	H 	0.627	0.0952	0.6157	0.088
Mof_H 	H 	0.1123	0.6628	0.6122	0.084
Mof_H 	H 	0.1559	0.698	0.5145	0.049
Mof_H 	H 	0.2093	0.6887	0.565	0.05
Mof_H 	H 	0.9886	0.7572	0.7283	0.053
Mof_H 	H 	0.0952	0.873	0.6157	0.088
Mof_H 	H 	0.3877	0.8372	0.6122	0.085
Mof_H 	H 	0.3441	0.802	0.5145	0.049
Mof_H 	H 	0.2907	0.8113	0.565	0.05
Mof_H 	H 	0.5114	0.7428	0.7283	0.057
Mof_H 	H 	0.4048	0.627	0.6157	0.088
Mof_H 	H 	0.3372	0.8877	0.8878	0.085
Mof_H 	H 	0.302	0.8441	0.9855	0.049
Mof_H 	H 	0.3113	0.7907	0.935	0.049
Mof_H 	H 	0.2428	0.0114	0.7717	0.055
Mof_H 	H 	0.127	0.9048	0.8843	0.089
Mof_H 	H 	0.1628	0.6123	0.8878	0.085
Mof_H 	H 	0.198	0.6559	0.9855	0.049
Mof_H 	H 	0.1887	0.7093	0.935	0.049
Mof_H 	H 	0.2572	0.4886	0.7717	0.057
Mof_H 	H 	0.373	0.5952	0.8843	0.089
Mof_H 	H 	0.8877	0.1628	0.8878	0.085
Mof_H 	H 	0.8441	0.198	0.9855	0.049
Mof_H 	H 	0.7907	0.1887	0.935	0.049
Mof_H 	H 	0.0114	0.2572	0.7717	0.055
Mof_H 	H 	0.9048	0.373	0.8843	0.088
Mof_H 	H 	0.6123	0.3372	0.8878	0.085
Mof_H 	H 	0.6559	0.302	0.9855	0.049
Mof_H 	H 	0.7093	0.3113	0.935	0.049
Mof_H 	H 	0.4886	0.2428	0.7717	0.057
Mof_H 	H 	0.5952	0.127	0.8843	0.089
Mof_C 	C 	0.231	0.6114	0.3928	0.172
Mof_C 	C 	0.3006	0.5464	0.32637	-0.047
Mof_C 	C 	0.2966	0.5934	0.3719	-0.117
Mof_C 	C 	0.27819	0.6908	0.46249	-0.005
Mof_C 	C 	0.2398	0.5189	0.30258	-0.01
Mof_C 	C 	0.1707	0.5829	0.36956	-0.112
Mof_C 	C 	0.1746	0.5364	0.32476	-0.049
Mof_C 	C 	0.3718	0.5308	0.29906	0.391
Mof_C 	C 	0.1076	0.5116	0.29704	0.379
Mof_C 	C 	0.269	0.8886	0.3928	0.17
Mof_C 	C 	0.1994	0.9536	0.32637	-0.049
Mof_C 	C 	0.2034	0.9066	0.3719	-0.115
Mof_C 	C 	0.22181	0.8092	0.46249	-0.005
Mof_C 	C 	0.2602	0.9811	0.30258	-0.005
Mof_C 	C 	0.3293	0.9171	0.36956	-0.109
Mof_C 	C 	0.3254	0.9636	0.32476	-0.052
Mof_C 	C 	0.1282	0.9692	0.29906	0.395
Mof_C 	C 	0.3924	0.9884	0.29704	0.381
Mof_C 	C 	0.8886	0.231	0.3928	0.17
Mof_C 	C 	0.9536	0.3006	0.32637	-0.049
Mof_C 	C 	0.9066	0.2966	0.3719	-0.115
Mof_C 	C 	0.8092	0.27819	0.46249	-0.005
Mof_C 	C 	0.9811	0.2398	0.30258	-0.004
Mof_C 	C 	0.9171	0.1707	0.36956	-0.109
Mof_C 	C 	0.9636	0.1746	0.32476	-0.052
Mof_C 	C 	0.9692	0.3718	0.29906	0.393
Mof_C 	C 	0.9884	0.1076	0.29704	0.383
Mof_C 	C 	0.6114	0.269	0.3928	0.172
Mof_C 	C 	0.5464	0.1994	0.32637	-0.047
Mof_C 	C 	0.5934	0.2034	0.3719	-0.117
Mof_C 	C 	0.6908	0.22181	0.46249	-0.005
Mof_C 	C 	0.5189	0.2602	0.30258	-0.01
Mof_C 	C 	0.5829	0.3293	0.36956	-0.112
Mof_C 	C 	0.5364	0.3254	0.32476	-0.049
Mof_C 	C 	0.5308	0.1282	0.29906	0.391
Mof_C 	C 	0.5116	0.3924	0.29704	0.379
Mof_C 	C 	0.769	0.1114	0.1072	0.171
Mof_C 	C 	0.6994	0.0464	0.17363	-0.048
Mof_C 	C 	0.7034	0.0934	0.1281	-0.116
Mof_C 	C 	0.72181	0.1908	0.03751	-0.003
Mof_C 	C 	0.7602	0.0189	0.19742	-0.007
Mof_C 	C 	0.8293	0.0829	0.13044	-0.11
Mof_C 	C 	0.8254	0.0364	0.17524	-0.05
Mof_C 	C 	0.6282	0.0308	0.20094	0.392
Mof_C 	C 	0.8924	0.0116	0.20296	0.382
Mof_C 	C 	0.731	0.3886	0.1072	0.172
Mof_C 	C 	0.8006	0.4536	0.17363	-0.046
Mof_C 	C 	0.7966	0.4066	0.1281	-0.117
Mof_C 	C 	0.77819	0.3092	0.03751	-0.003
Mof_C 	C 	0.7398	0.4811	0.19742	-0.011
Mof_C 	C 	0.6707	0.4171	0.13044	-0.112
Mof_C 	C 	0.6746	0.4636	0.17524	-0.049
Mof_C 	C 	0.8718	0.4692	0.20094	0.391
Mof_C 	C 	0.6076	0.4884	0.20296	0.379
Mof_C 	C 	0.1114	0.731	0.1072	0.171
Mof_C 	C 	0.0464	0.8006	0.17363	-0.048
Mof_C 	C 	0.0934	0.7966	0.1281	-0.116
Mof_C 	C 	0.1908	0.77819	0.03751	-0.004
Mof_C 	C 	0.0189	0.7398	0.19742	-0.007
Mof_C 	C 	0.0829	0.6707	0.13044	-0.111
Mof_C 	C 	0.0364	0.6746	0.17524	-0.05
Mof_C 	C 	0.0308	0.8718	0.20094	0.393
Mof_C 	C 	0.0116	0.6076	0.20296	0.38
Mof_C 	C 	0.3886	0.769	0.1072	0.172
Mof_C 	C 	0.4536	0.6994	0.17363	-0.047
Mof_C 	C 	0.4066	0.7034	0.1281	-0.117
Mof_C 	C 	0.3092	0.72181	0.03751	-0.003
Mof_C 	C 	0.4811	0.7602	0.19742	-0.011
Mof_C 	C 	0.4171	0.8293	0.13044	-0.112
Mof_C 	C 	0.4636	0.8254	0.17524	-0.049
Mof_C 	C 	0.4692	0.6282	0.20094	0.391
Mof_C 	C 	0.4884	0.8924	0.20296	0.379
Mof_C 	C 	0.769	0.3886	0.6072	0.172
Mof_C 	C 	0.6994	0.4536	0.67363	-0.047
Mof_C 	C 	0.7034	0.4066	0.6281	-0.117
Mof_C 	C 	0.72181	0.3092	0.53751	-0.005
Mof_C 	C 	0.7602	0.4811	0.69742	-0.011
Mof_C 	C 	0.8293	0.4171	0.63044	-0.112
Mof_C 	C 	0.8254	0.4636	0.67524	-0.049
Mof_C 	C 	0.6282	0.4692	0.70094	0.391
Mof_C 	C 	0.8924	0.4884	0.70296	0.379
Mof_C 	C 	0.731	0.1114	0.6072	0.17
Mof_C 	C 	0.8006	0.0464	0.67363	-0.049
Mof_C 	C 	0.7966	0.0934	0.6281	-0.115
Mof_C 	C 	0.77819	0.1908	0.53751	-0.005
Mof_C 	C 	0.7398	0.0189	0.69742	-0.005
Mof_C 	C 	0.6707	0.0829	0.63044	-0.11
Mof_C 	C 	0.6746	0.0364	0.67524	-0.052
Mof_C 	C 	0.8718	0.0308	0.70094	0.395
Mof_C 	C 	0.6076	0.0116	0.70296	0.381
Mof_C 	C 	0.1114	0.769	0.6072	0.17
Mof_C 	C 	0.0464	0.6994	0.67363	-0.049
Mof_C 	C 	0.0934	0.7034	0.6281	-0.115
Mof_C 	C 	0.1908	0.72181	0.53751	-0.005
Mof_C 	C 	0.0189	0.7602	0.69742	-0.004
Mof_C 	C 	0.0829	0.8293	0.63044	-0.109
Mof_C 	C 	0.0364	0.8254	0.67524	-0.052
Mof_C 	C 	0.0308	0.6282	0.70094	0.393
Mof_C 	C 	0.0116	0.8924	0.70296	0.383
Mof_C 	C 	0.3886	0.731	0.6072	0.172
Mof_C 	C 	0.4536	0.8006	0.67363	-0.046
Mof_C 	C 	0.4066	0.7966	0.6281	-0.117
Mof_C 	C 	0.3092	0.77819	0.53751	-0.005
Mof_C 	C 	0.4811	0.7398	0.69742	-0.011
Mof_C 	C 	0.4171	0.6707	0.63044	-0.112
Mof_C 	C 	0.4636	0.6746	0.67524	-0.049
Mof_C 	C 	0.4692	0.8718	0.70094	0.391
Mof_C 	C 	0.4884	0.6076	0.70296	0.379
Mof_C 	C 	0.231	0.8886	0.8928	0.171
Mof_C 	C 	0.3006	0.9536	0.82637	-0.048
Mof_C 	C 	0.2966	0.9066	0.8719	-0.116
Mof_C 	C 	0.27819	0.8092	0.96249	-0.003
Mof_C 	C 	0.2398	0.9811	0.80258	-0.007
Mof_C 	C 	0.1707	0.9171	0.86956	-0.111
Mof_C 	C 	0.1746	0.9636	0.82476	-0.05
Mof_C 	C 	0.3718	0.9692	0.79906	0.392
Mof_C 	C 	0.1076	0.9884	0.79704	0.382
Mof_C 	C 	0.269	0.6114	0.8928	0.172
Mof_C 	C 	0.1994	0.5464	0.82637	-0.046
Mof_C 	C 	0.2034	0.5934	0.8719	-0.117
Mof_C 	C 	0.22181	0.6908	0.96249	-0.003
Mof_C 	C 	0.2602	0.5189	0.80258	-0.011
Mof_C 	C 	0.3293	0.5829	0.86956	-0.112
Mof_C 	C 	0.3254	0.5364	0.82476	-0.049
Mof_C 	C 	0.1282	0.5308	0.79906	0.391
Mof_C 	C 	0.3924	0.5116	0.79704	0.379
Mof_C 	C 	0.8886	0.269	0.8928	0.171
Mof_C 	C 	0.9536	0.1994	0.82637	-0.048
Mof_C 	C 	0.9066	0.2034	0.8719	-0.116
Mof_C 	C 	0.8092	0.22181	0.96249	-0.003
Mof_C 	C 	0.9811	0.2602	0.80258	-0.008
Mof_C 	C 	0.9171	0.3293	0.86956	-0.111
Mof_C 	C 	0.9636	0.3254	0.82476	-0.05
Mof_C 	C 	0.9692	0.1282	0.79906	0.393
Mof_C 	C 	0.9884	0.3924	0.79704	0.38
Mof_C 	C 	0.6114	0.231	0.8928	0.172
Mof_C 	C 	0.5464	0.3006	0.82637	-0.046
Mof_C 	C 	0.5934	0.2966	0.8719	-0.117
Mof_C 	C 	0.6908	0.27819	0.96249	-0.003
Mof_C 	C 	0.5189	0.2398	0.80258	-0.011
Mof_C 	C 	0.5829	0.1707	0.86956	-0.112
Mof_C 	C 	0.5364	0.1746	0.82476	-0.049
Mof_C 	C 	0.5308	0.3718	0.79906	0.391
Mof_C 	C 	0.5116	0.1076	0.79704	0.379
Mof_C 	C 	0.25	0.75	0.5	0.028
Mof_C 	C 	0.75	0.25	0.5	0.028
Mof_C 	C 	0.75	0.25	-0	0.025
Mof_C 	C 	0.25	0.75	-0	0.025
Mof_O 	O 	0.21993	0.66035	0.4345	-0.223
Mof_O 	O 	0.42389	0.55743	0.32198	-0.477
Mof_O 	O 	0.37041	0.49087	0.25716	-0.484
Mof_O 	O 	0.05161	0.52668	0.32145	-0.49
Mof_O 	O 	0.11396	0.4771	0.25153	-0.461
Mof_O 	O 	0.28007	0.83965	0.4345	-0.222
Mof_O 	O 	0.07611	0.94257	0.32198	-0.477
Mof_O 	O 	0.12959	0.00913	0.25716	-0.487
Mof_O 	O 	0.44839	0.97332	0.32145	-0.491
Mof_O 	O 	0.38604	0.0229	0.25153	-0.462
Mof_O 	O 	0.83965	0.21993	0.4345	-0.222
Mof_O 	O 	0.94257	0.42389	0.32198	-0.478
Mof_O 	O 	0.00913	0.37041	0.25716	-0.486
Mof_O 	O 	0.97332	0.05161	0.32145	-0.49
Mof_O 	O 	0.0229	0.11396	0.25153	-0.464
Mof_O 	O 	0.66035	0.28007	0.4345	-0.223
Mof_O 	O 	0.55743	0.07611	0.32198	-0.477
Mof_O 	O 	0.49087	0.12959	0.25716	-0.484
Mof_O 	O 	0.52668	0.44839	0.32145	-0.49
Mof_O 	O 	0.4771	0.38604	0.25153	-0.461
Mof_O 	O 	0.78007	0.16035	0.0655	-0.223
Mof_O 	O 	0.57611	0.05743	0.17802	-0.478
Mof_O 	O 	0.62959	0.99087	0.24284	-0.485
Mof_O 	O 	0.94839	0.02668	0.17855	-0.49
Mof_O 	O 	0.88604	0.9771	0.24847	-0.463
Mof_O 	O 	0.71993	0.33965	0.0655	-0.223
Mof_O 	O 	0.92389	0.44257	0.17802	-0.477
Mof_O 	O 	0.87041	0.50913	0.24284	-0.484
Mof_O 	O 	0.55161	0.47332	0.17855	-0.49
Mof_O 	O 	0.61396	0.5229	0.24847	-0.461
Mof_O 	O 	0.16035	0.71993	0.0655	-0.223
Mof_O 	O 	0.05743	0.92389	0.17802	-0.477
Mof_O 	O 	0.99087	0.87041	0.24284	-0.486
Mof_O 	O 	0.02668	0.55161	0.17855	-0.491
Mof_O 	O 	0.9771	0.61396	0.24847	-0.461
Mof_O 	O 	0.33965	0.78007	0.0655	-0.223
Mof_O 	O 	0.44257	0.57611	0.17802	-0.477
Mof_O 	O 	0.50913	0.62959	0.24284	-0.484
Mof_O 	O 	0.47332	0.94839	0.17855	-0.49
Mof_O 	O 	0.5229	0.88604	0.24847	-0.461
Mof_O 	O 	0.78007	0.33965	0.5655	-0.223
Mof_O 	O 	0.57611	0.44257	0.67802	-0.477
Mof_O 	O 	0.62959	0.50913	0.74284	-0.484
Mof_O 	O 	0.94839	0.47332	0.67855	-0.49
Mof_O 	O 	0.88604	0.5229	0.74847	-0.461
Mof_O 	O 	0.71993	0.16035	0.5655	-0.222
Mof_O 	O 	0.92389	0.05743	0.67802	-0.477
Mof_O 	O 	0.87041	0.99087	0.74284	-0.487
Mof_O 	O 	0.55161	0.02668	0.67855	-0.491
Mof_O 	O 	0.61396	0.9771	0.74847	-0.462
Mof_O 	O 	0.16035	0.78007	0.5655	-0.222
Mof_O 	O 	0.05743	0.57611	0.67802	-0.478
Mof_O 	O 	0.99087	0.62959	0.74284	-0.486
Mof_O 	O 	0.02668	0.94839	0.67855	-0.49
Mof_O 	O 	0.9771	0.88604	0.74847	-0.464
Mof_O 	O 	0.33965	0.71993	0.5655	-0.223
Mof_O 	O 	0.44257	0.92389	0.67802	-0.477
Mof_O 	O 	0.50913	0.87041	0.74284	-0.484
Mof_O 	O 	0.47332	0.55161	0.67855	-0.49
Mof_O 	O 	0.5229	0.61396	0.74847	-0.461
Mof_O 	O 	0.21993	0.83965	0.9345	-0.223
Mof_O 	O 	0.42389	0.94257	0.82198	-0.478
Mof_O 	O 	0.37041	0.00913	0.75716	-0.484
Mof_O 	O 	0.05161	0.97332	0.82145	-0.489
Mof_O 	O 	0.11396	0.0229	0.75153	-0.462
Mof_O 	O 	0.28007	0.66035	0.9345	-0.223
Mof_O 	O 	0.07611	0.55743	0.82198	-0.477
Mof_O 	O 	0.12959	0.49087	0.75716	-0.484
Mof_O 	O 	0.44839	0.52668	0.82145	-0.49
Mof_O 	O 	0.38604	0.4771	0.75153	-0.461
Mof_O 	O 	0.83965	0.28007	0.9345	-0.223
Mof_O 	O 	0.94257	0.07611	0.82198	-0.477
Mof_O 	O 	0.00913	0.12959	0.75716	-0.486
Mof_O 	O 	0.97332	0.44839	0.82145	-0.49
Mof_O 	O 	0.0229	0.38604	0.75153	-0.461
Mof_O 	O 	0.66035	0.21993	0.9345	-0.223
Mof_O 	O 	0.55743	0.42389	0.82198	-0.477
Mof_O 	O 	0.49087	0.37041	0.75716	-0.484
Mof_O 	O 	0.52668	0.05161	0.82145	-0.49
Mof_O 	O 	0.4771	0.11396	0.75153	-0.461
_end
