# CIF file generated by openbabel 3.1.0, see https://openbabel.org
data_I
_chemical_name_common 'image0'
_cell_length_a 25.158
_cell_length_b 9.0536
_cell_length_c 10.166
_cell_angle_alpha 90
_cell_angle_beta 90
_cell_angle_gamma 90
_space_group_name_H-M_alt 'P 1'
_space_group_name_Hall 'P 1'
loop_
    _symmetry_equiv_pos_as_xyz
    x,y,z
loop_
    _atom_site_label
    _atom_site_type_symbol
    _atom_site_fract_x
    _atom_site_fract_y
    _atom_site_fract_z
    _atom_site_occupancy
    Ga1      Ga       0.88335    0.12231    0.31131    1.000
    Ga2      Ga       0.76735    0.66977    0.51069    1.000
    P1       P        0.99470    0.11340    0.17840    1.000
    P2       P        0.83875    0.04568    0.03839    1.000
    P3       P        0.80216    0.38883    0.32008    1.000
    O1       O        0.85653    0.30810    0.33130    1.000
    O2       O        0.80756    0.52650    0.40370    1.000
    O3       O        0.95175    0.16660    0.26870    1.000
    O4       O        0.85135    0.01290    0.18350    1.000
    O5       O        0.79283    0.43110    0.17460    1.000
    O6       O        0.88729    0.99360    0.95800    1.000
    O7       O        0.83140    0.21090    0.02070    1.000
    O8       O        0.75723    0.28430    0.36240    1.000
    O9       O        0.98750    0.18430    0.04160    1.000
    O10      O        0.99100    0.94370    0.16770    1.000
    O11      O        0.79118    0.96090    0.99380    1.000
    Ga3      Ga       0.61665    0.37769    0.81131    1.000
    Ga4      Ga       0.73265    0.83023    0.01069    1.000
    P4       P        0.50530    0.38660    0.67840    1.000
    P5       P        0.66125    0.45432    0.53839    1.000
    P6       P        0.69784    0.11117    0.82008    1.000
    O12      O        0.64347    0.19190    0.83130    1.000
    O13      O        0.69244    0.97350    0.90370    1.000
    O14      O        0.54825    0.33340    0.76870    1.000
    O15      O        0.64865    0.48710    0.68350    1.000
    O16      O        0.70717    0.06890    0.67460    1.000
    O17      O        0.61271    0.50640    0.45800    1.000
    O18      O        0.66860    0.28910    0.52070    1.000
    O19      O        0.74277    0.21570    0.86240    1.000
    O20      O        0.51250    0.31570    0.54160    1.000
    O21      O        0.50900    0.55630    0.66770    1.000
    O22      O        0.70882    0.53910    0.49380    1.000
    Ga5      Ga       0.11665    0.12231    0.18869    1.000
    Ga6      Ga       0.23265    0.66977    0.98931    1.000
    P7       P        0.00530    0.11340    0.32160    1.000
    P8       P        0.16125    0.04568    0.46161    1.000
    P9       P        0.19784    0.38883    0.17992    1.000
    O23      O        0.14347    0.30810    0.16870    1.000
    O24      O        0.19244    0.52650    0.09630    1.000
    O25      O        0.04825    0.16660    0.23130    1.000
    O26      O        0.14865    0.01290    0.31650    1.000
    O27      O        0.20717    0.43110    0.32540    1.000
    O28      O        0.11271    0.99360    0.54200    1.000
    O29      O        0.16860    0.21090    0.47930    1.000
    O30      O        0.24277    0.28430    0.13760    1.000
    O31      O        0.01250    0.18430    0.45840    1.000
    O32      O        0.00900    0.94370    0.33230    1.000
    O33      O        0.20882    0.96090    0.50620    1.000
    Ga7      Ga       0.38335    0.37769    0.68869    1.000
    Ga8      Ga       0.26735    0.83023    0.48931    1.000
    P10      P        0.49470    0.38660    0.82160    1.000
    P11      P        0.33875    0.45432    0.96161    1.000
    P12      P        0.30216    0.11117    0.67992    1.000
    O34      O        0.35653    0.19190    0.66870    1.000
    O35      O        0.30756    0.97350    0.59630    1.000
    O36      O        0.45175    0.33340    0.73130    1.000
    O37      O        0.35135    0.48710    0.81650    1.000
    O38      O        0.29283    0.06890    0.82540    1.000
    O39      O        0.38729    0.50640    0.04200    1.000
    O40      O        0.33140    0.28910    0.97930    1.000
    O41      O        0.25723    0.21570    0.63760    1.000
    O42      O        0.48750    0.31570    0.95840    1.000
    O43      O        0.49100    0.55630    0.83230    1.000
    O44      O        0.29118    0.53910    0.00620    1.000
    Ga9      Ga       0.11665    0.87769    0.68869    1.000
    Ga10     Ga       0.23265    0.33023    0.48931    1.000
    P13      P        0.00530    0.88660    0.82160    1.000
    P14      P        0.16125    0.95432    0.96161    1.000
    P15      P        0.19784    0.61117    0.67992    1.000
    O45      O        0.14347    0.69190    0.66870    1.000
    O46      O        0.19244    0.47350    0.59630    1.000
    O47      O        0.04825    0.83340    0.73130    1.000
    O48      O        0.14865    0.98710    0.81650    1.000
    O49      O        0.20717    0.56890    0.82540    1.000
    O50      O        0.11271    0.00640    0.04200    1.000
    O51      O        0.16860    0.78910    0.97930    1.000
    O52      O        0.24277    0.71570    0.63760    1.000
    O53      O        0.01250    0.81570    0.95840    1.000
    O54      O        0.00900    0.05630    0.83230    1.000
    O55      O        0.20882    0.03910    0.00620    1.000
    Ga11     Ga       0.38335    0.62231    0.18869    1.000
    Ga12     Ga       0.26735    0.16977    0.98931    1.000
    P16      P        0.49470    0.61340    0.32160    1.000
    P17      P        0.33875    0.54568    0.46161    1.000
    P18      P        0.30216    0.88883    0.17992    1.000
    O56      O        0.35653    0.80810    0.16870    1.000
    O57      O        0.30756    0.02650    0.09630    1.000
    O58      O        0.45175    0.66660    0.23130    1.000
    O59      O        0.35135    0.51290    0.31650    1.000
    O60      O        0.29283    0.93110    0.32540    1.000
    O61      O        0.38729    0.49360    0.54200    1.000
    O62      O        0.33140    0.71090    0.47930    1.000
    O63      O        0.25723    0.78430    0.13760    1.000
    O64      O        0.48750    0.68430    0.45840    1.000
    O65      O        0.49100    0.44370    0.33230    1.000
    O66      O        0.29118    0.46090    0.50620    1.000
    Ga13     Ga       0.88335    0.87769    0.81131    1.000
    Ga14     Ga       0.76735    0.33023    0.01069    1.000
    P19      P        0.99470    0.88660    0.67840    1.000
    P20      P        0.83875    0.95432    0.53839    1.000
    P21      P        0.80216    0.61117    0.82008    1.000
    O67      O        0.85653    0.69190    0.83130    1.000
    O68      O        0.80756    0.47350    0.90370    1.000
    O69      O        0.95175    0.83340    0.76870    1.000
    O70      O        0.85135    0.98710    0.68350    1.000
    O71      O        0.79283    0.56890    0.67460    1.000
    O72      O        0.88729    0.00640    0.45800    1.000
    O73      O        0.83140    0.78910    0.52070    1.000
    O74      O        0.75723    0.71570    0.86240    1.000
    O75      O        0.98750    0.81570    0.54160    1.000
    O76      O        0.99100    0.05630    0.66770    1.000
    O77      O        0.79118    0.03910    0.49380    1.000
    Ga15     Ga       0.61665    0.62231    0.31131    1.000
    Ga16     Ga       0.73265    0.16977    0.51069    1.000
    P22      P        0.50530    0.61340    0.17840    1.000
    P23      P        0.66125    0.54568    0.03839    1.000
    P24      P        0.69784    0.88883    0.32008    1.000
    O78      O        0.64347    0.80810    0.33130    1.000
    O79      O        0.69244    0.02650    0.40370    1.000
    O80      O        0.54825    0.66660    0.26870    1.000
    O81      O        0.64865    0.51290    0.18350    1.000
    O82      O        0.70717    0.93110    0.17460    1.000
    O83      O        0.61271    0.49360    0.95800    1.000
    O84      O        0.66860    0.71090    0.02070    1.000
    O85      O        0.74277    0.78430    0.36240    1.000
    O86      O        0.51250    0.68430    0.04160    1.000
    O87      O        0.50900    0.44370    0.16770    1.000
    O88      O        0.70882    0.46090    0.99380    1.000
