# CIF file generated by openbabel 3.1.0, see https://openbabel.org
data_I
_chemical_name_common 'image0'
_cell_length_a 15.1321
_cell_length_b 16.9762
_cell_length_c 17.0413
_cell_angle_alpha 110.922
_cell_angle_beta 93.255
_cell_angle_gamma 97.511
_space_group_name_H-M_alt 'P 1'
_space_group_name_Hall 'P 1'
loop_
    _symmetry_equiv_pos_as_xyz
    x,y,z
loop_
    _atom_site_label
    _atom_site_type_symbol
    _atom_site_fract_x
    _atom_site_fract_y
    _atom_site_fract_z
    _atom_site_occupancy
    Eu1      Eu       0.05785    0.62127    0.52860    1.000
    Eu2      Eu       0.94761    0.97034    0.88081    1.000
    Eu3      Eu       0.00793    0.86027    0.64410    1.000
    O1       O        0.91860    0.24760    0.33510    1.000
    O2       O        0.92610    0.83440    0.75050    1.000
    O3       O        0.82060    0.03820    0.94100    1.000
    O4       O        0.88130    0.27590    0.52420    1.000
    O5       O        0.92080    0.03550    0.03870    1.000
    O6       O        0.05650    0.28690    0.46680    1.000
    O7       O        0.06870    0.96960    0.78970    1.000
    O8       O        0.92070    0.53720    0.53550    1.000
    O9       O        0.89660    0.01930    0.77560    1.000
    O10      O        0.81410    0.43720    0.53950    1.000
    O11      O        0.99940    0.56000    0.38280    1.000
    O12      O        0.07480    0.15000    0.07270    1.000
    O13      O        0.00890    0.11760    0.93960    1.000
    O14      O        0.80360    0.86830    0.80860    1.000
    O15      O        0.14160    0.18610    0.43140    1.000
    O16      O        0.79860    0.30430    0.37060    1.000
    O17      O        0.92990    0.15060    0.47850    1.000
    O18      O        0.92990    0.42580    0.35500    1.000
    O19      O        0.16000    0.93850    0.68990    1.000
    O20      O        0.95700    0.98490    0.65340    1.000
    N1       N        0.52610    0.12190    0.02130    1.000
    C1       C        0.95930    0.48550    0.33290    1.000
    N2       N        0.51960    0.51930    0.62030    1.000
    C2       C        0.04580    0.16970    0.01300    1.000
    H1       H        0.05170    0.22900    0.02280    1.000
    C3       C        0.90640    0.11680    0.70470    1.000
    C4       C        0.90280    0.21110    0.53540    1.000
    C5       C        0.79450    0.21090    0.22750    1.000
    C6       C        0.89530    0.20130    0.61820    1.000
    C7       C        0.88400    0.27120    0.68900    1.000
    H2       H        0.87660    0.32400    0.68410    1.000
    C8       C        0.80320    0.11810    0.08340    1.000
    C9       C        0.84410    0.81490    0.75970    1.000
    C10      C        0.14850    0.97670    0.76570    1.000
    C11      C        0.91940    0.03510    0.71270    1.000
    C12      C        0.90790    0.12530    0.62730    1.000
    H3       H        0.91780    0.07840    0.57940    1.000
    C13      C        0.88370    0.26210    0.76760    1.000
    C14      C        0.79960    0.58210    0.61630    1.000
    C15      C        0.84370    0.66360    0.66560    1.000
    H4       H        0.90690    0.67680    0.66770    1.000
    C16      C        0.83820    0.25680    0.31580    1.000
    C17      C        0.79620    0.72550    0.71170    1.000
    C18      C        0.89260    0.18540    0.77530    1.000
    H5       H        0.88930    0.17930    0.82840    1.000
    C19      C        0.85120    0.06020    0.01690    1.000
    C20      C        0.84800    0.51550    0.56110    1.000
    C21      C        0.84400    0.16450    0.16480    1.000
    H6       H        0.90580    0.16480    0.17830    1.000
    C22      C        0.22690    0.02650    0.82910    1.000
    C23      C        0.13250    0.26170    0.47180    1.000
    C24      C        0.71460    0.12090    0.06340    1.000
    H7       H        0.68710    0.09030    0.00720    1.000
    C25      C        0.70880    0.56100    0.61780    1.000
    H8       H        0.67880    0.50450    0.58650    1.000
    C26      C        0.21290    0.08300    0.90950    1.000
    H9       H        0.15440    0.09560    0.92010    1.000
    C27      C        0.20060    0.40490    0.58010    1.000
    H10      H        0.14200    0.41450    0.59380    1.000
    C28      C        0.31370    0.01490    0.81280    1.000
    H11      H        0.32460    0.98070    0.75760    1.000
    C29      C        0.70430    0.21250    0.20610    1.000
    H12      H        0.67030    0.24420    0.24800    1.000
    C30      C        0.29830    0.30960    0.50930    1.000
    H13      H        0.30730    0.25450    0.47360    1.000
    C31      C        0.21180    0.32580    0.52280    1.000
    C32      C        0.28360    0.12040    0.97340    1.000
    H14      H        0.27310    0.15580    0.02820    1.000
    C33      C        0.70460    0.70510    0.71210    1.000
    H15      H        0.67180    0.74730    0.74420    1.000
    C34      C        0.87920    0.33880    0.84520    1.000
    N3       N        0.43480    0.19710    0.10060    1.000
    C35      C        0.27170    0.46970    0.61750    1.000
    H16      H        0.26230    0.52420    0.65450    1.000
    N4       N        0.89670    0.33470    0.92350    1.000
    C36      C        0.66430    0.16790    0.12410    1.000
    C37      C        0.66110    0.62310    0.66570    1.000
    C38      C        0.38460    0.05190    0.87530    1.000
    H17      H        0.44340    0.04110    0.86350    1.000
    C39      C        0.35710    0.45390    0.60000    1.000
    N5       N        0.50700    0.64840    0.70440    1.000
    N6       N        0.51490    0.21260    0.14820    1.000
    C40      C        0.57010    0.16860    0.09890    1.000
    C41      C        0.56370    0.59700    0.66470    1.000
    N7       N        0.42460    0.60140    0.68850    1.000
    C42      C        0.37030    0.10540    0.95630    1.000
    C43      C        0.44420    0.14080    0.02490    1.000
    C44      C        0.43350    0.52400    0.63670    1.000
    N8       N        0.86240    0.41090    0.84890    1.000
    C45      C        0.37200    0.37330    0.54750    1.000
    H18      H        0.43120    0.36220    0.53810    1.000
    C46      C        0.94000    0.53530    0.21150    1.000
    H19      H        0.95040    0.59330    0.24910    1.000
    C47      C        0.94330    0.47060    0.24320    1.000
    C48      C        0.92230    0.51630    0.12820    1.000
    H20      H        0.92070    0.56180    0.10840    1.000
    N9       N        0.86500    0.45840    0.93600    1.000
    C49      C        0.88700    0.41350    0.97570    1.000
    C50      C        0.90580    0.43180    0.06890    1.000
    C51      C        0.92270    0.38610    0.18680    1.000
    H21      H        0.91940    0.34140    0.20830    1.000
    C52      C        0.90680    0.36500    0.09950    1.000
    H22      H        0.89690    0.30710    0.06170    1.000
    Eu4      Eu       0.94215    0.37873    0.47140    1.000
    Eu5      Eu       0.05239    0.02966    0.11919    1.000
    Eu6      Eu       0.99207    0.13973    0.35590    1.000
    O21      O        0.08140    0.75240    0.66490    1.000
    O22      O        0.07390    0.16560    0.24950    1.000
    O23      O        0.17940    0.96180    0.05900    1.000
    O24      O        0.11870    0.72410    0.47580    1.000
    O25      O        0.07920    0.96450    0.96130    1.000
    O26      O        0.94350    0.71310    0.53320    1.000
    O27      O        0.93130    0.03040    0.21030    1.000
    O28      O        0.07930    0.46280    0.46450    1.000
    O29      O        0.10340    0.98070    0.22440    1.000
    O30      O        0.18590    0.56280    0.46050    1.000
    O31      O        0.00060    0.44000    0.61720    1.000
    O32      O        0.92520    0.85000    0.92730    1.000
    O33      O        0.99110    0.88240    0.06040    1.000
    O34      O        0.19640    0.13170    0.19140    1.000
    O35      O        0.85840    0.81390    0.56860    1.000
    O36      O        0.20140    0.69570    0.62940    1.000
    O37      O        0.07010    0.84940    0.52150    1.000
    O38      O        0.07010    0.57420    0.64500    1.000
    O39      O        0.84000    0.06150    0.31010    1.000
    O40      O        0.04300    0.01510    0.34660    1.000
    N10      N        0.47390    0.87810    0.97870    1.000
    C53      C        0.04070    0.51450    0.66710    1.000
    N11      N        0.48040    0.48070    0.37970    1.000
    C54      C        0.95420    0.83030    0.98700    1.000
    H23      H        0.94830    0.77100    0.97720    1.000
    C55      C        0.09360    0.88320    0.29530    1.000
    C56      C        0.09720    0.78890    0.46460    1.000
    C57      C        0.20550    0.78910    0.77250    1.000
    C58      C        0.10470    0.79870    0.38180    1.000
    C59      C        0.11600    0.72880    0.31100    1.000
    H24      H        0.12340    0.67600    0.31590    1.000
    C60      C        0.19680    0.88190    0.91660    1.000
    C61      C        0.15590    0.18510    0.24030    1.000
    C62      C        0.85150    0.02330    0.23430    1.000
    C63      C        0.08060    0.96490    0.28730    1.000
    C64      C        0.09210    0.87470    0.37270    1.000
    H25      H        0.08220    0.92160    0.42060    1.000
    C65      C        0.11630    0.73790    0.23240    1.000
    C66      C        0.20040    0.41790    0.38370    1.000
    C67      C        0.15630    0.33640    0.33440    1.000
    H26      H        0.09310    0.32320    0.33230    1.000
    C68      C        0.16180    0.74320    0.68420    1.000
    C69      C        0.20380    0.27450    0.28830    1.000
    C70      C        0.10740    0.81460    0.22470    1.000
    H27      H        0.11070    0.82070    0.17160    1.000
    C71      C        0.14880    0.93980    0.98310    1.000
    C72      C        0.15200    0.48450    0.43890    1.000
    C73      C        0.15600    0.83550    0.83520    1.000
    H28      H        0.09420    0.83520    0.82170    1.000
    C74      C        0.77310    0.97350    0.17090    1.000
    C75      C        0.86750    0.73830    0.52820    1.000
    C76      C        0.28540    0.87910    0.93660    1.000
    H29      H        0.31290    0.90970    0.99280    1.000
    C77      C        0.29120    0.43900    0.38220    1.000
    H30      H        0.32120    0.49550    0.41350    1.000
    C78      C        0.78710    0.91700    0.09050    1.000
    H31      H        0.84560    0.90440    0.07990    1.000
    C79      C        0.79940    0.59510    0.41990    1.000
    H32      H        0.85800    0.58550    0.40620    1.000
    C80      C        0.68630    0.98510    0.18720    1.000
    H33      H        0.67540    0.01930    0.24240    1.000
    C81      C        0.29570    0.78750    0.79390    1.000
    H34      H        0.32970    0.75580    0.75200    1.000
    C82      C        0.70170    0.69040    0.49070    1.000
    H35      H        0.69270    0.74550    0.52640    1.000
    C83      C        0.78820    0.67420    0.47720    1.000
    C84      C        0.71640    0.87960    0.02660    1.000
    H36      H        0.72690    0.84420    0.97180    1.000
    C85      C        0.29540    0.29490    0.28790    1.000
    H37      H        0.32820    0.25270    0.25580    1.000
    C86      C        0.12080    0.66120    0.15480    1.000
    N12      N        0.56520    0.80290    0.89940    1.000
    C87      C        0.72830    0.53030    0.38250    1.000
    H38      H        0.73770    0.47580    0.34550    1.000
    N13      N        0.10330    0.66530    0.07650    1.000
    C88      C        0.33570    0.83210    0.87590    1.000
    C89      C        0.33890    0.37690    0.33430    1.000
    C90      C        0.61540    0.94810    0.12470    1.000
    H39      H        0.55660    0.95890    0.13650    1.000
    C91      C        0.64290    0.54610    0.40000    1.000
    N14      N        0.49300    0.35160    0.29560    1.000
    N15      N        0.48510    0.78740    0.85180    1.000
    C92      C        0.42990    0.83140    0.90110    1.000
    C93      C        0.43630    0.40300    0.33530    1.000
    N16      N        0.57540    0.39860    0.31150    1.000
    C94      C        0.62970    0.89460    0.04370    1.000
    C95      C        0.55580    0.85920    0.97510    1.000
    C96      C        0.56650    0.47600    0.36330    1.000
    N17      N        0.13760    0.58910    0.15110    1.000
    C97      C        0.62800    0.62670    0.45250    1.000
    H40      H        0.56880    0.63780    0.46190    1.000
    C98      C        0.06000    0.46470    0.78850    1.000
    H41      H        0.04960    0.40670    0.75090    1.000
    C99      C        0.05670    0.52940    0.75680    1.000
    C100     C        0.07770    0.48370    0.87180    1.000
    H42      H        0.07930    0.43820    0.89160    1.000
    N18      N        0.13500    0.54160    0.06400    1.000
    C101     C        0.11300    0.58650    0.02430    1.000
    C102     C        0.09420    0.56820    0.93110    1.000
    C103     C        0.07730    0.61390    0.81320    1.000
    H43      H        0.08060    0.65860    0.79170    1.000
    C104     C        0.09320    0.63500    0.90050    1.000
    H44      H        0.10310    0.69290    0.93830    1.000
