# CIF file generated by openbabel 3.1.0, see https://openbabel.org
data_I
_chemical_name_common 'image0'
_cell_length_a 13.386
_cell_length_b 21.482
_cell_length_c 10.176
_cell_angle_alpha 90
_cell_angle_beta 94.752
_cell_angle_gamma 90
_space_group_name_H-M_alt 'P 1'
_space_group_name_Hall 'P 1'
loop_
    _symmetry_equiv_pos_as_xyz
    x,y,z
loop_
    _atom_site_label
    _atom_site_type_symbol
    _atom_site_fract_x
    _atom_site_fract_y
    _atom_site_fract_z
    _atom_site_occupancy
    Cd1      Cd       0.51522    0.57310    0.41900    1.000
    O1       O        0.00440    0.86616    0.37214    1.000
    C1       C        0.89673    0.78043    0.24654    1.000
    C2       C        0.85720    0.75710    0.12720    1.000
    H1       H        0.88260    0.77000    0.04710    1.000
    C3       C        0.77950    0.71430    0.12690    1.000
    H2       H        0.75280    0.69670    0.04590    1.000
    C4       C        0.74016    0.69696    0.24479    1.000
    C5       C        0.78480    0.72007    0.36250    1.000
    H3       H        0.76130    0.70650    0.44330    1.000
    C6       C        0.86300    0.76264    0.36530    1.000
    H4       H        0.89230    0.77890    0.44630    1.000
    C7       C        0.65243    0.65289    0.24625    1.000
    O2       O        0.62065    0.62974    0.13743    1.000
    O3       O        0.61986    0.64348    0.35720    1.000
    O4       O        0.00492    0.28242    0.12808    1.000
    C8       C        0.10519    0.36581    0.26844    1.000
    C9       C        0.13875    0.38825    0.39254    1.000
    H5       H        0.10400    0.37810    0.46740    1.000
    C10      C        0.22332    0.42561    0.40586    1.000
    H6       H        0.24740    0.44080    0.49030    1.000
    C11      C        0.27308    0.44084    0.29507    1.000
    C12      C        0.23793    0.41879    0.17107    1.000
    H7       H        0.27180    0.42950    0.09580    1.000
    C13      C        0.15385    0.38131    0.15740    1.000
    H8       H        0.12950    0.36630    0.07300    1.000
    C14      C        0.36325    0.48288    0.30633    1.000
    O5       O        0.40942    0.49072    0.42103    1.000
    O6       O        0.38609    0.50926    0.20491    1.000
    C15      C        0.88370    0.73450    0.14680    1.000
    H9       H        0.92870    0.73170    0.07960    1.000
    C16      C        0.80270    0.69330    0.14980    1.000
    H10      H        0.79230    0.66230    0.08330    1.000
    C17      C        0.74910    0.74410    0.34130    1.000
    H11      H        0.70090    0.74790    0.40430    1.000
    C18      C        0.82930    0.78460    0.34280    1.000
    H12      H        0.83830    0.81540    0.40970    1.000
    Cd2      Cd       0.48478    0.57310    0.08100    1.000
    O7       O        0.99560    0.86616    0.12786    1.000
    C19      C        0.10327    0.78043    0.25346    1.000
    C20      C        0.14280    0.75710    0.37280    1.000
    H13      H        0.11740    0.77000    0.45290    1.000
    C21      C        0.22050    0.71430    0.37310    1.000
    H14      H        0.24720    0.69670    0.45410    1.000
    C22      C        0.25984    0.69696    0.25521    1.000
    C23      C        0.21520    0.72007    0.13750    1.000
    H15      H        0.23870    0.70650    0.05670    1.000
    C24      C        0.13700    0.76264    0.13470    1.000
    H16      H        0.10770    0.77890    0.05370    1.000
    C25      C        0.34757    0.65289    0.25375    1.000
    O8       O        0.37935    0.62974    0.36257    1.000
    O9       O        0.38014    0.64348    0.14280    1.000
    O10      O        0.99508    0.28242    0.37192    1.000
    C26      C        0.89481    0.36581    0.23156    1.000
    C27      C        0.86125    0.38825    0.10746    1.000
    H17      H        0.89600    0.37810    0.03260    1.000
    C28      C        0.77668    0.42561    0.09414    1.000
    H18      H        0.75260    0.44080    0.00970    1.000
    C29      C        0.72692    0.44084    0.20493    1.000
    C30      C        0.76207    0.41879    0.32893    1.000
    H19      H        0.72820    0.42950    0.40420    1.000
    C31      C        0.84615    0.38131    0.34260    1.000
    H20      H        0.87050    0.36630    0.42700    1.000
    C32      C        0.63675    0.48288    0.19367    1.000
    O11      O        0.59058    0.49072    0.07897    1.000
    O12      O        0.61391    0.50926    0.29509    1.000
    C33      C        0.11630    0.73450    0.35320    1.000
    H21      H        0.07130    0.73170    0.42040    1.000
    C34      C        0.19730    0.69330    0.35020    1.000
    H22      H        0.20770    0.66230    0.41670    1.000
    C35      C        0.25090    0.74410    0.15870    1.000
    H23      H        0.29910    0.74790    0.09570    1.000
    C36      C        0.17070    0.78460    0.15720    1.000
    H24      H        0.16170    0.81540    0.09030    1.000
    Cd3      Cd       0.48478    0.42690    0.58100    1.000
    O13      O        0.99560    0.13384    0.62786    1.000
    C37      C        0.10327    0.21957    0.75346    1.000
    C38      C        0.14280    0.24290    0.87280    1.000
    H25      H        0.11740    0.23000    0.95290    1.000
    C39      C        0.22050    0.28570    0.87310    1.000
    H26      H        0.24720    0.30330    0.95410    1.000
    C40      C        0.25984    0.30304    0.75521    1.000
    C41      C        0.21520    0.27993    0.63750    1.000
    H27      H        0.23870    0.29350    0.55670    1.000
    C42      C        0.13700    0.23736    0.63470    1.000
    H28      H        0.10770    0.22110    0.55370    1.000
    C43      C        0.34757    0.34711    0.75375    1.000
    O14      O        0.37935    0.37026    0.86257    1.000
    O15      O        0.38014    0.35652    0.64280    1.000
    O16      O        0.99508    0.71758    0.87192    1.000
    C44      C        0.89481    0.63419    0.73156    1.000
    C45      C        0.86125    0.61175    0.60746    1.000
    H29      H        0.89600    0.62190    0.53260    1.000
    C46      C        0.77668    0.57439    0.59414    1.000
    H30      H        0.75260    0.55920    0.50970    1.000
    C47      C        0.72692    0.55916    0.70493    1.000
    C48      C        0.76207    0.58121    0.82893    1.000
    H31      H        0.72820    0.57050    0.90420    1.000
    C49      C        0.84615    0.61869    0.84260    1.000
    H32      H        0.87050    0.63370    0.92700    1.000
    C50      C        0.63675    0.51712    0.69367    1.000
    O17      O        0.59058    0.50928    0.57897    1.000
    O18      O        0.61391    0.49074    0.79509    1.000
    C51      C        0.11630    0.26550    0.85320    1.000
    H33      H        0.07130    0.26830    0.92040    1.000
    C52      C        0.19730    0.30670    0.85020    1.000
    H34      H        0.20770    0.33770    0.91670    1.000
    C53      C        0.25090    0.25590    0.65870    1.000
    H35      H        0.29910    0.25210    0.59570    1.000
    C54      C        0.17070    0.21540    0.65720    1.000
    H36      H        0.16170    0.18460    0.59030    1.000
    Cd4      Cd       0.51522    0.42690    0.91900    1.000
    O19      O        0.00440    0.13384    0.87214    1.000
    C55      C        0.89673    0.21957    0.74654    1.000
    C56      C        0.85720    0.24290    0.62720    1.000
    H37      H        0.88260    0.23000    0.54710    1.000
    C57      C        0.77950    0.28570    0.62690    1.000
    H38      H        0.75280    0.30330    0.54590    1.000
    C58      C        0.74016    0.30304    0.74479    1.000
    C59      C        0.78480    0.27993    0.86250    1.000
    H39      H        0.76130    0.29350    0.94330    1.000
    C60      C        0.86300    0.23736    0.86530    1.000
    H40      H        0.89230    0.22110    0.94630    1.000
    C61      C        0.65243    0.34711    0.74625    1.000
    O20      O        0.62065    0.37026    0.63743    1.000
    O21      O        0.61986    0.35652    0.85720    1.000
    O22      O        0.00492    0.71758    0.62808    1.000
    C62      C        0.10519    0.63419    0.76844    1.000
    C63      C        0.13875    0.61175    0.89254    1.000
    H41      H        0.10400    0.62190    0.96740    1.000
    C64      C        0.22332    0.57439    0.90586    1.000
    H42      H        0.24740    0.55920    0.99030    1.000
    C65      C        0.27308    0.55916    0.79507    1.000
    C66      C        0.23793    0.58121    0.67107    1.000
    H43      H        0.27180    0.57050    0.59580    1.000
    C67      C        0.15385    0.61869    0.65740    1.000
    H44      H        0.12950    0.63370    0.57300    1.000
    C68      C        0.36325    0.51712    0.80633    1.000
    O23      O        0.40942    0.50928    0.92103    1.000
    O24      O        0.38609    0.49074    0.70491    1.000
    C69      C        0.88370    0.26550    0.64680    1.000
    H45      H        0.92870    0.26830    0.57960    1.000
    C70      C        0.80270    0.30670    0.64980    1.000
    H46      H        0.79230    0.33770    0.58330    1.000
    C71      C        0.74910    0.25590    0.84130    1.000
    H47      H        0.70090    0.25210    0.90430    1.000
    C72      C        0.82930    0.21540    0.84280    1.000
    H48      H        0.83830    0.18460    0.90970    1.000
    S1       S        0.00000    0.83155    0.25000    1.000
    S2       S        0.00000    0.16845    0.75000    1.000
    S3       S        0.00000    0.31575    0.25000    1.000
    S4       S        0.00000    0.68425    0.75000    1.000
    Cd5      Cd       0.01522    0.07310    0.41900    1.000
    O25      O        0.50440    0.36616    0.37214    1.000
    C73      C        0.39673    0.28043    0.24654    1.000
    C74      C        0.35720    0.25710    0.12720    1.000
    H49      H        0.38260    0.27000    0.04710    1.000
    C75      C        0.27950    0.21430    0.12690    1.000
    H50      H        0.25280    0.19670    0.04590    1.000
    C76      C        0.24016    0.19696    0.24479    1.000
    C77      C        0.28480    0.22007    0.36250    1.000
    H51      H        0.26130    0.20650    0.44330    1.000
    C78      C        0.36300    0.26264    0.36530    1.000
    H52      H        0.39230    0.27890    0.44630    1.000
    C79      C        0.15243    0.15289    0.24625    1.000
    O26      O        0.12065    0.12974    0.13743    1.000
    O27      O        0.11986    0.14348    0.35720    1.000
    O28      O        0.50492    0.78242    0.12808    1.000
    C80      C        0.60519    0.86581    0.26844    1.000
    C81      C        0.63875    0.88825    0.39254    1.000
    H53      H        0.60400    0.87810    0.46740    1.000
    C82      C        0.72332    0.92561    0.40586    1.000
    H54      H        0.74740    0.94080    0.49030    1.000
    C83      C        0.77308    0.94084    0.29507    1.000
    C84      C        0.73793    0.91879    0.17107    1.000
    H55      H        0.77180    0.92950    0.09580    1.000
    C85      C        0.65385    0.88131    0.15740    1.000
    H56      H        0.62950    0.86630    0.07300    1.000
    C86      C        0.86325    0.98288    0.30633    1.000
    O29      O        0.90942    0.99072    0.42103    1.000
    O30      O        0.88609    0.00926    0.20491    1.000
    C87      C        0.38370    0.23450    0.14680    1.000
    H57      H        0.42870    0.23170    0.07960    1.000
    C88      C        0.30270    0.19330    0.14980    1.000
    H58      H        0.29230    0.16230    0.08330    1.000
    C89      C        0.24910    0.24410    0.34130    1.000
    H59      H        0.20090    0.24790    0.40430    1.000
    C90      C        0.32930    0.28460    0.34280    1.000
    H60      H        0.33830    0.31540    0.40970    1.000
    Cd6      Cd       0.98478    0.07310    0.08100    1.000
    O31      O        0.49560    0.36616    0.12786    1.000
    C91      C        0.60327    0.28043    0.25346    1.000
    C92      C        0.64280    0.25710    0.37280    1.000
    H61      H        0.61740    0.27000    0.45290    1.000
    C93      C        0.72050    0.21430    0.37310    1.000
    H62      H        0.74720    0.19670    0.45410    1.000
    C94      C        0.75984    0.19696    0.25521    1.000
    C95      C        0.71520    0.22007    0.13750    1.000
    H63      H        0.73870    0.20650    0.05670    1.000
    C96      C        0.63700    0.26264    0.13470    1.000
    H64      H        0.60770    0.27890    0.05370    1.000
    C97      C        0.84757    0.15289    0.25375    1.000
    O32      O        0.87935    0.12974    0.36257    1.000
    O33      O        0.88014    0.14348    0.14280    1.000
    O34      O        0.49508    0.78242    0.37192    1.000
    C98      C        0.39481    0.86581    0.23156    1.000
    C99      C        0.36125    0.88825    0.10746    1.000
    H65      H        0.39600    0.87810    0.03260    1.000
    C100     C        0.27668    0.92561    0.09414    1.000
    H66      H        0.25260    0.94080    0.00970    1.000
    C101     C        0.22692    0.94084    0.20493    1.000
    C102     C        0.26207    0.91879    0.32893    1.000
    H67      H        0.22820    0.92950    0.40420    1.000
    C103     C        0.34615    0.88131    0.34260    1.000
    H68      H        0.37050    0.86630    0.42700    1.000
    C104     C        0.13675    0.98288    0.19367    1.000
    O35      O        0.09058    0.99072    0.07897    1.000
    O36      O        0.11391    0.00926    0.29509    1.000
    C105     C        0.61630    0.23450    0.35320    1.000
    H69      H        0.57130    0.23170    0.42040    1.000
    C106     C        0.69730    0.19330    0.35020    1.000
    H70      H        0.70770    0.16230    0.41670    1.000
    C107     C        0.75090    0.24410    0.15870    1.000
    H71      H        0.79910    0.24790    0.09570    1.000
    C108     C        0.67070    0.28460    0.15720    1.000
    H72      H        0.66170    0.31540    0.09030    1.000
    Cd7      Cd       0.98478    0.92690    0.58100    1.000
    O37      O        0.49560    0.63384    0.62786    1.000
    C109     C        0.60327    0.71957    0.75346    1.000
    C110     C        0.64280    0.74290    0.87280    1.000
    H73      H        0.61740    0.73000    0.95290    1.000
    C111     C        0.72050    0.78570    0.87310    1.000
    H74      H        0.74720    0.80330    0.95410    1.000
    C112     C        0.75984    0.80304    0.75521    1.000
    C113     C        0.71520    0.77993    0.63750    1.000
    H75      H        0.73870    0.79350    0.55670    1.000
    C114     C        0.63700    0.73736    0.63470    1.000
    H76      H        0.60770    0.72110    0.55370    1.000
    C115     C        0.84757    0.84711    0.75375    1.000
    O38      O        0.87935    0.87026    0.86257    1.000
    O39      O        0.88014    0.85652    0.64280    1.000
    O40      O        0.49508    0.21758    0.87192    1.000
    C116     C        0.39481    0.13419    0.73156    1.000
    C117     C        0.36125    0.11175    0.60746    1.000
    H77      H        0.39600    0.12190    0.53260    1.000
    C118     C        0.27668    0.07439    0.59414    1.000
    H78      H        0.25260    0.05920    0.50970    1.000
    C119     C        0.22692    0.05916    0.70493    1.000
    C120     C        0.26207    0.08121    0.82893    1.000
    H79      H        0.22820    0.07050    0.90420    1.000
    C121     C        0.34615    0.11869    0.84260    1.000
    H80      H        0.37050    0.13370    0.92700    1.000
    C122     C        0.13675    0.01712    0.69367    1.000
    O41      O        0.09058    0.00928    0.57897    1.000
    O42      O        0.11391    0.99074    0.79509    1.000
    C123     C        0.61630    0.76550    0.85320    1.000
    H81      H        0.57130    0.76830    0.92040    1.000
    C124     C        0.69730    0.80670    0.85020    1.000
    H82      H        0.70770    0.83770    0.91670    1.000
    C125     C        0.75090    0.75590    0.65870    1.000
    H83      H        0.79910    0.75210    0.59570    1.000
    C126     C        0.67070    0.71540    0.65720    1.000
    H84      H        0.66170    0.68460    0.59030    1.000
    Cd8      Cd       0.01522    0.92690    0.91900    1.000
    O43      O        0.50440    0.63384    0.87214    1.000
    C127     C        0.39673    0.71957    0.74654    1.000
    C128     C        0.35720    0.74290    0.62720    1.000
    H85      H        0.38260    0.73000    0.54710    1.000
    C129     C        0.27950    0.78570    0.62690    1.000
    H86      H        0.25280    0.80330    0.54590    1.000
    C130     C        0.24016    0.80304    0.74479    1.000
    C131     C        0.28480    0.77993    0.86250    1.000
    H87      H        0.26130    0.79350    0.94330    1.000
    C132     C        0.36300    0.73736    0.86530    1.000
    H88      H        0.39230    0.72110    0.94630    1.000
    C133     C        0.15243    0.84711    0.74625    1.000
    O44      O        0.12065    0.87026    0.63743    1.000
    O45      O        0.11986    0.85652    0.85720    1.000
    O46      O        0.50492    0.21758    0.62808    1.000
    C134     C        0.60519    0.13419    0.76844    1.000
    C135     C        0.63875    0.11175    0.89254    1.000
    H89      H        0.60400    0.12190    0.96740    1.000
    C136     C        0.72332    0.07439    0.90586    1.000
    H90      H        0.74740    0.05920    0.99030    1.000
    C137     C        0.77308    0.05916    0.79507    1.000
    C138     C        0.73793    0.08121    0.67107    1.000
    H91      H        0.77180    0.07050    0.59580    1.000
    C139     C        0.65385    0.11869    0.65740    1.000
    H92      H        0.62950    0.13370    0.57300    1.000
    C140     C        0.86325    0.01712    0.80633    1.000
    O47      O        0.90942    0.00928    0.92103    1.000
    O48      O        0.88609    0.99074    0.70491    1.000
    C141     C        0.38370    0.76550    0.64680    1.000
    H93      H        0.42870    0.76830    0.57960    1.000
    C142     C        0.30270    0.80670    0.64980    1.000
    H94      H        0.29230    0.83770    0.58330    1.000
    C143     C        0.24910    0.75590    0.84130    1.000
    H95      H        0.20090    0.75210    0.90430    1.000
    C144     C        0.32930    0.71540    0.84280    1.000
    H96      H        0.33830    0.68460    0.90970    1.000
    S5       S        0.50000    0.33155    0.25000    1.000
    S6       S        0.50000    0.66845    0.75000    1.000
    S7       S        0.50000    0.81575    0.25000    1.000
    S8       S        0.50000    0.18425    0.75000    1.000
