data_functionalizedCrystal
_audit_creation_method	'EQeq! by Chris Wilmer'
_symmetry_space_group_name_H-M	'P1'
_symmetry_Int_Tables_number	1
_symmetry_cell_setting	triclinic
loop_
_symmetry_equiv_pos_as_xyz
  x,y,z
_cell_length_a	10.108
_cell_length_b	13.6695
_cell_length_c	28.8626
_cell_angle_alpha	90
_cell_angle_beta	99.502
_cell_angle_gamma	90
loop_
_atom_site_label
_atom_site_type_symbol
_atom_site_fract_x
_atom_site_fract_y
_atom_site_fract_z
_atom_site_charge
Mof_C 	C 	0.4785	0.186	0.88874	0.325
Mof_C 	C 	0.4276	0.2468	0.92549	-0.145
Mof_C 	C 	0.4936	0.2506	0.97107	0.093
Mof_H 	H 	0.5671	0.2101	0.9803	0.014
Mof_C 	C 	0.3142	0.3038	0.91348	0.096
Mof_H 	H 	0.267	0.3007	0.883	0.003
Mof_C 	C 	0.2694	0.365	0.94526	-0.201
Mof_H 	H 	0.1913	0.4011	0.9364	0.102
Mof_C 	C 	0.4524	0.3137	0.00357	-0.197
Mof_H 	H 	0.4998	0.316	0.034	0.103
Mof_C 	C 	0.341	0.3733	0.99101	0.17
Mof_C 	C 	0.2322	0.5293	0.00685	0.181
Mof_C 	C 	0.1385	0.5666	0.0325	-0.205
Mof_H 	H 	0.1202	0.5334	0.0589	0.107
Mof_C 	C 	0.2545	0.5788	0.96732	-0.22
Mof_H 	H 	0.3167	0.5547	0.9498	0.111
Mof_C 	C 	0.1852	0.6641	0.95349	0.117
Mof_H 	H 	0.2006	0.6959	0.9264	-0.008
Mof_C 	C 	0.0724	0.6537	0.0187	0.109
Mof_H 	H 	0.0122	0.6796	0.0366	-0.006
Mof_C 	C 	0.0949	0.7023	0.9786	-0.184
Mof_H 	H 	0.0493	0.7599	0.9691	0.095
Mof_C 	C 	0.3541	0.4354	0.07196	0.17
Mof_C 	C 	0.3391	0.3505	0.09657	-0.201
Mof_H 	H 	0.2974	0.2962	0.0811	0.102
Mof_C 	C 	0.4199	0.5145	0.09485	-0.196
Mof_H 	H 	0.4332	0.5706	0.078	0.11
Mof_C 	C 	0.3864	0.3468	0.14429	0.087
Mof_H 	H 	0.376	0.2896	0.1607	0.011
Mof_C 	C 	0.4664	0.5106	0.14292	0.084
Mof_H 	H 	0.5094	0.5646	0.1583	0.021
Mof_C 	C 	0.4488	0.4263	0.16802	-0.137
Mof_C 	C 	0.4906	0.4237	0.22064	0.317
Mof_N 	N 	0.3029	0.442	0.02292	-0.192
Mof_O 	O 	0.4306	0.2037	0.84673	-0.276
Mof_O 	O 	0.5639	0.1212	0.90083	-0.279
Mof_O 	O 	0.455	0.3523	0.24298	-0.268
Mof_O 	O 	0.5575	0.4924	0.24112	-0.281
Mof_C 	C 	0.4785	0.314	0.38874	0.324
Mof_C 	C 	0.4276	0.2532	0.42549	-0.146
Mof_C 	C 	0.4936	0.2494	0.47107	0.093
Mof_H 	H 	0.5671	0.2899	0.4803	0.013
Mof_C 	C 	0.3142	0.1962	0.41348	0.096
Mof_H 	H 	0.267	0.1993	0.383	0.003
Mof_C 	C 	0.2694	0.135	0.44526	-0.202
Mof_H 	H 	0.1913	0.0989	0.4364	0.101
Mof_C 	C 	0.4524	0.1863	0.50357	-0.198
Mof_H 	H 	0.4998	0.184	0.534	0.103
Mof_C 	C 	0.341	0.1267	0.49101	0.17
Mof_C 	C 	0.2322	0.9707	0.50685	0.183
Mof_C 	C 	0.1385	0.9334	0.5325	-0.206
Mof_H 	H 	0.1202	0.9666	0.5589	0.108
Mof_C 	C 	0.2545	0.9212	0.46732	-0.221
Mof_H 	H 	0.3167	0.9453	0.4498	0.111
Mof_C 	C 	0.1852	0.8359	0.45349	0.119
Mof_H 	H 	0.2006	0.8041	0.4264	-0.009
Mof_C 	C 	0.0724	0.8463	0.5187	0.111
Mof_H 	H 	0.0122	0.8204	0.5366	-0.007
Mof_C 	C 	0.0949	0.7977	0.4786	-0.185
Mof_H 	H 	0.0493	0.7401	0.4691	0.095
Mof_C 	C 	0.3541	0.0646	0.57196	0.169
Mof_C 	C 	0.3391	0.1495	0.59657	-0.201
Mof_H 	H 	0.2974	0.2038	0.5811	0.101
Mof_C 	C 	0.4199	0.9855	0.59485	-0.196
Mof_H 	H 	0.4332	0.9294	0.578	0.11
Mof_C 	C 	0.3864	0.1532	0.64429	0.087
Mof_H 	H 	0.376	0.2104	0.6607	0.011
Mof_C 	C 	0.4664	0.9894	0.64292	0.084
Mof_H 	H 	0.5094	0.9354	0.6583	0.021
Mof_C 	C 	0.4488	0.0737	0.66802	-0.138
Mof_C 	C 	0.4906	0.0763	0.72064	0.317
Mof_N 	N 	0.3029	0.058	0.52292	-0.192
Mof_O 	O 	0.4306	0.2963	0.34673	-0.276
Mof_O 	O 	0.5639	0.3788	0.40083	-0.279
Mof_O 	O 	0.455	0.1477	0.74298	-0.268
Mof_O 	O 	0.5575	0.0076	0.74112	-0.282
Mof_C 	C 	0.5215	0.686	0.61126	0.324
Mof_C 	C 	0.5724	0.7468	0.57451	-0.146
Mof_C 	C 	0.5064	0.7506	0.52893	0.093
Mof_H 	H 	0.4329	0.7101	0.5197	0.013
Mof_C 	C 	0.6858	0.8038	0.58652	0.096
Mof_H 	H 	0.733	0.8007	0.617	0.003
Mof_C 	C 	0.7306	0.865	0.55474	-0.202
Mof_H 	H 	0.8087	0.9011	0.5636	0.101
Mof_C 	C 	0.5476	0.8137	0.49643	-0.198
Mof_H 	H 	0.5002	0.816	0.466	0.103
Mof_C 	C 	0.659	0.8733	0.50899	0.17
Mof_C 	C 	0.7678	0.0293	0.49315	0.183
Mof_C 	C 	0.8615	0.0666	0.4675	-0.206
Mof_H 	H 	0.8798	0.0334	0.4411	0.108
Mof_C 	C 	0.7455	0.0788	0.53268	-0.221
Mof_H 	H 	0.6833	0.0547	0.5502	0.111
Mof_C 	C 	0.8148	0.1641	0.54651	0.119
Mof_H 	H 	0.7994	0.1959	0.5736	-0.009
Mof_C 	C 	0.9276	0.1537	0.4813	0.111
Mof_H 	H 	0.9878	0.1796	0.4634	-0.007
Mof_C 	C 	0.9051	0.2023	0.5214	-0.185
Mof_H 	H 	0.9507	0.2599	0.5309	0.095
Mof_C 	C 	0.6459	0.9354	0.42804	0.169
Mof_C 	C 	0.6609	0.8505	0.40343	-0.201
Mof_H 	H 	0.7026	0.7962	0.4189	0.101
Mof_C 	C 	0.5801	0.0145	0.40515	-0.196
Mof_H 	H 	0.5668	0.0706	0.422	0.11
Mof_C 	C 	0.6136	0.8468	0.35571	0.087
Mof_H 	H 	0.624	0.7896	0.3393	0.011
Mof_C 	C 	0.5336	0.0106	0.35708	0.084
Mof_H 	H 	0.4906	0.0646	0.3417	0.021
Mof_C 	C 	0.5512	0.9263	0.33198	-0.138
Mof_C 	C 	0.5094	0.9237	0.27936	0.317
Mof_N 	N 	0.6971	0.942	0.47708	-0.192
Mof_O 	O 	0.5694	0.7037	0.65327	-0.276
Mof_O 	O 	0.4361	0.6212	0.59917	-0.279
Mof_O 	O 	0.545	0.8523	0.25702	-0.268
Mof_O 	O 	0.4425	0.9924	0.25888	-0.282
Mof_C 	C 	0.5215	0.814	0.11126	0.324
Mof_C 	C 	0.5724	0.7532	0.07451	-0.146
Mof_C 	C 	0.5064	0.7494	0.02893	0.093
Mof_H 	H 	0.4329	0.7899	0.0197	0.014
Mof_C 	C 	0.6858	0.6962	0.08652	0.096
Mof_H 	H 	0.733	0.6993	0.117	0.003
Mof_C 	C 	0.7306	0.635	0.05474	-0.201
Mof_H 	H 	0.8087	0.5989	0.0636	0.102
Mof_C 	C 	0.5476	0.6863	0.99643	-0.197
Mof_H 	H 	0.5002	0.684	0.966	0.103
Mof_C 	C 	0.659	0.6267	0.00899	0.17
Mof_C 	C 	0.7678	0.4707	0.99315	0.181
Mof_C 	C 	0.8615	0.4334	0.9675	-0.205
Mof_H 	H 	0.8798	0.4666	0.9411	0.107
Mof_C 	C 	0.7455	0.4212	0.03268	-0.22
Mof_H 	H 	0.6833	0.4453	0.0502	0.111
Mof_C 	C 	0.8148	0.3359	0.04651	0.117
Mof_H 	H 	0.7994	0.3041	0.0736	-0.008
Mof_C 	C 	0.9276	0.3463	0.9813	0.109
Mof_H 	H 	0.9878	0.3204	0.9634	-0.006
Mof_C 	C 	0.9051	0.2977	0.0214	-0.184
Mof_H 	H 	0.9507	0.2401	0.0309	0.095
Mof_C 	C 	0.6459	0.5646	0.92804	0.17
Mof_C 	C 	0.6609	0.6495	0.90343	-0.201
Mof_H 	H 	0.7026	0.7038	0.9189	0.102
Mof_C 	C 	0.5801	0.4855	0.90515	-0.196
Mof_H 	H 	0.5668	0.4294	0.922	0.11
Mof_C 	C 	0.6136	0.6532	0.85571	0.087
Mof_H 	H 	0.624	0.7104	0.8393	0.011
Mof_C 	C 	0.5336	0.4894	0.85708	0.084
Mof_H 	H 	0.4906	0.4354	0.8417	0.021
Mof_C 	C 	0.5512	0.5737	0.83198	-0.137
Mof_C 	C 	0.5094	0.5763	0.77936	0.317
Mof_N 	N 	0.6971	0.558	0.97708	-0.192
Mof_O 	O 	0.5694	0.7963	0.15327	-0.276
Mof_O 	O 	0.4361	0.8788	0.09917	-0.279
Mof_O 	O 	0.545	0.6477	0.75702	-0.268
Mof_O 	O 	0.4425	0.5076	0.75888	-0.281
Mof_C 	C 	0.1534	0.8622	0.83236	0.18
Mof_C 	C 	0.2823	0.8277	0.84453	-0.214
Mof_H 	H 	0.2966	0.7637	0.8551	0.116
Mof_C 	C 	0.1398	0.957	0.81636	-0.22
Mof_H 	H 	0.0546	0.9833	0.8073	0.108
Mof_C 	C 	0.2507	0.0132	0.81364	0.124
Mof_H 	H 	0.2382	0.0775	0.8034	0.005
Mof_C 	C 	0.3903	0.8872	0.84124	0.125
Mof_H 	H 	0.4764	0.8626	0.8505	-0.009
Mof_C 	C 	0.86	0.17	0.83456	0.128
Mof_H 	H 	0.8805	0.1092	0.8484	-0.015
Mof_C 	C 	0.7074	0.279	0.79825	0.122
Mof_H 	H 	0.6187	0.2948	0.7864	0.014
Mof_C 	C 	0.9624	0.2354	0.83292	-0.225
Mof_H 	H 	0.0499	0.2184	0.8458	0.109
Mof_C 	C 	0.8038	0.3482	0.79518	-0.214
Mof_H 	H 	0.7804	0.409	0.7818	0.122
Mof_C 	C 	0.9365	0.3262	0.81232	0.179
Mof_C 	C 	0.0495	0.3939	0.80628	-0.201
Mof_H 	H 	0.0817	0.377	0.7774	0.096
Mof_H 	H 	0.1228	0.3838	0.8321	0.096
Mof_C 	C 	0.9828	0.534	0.84947	-0.006
Mof_H 	H 	0.9852	0.4956	0.8762	0.035
Mof_C 	C 	0.12	0.5558	0.79049	-0.019
Mof_H 	H 	0.2002	0.5308	0.7837	0.052
Mof_C 	C 	0.9488	0.6392	0.84731	-0.014
Mof_H 	H 	0.8683	0.6654	0.8532	0.042
Mof_C 	C 	0.0824	0.6628	0.78842	-0.006
Mof_H 	H 	0.0749	0.7017	0.7617	0.044
Mof_C 	C 	0.0324	0.8007	0.83559	-0.196
Mof_H 	H 	0.9621	0.8169	0.8096	0.09
Mof_H 	H 	0.9999	0.8164	0.8645	0.089
Mof_N 	N 	0.7329	0.1902	0.81717	-0.169
Mof_N 	N 	0.3756	0.9794	0.82515	-0.164
Mof_N 	N 	0.0122	0.497	0.80464	-0.077
Mof_N 	N 	0.0597	0.6962	0.83461	-0.078
Mof_Cd	Cd	0.55659	0.08175	0.81774	0.423
Mof_C 	C 	0.1534	0.6378	0.33236	0.182
Mof_C 	C 	0.2823	0.6723	0.34453	-0.216
Mof_H 	H 	0.2966	0.7363	0.3551	0.116
Mof_C 	C 	0.1398	0.543	0.31636	-0.224
Mof_H 	H 	0.0546	0.5167	0.3073	0.109
Mof_C 	C 	0.2507	0.4868	0.31364	0.127
Mof_H 	H 	0.2382	0.4225	0.3034	0.004
Mof_C 	C 	0.3903	0.6128	0.34124	0.126
Mof_H 	H 	0.4764	0.6374	0.3505	-0.009
Mof_C 	C 	0.86	0.33	0.33456	0.128
Mof_H 	H 	0.8805	0.3908	0.3484	-0.015
Mof_C 	C 	0.7074	0.221	0.29825	0.123
Mof_H 	H 	0.6187	0.2052	0.2864	0.014
Mof_C 	C 	0.9624	0.2646	0.33292	-0.226
Mof_H 	H 	0.0499	0.2816	0.3458	0.11
Mof_C 	C 	0.8038	0.1518	0.29518	-0.215
Mof_H 	H 	0.7804	0.091	0.2818	0.123
Mof_C 	C 	0.9365	0.1738	0.31232	0.18
Mof_C 	C 	0.0495	0.1061	0.30628	-0.202
Mof_H 	H 	0.0817	0.123	0.2774	0.096
Mof_H 	H 	0.1228	0.1162	0.3321	0.096
Mof_C 	C 	0.9828	0.966	0.34947	-0.009
Mof_H 	H 	0.9852	0.0044	0.3762	0.037
Mof_C 	C 	0.12	0.9442	0.29049	-0.018
Mof_H 	H 	0.2002	0.9692	0.2837	0.052
Mof_C 	C 	0.9488	0.8608	0.34731	-0.013
Mof_H 	H 	0.8683	0.8346	0.3532	0.042
Mof_C 	C 	0.0824	0.8372	0.28842	-0.007
Mof_H 	H 	0.0749	0.7983	0.2617	0.044
Mof_C 	C 	0.0324	0.6993	0.33559	-0.199
Mof_H 	H 	0.9621	0.6831	0.3096	0.092
Mof_H 	H 	0.9999	0.6836	0.3645	0.09
Mof_N 	N 	0.7329	0.3098	0.31717	-0.169
Mof_N 	N 	0.3756	0.5206	0.32515	-0.165
Mof_N 	N 	0.0122	0.003	0.30464	-0.077
Mof_N 	N 	0.0597	0.8038	0.33461	-0.078
Mof_Cd	Cd	0.55659	0.41825	0.31774	0.424
Mof_C 	C 	0.8466	0.3622	0.66764	0.182
Mof_C 	C 	0.7177	0.3277	0.65547	-0.216
Mof_H 	H 	0.7034	0.2637	0.6449	0.116
Mof_C 	C 	0.8602	0.457	0.68364	-0.224
Mof_H 	H 	0.9454	0.4833	0.6927	0.109
Mof_C 	C 	0.7493	0.5132	0.68636	0.127
Mof_H 	H 	0.7618	0.5775	0.6966	0.004
Mof_C 	C 	0.6097	0.3872	0.65876	0.126
Mof_H 	H 	0.5236	0.3626	0.6495	-0.009
Mof_C 	C 	0.14	0.67	0.66544	0.128
Mof_H 	H 	0.1195	0.6092	0.6516	-0.015
Mof_C 	C 	0.2926	0.779	0.70175	0.123
Mof_H 	H 	0.3813	0.7948	0.7136	0.014
Mof_C 	C 	0.0376	0.7354	0.66708	-0.226
Mof_H 	H 	0.9501	0.7184	0.6542	0.11
Mof_C 	C 	0.1962	0.8482	0.70482	-0.215
Mof_H 	H 	0.2196	0.909	0.7182	0.123
Mof_C 	C 	0.0635	0.8262	0.68768	0.18
Mof_C 	C 	0.9505	0.8939	0.69372	-0.202
Mof_H 	H 	0.9183	0.877	0.7226	0.096
Mof_H 	H 	0.8772	0.8838	0.6679	0.096
Mof_C 	C 	0.0172	0.034	0.65053	-0.009
Mof_H 	H 	0.0148	0.9956	0.6238	0.037
Mof_C 	C 	0.88	0.0558	0.70951	-0.018
Mof_H 	H 	0.7998	0.0308	0.7163	0.052
Mof_C 	C 	0.0512	0.1392	0.65269	-0.013
Mof_H 	H 	0.1317	0.1654	0.6468	0.042
Mof_C 	C 	0.9176	0.1628	0.71158	-0.007
Mof_H 	H 	0.9251	0.2017	0.7383	0.044
Mof_C 	C 	0.9676	0.3007	0.66441	-0.199
Mof_H 	H 	0.0379	0.3169	0.6904	0.092
Mof_H 	H 	0.0001	0.3164	0.6355	0.09
Mof_N 	N 	0.2671	0.6902	0.68283	-0.169
Mof_N 	N 	0.6244	0.4794	0.67485	-0.165
Mof_N 	N 	0.9878	0.997	0.69536	-0.077
Mof_N 	N 	0.9403	0.1962	0.66539	-0.078
Mof_Cd	Cd	0.44341	0.58175	0.68226	0.424
Mof_C 	C 	0.8466	0.1378	0.16764	0.18
Mof_C 	C 	0.7177	0.1723	0.15547	-0.214
Mof_H 	H 	0.7034	0.2363	0.1449	0.116
Mof_C 	C 	0.8602	0.043	0.18364	-0.22
Mof_H 	H 	0.9454	0.0167	0.1927	0.108
Mof_C 	C 	0.7493	0.9868	0.18636	0.124
Mof_H 	H 	0.7618	0.9225	0.1966	0.005
Mof_C 	C 	0.6097	0.1128	0.15876	0.125
Mof_H 	H 	0.5236	0.1374	0.1495	-0.009
Mof_C 	C 	0.14	0.83	0.16544	0.128
Mof_H 	H 	0.1195	0.8908	0.1516	-0.015
Mof_C 	C 	0.2926	0.721	0.20175	0.122
Mof_H 	H 	0.3813	0.7052	0.2136	0.014
Mof_C 	C 	0.0376	0.7646	0.16708	-0.225
Mof_H 	H 	0.9501	0.7816	0.1542	0.109
Mof_C 	C 	0.1962	0.6518	0.20482	-0.214
Mof_H 	H 	0.2196	0.591	0.2182	0.122
Mof_C 	C 	0.0635	0.6738	0.18768	0.179
Mof_C 	C 	0.9505	0.6061	0.19372	-0.201
Mof_H 	H 	0.9183	0.623	0.2226	0.096
Mof_H 	H 	0.8772	0.6162	0.1679	0.096
Mof_C 	C 	0.0172	0.466	0.15053	-0.006
Mof_H 	H 	0.0148	0.5044	0.1238	0.035
Mof_C 	C 	0.88	0.4442	0.20951	-0.019
Mof_H 	H 	0.7998	0.4692	0.2163	0.052
Mof_C 	C 	0.0512	0.3608	0.15269	-0.014
Mof_H 	H 	0.1317	0.3346	0.1468	0.042
Mof_C 	C 	0.9176	0.3372	0.21158	-0.006
Mof_H 	H 	0.9251	0.2983	0.2383	0.044
Mof_C 	C 	0.9676	0.1993	0.16441	-0.196
Mof_H 	H 	0.0379	0.1831	0.1904	0.09
Mof_H 	H 	0.0001	0.1836	0.1355	0.089
Mof_N 	N 	0.2671	0.8098	0.18283	-0.169
Mof_N 	N 	0.6244	0.0206	0.17485	-0.164
Mof_N 	N 	0.9878	0.503	0.19536	-0.077
Mof_N 	N 	0.9403	0.3038	0.16539	-0.078
Mof_Cd	Cd	0.44341	0.91825	0.18226	0.423
_end
