data_functionalizedCrystal
_audit_creation_method	'EQeq! by Chris Wilmer'
_symmetry_space_group_name_H-M	'P1'
_symmetry_Int_Tables_number	1
_symmetry_cell_setting	triclinic
loop_
_symmetry_equiv_pos_as_xyz
  x,y,z
_cell_length_a	25.2317
_cell_length_b	25.2317
_cell_length_c	25.2317
_cell_angle_alpha	109.471
_cell_angle_beta	109.471
_cell_angle_gamma	109.471
loop_
_atom_site_label
_atom_site_type_symbol
_atom_site_fract_x
_atom_site_fract_y
_atom_site_fract_z
_atom_site_charge
Mof_N 	N 	0.14402	0.53641	0.50333	-0.108
Mof_N 	N 	0.1869	0.53753	0.48403	-0.091
Mof_C 	C 	0.2859	0.4617	0.518	-0.043
Mof_H 	H 	0.2709	0.4466	0.5429	0.059
Mof_C 	C 	0.3313	0.4489	0.507	-0.035
Mof_H 	H 	0.3469	0.4256	0.5243	0.055
Mof_N 	N 	0.03308	0.64069	0.49667	-0.107
Mof_N 	N 	0.0535	0.70287	0.51597	-0.091
Mof_C 	C 	0.9437	0.7679	0.482	-0.045
Mof_H 	H 	0.9037	0.728	0.4571	0.06
Mof_C 	C 	0.9419	0.8243	0.493	-0.037
Mof_H 	H 	0.9013	0.8226	0.4757	0.056
Mof_N 	N 	0.96692	0.46359	0.60761	-0.108
Mof_N 	N 	0.9465	0.46247	0.64937	-0.091
Mof_C 	C 	0.0563	0.5383	0.8242	-0.042
Mof_H 	H 	0.0963	0.5534	0.8243	0.06
Mof_C 	C 	0.0581	0.5511	0.8824	-0.035
Mof_H 	H 	0.0987	0.5744	0.9213	0.055
Mof_N 	N 	0.85598	0.35931	0.39239	-0.107
Mof_N 	N 	0.8131	0.29713	0.35063	-0.09
Mof_C 	C 	0.7141	0.2321	0.1758	-0.042
Mof_H 	H 	0.7291	0.272	0.1757	0.06
Mof_C 	C 	0.6687	0.1757	0.1176	-0.034
Mof_H 	H 	0.6531	0.1774	0.0787	0.056
Mof_N 	N 	0.50333	0.14402	0.53641	-0.107
Mof_N 	N 	0.48403	0.1869	0.53753	-0.09
Mof_C 	C 	0.518	0.2859	0.4617	-0.042
Mof_H 	H 	0.5429	0.2709	0.4466	0.06
Mof_C 	C 	0.507	0.3313	0.4489	-0.034
Mof_H 	H 	0.5243	0.3469	0.4256	0.056
Mof_N 	N 	0.49667	0.03308	0.64069	-0.106
Mof_N 	N 	0.51597	0.0535	0.70287	-0.09
Mof_C 	C 	0.482	0.9437	0.7679	-0.044
Mof_H 	H 	0.4571	0.9037	0.728	0.06
Mof_C 	C 	0.493	0.9419	0.8243	-0.037
Mof_H 	H 	0.4757	0.9013	0.8226	0.056
Mof_N 	N 	0.60761	0.96692	0.46359	-0.108
Mof_N 	N 	0.64937	0.9465	0.46247	-0.091
Mof_C 	C 	0.8242	0.0563	0.5383	-0.042
Mof_H 	H 	0.8243	0.0963	0.5534	0.06
Mof_C 	C 	0.8824	0.0581	0.5511	-0.035
Mof_H 	H 	0.9213	0.0987	0.5744	0.055
Mof_N 	N 	0.39239	0.85598	0.35931	-0.107
Mof_N 	N 	0.35063	0.8131	0.29713	-0.09
Mof_C 	C 	0.1758	0.7141	0.2321	-0.042
Mof_H 	H 	0.1757	0.7291	0.272	0.06
Mof_C 	C 	0.1176	0.6687	0.1757	-0.034
Mof_H 	H 	0.0787	0.6531	0.1774	0.056
Mof_N 	N 	0.53641	0.50333	0.14402	-0.107
Mof_N 	N 	0.53753	0.48403	0.1869	-0.09
Mof_C 	C 	0.4617	0.518	0.2859	-0.042
Mof_H 	H 	0.4466	0.5429	0.2709	0.06
Mof_C 	C 	0.4489	0.507	0.3313	-0.034
Mof_H 	H 	0.4256	0.5243	0.3469	0.056
Mof_N 	N 	0.64069	0.49667	0.03308	-0.106
Mof_N 	N 	0.70287	0.51597	0.0535	-0.09
Mof_C 	C 	0.7679	0.482	0.9437	-0.044
Mof_H 	H 	0.728	0.4571	0.9037	0.06
Mof_C 	C 	0.8243	0.493	0.9419	-0.037
Mof_H 	H 	0.8226	0.4757	0.9013	0.056
Mof_N 	N 	0.46359	0.60761	0.96692	-0.108
Mof_N 	N 	0.46247	0.64937	0.9465	-0.091
Mof_C 	C 	0.5383	0.8242	0.0563	-0.042
Mof_H 	H 	0.5534	0.8243	0.0963	0.06
Mof_C 	C 	0.5511	0.8824	0.0581	-0.035
Mof_H 	H 	0.5744	0.9213	0.0987	0.055
Mof_N 	N 	0.35931	0.39239	0.85598	-0.107
Mof_N 	N 	0.29713	0.35063	0.8131	-0.09
Mof_C 	C 	0.2321	0.1758	0.7141	-0.042
Mof_H 	H 	0.272	0.1757	0.7291	0.06
Mof_C 	C 	0.1757	0.1176	0.6687	-0.034
Mof_H 	H 	0.1774	0.0787	0.6531	0.056
Mof_N 	N 	0.35931	0.96692	0.50333	-0.108
Mof_N 	N 	0.29713	0.9465	0.48403	-0.091
Mof_C 	C 	0.2321	0.0563	0.518	-0.042
Mof_H 	H 	0.272	0.0963	0.5429	0.06
Mof_C 	C 	0.1757	0.0581	0.507	-0.034
Mof_H 	H 	0.1774	0.0987	0.5243	0.056
Mof_N 	N 	0.46359	0.85598	0.49667	-0.107
Mof_N 	N 	0.46247	0.8131	0.51597	-0.09
Mof_C 	C 	0.5383	0.7141	0.482	-0.042
Mof_H 	H 	0.5534	0.7291	0.4571	0.06
Mof_C 	C 	0.5511	0.6687	0.493	-0.035
Mof_H 	H 	0.5744	0.6531	0.4757	0.055
Mof_N 	N 	0.64069	0.14402	0.60761	-0.107
Mof_N 	N 	0.70287	0.1869	0.64937	-0.09
Mof_C 	C 	0.7679	0.2859	0.8242	-0.041
Mof_H 	H 	0.728	0.2709	0.8243	0.06
Mof_C 	C 	0.8243	0.3313	0.8824	-0.035
Mof_H 	H 	0.8226	0.3469	0.9213	0.055
Mof_N 	N 	0.53641	0.03308	0.39239	-0.106
Mof_N 	N 	0.53753	0.0535	0.35063	-0.09
Mof_C 	C 	0.4617	0.9437	0.1758	-0.044
Mof_H 	H 	0.4466	0.9037	0.1757	0.061
Mof_C 	C 	0.4489	0.9419	0.1176	-0.036
Mof_H 	H 	0.4256	0.9013	0.0787	0.056
Mof_N 	N 	0.03308	0.39239	0.53641	-0.106
Mof_N 	N 	0.0535	0.35063	0.53753	-0.09
Mof_C 	C 	0.9437	0.1758	0.4617	-0.044
Mof_H 	H 	0.9037	0.1757	0.4466	0.061
Mof_C 	C 	0.9419	0.1176	0.4489	-0.036
Mof_H 	H 	0.9013	0.0787	0.4256	0.056
Mof_N 	N 	0.14402	0.60761	0.64069	-0.107
Mof_N 	N 	0.1869	0.64937	0.70287	-0.09
Mof_C 	C 	0.2859	0.8242	0.7679	-0.041
Mof_H 	H 	0.2709	0.8243	0.728	0.06
Mof_C 	C 	0.3313	0.8824	0.8243	-0.035
Mof_H 	H 	0.3469	0.9213	0.8226	0.055
Mof_N 	N 	0.85598	0.49667	0.46359	-0.107
Mof_N 	N 	0.8131	0.51597	0.46247	-0.09
Mof_C 	C 	0.7141	0.482	0.5383	-0.042
Mof_H 	H 	0.7291	0.4571	0.5534	0.06
Mof_C 	C 	0.6687	0.493	0.5511	-0.035
Mof_H 	H 	0.6531	0.4757	0.5744	0.055
Mof_N 	N 	0.96692	0.50333	0.35931	-0.108
Mof_N 	N 	0.9465	0.48403	0.29713	-0.091
Mof_C 	C 	0.0563	0.518	0.2321	-0.042
Mof_H 	H 	0.0963	0.5429	0.272	0.06
Mof_C 	C 	0.0581	0.507	0.1757	-0.034
Mof_H 	H 	0.0987	0.5243	0.1774	0.056
Mof_N 	N 	0.60761	0.64069	0.14402	-0.107
Mof_N 	N 	0.64937	0.70287	0.1869	-0.09
Mof_C 	C 	0.8242	0.7679	0.2859	-0.041
Mof_H 	H 	0.8243	0.728	0.2709	0.06
Mof_C 	C 	0.8824	0.8243	0.3313	-0.035
Mof_H 	H 	0.9213	0.8226	0.3469	0.055
Mof_N 	N 	0.39239	0.53641	0.03308	-0.106
Mof_N 	N 	0.35063	0.53753	0.0535	-0.09
Mof_C 	C 	0.1758	0.4617	0.9437	-0.044
Mof_H 	H 	0.1757	0.4466	0.9037	0.061
Mof_C 	C 	0.1176	0.4489	0.9419	-0.036
Mof_H 	H 	0.0787	0.4256	0.9013	0.056
Mof_N 	N 	0.50333	0.35931	0.96692	-0.108
Mof_N 	N 	0.48403	0.29713	0.9465	-0.091
Mof_C 	C 	0.518	0.2321	0.0563	-0.042
Mof_H 	H 	0.5429	0.272	0.0963	0.06
Mof_C 	C 	0.507	0.1757	0.0581	-0.034
Mof_H 	H 	0.5243	0.1774	0.0987	0.056
Mof_N 	N 	0.49667	0.46359	0.85598	-0.107
Mof_N 	N 	0.51597	0.46247	0.8131	-0.09
Mof_C 	C 	0.482	0.5383	0.7141	-0.042
Mof_H 	H 	0.4571	0.5534	0.7291	0.06
Mof_C 	C 	0.493	0.5511	0.6687	-0.035
Mof_H 	H 	0.4757	0.5744	0.6531	0.055
Mof_N 	N 	0.85598	0.46359	0.49667	-0.107
Mof_N 	N 	0.8131	0.46247	0.51597	-0.09
Mof_C 	C 	0.7141	0.5383	0.482	-0.042
Mof_H 	H 	0.7291	0.5534	0.4571	0.06
Mof_C 	C 	0.6687	0.5511	0.493	-0.035
Mof_H 	H 	0.6531	0.5744	0.4757	0.055
Mof_N 	N 	0.96692	0.35931	0.50333	-0.108
Mof_N 	N 	0.9465	0.29713	0.48403	-0.091
Mof_C 	C 	0.0563	0.2321	0.518	-0.042
Mof_H 	H 	0.0963	0.272	0.5429	0.06
Mof_C 	C 	0.0581	0.1757	0.507	-0.034
Mof_H 	H 	0.0987	0.1774	0.5243	0.056
Mof_N 	N 	0.03308	0.53641	0.39239	-0.106
Mof_N 	N 	0.0535	0.53753	0.35063	-0.09
Mof_C 	C 	0.9437	0.4617	0.1758	-0.044
Mof_H 	H 	0.9037	0.4466	0.1757	0.061
Mof_C 	C 	0.9419	0.4489	0.1176	-0.036
Mof_H 	H 	0.9013	0.4256	0.0787	0.056
Mof_N 	N 	0.14402	0.64069	0.60761	-0.107
Mof_N 	N 	0.1869	0.70287	0.64937	-0.09
Mof_C 	C 	0.2859	0.7679	0.8242	-0.041
Mof_H 	H 	0.2709	0.728	0.8243	0.06
Mof_C 	C 	0.3313	0.8243	0.8824	-0.035
Mof_H 	H 	0.3469	0.8226	0.9213	0.055
Mof_N 	N 	0.49667	0.85598	0.46359	-0.107
Mof_N 	N 	0.51597	0.8131	0.46247	-0.09
Mof_C 	C 	0.482	0.7141	0.5383	-0.042
Mof_H 	H 	0.4571	0.7291	0.5534	0.06
Mof_C 	C 	0.493	0.6687	0.5511	-0.035
Mof_H 	H 	0.4757	0.6531	0.5744	0.055
Mof_N 	N 	0.50333	0.96692	0.35931	-0.108
Mof_N 	N 	0.48403	0.9465	0.29713	-0.091
Mof_C 	C 	0.518	0.0563	0.2321	-0.042
Mof_H 	H 	0.5429	0.0963	0.272	0.06
Mof_C 	C 	0.507	0.0581	0.1757	-0.034
Mof_H 	H 	0.5243	0.0987	0.1774	0.056
Mof_N 	N 	0.39239	0.03308	0.53641	-0.106
Mof_N 	N 	0.35063	0.0535	0.53753	-0.09
Mof_C 	C 	0.1758	0.9437	0.4617	-0.044
Mof_H 	H 	0.1757	0.9037	0.4466	0.061
Mof_C 	C 	0.1176	0.9419	0.4489	-0.036
Mof_H 	H 	0.0787	0.9013	0.4256	0.056
Mof_N 	N 	0.60761	0.14402	0.64069	-0.107
Mof_N 	N 	0.64937	0.1869	0.70287	-0.09
Mof_C 	C 	0.8242	0.2859	0.7679	-0.041
Mof_H 	H 	0.8243	0.2709	0.728	0.06
Mof_C 	C 	0.8824	0.3313	0.8243	-0.035
Mof_H 	H 	0.9213	0.3469	0.8226	0.055
Mof_N 	N 	0.46359	0.49667	0.85598	-0.107
Mof_N 	N 	0.46247	0.51597	0.8131	-0.09
Mof_C 	C 	0.5383	0.482	0.7141	-0.042
Mof_H 	H 	0.5534	0.4571	0.7291	0.06
Mof_C 	C 	0.5511	0.493	0.6687	-0.035
Mof_H 	H 	0.5744	0.4757	0.6531	0.055
Mof_N 	N 	0.35931	0.50333	0.96692	-0.108
Mof_N 	N 	0.29713	0.48403	0.9465	-0.091
Mof_C 	C 	0.2321	0.518	0.0563	-0.042
Mof_H 	H 	0.272	0.5429	0.0963	0.06
Mof_C 	C 	0.1757	0.507	0.0581	-0.034
Mof_H 	H 	0.1774	0.5243	0.0987	0.056
Mof_N 	N 	0.53641	0.39239	0.03308	-0.106
Mof_N 	N 	0.53753	0.35063	0.0535	-0.09
Mof_C 	C 	0.4617	0.1758	0.9437	-0.044
Mof_H 	H 	0.4466	0.1757	0.9037	0.061
Mof_C 	C 	0.4489	0.1176	0.9419	-0.036
Mof_H 	H 	0.4256	0.0787	0.9013	0.056
Mof_N 	N 	0.64069	0.60761	0.14402	-0.107
Mof_N 	N 	0.70287	0.64937	0.1869	-0.09
Mof_C 	C 	0.7679	0.8242	0.2859	-0.041
Mof_H 	H 	0.728	0.8243	0.2709	0.06
Mof_C 	C 	0.8243	0.8824	0.3313	-0.035
Mof_H 	H 	0.8226	0.9213	0.3469	0.055
Mof_N 	N 	0.64069	0.03308	0.49667	-0.106
Mof_N 	N 	0.70287	0.0535	0.51597	-0.09
Mof_C 	C 	0.7679	0.9437	0.482	-0.044
Mof_H 	H 	0.728	0.9037	0.4571	0.06
Mof_C 	C 	0.8243	0.9419	0.493	-0.037
Mof_H 	H 	0.8226	0.9013	0.4757	0.056
Mof_N 	N 	0.53641	0.14402	0.50333	-0.107
Mof_N 	N 	0.53753	0.1869	0.48403	-0.09
Mof_C 	C 	0.4617	0.2859	0.518	-0.042
Mof_H 	H 	0.4466	0.2709	0.5429	0.06
Mof_C 	C 	0.4489	0.3313	0.507	-0.034
Mof_H 	H 	0.4256	0.3469	0.5243	0.056
Mof_N 	N 	0.35931	0.85598	0.39239	-0.107
Mof_N 	N 	0.29713	0.8131	0.35063	-0.09
Mof_C 	C 	0.2321	0.7141	0.1758	-0.042
Mof_H 	H 	0.272	0.7291	0.1757	0.06
Mof_C 	C 	0.1757	0.6687	0.1176	-0.034
Mof_H 	H 	0.1774	0.6531	0.0787	0.056
Mof_N 	N 	0.46359	0.96692	0.60761	-0.108
Mof_N 	N 	0.46247	0.9465	0.64937	-0.091
Mof_C 	C 	0.5383	0.0563	0.8242	-0.042
Mof_H 	H 	0.5534	0.0963	0.8243	0.06
Mof_C 	C 	0.5511	0.0581	0.8824	-0.035
Mof_H 	H 	0.5744	0.0987	0.9213	0.055
Mof_N 	N 	0.96692	0.60761	0.46359	-0.108
Mof_N 	N 	0.9465	0.64937	0.46247	-0.091
Mof_C 	C 	0.0563	0.8242	0.5383	-0.042
Mof_H 	H 	0.0963	0.8243	0.5534	0.06
Mof_C 	C 	0.0581	0.8824	0.5511	-0.035
Mof_H 	H 	0.0987	0.9213	0.5744	0.055
Mof_N 	N 	0.85598	0.39239	0.35931	-0.107
Mof_N 	N 	0.8131	0.35063	0.29713	-0.09
Mof_C 	C 	0.7141	0.1758	0.2321	-0.042
Mof_H 	H 	0.7291	0.1757	0.272	0.06
Mof_C 	C 	0.6687	0.1176	0.1757	-0.034
Mof_H 	H 	0.6531	0.0787	0.1774	0.056
Mof_N 	N 	0.14402	0.50333	0.53641	-0.107
Mof_N 	N 	0.1869	0.48403	0.53753	-0.09
Mof_C 	C 	0.2859	0.518	0.4617	-0.042
Mof_H 	H 	0.2709	0.5429	0.4466	0.06
Mof_C 	C 	0.3313	0.507	0.4489	-0.034
Mof_H 	H 	0.3469	0.5243	0.4256	0.056
Mof_N 	N 	0.03308	0.49667	0.64069	-0.106
Mof_N 	N 	0.0535	0.51597	0.70287	-0.09
Mof_C 	C 	0.9437	0.482	0.7679	-0.044
Mof_H 	H 	0.9037	0.4571	0.728	0.06
Mof_C 	C 	0.9419	0.493	0.8243	-0.037
Mof_H 	H 	0.9013	0.4757	0.8226	0.056
Mof_N 	N 	0.39239	0.35931	0.85598	-0.107
Mof_N 	N 	0.35063	0.29713	0.8131	-0.09
Mof_C 	C 	0.1758	0.2321	0.7141	-0.042
Mof_H 	H 	0.1757	0.272	0.7291	0.06
Mof_C 	C 	0.1176	0.1757	0.6687	-0.034
Mof_H 	H 	0.0787	0.1774	0.6531	0.056
Mof_N 	N 	0.60761	0.46359	0.96692	-0.108
Mof_N 	N 	0.64937	0.46247	0.9465	-0.091
Mof_C 	C 	0.8242	0.5383	0.0563	-0.042
Mof_H 	H 	0.8243	0.5534	0.0963	0.06
Mof_C 	C 	0.8824	0.5511	0.0581	-0.035
Mof_H 	H 	0.9213	0.5744	0.0987	0.055
Mof_N 	N 	0.49667	0.64069	0.03308	-0.106
Mof_N 	N 	0.51597	0.70287	0.0535	-0.09
Mof_C 	C 	0.482	0.7679	0.9437	-0.044
Mof_H 	H 	0.4571	0.728	0.9037	0.06
Mof_C 	C 	0.493	0.8243	0.9419	-0.037
Mof_H 	H 	0.4757	0.8226	0.9013	0.056
Mof_N 	N 	0.50333	0.53641	0.14402	-0.107
Mof_N 	N 	0.48403	0.53753	0.1869	-0.09
Mof_C 	C 	0.518	0.4617	0.2859	-0.042
Mof_H 	H 	0.5429	0.4466	0.2709	0.06
Mof_C 	C 	0.507	0.4489	0.3313	-0.034
Mof_H 	H 	0.5243	0.4256	0.3469	0.056
Mof_Mn	Mn	0.0942	0.5942	0.5	0.808
Mof_O 	O 	0.1681	0.6681	0.5	-0.218
Mof_Mn	Mn	0.9058	0.4058	0.5	0.806
Mof_O 	O 	0.8319	0.3319	0.5	-0.218
Mof_Mn	Mn	0.5	0.0942	0.5942	0.808
Mof_O 	O 	0.5	0.1681	0.6681	-0.218
Mof_Mn	Mn	0.5	0.9058	0.4058	0.806
Mof_O 	O 	0.5	0.8319	0.3319	-0.218
Mof_Mn	Mn	0.5942	0.5	0.0942	0.808
Mof_O 	O 	0.6681	0.5	0.1681	-0.218
Mof_Mn	Mn	0.4058	0.5	0.9058	0.806
Mof_O 	O 	0.3319	0.5	0.8319	-0.218
Mof_Mn	Mn	0.4058	0.9058	0.5	0.806
Mof_O 	O 	0.3319	0.8319	0.5	-0.218
Mof_Mn	Mn	0.5942	0.0942	0.5	0.808
Mof_O 	O 	0.6681	0.1681	0.5	-0.218
Mof_Mn	Mn	0.0942	0.5	0.5942	0.808
Mof_O 	O 	0.1681	0.5	0.6681	-0.218
Mof_Mn	Mn	0.9058	0.5	0.4058	0.806
Mof_O 	O 	0.8319	0.5	0.3319	-0.218
Mof_Mn	Mn	0.5	0.5942	0.0942	0.808
Mof_O 	O 	0.5	0.6681	0.1681	-0.218
Mof_Mn	Mn	0.5	0.4058	0.9058	0.806
Mof_O 	O 	0.5	0.3319	0.8319	-0.218
Mof_Cl	Cl	-0	0.5	0.5	-0.578
Mof_Cl	Cl	0.5	-3.67747e-17	0.5	-0.578
Mof_Cl	Cl	0.5	0.5	-0	-0.578
Mof_N 	N 	0.4161	0.4161	0.4738	-0.144
Mof_N 	N 	0.9423	0.9423	0.5262	-0.145
Mof_N 	N 	0.0577	0.5839	-0	-0.142
Mof_N 	N 	0.5839	0.0577	-0	-0.142
Mof_N 	N 	0.4738	0.4161	0.4161	-0.144
Mof_N 	N 	0.5262	0.9423	0.9423	-0.145
Mof_N 	N 	1.83873e-17	0.0577	0.5839	-0.142
Mof_N 	N 	2.41334e-17	0.5839	0.0577	-0.142
Mof_N 	N 	0.4161	0.4738	0.4161	-0.144
Mof_N 	N 	0.9423	0.5262	0.9423	-0.145
Mof_N 	N 	0.5839	-4.59684e-18	0.0577	-0.142
Mof_N 	N 	0.0577	-3.67747e-17	0.5839	-0.142
Mof_N 	N 	0.0577	0.0577	0.4738	-0.144
Mof_N 	N 	0.5839	0.5839	0.5262	-0.144
Mof_N 	N 	0.9423	0.4161	-0	-0.143
Mof_N 	N 	0.4161	0.9423	-0	-0.143
Mof_N 	N 	0.9423	-3.67747e-17	0.4161	-0.143
Mof_N 	N 	0.4161	-7.35494e-17	0.9423	-0.143
Mof_N 	N 	0.5839	0.5262	0.5839	-0.144
Mof_N 	N 	0.0577	0.4738	0.0577	-0.144
Mof_N 	N 	-5.5162e-17	0.9423	0.4161	-0.143
Mof_N 	N 	-0	0.4161	0.9423	-0.143
Mof_N 	N 	0.4738	0.0577	0.0577	-0.144
Mof_N 	N 	0.5262	0.5839	0.5839	-0.144
Mof_C 	C 	0.2118	0.5052	0.5052	0.122
Mof_C 	C 	0.2614	0.495	0.495	-0.002
Mof_C 	C 	0.355	0.4701	0.4701	-0.009
Mof_C 	C 	0.3972	0.4524	0.4524	0.126
Mof_C 	C 	-7.35494e-17	0.7066	0.4948	0.123
Mof_C 	C 	-7.35494e-17	0.7664	0.505	-0
Mof_C 	C 	-3.67747e-17	0.8849	0.5299	-0.007
Mof_C 	C 	-0	0.9448	0.5476	0.126
Mof_C 	C 	-0	0.4948	0.7066	0.123
Mof_C 	C 	-1.83873e-17	0.505	0.7664	-0
Mof_C 	C 	1.83873e-17	0.5299	0.8849	-0.007
Mof_C 	C 	-1.83873e-17	0.5476	0.9448	0.126
Mof_C 	C 	0.7882	0.2934	0.2934	0.122
Mof_C 	C 	0.7386	0.2336	0.2336	-0.002
Mof_C 	C 	0.645	0.1151	0.1151	-0.009
Mof_C 	C 	0.6028	0.0552	0.0552	0.127
Mof_C 	C 	0.5052	0.2118	0.5052	0.122
Mof_C 	C 	0.495	0.2614	0.495	-0.002
Mof_C 	C 	0.4701	0.355	0.4701	-0.009
Mof_C 	C 	0.4524	0.3972	0.4524	0.126
Mof_C 	C 	0.4948	0	0.7066	0.123
Mof_C 	C 	0.505	0	0.7664	-0
Mof_C 	C 	0.5299	-7.35494e-17	0.8849	-0.007
Mof_C 	C 	0.5476	-7.35494e-17	0.9448	0.126
Mof_C 	C 	0.7066	-3.67747e-17	0.4948	0.123
Mof_C 	C 	0.7664	-7.35494e-17	0.505	-0
Mof_C 	C 	0.8849	-3.67747e-17	0.5299	-0.007
Mof_C 	C 	0.9448	-3.67747e-17	0.5476	0.126
Mof_C 	C 	0.2934	0.7882	0.2934	0.122
Mof_C 	C 	0.2336	0.7386	0.2336	-0.002
Mof_C 	C 	0.1151	0.645	0.1151	-0.009
Mof_C 	C 	0.0552	0.6028	0.0552	0.127
Mof_C 	C 	0.5052	0.5052	0.2118	0.122
Mof_C 	C 	0.495	0.495	0.2614	-0.002
Mof_C 	C 	0.4701	0.4701	0.355	-0.009
Mof_C 	C 	0.4524	0.4524	0.3972	0.126
Mof_C 	C 	0.7066	0.4948	-0	0.123
Mof_C 	C 	0.7664	0.505	-0	-0
Mof_C 	C 	0.8849	0.5299	-0	-0.007
Mof_C 	C 	0.9448	0.5476	-0	0.126
Mof_C 	C 	0.4948	0.7066	-0	0.123
Mof_C 	C 	0.505	0.7664	-0	-0
Mof_C 	C 	0.5299	0.8849	-0	-0.007
Mof_C 	C 	0.5476	0.9448	-0	0.126
Mof_C 	C 	0.2934	0.2934	0.7882	0.122
Mof_C 	C 	0.2336	0.2336	0.7386	-0.002
Mof_C 	C 	0.1151	0.1151	0.645	-0.009
Mof_C 	C 	0.0552	0.0552	0.6028	0.127
Mof_C 	C 	0.2934	0	0.5052	0.123
Mof_C 	C 	0.2336	0	0.495	0
Mof_C 	C 	0.1151	-3.67747e-17	0.4701	-0.008
Mof_C 	C 	0.0552	-3.67747e-17	0.4524	0.128
Mof_C 	C 	0.4948	0.7882	0.4948	0.122
Mof_C 	C 	0.505	0.7386	0.505	-0.002
Mof_C 	C 	0.5299	0.645	0.5299	-0.01
Mof_C 	C 	0.5476	0.6028	0.5476	0.126
Mof_C 	C 	0.7066	0.2118	0.7066	0.122
Mof_C 	C 	0.7664	0.2614	0.7664	-0.003
Mof_C 	C 	0.8849	0.355	0.8849	-0.008
Mof_C 	C 	0.9448	0.3972	0.9448	0.122
Mof_C 	C 	0.5052	0	0.2934	0.123
Mof_C 	C 	0.495	0	0.2336	0
Mof_C 	C 	0.4701	-9.19367e-18	0.1151	-0.008
Mof_C 	C 	0.4524	-4.59684e-18	0.0552	0.128
Mof_C 	C 	-0	0.2934	0.5052	0.123
Mof_C 	C 	2.7581e-17	0.2336	0.495	0
Mof_C 	C 	2.7581e-17	0.1151	0.4701	-0.008
Mof_C 	C 	-2.7581e-17	0.0552	0.4524	0.128
Mof_C 	C 	0.2118	0.7066	0.7066	0.122
Mof_C 	C 	0.2614	0.7664	0.7664	-0.003
Mof_C 	C 	0.355	0.8849	0.8849	-0.008
Mof_C 	C 	0.3972	0.9448	0.9448	0.122
Mof_C 	C 	0.7882	0.4948	0.4948	0.122
Mof_C 	C 	0.7386	0.505	0.505	-0.002
Mof_C 	C 	0.645	0.5299	0.5299	-0.01
Mof_C 	C 	0.6028	0.5476	0.5476	0.126
Mof_C 	C 	9.19367e-18	0.5052	0.2934	0.123
Mof_C 	C 	-9.19367e-18	0.495	0.2336	0
Mof_C 	C 	4.36699e-17	0.4701	0.1151	-0.008
Mof_C 	C 	-2.29842e-17	0.4524	0.0552	0.128
Mof_C 	C 	0.7066	0.7066	0.2118	0.122
Mof_C 	C 	0.7664	0.7664	0.2614	-0.003
Mof_C 	C 	0.8849	0.8849	0.355	-0.008
Mof_C 	C 	0.9448	0.9448	0.3972	0.122
Mof_C 	C 	0.2934	0.5052	-0	0.123
Mof_C 	C 	0.2336	0.495	-0	0
Mof_C 	C 	0.1151	0.4701	-0	-0.008
Mof_C 	C 	0.0552	0.4524	-0	0.128
Mof_C 	C 	0.5052	0.2934	-0	0.123
Mof_C 	C 	0.495	0.2336	-0	0
Mof_C 	C 	0.4701	0.1151	-0	-0.008
Mof_C 	C 	0.4524	0.0552	-0	0.128
Mof_C 	C 	0.4948	0.4948	0.7882	0.122
Mof_C 	C 	0.505	0.505	0.7386	-0.002
Mof_C 	C 	0.5299	0.5299	0.645	-0.01
Mof_C 	C 	0.5476	0.5476	0.6028	0.126
_end
