# CIF file generated by openbabel 3.1.0, see https://openbabel.org
data_I
_chemical_name_common 'KINFAQ_clean'
_cell_length_a 10.9709
_cell_length_b 10.9709
_cell_length_c 18.842
_cell_angle_alpha 73.3696
_cell_angle_beta 73.3696
_cell_angle_gamma 74.308
_space_group_name_H-M_alt 'P 1'
_space_group_name_Hall 'P 1'
loop_
    _symmetry_equiv_pos_as_xyz
    x,y,z
loop_
    _atom_site_label
    _atom_site_type_symbol
    _atom_site_fract_x
    _atom_site_fract_y
    _atom_site_fract_z
    _atom_site_occupancy
    Tm1      Tm       0.43845    0.55497    0.60537    1.000
    Tm2      Tm       0.44503    0.56155    0.89463    1.000
    Tm3      Tm       0.56155    0.44503    0.39463    1.000
    Tm4      Tm       0.55497    0.43845    0.10537    1.000
    H1       H        0.58480    0.84140    0.56450    1.000
    H2       H        0.58770    0.04830    0.51230    1.000
    H3       H        0.48930    0.12630    0.72200    1.000
    H4       H        0.49000    0.89980    0.77160    1.000
    H5       H        0.97200    0.42200    0.40510    1.000
    H6       H        0.82160    0.54980    0.59500    1.000
    H7       H        0.15860    0.41520    0.93550    1.000
    H8       H        0.95170    0.41230    0.98770    1.000
    H9       H        0.87370    0.51070    0.77800    1.000
    H10      H        0.10020    0.51000    0.72840    1.000
    H11      H        0.57800    0.02800    0.09490    1.000
    H12      H        0.45020    0.17840    0.90500    1.000
    H13      H        0.41520    0.15860    0.43550    1.000
    H14      H        0.41230    0.95170    0.48770    1.000
    H15      H        0.51070    0.87370    0.27800    1.000
    H16      H        0.51000    0.10020    0.22840    1.000
    H17      H        0.02800    0.57800    0.59490    1.000
    H18      H        0.17840    0.45020    0.40500    1.000
    H19      H        0.84140    0.58480    0.06450    1.000
    H20      H        0.04830    0.58770    0.01230    1.000
    H21      H        0.12630    0.48930    0.22200    1.000
    H22      H        0.89980    0.49000    0.27160    1.000
    H23      H        0.42200    0.97200    0.90510    1.000
    H24      H        0.54980    0.82160    0.09500    1.000
    C1       C        0.53540    0.70600    0.70970    1.000
    C2       C        0.54720    0.85160    0.67110    1.000
    C3       C        0.56970    0.89770    0.59590    1.000
    C4       C        0.56940    0.02200    0.56500    1.000
    C5       C        0.54360    0.11740    0.60750    1.000
    C6       C        0.52730    0.25750    0.57200    1.000
    C7       C        0.51080    0.07000    0.68960    1.000
    C8       C        0.51260    0.93260    0.71940    1.000
    C9       C        0.74090    0.49190    0.49450    1.000
    C10      C        0.87630    0.49330    0.49760    1.000
    C11      C        0.98170    0.45570    0.44270    1.000
    C12      C        0.89210    0.53210    0.55570    1.000
    C13      C        0.29400    0.46460    0.79030    1.000
    C14      C        0.14840    0.45280    0.82890    1.000
    C15      C        0.10230    0.43030    0.90410    1.000
    C16      C        0.97800    0.43060    0.93500    1.000
    C17      C        0.88260    0.45640    0.89250    1.000
    C18      C        0.74250    0.47270    0.92800    1.000
    C19      C        0.93000    0.48920    0.81040    1.000
    C20      C        0.06740    0.48740    0.78060    1.000
    C21      C        0.50810    0.25910    0.00550    1.000
    C22      C        0.50670    0.12370    0.00240    1.000
    C23      C        0.54430    0.01830    0.05730    1.000
    C24      C        0.46790    0.10790    0.94430    1.000
    C25      C        0.46460    0.29400    0.29030    1.000
    C26      C        0.45280    0.14840    0.32890    1.000
    C27      C        0.43030    0.10230    0.40410    1.000
    C28      C        0.43060    0.97800    0.43500    1.000
    C29      C        0.45640    0.88260    0.39250    1.000
    C30      C        0.47270    0.74250    0.42800    1.000
    C31      C        0.48920    0.93000    0.31040    1.000
    C32      C        0.48740    0.06740    0.28060    1.000
    C33      C        0.25910    0.50810    0.50550    1.000
    C34      C        0.12370    0.50670    0.50240    1.000
    C35      C        0.01830    0.54430    0.55730    1.000
    C36      C        0.10790    0.46790    0.44430    1.000
    C37      C        0.70600    0.53540    0.20970    1.000
    C38      C        0.85160    0.54720    0.17110    1.000
    C39      C        0.89770    0.56970    0.09590    1.000
    C40      C        0.02200    0.56940    0.06500    1.000
    C41      C        0.11740    0.54360    0.10750    1.000
    C42      C        0.25750    0.52730    0.07200    1.000
    C43      C        0.07000    0.51080    0.18960    1.000
    C44      C        0.93260    0.51260    0.21940    1.000
    C45      C        0.49190    0.74090    0.99450    1.000
    C46      C        0.49330    0.87630    0.99760    1.000
    C47      C        0.45570    0.98170    0.94270    1.000
    C48      C        0.53210    0.89210    0.05570    1.000
    O1       O        0.53050    0.64890    0.66310    1.000
    O2       O        0.53190    0.66910    0.77570    1.000
    O3       O        0.54820    0.29520    0.50320    1.000
    O4       O        0.49230    0.33270    0.61720    1.000
    O5       O        0.65940    0.50820    0.55350    1.000
    O6       O        0.72300    0.47440    0.43880    1.000
    O7       O        0.35110    0.46950    0.83690    1.000
    O8       O        0.33090    0.46810    0.72430    1.000
    O9       O        0.70480    0.45180    0.99680    1.000
    O10      O        0.66730    0.50770    0.88280    1.000
    O11      O        0.49180    0.34060    0.94650    1.000
    O12      O        0.52560    0.27700    0.06120    1.000
    O13      O        0.46950    0.35110    0.33690    1.000
    O14      O        0.46810    0.33090    0.22430    1.000
    O15      O        0.45180    0.70480    0.49680    1.000
    O16      O        0.50770    0.66730    0.38280    1.000
    O17      O        0.34060    0.49180    0.44650    1.000
    O18      O        0.27700    0.52560    0.56120    1.000
    O19      O        0.64890    0.53050    0.16310    1.000
    O20      O        0.66910    0.53190    0.27570    1.000
    O21      O        0.29520    0.54820    0.00320    1.000
    O22      O        0.33270    0.49230    0.11720    1.000
    O23      O        0.50820    0.65940    0.05350    1.000
    O24      O        0.47440    0.72300    0.93880    1.000
