data_functionalizedCrystal
_audit_creation_method	'EQeq! by Chris Wilmer'
_symmetry_space_group_name_H-M	'P1'
_symmetry_Int_Tables_number	1
_symmetry_cell_setting	triclinic
loop_
_symmetry_equiv_pos_as_xyz
  x,y,z
_cell_length_a	8.7238
_cell_length_b	11.6272
_cell_length_c	8.2747
_cell_angle_alpha	90
_cell_angle_beta	90
_cell_angle_gamma	90
loop_
_atom_site_label
_atom_site_type_symbol
_atom_site_fract_x
_atom_site_fract_y
_atom_site_fract_z
_atom_site_charge
Mof_O 	O 	0.58387	0.32227	0.589	-0.398
Mof_O 	O 	0.23808	0.09475	0.38367	-0.368
Mof_O 	O 	0.41236	0.31689	0.395	-0.381
Mof_C 	C 	0.47015	0.28001	0.52253	0.454
Mof_H 	H 	0.422	0.2123	0.5711	-0.092
Mof_O 	O 	0.91613	0.67773	0.589	-0.393
Mof_O 	O 	0.26192	0.90525	0.38367	-0.319
Mof_O 	O 	0.08764	0.68311	0.395	-0.377
Mof_C 	C 	0.02985	0.71999	0.52253	0.449
Mof_H 	H 	0.078	0.7877	0.5711	-0.081
Mof_O 	O 	0.91613	0.82227	0.911	-0.37
Mof_O 	O 	0.26192	0.59475	0.11633	-0.381
Mof_O 	O 	0.08764	0.81689	0.105	-0.357
Mof_C 	C 	0.02985	0.78001	0.97747	0.429
Mof_H 	H 	0.078	0.7123	0.9289	-0.08
Mof_O 	O 	0.58387	0.17773	0.911	-0.404
Mof_O 	O 	0.23808	0.40525	0.11633	-0.381
Mof_O 	O 	0.41236	0.18311	0.105	-0.387
Mof_C 	C 	0.47015	0.21999	0.97747	0.452
Mof_H 	H 	0.422	0.2877	0.9289	-0.088
Mof_O 	O 	0.41613	0.67773	0.411	-0.395
Mof_O 	O 	0.76192	0.90525	0.61633	-0.315
Mof_O 	O 	0.58764	0.68311	0.605	-0.378
Mof_C 	C 	0.52985	0.71999	0.47747	0.453
Mof_H 	H 	0.578	0.7877	0.4289	-0.081
Mof_O 	O 	0.08387	0.32227	0.411	-0.396
Mof_O 	O 	0.73808	0.09475	0.61633	-0.367
Mof_O 	O 	0.91236	0.31689	0.605	-0.38
Mof_C 	C 	0.97015	0.28001	0.47747	0.451
Mof_H 	H 	0.922	0.2123	0.4289	-0.092
Mof_O 	O 	0.08387	0.17773	0.089	-0.394
Mof_O 	O 	0.73808	0.40525	0.88367	-0.381
Mof_O 	O 	0.91236	0.18311	0.895	-0.379
Mof_C 	C 	0.97015	0.21999	0.02253	0.433
Mof_H 	H 	0.922	0.2877	0.0711	-0.083
Mof_O 	O 	0.41613	0.82227	0.089	-0.38
Mof_O 	O 	0.76192	0.59475	0.88367	-0.381
Mof_O 	O 	0.58764	0.81689	0.895	-0.364
Mof_C 	C 	0.52985	0.78001	0.02253	0.449
Mof_H 	H 	0.578	0.7123	0.0711	-0.084
Mof_Co	Co	0.2372	0.25	0.25	1.214
Mof_Co	Co	0.2628	0.75	0.25	1.215
Mof_Co	Co	0.7628	0.75	0.75	1.215
Mof_Co	Co	0.7372	0.25	0.75	1.213
Mof_C 	C 	0.25	-1.87974e-33	0.3143	0.356
Mof_H 	H 	0.25	-1.87974e-33	0.2019	-0.078
Mof_C 	C 	0.25	0.5	0.1857	0.456
Mof_H 	H 	0.25	0.5	0.2981	-0.092
Mof_C 	C 	0.75	0	0.6857	0.351
Mof_H 	H 	0.75	-7.51895e-33	0.7981	-0.077
Mof_C 	C 	0.75	0.5	0.8143	0.456
Mof_H 	H 	0.75	0.5	0.7019	-0.092
_end
