data_functionalizedCrystal
_audit_creation_method	'EQeq! by Chris Wilmer'
_symmetry_space_group_name_H-M	'P1'
_symmetry_Int_Tables_number	1
_symmetry_cell_setting	triclinic
loop_
_symmetry_equiv_pos_as_xyz
  x,y,z
_cell_length_a	7.336
_cell_length_b	11.316
_cell_length_c	17.653
_cell_angle_alpha	90
_cell_angle_beta	90.594
_cell_angle_gamma	90
loop_
_atom_site_label
_atom_site_type_symbol
_atom_site_fract_x
_atom_site_fract_y
_atom_site_fract_z
_atom_site_charge
Mof_Zn	Zn	0.5	0.5	-0	1.145
Mof_Zn	Zn	0.5	0	0.5	1.162
Mof_Zn	Zn	-0	0.5	-0	1.125
Mof_Zn	Zn	2.42445e-18	0	0.5	1.141
Mof_H 	H 	0.518	0.312	0.7938	0.054
Mof_H 	H 	0.503	0.203	0.6777	0.029
Mof_H 	H 	0.962	0.5103	0.8089	0.055
Mof_H 	H 	0.712	0.525	0.7318	0.059
Mof_H 	H 	0.684	0.4108	0.6195	0.042
Mof_H 	H 	0.928	0.298	0.582	0.056
Mof_H 	H 	0.482	0.812	0.7062	0.04
Mof_H 	H 	0.497	0.703	0.8223	0.038
Mof_H 	H 	0.038	0.0103	0.6911	-0.018
Mof_H 	H 	0.288	0.025	0.7682	-0.085
Mof_H 	H 	0.316	0.9108	0.8805	0.096
Mof_H 	H 	0.072	0.798	0.918	0.088
Mof_H 	H 	0.482	0.688	0.2062	0.027
Mof_H 	H 	0.497	0.797	0.3223	0.05
Mof_H 	H 	0.038	0.4897	0.1911	0.078
Mof_H 	H 	0.288	0.475	0.2682	0.039
Mof_H 	H 	0.316	0.5892	0.3805	0.029
Mof_H 	H 	0.072	0.702	0.418	0.075
Mof_H 	H 	0.518	0.188	0.2938	0.04
Mof_H 	H 	0.503	0.297	0.1777	0.042
Mof_H 	H 	0.962	0.9897	0.3089	0.147
Mof_H 	H 	0.712	0.975	0.2318	0.181
Mof_H 	H 	0.684	0.0892	0.1195	-0.022
Mof_H 	H 	0.928	0.202	0.082	0.044
Mof_C 	C 	0.2635	0.37749	0.78946	-0.08
Mof_C 	C 	0.0922	0.32561	0.67341	-0.016
Mof_C 	C 	0.1018	0.38851	0.74324	-0.045
Mof_C 	C 	0.4005	0.25359	0.69394	0.003
Mof_C 	C 	0.2336	0.17064	0.58448	0.4
Mof_C 	C 	0.2737	0.42525	0.86928	0.372
Mof_C 	C 	0.2439	0.25433	0.65113	-0.115
Mof_C 	C 	0.9328	0.3395	0.62739	0.014
Mof_C 	C 	0.4097	0.31554	0.76297	-0.029
Mof_C 	C 	0.9547	0.4638	0.76326	0.046
Mof_C 	C 	0.7943	0.4109	0.64931	-0.027
Mof_C 	C 	0.805	0.4743	0.71739	-0.062
Mof_C 	C 	0.7365	0.87749	0.71054	-0.088
Mof_C 	C 	0.9078	0.82561	0.82659	0.123
Mof_C 	C 	0.8982	0.88851	0.75676	0.103
Mof_C 	C 	0.5995	0.75359	0.80606	0.003
Mof_C 	C 	0.7664	0.67064	0.91552	0.402
Mof_C 	C 	0.7263	0.92525	0.63072	0.4
Mof_C 	C 	0.7561	0.75433	0.84887	-0.105
Mof_C 	C 	0.0672	0.8395	0.87261	-0.138
Mof_C 	C 	0.5903	0.81554	0.73703	-0.006
Mof_C 	C 	0.0453	0.9638	0.73674	-0.089
Mof_C 	C 	0.2057	0.9109	0.85069	-0.071
Mof_C 	C 	0.195	0.9743	0.78261	0.161
Mof_C 	C 	0.7365	0.62251	0.21054	-0.128
Mof_C 	C 	0.9078	0.67439	0.32659	0.123
Mof_C 	C 	0.8982	0.61149	0.25676	0.124
Mof_C 	C 	0.5995	0.74641	0.30606	-0.011
Mof_C 	C 	0.7664	0.82936	0.41552	0.402
Mof_C 	C 	0.7263	0.57475	0.13072	0.41
Mof_C 	C 	0.7561	0.74567	0.34887	-0.115
Mof_C 	C 	0.0672	0.6605	0.37261	-0.191
Mof_C 	C 	0.5903	0.68446	0.23703	0.006
Mof_C 	C 	0.0453	0.5362	0.23674	-0.184
Mof_C 	C 	0.2057	0.5891	0.35069	-0
Mof_C 	C 	0.195	0.5257	0.28261	-0.014
Mof_C 	C 	0.2635	0.12251	0.28946	-0.121
Mof_C 	C 	0.0922	0.17439	0.17341	-0.02
Mof_C 	C 	0.1018	0.11149	0.24324	-0.028
Mof_C 	C 	0.4005	0.24641	0.19394	-0.012
Mof_C 	C 	0.2336	0.32936	0.08448	0.396
Mof_C 	C 	0.2737	0.07475	0.36928	0.386
Mof_C 	C 	0.2439	0.24567	0.15113	-0.122
Mof_C 	C 	0.9328	0.1605	0.12739	-0.034
Mof_C 	C 	0.4097	0.18446	0.26297	-0.016
Mof_C 	C 	0.9547	0.0362	0.26326	-0.039
Mof_C 	C 	0.7943	0.0891	0.14931	0.043
Mof_C 	C 	0.805	0.0257	0.21739	-0.235
Mof_O 	O 	0.13195	0.41778	0.90846	-0.441
Mof_O 	O 	0.42596	0.46343	0.89198	-0.438
Mof_O 	O 	0.37568	0.15389	0.54703	-0.485
Mof_O 	O 	0.08289	0.12068	0.57435	-0.556
Mof_O 	O 	0.86805	0.91778	0.59154	-0.396
Mof_O 	O 	0.57404	0.96343	0.60802	-0.433
Mof_O 	O 	0.62432	0.65389	0.95297	-0.389
Mof_O 	O 	0.91711	0.62068	0.92565	-0.409
Mof_O 	O 	0.86805	0.58222	0.09154	-0.473
Mof_O 	O 	0.57404	0.53657	0.10802	-0.512
Mof_O 	O 	0.62432	0.84611	0.45297	-0.435
Mof_O 	O 	0.91711	0.87932	0.42565	-0.426
Mof_O 	O 	0.13195	0.08222	0.40846	-0.529
Mof_O 	O 	0.42596	0.03657	0.39198	-0.525
Mof_O 	O 	0.37568	0.34611	0.04703	-0.521
Mof_O 	O 	0.08289	0.37932	0.07435	-0.565
_end
