data_functionalizedCrystal
_audit_creation_method	'EQeq! by Chris Wilmer'
_symmetry_space_group_name_H-M	'P1'
_symmetry_Int_Tables_number	1
_symmetry_cell_setting	triclinic
loop_
_symmetry_equiv_pos_as_xyz
  x,y,z
_cell_length_a	17.0797
_cell_length_b	17.0797
_cell_length_c	17.0797
_cell_angle_alpha	90
_cell_angle_beta	90
_cell_angle_gamma	90
loop_
_atom_site_label
_atom_site_type_symbol
_atom_site_fract_x
_atom_site_fract_y
_atom_site_fract_z
_atom_site_charge
Mof_N 	N 	0.03059	0.68037	0.4112	-0.412
Mof_C 	C 	0.10658	0.66326	0.39184	0.053
Mof_H 	H 	0.1518	0.6868	0.4141	-0.033
Mof_H 	H 	0.8806	0.6447	0.4216	0.209
Mof_N 	N 	0.10658	0.60816	0.33674	-0.157
Mof_N 	N 	0.53059	0.18037	0.9112	-0.299
Mof_C 	C 	0.60658	0.16326	0.89184	0.069
Mof_H 	H 	0.6518	0.1868	0.9141	-0.018
Mof_H 	H 	0.3806	0.1447	0.9216	0.164
Mof_N 	N 	0.60658	0.10816	0.83674	-0.155
Mof_N 	N 	0.96941	0.31963	0.4112	-0.221
Mof_C 	C 	0.89342	0.33674	0.39184	0.075
Mof_H 	H 	0.8482	0.3132	0.4141	-0.036
Mof_H 	H 	0.1194	0.3553	0.4216	0.095
Mof_N 	N 	0.89342	0.39184	0.33674	-0.15
Mof_N 	N 	0.46941	0.81963	0.9112	-0.304
Mof_C 	C 	0.39342	0.83674	0.89184	0.086
Mof_H 	H 	0.3482	0.8132	0.9141	-0.016
Mof_H 	H 	0.6194	0.8553	0.9216	0.222
Mof_N 	N 	0.39342	0.89184	0.83674	-0.149
Mof_N 	N 	0.96941	0.68037	0.5888	-0.22
Mof_C 	C 	0.89342	0.66326	0.60816	0.079
Mof_H 	H 	0.8482	0.6868	0.5859	-0.036
Mof_H 	H 	0.1194	0.6447	0.5784	0.096
Mof_N 	N 	0.89342	0.60816	0.66326	-0.149
Mof_N 	N 	0.46941	0.18037	0.0888	-0.331
Mof_C 	C 	0.39342	0.16326	0.10816	0.04
Mof_H 	H 	0.3482	0.1868	0.0859	-0.06
Mof_H 	H 	0.6194	0.1447	0.0784	0.093
Mof_N 	N 	0.39342	0.10816	0.16326	-0.158
Mof_N 	N 	0.03059	0.31963	0.5888	-0.414
Mof_C 	C 	0.10658	0.33674	0.60816	0.052
Mof_H 	H 	0.1518	0.3132	0.5859	-0.033
Mof_H 	H 	0.8806	0.3553	0.5784	0.209
Mof_N 	N 	0.10658	0.39184	0.66326	-0.157
Mof_N 	N 	0.53059	0.81963	0.0888	-0.334
Mof_C 	C 	0.60658	0.83674	0.10816	0.062
Mof_H 	H 	0.6518	0.8132	0.0859	-0.046
Mof_H 	H 	0.3806	0.8553	0.0784	0.131
Mof_N 	N 	0.60658	0.89184	0.16326	-0.151
Mof_N 	N 	0.4112	0.03059	0.68037	-0.413
Mof_C 	C 	0.39184	0.10658	0.66326	0.052
Mof_H 	H 	0.4141	0.1518	0.6868	-0.034
Mof_H 	H 	0.4216	0.8806	0.6447	0.209
Mof_N 	N 	0.33674	0.10658	0.60816	-0.157
Mof_N 	N 	0.9112	0.53059	0.18037	-0.299
Mof_C 	C 	0.89184	0.60658	0.16326	0.069
Mof_H 	H 	0.9141	0.6518	0.1868	-0.018
Mof_H 	H 	0.9216	0.3806	0.1447	0.164
Mof_N 	N 	0.83674	0.60658	0.10816	-0.155
Mof_N 	N 	0.4112	0.96941	0.31963	-0.221
Mof_C 	C 	0.39184	0.89342	0.33674	0.075
Mof_H 	H 	0.4141	0.8482	0.3132	-0.036
Mof_H 	H 	0.4216	0.1194	0.3553	0.095
Mof_N 	N 	0.33674	0.89342	0.39184	-0.15
Mof_N 	N 	0.9112	0.46941	0.81963	-0.304
Mof_C 	C 	0.89184	0.39342	0.83674	0.086
Mof_H 	H 	0.9141	0.3482	0.8132	-0.016
Mof_H 	H 	0.9216	0.6194	0.8553	0.222
Mof_N 	N 	0.83674	0.39342	0.89184	-0.149
Mof_N 	N 	0.5888	0.96941	0.68037	-0.22
Mof_C 	C 	0.60816	0.89342	0.66326	0.079
Mof_H 	H 	0.5859	0.8482	0.6868	-0.036
Mof_H 	H 	0.5784	0.1194	0.6447	0.096
Mof_N 	N 	0.66326	0.89342	0.60816	-0.149
Mof_N 	N 	0.0888	0.46941	0.18037	-0.331
Mof_C 	C 	0.10816	0.39342	0.16326	0.04
Mof_H 	H 	0.0859	0.3482	0.1868	-0.06
Mof_H 	H 	0.0784	0.6194	0.1447	0.093
Mof_N 	N 	0.16326	0.39342	0.10816	-0.158
Mof_N 	N 	0.5888	0.03059	0.31963	-0.414
Mof_C 	C 	0.60816	0.10658	0.33674	0.052
Mof_H 	H 	0.5859	0.1518	0.3132	-0.033
Mof_H 	H 	0.5784	0.8806	0.3553	0.209
Mof_N 	N 	0.66326	0.10658	0.39184	-0.157
Mof_N 	N 	0.0888	0.53059	0.81963	-0.334
Mof_C 	C 	0.10816	0.60658	0.83674	0.062
Mof_H 	H 	0.0859	0.6518	0.8132	-0.046
Mof_H 	H 	0.0784	0.3806	0.8553	0.131
Mof_N 	N 	0.16326	0.60658	0.89184	-0.151
Mof_N 	N 	0.68037	0.4112	0.03059	-0.413
Mof_C 	C 	0.66326	0.39184	0.10658	0.052
Mof_H 	H 	0.6868	0.4141	0.1518	-0.034
Mof_H 	H 	0.6447	0.4216	0.8806	0.209
Mof_N 	N 	0.60816	0.33674	0.10658	-0.157
Mof_N 	N 	0.18037	0.9112	0.53059	-0.299
Mof_C 	C 	0.16326	0.89184	0.60658	0.069
Mof_H 	H 	0.1868	0.9141	0.6518	-0.018
Mof_H 	H 	0.1447	0.9216	0.3806	0.164
Mof_N 	N 	0.10816	0.83674	0.60658	-0.155
Mof_N 	N 	0.31963	0.4112	0.96941	-0.221
Mof_C 	C 	0.33674	0.39184	0.89342	0.075
Mof_H 	H 	0.3132	0.4141	0.8482	-0.036
Mof_H 	H 	0.3553	0.4216	0.1194	0.095
Mof_N 	N 	0.39184	0.33674	0.89342	-0.15
Mof_N 	N 	0.81963	0.9112	0.46941	-0.304
Mof_C 	C 	0.83674	0.89184	0.39342	0.086
Mof_H 	H 	0.8132	0.9141	0.3482	-0.016
Mof_H 	H 	0.8553	0.9216	0.6194	0.222
Mof_N 	N 	0.89184	0.83674	0.39342	-0.149
Mof_N 	N 	0.68037	0.5888	0.96941	-0.22
Mof_C 	C 	0.66326	0.60816	0.89342	0.079
Mof_H 	H 	0.6868	0.5859	0.8482	-0.036
Mof_H 	H 	0.6447	0.5784	0.1194	0.096
Mof_N 	N 	0.60816	0.66326	0.89342	-0.149
Mof_N 	N 	0.18037	0.0888	0.46941	-0.331
Mof_C 	C 	0.16326	0.10816	0.39342	0.04
Mof_H 	H 	0.1868	0.0859	0.3482	-0.06
Mof_H 	H 	0.1447	0.0784	0.6194	0.093
Mof_N 	N 	0.10816	0.16326	0.39342	-0.158
Mof_N 	N 	0.31963	0.5888	0.03059	-0.414
Mof_C 	C 	0.33674	0.60816	0.10658	0.052
Mof_H 	H 	0.3132	0.5859	0.1518	-0.033
Mof_H 	H 	0.3553	0.5784	0.8806	0.209
Mof_N 	N 	0.39184	0.66326	0.10658	-0.157
Mof_N 	N 	0.81963	0.0888	0.53059	-0.334
Mof_C 	C 	0.83674	0.10816	0.60658	0.062
Mof_H 	H 	0.8132	0.0859	0.6518	-0.046
Mof_H 	H 	0.8553	0.0784	0.3806	0.131
Mof_N 	N 	0.89184	0.16326	0.60658	-0.151
Mof_N 	N 	0.68037	0.03059	0.4112	-0.379
Mof_H 	H 	0.6868	0.1518	0.4141	0.047
Mof_H 	H 	0.6447	0.8806	0.4216	0.209
Mof_N 	N 	0.18037	0.53059	0.9112	-0.263
Mof_H 	H 	0.1868	0.6518	0.9141	0.068
Mof_H 	H 	0.1447	0.3806	0.9216	0.164
Mof_N 	N 	0.31963	0.96941	0.4112	-0.183
Mof_H 	H 	0.3132	0.8482	0.4141	0.051
Mof_H 	H 	0.3553	0.1194	0.4216	0.094
Mof_N 	N 	0.81963	0.46941	0.9112	-0.265
Mof_H 	H 	0.8132	0.3482	0.9141	0.074
Mof_H 	H 	0.8553	0.6194	0.9216	0.222
Mof_N 	N 	0.68037	0.96941	0.5888	-0.182
Mof_H 	H 	0.6868	0.8482	0.5859	0.052
Mof_H 	H 	0.6447	0.1194	0.5784	0.096
Mof_N 	N 	0.18037	0.46941	0.0888	-0.298
Mof_H 	H 	0.1868	0.3482	0.0859	0.017
Mof_H 	H 	0.1447	0.6194	0.0784	0.092
Mof_N 	N 	0.31963	0.03059	0.5888	-0.379
Mof_H 	H 	0.3132	0.1518	0.5859	0.047
Mof_H 	H 	0.3553	0.8806	0.5784	0.209
Mof_N 	N 	0.81963	0.53059	0.0888	-0.298
Mof_H 	H 	0.8132	0.6518	0.0859	0.038
Mof_H 	H 	0.8553	0.3806	0.0784	0.131
Mof_N 	N 	0.03059	0.4112	0.68037	-0.379
Mof_H 	H 	0.1518	0.4141	0.6868	0.047
Mof_H 	H 	0.8806	0.4216	0.6447	0.209
Mof_N 	N 	0.53059	0.9112	0.18037	-0.263
Mof_H 	H 	0.6518	0.9141	0.1868	0.068
Mof_H 	H 	0.3806	0.9216	0.1447	0.164
Mof_N 	N 	0.96941	0.4112	0.31963	-0.183
Mof_H 	H 	0.8482	0.4141	0.3132	0.051
Mof_H 	H 	0.1194	0.4216	0.3553	0.094
Mof_N 	N 	0.46941	0.9112	0.81963	-0.265
Mof_H 	H 	0.3482	0.9141	0.8132	0.074
Mof_H 	H 	0.6194	0.9216	0.8553	0.222
Mof_N 	N 	0.96941	0.5888	0.68037	-0.182
Mof_H 	H 	0.8482	0.5859	0.6868	0.052
Mof_H 	H 	0.1194	0.5784	0.6447	0.096
Mof_N 	N 	0.46941	0.0888	0.18037	-0.298
Mof_H 	H 	0.3482	0.0859	0.1868	0.017
Mof_H 	H 	0.6194	0.0784	0.1447	0.092
Mof_N 	N 	0.03059	0.5888	0.31963	-0.379
Mof_H 	H 	0.1518	0.5859	0.3132	0.047
Mof_H 	H 	0.8806	0.5784	0.3553	0.209
Mof_N 	N 	0.53059	0.0888	0.81963	-0.298
Mof_H 	H 	0.6518	0.0859	0.8132	0.038
Mof_H 	H 	0.3806	0.0784	0.8553	0.131
Mof_N 	N 	0.4112	0.68037	0.03059	-0.379
Mof_H 	H 	0.4141	0.6868	0.1518	0.047
Mof_H 	H 	0.4216	0.6447	0.8806	0.209
Mof_N 	N 	0.9112	0.18037	0.53059	-0.263
Mof_H 	H 	0.9141	0.1868	0.6518	0.068
Mof_H 	H 	0.9216	0.1447	0.3806	0.164
Mof_N 	N 	0.4112	0.31963	0.96941	-0.183
Mof_H 	H 	0.4141	0.3132	0.8482	0.051
Mof_H 	H 	0.4216	0.3553	0.1194	0.094
Mof_N 	N 	0.9112	0.81963	0.46941	-0.265
Mof_H 	H 	0.9141	0.8132	0.3482	0.074
Mof_H 	H 	0.9216	0.8553	0.6194	0.222
Mof_N 	N 	0.5888	0.68037	0.96941	-0.182
Mof_H 	H 	0.5859	0.6868	0.8482	0.052
Mof_H 	H 	0.5784	0.6447	0.1194	0.096
Mof_N 	N 	0.0888	0.18037	0.46941	-0.298
Mof_H 	H 	0.0859	0.1868	0.3482	0.017
Mof_H 	H 	0.0784	0.1447	0.6194	0.092
Mof_N 	N 	0.5888	0.31963	0.03059	-0.379
Mof_H 	H 	0.5859	0.3132	0.1518	0.047
Mof_H 	H 	0.5784	0.3553	0.8806	0.209
Mof_N 	N 	0.0888	0.81963	0.53059	-0.298
Mof_H 	H 	0.0859	0.8132	0.6518	0.038
Mof_H 	H 	0.0784	0.8553	0.3806	0.131
Mof_Zn	Zn	1.8747e-33	0.75	0.5	1.136
Mof_Zn	Zn	1.8747e-33	0.25	0.5	1.134
Mof_Zn	Zn	0.5	0	0.75	1.136
Mof_Zn	Zn	0.5	0	0.25	1.134
Mof_Zn	Zn	0.75	0.5	-0	1.136
Mof_Zn	Zn	0.25	0.5	-0	1.134
Mof_Zn	Zn	0.75	0	0.5	1.136
Mof_Zn	Zn	0.25	0	0.5	1.134
Mof_Zn	Zn	2.81205e-33	0.5	0.75	1.136
Mof_Zn	Zn	6.00387e-33	0.5	0.25	1.134
Mof_Zn	Zn	0.5	0.75	-0	1.136
Mof_Zn	Zn	0.5	0.25	-0	1.134
Mof_C 	C 	0.9867	0.63382	0.36618	0.432
Mof_C 	C 	0.8986	0.6312	0.36879	-0.751
Mof_H 	H 	0.8772	0.66885	0.33115	0.224
Mof_C 	C 	0.4867	0.13382	0.86618	0.211
Mof_C 	C 	0.3986	0.1312	0.86879	-0.575
Mof_H 	H 	0.3772	0.16885	0.83115	0.165
Mof_C 	C 	0.0133	0.36618	0.36618	-0.009
Mof_C 	C 	0.1014	0.3688	0.36879	-0.409
Mof_H 	H 	0.1228	0.33115	0.33115	0.111
Mof_C 	C 	0.5133	0.86618	0.86618	0.261
Mof_C 	C 	0.6014	0.8688	0.86879	-0.677
Mof_H 	H 	0.6228	0.83115	0.83115	0.209
Mof_C 	C 	0.0133	0.63382	0.63382	-0.004
Mof_C 	C 	0.1014	0.6312	0.63121	-0.415
Mof_H 	H 	0.1228	0.66885	0.66885	0.117
Mof_C 	C 	0.5133	0.13382	0.13382	0.168
Mof_C 	C 	0.6014	0.1312	0.13121	-0.501
Mof_H 	H 	0.6228	0.16885	0.16885	0.138
Mof_C 	C 	0.9867	0.36618	0.63382	0.432
Mof_C 	C 	0.8986	0.3688	0.63121	-0.751
Mof_H 	H 	0.8772	0.33115	0.66885	0.224
Mof_C 	C 	0.4867	0.86618	0.13382	0.211
Mof_C 	C 	0.3986	0.8688	0.13121	-0.574
Mof_H 	H 	0.3772	0.83115	0.16885	0.165
Mof_C 	C 	0.36618	0.9867	0.63382	0.432
Mof_C 	C 	0.36879	0.8986	0.6312	-0.751
Mof_H 	H 	0.33115	0.8772	0.66885	0.224
Mof_C 	C 	0.86618	0.4867	0.13382	0.211
Mof_C 	C 	0.86879	0.3986	0.1312	-0.575
Mof_H 	H 	0.83115	0.3772	0.16885	0.165
Mof_C 	C 	0.36618	0.0133	0.36618	-0.009
Mof_C 	C 	0.36879	0.1014	0.3688	-0.409
Mof_H 	H 	0.33115	0.1228	0.33115	0.111
Mof_C 	C 	0.86618	0.5133	0.86618	0.261
Mof_C 	C 	0.86879	0.6014	0.8688	-0.677
Mof_H 	H 	0.83115	0.6228	0.83115	0.209
Mof_C 	C 	0.63382	0.0133	0.63382	-0.004
Mof_C 	C 	0.63121	0.1014	0.6312	-0.415
Mof_H 	H 	0.66885	0.1228	0.66885	0.117
Mof_C 	C 	0.13382	0.5133	0.13382	0.168
Mof_C 	C 	0.13121	0.6014	0.1312	-0.501
Mof_H 	H 	0.16885	0.6228	0.16885	0.138
Mof_C 	C 	0.63382	0.9867	0.36618	0.432
Mof_C 	C 	0.63121	0.8986	0.3688	-0.751
Mof_H 	H 	0.66885	0.8772	0.33115	0.224
Mof_C 	C 	0.13382	0.4867	0.86618	0.211
Mof_C 	C 	0.13121	0.3986	0.8688	-0.574
Mof_H 	H 	0.16885	0.3772	0.83115	0.165
Mof_C 	C 	0.63382	0.36618	0.9867	0.432
Mof_C 	C 	0.6312	0.36879	0.8986	-0.751
Mof_H 	H 	0.66885	0.33115	0.8772	0.224
Mof_C 	C 	0.13382	0.86618	0.4867	0.211
Mof_C 	C 	0.1312	0.86879	0.3986	-0.575
Mof_H 	H 	0.16885	0.83115	0.3772	0.165
Mof_C 	C 	0.36618	0.36618	0.0133	-0.009
Mof_C 	C 	0.3688	0.36879	0.1014	-0.409
Mof_H 	H 	0.33115	0.33115	0.1228	0.111
Mof_C 	C 	0.86618	0.86618	0.5133	0.261
Mof_C 	C 	0.86879	0.86879	0.6014	-0.677
Mof_H 	H 	0.83115	0.83115	0.6228	0.209
Mof_C 	C 	0.63382	0.63382	0.0133	-0.004
Mof_C 	C 	0.6312	0.63121	0.1014	-0.415
Mof_H 	H 	0.66885	0.66885	0.1228	0.117
Mof_C 	C 	0.13382	0.13382	0.5133	0.168
Mof_C 	C 	0.1312	0.13121	0.6014	-0.501
Mof_H 	H 	0.16885	0.16885	0.6228	0.138
Mof_C 	C 	0.36618	0.63382	0.9867	0.432
Mof_C 	C 	0.3688	0.63121	0.8986	-0.751
Mof_H 	H 	0.33115	0.66885	0.8772	0.224
Mof_C 	C 	0.86618	0.13382	0.4867	0.211
Mof_C 	C 	0.86879	0.13121	0.3986	-0.574
Mof_H 	H 	0.83115	0.16885	0.3772	0.165
_end
