data_functionalizedCrystal
_audit_creation_method	'EQeq! by Chris Wilmer'
_symmetry_space_group_name_H-M	'P1'
_symmetry_Int_Tables_number	1
_symmetry_cell_setting	triclinic
loop_
_symmetry_equiv_pos_as_xyz
  x,y,z
_cell_length_a	14.649
_cell_length_b	15.0794
_cell_length_c	29.96
_cell_angle_alpha	87.2789
_cell_angle_beta	84.3911
_cell_angle_gamma	60.9397
loop_
_atom_site_label
_atom_site_type_symbol
_atom_site_fract_x
_atom_site_fract_y
_atom_site_fract_z
_atom_site_charge
Mof_Cu	Cu	0.22506	0.08238	0.67779	0.853
Mof_Cu	Cu	0.69256	0.08238	0.82221	0.854
Mof_Cu	Cu	0.77494	0.91762	0.32221	0.853
Mof_Cu	Cu	0.30744	0.91762	0.17779	0.852
Mof_Cu	Cu	5.1995e-17	0.5	0.5	0.845
Mof_Cu	Cu	0.5	0.5	-0	0.845
Mof_H 	H 	0.0315	0.3824	0.596	-0.039
Mof_H 	H 	0.8039	0.461	0.5198	-0.021
Mof_H 	H 	0.6954	0.4184	0.6168	0.038
Mof_H 	H 	0.6944	0.3958	0.5663	0.035
Mof_H 	H 	0.8228	0.2446	0.6267	0.086
Mof_H 	H 	0.7168	0.2552	0.6137	0.057
Mof_H 	H 	0.7874	0.1786	0.5477	0.048
Mof_H 	H 	0.8626	0.2258	0.5404	0.074
Mof_H 	H 	0.9547	0.0424	0.5527	0.044
Mof_H 	H 	0.9027	0.063	0.6022	0.042
Mof_H 	H 	0.0197	0.0796	0.657	-0.011
Mof_H 	H 	0.1888	0.1546	0.5721	-0.013
Mof_H 	H 	0.0353	0.2708	0.4979	0.001
Mof_H 	H 	0.179	0.3836	0.4186	0.003
Mof_H 	H 	0.0958	0.1036	0.4533	0.038
Mof_H 	H 	0.1679	0.0896	0.409	0.044
Mof_H 	H 	0.2615	0.961	0.4573	0.051
Mof_H 	H 	0.2358	0.038	0.4958	0.061
Mof_H 	H 	0.4108	0.9684	0.4673	0.06
Mof_H 	H 	0.3527	0.0868	0.4622	0.075
Mof_H 	H 	0.3933	0.9516	0.3923	0.048
Mof_H 	H 	0.335	0.0702	0.3872	0.065
Mof_H 	H 	0.5847	0.8786	0.3589	-0.012
Mof_H 	H 	0.6349	0.095	0.3934	-0.02
Mof_H 	H 	0.302	0.1414	0.7648	-0.021
Mof_H 	H 	0.3959	0.8738	0.7171	-0.016
Mof_H 	H 	0.5575	0.8388	0.8111	0.066
Mof_H 	H 	0.4753	0.8002	0.815	0.052
Mof_H 	H 	0.5402	0.735	0.7418	0.053
Mof_H 	H 	0.6096	0.6772	0.7807	0.045
Mof_H 	H 	0.1033	0.0392	0.7636	-0.014
Mof_H 	H 	0.0407	0.2968	0.7092	-0.024
Mof_H 	H 	0.9279	0.395	0.7988	0.042
Mof_H 	H 	0.8446	0.3572	0.8048	0.058
Mof_H 	H 	0.8737	0.4104	0.7187	0.066
Mof_H 	H 	0.8264	0.5024	0.7525	0.05
Mof_H 	H 	0.5861	0.3824	0.904	-0.02
Mof_H 	H 	0.7351	0.461	0.9802	-0.018
Mof_H 	H 	0.8862	0.4184	0.8832	0.048
Mof_H 	H 	0.9098	0.3958	0.9337	0.047
Mof_H 	H 	0.9326	0.2446	0.8733	0.071
Mof_H 	H 	0.028	0.2552	0.8863	0.034
Mof_H 	H 	0.034	0.1786	0.9523	0.046
Mof_H 	H 	0.9116	0.2258	0.9596	0.079
Mof_H 	H 	0.0029	0.0424	0.9473	0.016
Mof_H 	H 	0.0343	0.063	0.8978	0.014
Mof_H 	H 	0.9007	0.0796	0.843	-0.005
Mof_H 	H 	0.6566	0.1546	0.9279	-0.01
Mof_H 	H 	0.6939	0.2708	0.0021	0
Mof_H 	H 	0.4374	0.3836	0.0814	0.003
Mof_H 	H 	0.8006	0.1036	0.0467	0.041
Mof_H 	H 	0.7425	0.0896	0.091	0.047
Mof_H 	H 	0.7775	0.961	0.0427	0.048
Mof_H 	H 	0.7262	0.038	0.0042	0.058
Mof_H 	H 	0.6208	0.9684	0.0327	0.057
Mof_H 	H 	0.5605	0.0868	0.0378	0.072
Mof_H 	H 	0.6551	0.9516	0.1077	0.047
Mof_H 	H 	0.5948	0.0702	0.1128	0.065
Mof_H 	H 	0.5367	0.8786	0.1411	-0.012
Mof_H 	H 	0.2701	0.095	0.1066	-0.024
Mof_H 	H 	0.5566	0.1414	0.7352	-0.02
Mof_H 	H 	0.7303	0.8738	0.7829	-0.015
Mof_H 	H 	0.6037	0.8388	0.6889	0.065
Mof_H 	H 	0.7245	0.8002	0.685	0.052
Mof_H 	H 	0.7248	0.735	0.7582	0.055
Mof_H 	H 	0.7132	0.6772	0.7193	0.047
Mof_H 	H 	0.8575	0.0392	0.7364	-0.014
Mof_H 	H 	0.6625	0.2968	0.7908	-0.025
Mof_H 	H 	0.6771	0.395	0.7012	0.039
Mof_H 	H 	0.7982	0.3572	0.6952	0.059
Mof_H 	H 	0.7159	0.4104	0.7813	0.063
Mof_H 	H 	0.6712	0.5024	0.7475	0.047
Mof_H 	H 	0.9685	0.6176	0.404	-0.003
Mof_H 	H 	0.1961	0.539	0.4802	-0.024
Mof_H 	H 	0.3046	0.5816	0.3832	0.037
Mof_H 	H 	0.3056	0.6042	0.4337	0.034
Mof_H 	H 	0.1772	0.7554	0.3733	0.084
Mof_H 	H 	0.2832	0.7448	0.3863	0.059
Mof_H 	H 	0.2126	0.8214	0.4523	0.044
Mof_H 	H 	0.1374	0.7742	0.4596	0.065
Mof_H 	H 	0.0453	0.9576	0.4473	0.045
Mof_H 	H 	0.0973	0.937	0.3978	0.045
Mof_H 	H 	0.9803	0.9204	0.343	-0.003
Mof_H 	H 	0.8112	0.8454	0.4279	-0.012
Mof_H 	H 	0.9647	0.7292	0.5021	0.008
Mof_H 	H 	0.821	0.6164	0.5814	0.004
Mof_H 	H 	0.9042	0.8964	0.5467	0.044
Mof_H 	H 	0.8321	0.9104	0.591	0.048
Mof_H 	H 	0.7385	0.039	0.5427	0.05
Mof_H 	H 	0.7642	0.962	0.5042	0.061
Mof_H 	H 	0.5892	0.0316	0.5327	0.059
Mof_H 	H 	0.6473	0.9132	0.5378	0.075
Mof_H 	H 	0.6067	0.0484	0.6077	0.046
Mof_H 	H 	0.665	0.9298	0.6128	0.064
Mof_H 	H 	0.4153	0.1214	0.6411	-0.013
Mof_H 	H 	0.3651	0.905	0.6066	-0.022
Mof_H 	H 	0.698	0.8586	0.2352	-0.019
Mof_H 	H 	0.6041	0.1262	0.2829	-0.015
Mof_H 	H 	0.4425	0.1612	0.1889	0.065
Mof_H 	H 	0.5247	0.1998	0.185	0.052
Mof_H 	H 	0.4598	0.265	0.2582	0.054
Mof_H 	H 	0.3904	0.3228	0.2193	0.046
Mof_H 	H 	0.8967	0.9608	0.2364	-0.018
Mof_H 	H 	0.9593	0.7032	0.2908	-0.026
Mof_H 	H 	0.0721	0.605	0.2012	0.037
Mof_H 	H 	0.1554	0.6428	0.1952	0.057
Mof_H 	H 	0.1263	0.5896	0.2813	0.061
Mof_H 	H 	0.1736	0.4976	0.2475	0.046
Mof_H 	H 	0.4139	0.6176	0.096	-0.021
Mof_H 	H 	0.2649	0.539	0.0198	-0.027
Mof_H 	H 	0.1138	0.5816	0.1168	0.029
Mof_H 	H 	0.0902	0.6042	0.0663	0.025
Mof_H 	H 	0.0674	0.7554	0.1267	0.095
Mof_H 	H 	0.972	0.7448	0.1137	0.078
Mof_H 	H 	0.966	0.8214	0.0477	0.046
Mof_H 	H 	0.0884	0.7742	0.0404	0.06
Mof_H 	H 	0.9971	0.9576	0.0527	0.065
Mof_H 	H 	0.9657	0.937	0.1022	0.065
Mof_H 	H 	0.0993	0.9204	0.157	-0.007
Mof_H 	H 	0.3434	0.8454	0.0721	-0.015
Mof_H 	H 	0.3061	0.7292	0.9979	0.009
Mof_H 	H 	0.5626	0.6164	0.9186	0.004
Mof_H 	H 	0.1994	0.8964	0.9533	0.044
Mof_H 	H 	0.2575	0.9104	0.909	0.048
Mof_H 	H 	0.2225	0.039	0.9573	0.047
Mof_H 	H 	0.2738	0.962	0.9958	0.063
Mof_H 	H 	0.3792	0.0316	0.9673	0.062
Mof_H 	H 	0.4395	0.9132	0.9622	0.079
Mof_H 	H 	0.3449	0.0484	0.8923	0.044
Mof_H 	H 	0.4052	0.9298	0.8872	0.063
Mof_H 	H 	0.4633	0.1214	0.8589	-0.012
Mof_H 	H 	0.7299	0.905	0.8934	-0.018
Mof_H 	H 	0.4434	0.8586	0.2648	-0.02
Mof_H 	H 	0.2697	0.1262	0.2171	-0.016
Mof_H 	H 	0.3963	0.1612	0.3111	0.066
Mof_H 	H 	0.2755	0.1998	0.315	0.051
Mof_H 	H 	0.2752	0.265	0.2418	0.052
Mof_H 	H 	0.2868	0.3228	0.2807	0.045
Mof_H 	H 	0.1425	0.9608	0.2636	-0.018
Mof_H 	H 	0.3375	0.7032	0.2092	-0.025
Mof_H 	H 	0.3229	0.605	0.2988	0.039
Mof_H 	H 	0.2018	0.6428	0.3048	0.056
Mof_H 	H 	0.2841	0.5896	0.2187	0.064
Mof_H 	H 	0.3288	0.4976	0.2525	0.049
Mof_C 	C 	0.9689	0.3934	0.5857	0.115
Mof_C 	C 	0.8464	0.4364	0.5435	0.092
Mof_C 	C 	0.7378	0.3766	0.5913	-0.031
Mof_C 	C 	0.7765	0.264	0.6028	-0.112
Mof_C 	C 	0.8356	0.1926	0.5621	-0.095
Mof_C 	C 	0.9281	0.0908	0.5772	-0.034
Mof_C 	C 	0.0474	0.0968	0.6309	0.08
Mof_C 	C 	0.1378	0.1382	0.5841	0.092
Mof_C 	C 	0.0775	0.2798	0.4749	0.075
Mof_C 	C 	0.1567	0.3394	0.4316	0.068
Mof_C 	C 	0.1579	0.1064	0.4406	-0.04
Mof_C 	C 	0.2524	0.0274	0.4637	-0.101
Mof_C 	C 	0.3572	0.0246	0.4518	-0.099
Mof_C 	C 	0.3882	0.0138	0.4028	-0.051
Mof_C 	C 	0.5767	0.939	0.3697	0.075
Mof_C 	C 	0.601	0.0584	0.3884	0.103
Mof_C 	C 	0.3382	0.0712	0.7611	0.105
Mof_C 	C 	0.387	0.927	0.7347	0.083
Mof_C 	C 	0.5144	0.8228	0.7939	-0.06
Mof_C 	C 	0.5834	0.7392	0.7633	-0.088
Mof_C 	C 	0.0718	0.1086	0.7583	0.077
Mof_C 	C 	0.0394	0.2468	0.7282	0.089
Mof_C 	C 	0.8933	0.3662	0.7833	-0.044
Mof_C 	C 	0.8366	0.4348	0.7479	-0.101
Mof_C 	C 	0.6377	0.3934	0.9143	0.089
Mof_C 	C 	0.7172	0.4364	0.9565	0.091
Mof_C 	C 	0.8856	0.3766	0.9087	-0.056
Mof_C 	C 	0.9595	0.264	0.8972	-0.065
Mof_C 	C 	0.9718	0.1926	0.9379	-0.111
Mof_C 	C 	0.9811	0.0908	0.9228	0.019
Mof_C 	C 	0.8558	0.0968	0.8691	0.087
Mof_C 	C 	0.724	0.1382	0.9159	0.095
Mof_C 	C 	0.6427	0.2798	0.0251	0.075
Mof_C 	C 	0.5039	0.3394	0.0684	0.068
Mof_C 	C 	0.7357	0.1064	0.0594	-0.044
Mof_C 	C 	0.7202	0.0274	0.0363	-0.096
Mof_C 	C 	0.6182	0.0246	0.0482	-0.098
Mof_C 	C 	0.598	0.0138	0.0972	-0.051
Mof_C 	C 	0.4843	0.939	0.1303	0.074
Mof_C 	C 	0.3406	0.0584	0.1116	0.101
Mof_C 	C 	0.5906	0.0712	0.7389	0.105
Mof_C 	C 	0.686	0.927	0.7653	0.082
Mof_C 	C 	0.6628	0.8228	0.7061	-0.058
Mof_C 	C 	0.6774	0.7392	0.7367	-0.091
Mof_C 	C 	0.8196	0.1086	0.7417	0.093
Mof_C 	C 	0.7138	0.2468	0.7718	0.106
Mof_C 	C 	0.7405	0.3662	0.7167	-0.045
Mof_C 	C 	0.7286	0.4348	0.7521	-0.098
Mof_C 	C 	0.0311	0.6066	0.4143	0.064
Mof_C 	C 	0.1536	0.5636	0.4565	0.091
Mof_C 	C 	0.2622	0.6234	0.4087	-0.03
Mof_C 	C 	0.2235	0.736	0.3972	-0.118
Mof_C 	C 	0.1644	0.8074	0.4379	-0.083
Mof_C 	C 	0.0719	0.9092	0.4228	-0.061
Mof_C 	C 	0.9526	0.9032	0.3691	0.082
Mof_C 	C 	0.8622	0.8618	0.4159	0.094
Mof_C 	C 	0.9225	0.7202	0.5251	0.077
Mof_C 	C 	0.8433	0.6606	0.5684	0.07
Mof_C 	C 	0.8421	0.8936	0.5594	-0.045
Mof_C 	C 	0.7476	0.9726	0.5363	-0.096
Mof_C 	C 	0.6428	0.9754	0.5482	-0.1
Mof_C 	C 	0.6118	0.9862	0.5972	-0.049
Mof_C 	C 	0.4233	0.061	0.6303	0.074
Mof_C 	C 	0.399	0.9416	0.6116	0.104
Mof_C 	C 	0.6618	0.9288	0.2389	0.105
Mof_C 	C 	0.613	0.073	0.2653	0.082
Mof_C 	C 	0.4856	0.1772	0.2061	-0.058
Mof_C 	C 	0.4166	0.2608	0.2367	-0.091
Mof_C 	C 	0.9282	0.8914	0.2417	0.105
Mof_C 	C 	0.9606	0.7532	0.2718	0.119
Mof_C 	C 	0.1067	0.6338	0.2167	-0.044
Mof_C 	C 	0.1634	0.5652	0.2521	-0.098
Mof_C 	C 	0.3623	0.6066	0.0857	0.088
Mof_C 	C 	0.2828	0.5636	0.0435	0.092
Mof_C 	C 	0.1144	0.6234	0.0913	-0.01
Mof_C 	C 	0.0405	0.736	0.1028	-0.155
Mof_C 	C 	0.0282	0.8074	0.0621	-0.072
Mof_C 	C 	0.0189	0.9092	0.0772	-0.1
Mof_C 	C 	0.1442	0.9032	0.1309	0.077
Mof_C 	C 	0.276	0.8618	0.0841	0.092
Mof_C 	C 	0.3573	0.7202	0.9749	0.077
Mof_C 	C 	0.4961	0.6606	0.9316	0.07
Mof_C 	C 	0.2643	0.8936	0.9406	-0.046
Mof_C 	C 	0.2798	0.9726	0.9637	-0.091
Mof_C 	C 	0.3818	0.9754	0.9518	-0.104
Mof_C 	C 	0.402	0.9862	0.9028	-0.044
Mof_C 	C 	0.5157	0.061	0.8697	0.075
Mof_C 	C 	0.6594	0.9416	0.8884	0.104
Mof_C 	C 	0.4094	0.9288	0.2611	0.105
Mof_C 	C 	0.314	0.073	0.2347	0.08
Mof_C 	C 	0.3372	0.1772	0.2939	-0.06
Mof_C 	C 	0.3226	0.2608	0.2633	-0.087
Mof_C 	C 	0.1804	0.8914	0.2583	0.092
Mof_C 	C 	0.2862	0.7532	0.2282	0.105
Mof_C 	C 	0.2595	0.6338	0.2833	-0.043
Mof_C 	C 	0.2714	0.5652	0.2479	-0.101
Mof_N 	N 	0.9351	0.44	0.5451	-0.245
Mof_N 	N 	0.9051	0.3658	0.6085	-0.099
Mof_N 	N 	0.8266	0.3938	0.5796	-0.097
Mof_N 	N 	0.0131	0.1056	0.5908	-0.1
Mof_N 	N 	0.0699	0.135	0.5598	-0.103
Mof_N 	N 	0.128	0.1158	0.6283	-0.24
Mof_N 	N 	0.0823	0.3656	0.4679	-0.24
Mof_N 	N 	0.1939	0.2436	0.4169	-0.095
Mof_N 	N 	0.1409	0.2084	0.445	-0.093
Mof_N 	N 	0.4908	0.0116	0.3927	-0.088
Mof_N 	N 	0.5048	0.0886	0.403	-0.102
Mof_N 	N 	0.6492	0.9712	0.3655	-0.247
Mof_N 	N 	0.3219	0.026	0.7284	-0.241
Mof_N 	N 	0.4096	0.01	0.7884	-0.098
Mof_N 	N 	0.4372	0.9192	0.7715	-0.083
Mof_N 	N 	0.1031	0.15	0.7229	-0.247
Mof_N 	N 	0.9917	0.1766	0.7846	-0.087
Mof_N 	N 	0.9734	0.265	0.7635	-0.087
Mof_N 	N 	0.6249	0.44	0.9549	-0.241
Mof_N 	N 	0.7291	0.3658	0.8915	-0.098
Mof_N 	N 	0.7796	0.3938	0.9204	-0.094
Mof_N 	N 	0.8813	0.1056	0.9092	-0.099
Mof_N 	N 	0.7951	0.135	0.9402	-0.096
Mof_N 	N 	0.7562	0.1158	0.8717	-0.24
Mof_N 	N 	0.5521	0.3656	0.0321	-0.24
Mof_N 	N 	0.5625	0.2436	0.0831	-0.095
Mof_N 	N 	0.6507	0.2084	0.055	-0.092
Mof_N 	N 	0.4976	0.0116	0.1073	-0.088
Mof_N 	N 	0.4066	0.0886	0.097	-0.104
Mof_N 	N 	0.3796	0.9712	0.1345	-0.247
Mof_N 	N 	0.6521	0.026	0.7716	-0.24
Mof_N 	N 	0.5804	0.01	0.7116	-0.098
Mof_N 	N 	0.6436	0.9192	0.7285	-0.084
Mof_N 	N 	0.7469	0.15	0.7771	-0.25
Mof_N 	N 	0.8317	0.1766	0.7154	-0.094
Mof_N 	N 	0.7616	0.265	0.7365	-0.095
Mof_N 	N 	0.0649	0.56	0.4549	-0.244
Mof_N 	N 	0.0949	0.6342	0.3915	-0.096
Mof_N 	N 	0.1734	0.6062	0.4204	-0.098
Mof_N 	N 	0.9869	0.8944	0.4092	-0.085
Mof_N 	N 	0.9301	0.865	0.4402	-0.098
Mof_N 	N 	0.872	0.8842	0.3717	-0.239
Mof_N 	N 	0.9177	0.6344	0.5321	-0.235
Mof_N 	N 	0.8061	0.7564	0.5831	-0.094
Mof_N 	N 	0.8591	0.7916	0.555	-0.091
Mof_N 	N 	0.5092	0.9884	0.6073	-0.087
Mof_N 	N 	0.4952	0.9114	0.597	-0.102
Mof_N 	N 	0.3508	0.0288	0.6345	-0.248
Mof_N 	N 	0.6781	0.974	0.2716	-0.24
Mof_N 	N 	0.5904	0.99	0.2116	-0.097
Mof_N 	N 	0.5628	0.0808	0.2285	-0.084
Mof_N 	N 	0.8969	0.85	0.2771	-0.254
Mof_N 	N 	0.0083	0.8234	0.2154	-0.104
Mof_N 	N 	0.0266	0.735	0.2365	-0.103
Mof_N 	N 	0.3751	0.56	0.0451	-0.247
Mof_N 	N 	0.2709	0.6342	0.1085	-0.097
Mof_N 	N 	0.2204	0.6062	0.0796	-0.101
Mof_N 	N 	0.1187	0.8944	0.0908	-0.086
Mof_N 	N 	0.2049	0.865	0.0598	-0.104
Mof_N 	N 	0.2438	0.8842	0.1283	-0.239
Mof_N 	N 	0.4479	0.6344	0.9679	-0.235
Mof_N 	N 	0.4375	0.7564	0.9169	-0.094
Mof_N 	N 	0.3493	0.7916	0.945	-0.091
Mof_N 	N 	0.5024	0.9884	0.8927	-0.088
Mof_N 	N 	0.5934	0.9114	0.903	-0.101
Mof_N 	N 	0.6204	0.0288	0.8655	-0.247
Mof_N 	N 	0.3479	0.974	0.2284	-0.24
Mof_N 	N 	0.4196	0.99	0.2884	-0.097
Mof_N 	N 	0.3564	0.0808	0.2715	-0.084
Mof_N 	N 	0.2531	0.85	0.2229	-0.251
Mof_N 	N 	0.1683	0.8234	0.2846	-0.098
Mof_N 	N 	0.2384	0.735	0.2635	-0.096
_end
