# CIF file generated by openbabel 3.1.0, see https://openbabel.org
data_I
_chemical_name_common 'MABLAD_clean'
_cell_length_a 9.523
_cell_length_b 11.3555
_cell_length_c 25.874
_cell_angle_alpha 87.4044
_cell_angle_beta 83.7999
_cell_angle_gamma 65.2088
_space_group_name_H-M_alt 'P 1'
_space_group_name_Hall 'P 1'
loop_
    _symmetry_equiv_pos_as_xyz
    x,y,z
loop_
    _atom_site_label
    _atom_site_type_symbol
    _atom_site_fract_x
    _atom_site_fract_y
    _atom_site_fract_z
    _atom_site_occupancy
    Co1      Co       0.10253    0.60554    0.95575    1.000
    Co2      Co       0.29193    0.60554    0.54425    1.000
    Co3      Co       0.89747    0.39446    0.04425    1.000
    Co4      Co       0.70807    0.39446    0.45575    1.000
    H1       H        0.50450    0.72020    0.89450    1.000
    H2       H        0.66090    0.76180    0.83220    1.000
    H3       H        0.40150    0.76360    0.72360    1.000
    H4       H        0.23570    0.72340    0.78570    1.000
    H5       H        0.97860    0.50060    0.15710    1.000
    H6       H        0.01090    0.53580    0.24260    1.000
    H7       H        0.33450    0.65640    0.18650    1.000
    H8       H        0.27950    0.64320    0.10270    1.000
    H9       H        0.96550    0.86660    0.01550    1.000
    H10      H        0.76210    0.06580    0.01800    1.000
    H11      H        0.60980    0.95720    0.90200    1.000
    H12      H        0.81360    0.75940    0.90330    1.000
    H13      H        0.60330    0.25780    0.00810    1.000
    H14      H        0.40810    0.45780    0.00190    1.000
    H15      H        0.22560    0.34260    0.90080    1.000
    H16      H        0.42170    0.13380    0.90330    1.000
    H17      H        0.77530    0.72020    0.60550    1.000
    H18      H        0.57730    0.76180    0.66780    1.000
    H19      H        0.83490    0.76360    0.77640    1.000
    H20      H        0.04090    0.72340    0.71430    1.000
    H21      H        0.52080    0.50060    0.34290    1.000
    H22      H        0.45330    0.53580    0.25740    1.000
    H23      H        0.00910    0.65640    0.31350    1.000
    H24      H        0.07730    0.64320    0.39730    1.000
    H25      H        0.16790    0.86660    0.48450    1.000
    H26      H        0.17210    0.06580    0.48200    1.000
    H27      H        0.43300    0.95720    0.59800    1.000
    H28      H        0.42700    0.75940    0.59670    1.000
    H29      H        0.13890    0.25780    0.49190    1.000
    H30      H        0.13410    0.45780    0.49810    1.000
    H31      H        0.43180    0.34260    0.59920    1.000
    H32      H        0.44450    0.13380    0.59670    1.000
    H33      H        0.49550    0.27980    0.10550    1.000
    H34      H        0.33910    0.23820    0.16780    1.000
    H35      H        0.59850    0.23640    0.27640    1.000
    H36      H        0.76430    0.27660    0.21430    1.000
    H37      H        0.02140    0.49940    0.84290    1.000
    H38      H        0.98910    0.46420    0.75740    1.000
    H39      H        0.66550    0.34360    0.81350    1.000
    H40      H        0.72050    0.35680    0.89730    1.000
    H41      H        0.03450    0.13340    0.98450    1.000
    H42      H        0.23790    0.93420    0.98200    1.000
    H43      H        0.39020    0.04280    0.09800    1.000
    H44      H        0.18640    0.24060    0.09670    1.000
    H45      H        0.39670    0.74220    0.99190    1.000
    H46      H        0.59190    0.54220    0.99810    1.000
    H47      H        0.77440    0.65740    0.09920    1.000
    H48      H        0.57830    0.86620    0.09670    1.000
    H49      H        0.22470    0.27980    0.39450    1.000
    H50      H        0.42270    0.23820    0.33220    1.000
    H51      H        0.16510    0.23640    0.22360    1.000
    H52      H        0.95910    0.27660    0.28570    1.000
    H53      H        0.47920    0.49940    0.65710    1.000
    H54      H        0.54670    0.46420    0.74260    1.000
    H55      H        0.99090    0.34360    0.68650    1.000
    H56      H        0.92270    0.35680    0.60270    1.000
    H57      H        0.83210    0.13340    0.51550    1.000
    H58      H        0.82790    0.93420    0.51800    1.000
    H59      H        0.56700    0.04280    0.40200    1.000
    H60      H        0.57300    0.24060    0.40330    1.000
    H61      H        0.86110    0.74220    0.50810    1.000
    H62      H        0.86590    0.54220    0.50190    1.000
    H63      H        0.56820    0.65740    0.40080    1.000
    H64      H        0.55550    0.86620    0.40330    1.000
    C1       C        0.25140    0.68300    0.88680    1.000
    C2       C        0.34870    0.71920    0.84720    1.000
    C3       C        0.48140    0.72880    0.86010    1.000
    C4       C        0.57660    0.75080    0.82190    1.000
    C5       C        0.56190    0.75840    0.77100    1.000
    C6       C        0.42410    0.75260    0.75800    1.000
    C7       C        0.32280    0.73060    0.79560    1.000
    C8       C        0.09170    0.55740    0.06750    1.000
    C9       C        0.12010    0.57380    0.12200    1.000
    C10      C        0.04630    0.53720    0.16310    1.000
    C11      C        0.06990    0.55300    0.21470    1.000
    C12      C        0.18370    0.59500    0.22310    1.000
    C13      C        0.25920    0.62740    0.18120    1.000
    C14      C        0.22750    0.61840    0.13060    1.000
    C15      C        0.89140    0.88520    0.99200    1.000
    C16      C        0.77300    0.00600    0.99270    1.000
    C17      C        0.67030    0.03880    0.95610    1.000
    C18      C        0.68390    0.94220    0.92510    1.000
    C19      C        0.80490    0.82220    0.92680    1.000
    C20      C        0.54200    0.17240    0.95510    1.000
    C21      C        0.52920    0.27120    0.98520    1.000
    C22      C        0.40890    0.39060    0.98240    1.000
    C23      C        0.30170    0.32460    0.92350    1.000
    C24      C        0.42260    0.19880    0.92380    1.000
    C25      C        0.06560    0.68300    0.61320    1.000
    C26      C        0.93210    0.71920    0.65280    1.000
    C27      C        0.78980    0.72880    0.63990    1.000
    C28      C        0.67260    0.75080    0.67810    1.000
    C29      C        0.67970    0.75840    0.72900    1.000
    C30      C        0.82330    0.75260    0.74200    1.000
    C31      C        0.94660    0.73060    0.70440    1.000
    C32      C        0.35090    0.55740    0.43250    1.000
    C33      C        0.30610    0.57380    0.37800    1.000
    C34      C        0.41650    0.53720    0.33690    1.000
    C35      C        0.37710    0.55300    0.28530    1.000
    C36      C        0.22130    0.59500    0.27690    1.000
    C37      C        0.11340    0.62740    0.31880    1.000
    C38      C        0.15410    0.61840    0.36940    1.000
    C39      C        0.22340    0.88520    0.50800    1.000
    C40      C        0.22100    0.00600    0.50730    1.000
    C41      C        0.29090    0.03880    0.54390    1.000
    C42      C        0.37390    0.94220    0.57490    1.000
    C43      C        0.37290    0.82220    0.57320    1.000
    C44      C        0.28560    0.17240    0.54490    1.000
    C45      C        0.19960    0.27120    0.51480    1.000
    C46      C        0.20050    0.39060    0.51760    1.000
    C47      C        0.37370    0.32460    0.57650    1.000
    C48      C        0.37860    0.19880    0.57620    1.000
    C49      C        0.74860    0.31700    0.11320    1.000
    C50      C        0.65130    0.28080    0.15280    1.000
    C51      C        0.51860    0.27120    0.13990    1.000
    C52      C        0.42340    0.24920    0.17810    1.000
    C53      C        0.43810    0.24160    0.22900    1.000
    C54      C        0.57590    0.24740    0.24200    1.000
    C55      C        0.67720    0.26940    0.20440    1.000
    C56      C        0.90830    0.44260    0.93250    1.000
    C57      C        0.87990    0.42620    0.87800    1.000
    C58      C        0.95370    0.46280    0.83690    1.000
    C59      C        0.93010    0.44700    0.78530    1.000
    C60      C        0.81630    0.40500    0.77690    1.000
    C61      C        0.74080    0.37260    0.81880    1.000
    C62      C        0.77250    0.38160    0.86940    1.000
    C63      C        0.10860    0.11480    0.00800    1.000
    C64      C        0.22700    0.99400    0.00730    1.000
    C65      C        0.32970    0.96120    0.04390    1.000
    C66      C        0.31610    0.05780    0.07490    1.000
    C67      C        0.19510    0.17780    0.07320    1.000
    C68      C        0.45800    0.82760    0.04490    1.000
    C69      C        0.47080    0.72880    0.01480    1.000
    C70      C        0.59110    0.60940    0.01760    1.000
    C71      C        0.69830    0.67540    0.07650    1.000
    C72      C        0.57740    0.80120    0.07620    1.000
    C73      C        0.93440    0.31700    0.38680    1.000
    C74      C        0.06790    0.28080    0.34720    1.000
    C75      C        0.21020    0.27120    0.36010    1.000
    C76      C        0.32740    0.24920    0.32190    1.000
    C77      C        0.32030    0.24160    0.27100    1.000
    C78      C        0.17670    0.24740    0.25800    1.000
    C79      C        0.05340    0.26940    0.29560    1.000
    C80      C        0.64910    0.44260    0.56750    1.000
    C81      C        0.69390    0.42620    0.62200    1.000
    C82      C        0.58350    0.46280    0.66310    1.000
    C83      C        0.62290    0.44700    0.71470    1.000
    C84      C        0.77870    0.40500    0.72310    1.000
    C85      C        0.88660    0.37260    0.68120    1.000
    C86      C        0.84590    0.38160    0.63060    1.000
    C87      C        0.77660    0.11480    0.49200    1.000
    C88      C        0.77900    0.99400    0.49270    1.000
    C89      C        0.70910    0.96120    0.45610    1.000
    C90      C        0.62610    0.05780    0.42510    1.000
    C91      C        0.62710    0.17780    0.42680    1.000
    C92      C        0.71440    0.82760    0.45510    1.000
    C93      C        0.80040    0.72880    0.48520    1.000
    C94      C        0.79950    0.60940    0.48240    1.000
    C95      C        0.62630    0.67540    0.42350    1.000
    C96      C        0.62140    0.80120    0.42380    1.000
    N1       N        0.90660    0.79260    0.95930    1.000
    N2       N        0.29240    0.41560    0.95320    1.000
    N3       N        0.30080    0.79260    0.54070    1.000
    N4       N        0.29200    0.41560    0.54680    1.000
    N5       N        0.09340    0.20740    0.04070    1.000
    N6       N        0.70760    0.58440    0.04680    1.000
    N7       N        0.69920    0.20740    0.45930    1.000
    N8       N        0.70800    0.58440    0.45320    1.000
    O1       O        0.26360    0.69540    0.93440    1.000
    O2       O        0.16100    0.63880    0.87350    1.000
    O3       O        0.12230    0.62140    0.03220    1.000
    O4       O        0.04470    0.47280    0.06020    1.000
    O5       O        0.04100    0.69540    0.56560    1.000
    O6       O        0.20020    0.63880    0.62650    1.000
    O7       O        0.25630    0.62140    0.46780    1.000
    O8       O        0.48250    0.47280    0.43980    1.000
    O9       O        0.73640    0.30460    0.06560    1.000
    O10      O        0.83900    0.36120    0.12650    1.000
    O11      O        0.87770    0.37860    0.96780    1.000
    O12      O        0.95530    0.52720    0.93980    1.000
    O13      O        0.95900    0.30460    0.43440    1.000
    O14      O        0.79980    0.36120    0.37350    1.000
    O15      O        0.74370    0.37860    0.53220    1.000
    O16      O        0.51750    0.52720    0.56020    1.000
