data_functionalizedCrystal
_audit_creation_method	'EQeq! by Chris Wilmer'
_symmetry_space_group_name_H-M	'P1'
_symmetry_Int_Tables_number	1
_symmetry_cell_setting	triclinic
loop_
_symmetry_equiv_pos_as_xyz
  x,y,z
_cell_length_a	12.4996
_cell_length_b	17.7008
_cell_length_c	22.3869
_cell_angle_alpha	79.657
_cell_angle_beta	80.452
_cell_angle_gamma	81.326
loop_
_atom_site_label
_atom_site_type_symbol
_atom_site_fract_x
_atom_site_fract_y
_atom_site_fract_z
_atom_site_charge
Mof_Dy	Dy	0.65337	0.02921	0.99792	1.82
Mof_Dy	Dy	0.87118	0.4299	0.51805	1.837
Mof_Dy	Dy	0.34663	0.97079	0.00208	1.82
Mof_Dy	Dy	0.12882	0.5701	0.48195	1.837
Mof_H 	H 	0.7536	0.0073	0.2017	0.071
Mof_H 	H 	0.7116	0.2302	0.1195	0.059
Mof_H 	H 	0.7774	0.0458	0.2915	0.071
Mof_H 	H 	0.7993	0.1086	0.381	0.07
Mof_H 	H 	0.758	0.3785	0.3321	0.055
Mof_H 	H 	0.8206	0.1848	0.4515	0.049
Mof_H 	H 	0.6907	0.8859	0.1253	0.017
Mof_H 	H 	0.4542	0.7466	0.1511	0.028
Mof_H 	H 	0.5303	0.6667	0.2326	0.071
Mof_H 	H 	0.6355	0.5966	0.3176	0.069
Mof_H 	H 	0.7474	0.5514	0.3959	0.003
Mof_H 	H 	0.9311	0.7261	0.3285	0.03
Mof_H 	H 	0.9552	0.6954	0.6366	0.037
Mof_H 	H 	0.7147	0.5604	0.663	0.003
Mof_H 	H 	0.6187	0.6254	0.7423	0.091
Mof_H 	H 	0.542	0.711	0.822	0.093
Mof_H 	H 	0.768	0.8947	0.8302	0.028
Mof_H 	H 	0.4916	0.7993	0.889	0.029
Mof_H 	H 	0.2464	0.9927	0.7983	0.071
Mof_H 	H 	0.2884	0.7698	0.8805	0.059
Mof_H 	H 	0.2226	0.9542	0.7085	0.071
Mof_H 	H 	0.2007	0.8914	0.619	0.07
Mof_H 	H 	0.242	0.6215	0.6679	0.055
Mof_H 	H 	0.1794	0.8152	0.5485	0.049
Mof_H 	H 	0.3093	0.1141	0.8747	0.017
Mof_H 	H 	0.5458	0.2534	0.8489	0.028
Mof_H 	H 	0.4697	0.3333	0.7674	0.071
Mof_H 	H 	0.3645	0.4034	0.6824	0.069
Mof_H 	H 	0.2526	0.4486	0.6041	0.003
Mof_H 	H 	0.0689	0.2739	0.6715	0.03
Mof_H 	H 	0.0448	0.3046	0.3634	0.037
Mof_H 	H 	0.2853	0.4396	0.337	0.003
Mof_H 	H 	0.3813	0.3746	0.2577	0.091
Mof_H 	H 	0.458	0.289	0.178	0.093
Mof_H 	H 	0.232	0.1053	0.1698	0.028
Mof_H 	H 	0.5084	0.2007	0.111	0.029
Mof_C 	C 	0.7241	0.0847	0.0922	0.278
Mof_C 	C 	0.7344	0.1147	0.1508	-0.047
Mof_C 	C 	0.751	0.0596	0.2034	-0.01
Mof_C 	C 	0.7248	0.1933	0.1535	-0.007
Mof_C 	C 	0.7356	0.2145	0.2078	-0.044
Mof_C 	C 	0.7635	0.0825	0.2574	-0.066
Mof_C 	C 	0.7549	0.1613	0.2601	0.029
Mof_C 	C 	0.7678	0.1977	0.3132	0.039
Mof_C 	C 	0.7545	0.2783	0.3001	-0.048
Mof_C 	C 	0.7917	0.1623	0.3707	-0.079
Mof_C 	C 	0.7669	0.3248	0.342	0.003
Mof_C 	C 	0.8043	0.2082	0.4129	0.007
Mof_C 	C 	0.7928	0.2888	0.3983	-0.061
Mof_C 	C 	0.8085	0.3387	0.4449	0.298
Mof_C 	C 	0.5033	0.8759	0.0813	0.447
Mof_C 	C 	0.5633	0.824	0.1293	-0.152
Mof_C 	C 	0.6587	0.8425	0.1455	0.061
Mof_C 	C 	0.5174	0.7585	0.1622	0.056
Mof_C 	C 	0.5623	0.7097	0.2113	-0.114
Mof_C 	C 	0.7034	0.7926	0.1936	-0.088
Mof_C 	C 	0.6573	0.7295	0.2261	0.048
Mof_C 	C 	0.7186	0.6876	0.2785	0.048
Mof_C 	C 	0.8099	0.7246	0.2819	-0.09
Mof_C 	C 	0.6941	0.622	0.3202	-0.118
Mof_C 	C 	0.7619	0.5949	0.3671	0.063
Mof_C 	C 	0.8732	0.6997	0.3266	0.073
Mof_C 	C 	0.8526	0.6349	0.3697	-0.165
Mof_C 	C 	0.9223	0.6054	0.418	0.451
Mof_C 	C 	0.9041	0.5762	0.5919	0.477
Mof_C 	C 	0.8439	0.6198	0.6433	-0.154
Mof_C 	C 	0.8894	0.6805	0.6579	0.059
Mof_C 	C 	0.7442	0.6003	0.6739	0.073
Mof_C 	C 	0.8322	0.7178	0.7057	-0.075
Mof_C 	C 	0.6854	0.6395	0.7216	-0.124
Mof_C 	C 	0.7311	0.7001	0.7365	0.05
Mof_C 	C 	0.6846	0.7491	0.7844	0.053
Mof_C 	C 	0.7506	0.8046	0.7878	-0.076
Mof_C 	C 	0.5877	0.7476	0.8227	-0.123
Mof_C 	C 	0.7216	0.859	0.8286	0.056
Mof_C 	C 	0.5576	0.8011	0.8629	0.067
Mof_C 	C 	0.6229	0.8573	0.8655	-0.144
Mof_C 	C 	0.5848	0.9145	0.9107	0.448
Mof_C 	C 	0.2759	0.9153	0.9078	0.278
Mof_C 	C 	0.2656	0.8853	0.8492	-0.047
Mof_C 	C 	0.249	0.9404	0.7966	-0.01
Mof_C 	C 	0.2752	0.8067	0.8465	-0.007
Mof_C 	C 	0.2644	0.7855	0.7922	-0.044
Mof_C 	C 	0.2365	0.9175	0.7426	-0.066
Mof_C 	C 	0.2451	0.8387	0.7399	0.029
Mof_C 	C 	0.2322	0.8023	0.6868	0.039
Mof_C 	C 	0.2455	0.7217	0.6999	-0.048
Mof_C 	C 	0.2083	0.8377	0.6293	-0.079
Mof_C 	C 	0.2331	0.6752	0.658	0.003
Mof_C 	C 	0.1957	0.7918	0.5871	0.007
Mof_C 	C 	0.2072	0.7112	0.6017	-0.061
Mof_C 	C 	0.1915	0.6613	0.5551	0.298
Mof_C 	C 	0.4967	0.1241	0.9187	0.447
Mof_C 	C 	0.4367	0.176	0.8707	-0.152
Mof_C 	C 	0.3413	0.1575	0.8545	0.061
Mof_C 	C 	0.4826	0.2415	0.8378	0.056
Mof_C 	C 	0.4377	0.2903	0.7887	-0.114
Mof_C 	C 	0.2966	0.2074	0.8064	-0.088
Mof_C 	C 	0.3427	0.2705	0.7739	0.048
Mof_C 	C 	0.2814	0.3124	0.7215	0.048
Mof_C 	C 	0.1901	0.2754	0.7181	-0.09
Mof_C 	C 	0.3059	0.378	0.6798	-0.118
Mof_C 	C 	0.2381	0.4051	0.6329	0.063
Mof_C 	C 	0.1268	0.3003	0.6734	0.073
Mof_C 	C 	0.1474	0.3651	0.6303	-0.165
Mof_C 	C 	0.0777	0.3946	0.582	0.451
Mof_C 	C 	0.0959	0.4238	0.4081	0.477
Mof_C 	C 	0.1561	0.3802	0.3567	-0.154
Mof_C 	C 	0.1106	0.3195	0.3421	0.059
Mof_C 	C 	0.2558	0.3997	0.3261	0.073
Mof_C 	C 	0.1678	0.2822	0.2943	-0.075
Mof_C 	C 	0.3146	0.3605	0.2784	-0.124
Mof_C 	C 	0.2689	0.2999	0.2635	0.05
Mof_C 	C 	0.3154	0.2509	0.2156	0.053
Mof_C 	C 	0.2494	0.1954	0.2122	-0.076
Mof_C 	C 	0.4123	0.2524	0.1773	-0.123
Mof_C 	C 	0.2784	0.141	0.1714	0.056
Mof_C 	C 	0.4424	0.1989	0.1371	0.067
Mof_C 	C 	0.3771	0.1427	0.1345	-0.144
Mof_C 	C 	0.4152	0.0855	0.0893	0.448
Mof_S 	S 	0.72	0.3106	0.22441	0.299
Mof_S 	S 	0.8207	0.8064	0.224	0.337
Mof_S 	S 	0.8737	0.7952	0.7348	0.318
Mof_S 	S 	0.28	0.6894	0.77559	0.299
Mof_S 	S 	0.1793	0.1936	0.776	0.337
Mof_S 	S 	0.1263	0.2048	0.2652	0.318
Mof_O 	O 	0.7129	0.0147	0.096	-0.419
Mof_O 	O 	0.7231	0.1333	0.041	-0.364
Mof_O 	O 	0.8412	0.3039	0.4949	-0.402
Mof_O 	O 	0.7931	0.41	0.4301	-0.423
Mof_O 	O 	0.7996	0.3557	0.185	-0.194
Mof_O 	O 	0.6058	0.3446	0.2276	-0.22
Mof_O 	O 	0.5504	0.9326	0.0506	-0.547
Mof_O 	O 	0.4119	0.8639	0.0732	-0.475
Mof_O 	O 	0.9033	0.545	0.4566	-0.544
Mof_O 	O 	0.0016	0.6423	0.4189	-0.473
Mof_O 	O 	0.7999	0.8747	0.2505	-0.231
Mof_O 	O 	0.9209	0.7961	0.1811	-0.224
Mof_O 	O 	0.9806	0.605	0.558	-0.474
Mof_O 	O 	0.8679	0.5137	0.5897	-0.518
Mof_O 	O 	0.6488	0.9611	0.9153	-0.495
Mof_O 	O 	0.8792	0.8631	0.689	-0.211
Mof_O 	O 	0.9663	0.7675	0.7678	-0.203
Mof_O 	O 	0.4906	0.9078	0.941	-0.467
Mof_O 	O 	0.2871	0.9853	0.904	-0.419
Mof_O 	O 	0.2769	0.8667	0.959	-0.364
Mof_O 	O 	0.1588	0.6961	0.5051	-0.402
Mof_O 	O 	0.2069	0.59	0.5699	-0.423
Mof_O 	O 	0.2004	0.6443	0.815	-0.194
Mof_O 	O 	0.3942	0.6554	0.7724	-0.22
Mof_O 	O 	0.4496	0.0674	0.9494	-0.547
Mof_O 	O 	0.5881	0.1361	0.9268	-0.475
Mof_O 	O 	0.0967	0.455	0.5434	-0.544
Mof_O 	O 	0.9984	0.3577	0.5811	-0.473
Mof_O 	O 	0.2001	0.1253	0.7495	-0.231
Mof_O 	O 	0.0791	0.2039	0.8189	-0.224
Mof_O 	O 	0.0194	0.395	0.442	-0.474
Mof_O 	O 	0.1321	0.4863	0.4103	-0.518
Mof_O 	O 	0.3512	0.0389	0.0847	-0.495
Mof_O 	O 	0.1208	0.1369	0.311	-0.211
Mof_O 	O 	0.0337	0.2325	0.2322	-0.203
Mof_O 	O 	0.5094	0.0922	0.059	-0.467
_end
