# CIF file generated by openbabel 3.1.0, see https://openbabel.org
data_I
_chemical_name_common 'image0'
_cell_length_a 30.275
_cell_length_b 15.289
_cell_length_c 22.421
_cell_angle_alpha 90
_cell_angle_beta 90
_cell_angle_gamma 90
_space_group_name_H-M_alt 'P 1'
_space_group_name_Hall 'P 1'
loop_
    _symmetry_equiv_pos_as_xyz
    x,y,z
loop_
    _atom_site_label
    _atom_site_type_symbol
    _atom_site_fract_x
    _atom_site_fract_y
    _atom_site_fract_z
    _atom_site_occupancy
    Cu1      Cu       0.11968    0.70038    0.83243    1.000
    N1       N        0.11065    0.68980    0.92765    1.000
    O1       O        0.07317    0.61410    0.81180    1.000
    C1       C        0.05972    0.59710    0.75990    1.000
    Cu2      Cu       0.13010    0.69607    0.71461    1.000
    O2       O        0.07534    0.62750    0.71185    1.000
    C2       C        0.02185    0.53380    0.75430    1.000
    N2       N        0.18469    0.84390    0.05009    1.000
    H1       H        0.19580    0.83080    0.01600    1.000
    O3       O        0.17017    0.78289    0.82881    1.000
    N3       N        0.17423    0.01760    0.00950    1.000
    H2       H        0.14870    0.00870    0.02530    1.000
    C3       C        0.98299    0.54050    0.79007    1.000
    O4       O        0.18410    0.76220    0.73147    1.000
    N4       N        0.05899    0.02980    0.90182    1.000
    C4       C        0.97643    0.61040    0.83040    1.000
    H3       H        0.99830    0.65270    0.83460    1.000
    O5       O        0.33654    0.10309    0.83102    1.000
    C5       C        0.93860    0.61670    0.86330    1.000
    H4       H        0.93530    0.66220    0.89050    1.000
    O6       O        0.33782    0.08704    0.73126    1.000
    C6       C        0.90467    0.55470    0.85630    1.000
    H5       H        0.87890    0.55970    0.87850    1.000
    O7       O        0.90444    0.30456    0.78247    1.000
    C7       C        0.90943    0.48750    0.81720    1.000
    H6       H        0.88650    0.44770    0.81250    1.000
    O8       O        0.92068    0.29660    0.68513    1.000
    C8       C        0.94878    0.47690    0.78342    1.000
    C9       C        0.95543    0.40660    0.74245    1.000
    O9       O        0.13375    0.80720    0.11951    1.000
    C10      C        0.92382    0.33010    0.73600    1.000
    O10      O        0.21220    0.07330    0.93166    1.000
    C11      C        0.99307    0.40320    0.70814    1.000
    H7       H        0.99680    0.35770    0.68110    1.000
    C12      C        0.02601    0.46740    0.71347    1.000
    H8       H        0.05080    0.46500    0.68910    1.000
    C13      C        0.19200    0.79540    0.78160    1.000
    C14      C        0.22971    0.85890    0.78578    1.000
    C15      C        0.22149    0.93840    0.81080    1.000
    H9       H        0.19390    0.94930    0.82750    1.000
    C16      C        0.25369    0.00430    0.81190    1.000
    H10      H        0.24740    0.05790    0.82960    1.000
    C17      C        0.29442    0.98970    0.78700    1.000
    C18      C        0.30537    0.90640    0.76310    1.000
    C19      C        0.34831    0.88710    0.74080    1.000
    H11      H        0.36980    0.93060    0.74030    1.000
    C20      C        0.35818    0.80600    0.72020    1.000
    H12      H        0.38640    0.79450    0.70580    1.000
    C21      C        0.32665    0.74010    0.72060    1.000
    H13      H        0.33420    0.68470    0.70700    1.000
    C22      C        0.28467    0.75550    0.74070    1.000
    H14      H        0.26380    0.71080    0.74010    1.000
    C23      C        0.27289    0.83920    0.76231    1.000
    C24      C        0.32588    0.06530    0.78310    1.000
    C25      C        0.08723    0.60520    0.01150    1.000
    H15      H        0.07230    0.55660    0.02620    1.000
    C26      C        0.10733    0.66260    0.05000    1.000
    H16      H        0.10570    0.65380    0.09100    1.000
    C27      C        0.12995    0.73350    0.02702    1.000
    C28      C        0.12989    0.74500    0.96570    1.000
    H17      H        0.14410    0.79390    0.95020    1.000
    C29      C        0.15035    0.79770    0.06935    1.000
    C30      C        0.20470    0.91640    0.08385    1.000
    H18      H        0.18380    0.93520    0.11470    1.000
    C31      C        0.24751    0.88720    0.11440    1.000
    H19      H        0.24130    0.83920    0.14140    1.000
    H20      H        0.26830    0.86680    0.08460    1.000
    C32      C        0.26777    0.96350    0.14920    1.000
    H21      H        0.24830    0.97910    0.18180    1.000
    H22      H        0.29580    0.94510    0.16610    1.000
    C33      C        0.27522    0.04320    0.11000    1.000
    H23      H        0.28570    0.09140    0.13440    1.000
    H24      H        0.29770    0.03010    0.08050    1.000
    C34      C        0.23288    0.07000    0.07870    1.000
    H25      H        0.23880    0.11870    0.05210    1.000
    H26      H        0.21140    0.08910    0.10800    1.000
    C35      C        0.21398    0.99350    0.04300    1.000
    H27      H        0.23650    0.97510    0.01410    1.000
    C36      C        0.17659    0.05320    0.95490    1.000
    C37      C        0.13459    0.06610    0.92140    1.000
    C38      C        0.09634    0.01950    0.93250    1.000
    H28      H        0.09670    0.97860    0.96320    1.000
    C39      C        0.05884    0.08890    0.85840    1.000
    H29      H        0.03280    0.09770    0.83730    1.000
    C40      C        0.09523    0.13780    0.84320    1.000
    H30      H        0.09390    0.17760    0.81180    1.000
    C41      C        0.13384    0.12670    0.87530    1.000
    H31      H        0.15890    0.15930    0.86620    1.000
    C42      C        0.08941    0.62030    0.95110    1.000
    H32      H        0.07570    0.58100    0.92540    1.000
    Cu3      Cu       0.38032    0.29962    0.33243    1.000
    N5       N        0.38935    0.31020    0.42765    1.000
    O11      O        0.42683    0.38590    0.31180    1.000
    C43      C        0.44028    0.40290    0.25990    1.000
    Cu4      Cu       0.36990    0.30393    0.21461    1.000
    O12      O        0.42466    0.37250    0.21185    1.000
    C44      C        0.47815    0.46620    0.25430    1.000
    N6       N        0.31531    0.15610    0.55009    1.000
    H33      H        0.30420    0.16920    0.51600    1.000
    O13      O        0.32983    0.21711    0.32881    1.000
    N7       N        0.32577    0.98240    0.50950    1.000
    H34      H        0.35130    0.99130    0.52530    1.000
    C45      C        0.51701    0.45950    0.29007    1.000
    O14      O        0.31590    0.23780    0.23147    1.000
    N8       N        0.44101    0.97020    0.40182    1.000
    C46      C        0.52357    0.38960    0.33040    1.000
    H35      H        0.50170    0.34730    0.33460    1.000
    O15      O        0.16346    0.89691    0.33102    1.000
    C47      C        0.56140    0.38330    0.36330    1.000
    H36      H        0.56470    0.33780    0.39050    1.000
    O16      O        0.16218    0.91296    0.23126    1.000
    C48      C        0.59533    0.44530    0.35630    1.000
    H37      H        0.62110    0.44030    0.37850    1.000
    O17      O        0.59556    0.69544    0.28247    1.000
    C49      C        0.59057    0.51250    0.31720    1.000
    H38      H        0.61350    0.55230    0.31250    1.000
    O18      O        0.57932    0.70340    0.18513    1.000
    C50      C        0.55122    0.52310    0.28342    1.000
    C51      C        0.54457    0.59340    0.24245    1.000
    O19      O        0.36625    0.19280    0.61951    1.000
    C52      C        0.57618    0.66990    0.23600    1.000
    O20      O        0.28780    0.92670    0.43166    1.000
    C53      C        0.50693    0.59680    0.20814    1.000
    H39      H        0.50320    0.64230    0.18110    1.000
    C54      C        0.47399    0.53260    0.21347    1.000
    H40      H        0.44920    0.53500    0.18910    1.000
    C55      C        0.30800    0.20460    0.28160    1.000
    C56      C        0.27029    0.14110    0.28578    1.000
    C57      C        0.27851    0.06160    0.31080    1.000
    H41      H        0.30610    0.05070    0.32750    1.000
    C58      C        0.24631    0.99570    0.31190    1.000
    H42      H        0.25260    0.94210    0.32960    1.000
    C59      C        0.20558    0.01030    0.28700    1.000
    C60      C        0.19463    0.09360    0.26310    1.000
    C61      C        0.15169    0.11290    0.24080    1.000
    H43      H        0.13020    0.06940    0.24030    1.000
    C62      C        0.14182    0.19400    0.22020    1.000
    H44      H        0.11360    0.20550    0.20580    1.000
    C63      C        0.17335    0.25990    0.22060    1.000
    H45      H        0.16580    0.31530    0.20700    1.000
    C64      C        0.21533    0.24450    0.24070    1.000
    H46      H        0.23620    0.28920    0.24010    1.000
    C65      C        0.22711    0.16080    0.26231    1.000
    C66      C        0.17412    0.93470    0.28310    1.000
    C67      C        0.41277    0.39480    0.51150    1.000
    H47      H        0.42770    0.44340    0.52620    1.000
    C68      C        0.39267    0.33740    0.55000    1.000
    H48      H        0.39430    0.34620    0.59100    1.000
    C69      C        0.37005    0.26650    0.52702    1.000
    C70      C        0.37011    0.25500    0.46570    1.000
    H49      H        0.35590    0.20610    0.45020    1.000
    C71      C        0.34965    0.20230    0.56935    1.000
    C72      C        0.29530    0.08360    0.58385    1.000
    H50      H        0.31620    0.06480    0.61470    1.000
    C73      C        0.25249    0.11280    0.61440    1.000
    H51      H        0.25870    0.16080    0.64140    1.000
    H52      H        0.23170    0.13320    0.58460    1.000
    C74      C        0.23223    0.03650    0.64920    1.000
    H53      H        0.25170    0.02090    0.68180    1.000
    H54      H        0.20420    0.05490    0.66610    1.000
    C75      C        0.22478    0.95680    0.61000    1.000
    H55      H        0.21430    0.90860    0.63440    1.000
    H56      H        0.20230    0.96990    0.58050    1.000
    C76      C        0.26712    0.93000    0.57870    1.000
    H57      H        0.26120    0.88130    0.55210    1.000
    H58      H        0.28860    0.91090    0.60800    1.000
    C77      C        0.28602    0.00650    0.54300    1.000
    H59      H        0.26350    0.02490    0.51410    1.000
    C78      C        0.32341    0.94680    0.45490    1.000
    C79      C        0.36541    0.93390    0.42140    1.000
    C80      C        0.40366    0.98050    0.43250    1.000
    H60      H        0.40330    0.02140    0.46320    1.000
    C81      C        0.44116    0.91110    0.35840    1.000
    H61      H        0.46720    0.90230    0.33730    1.000
    C82      C        0.40477    0.86220    0.34320    1.000
    H62      H        0.40610    0.82240    0.31180    1.000
    C83      C        0.36616    0.87330    0.37530    1.000
    H63      H        0.34110    0.84070    0.36620    1.000
    C84      C        0.41059    0.37970    0.45110    1.000
    H64      H        0.42430    0.41900    0.42540    1.000
    Cu5      Cu       0.88032    0.20038    0.66757    1.000
    N9       N        0.88935    0.18980    0.57235    1.000
    O21      O        0.92683    0.11410    0.68820    1.000
    C85      C        0.94028    0.09710    0.74010    1.000
    Cu6      Cu       0.86990    0.19607    0.78539    1.000
    O22      O        0.92466    0.12750    0.78815    1.000
    C86      C        0.97815    0.03380    0.74570    1.000
    N10      N        0.81531    0.34390    0.44991    1.000
    H65      H        0.80420    0.33080    0.48400    1.000
    O23      O        0.82983    0.28289    0.67119    1.000
    N11      N        0.82577    0.51760    0.49050    1.000
    H66      H        0.85130    0.50870    0.47470    1.000
    C87      C        0.01701    0.04050    0.70993    1.000
    O24      O        0.81590    0.26220    0.76853    1.000
    N12      N        0.94101    0.52980    0.59818    1.000
    C88      C        0.02357    0.11040    0.66960    1.000
    H67      H        0.00170    0.15270    0.66540    1.000
    O25      O        0.66346    0.60309    0.66898    1.000
    C89      C        0.06140    0.11670    0.63670    1.000
    H68      H        0.06470    0.16220    0.60950    1.000
    O26      O        0.66218    0.58704    0.76874    1.000
    C90      C        0.09533    0.05470    0.64370    1.000
    H69      H        0.12110    0.05970    0.62150    1.000
    O27      O        0.09556    0.80456    0.71753    1.000
    C91      C        0.09057    0.98750    0.68280    1.000
    H70      H        0.11350    0.94770    0.68750    1.000
    O28      O        0.07932    0.79660    0.81487    1.000
    C92      C        0.05122    0.97690    0.71658    1.000
    C93      C        0.04457    0.90660    0.75755    1.000
    O29      O        0.86625    0.30720    0.38049    1.000
    C94      C        0.07618    0.83010    0.76400    1.000
    O30      O        0.78780    0.57330    0.56834    1.000
    C95      C        0.00693    0.90320    0.79186    1.000
    H71      H        0.00320    0.85770    0.81890    1.000
    C96      C        0.97399    0.96740    0.78653    1.000
    H72      H        0.94920    0.96500    0.81090    1.000
    C97      C        0.80800    0.29540    0.71840    1.000
    C98      C        0.77029    0.35890    0.71422    1.000
    C99      C        0.77851    0.43840    0.68920    1.000
    H73      H        0.80610    0.44930    0.67250    1.000
    C100     C        0.74631    0.50430    0.68810    1.000
    H74      H        0.75260    0.55790    0.67040    1.000
    C101     C        0.70558    0.48970    0.71300    1.000
    C102     C        0.69463    0.40640    0.73690    1.000
    C103     C        0.65169    0.38710    0.75920    1.000
    H75      H        0.63020    0.43060    0.75970    1.000
    C104     C        0.64182    0.30600    0.77980    1.000
    H76      H        0.61360    0.29450    0.79420    1.000
    C105     C        0.67335    0.24010    0.77940    1.000
    H77      H        0.66580    0.18470    0.79300    1.000
    C106     C        0.71533    0.25550    0.75930    1.000
    H78      H        0.73620    0.21080    0.75990    1.000
    C107     C        0.72711    0.33920    0.73769    1.000
    C108     C        0.67412    0.56530    0.71690    1.000
    C109     C        0.91277    0.10520    0.48850    1.000
    H79      H        0.92770    0.05660    0.47380    1.000
    C110     C        0.89267    0.16260    0.45000    1.000
    H80      H        0.89430    0.15380    0.40900    1.000
    C111     C        0.87005    0.23350    0.47298    1.000
    C112     C        0.87011    0.24500    0.53430    1.000
    H81      H        0.85590    0.29390    0.54980    1.000
    C113     C        0.84965    0.29770    0.43065    1.000
    C114     C        0.79530    0.41640    0.41615    1.000
    H82      H        0.81620    0.43520    0.38530    1.000
    C115     C        0.75249    0.38720    0.38560    1.000
    H83      H        0.75870    0.33920    0.35860    1.000
    H84      H        0.73170    0.36680    0.41540    1.000
    C116     C        0.73223    0.46350    0.35080    1.000
    H85      H        0.75170    0.47910    0.31820    1.000
    H86      H        0.70420    0.44510    0.33390    1.000
    C117     C        0.72478    0.54320    0.39000    1.000
    H87      H        0.71430    0.59140    0.36560    1.000
    H88      H        0.70230    0.53010    0.41950    1.000
    C118     C        0.76712    0.57000    0.42130    1.000
    H89      H        0.76120    0.61870    0.44790    1.000
    H90      H        0.78860    0.58910    0.39200    1.000
    C119     C        0.78602    0.49350    0.45700    1.000
    H91      H        0.76350    0.47510    0.48590    1.000
    C120     C        0.82341    0.55320    0.54510    1.000
    C121     C        0.86541    0.56610    0.57860    1.000
    C122     C        0.90366    0.51950    0.56750    1.000
    H92      H        0.90330    0.47860    0.53680    1.000
    C123     C        0.94116    0.58890    0.64160    1.000
    H93      H        0.96720    0.59770    0.66270    1.000
    C124     C        0.90477    0.63780    0.65680    1.000
    H94      H        0.90610    0.67760    0.68820    1.000
    C125     C        0.86616    0.62670    0.62470    1.000
    H95      H        0.84110    0.65930    0.63380    1.000
    C126     C        0.91059    0.12030    0.54890    1.000
    H96      H        0.92430    0.08100    0.57460    1.000
    Cu7      Cu       0.61968    0.79962    0.16757    1.000
    N13      N        0.61065    0.81020    0.07235    1.000
    O31      O        0.57317    0.88590    0.18820    1.000
    C127     C        0.55972    0.90290    0.24010    1.000
    Cu8      Cu       0.63010    0.80393    0.28539    1.000
    O32      O        0.57534    0.87250    0.28815    1.000
    C128     C        0.52185    0.96620    0.24570    1.000
    N14      N        0.68469    0.65610    0.94991    1.000
    H97      H        0.69580    0.66920    0.98400    1.000
    O33      O        0.67017    0.71711    0.17119    1.000
    N15      N        0.67423    0.48240    0.99050    1.000
    H98      H        0.64870    0.49130    0.97470    1.000
    C129     C        0.48299    0.95950    0.20993    1.000
    O34      O        0.68410    0.73780    0.26853    1.000
    N16      N        0.55899    0.47020    0.09818    1.000
    C130     C        0.47643    0.88960    0.16960    1.000
    H99      H        0.49830    0.84730    0.16540    1.000
    O35      O        0.83654    0.39691    0.16898    1.000
    C131     C        0.43860    0.88330    0.13670    1.000
    H100     H        0.43530    0.83780    0.10950    1.000
    O36      O        0.83782    0.41296    0.26874    1.000
    C132     C        0.40467    0.94530    0.14370    1.000
    H101     H        0.37890    0.94030    0.12150    1.000
    O37      O        0.40444    0.19544    0.21753    1.000
    C133     C        0.40943    0.01250    0.18280    1.000
    H102     H        0.38650    0.05230    0.18750    1.000
    O38      O        0.42068    0.20340    0.31487    1.000
    C134     C        0.44878    0.02310    0.21658    1.000
    C135     C        0.45543    0.09340    0.25755    1.000
    O39      O        0.63375    0.69280    0.88049    1.000
    C136     C        0.42382    0.16990    0.26400    1.000
    O40      O        0.71220    0.42670    0.06834    1.000
    C137     C        0.49307    0.09680    0.29186    1.000
    H103     H        0.49680    0.14230    0.31890    1.000
    C138     C        0.52601    0.03260    0.28653    1.000
    H104     H        0.55080    0.03500    0.31090    1.000
    C139     C        0.69200    0.70460    0.21840    1.000
    C140     C        0.72971    0.64110    0.21422    1.000
    C141     C        0.72149    0.56160    0.18920    1.000
    H105     H        0.69390    0.55070    0.17250    1.000
    C142     C        0.75369    0.49570    0.18810    1.000
    H106     H        0.74740    0.44210    0.17040    1.000
    C143     C        0.79442    0.51030    0.21300    1.000
    C144     C        0.80537    0.59360    0.23690    1.000
    C145     C        0.84831    0.61290    0.25920    1.000
    H107     H        0.86980    0.56940    0.25970    1.000
    C146     C        0.85818    0.69400    0.27980    1.000
    H108     H        0.88640    0.70550    0.29420    1.000
    C147     C        0.82665    0.75990    0.27940    1.000
    H109     H        0.83420    0.81530    0.29300    1.000
    C148     C        0.78467    0.74450    0.25930    1.000
    H110     H        0.76380    0.78920    0.25990    1.000
    C149     C        0.77289    0.66080    0.23769    1.000
    C150     C        0.82588    0.43470    0.21690    1.000
    C151     C        0.58723    0.89480    0.98850    1.000
    H111     H        0.57230    0.94340    0.97380    1.000
    C152     C        0.60733    0.83740    0.95000    1.000
    H112     H        0.60570    0.84620    0.90900    1.000
    C153     C        0.62995    0.76650    0.97298    1.000
    C154     C        0.62989    0.75500    0.03430    1.000
    H113     H        0.64410    0.70610    0.04980    1.000
    C155     C        0.65035    0.70230    0.93065    1.000
    C156     C        0.70470    0.58360    0.91615    1.000
    H114     H        0.68380    0.56480    0.88530    1.000
    C157     C        0.74751    0.61280    0.88560    1.000
    H115     H        0.74130    0.66080    0.85860    1.000
    H116     H        0.76830    0.63320    0.91540    1.000
    C158     C        0.76777    0.53650    0.85080    1.000
    H117     H        0.74830    0.52090    0.81820    1.000
    H118     H        0.79580    0.55490    0.83390    1.000
    C159     C        0.77522    0.45680    0.89000    1.000
    H119     H        0.78570    0.40860    0.86560    1.000
    H120     H        0.79770    0.46990    0.91950    1.000
    C160     C        0.73288    0.43000    0.92130    1.000
    H121     H        0.73880    0.38130    0.94790    1.000
    H122     H        0.71140    0.41090    0.89200    1.000
    C161     C        0.71398    0.50650    0.95700    1.000
    H123     H        0.73650    0.52490    0.98590    1.000
    C162     C        0.67659    0.44680    0.04510    1.000
    C163     C        0.63459    0.43390    0.07860    1.000
    C164     C        0.59634    0.48050    0.06750    1.000
    H124     H        0.59670    0.52140    0.03680    1.000
    C165     C        0.55884    0.41110    0.14160    1.000
    H125     H        0.53280    0.40230    0.16270    1.000
    C166     C        0.59523    0.36220    0.15680    1.000
    H126     H        0.59390    0.32240    0.18820    1.000
    C167     C        0.63384    0.37330    0.12470    1.000
    H127     H        0.65890    0.34070    0.13380    1.000
    C168     C        0.58941    0.87970    0.04890    1.000
    H128     H        0.57570    0.91900    0.07460    1.000
    Cu9      Cu       0.88032    0.29962    0.16757    1.000
    N17      N        0.88935    0.31020    0.07235    1.000
    O41      O        0.92683    0.38590    0.18820    1.000
    C169     C        0.94028    0.40290    0.24010    1.000
    Cu10     Cu       0.86990    0.30393    0.28539    1.000
    O42      O        0.92466    0.37250    0.28815    1.000
    C170     C        0.97815    0.46620    0.24570    1.000
    N18      N        0.81531    0.15610    0.94991    1.000
    H129     H        0.80420    0.16920    0.98400    1.000
    O43      O        0.82983    0.21711    0.17119    1.000
    N19      N        0.82577    0.98240    0.99050    1.000
    H130     H        0.85130    0.99130    0.97470    1.000
    C171     C        0.01701    0.45950    0.20993    1.000
    O44      O        0.81590    0.23780    0.26853    1.000
    N20      N        0.94101    0.97020    0.09818    1.000
    C172     C        0.02357    0.38960    0.16960    1.000
    H131     H        0.00170    0.34730    0.16540    1.000
    O45      O        0.66346    0.89691    0.16898    1.000
    C173     C        0.06140    0.38330    0.13670    1.000
    H132     H        0.06470    0.33780    0.10950    1.000
    O46      O        0.66218    0.91296    0.26874    1.000
    C174     C        0.09533    0.44530    0.14370    1.000
    H133     H        0.12110    0.44030    0.12150    1.000
    O47      O        0.09556    0.69544    0.21753    1.000
    C175     C        0.09057    0.51250    0.18280    1.000
    H134     H        0.11350    0.55230    0.18750    1.000
    O48      O        0.07932    0.70340    0.31487    1.000
    C176     C        0.05122    0.52310    0.21658    1.000
    C177     C        0.04457    0.59340    0.25755    1.000
    O49      O        0.86625    0.19280    0.88049    1.000
    C178     C        0.07618    0.66990    0.26400    1.000
    O50      O        0.78780    0.92670    0.06834    1.000
    C179     C        0.00693    0.59680    0.29186    1.000
    H135     H        0.00320    0.64230    0.31890    1.000
    C180     C        0.97399    0.53260    0.28653    1.000
    H136     H        0.94920    0.53500    0.31090    1.000
    C181     C        0.80800    0.20460    0.21840    1.000
    C182     C        0.77029    0.14110    0.21422    1.000
    C183     C        0.77851    0.06160    0.18920    1.000
    H137     H        0.80610    0.05070    0.17250    1.000
    C184     C        0.74631    0.99570    0.18810    1.000
    H138     H        0.75260    0.94210    0.17040    1.000
    C185     C        0.70558    0.01030    0.21300    1.000
    C186     C        0.69463    0.09360    0.23690    1.000
    C187     C        0.65169    0.11290    0.25920    1.000
    H139     H        0.63020    0.06940    0.25970    1.000
    C188     C        0.64182    0.19400    0.27980    1.000
    H140     H        0.61360    0.20550    0.29420    1.000
    C189     C        0.67335    0.25990    0.27940    1.000
    H141     H        0.66580    0.31530    0.29300    1.000
    C190     C        0.71533    0.24450    0.25930    1.000
    H142     H        0.73620    0.28920    0.25990    1.000
    C191     C        0.72711    0.16080    0.23769    1.000
    C192     C        0.67412    0.93470    0.21690    1.000
    C193     C        0.91277    0.39480    0.98850    1.000
    H143     H        0.92770    0.44340    0.97380    1.000
    C194     C        0.89267    0.33740    0.95000    1.000
    H144     H        0.89430    0.34620    0.90900    1.000
    C195     C        0.87005    0.26650    0.97298    1.000
    C196     C        0.87011    0.25500    0.03430    1.000
    H145     H        0.85590    0.20610    0.04980    1.000
    C197     C        0.84965    0.20230    0.93065    1.000
    C198     C        0.79530    0.08360    0.91615    1.000
    H146     H        0.81620    0.06480    0.88530    1.000
    C199     C        0.75249    0.11280    0.88560    1.000
    H147     H        0.75870    0.16080    0.85860    1.000
    H148     H        0.73170    0.13320    0.91540    1.000
    C200     C        0.73223    0.03650    0.85080    1.000
    H149     H        0.75170    0.02090    0.81820    1.000
    H150     H        0.70420    0.05490    0.83390    1.000
    C201     C        0.72478    0.95680    0.89000    1.000
    H151     H        0.71430    0.90860    0.86560    1.000
    H152     H        0.70230    0.96990    0.91950    1.000
    C202     C        0.76712    0.93000    0.92130    1.000
    H153     H        0.76120    0.88130    0.94790    1.000
    H154     H        0.78860    0.91090    0.89200    1.000
    C203     C        0.78602    0.00650    0.95700    1.000
    H155     H        0.76350    0.02490    0.98590    1.000
    C204     C        0.82341    0.94680    0.04510    1.000
    C205     C        0.86541    0.93390    0.07860    1.000
    C206     C        0.90366    0.98050    0.06750    1.000
    H156     H        0.90330    0.02140    0.03680    1.000
    C207     C        0.94116    0.91110    0.14160    1.000
    H157     H        0.96720    0.90230    0.16270    1.000
    C208     C        0.90477    0.86220    0.15680    1.000
    H158     H        0.90610    0.82240    0.18820    1.000
    C209     C        0.86616    0.87330    0.12470    1.000
    H159     H        0.84110    0.84070    0.13380    1.000
    C210     C        0.91059    0.37970    0.04890    1.000
    H160     H        0.92430    0.41900    0.07460    1.000
    Cu11     Cu       0.61968    0.70038    0.66757    1.000
    N21      N        0.61065    0.68980    0.57235    1.000
    O51      O        0.57317    0.61410    0.68820    1.000
    C211     C        0.55972    0.59710    0.74010    1.000
    Cu12     Cu       0.63010    0.69607    0.78539    1.000
    O52      O        0.57534    0.62750    0.78815    1.000
    C212     C        0.52185    0.53380    0.74570    1.000
    N22      N        0.68469    0.84390    0.44991    1.000
    H161     H        0.69580    0.83080    0.48400    1.000
    O53      O        0.67017    0.78289    0.67119    1.000
    N23      N        0.67423    0.01760    0.49050    1.000
    H162     H        0.64870    0.00870    0.47470    1.000
    C213     C        0.48299    0.54050    0.70993    1.000
    O54      O        0.68410    0.76220    0.76853    1.000
    N24      N        0.55899    0.02980    0.59818    1.000
    C214     C        0.47643    0.61040    0.66960    1.000
    H163     H        0.49830    0.65270    0.66540    1.000
    O55      O        0.83654    0.10309    0.66898    1.000
    C215     C        0.43860    0.61670    0.63670    1.000
    H164     H        0.43530    0.66220    0.60950    1.000
    O56      O        0.83782    0.08704    0.76874    1.000
    C216     C        0.40467    0.55470    0.64370    1.000
    H165     H        0.37890    0.55970    0.62150    1.000
    O57      O        0.40444    0.30456    0.71753    1.000
    C217     C        0.40943    0.48750    0.68280    1.000
    H166     H        0.38650    0.44770    0.68750    1.000
    O58      O        0.42068    0.29660    0.81487    1.000
    C218     C        0.44878    0.47690    0.71658    1.000
    C219     C        0.45543    0.40660    0.75755    1.000
    O59      O        0.63375    0.80720    0.38049    1.000
    C220     C        0.42382    0.33010    0.76400    1.000
    O60      O        0.71220    0.07330    0.56834    1.000
    C221     C        0.49307    0.40320    0.79186    1.000
    H167     H        0.49680    0.35770    0.81890    1.000
    C222     C        0.52601    0.46740    0.78653    1.000
    H168     H        0.55080    0.46500    0.81090    1.000
    C223     C        0.69200    0.79540    0.71840    1.000
    C224     C        0.72971    0.85890    0.71422    1.000
    C225     C        0.72149    0.93840    0.68920    1.000
    H169     H        0.69390    0.94930    0.67250    1.000
    C226     C        0.75369    0.00430    0.68810    1.000
    H170     H        0.74740    0.05790    0.67040    1.000
    C227     C        0.79442    0.98970    0.71300    1.000
    C228     C        0.80537    0.90640    0.73690    1.000
    C229     C        0.84831    0.88710    0.75920    1.000
    H171     H        0.86980    0.93060    0.75970    1.000
    C230     C        0.85818    0.80600    0.77980    1.000
    H172     H        0.88640    0.79450    0.79420    1.000
    C231     C        0.82665    0.74010    0.77940    1.000
    H173     H        0.83420    0.68470    0.79300    1.000
    C232     C        0.78467    0.75550    0.75930    1.000
    H174     H        0.76380    0.71080    0.75990    1.000
    C233     C        0.77289    0.83920    0.73769    1.000
    C234     C        0.82588    0.06530    0.71690    1.000
    C235     C        0.58723    0.60520    0.48850    1.000
    H175     H        0.57230    0.55660    0.47380    1.000
    C236     C        0.60733    0.66260    0.45000    1.000
    H176     H        0.60570    0.65380    0.40900    1.000
    C237     C        0.62995    0.73350    0.47298    1.000
    C238     C        0.62989    0.74500    0.53430    1.000
    H177     H        0.64410    0.79390    0.54980    1.000
    C239     C        0.65035    0.79770    0.43065    1.000
    C240     C        0.70470    0.91640    0.41615    1.000
    H178     H        0.68380    0.93520    0.38530    1.000
    C241     C        0.74751    0.88720    0.38560    1.000
    H179     H        0.74130    0.83920    0.35860    1.000
    H180     H        0.76830    0.86680    0.41540    1.000
    C242     C        0.76777    0.96350    0.35080    1.000
    H181     H        0.74830    0.97910    0.31820    1.000
    H182     H        0.79580    0.94510    0.33390    1.000
    C243     C        0.77522    0.04320    0.39000    1.000
    H183     H        0.78570    0.09140    0.36560    1.000
    H184     H        0.79770    0.03010    0.41950    1.000
    C244     C        0.73288    0.07000    0.42130    1.000
    H185     H        0.73880    0.11870    0.44790    1.000
    H186     H        0.71140    0.08910    0.39200    1.000
    C245     C        0.71398    0.99350    0.45700    1.000
    H187     H        0.73650    0.97510    0.48590    1.000
    C246     C        0.67659    0.05320    0.54510    1.000
    C247     C        0.63459    0.06610    0.57860    1.000
    C248     C        0.59634    0.01950    0.56750    1.000
    H188     H        0.59670    0.97860    0.53680    1.000
    C249     C        0.55884    0.08890    0.64160    1.000
    H189     H        0.53280    0.09770    0.66270    1.000
    C250     C        0.59523    0.13780    0.65680    1.000
    H190     H        0.59390    0.17760    0.68820    1.000
    C251     C        0.63384    0.12670    0.62470    1.000
    H191     H        0.65890    0.15930    0.63380    1.000
    C252     C        0.58941    0.62030    0.54890    1.000
    H192     H        0.57570    0.58100    0.57460    1.000
    Cu13     Cu       0.11968    0.79962    0.33243    1.000
    N25      N        0.11065    0.81020    0.42765    1.000
    O61      O        0.07317    0.88590    0.31180    1.000
    C253     C        0.05972    0.90290    0.25990    1.000
    Cu14     Cu       0.13010    0.80393    0.21461    1.000
    O62      O        0.07534    0.87250    0.21185    1.000
    C254     C        0.02185    0.96620    0.25430    1.000
    N26      N        0.18469    0.65610    0.55009    1.000
    H193     H        0.19580    0.66920    0.51600    1.000
    O63      O        0.17017    0.71711    0.32881    1.000
    N27      N        0.17423    0.48240    0.50950    1.000
    H194     H        0.14870    0.49130    0.52530    1.000
    C255     C        0.98299    0.95950    0.29007    1.000
    O64      O        0.18410    0.73780    0.23147    1.000
    N28      N        0.05899    0.47020    0.40182    1.000
    C256     C        0.97643    0.88960    0.33040    1.000
    H195     H        0.99830    0.84730    0.33460    1.000
    O65      O        0.33654    0.39691    0.33102    1.000
    C257     C        0.93860    0.88330    0.36330    1.000
    H196     H        0.93530    0.83780    0.39050    1.000
    O66      O        0.33782    0.41296    0.23126    1.000
    C258     C        0.90467    0.94530    0.35630    1.000
    H197     H        0.87890    0.94030    0.37850    1.000
    O67      O        0.90444    0.19544    0.28247    1.000
    C259     C        0.90943    0.01250    0.31720    1.000
    H198     H        0.88650    0.05230    0.31250    1.000
    O68      O        0.92068    0.20340    0.18513    1.000
    C260     C        0.94878    0.02310    0.28342    1.000
    C261     C        0.95543    0.09340    0.24245    1.000
    O69      O        0.13375    0.69280    0.61951    1.000
    C262     C        0.92382    0.16990    0.23600    1.000
    O70      O        0.21220    0.42670    0.43166    1.000
    C263     C        0.99307    0.09680    0.20814    1.000
    H199     H        0.99680    0.14230    0.18110    1.000
    C264     C        0.02601    0.03260    0.21347    1.000
    H200     H        0.05080    0.03500    0.18910    1.000
    C265     C        0.19200    0.70460    0.28160    1.000
    C266     C        0.22971    0.64110    0.28578    1.000
    C267     C        0.22149    0.56160    0.31080    1.000
    H201     H        0.19390    0.55070    0.32750    1.000
    C268     C        0.25369    0.49570    0.31190    1.000
    H202     H        0.24740    0.44210    0.32960    1.000
    C269     C        0.29442    0.51030    0.28700    1.000
    C270     C        0.30537    0.59360    0.26310    1.000
    C271     C        0.34831    0.61290    0.24080    1.000
    H203     H        0.36980    0.56940    0.24030    1.000
    C272     C        0.35818    0.69400    0.22020    1.000
    H204     H        0.38640    0.70550    0.20580    1.000
    C273     C        0.32665    0.75990    0.22060    1.000
    H205     H        0.33420    0.81530    0.20700    1.000
    C274     C        0.28467    0.74450    0.24070    1.000
    H206     H        0.26380    0.78920    0.24010    1.000
    C275     C        0.27289    0.66080    0.26231    1.000
    C276     C        0.32588    0.43470    0.28310    1.000
    C277     C        0.08723    0.89480    0.51150    1.000
    H207     H        0.07230    0.94340    0.52620    1.000
    C278     C        0.10733    0.83740    0.55000    1.000
    H208     H        0.10570    0.84620    0.59100    1.000
    C279     C        0.12995    0.76650    0.52702    1.000
    C280     C        0.12989    0.75500    0.46570    1.000
    H209     H        0.14410    0.70610    0.45020    1.000
    C281     C        0.15035    0.70230    0.56935    1.000
    C282     C        0.20470    0.58360    0.58385    1.000
    H210     H        0.18380    0.56480    0.61470    1.000
    C283     C        0.24751    0.61280    0.61440    1.000
    H211     H        0.24130    0.66080    0.64140    1.000
    H212     H        0.26830    0.63320    0.58460    1.000
    C284     C        0.26777    0.53650    0.64920    1.000
    H213     H        0.24830    0.52090    0.68180    1.000
    H214     H        0.29580    0.55490    0.66610    1.000
    C285     C        0.27522    0.45680    0.61000    1.000
    H215     H        0.28570    0.40860    0.63440    1.000
    H216     H        0.29770    0.46990    0.58050    1.000
    C286     C        0.23288    0.43000    0.57870    1.000
    H217     H        0.23880    0.38130    0.55210    1.000
    H218     H        0.21140    0.41090    0.60800    1.000
    C287     C        0.21398    0.50650    0.54300    1.000
    H219     H        0.23650    0.52490    0.51410    1.000
    C288     C        0.17659    0.44680    0.45490    1.000
    C289     C        0.13459    0.43390    0.42140    1.000
    C290     C        0.09634    0.48050    0.43250    1.000
    H220     H        0.09670    0.52140    0.46320    1.000
    C291     C        0.05884    0.41110    0.35840    1.000
    H221     H        0.03280    0.40230    0.33730    1.000
    C292     C        0.09523    0.36220    0.34320    1.000
    H222     H        0.09390    0.32240    0.31180    1.000
    C293     C        0.13384    0.37330    0.37530    1.000
    H223     H        0.15890    0.34070    0.36620    1.000
    C294     C        0.08941    0.87970    0.45110    1.000
    H224     H        0.07570    0.91900    0.42540    1.000
    Cu15     Cu       0.38032    0.20038    0.83243    1.000
    N29      N        0.38935    0.18980    0.92765    1.000
    O71      O        0.42683    0.11410    0.81180    1.000
    C295     C        0.44028    0.09710    0.75990    1.000
    Cu16     Cu       0.36990    0.19607    0.71461    1.000
    O72      O        0.42466    0.12750    0.71185    1.000
    C296     C        0.47815    0.03380    0.75430    1.000
    N30      N        0.31531    0.34390    0.05009    1.000
    H225     H        0.30420    0.33080    0.01600    1.000
    O73      O        0.32983    0.28289    0.82881    1.000
    N31      N        0.32577    0.51760    0.00950    1.000
    H226     H        0.35130    0.50870    0.02530    1.000
    C297     C        0.51701    0.04050    0.79007    1.000
    O74      O        0.31590    0.26220    0.73147    1.000
    N32      N        0.44101    0.52980    0.90182    1.000
    C298     C        0.52357    0.11040    0.83040    1.000
    H227     H        0.50170    0.15270    0.83460    1.000
    O75      O        0.16346    0.60309    0.83102    1.000
    C299     C        0.56140    0.11670    0.86330    1.000
    H228     H        0.56470    0.16220    0.89050    1.000
    O76      O        0.16218    0.58704    0.73126    1.000
    C300     C        0.59533    0.05470    0.85630    1.000
    H229     H        0.62110    0.05970    0.87850    1.000
    O77      O        0.59556    0.80456    0.78247    1.000
    C301     C        0.59057    0.98750    0.81720    1.000
    H230     H        0.61350    0.94770    0.81250    1.000
    O78      O        0.57932    0.79660    0.68513    1.000
    C302     C        0.55122    0.97690    0.78342    1.000
    C303     C        0.54457    0.90660    0.74245    1.000
    O79      O        0.36625    0.30720    0.11951    1.000
    C304     C        0.57618    0.83010    0.73600    1.000
    O80      O        0.28780    0.57330    0.93166    1.000
    C305     C        0.50693    0.90320    0.70814    1.000
    H231     H        0.50320    0.85770    0.68110    1.000
    C306     C        0.47399    0.96740    0.71347    1.000
    H232     H        0.44920    0.96500    0.68910    1.000
    C307     C        0.30800    0.29540    0.78160    1.000
    C308     C        0.27029    0.35890    0.78578    1.000
    C309     C        0.27851    0.43840    0.81080    1.000
    H233     H        0.30610    0.44930    0.82750    1.000
    C310     C        0.24631    0.50430    0.81190    1.000
    H234     H        0.25260    0.55790    0.82960    1.000
    C311     C        0.20558    0.48970    0.78700    1.000
    C312     C        0.19463    0.40640    0.76310    1.000
    C313     C        0.15169    0.38710    0.74080    1.000
    H235     H        0.13020    0.43060    0.74030    1.000
    C314     C        0.14182    0.30600    0.72020    1.000
    H236     H        0.11360    0.29450    0.70580    1.000
    C315     C        0.17335    0.24010    0.72060    1.000
    H237     H        0.16580    0.18470    0.70700    1.000
    C316     C        0.21533    0.25550    0.74070    1.000
    H238     H        0.23620    0.21080    0.74010    1.000
    C317     C        0.22711    0.33920    0.76231    1.000
    C318     C        0.17412    0.56530    0.78310    1.000
    C319     C        0.41277    0.10520    0.01150    1.000
    H239     H        0.42770    0.05660    0.02620    1.000
    C320     C        0.39267    0.16260    0.05000    1.000
    H240     H        0.39430    0.15380    0.09100    1.000
    C321     C        0.37005    0.23350    0.02702    1.000
    C322     C        0.37011    0.24500    0.96570    1.000
    H241     H        0.35590    0.29390    0.95020    1.000
    C323     C        0.34965    0.29770    0.06935    1.000
    C324     C        0.29530    0.41640    0.08385    1.000
    H242     H        0.31620    0.43520    0.11470    1.000
    C325     C        0.25249    0.38720    0.11440    1.000
    H243     H        0.25870    0.33920    0.14140    1.000
    H244     H        0.23170    0.36680    0.08460    1.000
    C326     C        0.23223    0.46350    0.14920    1.000
    H245     H        0.25170    0.47910    0.18180    1.000
    H246     H        0.20420    0.44510    0.16610    1.000
    C327     C        0.22478    0.54320    0.11000    1.000
    H247     H        0.21430    0.59140    0.13440    1.000
    H248     H        0.20230    0.53010    0.08050    1.000
    C328     C        0.26712    0.57000    0.07870    1.000
    H249     H        0.26120    0.61870    0.05210    1.000
    H250     H        0.28860    0.58910    0.10800    1.000
    C329     C        0.28602    0.49350    0.04300    1.000
    H251     H        0.26350    0.47510    0.01410    1.000
    C330     C        0.32341    0.55320    0.95490    1.000
    C331     C        0.36541    0.56610    0.92140    1.000
    C332     C        0.40366    0.51950    0.93250    1.000
    H252     H        0.40330    0.47860    0.96320    1.000
    C333     C        0.44116    0.58890    0.85840    1.000
    H253     H        0.46720    0.59770    0.83730    1.000
    C334     C        0.40477    0.63780    0.84320    1.000
    H254     H        0.40610    0.67760    0.81180    1.000
    C335     C        0.36616    0.62670    0.87530    1.000
    H255     H        0.34110    0.65930    0.86620    1.000
    C336     C        0.41059    0.12030    0.95110    1.000
    H256     H        0.42430    0.08100    0.92540    1.000
