data_functionalizedCrystal
_audit_creation_method	'EQeq! by Chris Wilmer'
_symmetry_space_group_name_H-M	'P1'
_symmetry_Int_Tables_number	1
_symmetry_cell_setting	triclinic
loop_
_symmetry_equiv_pos_as_xyz
  x,y,z
_cell_length_a	18.5037
_cell_length_b	18.5037
_cell_length_c	18.5037
_cell_angle_alpha	101.739
_cell_angle_beta	101.739
_cell_angle_gamma	101.739
loop_
_atom_site_label
_atom_site_type_symbol
_atom_site_fract_x
_atom_site_fract_y
_atom_site_fract_z
_atom_site_charge
Mof_Zn	Zn	0.35421	0.14693	0.74919	1.25
Mof_Zn	Zn	0.25081	0.64579	0.85307	1.25
Mof_Zn	Zn	0.64579	0.85307	0.25081	1.25
Mof_Zn	Zn	0.74919	0.35421	0.14693	1.25
Mof_Zn	Zn	0.14693	0.74919	0.35421	1.25
Mof_Zn	Zn	0.85307	0.25081	0.64579	1.25
Mof_H 	H 	0.974	0.1559	0.2088	0.101
Mof_H 	H 	0.3207	0.8707	0.0234	0.11
Mof_H 	H 	0.5902	0.0995	0.8705	0.055
Mof_H 	H 	0.2782	0.6562	0.1442	0.053
Mof_H 	H 	0.1209	0.7798	0.7681	0.048
Mof_H 	H 	0.0077	0.1428	0.7427	0.046
Mof_H 	H 	0.9062	0.2939	0.8017	0.02
Mof_H 	H 	0.6562	0.1442	0.2782	0.053
Mof_H 	H 	0.8791	0.2202	0.2319	0.048
Mof_H 	H 	0.1295	0.4098	0.9005	0.055
Mof_H 	H 	0.0641	0.8306	0.0243	0.095
Mof_H 	H 	0.8558	0.7218	0.3438	0.053
Mof_H 	H 	0.0938	0.7061	0.1983	0.02
Mof_H 	H 	0.1293	0.9766	0.6793	0.11
Mof_H 	H 	0.1694	0.9757	0.9359	0.095
Mof_H 	H 	0.14	0.0881	0.9822	0.057
Mof_H 	H 	0.0995	0.8705	0.5902	0.055
Mof_H 	H 	0.1559	0.2088	0.974	0.101
Mof_H 	H 	0.8707	0.0234	0.3207	0.11
Mof_H 	H 	0.7061	0.1983	0.0938	0.02
Mof_H 	H 	0.2319	0.8791	0.2202	0.048
Mof_H 	H 	0.7912	0.026	0.8441	0.101
Mof_H 	H 	0.9005	0.1295	0.4098	0.055
Mof_H 	H 	0.2573	0.9923	0.8572	0.046
Mof_H 	H 	0.86	0.9119	0.0178	0.057
Mof_H 	H 	0.7218	0.3438	0.8558	0.053
Mof_H 	H 	0.8572	0.2573	0.9923	0.046
Mof_H 	H 	0.8441	0.7912	0.026	0.101
Mof_H 	H 	0.9923	0.8572	0.2573	0.046
Mof_H 	H 	0.9757	0.9359	0.1694	0.095
Mof_H 	H 	0.2088	0.974	0.1559	0.101
Mof_H 	H 	0.9822	0.14	0.0881	0.057
Mof_H 	H 	0.0243	0.0641	0.8306	0.095
Mof_H 	H 	0.4098	0.9005	0.1295	0.055
Mof_H 	H 	0.7681	0.1209	0.7798	0.048
Mof_H 	H 	0.3214	0.4242	0.8361	0.07
Mof_H 	H 	0.2202	0.2319	0.8791	0.048
Mof_H 	H 	0.9766	0.6793	0.1293	0.11
Mof_H 	H 	0.7427	0.0077	0.1428	0.046
Mof_H 	H 	0.026	0.8441	0.7912	0.101
Mof_H 	H 	0.8361	0.3214	0.4242	0.07
Mof_H 	H 	0.1983	0.0938	0.7061	0.02
Mof_H 	H 	0.4242	0.8361	0.3214	0.07
Mof_H 	H 	0.8306	0.0243	0.0641	0.095
Mof_H 	H 	0.7798	0.7681	0.1209	0.048
Mof_H 	H 	0.3438	0.8558	0.7218	0.053
Mof_H 	H 	0.6793	0.1293	0.9766	0.11
Mof_H 	H 	0.1442	0.2782	0.6562	0.053
Mof_H 	H 	0.9359	0.1694	0.9757	0.095
Mof_H 	H 	0.0178	0.86	0.9119	0.057
Mof_H 	H 	0.8705	0.5902	0.0995	0.055
Mof_H 	H 	0.0234	0.3207	0.8707	0.11
Mof_H 	H 	0.8017	0.9062	0.2939	0.02
Mof_H 	H 	0.9119	0.0178	0.86	0.057
Mof_H 	H 	0.5758	0.1639	0.6786	0.07
Mof_H 	H 	0.0881	0.9822	0.14	0.057
Mof_H 	H 	0.1428	0.7427	0.0077	0.046
Mof_H 	H 	0.1639	0.6786	0.5758	0.07
Mof_H 	H 	0.2939	0.8017	0.9062	0.02
Mof_H 	H 	0.6786	0.5758	0.1639	0.07
Mof_C 	C 	0.27166	0.9187	0.09959	0.128
Mof_C 	C 	0.3585	0.7511	0.7983	0.357
Mof_C 	C 	0.02942	0.28556	0.89943	-0.187
Mof_C 	C 	0.16471	0.12486	0.70383	0.022
Mof_C 	C 	0.28556	0.89943	0.02942	-0.187
Mof_C 	C 	0.1394	0.776	0.4918	0.347
Mof_C 	C 	0.2183	0.69909	0.06803	-0.102
Mof_C 	C 	0.24989	0.92061	0.96747	0.128
Mof_C 	C 	0.95306	0.82033	0.01757	0.099
Mof_C 	C 	0.61232	0.10981	0.83162	0.006
Mof_C 	C 	0.11176	0.08074	0.01756	-0.067
Mof_C 	C 	0.91926	0.98244	0.88824	-0.067
Mof_C 	C 	0.81175	0.32443	0.81762	-0.122
Mof_C 	C 	0.28203	0.8772	0.22192	0.008
Mof_C 	C 	0.05186	0.15393	0.72599	0.02
Mof_C 	C 	0.2489	0.2017	0.6415	0.357
Mof_C 	C 	0.93197	0.7817	0.30091	-0.102
Mof_C 	C 	0.09959	0.27166	0.9187	0.128
Mof_C 	C 	0.02257	0.8045	0.03814	-0.173
Mof_C 	C 	0.776	0.4918	0.1394	0.347
Mof_C 	C 	0.71797	0.1228	0.77808	0.008
Mof_C 	C 	0.08074	0.01756	0.11176	-0.067
Mof_C 	C 	0.75011	0.07939	0.03253	0.128
Mof_C 	C 	0.60334	0.14876	0.7181	0.032
Mof_C 	C 	0.38768	0.89019	0.16838	0.006
Mof_C 	C 	0.8606	0.224	0.5082	0.347
Mof_C 	C 	0.92061	0.96747	0.24989	0.128
Mof_C 	C 	0.87514	0.29617	0.83529	0.022
Mof_C 	C 	0.6615	0.7147	0.1702	0.353
Mof_C 	C 	0.89019	0.16838	0.38768	0.006
Mof_C 	C 	0.96032	0.10837	0.21871	-0.173
Mof_C 	C 	0.96747	0.24989	0.92061	0.128
Mof_C 	C 	0.81762	0.81175	0.32443	-0.122
Mof_C 	C 	0.01202	0.26628	0.6902	0.373
Mof_C 	C 	0.72865	0.09997	0.10559	-0.055
Mof_C 	C 	0.0813	0.90041	0.72834	0.128
Mof_C 	C 	0.67416	0.13329	0.23485	0.056
Mof_C 	C 	0.2017	0.6415	0.2489	0.357
Mof_C 	C 	0.71968	0.67763	0.14489	-0.083
Mof_C 	C 	0.68525	0.1031	0.83545	-0.042
Mof_C 	C 	0.26628	0.6902	0.01202	0.373
Mof_C 	C 	0.85124	0.2819	0.39666	0.032
Mof_C 	C 	0.97268	0.9411	0.87631	0.007
Mof_C 	C 	0.1228	0.77808	0.71797	0.008
Mof_C 	C 	0.76515	0.32584	0.86671	0.056
Mof_C 	C 	0.8969	0.16455	0.31475	-0.042
Mof_C 	C 	0.10981	0.83162	0.61232	0.006
Mof_C 	C 	0.0589	0.12369	0.02732	0.007
Mof_C 	C 	0.6415	0.2489	0.2017	0.357
Mof_C 	C 	0.10837	0.21871	0.96032	-0.173
Mof_C 	C 	0.31475	0.8969	0.16455	-0.042
Mof_C 	C 	0.77338	0.57039	0.13093	-0.073
Mof_C 	C 	0.72599	0.05186	0.15393	0.02
Mof_C 	C 	0.89163	0.78129	0.03968	-0.173
Mof_C 	C 	0.3385	0.2853	0.8298	0.353
Mof_C 	C 	0.1955	0.96186	0.97743	-0.173
Mof_C 	C 	0.16838	0.38768	0.89019	0.006
Mof_C 	C 	0.84607	0.27401	0.94814	0.02
Mof_C 	C 	0.16455	0.31475	0.8969	-0.042
Mof_C 	C 	0.224	0.5082	0.8606	0.347
Mof_C 	C 	0.12486	0.70383	0.16471	0.022
Mof_C 	C 	0.15393	0.72599	0.05186	0.02
Mof_C 	C 	0.67763	0.14489	0.71968	-0.083
Mof_C 	C 	0.10559	0.72865	0.09997	-0.055
Mof_C 	C 	0.14876	0.7181	0.60334	0.032
Mof_C 	C 	0.83162	0.61232	0.10981	0.006
Mof_C 	C 	0.5082	0.8606	0.224	0.347
Mof_C 	C 	0.30091	0.93197	0.7817	-0.102
Mof_C 	C 	0.69909	0.06803	0.2183	-0.102
Mof_C 	C 	0.02732	0.0589	0.12369	0.007
Mof_C 	C 	0.98244	0.88824	0.91926	-0.067
Mof_C 	C 	0.83529	0.87514	0.29617	0.022
Mof_C 	C 	0.14489	0.71968	0.67763	-0.083
Mof_C 	C 	0.04694	0.17967	0.98243	0.099
Mof_C 	C 	0.86907	0.22662	0.42961	-0.073
Mof_C 	C 	0.98243	0.04694	0.17967	0.099
Mof_C 	C 	0.2853	0.8298	0.3385	0.353
Mof_C 	C 	0.82033	0.01757	0.95306	0.099
Mof_C 	C 	0.8298	0.3385	0.2853	0.353
Mof_C 	C 	0.88824	0.91926	0.98244	-0.067
Mof_C 	C 	0.13329	0.23485	0.67416	0.056
Mof_C 	C 	0.22192	0.28203	0.8772	0.008
Mof_C 	C 	0.97743	0.1955	0.96186	-0.173
Mof_C 	C 	0.29617	0.83529	0.87514	0.022
Mof_C 	C 	0.9411	0.87631	0.97268	0.007
Mof_C 	C 	0.42961	0.86907	0.22662	-0.073
Mof_C 	C 	0.4918	0.1394	0.776	0.347
Mof_C 	C 	0.10057	0.97058	0.71444	-0.187
Mof_C 	C 	0.27135	0.90003	0.89441	-0.055
Mof_C 	C 	0.89441	0.27135	0.90003	-0.055
Mof_C 	C 	0.57039	0.13093	0.77338	-0.073
Mof_C 	C 	0.71444	0.10057	0.97058	-0.187
Mof_C 	C 	0.18238	0.18825	0.67557	-0.122
Mof_C 	C 	0.98798	0.73372	0.3098	0.373
Mof_C 	C 	0.83545	0.68525	0.1031	-0.042
Mof_C 	C 	0.03814	0.02257	0.8045	-0.173
Mof_C 	C 	0.7181	0.60334	0.14876	0.032
Mof_C 	C 	0.06803	0.2183	0.69909	-0.102
Mof_C 	C 	0.03253	0.75011	0.07939	0.128
Mof_C 	C 	0.32584	0.86671	0.76515	0.056
Mof_C 	C 	0.28032	0.32237	0.85511	-0.083
Mof_C 	C 	0.18825	0.67557	0.18238	-0.122
Mof_C 	C 	0.12369	0.02732	0.0589	0.007
Mof_C 	C 	0.87631	0.97268	0.9411	0.007
Mof_C 	C 	0.09997	0.10559	0.72865	-0.055
Mof_C 	C 	0.39666	0.85124	0.2819	0.032
Mof_C 	C 	0.8772	0.22192	0.28203	0.008
Mof_C 	C 	0.32443	0.81762	0.81175	-0.122
Mof_C 	C 	0.8045	0.03814	0.02257	-0.173
Mof_C 	C 	0.17967	0.98243	0.04694	0.099
Mof_C 	C 	0.1031	0.83545	0.68525	-0.042
Mof_C 	C 	0.32237	0.85511	0.28032	-0.083
Mof_C 	C 	0.94814	0.84607	0.27401	0.02
Mof_C 	C 	0.21871	0.96032	0.10837	-0.173
Mof_C 	C 	0.86671	0.76515	0.32584	0.056
Mof_C 	C 	0.2819	0.39666	0.85124	0.032
Mof_C 	C 	0.9187	0.09959	0.27166	0.128
Mof_C 	C 	0.78129	0.03968	0.89163	-0.173
Mof_C 	C 	0.7817	0.30091	0.93197	-0.102
Mof_C 	C 	0.07939	0.03253	0.75011	0.128
Mof_C 	C 	0.27401	0.94814	0.84607	0.02
Mof_C 	C 	0.3098	0.98798	0.73372	0.373
Mof_C 	C 	0.7983	0.3585	0.7511	0.357
Mof_C 	C 	0.97058	0.71444	0.10057	-0.187
Mof_C 	C 	0.7511	0.7983	0.3585	0.357
Mof_C 	C 	0.01756	0.11176	0.08074	-0.067
Mof_C 	C 	0.90003	0.89441	0.27135	-0.055
Mof_C 	C 	0.85511	0.28032	0.32237	-0.083
Mof_C 	C 	0.22662	0.42961	0.86907	-0.073
Mof_C 	C 	0.89943	0.02942	0.28556	-0.187
Mof_C 	C 	0.90041	0.72834	0.0813	0.128
Mof_C 	C 	0.6902	0.01202	0.26628	0.373
Mof_C 	C 	0.23485	0.67416	0.13329	0.056
Mof_C 	C 	0.72834	0.0813	0.90041	0.128
Mof_C 	C 	0.77808	0.71797	0.1228	0.008
Mof_C 	C 	0.67557	0.18238	0.18825	-0.122
Mof_C 	C 	0.7147	0.1702	0.6615	0.353
Mof_C 	C 	0.96186	0.97743	0.1955	-0.173
Mof_C 	C 	0.13093	0.77338	0.57039	-0.073
Mof_C 	C 	0.70383	0.16471	0.12486	0.022
Mof_C 	C 	0.03968	0.89163	0.78129	-0.173
Mof_C 	C 	0.01757	0.95306	0.82033	0.099
Mof_C 	C 	0.73372	0.3098	0.98798	0.373
Mof_C 	C 	0.1702	0.6615	0.7147	0.353
Mof_O 	O 	0.3222	0.81051	0.38989	-0.259
Mof_O 	O 	0.16927	0.65672	0.3016	-0.413
Mof_O 	O 	0.81051	0.38989	0.3222	-0.259
Mof_O 	O 	0.76128	0.30074	0.05168	-0.451
Mof_O 	O 	0.45171	0.15023	0.71877	-0.399
Mof_O 	O 	0.34328	0.6984	0.83073	-0.413
Mof_O 	O 	0.33025	0.97088	0.67517	-0.267
Mof_O 	O 	0.97088	0.67517	0.33025	-0.267
Mof_O 	O 	0.1697	0.66875	0.7837	-0.429
Mof_O 	O 	0.86907	0.17005	0.53361	-0.331
Mof_O 	O 	0.2163	0.8303	0.33125	-0.429
Mof_O 	O 	0.65672	0.3016	0.16927	-0.413
Mof_O 	O 	0.54829	0.84977	0.28123	-0.399
Mof_O 	O 	0.33125	0.2163	0.8303	-0.429
Mof_O 	O 	0.71877	0.45171	0.15023	-0.399
Mof_O 	O 	0.67517	0.33025	0.97088	-0.267
Mof_O 	O 	0.30074	0.05168	0.76128	-0.451
Mof_O 	O 	0.59794	0.24908	0.24478	-0.215
Mof_O 	O 	0.69926	0.94832	0.23872	-0.451
Mof_O 	O 	0.75522	0.40206	0.75092	-0.215
Mof_O 	O 	0.15023	0.71877	0.45171	-0.399
Mof_O 	O 	0.66875	0.7837	0.1697	-0.429
Mof_O 	O 	0.53361	0.86907	0.17005	-0.331
Mof_O 	O 	0.02912	0.32483	0.66975	-0.267
Mof_O 	O 	0.24908	0.24478	0.59794	-0.215
Mof_O 	O 	0.82995	0.46639	0.13093	-0.331
Mof_O 	O 	0.23872	0.69926	0.94832	-0.451
Mof_O 	O 	0.05168	0.76128	0.30074	-0.451
Mof_O 	O 	0.3016	0.16927	0.65672	-0.413
Mof_O 	O 	0.94832	0.23872	0.69926	-0.451
Mof_O 	O 	0.17005	0.53361	0.86907	-0.331
Mof_O 	O 	0.24478	0.59794	0.24908	-0.215
Mof_O 	O 	0.7837	0.1697	0.66875	-0.429
Mof_O 	O 	0.28123	0.54829	0.84977	-0.399
Mof_O 	O 	0.38989	0.3222	0.81051	-0.259
Mof_O 	O 	0.61011	0.6778	0.18949	-0.259
Mof_O 	O 	0.84977	0.28123	0.54829	-0.399
Mof_O 	O 	0.8303	0.33125	0.2163	-0.429
Mof_O 	O 	0.6778	0.18949	0.61011	-0.259
Mof_O 	O 	0.18949	0.61011	0.6778	-0.259
Mof_O 	O 	0.32483	0.66975	0.02912	-0.267
Mof_O 	O 	0.75092	0.75522	0.40206	-0.215
Mof_O 	O 	0.66975	0.02912	0.32483	-0.267
Mof_O 	O 	0.46639	0.13093	0.82995	-0.331
Mof_O 	O 	0.83073	0.34328	0.6984	-0.413
Mof_O 	O 	0.40206	0.75092	0.75522	-0.215
Mof_O 	O 	0.13093	0.82995	0.46639	-0.331
Mof_O 	O 	0.6984	0.83073	0.34328	-0.413
_end
