data_functionalizedCrystal
_audit_creation_method	'EQeq! by Chris Wilmer'
_symmetry_space_group_name_H-M	'P1'
_symmetry_Int_Tables_number	1
_symmetry_cell_setting	triclinic
loop_
_symmetry_equiv_pos_as_xyz
  x,y,z
_cell_length_a	50.5711
_cell_length_b	50.5711
_cell_length_c	50.5711
_cell_angle_alpha	90
_cell_angle_beta	90
_cell_angle_gamma	90
loop_
_atom_site_label
_atom_site_type_symbol
_atom_site_fract_x
_atom_site_fract_y
_atom_site_fract_z
_atom_site_charge
Mof_O 	O 	0.8935	0.0975	0.0334	-0.588
Mof_O 	O 	0.9289	0.1195	0.0215	-0.379
Mof_O 	O 	0.0159	0.0585	0.0901	-0.265
Mof_O 	O 	0.83872	0.10572	0.01137	-0.491
Mof_O 	O 	0.84459	0.12651	0.97403	-0.523
Mof_O 	O 	0.71556	0.07789	0.00322	-0.29
Mof_O 	O 	0.63798	0.06984	0.03935	-0.304
Mof_C 	C 	0.917	0.1027	0.0353	0.406
Mof_C 	C 	0.9336	0.087	0.0534	-0.177
Mof_C 	C 	0.9613	0.0879	0.0558	0.141
Mof_C 	C 	0.8299	0.1147	0.9898	0.354
Mof_C 	C 	0.8014	0.1101	0.9818	-0.14
Mof_C 	C 	0.7838	0.0981	0.0001	0.123
Mof_O 	O 	0.8935	0.5975	0.5334	-0.588
Mof_O 	O 	0.9289	0.6195	0.5215	-0.379
Mof_O 	O 	0.0159	0.5585	0.5901	-0.265
Mof_O 	O 	0.83872	0.60572	0.51137	-0.49
Mof_O 	O 	0.84459	0.62651	0.47403	-0.524
Mof_O 	O 	0.71556	0.57789	0.50322	-0.29
Mof_O 	O 	0.63798	0.56984	0.53935	-0.304
Mof_C 	C 	0.917	0.6027	0.5353	0.406
Mof_C 	C 	0.9336	0.587	0.5534	-0.177
Mof_C 	C 	0.9613	0.5879	0.5558	0.142
Mof_C 	C 	0.8299	0.6147	0.4898	0.353
Mof_C 	C 	0.8014	0.6101	0.4818	-0.142
Mof_C 	C 	0.7838	0.5981	0.5001	0.127
Mof_O 	O 	0.3935	0.0975	0.5334	-0.588
Mof_O 	O 	0.4289	0.1195	0.5215	-0.379
Mof_O 	O 	0.5159	0.0585	0.5901	-0.265
Mof_O 	O 	0.33872	0.10572	0.51137	-0.49
Mof_O 	O 	0.34459	0.12651	0.47403	-0.524
Mof_O 	O 	0.21556	0.07789	0.50322	-0.29
Mof_O 	O 	0.13798	0.06984	0.53935	-0.304
Mof_C 	C 	0.417	0.1027	0.5353	0.406
Mof_C 	C 	0.4336	0.087	0.5534	-0.177
Mof_C 	C 	0.4613	0.0879	0.5558	0.142
Mof_C 	C 	0.3299	0.1147	0.4898	0.353
Mof_C 	C 	0.3014	0.1101	0.4818	-0.142
Mof_C 	C 	0.2838	0.0981	0.5001	0.127
Mof_O 	O 	0.3935	0.5975	0.0334	-0.588
Mof_O 	O 	0.4289	0.6195	0.0215	-0.38
Mof_O 	O 	0.5159	0.5585	0.0901	-0.265
Mof_O 	O 	0.33872	0.60572	0.01137	-0.491
Mof_O 	O 	0.34459	0.62651	0.97403	-0.523
Mof_O 	O 	0.21556	0.57789	0.00322	-0.29
Mof_O 	O 	0.13798	0.56984	0.03935	-0.304
Mof_C 	C 	0.417	0.6027	0.0353	0.406
Mof_C 	C 	0.4336	0.587	0.0534	-0.177
Mof_C 	C 	0.4613	0.5879	0.0558	0.141
Mof_C 	C 	0.3299	0.6147	0.9898	0.354
Mof_C 	C 	0.3014	0.6101	0.9818	-0.14
Mof_C 	C 	0.2838	0.5981	0.0001	0.123
Mof_O 	O 	0.8565	0.1525	0.5334	-0.588
Mof_O 	O 	0.8211	0.1305	0.5215	-0.379
Mof_O 	O 	0.7341	0.1915	0.5901	-0.265
Mof_O 	O 	0.91128	0.14428	0.51137	-0.49
Mof_O 	O 	0.90541	0.12349	0.47403	-0.523
Mof_O 	O 	0.03444	0.17211	0.50322	-0.289
Mof_O 	O 	0.11202	0.18016	0.53935	-0.304
Mof_C 	C 	0.833	0.1473	0.5353	0.406
Mof_C 	C 	0.8164	0.163	0.5534	-0.177
Mof_C 	C 	0.7887	0.1621	0.5558	0.142
Mof_C 	C 	0.9201	0.1353	0.4898	0.352
Mof_C 	C 	0.9486	0.1399	0.4818	-0.141
Mof_C 	C 	0.9662	0.1519	0.5001	0.126
Mof_O 	O 	0.8565	0.6525	0.0334	-0.588
Mof_O 	O 	0.8211	0.6305	0.0215	-0.38
Mof_O 	O 	0.7341	0.6915	0.0901	-0.265
Mof_O 	O 	0.91128	0.64428	0.01137	-0.491
Mof_O 	O 	0.90541	0.62349	0.97403	-0.523
Mof_O 	O 	0.03444	0.67211	0.00322	-0.289
Mof_O 	O 	0.11202	0.68016	0.03935	-0.304
Mof_C 	C 	0.833	0.6473	0.0353	0.406
Mof_C 	C 	0.8164	0.663	0.0534	-0.177
Mof_C 	C 	0.7887	0.6621	0.0558	0.141
Mof_C 	C 	0.9201	0.6353	0.9898	0.354
Mof_C 	C 	0.9486	0.6399	0.9818	-0.139
Mof_C 	C 	0.9662	0.6519	0.0001	0.122
Mof_O 	O 	0.3565	0.1525	0.0334	-0.588
Mof_O 	O 	0.3211	0.1305	0.0215	-0.38
Mof_O 	O 	0.2341	0.1915	0.0901	-0.265
Mof_O 	O 	0.41128	0.14428	0.01137	-0.491
Mof_O 	O 	0.40541	0.12349	0.97403	-0.523
Mof_O 	O 	0.53444	0.17211	0.00322	-0.29
Mof_O 	O 	0.61202	0.18016	0.03935	-0.304
Mof_C 	C 	0.333	0.1473	0.0353	0.406
Mof_C 	C 	0.3164	0.163	0.0534	-0.177
Mof_C 	C 	0.2887	0.1621	0.0558	0.141
Mof_C 	C 	0.4201	0.1353	0.9898	0.354
Mof_C 	C 	0.4486	0.1399	0.9818	-0.14
Mof_C 	C 	0.4662	0.1519	0.0001	0.123
Mof_O 	O 	0.3565	0.6525	0.5334	-0.588
Mof_O 	O 	0.3211	0.6305	0.5215	-0.379
Mof_O 	O 	0.2341	0.6915	0.5901	-0.265
Mof_O 	O 	0.41128	0.64428	0.51137	-0.49
Mof_O 	O 	0.40541	0.62349	0.47403	-0.524
Mof_O 	O 	0.53444	0.67211	0.50322	-0.29
Mof_O 	O 	0.61202	0.68016	0.53935	-0.304
Mof_C 	C 	0.333	0.6473	0.5353	0.406
Mof_C 	C 	0.3164	0.663	0.5534	-0.177
Mof_C 	C 	0.2887	0.6621	0.5558	0.142
Mof_C 	C 	0.4201	0.6353	0.4898	0.353
Mof_C 	C 	0.4486	0.6399	0.4818	-0.142
Mof_C 	C 	0.4662	0.6519	0.5001	0.127
Mof_O 	O 	0.3565	0.5975	0.7166	-0.588
Mof_O 	O 	0.3211	0.6195	0.7285	-0.379
Mof_O 	O 	0.2341	0.5585	0.6599	-0.265
Mof_O 	O 	0.41128	0.60572	0.73863	-0.49
Mof_O 	O 	0.40541	0.62651	0.77597	-0.524
Mof_O 	O 	0.53444	0.57789	0.74678	-0.29
Mof_O 	O 	0.61202	0.56984	0.71065	-0.304
Mof_C 	C 	0.333	0.6027	0.7147	0.406
Mof_C 	C 	0.3164	0.587	0.6966	-0.177
Mof_C 	C 	0.2887	0.5879	0.6942	0.142
Mof_C 	C 	0.4201	0.6147	0.7602	0.353
Mof_C 	C 	0.4486	0.6101	0.7682	-0.142
Mof_C 	C 	0.4662	0.5981	0.7499	0.127
Mof_O 	O 	0.3565	0.0975	0.2166	-0.588
Mof_O 	O 	0.3211	0.1195	0.2285	-0.379
Mof_O 	O 	0.2341	0.0585	0.1599	-0.265
Mof_O 	O 	0.41128	0.10572	0.23863	-0.49
Mof_O 	O 	0.40541	0.12651	0.27597	-0.524
Mof_O 	O 	0.53444	0.07789	0.24678	-0.29
Mof_O 	O 	0.61202	0.06984	0.21065	-0.304
Mof_C 	C 	0.333	0.1027	0.2147	0.406
Mof_C 	C 	0.3164	0.087	0.1966	-0.176
Mof_C 	C 	0.2887	0.0879	0.1942	0.143
Mof_C 	C 	0.4201	0.1147	0.2602	0.354
Mof_C 	C 	0.4486	0.1101	0.2682	-0.141
Mof_C 	C 	0.4662	0.0981	0.2499	0.128
Mof_O 	O 	0.8565	0.5975	0.2166	-0.587
Mof_O 	O 	0.8211	0.6195	0.2285	-0.378
Mof_O 	O 	0.7341	0.5585	0.1599	-0.264
Mof_O 	O 	0.91128	0.60572	0.23863	-0.489
Mof_O 	O 	0.90541	0.62651	0.27597	-0.522
Mof_O 	O 	0.03444	0.57789	0.24678	-0.288
Mof_O 	O 	0.11202	0.56984	0.21065	-0.303
Mof_C 	C 	0.833	0.6027	0.2147	0.407
Mof_C 	C 	0.8164	0.587	0.1966	-0.176
Mof_C 	C 	0.7887	0.5879	0.1942	0.143
Mof_C 	C 	0.9201	0.6147	0.2602	0.353
Mof_C 	C 	0.9486	0.6101	0.2682	-0.14
Mof_C 	C 	0.9662	0.5981	0.2499	0.127
Mof_O 	O 	0.8565	0.0975	0.7166	-0.587
Mof_O 	O 	0.8211	0.1195	0.7285	-0.378
Mof_O 	O 	0.7341	0.0585	0.6599	-0.264
Mof_O 	O 	0.91128	0.10572	0.73863	-0.489
Mof_O 	O 	0.90541	0.12651	0.77597	-0.522
Mof_O 	O 	0.03444	0.07789	0.74678	-0.288
Mof_O 	O 	0.11202	0.06984	0.71065	-0.303
Mof_C 	C 	0.833	0.1027	0.7147	0.407
Mof_C 	C 	0.8164	0.087	0.6966	-0.176
Mof_C 	C 	0.7887	0.0879	0.6942	0.143
Mof_C 	C 	0.9201	0.1147	0.7602	0.353
Mof_C 	C 	0.9486	0.1101	0.7682	-0.14
Mof_C 	C 	0.9662	0.0981	0.7499	0.127
Mof_O 	O 	0.3935	0.6525	0.2166	-0.587
Mof_O 	O 	0.4289	0.6305	0.2285	-0.378
Mof_O 	O 	0.5159	0.6915	0.1599	-0.264
Mof_O 	O 	0.33872	0.64428	0.23863	-0.489
Mof_O 	O 	0.34459	0.62349	0.27597	-0.523
Mof_O 	O 	0.21556	0.67211	0.24678	-0.289
Mof_O 	O 	0.13798	0.68016	0.21065	-0.303
Mof_C 	C 	0.417	0.6473	0.2147	0.407
Mof_C 	C 	0.4336	0.663	0.1966	-0.176
Mof_C 	C 	0.4613	0.6621	0.1942	0.143
Mof_C 	C 	0.3299	0.6353	0.2602	0.354
Mof_C 	C 	0.3014	0.6399	0.2682	-0.141
Mof_C 	C 	0.2838	0.6519	0.2499	0.128
Mof_O 	O 	0.3935	0.1525	0.7166	-0.587
Mof_O 	O 	0.4289	0.1305	0.7285	-0.378
Mof_O 	O 	0.5159	0.1915	0.6599	-0.264
Mof_O 	O 	0.33872	0.14428	0.73863	-0.489
Mof_O 	O 	0.34459	0.12349	0.77597	-0.523
Mof_O 	O 	0.21556	0.17211	0.74678	-0.289
Mof_O 	O 	0.13798	0.18016	0.71065	-0.303
Mof_C 	C 	0.417	0.1473	0.7147	0.407
Mof_C 	C 	0.4336	0.163	0.6966	-0.176
Mof_C 	C 	0.4613	0.1621	0.6942	0.143
Mof_C 	C 	0.3299	0.1353	0.7602	0.354
Mof_C 	C 	0.3014	0.1399	0.7682	-0.141
Mof_C 	C 	0.2838	0.1519	0.7499	0.128
Mof_O 	O 	0.8935	0.6525	0.7166	-0.587
Mof_O 	O 	0.9289	0.6305	0.7285	-0.378
Mof_O 	O 	0.0159	0.6915	0.6599	-0.264
Mof_O 	O 	0.83872	0.64428	0.73863	-0.489
Mof_O 	O 	0.84459	0.62349	0.77597	-0.523
Mof_O 	O 	0.71556	0.67211	0.74678	-0.289
Mof_O 	O 	0.63798	0.68016	0.71065	-0.303
Mof_C 	C 	0.917	0.6473	0.7147	0.407
Mof_C 	C 	0.9336	0.663	0.6966	-0.176
Mof_C 	C 	0.9613	0.6621	0.6942	0.143
Mof_C 	C 	0.8299	0.6353	0.7602	0.354
Mof_C 	C 	0.8014	0.6399	0.7682	-0.141
Mof_C 	C 	0.7838	0.6519	0.7499	0.128
Mof_O 	O 	0.8935	0.1525	0.2166	-0.587
Mof_O 	O 	0.9289	0.1305	0.2285	-0.378
Mof_O 	O 	0.0159	0.1915	0.1599	-0.264
Mof_O 	O 	0.83872	0.14428	0.23863	-0.489
Mof_O 	O 	0.84459	0.12349	0.27597	-0.523
Mof_O 	O 	0.71556	0.17211	0.24678	-0.289
Mof_O 	O 	0.63798	0.18016	0.21065	-0.303
Mof_C 	C 	0.917	0.1473	0.2147	0.407
Mof_C 	C 	0.9336	0.163	0.1966	-0.176
Mof_C 	C 	0.9613	0.1621	0.1942	0.143
Mof_C 	C 	0.8299	0.1353	0.2602	0.354
Mof_C 	C 	0.8014	0.1399	0.2682	-0.141
Mof_C 	C 	0.7838	0.1519	0.2499	0.128
Mof_O 	O 	0.0334	0.8935	0.0975	-0.587
Mof_O 	O 	0.0215	0.9289	0.1195	-0.378
Mof_O 	O 	0.0901	0.0159	0.0585	-0.264
Mof_O 	O 	0.01137	0.83872	0.10572	-0.49
Mof_O 	O 	0.97403	0.84459	0.12651	-0.522
Mof_O 	O 	0.00322	0.71556	0.07789	-0.289
Mof_O 	O 	0.03935	0.63798	0.06984	-0.303
Mof_C 	C 	0.0353	0.917	0.1027	0.407
Mof_C 	C 	0.0534	0.9336	0.087	-0.176
Mof_C 	C 	0.0558	0.9613	0.0879	0.142
Mof_C 	C 	0.9898	0.8299	0.1147	0.355
Mof_C 	C 	0.9818	0.8014	0.1101	-0.139
Mof_C 	C 	0.0001	0.7838	0.0981	0.124
Mof_O 	O 	0.0334	0.3935	0.5975	-0.587
Mof_O 	O 	0.0215	0.4289	0.6195	-0.379
Mof_O 	O 	0.0901	0.5159	0.5585	-0.264
Mof_O 	O 	0.01137	0.33872	0.60572	-0.49
Mof_O 	O 	0.97403	0.34459	0.62651	-0.522
Mof_O 	O 	0.00322	0.21556	0.57789	-0.289
Mof_O 	O 	0.03935	0.13798	0.56984	-0.303
Mof_C 	C 	0.0353	0.417	0.6027	0.407
Mof_C 	C 	0.0534	0.4336	0.587	-0.176
Mof_C 	C 	0.0558	0.4613	0.5879	0.142
Mof_C 	C 	0.9898	0.3299	0.6147	0.355
Mof_C 	C 	0.9818	0.3014	0.6101	-0.139
Mof_C 	C 	0.0001	0.2838	0.5981	0.124
Mof_O 	O 	0.5334	0.8935	0.5975	-0.587
Mof_O 	O 	0.5215	0.9289	0.6195	-0.378
Mof_O 	O 	0.5901	0.0159	0.5585	-0.264
Mof_O 	O 	0.51137	0.83872	0.60572	-0.489
Mof_O 	O 	0.47403	0.84459	0.62651	-0.523
Mof_O 	O 	0.50322	0.71556	0.57789	-0.289
Mof_O 	O 	0.53935	0.63798	0.56984	-0.303
Mof_C 	C 	0.5353	0.917	0.6027	0.407
Mof_C 	C 	0.5534	0.9336	0.587	-0.176
Mof_C 	C 	0.5558	0.9613	0.5879	0.143
Mof_C 	C 	0.4898	0.8299	0.6147	0.354
Mof_C 	C 	0.4818	0.8014	0.6101	-0.141
Mof_C 	C 	0.5001	0.7838	0.5981	0.128
Mof_O 	O 	0.5334	0.3935	0.0975	-0.587
Mof_O 	O 	0.5215	0.4289	0.1195	-0.378
Mof_O 	O 	0.5901	0.5159	0.0585	-0.264
Mof_O 	O 	0.51137	0.33872	0.10572	-0.489
Mof_O 	O 	0.47403	0.34459	0.12651	-0.523
Mof_O 	O 	0.50322	0.21556	0.07789	-0.289
Mof_O 	O 	0.53935	0.13798	0.06984	-0.303
Mof_C 	C 	0.5353	0.417	0.1027	0.407
Mof_C 	C 	0.5534	0.4336	0.087	-0.176
Mof_C 	C 	0.5558	0.4613	0.0879	0.143
Mof_C 	C 	0.4898	0.3299	0.1147	0.354
Mof_C 	C 	0.4818	0.3014	0.1101	-0.141
Mof_C 	C 	0.5001	0.2838	0.0981	0.128
Mof_O 	O 	0.5334	0.8565	0.1525	-0.587
Mof_O 	O 	0.5215	0.8211	0.1305	-0.378
Mof_O 	O 	0.5901	0.7341	0.1915	-0.264
Mof_O 	O 	0.51137	0.91128	0.14428	-0.489
Mof_O 	O 	0.47403	0.90541	0.12349	-0.522
Mof_O 	O 	0.50322	0.03444	0.17211	-0.288
Mof_O 	O 	0.53935	0.11202	0.18016	-0.303
Mof_C 	C 	0.5353	0.833	0.1473	0.407
Mof_C 	C 	0.5534	0.8164	0.163	-0.176
Mof_C 	C 	0.5558	0.7887	0.1621	0.143
Mof_C 	C 	0.4898	0.9201	0.1353	0.353
Mof_C 	C 	0.4818	0.9486	0.1399	-0.14
Mof_C 	C 	0.5001	0.9662	0.1519	0.127
Mof_O 	O 	0.5334	0.3565	0.6525	-0.587
Mof_O 	O 	0.5215	0.3211	0.6305	-0.378
Mof_O 	O 	0.5901	0.2341	0.6915	-0.264
Mof_O 	O 	0.51137	0.41128	0.64428	-0.489
Mof_O 	O 	0.47403	0.40541	0.62349	-0.523
Mof_O 	O 	0.50322	0.53444	0.67211	-0.289
Mof_O 	O 	0.53935	0.61202	0.68016	-0.303
Mof_C 	C 	0.5353	0.333	0.6473	0.407
Mof_C 	C 	0.5534	0.3164	0.663	-0.176
Mof_C 	C 	0.5558	0.2887	0.6621	0.143
Mof_C 	C 	0.4898	0.4201	0.6353	0.354
Mof_C 	C 	0.4818	0.4486	0.6399	-0.141
Mof_C 	C 	0.5001	0.4662	0.6519	0.128
Mof_O 	O 	0.0334	0.8565	0.6525	-0.587
Mof_O 	O 	0.0215	0.8211	0.6305	-0.379
Mof_O 	O 	0.0901	0.7341	0.6915	-0.264
Mof_O 	O 	0.01137	0.91128	0.64428	-0.49
Mof_O 	O 	0.97403	0.90541	0.62349	-0.522
Mof_O 	O 	0.00322	0.03444	0.67211	-0.288
Mof_O 	O 	0.03935	0.11202	0.68016	-0.303
Mof_C 	C 	0.0353	0.833	0.6473	0.407
Mof_C 	C 	0.0534	0.8164	0.663	-0.176
Mof_C 	C 	0.0558	0.7887	0.6621	0.142
Mof_C 	C 	0.9898	0.9201	0.6353	0.355
Mof_C 	C 	0.9818	0.9486	0.6399	-0.138
Mof_C 	C 	0.0001	0.9662	0.6519	0.123
Mof_O 	O 	0.0334	0.3565	0.1525	-0.587
Mof_O 	O 	0.0215	0.3211	0.1305	-0.379
Mof_O 	O 	0.0901	0.2341	0.1915	-0.264
Mof_O 	O 	0.01137	0.41128	0.14428	-0.49
Mof_O 	O 	0.97403	0.40541	0.12349	-0.522
Mof_O 	O 	0.00322	0.53444	0.17211	-0.289
Mof_O 	O 	0.03935	0.61202	0.18016	-0.303
Mof_C 	C 	0.0353	0.333	0.1473	0.407
Mof_C 	C 	0.0534	0.3164	0.163	-0.176
Mof_C 	C 	0.0558	0.2887	0.1621	0.142
Mof_C 	C 	0.9898	0.4201	0.1353	0.355
Mof_C 	C 	0.9818	0.4486	0.1399	-0.139
Mof_C 	C 	0.0001	0.4662	0.1519	0.124
Mof_O 	O 	0.7166	0.3565	0.5975	-0.587
Mof_O 	O 	0.7285	0.3211	0.6195	-0.378
Mof_O 	O 	0.6599	0.2341	0.5585	-0.264
Mof_O 	O 	0.73863	0.41128	0.60572	-0.489
Mof_O 	O 	0.77597	0.40541	0.62651	-0.523
Mof_O 	O 	0.74678	0.53444	0.57789	-0.289
Mof_O 	O 	0.71065	0.61202	0.56984	-0.303
Mof_C 	C 	0.7147	0.333	0.6027	0.407
Mof_C 	C 	0.6966	0.3164	0.587	-0.176
Mof_C 	C 	0.6942	0.2887	0.5879	0.143
Mof_C 	C 	0.7602	0.4201	0.6147	0.354
Mof_C 	C 	0.7682	0.4486	0.6101	-0.141
Mof_C 	C 	0.7499	0.4662	0.5981	0.128
Mof_O 	O 	0.7166	0.8565	0.0975	-0.587
Mof_O 	O 	0.7285	0.8211	0.1195	-0.378
Mof_O 	O 	0.6599	0.7341	0.0585	-0.264
Mof_O 	O 	0.73863	0.91128	0.10572	-0.489
Mof_O 	O 	0.77597	0.90541	0.12651	-0.522
Mof_O 	O 	0.74678	0.03444	0.07789	-0.288
Mof_O 	O 	0.71065	0.11202	0.06984	-0.303
Mof_C 	C 	0.7147	0.833	0.1027	0.407
Mof_C 	C 	0.6966	0.8164	0.087	-0.176
Mof_C 	C 	0.6942	0.7887	0.0879	0.143
Mof_C 	C 	0.7602	0.9201	0.1147	0.353
Mof_C 	C 	0.7682	0.9486	0.1101	-0.14
Mof_C 	C 	0.7499	0.9662	0.0981	0.127
Mof_O 	O 	0.2166	0.3565	0.0975	-0.587
Mof_O 	O 	0.2285	0.3211	0.1195	-0.378
Mof_O 	O 	0.1599	0.2341	0.0585	-0.264
Mof_O 	O 	0.23863	0.41128	0.10572	-0.489
Mof_O 	O 	0.27597	0.40541	0.12651	-0.523
Mof_O 	O 	0.24678	0.53444	0.07789	-0.289
Mof_O 	O 	0.21065	0.61202	0.06984	-0.303
Mof_C 	C 	0.2147	0.333	0.1027	0.407
Mof_C 	C 	0.1966	0.3164	0.087	-0.176
Mof_C 	C 	0.1942	0.2887	0.0879	0.143
Mof_C 	C 	0.2602	0.4201	0.1147	0.354
Mof_C 	C 	0.2682	0.4486	0.1101	-0.141
Mof_C 	C 	0.2499	0.4662	0.0981	0.128
Mof_O 	O 	0.2166	0.8565	0.5975	-0.587
Mof_O 	O 	0.2285	0.8211	0.6195	-0.378
Mof_O 	O 	0.1599	0.7341	0.5585	-0.264
Mof_O 	O 	0.23863	0.91128	0.60572	-0.489
Mof_O 	O 	0.27597	0.90541	0.62651	-0.522
Mof_O 	O 	0.24678	0.03444	0.57789	-0.288
Mof_O 	O 	0.21065	0.11202	0.56984	-0.303
Mof_C 	C 	0.2147	0.833	0.6027	0.407
Mof_C 	C 	0.1966	0.8164	0.587	-0.176
Mof_C 	C 	0.1942	0.7887	0.5879	0.143
Mof_C 	C 	0.2602	0.9201	0.6147	0.353
Mof_C 	C 	0.2682	0.9486	0.6101	-0.14
Mof_C 	C 	0.2499	0.9662	0.5981	0.127
Mof_O 	O 	0.2166	0.3935	0.6525	-0.587
Mof_O 	O 	0.2285	0.4289	0.6305	-0.378
Mof_O 	O 	0.1599	0.5159	0.6915	-0.264
Mof_O 	O 	0.23863	0.33872	0.64428	-0.489
Mof_O 	O 	0.27597	0.34459	0.62349	-0.523
Mof_O 	O 	0.24678	0.21556	0.67211	-0.289
Mof_O 	O 	0.21065	0.13798	0.68016	-0.303
Mof_C 	C 	0.2147	0.417	0.6473	0.407
Mof_C 	C 	0.1966	0.4336	0.663	-0.176
Mof_C 	C 	0.1942	0.4613	0.6621	0.143
Mof_C 	C 	0.2602	0.3299	0.6353	0.354
Mof_C 	C 	0.2682	0.3014	0.6399	-0.141
Mof_C 	C 	0.2499	0.2838	0.6519	0.128
Mof_O 	O 	0.2166	0.8935	0.1525	-0.587
Mof_O 	O 	0.2285	0.9289	0.1305	-0.378
Mof_O 	O 	0.1599	0.0159	0.1915	-0.264
Mof_O 	O 	0.23863	0.83872	0.14428	-0.489
Mof_O 	O 	0.27597	0.84459	0.12349	-0.523
Mof_O 	O 	0.24678	0.71556	0.17211	-0.289
Mof_O 	O 	0.21065	0.63798	0.18016	-0.303
Mof_C 	C 	0.2147	0.917	0.1473	0.407
Mof_C 	C 	0.1966	0.9336	0.163	-0.176
Mof_C 	C 	0.1942	0.9613	0.1621	0.143
Mof_C 	C 	0.2602	0.8299	0.1353	0.354
Mof_C 	C 	0.2682	0.8014	0.1399	-0.141
Mof_C 	C 	0.2499	0.7838	0.1519	0.128
Mof_O 	O 	0.7166	0.3935	0.1525	-0.587
Mof_O 	O 	0.7285	0.4289	0.1305	-0.378
Mof_O 	O 	0.6599	0.5159	0.1915	-0.264
Mof_O 	O 	0.73863	0.33872	0.14428	-0.489
Mof_O 	O 	0.77597	0.34459	0.12349	-0.523
Mof_O 	O 	0.74678	0.21556	0.17211	-0.289
Mof_O 	O 	0.71065	0.13798	0.18016	-0.303
Mof_C 	C 	0.7147	0.417	0.1473	0.407
Mof_C 	C 	0.6966	0.4336	0.163	-0.176
Mof_C 	C 	0.6942	0.4613	0.1621	0.143
Mof_C 	C 	0.7602	0.3299	0.1353	0.354
Mof_C 	C 	0.7682	0.3014	0.1399	-0.141
Mof_C 	C 	0.7499	0.2838	0.1519	0.128
Mof_O 	O 	0.7166	0.8935	0.6525	-0.587
Mof_O 	O 	0.7285	0.9289	0.6305	-0.378
Mof_O 	O 	0.6599	0.0159	0.6915	-0.264
Mof_O 	O 	0.73863	0.83872	0.64428	-0.489
Mof_O 	O 	0.77597	0.84459	0.62349	-0.523
Mof_O 	O 	0.74678	0.71556	0.67211	-0.289
Mof_O 	O 	0.71065	0.63798	0.68016	-0.303
Mof_C 	C 	0.7147	0.917	0.6473	0.407
Mof_C 	C 	0.6966	0.9336	0.663	-0.176
Mof_C 	C 	0.6942	0.9613	0.6621	0.143
Mof_C 	C 	0.7602	0.8299	0.6353	0.354
Mof_C 	C 	0.7682	0.8014	0.6399	-0.141
Mof_C 	C 	0.7499	0.7838	0.6519	0.128
Mof_O 	O 	0.0975	0.0334	0.8935	-0.587
Mof_O 	O 	0.1195	0.0215	0.9289	-0.378
Mof_O 	O 	0.0585	0.0901	0.0159	-0.264
Mof_O 	O 	0.10572	0.01137	0.83872	-0.49
Mof_O 	O 	0.12651	0.97403	0.84459	-0.522
Mof_O 	O 	0.07789	0.00322	0.71556	-0.289
Mof_O 	O 	0.06984	0.03935	0.63798	-0.303
Mof_C 	C 	0.1027	0.0353	0.917	0.407
Mof_C 	C 	0.087	0.0534	0.9336	-0.176
Mof_C 	C 	0.0879	0.0558	0.9613	0.142
Mof_C 	C 	0.1147	0.9898	0.8299	0.355
Mof_C 	C 	0.1101	0.9818	0.8014	-0.139
Mof_C 	C 	0.0981	0.0001	0.7838	0.124
Mof_O 	O 	0.0975	0.5334	0.3935	-0.587
Mof_O 	O 	0.1195	0.5215	0.4289	-0.378
Mof_O 	O 	0.0585	0.5901	0.5159	-0.264
Mof_O 	O 	0.10572	0.51137	0.33872	-0.489
Mof_O 	O 	0.12651	0.47403	0.34459	-0.523
Mof_O 	O 	0.07789	0.50322	0.21556	-0.289
Mof_O 	O 	0.06984	0.53935	0.13798	-0.303
Mof_C 	C 	0.1027	0.5353	0.417	0.407
Mof_C 	C 	0.087	0.5534	0.4336	-0.176
Mof_C 	C 	0.0879	0.5558	0.4613	0.143
Mof_C 	C 	0.1147	0.4898	0.3299	0.354
Mof_C 	C 	0.1101	0.4818	0.3014	-0.141
Mof_C 	C 	0.0981	0.5001	0.2838	0.128
Mof_O 	O 	0.5975	0.0334	0.3935	-0.587
Mof_O 	O 	0.6195	0.0215	0.4289	-0.379
Mof_O 	O 	0.5585	0.0901	0.5159	-0.264
Mof_O 	O 	0.60572	0.01137	0.33872	-0.49
Mof_O 	O 	0.62651	0.97403	0.34459	-0.522
Mof_O 	O 	0.57789	0.00322	0.21556	-0.289
Mof_O 	O 	0.56984	0.03935	0.13798	-0.303
Mof_C 	C 	0.6027	0.0353	0.417	0.407
Mof_C 	C 	0.587	0.0534	0.4336	-0.176
Mof_C 	C 	0.5879	0.0558	0.4613	0.142
Mof_C 	C 	0.6147	0.9898	0.3299	0.355
Mof_C 	C 	0.6101	0.9818	0.3014	-0.139
Mof_C 	C 	0.5981	0.0001	0.2838	0.124
Mof_O 	O 	0.5975	0.5334	0.8935	-0.587
Mof_O 	O 	0.6195	0.5215	0.9289	-0.378
Mof_O 	O 	0.5585	0.5901	0.0159	-0.264
Mof_O 	O 	0.60572	0.51137	0.83872	-0.489
Mof_O 	O 	0.62651	0.47403	0.84459	-0.523
Mof_O 	O 	0.57789	0.50322	0.71556	-0.289
Mof_O 	O 	0.56984	0.53935	0.63798	-0.303
Mof_C 	C 	0.6027	0.5353	0.917	0.407
Mof_C 	C 	0.587	0.5534	0.9336	-0.176
Mof_C 	C 	0.5879	0.5558	0.9613	0.143
Mof_C 	C 	0.6147	0.4898	0.8299	0.354
Mof_C 	C 	0.6101	0.4818	0.8014	-0.141
Mof_C 	C 	0.5981	0.5001	0.7838	0.128
Mof_O 	O 	0.1525	0.5334	0.8565	-0.587
Mof_O 	O 	0.1305	0.5215	0.8211	-0.378
Mof_O 	O 	0.1915	0.5901	0.7341	-0.264
Mof_O 	O 	0.14428	0.51137	0.91128	-0.489
Mof_O 	O 	0.12349	0.47403	0.90541	-0.522
Mof_O 	O 	0.17211	0.50322	0.03444	-0.288
Mof_O 	O 	0.18016	0.53935	0.11202	-0.303
Mof_C 	C 	0.1473	0.5353	0.833	0.407
Mof_C 	C 	0.163	0.5534	0.8164	-0.176
Mof_C 	C 	0.1621	0.5558	0.7887	0.143
Mof_C 	C 	0.1353	0.4898	0.9201	0.353
Mof_C 	C 	0.1399	0.4818	0.9486	-0.14
Mof_C 	C 	0.1519	0.5001	0.9662	0.127
Mof_O 	O 	0.1525	0.0334	0.3565	-0.587
Mof_O 	O 	0.1305	0.0215	0.3211	-0.379
Mof_O 	O 	0.1915	0.0901	0.2341	-0.264
Mof_O 	O 	0.14428	0.01137	0.41128	-0.49
Mof_O 	O 	0.12349	0.97403	0.40541	-0.522
Mof_O 	O 	0.17211	0.00322	0.53444	-0.289
Mof_O 	O 	0.18016	0.03935	0.61202	-0.303
Mof_C 	C 	0.1473	0.0353	0.333	0.407
Mof_C 	C 	0.163	0.0534	0.3164	-0.176
Mof_C 	C 	0.1621	0.0558	0.2887	0.142
Mof_C 	C 	0.1353	0.9898	0.4201	0.355
Mof_C 	C 	0.1399	0.9818	0.4486	-0.139
Mof_C 	C 	0.1519	0.0001	0.4662	0.124
Mof_O 	O 	0.6525	0.5334	0.3565	-0.587
Mof_O 	O 	0.6305	0.5215	0.3211	-0.378
Mof_O 	O 	0.6915	0.5901	0.2341	-0.264
Mof_O 	O 	0.64428	0.51137	0.41128	-0.489
Mof_O 	O 	0.62349	0.47403	0.40541	-0.523
Mof_O 	O 	0.67211	0.50322	0.53444	-0.289
Mof_O 	O 	0.68016	0.53935	0.61202	-0.303
Mof_C 	C 	0.6473	0.5353	0.333	0.407
Mof_C 	C 	0.663	0.5534	0.3164	-0.176
Mof_C 	C 	0.6621	0.5558	0.2887	0.143
Mof_C 	C 	0.6353	0.4898	0.4201	0.354
Mof_C 	C 	0.6399	0.4818	0.4486	-0.141
Mof_C 	C 	0.6519	0.5001	0.4662	0.128
Mof_O 	O 	0.6525	0.0334	0.8565	-0.587
Mof_O 	O 	0.6305	0.0215	0.8211	-0.379
Mof_O 	O 	0.6915	0.0901	0.7341	-0.264
Mof_O 	O 	0.64428	0.01137	0.91128	-0.49
Mof_O 	O 	0.62349	0.97403	0.90541	-0.522
Mof_O 	O 	0.67211	0.00322	0.03444	-0.288
Mof_O 	O 	0.68016	0.03935	0.11202	-0.303
Mof_C 	C 	0.6473	0.0353	0.833	0.407
Mof_C 	C 	0.663	0.0534	0.8164	-0.176
Mof_C 	C 	0.6621	0.0558	0.7887	0.142
Mof_C 	C 	0.6353	0.9898	0.9201	0.355
Mof_C 	C 	0.6399	0.9818	0.9486	-0.138
Mof_C 	C 	0.6519	0.0001	0.9662	0.123
Mof_O 	O 	0.5975	0.7166	0.3565	-0.587
Mof_O 	O 	0.6195	0.7285	0.3211	-0.378
Mof_O 	O 	0.5585	0.6599	0.2341	-0.264
Mof_O 	O 	0.60572	0.73863	0.41128	-0.489
Mof_O 	O 	0.62651	0.77597	0.40541	-0.523
Mof_O 	O 	0.57789	0.74678	0.53444	-0.289
Mof_O 	O 	0.56984	0.71065	0.61202	-0.303
Mof_C 	C 	0.6027	0.7147	0.333	0.407
Mof_C 	C 	0.587	0.6966	0.3164	-0.176
Mof_C 	C 	0.5879	0.6942	0.2887	0.143
Mof_C 	C 	0.6147	0.7602	0.4201	0.354
Mof_C 	C 	0.6101	0.7682	0.4486	-0.141
Mof_C 	C 	0.5981	0.7499	0.4662	0.128
Mof_O 	O 	0.5975	0.2166	0.8565	-0.587
Mof_O 	O 	0.6195	0.2285	0.8211	-0.378
Mof_O 	O 	0.5585	0.1599	0.7341	-0.264
Mof_O 	O 	0.60572	0.23863	0.91128	-0.489
Mof_O 	O 	0.62651	0.27597	0.90541	-0.522
Mof_O 	O 	0.57789	0.24678	0.03444	-0.288
Mof_O 	O 	0.56984	0.21065	0.11202	-0.303
Mof_C 	C 	0.6027	0.2147	0.833	0.407
Mof_C 	C 	0.587	0.1966	0.8164	-0.176
Mof_C 	C 	0.5879	0.1942	0.7887	0.143
Mof_C 	C 	0.6147	0.2602	0.9201	0.353
Mof_C 	C 	0.6101	0.2682	0.9486	-0.14
Mof_C 	C 	0.5981	0.2499	0.9662	0.127
Mof_O 	O 	0.0975	0.7166	0.8565	-0.587
Mof_O 	O 	0.1195	0.7285	0.8211	-0.378
Mof_O 	O 	0.0585	0.6599	0.7341	-0.264
Mof_O 	O 	0.10572	0.73863	0.91128	-0.489
Mof_O 	O 	0.12651	0.77597	0.90541	-0.522
Mof_O 	O 	0.07789	0.74678	0.03444	-0.288
Mof_O 	O 	0.06984	0.71065	0.11202	-0.303
Mof_C 	C 	0.1027	0.7147	0.833	0.407
Mof_C 	C 	0.087	0.6966	0.8164	-0.176
Mof_C 	C 	0.0879	0.6942	0.7887	0.143
Mof_C 	C 	0.1147	0.7602	0.9201	0.353
Mof_C 	C 	0.1101	0.7682	0.9486	-0.14
Mof_C 	C 	0.0981	0.7499	0.9662	0.127
Mof_O 	O 	0.0975	0.2166	0.3565	-0.587
Mof_O 	O 	0.1195	0.2285	0.3211	-0.378
Mof_O 	O 	0.0585	0.1599	0.2341	-0.264
Mof_O 	O 	0.10572	0.23863	0.41128	-0.489
Mof_O 	O 	0.12651	0.27597	0.40541	-0.523
Mof_O 	O 	0.07789	0.24678	0.53444	-0.289
Mof_O 	O 	0.06984	0.21065	0.61202	-0.303
Mof_C 	C 	0.1027	0.2147	0.333	0.407
Mof_C 	C 	0.087	0.1966	0.3164	-0.176
Mof_C 	C 	0.0879	0.1942	0.2887	0.143
Mof_C 	C 	0.1147	0.2602	0.4201	0.354
Mof_C 	C 	0.1101	0.2682	0.4486	-0.141
Mof_C 	C 	0.0981	0.2499	0.4662	0.128
Mof_O 	O 	0.6525	0.2166	0.3935	-0.587
Mof_O 	O 	0.6305	0.2285	0.4289	-0.378
Mof_O 	O 	0.6915	0.1599	0.5159	-0.264
Mof_O 	O 	0.64428	0.23863	0.33872	-0.489
Mof_O 	O 	0.62349	0.27597	0.34459	-0.523
Mof_O 	O 	0.67211	0.24678	0.21556	-0.289
Mof_O 	O 	0.68016	0.21065	0.13798	-0.303
Mof_C 	C 	0.6473	0.2147	0.417	0.407
Mof_C 	C 	0.663	0.1966	0.4336	-0.176
Mof_C 	C 	0.6621	0.1942	0.4613	0.143
Mof_C 	C 	0.6353	0.2602	0.3299	0.354
Mof_C 	C 	0.6399	0.2682	0.3014	-0.141
Mof_C 	C 	0.6519	0.2499	0.2838	0.128
Mof_O 	O 	0.6525	0.7166	0.8935	-0.587
Mof_O 	O 	0.6305	0.7285	0.9289	-0.378
Mof_O 	O 	0.6915	0.6599	0.0159	-0.264
Mof_O 	O 	0.64428	0.73863	0.83872	-0.489
Mof_O 	O 	0.62349	0.77597	0.84459	-0.523
Mof_O 	O 	0.67211	0.74678	0.71556	-0.289
Mof_O 	O 	0.68016	0.71065	0.63798	-0.303
Mof_C 	C 	0.6473	0.7147	0.917	0.407
Mof_C 	C 	0.663	0.6966	0.9336	-0.176
Mof_C 	C 	0.6621	0.6942	0.9613	0.143
Mof_C 	C 	0.6353	0.7602	0.8299	0.354
Mof_C 	C 	0.6399	0.7682	0.8014	-0.141
Mof_C 	C 	0.6519	0.7499	0.7838	0.128
Mof_O 	O 	0.1525	0.2166	0.8935	-0.587
Mof_O 	O 	0.1305	0.2285	0.9289	-0.378
Mof_O 	O 	0.1915	0.1599	0.0159	-0.264
Mof_O 	O 	0.14428	0.23863	0.83872	-0.489
Mof_O 	O 	0.12349	0.27597	0.84459	-0.523
Mof_O 	O 	0.17211	0.24678	0.71556	-0.289
Mof_O 	O 	0.18016	0.21065	0.63798	-0.303
Mof_C 	C 	0.1473	0.2147	0.917	0.407
Mof_C 	C 	0.163	0.1966	0.9336	-0.176
Mof_C 	C 	0.1621	0.1942	0.9613	0.143
Mof_C 	C 	0.1353	0.2602	0.8299	0.354
Mof_C 	C 	0.1399	0.2682	0.8014	-0.141
Mof_C 	C 	0.1519	0.2499	0.7838	0.128
Mof_O 	O 	0.1525	0.7166	0.3935	-0.587
Mof_O 	O 	0.1305	0.7285	0.4289	-0.378
Mof_O 	O 	0.1915	0.6599	0.5159	-0.264
Mof_O 	O 	0.14428	0.73863	0.33872	-0.489
Mof_O 	O 	0.12349	0.77597	0.34459	-0.523
Mof_O 	O 	0.17211	0.74678	0.21556	-0.289
Mof_O 	O 	0.18016	0.71065	0.13798	-0.303
Mof_C 	C 	0.1473	0.7147	0.417	0.407
Mof_C 	C 	0.163	0.6966	0.4336	-0.176
Mof_C 	C 	0.1621	0.6942	0.4613	0.143
Mof_C 	C 	0.1353	0.7602	0.3299	0.354
Mof_C 	C 	0.1399	0.7682	0.3014	-0.141
Mof_C 	C 	0.1519	0.7499	0.2838	0.128
Mof_O 	O 	0.8475	0.1435	0.4666	-0.587
Mof_O 	O 	0.8695	0.1789	0.4785	-0.378
Mof_O 	O 	0.8085	0.2659	0.4099	-0.264
Mof_O 	O 	0.85572	0.08872	0.48863	-0.489
Mof_O 	O 	0.87651	0.09459	0.52597	-0.523
Mof_O 	O 	0.82789	0.96556	0.49678	-0.289
Mof_O 	O 	0.81984	0.88798	0.46065	-0.303
Mof_C 	C 	0.8527	0.167	0.4647	0.407
Mof_C 	C 	0.837	0.1836	0.4466	-0.176
Mof_C 	C 	0.8379	0.2113	0.4442	0.143
Mof_C 	C 	0.8647	0.0799	0.5102	0.354
Mof_C 	C 	0.8601	0.0514	0.5182	-0.142
Mof_C 	C 	0.8481	0.0338	0.4999	0.129
Mof_O 	O 	0.8475	0.6435	0.9666	-0.586
Mof_O 	O 	0.8695	0.6789	0.9785	-0.377
Mof_O 	O 	0.8085	0.7659	0.9099	-0.264
Mof_O 	O 	0.85572	0.58872	0.98863	-0.487
Mof_O 	O 	0.87651	0.59459	0.02597	-0.522
Mof_O 	O 	0.82789	0.46556	0.99678	-0.289
Mof_O 	O 	0.81984	0.38798	0.96065	-0.303
Mof_C 	C 	0.8527	0.667	0.9647	0.407
Mof_C 	C 	0.837	0.6836	0.9466	-0.176
Mof_C 	C 	0.8379	0.7113	0.9442	0.143
Mof_C 	C 	0.8647	0.5799	0.0102	0.352
Mof_C 	C 	0.8601	0.5514	0.0182	-0.143
Mof_C 	C 	0.8481	0.5338	0.9999	0.132
Mof_O 	O 	0.3475	0.1435	0.9666	-0.586
Mof_O 	O 	0.3695	0.1789	0.9785	-0.377
Mof_O 	O 	0.3085	0.2659	0.9099	-0.264
Mof_O 	O 	0.35572	0.08872	0.98863	-0.487
Mof_O 	O 	0.37651	0.09459	0.02597	-0.522
Mof_O 	O 	0.32789	0.96556	0.99678	-0.289
Mof_O 	O 	0.31984	0.88798	0.96065	-0.303
Mof_C 	C 	0.3527	0.167	0.9647	0.407
Mof_C 	C 	0.337	0.1836	0.9466	-0.176
Mof_C 	C 	0.3379	0.2113	0.9442	0.143
Mof_C 	C 	0.3647	0.0799	0.0102	0.352
Mof_C 	C 	0.3601	0.0514	0.0182	-0.144
Mof_C 	C 	0.3481	0.0338	0.9999	0.133
Mof_O 	O 	0.3475	0.6435	0.4666	-0.587
Mof_O 	O 	0.3695	0.6789	0.4785	-0.378
Mof_O 	O 	0.3085	0.7659	0.4099	-0.264
Mof_O 	O 	0.35572	0.58872	0.48863	-0.489
Mof_O 	O 	0.37651	0.59459	0.52597	-0.523
Mof_O 	O 	0.32789	0.46556	0.49678	-0.289
Mof_O 	O 	0.31984	0.38798	0.46065	-0.303
Mof_C 	C 	0.3527	0.667	0.4647	0.407
Mof_C 	C 	0.337	0.6836	0.4466	-0.176
Mof_C 	C 	0.3379	0.7113	0.4442	0.143
Mof_C 	C 	0.3647	0.5799	0.5102	0.354
Mof_C 	C 	0.3601	0.5514	0.5182	-0.141
Mof_C 	C 	0.3481	0.5338	0.4999	0.128
Mof_O 	O 	0.9025	0.1065	0.9666	-0.586
Mof_O 	O 	0.8805	0.0711	0.9785	-0.378
Mof_O 	O 	0.9415	0.9841	0.9099	-0.264
Mof_O 	O 	0.89428	0.16128	0.98863	-0.487
Mof_O 	O 	0.87349	0.15541	0.02597	-0.522
Mof_O 	O 	0.92211	0.28444	0.99678	-0.289
Mof_O 	O 	0.93016	0.36202	0.96065	-0.303
Mof_C 	C 	0.8973	0.083	0.9647	0.407
Mof_C 	C 	0.913	0.0664	0.9466	-0.176
Mof_C 	C 	0.9121	0.0387	0.9442	0.143
Mof_C 	C 	0.8853	0.1701	0.0102	0.352
Mof_C 	C 	0.8899	0.1986	0.0182	-0.143
Mof_C 	C 	0.9019	0.2162	0.9999	0.132
Mof_O 	O 	0.9025	0.6065	0.4666	-0.587
Mof_O 	O 	0.8805	0.5711	0.4785	-0.378
Mof_O 	O 	0.9415	0.4841	0.4099	-0.264
Mof_O 	O 	0.89428	0.66128	0.48863	-0.489
Mof_O 	O 	0.87349	0.65541	0.52597	-0.523
Mof_O 	O 	0.92211	0.78444	0.49678	-0.289
Mof_O 	O 	0.93016	0.86202	0.46065	-0.303
Mof_C 	C 	0.8973	0.583	0.4647	0.407
Mof_C 	C 	0.913	0.5664	0.4466	-0.176
Mof_C 	C 	0.9121	0.5387	0.4442	0.143
Mof_C 	C 	0.8853	0.6701	0.5102	0.354
Mof_C 	C 	0.8899	0.6986	0.5182	-0.141
Mof_C 	C 	0.9019	0.7162	0.4999	0.128
Mof_O 	O 	0.4025	0.1065	0.4666	-0.587
Mof_O 	O 	0.3805	0.0711	0.4785	-0.379
Mof_O 	O 	0.4415	0.9841	0.4099	-0.264
Mof_O 	O 	0.39428	0.16128	0.48863	-0.489
Mof_O 	O 	0.37349	0.15541	0.52597	-0.523
Mof_O 	O 	0.42211	0.28444	0.49678	-0.289
Mof_O 	O 	0.43016	0.36202	0.46065	-0.303
Mof_C 	C 	0.3973	0.083	0.4647	0.407
Mof_C 	C 	0.413	0.0664	0.4466	-0.176
Mof_C 	C 	0.4121	0.0387	0.4442	0.143
Mof_C 	C 	0.3853	0.1701	0.5102	0.354
Mof_C 	C 	0.3899	0.1986	0.5182	-0.141
Mof_C 	C 	0.4019	0.2162	0.4999	0.128
Mof_O 	O 	0.4025	0.6065	0.9666	-0.586
Mof_O 	O 	0.3805	0.5711	0.9785	-0.377
Mof_O 	O 	0.4415	0.4841	0.9099	-0.264
Mof_O 	O 	0.39428	0.66128	0.98863	-0.487
Mof_O 	O 	0.37349	0.65541	0.02597	-0.522
Mof_O 	O 	0.42211	0.78444	0.99678	-0.289
Mof_O 	O 	0.43016	0.86202	0.96065	-0.303
Mof_C 	C 	0.3973	0.583	0.9647	0.407
Mof_C 	C 	0.413	0.5664	0.9466	-0.176
Mof_C 	C 	0.4121	0.5387	0.9442	0.143
Mof_C 	C 	0.3853	0.6701	0.0102	0.352
Mof_C 	C 	0.3899	0.6986	0.0182	-0.143
Mof_C 	C 	0.4019	0.7162	0.9999	0.132
Mof_O 	O 	0.3475	0.6065	0.7834	-0.587
Mof_O 	O 	0.3695	0.5711	0.7715	-0.378
Mof_O 	O 	0.3085	0.4841	0.8401	-0.264
Mof_O 	O 	0.35572	0.66128	0.76137	-0.489
Mof_O 	O 	0.37651	0.65541	0.72403	-0.523
Mof_O 	O 	0.32789	0.78444	0.75322	-0.289
Mof_O 	O 	0.31984	0.86202	0.78935	-0.303
Mof_C 	C 	0.3527	0.583	0.7853	0.407
Mof_C 	C 	0.337	0.5664	0.8034	-0.176
Mof_C 	C 	0.3379	0.5387	0.8058	0.143
Mof_C 	C 	0.3647	0.6701	0.7398	0.354
Mof_C 	C 	0.3601	0.6986	0.7318	-0.141
Mof_C 	C 	0.3481	0.7162	0.7501	0.128
Mof_O 	O 	0.3475	0.1065	0.2834	-0.587
Mof_O 	O 	0.3695	0.0711	0.2715	-0.379
Mof_O 	O 	0.3085	0.9841	0.3401	-0.264
Mof_O 	O 	0.35572	0.16128	0.26137	-0.489
Mof_O 	O 	0.37651	0.15541	0.22403	-0.523
Mof_O 	O 	0.32789	0.28444	0.25322	-0.289
Mof_O 	O 	0.31984	0.36202	0.28935	-0.303
Mof_C 	C 	0.3527	0.083	0.2853	0.407
Mof_C 	C 	0.337	0.0664	0.3034	-0.176
Mof_C 	C 	0.3379	0.0387	0.3058	0.143
Mof_C 	C 	0.3647	0.1701	0.2398	0.354
Mof_C 	C 	0.3601	0.1986	0.2318	-0.141
Mof_C 	C 	0.3481	0.2162	0.2501	0.128
Mof_O 	O 	0.8475	0.6065	0.2834	-0.587
Mof_O 	O 	0.8695	0.5711	0.2715	-0.378
Mof_O 	O 	0.8085	0.4841	0.3401	-0.264
Mof_O 	O 	0.85572	0.66128	0.26137	-0.489
Mof_O 	O 	0.87651	0.65541	0.22403	-0.522
Mof_O 	O 	0.82789	0.78444	0.25322	-0.289
Mof_O 	O 	0.81984	0.86202	0.28935	-0.303
Mof_C 	C 	0.8527	0.583	0.2853	0.407
Mof_C 	C 	0.837	0.5664	0.3034	-0.176
Mof_C 	C 	0.8379	0.5387	0.3058	0.143
Mof_C 	C 	0.8647	0.6701	0.2398	0.354
Mof_C 	C 	0.8601	0.6986	0.2318	-0.141
Mof_C 	C 	0.8481	0.7162	0.2501	0.128
Mof_O 	O 	0.8475	0.1065	0.7834	-0.587
Mof_O 	O 	0.8695	0.0711	0.7715	-0.379
Mof_O 	O 	0.8085	0.9841	0.8401	-0.264
Mof_O 	O 	0.85572	0.16128	0.76137	-0.489
Mof_O 	O 	0.87651	0.15541	0.72403	-0.522
Mof_O 	O 	0.82789	0.28444	0.75322	-0.289
Mof_O 	O 	0.81984	0.36202	0.78935	-0.303
Mof_C 	C 	0.8527	0.083	0.7853	0.407
Mof_C 	C 	0.837	0.0664	0.8034	-0.176
Mof_C 	C 	0.8379	0.0387	0.8058	0.143
Mof_C 	C 	0.8647	0.1701	0.7398	0.354
Mof_C 	C 	0.8601	0.1986	0.7318	-0.141
Mof_C 	C 	0.8481	0.2162	0.7501	0.128
Mof_O 	O 	0.4025	0.6435	0.2834	-0.587
Mof_O 	O 	0.3805	0.6789	0.2715	-0.378
Mof_O 	O 	0.4415	0.7659	0.3401	-0.264
Mof_O 	O 	0.39428	0.58872	0.26137	-0.489
Mof_O 	O 	0.37349	0.59459	0.22403	-0.523
Mof_O 	O 	0.42211	0.46556	0.25322	-0.289
Mof_O 	O 	0.43016	0.38798	0.28935	-0.303
Mof_C 	C 	0.3973	0.667	0.2853	0.407
Mof_C 	C 	0.413	0.6836	0.3034	-0.176
Mof_C 	C 	0.4121	0.7113	0.3058	0.143
Mof_C 	C 	0.3853	0.5799	0.2398	0.354
Mof_C 	C 	0.3899	0.5514	0.2318	-0.141
Mof_C 	C 	0.4019	0.5338	0.2501	0.128
Mof_O 	O 	0.4025	0.1435	0.7834	-0.587
Mof_O 	O 	0.3805	0.1789	0.7715	-0.378
Mof_O 	O 	0.4415	0.2659	0.8401	-0.264
Mof_O 	O 	0.39428	0.08872	0.76137	-0.489
Mof_O 	O 	0.37349	0.09459	0.72403	-0.523
Mof_O 	O 	0.42211	0.96556	0.75322	-0.289
Mof_O 	O 	0.43016	0.88798	0.78935	-0.303
Mof_C 	C 	0.3973	0.167	0.7853	0.407
Mof_C 	C 	0.413	0.1836	0.8034	-0.176
Mof_C 	C 	0.4121	0.2113	0.8058	0.143
Mof_C 	C 	0.3853	0.0799	0.7398	0.354
Mof_C 	C 	0.3899	0.0514	0.7318	-0.142
Mof_C 	C 	0.4019	0.0338	0.7501	0.129
Mof_O 	O 	0.9025	0.6435	0.7834	-0.587
Mof_O 	O 	0.8805	0.6789	0.7715	-0.378
Mof_O 	O 	0.9415	0.7659	0.8401	-0.264
Mof_O 	O 	0.89428	0.58872	0.76137	-0.489
Mof_O 	O 	0.87349	0.59459	0.72403	-0.523
Mof_O 	O 	0.92211	0.46556	0.75322	-0.289
Mof_O 	O 	0.93016	0.38798	0.78935	-0.303
Mof_C 	C 	0.8973	0.667	0.7853	0.407
Mof_C 	C 	0.913	0.6836	0.8034	-0.176
Mof_C 	C 	0.9121	0.7113	0.8058	0.143
Mof_C 	C 	0.8853	0.5799	0.7398	0.354
Mof_C 	C 	0.8899	0.5514	0.7318	-0.141
Mof_C 	C 	0.9019	0.5338	0.7501	0.128
Mof_O 	O 	0.9025	0.1435	0.2834	-0.587
Mof_O 	O 	0.8805	0.1789	0.2715	-0.378
Mof_O 	O 	0.9415	0.2659	0.3401	-0.264
Mof_O 	O 	0.89428	0.08872	0.26137	-0.489
Mof_O 	O 	0.87349	0.09459	0.22403	-0.523
Mof_O 	O 	0.92211	0.96556	0.25322	-0.289
Mof_O 	O 	0.93016	0.88798	0.28935	-0.303
Mof_C 	C 	0.8973	0.167	0.2853	0.407
Mof_C 	C 	0.913	0.1836	0.3034	-0.176
Mof_C 	C 	0.9121	0.2113	0.3058	0.143
Mof_C 	C 	0.8853	0.0799	0.2398	0.354
Mof_C 	C 	0.8899	0.0514	0.2318	-0.142
Mof_C 	C 	0.9019	0.0338	0.2501	0.129
Mof_O 	O 	0.6435	0.2834	0.4025	-0.587
Mof_O 	O 	0.6789	0.2715	0.3805	-0.378
Mof_O 	O 	0.7659	0.3401	0.4415	-0.264
Mof_O 	O 	0.58872	0.26137	0.39428	-0.489
Mof_O 	O 	0.59459	0.22403	0.37349	-0.523
Mof_O 	O 	0.46556	0.25322	0.42211	-0.289
Mof_O 	O 	0.38798	0.28935	0.43016	-0.303
Mof_C 	C 	0.667	0.2853	0.3973	0.407
Mof_C 	C 	0.6836	0.3034	0.413	-0.176
Mof_C 	C 	0.7113	0.3058	0.4121	0.143
Mof_C 	C 	0.5799	0.2398	0.3853	0.354
Mof_C 	C 	0.5514	0.2318	0.3899	-0.141
Mof_C 	C 	0.5338	0.2501	0.4019	0.128
Mof_O 	O 	0.6435	0.7834	0.9025	-0.587
Mof_O 	O 	0.6789	0.7715	0.8805	-0.378
Mof_O 	O 	0.7659	0.8401	0.9415	-0.264
Mof_O 	O 	0.58872	0.76137	0.89428	-0.489
Mof_O 	O 	0.59459	0.72403	0.87349	-0.523
Mof_O 	O 	0.46556	0.75322	0.92211	-0.289
Mof_O 	O 	0.38798	0.78935	0.93016	-0.303
Mof_C 	C 	0.667	0.7853	0.8973	0.407
Mof_C 	C 	0.6836	0.8034	0.913	-0.176
Mof_C 	C 	0.7113	0.8058	0.9121	0.143
Mof_C 	C 	0.5799	0.7398	0.8853	0.354
Mof_C 	C 	0.5514	0.7318	0.8899	-0.141
Mof_C 	C 	0.5338	0.7501	0.9019	0.128
Mof_O 	O 	0.1435	0.2834	0.9025	-0.587
Mof_O 	O 	0.1789	0.2715	0.8805	-0.378
Mof_O 	O 	0.2659	0.3401	0.9415	-0.264
Mof_O 	O 	0.08872	0.26137	0.89428	-0.489
Mof_O 	O 	0.09459	0.22403	0.87349	-0.523
Mof_O 	O 	0.96556	0.25322	0.92211	-0.289
Mof_O 	O 	0.88798	0.28935	0.93016	-0.303
Mof_C 	C 	0.167	0.2853	0.8973	0.407
Mof_C 	C 	0.1836	0.3034	0.913	-0.176
Mof_C 	C 	0.2113	0.3058	0.9121	0.143
Mof_C 	C 	0.0799	0.2398	0.8853	0.354
Mof_C 	C 	0.0514	0.2318	0.8899	-0.142
Mof_C 	C 	0.0338	0.2501	0.9019	0.129
Mof_O 	O 	0.1435	0.7834	0.4025	-0.587
Mof_O 	O 	0.1789	0.7715	0.3805	-0.378
Mof_O 	O 	0.2659	0.8401	0.4415	-0.264
Mof_O 	O 	0.08872	0.76137	0.39428	-0.489
Mof_O 	O 	0.09459	0.72403	0.37349	-0.523
Mof_O 	O 	0.96556	0.75322	0.42211	-0.289
Mof_O 	O 	0.88798	0.78935	0.43016	-0.303
Mof_C 	C 	0.167	0.7853	0.3973	0.407
Mof_C 	C 	0.1836	0.8034	0.413	-0.176
Mof_C 	C 	0.2113	0.8058	0.4121	0.143
Mof_C 	C 	0.0799	0.7398	0.3853	0.354
Mof_C 	C 	0.0514	0.7318	0.3899	-0.142
Mof_C 	C 	0.0338	0.7501	0.4019	0.129
Mof_O 	O 	0.6065	0.7834	0.3475	-0.587
Mof_O 	O 	0.5711	0.7715	0.3695	-0.378
Mof_O 	O 	0.4841	0.8401	0.3085	-0.264
Mof_O 	O 	0.66128	0.76137	0.35572	-0.489
Mof_O 	O 	0.65541	0.72403	0.37651	-0.523
Mof_O 	O 	0.78444	0.75322	0.32789	-0.289
Mof_O 	O 	0.86202	0.78935	0.31984	-0.303
Mof_C 	C 	0.583	0.7853	0.3527	0.407
Mof_C 	C 	0.5664	0.8034	0.337	-0.176
Mof_C 	C 	0.5387	0.8058	0.3379	0.143
Mof_C 	C 	0.6701	0.7398	0.3647	0.354
Mof_C 	C 	0.6986	0.7318	0.3601	-0.141
Mof_C 	C 	0.7162	0.7501	0.3481	0.128
Mof_O 	O 	0.6065	0.2834	0.8475	-0.587
Mof_O 	O 	0.5711	0.2715	0.8695	-0.378
Mof_O 	O 	0.4841	0.3401	0.8085	-0.264
Mof_O 	O 	0.66128	0.26137	0.85572	-0.489
Mof_O 	O 	0.65541	0.22403	0.87651	-0.522
Mof_O 	O 	0.78444	0.25322	0.82789	-0.289
Mof_O 	O 	0.86202	0.28935	0.81984	-0.303
Mof_C 	C 	0.583	0.2853	0.8527	0.407
Mof_C 	C 	0.5664	0.3034	0.837	-0.176
Mof_C 	C 	0.5387	0.3058	0.8379	0.143
Mof_C 	C 	0.6701	0.2398	0.8647	0.354
Mof_C 	C 	0.6986	0.2318	0.8601	-0.141
Mof_C 	C 	0.7162	0.2501	0.8481	0.128
Mof_O 	O 	0.1065	0.7834	0.8475	-0.587
Mof_O 	O 	0.0711	0.7715	0.8695	-0.379
Mof_O 	O 	0.9841	0.8401	0.8085	-0.264
Mof_O 	O 	0.16128	0.76137	0.85572	-0.489
Mof_O 	O 	0.15541	0.72403	0.87651	-0.522
Mof_O 	O 	0.28444	0.75322	0.82789	-0.289
Mof_O 	O 	0.36202	0.78935	0.81984	-0.303
Mof_C 	C 	0.083	0.7853	0.8527	0.407
Mof_C 	C 	0.0664	0.8034	0.837	-0.176
Mof_C 	C 	0.0387	0.8058	0.8379	0.143
Mof_C 	C 	0.1701	0.7398	0.8647	0.354
Mof_C 	C 	0.1986	0.7318	0.8601	-0.141
Mof_C 	C 	0.2162	0.7501	0.8481	0.128
Mof_O 	O 	0.1065	0.2834	0.3475	-0.587
Mof_O 	O 	0.0711	0.2715	0.3695	-0.379
Mof_O 	O 	0.9841	0.3401	0.3085	-0.264
Mof_O 	O 	0.16128	0.26137	0.35572	-0.489
Mof_O 	O 	0.15541	0.22403	0.37651	-0.523
Mof_O 	O 	0.28444	0.25322	0.32789	-0.289
Mof_O 	O 	0.36202	0.28935	0.31984	-0.303
Mof_C 	C 	0.083	0.2853	0.3527	0.407
Mof_C 	C 	0.0664	0.3034	0.337	-0.176
Mof_C 	C 	0.0387	0.3058	0.3379	0.143
Mof_C 	C 	0.1701	0.2398	0.3647	0.354
Mof_C 	C 	0.1986	0.2318	0.3601	-0.141
Mof_C 	C 	0.2162	0.2501	0.3481	0.128
Mof_O 	O 	0.1065	0.9666	0.9025	-0.586
Mof_O 	O 	0.0711	0.9785	0.8805	-0.378
Mof_O 	O 	0.9841	0.9099	0.9415	-0.264
Mof_O 	O 	0.16128	0.98863	0.89428	-0.487
Mof_O 	O 	0.15541	0.02597	0.87349	-0.522
Mof_O 	O 	0.28444	0.99678	0.92211	-0.289
Mof_O 	O 	0.36202	0.96065	0.93016	-0.303
Mof_C 	C 	0.083	0.9647	0.8973	0.407
Mof_C 	C 	0.0664	0.9466	0.913	-0.176
Mof_C 	C 	0.0387	0.9442	0.9121	0.143
Mof_C 	C 	0.1701	0.0102	0.8853	0.352
Mof_C 	C 	0.1986	0.0182	0.8899	-0.143
Mof_C 	C 	0.2162	0.9999	0.9019	0.132
Mof_O 	O 	0.1065	0.4666	0.4025	-0.587
Mof_O 	O 	0.0711	0.4785	0.3805	-0.379
Mof_O 	O 	0.9841	0.4099	0.4415	-0.264
Mof_O 	O 	0.16128	0.48863	0.39428	-0.489
Mof_O 	O 	0.15541	0.52597	0.37349	-0.523
Mof_O 	O 	0.28444	0.49678	0.42211	-0.289
Mof_O 	O 	0.36202	0.46065	0.43016	-0.303
Mof_C 	C 	0.083	0.4647	0.3973	0.407
Mof_C 	C 	0.0664	0.4466	0.413	-0.176
Mof_C 	C 	0.0387	0.4442	0.4121	0.143
Mof_C 	C 	0.1701	0.5102	0.3853	0.354
Mof_C 	C 	0.1986	0.5182	0.3899	-0.141
Mof_C 	C 	0.2162	0.4999	0.4019	0.128
Mof_O 	O 	0.6065	0.9666	0.4025	-0.586
Mof_O 	O 	0.5711	0.9785	0.3805	-0.377
Mof_O 	O 	0.4841	0.9099	0.4415	-0.264
Mof_O 	O 	0.66128	0.98863	0.39428	-0.487
Mof_O 	O 	0.65541	0.02597	0.37349	-0.522
Mof_O 	O 	0.78444	0.99678	0.42211	-0.289
Mof_O 	O 	0.86202	0.96065	0.43016	-0.303
Mof_C 	C 	0.583	0.9647	0.3973	0.407
Mof_C 	C 	0.5664	0.9466	0.413	-0.176
Mof_C 	C 	0.5387	0.9442	0.4121	0.143
Mof_C 	C 	0.6701	0.0102	0.3853	0.352
Mof_C 	C 	0.6986	0.0182	0.3899	-0.143
Mof_C 	C 	0.7162	0.9999	0.4019	0.132
Mof_O 	O 	0.6065	0.4666	0.9025	-0.587
Mof_O 	O 	0.5711	0.4785	0.8805	-0.378
Mof_O 	O 	0.4841	0.4099	0.9415	-0.264
Mof_O 	O 	0.66128	0.48863	0.89428	-0.489
Mof_O 	O 	0.65541	0.52597	0.87349	-0.523
Mof_O 	O 	0.78444	0.49678	0.92211	-0.289
Mof_O 	O 	0.86202	0.46065	0.93016	-0.303
Mof_C 	C 	0.583	0.4647	0.8973	0.407
Mof_C 	C 	0.5664	0.4466	0.913	-0.176
Mof_C 	C 	0.5387	0.4442	0.9121	0.143
Mof_C 	C 	0.6701	0.5102	0.8853	0.354
Mof_C 	C 	0.6986	0.5182	0.8899	-0.141
Mof_C 	C 	0.7162	0.4999	0.9019	0.128
Mof_O 	O 	0.1435	0.4666	0.8475	-0.587
Mof_O 	O 	0.1789	0.4785	0.8695	-0.378
Mof_O 	O 	0.2659	0.4099	0.8085	-0.264
Mof_O 	O 	0.08872	0.48863	0.85572	-0.489
Mof_O 	O 	0.09459	0.52597	0.87651	-0.523
Mof_O 	O 	0.96556	0.49678	0.82789	-0.289
Mof_O 	O 	0.88798	0.46065	0.81984	-0.303
Mof_C 	C 	0.167	0.4647	0.8527	0.407
Mof_C 	C 	0.1836	0.4466	0.837	-0.176
Mof_C 	C 	0.2113	0.4442	0.8379	0.143
Mof_C 	C 	0.0799	0.5102	0.8647	0.354
Mof_C 	C 	0.0514	0.5182	0.8601	-0.142
Mof_C 	C 	0.0338	0.4999	0.8481	0.129
Mof_O 	O 	0.1435	0.9666	0.3475	-0.586
Mof_O 	O 	0.1789	0.9785	0.3695	-0.377
Mof_O 	O 	0.2659	0.9099	0.3085	-0.264
Mof_O 	O 	0.08872	0.98863	0.35572	-0.487
Mof_O 	O 	0.09459	0.02597	0.37651	-0.522
Mof_O 	O 	0.96556	0.99678	0.32789	-0.289
Mof_O 	O 	0.88798	0.96065	0.31984	-0.303
Mof_C 	C 	0.167	0.9647	0.3527	0.407
Mof_C 	C 	0.1836	0.9466	0.337	-0.176
Mof_C 	C 	0.2113	0.9442	0.3379	0.143
Mof_C 	C 	0.0799	0.0102	0.3647	0.352
Mof_C 	C 	0.0514	0.0182	0.3601	-0.144
Mof_C 	C 	0.0338	0.9999	0.3481	0.133
Mof_O 	O 	0.6435	0.4666	0.3475	-0.587
Mof_O 	O 	0.6789	0.4785	0.3695	-0.378
Mof_O 	O 	0.7659	0.4099	0.3085	-0.264
Mof_O 	O 	0.58872	0.48863	0.35572	-0.489
Mof_O 	O 	0.59459	0.52597	0.37651	-0.523
Mof_O 	O 	0.46556	0.49678	0.32789	-0.289
Mof_O 	O 	0.38798	0.46065	0.31984	-0.303
Mof_C 	C 	0.667	0.4647	0.3527	0.407
Mof_C 	C 	0.6836	0.4466	0.337	-0.176
Mof_C 	C 	0.7113	0.4442	0.3379	0.143
Mof_C 	C 	0.5799	0.5102	0.3647	0.354
Mof_C 	C 	0.5514	0.5182	0.3601	-0.141
Mof_C 	C 	0.5338	0.4999	0.3481	0.128
Mof_O 	O 	0.6435	0.9666	0.8475	-0.586
Mof_O 	O 	0.6789	0.9785	0.8695	-0.377
Mof_O 	O 	0.7659	0.9099	0.8085	-0.264
Mof_O 	O 	0.58872	0.98863	0.85572	-0.487
Mof_O 	O 	0.59459	0.02597	0.87651	-0.522
Mof_O 	O 	0.46556	0.99678	0.82789	-0.289
Mof_O 	O 	0.38798	0.96065	0.81984	-0.303
Mof_C 	C 	0.667	0.9647	0.8527	0.407
Mof_C 	C 	0.6836	0.9466	0.837	-0.176
Mof_C 	C 	0.7113	0.9442	0.8379	0.143
Mof_C 	C 	0.5799	0.0102	0.8647	0.352
Mof_C 	C 	0.5514	0.0182	0.8601	-0.143
Mof_C 	C 	0.5338	0.9999	0.8481	0.132
Mof_O 	O 	0.7834	0.3475	0.6065	-0.587
Mof_O 	O 	0.7715	0.3695	0.5711	-0.378
Mof_O 	O 	0.8401	0.3085	0.4841	-0.264
Mof_O 	O 	0.76137	0.35572	0.66128	-0.489
Mof_O 	O 	0.72403	0.37651	0.65541	-0.523
Mof_O 	O 	0.75322	0.32789	0.78444	-0.289
Mof_O 	O 	0.78935	0.31984	0.86202	-0.303
Mof_C 	C 	0.7853	0.3527	0.583	0.407
Mof_C 	C 	0.8034	0.337	0.5664	-0.176
Mof_C 	C 	0.8058	0.3379	0.5387	0.143
Mof_C 	C 	0.7398	0.3647	0.6701	0.354
Mof_C 	C 	0.7318	0.3601	0.6986	-0.141
Mof_C 	C 	0.7501	0.3481	0.7162	0.128
Mof_O 	O 	0.7834	0.8475	0.1065	-0.587
Mof_O 	O 	0.7715	0.8695	0.0711	-0.379
Mof_O 	O 	0.8401	0.8085	0.9841	-0.264
Mof_O 	O 	0.76137	0.85572	0.16128	-0.489
Mof_O 	O 	0.72403	0.87651	0.15541	-0.522
Mof_O 	O 	0.75322	0.82789	0.28444	-0.289
Mof_O 	O 	0.78935	0.81984	0.36202	-0.303
Mof_C 	C 	0.7853	0.8527	0.083	0.407
Mof_C 	C 	0.8034	0.837	0.0664	-0.176
Mof_C 	C 	0.8058	0.8379	0.0387	0.143
Mof_C 	C 	0.7398	0.8647	0.1701	0.354
Mof_C 	C 	0.7318	0.8601	0.1986	-0.141
Mof_C 	C 	0.7501	0.8481	0.2162	0.128
Mof_O 	O 	0.2834	0.3475	0.1065	-0.587
Mof_O 	O 	0.2715	0.3695	0.0711	-0.379
Mof_O 	O 	0.3401	0.3085	0.9841	-0.264
Mof_O 	O 	0.26137	0.35572	0.16128	-0.489
Mof_O 	O 	0.22403	0.37651	0.15541	-0.523
Mof_O 	O 	0.25322	0.32789	0.28444	-0.289
Mof_O 	O 	0.28935	0.31984	0.36202	-0.303
Mof_C 	C 	0.2853	0.3527	0.083	0.407
Mof_C 	C 	0.3034	0.337	0.0664	-0.176
Mof_C 	C 	0.3058	0.3379	0.0387	0.143
Mof_C 	C 	0.2398	0.3647	0.1701	0.354
Mof_C 	C 	0.2318	0.3601	0.1986	-0.141
Mof_C 	C 	0.2501	0.3481	0.2162	0.128
Mof_O 	O 	0.2834	0.8475	0.6065	-0.587
Mof_O 	O 	0.2715	0.8695	0.5711	-0.378
Mof_O 	O 	0.3401	0.8085	0.4841	-0.264
Mof_O 	O 	0.26137	0.85572	0.66128	-0.489
Mof_O 	O 	0.22403	0.87651	0.65541	-0.522
Mof_O 	O 	0.25322	0.82789	0.78444	-0.289
Mof_O 	O 	0.28935	0.81984	0.86202	-0.303
Mof_C 	C 	0.2853	0.8527	0.583	0.407
Mof_C 	C 	0.3034	0.837	0.5664	-0.176
Mof_C 	C 	0.3058	0.8379	0.5387	0.143
Mof_C 	C 	0.2398	0.8647	0.6701	0.354
Mof_C 	C 	0.2318	0.8601	0.6986	-0.141
Mof_C 	C 	0.2501	0.8481	0.7162	0.128
Mof_O 	O 	0.2834	0.4025	0.6435	-0.587
Mof_O 	O 	0.2715	0.3805	0.6789	-0.378
Mof_O 	O 	0.3401	0.4415	0.7659	-0.264
Mof_O 	O 	0.26137	0.39428	0.58872	-0.489
Mof_O 	O 	0.22403	0.37349	0.59459	-0.523
Mof_O 	O 	0.25322	0.42211	0.46556	-0.289
Mof_O 	O 	0.28935	0.43016	0.38798	-0.303
Mof_C 	C 	0.2853	0.3973	0.667	0.407
Mof_C 	C 	0.3034	0.413	0.6836	-0.176
Mof_C 	C 	0.3058	0.4121	0.7113	0.143
Mof_C 	C 	0.2398	0.3853	0.5799	0.354
Mof_C 	C 	0.2318	0.3899	0.5514	-0.141
Mof_C 	C 	0.2501	0.4019	0.5338	0.128
Mof_O 	O 	0.2834	0.9025	0.1435	-0.587
Mof_O 	O 	0.2715	0.8805	0.1789	-0.378
Mof_O 	O 	0.3401	0.9415	0.2659	-0.264
Mof_O 	O 	0.26137	0.89428	0.08872	-0.489
Mof_O 	O 	0.22403	0.87349	0.09459	-0.523
Mof_O 	O 	0.25322	0.92211	0.96556	-0.289
Mof_O 	O 	0.28935	0.93016	0.88798	-0.303
Mof_C 	C 	0.2853	0.8973	0.167	0.407
Mof_C 	C 	0.3034	0.913	0.1836	-0.176
Mof_C 	C 	0.3058	0.9121	0.2113	0.143
Mof_C 	C 	0.2398	0.8853	0.0799	0.354
Mof_C 	C 	0.2318	0.8899	0.0514	-0.142
Mof_C 	C 	0.2501	0.9019	0.0338	0.129
Mof_O 	O 	0.7834	0.4025	0.1435	-0.587
Mof_O 	O 	0.7715	0.3805	0.1789	-0.378
Mof_O 	O 	0.8401	0.4415	0.2659	-0.264
Mof_O 	O 	0.76137	0.39428	0.08872	-0.489
Mof_O 	O 	0.72403	0.37349	0.09459	-0.523
Mof_O 	O 	0.75322	0.42211	0.96556	-0.289
Mof_O 	O 	0.78935	0.43016	0.88798	-0.303
Mof_C 	C 	0.7853	0.3973	0.167	0.407
Mof_C 	C 	0.8034	0.413	0.1836	-0.176
Mof_C 	C 	0.8058	0.4121	0.2113	0.143
Mof_C 	C 	0.7398	0.3853	0.0799	0.354
Mof_C 	C 	0.7318	0.3899	0.0514	-0.142
Mof_C 	C 	0.7501	0.4019	0.0338	0.129
Mof_O 	O 	0.7834	0.9025	0.6435	-0.587
Mof_O 	O 	0.7715	0.8805	0.6789	-0.378
Mof_O 	O 	0.8401	0.9415	0.7659	-0.264
Mof_O 	O 	0.76137	0.89428	0.58872	-0.489
Mof_O 	O 	0.72403	0.87349	0.59459	-0.523
Mof_O 	O 	0.75322	0.92211	0.46556	-0.289
Mof_O 	O 	0.78935	0.93016	0.38798	-0.303
Mof_C 	C 	0.7853	0.8973	0.667	0.407
Mof_C 	C 	0.8034	0.913	0.6836	-0.176
Mof_C 	C 	0.8058	0.9121	0.7113	0.143
Mof_C 	C 	0.7398	0.8853	0.5799	0.354
Mof_C 	C 	0.7318	0.8899	0.5514	-0.141
Mof_C 	C 	0.7501	0.9019	0.5338	0.128
Mof_O 	O 	0.4666	0.8475	0.1435	-0.587
Mof_O 	O 	0.4785	0.8695	0.1789	-0.378
Mof_O 	O 	0.4099	0.8085	0.2659	-0.264
Mof_O 	O 	0.48863	0.85572	0.08872	-0.489
Mof_O 	O 	0.52597	0.87651	0.09459	-0.523
Mof_O 	O 	0.49678	0.82789	0.96556	-0.289
Mof_O 	O 	0.46065	0.81984	0.88798	-0.303
Mof_C 	C 	0.4647	0.8527	0.167	0.407
Mof_C 	C 	0.4466	0.837	0.1836	-0.176
Mof_C 	C 	0.4442	0.8379	0.2113	0.143
Mof_C 	C 	0.5102	0.8647	0.0799	0.354
Mof_C 	C 	0.5182	0.8601	0.0514	-0.142
Mof_C 	C 	0.4999	0.8481	0.0338	0.129
Mof_O 	O 	0.4666	0.3475	0.6435	-0.587
Mof_O 	O 	0.4785	0.3695	0.6789	-0.378
Mof_O 	O 	0.4099	0.3085	0.7659	-0.264
Mof_O 	O 	0.48863	0.35572	0.58872	-0.489
Mof_O 	O 	0.52597	0.37651	0.59459	-0.523
Mof_O 	O 	0.49678	0.32789	0.46556	-0.289
Mof_O 	O 	0.46065	0.31984	0.38798	-0.303
Mof_C 	C 	0.4647	0.3527	0.667	0.407
Mof_C 	C 	0.4466	0.337	0.6836	-0.176
Mof_C 	C 	0.4442	0.3379	0.7113	0.143
Mof_C 	C 	0.5102	0.3647	0.5799	0.354
Mof_C 	C 	0.5182	0.3601	0.5514	-0.141
Mof_C 	C 	0.4999	0.3481	0.5338	0.128
Mof_O 	O 	0.9666	0.8475	0.6435	-0.586
Mof_O 	O 	0.9785	0.8695	0.6789	-0.377
Mof_O 	O 	0.9099	0.8085	0.7659	-0.264
Mof_O 	O 	0.98863	0.85572	0.58872	-0.487
Mof_O 	O 	0.02597	0.87651	0.59459	-0.522
Mof_O 	O 	0.99678	0.82789	0.46556	-0.289
Mof_O 	O 	0.96065	0.81984	0.38798	-0.303
Mof_C 	C 	0.9647	0.8527	0.667	0.407
Mof_C 	C 	0.9466	0.837	0.6836	-0.176
Mof_C 	C 	0.9442	0.8379	0.7113	0.143
Mof_C 	C 	0.0102	0.8647	0.5799	0.352
Mof_C 	C 	0.0182	0.8601	0.5514	-0.143
Mof_C 	C 	0.9999	0.8481	0.5338	0.132
Mof_O 	O 	0.9666	0.3475	0.1435	-0.586
Mof_O 	O 	0.9785	0.3695	0.1789	-0.377
Mof_O 	O 	0.9099	0.3085	0.2659	-0.264
Mof_O 	O 	0.98863	0.35572	0.08872	-0.487
Mof_O 	O 	0.02597	0.37651	0.09459	-0.522
Mof_O 	O 	0.99678	0.32789	0.96556	-0.289
Mof_O 	O 	0.96065	0.31984	0.88798	-0.303
Mof_C 	C 	0.9647	0.3527	0.167	0.407
Mof_C 	C 	0.9466	0.337	0.1836	-0.176
Mof_C 	C 	0.9442	0.3379	0.2113	0.143
Mof_C 	C 	0.0102	0.3647	0.0799	0.352
Mof_C 	C 	0.0182	0.3601	0.0514	-0.144
Mof_C 	C 	0.9999	0.3481	0.0338	0.133
Mof_O 	O 	0.9666	0.9025	0.1065	-0.586
Mof_O 	O 	0.9785	0.8805	0.0711	-0.378
Mof_O 	O 	0.9099	0.9415	0.9841	-0.264
Mof_O 	O 	0.98863	0.89428	0.16128	-0.487
Mof_O 	O 	0.02597	0.87349	0.15541	-0.522
Mof_O 	O 	0.99678	0.92211	0.28444	-0.289
Mof_O 	O 	0.96065	0.93016	0.36202	-0.303
Mof_C 	C 	0.9647	0.8973	0.083	0.407
Mof_C 	C 	0.9466	0.913	0.0664	-0.176
Mof_C 	C 	0.9442	0.9121	0.0387	0.143
Mof_C 	C 	0.0102	0.8853	0.1701	0.352
Mof_C 	C 	0.0182	0.8899	0.1986	-0.143
Mof_C 	C 	0.9999	0.9019	0.2162	0.132
Mof_O 	O 	0.9666	0.4025	0.6065	-0.586
Mof_O 	O 	0.9785	0.3805	0.5711	-0.377
Mof_O 	O 	0.9099	0.4415	0.4841	-0.264
Mof_O 	O 	0.98863	0.39428	0.66128	-0.487
Mof_O 	O 	0.02597	0.37349	0.65541	-0.522
Mof_O 	O 	0.99678	0.42211	0.78444	-0.289
Mof_O 	O 	0.96065	0.43016	0.86202	-0.303
Mof_C 	C 	0.9647	0.3973	0.583	0.407
Mof_C 	C 	0.9466	0.413	0.5664	-0.176
Mof_C 	C 	0.9442	0.4121	0.5387	0.143
Mof_C 	C 	0.0102	0.3853	0.6701	0.352
Mof_C 	C 	0.0182	0.3899	0.6986	-0.143
Mof_C 	C 	0.9999	0.4019	0.7162	0.132
Mof_O 	O 	0.4666	0.9025	0.6065	-0.587
Mof_O 	O 	0.4785	0.8805	0.5711	-0.378
Mof_O 	O 	0.4099	0.9415	0.4841	-0.264
Mof_O 	O 	0.48863	0.89428	0.66128	-0.489
Mof_O 	O 	0.52597	0.87349	0.65541	-0.523
Mof_O 	O 	0.49678	0.92211	0.78444	-0.289
Mof_O 	O 	0.46065	0.93016	0.86202	-0.303
Mof_C 	C 	0.4647	0.8973	0.583	0.407
Mof_C 	C 	0.4466	0.913	0.5664	-0.176
Mof_C 	C 	0.4442	0.9121	0.5387	0.143
Mof_C 	C 	0.5102	0.8853	0.6701	0.354
Mof_C 	C 	0.5182	0.8899	0.6986	-0.141
Mof_C 	C 	0.4999	0.9019	0.7162	0.128
Mof_O 	O 	0.4666	0.4025	0.1065	-0.587
Mof_O 	O 	0.4785	0.3805	0.0711	-0.379
Mof_O 	O 	0.4099	0.4415	0.9841	-0.264
Mof_O 	O 	0.48863	0.39428	0.16128	-0.489
Mof_O 	O 	0.52597	0.37349	0.15541	-0.523
Mof_O 	O 	0.49678	0.42211	0.28444	-0.289
Mof_O 	O 	0.46065	0.43016	0.36202	-0.303
Mof_C 	C 	0.4647	0.3973	0.083	0.407
Mof_C 	C 	0.4466	0.413	0.0664	-0.176
Mof_C 	C 	0.4442	0.4121	0.0387	0.143
Mof_C 	C 	0.5102	0.3853	0.1701	0.354
Mof_C 	C 	0.5182	0.3899	0.1986	-0.141
Mof_C 	C 	0.4999	0.4019	0.2162	0.128
Mof_O 	O 	0.1065	0.9025	0.9666	-0.586
Mof_O 	O 	0.0711	0.8805	0.9785	-0.378
Mof_O 	O 	0.9841	0.9415	0.9099	-0.264
Mof_O 	O 	0.16128	0.89428	0.98863	-0.487
Mof_O 	O 	0.15541	0.87349	0.02597	-0.522
Mof_O 	O 	0.28444	0.92211	0.99678	-0.289
Mof_O 	O 	0.36202	0.93016	0.96065	-0.303
Mof_C 	C 	0.083	0.8973	0.9647	0.407
Mof_C 	C 	0.0664	0.913	0.9466	-0.176
Mof_C 	C 	0.0387	0.9121	0.9442	0.143
Mof_C 	C 	0.1701	0.8853	0.0102	0.352
Mof_C 	C 	0.1986	0.8899	0.0182	-0.143
Mof_C 	C 	0.2162	0.9019	0.9999	0.132
Mof_O 	O 	0.1065	0.4025	0.4666	-0.587
Mof_O 	O 	0.0711	0.3805	0.4785	-0.379
Mof_O 	O 	0.9841	0.4415	0.4099	-0.264
Mof_O 	O 	0.16128	0.39428	0.48863	-0.489
Mof_O 	O 	0.15541	0.37349	0.52597	-0.523
Mof_O 	O 	0.28444	0.42211	0.49678	-0.289
Mof_O 	O 	0.36202	0.43016	0.46065	-0.303
Mof_C 	C 	0.083	0.3973	0.4647	0.407
Mof_C 	C 	0.0664	0.413	0.4466	-0.176
Mof_C 	C 	0.0387	0.4121	0.4442	0.143
Mof_C 	C 	0.1701	0.3853	0.5102	0.354
Mof_C 	C 	0.1986	0.3899	0.5182	-0.141
Mof_C 	C 	0.2162	0.4019	0.4999	0.128
Mof_O 	O 	0.6065	0.9025	0.4666	-0.587
Mof_O 	O 	0.5711	0.8805	0.4785	-0.378
Mof_O 	O 	0.4841	0.9415	0.4099	-0.264
Mof_O 	O 	0.66128	0.89428	0.48863	-0.489
Mof_O 	O 	0.65541	0.87349	0.52597	-0.523
Mof_O 	O 	0.78444	0.92211	0.49678	-0.289
Mof_O 	O 	0.86202	0.93016	0.46065	-0.303
Mof_C 	C 	0.583	0.8973	0.4647	0.407
Mof_C 	C 	0.5664	0.913	0.4466	-0.176
Mof_C 	C 	0.5387	0.9121	0.4442	0.143
Mof_C 	C 	0.6701	0.8853	0.5102	0.354
Mof_C 	C 	0.6986	0.8899	0.5182	-0.141
Mof_C 	C 	0.7162	0.9019	0.4999	0.128
Mof_O 	O 	0.6065	0.4025	0.9666	-0.586
Mof_O 	O 	0.5711	0.3805	0.9785	-0.377
Mof_O 	O 	0.4841	0.4415	0.9099	-0.264
Mof_O 	O 	0.66128	0.39428	0.98863	-0.487
Mof_O 	O 	0.65541	0.37349	0.02597	-0.522
Mof_O 	O 	0.78444	0.42211	0.99678	-0.289
Mof_O 	O 	0.86202	0.43016	0.96065	-0.303
Mof_C 	C 	0.583	0.3973	0.9647	0.407
Mof_C 	C 	0.5664	0.413	0.9466	-0.176
Mof_C 	C 	0.5387	0.4121	0.9442	0.143
Mof_C 	C 	0.6701	0.3853	0.0102	0.352
Mof_C 	C 	0.6986	0.3899	0.0182	-0.143
Mof_C 	C 	0.7162	0.4019	0.9999	0.132
Mof_O 	O 	0.1435	0.8475	0.4666	-0.587
Mof_O 	O 	0.1789	0.8695	0.4785	-0.378
Mof_O 	O 	0.2659	0.8085	0.4099	-0.264
Mof_O 	O 	0.08872	0.85572	0.48863	-0.489
Mof_O 	O 	0.09459	0.87651	0.52597	-0.523
Mof_O 	O 	0.96556	0.82789	0.49678	-0.289
Mof_O 	O 	0.88798	0.81984	0.46065	-0.303
Mof_C 	C 	0.167	0.8527	0.4647	0.407
Mof_C 	C 	0.1836	0.837	0.4466	-0.176
Mof_C 	C 	0.2113	0.8379	0.4442	0.143
Mof_C 	C 	0.0799	0.8647	0.5102	0.354
Mof_C 	C 	0.0514	0.8601	0.5182	-0.142
Mof_C 	C 	0.0338	0.8481	0.4999	0.129
Mof_O 	O 	0.1435	0.3475	0.9666	-0.586
Mof_O 	O 	0.1789	0.3695	0.9785	-0.377
Mof_O 	O 	0.2659	0.3085	0.9099	-0.264
Mof_O 	O 	0.08872	0.35572	0.98863	-0.487
Mof_O 	O 	0.09459	0.37651	0.02597	-0.522
Mof_O 	O 	0.96556	0.32789	0.99678	-0.289
Mof_O 	O 	0.88798	0.31984	0.96065	-0.303
Mof_C 	C 	0.167	0.3527	0.9647	0.407
Mof_C 	C 	0.1836	0.337	0.9466	-0.176
Mof_C 	C 	0.2113	0.3379	0.9442	0.143
Mof_C 	C 	0.0799	0.3647	0.0102	0.352
Mof_C 	C 	0.0514	0.3601	0.0182	-0.144
Mof_C 	C 	0.0338	0.3481	0.9999	0.133
Mof_O 	O 	0.6435	0.8475	0.9666	-0.586
Mof_O 	O 	0.6789	0.8695	0.9785	-0.377
Mof_O 	O 	0.7659	0.8085	0.9099	-0.264
Mof_O 	O 	0.58872	0.85572	0.98863	-0.487
Mof_O 	O 	0.59459	0.87651	0.02597	-0.522
Mof_O 	O 	0.46556	0.82789	0.99678	-0.289
Mof_O 	O 	0.38798	0.81984	0.96065	-0.303
Mof_C 	C 	0.667	0.8527	0.9647	0.407
Mof_C 	C 	0.6836	0.837	0.9466	-0.176
Mof_C 	C 	0.7113	0.8379	0.9442	0.143
Mof_C 	C 	0.5799	0.8647	0.0102	0.352
Mof_C 	C 	0.5514	0.8601	0.0182	-0.143
Mof_C 	C 	0.5338	0.8481	0.9999	0.132
Mof_O 	O 	0.6435	0.3475	0.4666	-0.587
Mof_O 	O 	0.6789	0.3695	0.4785	-0.378
Mof_O 	O 	0.7659	0.3085	0.4099	-0.264
Mof_O 	O 	0.58872	0.35572	0.48863	-0.489
Mof_O 	O 	0.59459	0.37651	0.52597	-0.523
Mof_O 	O 	0.46556	0.32789	0.49678	-0.289
Mof_O 	O 	0.38798	0.31984	0.46065	-0.303
Mof_C 	C 	0.667	0.3527	0.4647	0.407
Mof_C 	C 	0.6836	0.337	0.4466	-0.176
Mof_C 	C 	0.7113	0.3379	0.4442	0.143
Mof_C 	C 	0.5799	0.3647	0.5102	0.354
Mof_C 	C 	0.5514	0.3601	0.5182	-0.141
Mof_C 	C 	0.5338	0.3481	0.4999	0.128
Mof_O 	O 	0.6435	0.4025	0.2834	-0.587
Mof_O 	O 	0.6789	0.3805	0.2715	-0.378
Mof_O 	O 	0.7659	0.4415	0.3401	-0.264
Mof_O 	O 	0.58872	0.39428	0.26137	-0.489
Mof_O 	O 	0.59459	0.37349	0.22403	-0.523
Mof_O 	O 	0.46556	0.42211	0.25322	-0.289
Mof_O 	O 	0.38798	0.43016	0.28935	-0.303
Mof_C 	C 	0.667	0.3973	0.2853	0.407
Mof_C 	C 	0.6836	0.413	0.3034	-0.176
Mof_C 	C 	0.7113	0.4121	0.3058	0.143
Mof_C 	C 	0.5799	0.3853	0.2398	0.354
Mof_C 	C 	0.5514	0.3899	0.2318	-0.141
Mof_C 	C 	0.5338	0.4019	0.2501	0.128
Mof_O 	O 	0.6435	0.9025	0.7834	-0.587
Mof_O 	O 	0.6789	0.8805	0.7715	-0.378
Mof_O 	O 	0.7659	0.9415	0.8401	-0.264
Mof_O 	O 	0.58872	0.89428	0.76137	-0.489
Mof_O 	O 	0.59459	0.87349	0.72403	-0.523
Mof_O 	O 	0.46556	0.92211	0.75322	-0.289
Mof_O 	O 	0.38798	0.93016	0.78935	-0.303
Mof_C 	C 	0.667	0.8973	0.7853	0.407
Mof_C 	C 	0.6836	0.913	0.8034	-0.176
Mof_C 	C 	0.7113	0.9121	0.8058	0.143
Mof_C 	C 	0.5799	0.8853	0.7398	0.354
Mof_C 	C 	0.5514	0.8899	0.7318	-0.141
Mof_C 	C 	0.5338	0.9019	0.7501	0.128
Mof_O 	O 	0.1435	0.4025	0.7834	-0.587
Mof_O 	O 	0.1789	0.3805	0.7715	-0.378
Mof_O 	O 	0.2659	0.4415	0.8401	-0.264
Mof_O 	O 	0.08872	0.39428	0.76137	-0.489
Mof_O 	O 	0.09459	0.37349	0.72403	-0.523
Mof_O 	O 	0.96556	0.42211	0.75322	-0.289
Mof_O 	O 	0.88798	0.43016	0.78935	-0.303
Mof_C 	C 	0.167	0.3973	0.7853	0.407
Mof_C 	C 	0.1836	0.413	0.8034	-0.176
Mof_C 	C 	0.2113	0.4121	0.8058	0.143
Mof_C 	C 	0.0799	0.3853	0.7398	0.354
Mof_C 	C 	0.0514	0.3899	0.7318	-0.142
Mof_C 	C 	0.0338	0.4019	0.7501	0.129
Mof_O 	O 	0.1435	0.9025	0.2834	-0.587
Mof_O 	O 	0.1789	0.8805	0.2715	-0.378
Mof_O 	O 	0.2659	0.9415	0.3401	-0.264
Mof_O 	O 	0.08872	0.89428	0.26137	-0.489
Mof_O 	O 	0.09459	0.87349	0.22403	-0.523
Mof_O 	O 	0.96556	0.92211	0.25322	-0.289
Mof_O 	O 	0.88798	0.93016	0.28935	-0.303
Mof_C 	C 	0.167	0.8973	0.2853	0.407
Mof_C 	C 	0.1836	0.913	0.3034	-0.176
Mof_C 	C 	0.2113	0.9121	0.3058	0.143
Mof_C 	C 	0.0799	0.8853	0.2398	0.354
Mof_C 	C 	0.0514	0.8899	0.2318	-0.142
Mof_C 	C 	0.0338	0.9019	0.2501	0.129
Mof_O 	O 	0.6065	0.3475	0.7834	-0.587
Mof_O 	O 	0.5711	0.3695	0.7715	-0.378
Mof_O 	O 	0.4841	0.3085	0.8401	-0.264
Mof_O 	O 	0.66128	0.35572	0.76137	-0.489
Mof_O 	O 	0.65541	0.37651	0.72403	-0.523
Mof_O 	O 	0.78444	0.32789	0.75322	-0.289
Mof_O 	O 	0.86202	0.31984	0.78935	-0.303
Mof_C 	C 	0.583	0.3527	0.7853	0.407
Mof_C 	C 	0.5664	0.337	0.8034	-0.176
Mof_C 	C 	0.5387	0.3379	0.8058	0.143
Mof_C 	C 	0.6701	0.3647	0.7398	0.354
Mof_C 	C 	0.6986	0.3601	0.7318	-0.141
Mof_C 	C 	0.7162	0.3481	0.7501	0.128
Mof_O 	O 	0.6065	0.8475	0.2834	-0.587
Mof_O 	O 	0.5711	0.8695	0.2715	-0.378
Mof_O 	O 	0.4841	0.8085	0.3401	-0.264
Mof_O 	O 	0.66128	0.85572	0.26137	-0.489
Mof_O 	O 	0.65541	0.87651	0.22403	-0.522
Mof_O 	O 	0.78444	0.82789	0.25322	-0.289
Mof_O 	O 	0.86202	0.81984	0.28935	-0.303
Mof_C 	C 	0.583	0.8527	0.2853	0.407
Mof_C 	C 	0.5664	0.837	0.3034	-0.176
Mof_C 	C 	0.5387	0.8379	0.3058	0.143
Mof_C 	C 	0.6701	0.8647	0.2398	0.354
Mof_C 	C 	0.6986	0.8601	0.2318	-0.141
Mof_C 	C 	0.7162	0.8481	0.2501	0.128
Mof_O 	O 	0.1065	0.3475	0.2834	-0.587
Mof_O 	O 	0.0711	0.3695	0.2715	-0.379
Mof_O 	O 	0.9841	0.3085	0.3401	-0.264
Mof_O 	O 	0.16128	0.35572	0.26137	-0.489
Mof_O 	O 	0.15541	0.37651	0.22403	-0.523
Mof_O 	O 	0.28444	0.32789	0.25322	-0.289
Mof_O 	O 	0.36202	0.31984	0.28935	-0.303
Mof_C 	C 	0.083	0.3527	0.2853	0.407
Mof_C 	C 	0.0664	0.337	0.3034	-0.176
Mof_C 	C 	0.0387	0.3379	0.3058	0.143
Mof_C 	C 	0.1701	0.3647	0.2398	0.354
Mof_C 	C 	0.1986	0.3601	0.2318	-0.141
Mof_C 	C 	0.2162	0.3481	0.2501	0.128
Mof_O 	O 	0.1065	0.8475	0.7834	-0.587
Mof_O 	O 	0.0711	0.8695	0.7715	-0.379
Mof_O 	O 	0.9841	0.8085	0.8401	-0.264
Mof_O 	O 	0.16128	0.85572	0.76137	-0.489
Mof_O 	O 	0.15541	0.87651	0.72403	-0.522
Mof_O 	O 	0.28444	0.82789	0.75322	-0.289
Mof_O 	O 	0.36202	0.81984	0.78935	-0.303
Mof_C 	C 	0.083	0.8527	0.7853	0.407
Mof_C 	C 	0.0664	0.837	0.8034	-0.176
Mof_C 	C 	0.0387	0.8379	0.8058	0.143
Mof_C 	C 	0.1701	0.8647	0.7398	0.354
Mof_C 	C 	0.1986	0.8601	0.7318	-0.141
Mof_C 	C 	0.2162	0.8481	0.7501	0.128
Mof_O 	O 	0.9666	0.1065	0.9025	-0.586
Mof_O 	O 	0.9785	0.0711	0.8805	-0.378
Mof_O 	O 	0.9099	0.9841	0.9415	-0.264
Mof_O 	O 	0.98863	0.16128	0.89428	-0.487
Mof_O 	O 	0.02597	0.15541	0.87349	-0.522
Mof_O 	O 	0.99678	0.28444	0.92211	-0.289
Mof_O 	O 	0.96065	0.36202	0.93016	-0.303
Mof_C 	C 	0.9647	0.083	0.8973	0.407
Mof_C 	C 	0.9466	0.0664	0.913	-0.176
Mof_C 	C 	0.9442	0.0387	0.9121	0.143
Mof_C 	C 	0.0102	0.1701	0.8853	0.352
Mof_C 	C 	0.0182	0.1986	0.8899	-0.143
Mof_C 	C 	0.9999	0.2162	0.9019	0.132
Mof_O 	O 	0.9666	0.6065	0.4025	-0.586
Mof_O 	O 	0.9785	0.5711	0.3805	-0.377
Mof_O 	O 	0.9099	0.4841	0.4415	-0.264
Mof_O 	O 	0.98863	0.66128	0.39428	-0.487
Mof_O 	O 	0.02597	0.65541	0.37349	-0.522
Mof_O 	O 	0.99678	0.78444	0.42211	-0.289
Mof_O 	O 	0.96065	0.86202	0.43016	-0.303
Mof_C 	C 	0.9647	0.583	0.3973	0.407
Mof_C 	C 	0.9466	0.5664	0.413	-0.176
Mof_C 	C 	0.9442	0.5387	0.4121	0.143
Mof_C 	C 	0.0102	0.6701	0.3853	0.352
Mof_C 	C 	0.0182	0.6986	0.3899	-0.143
Mof_C 	C 	0.9999	0.7162	0.4019	0.132
Mof_O 	O 	0.4666	0.1065	0.4025	-0.587
Mof_O 	O 	0.4785	0.0711	0.3805	-0.379
Mof_O 	O 	0.4099	0.9841	0.4415	-0.264
Mof_O 	O 	0.48863	0.16128	0.39428	-0.489
Mof_O 	O 	0.52597	0.15541	0.37349	-0.523
Mof_O 	O 	0.49678	0.28444	0.42211	-0.289
Mof_O 	O 	0.46065	0.36202	0.43016	-0.303
Mof_C 	C 	0.4647	0.083	0.3973	0.407
Mof_C 	C 	0.4466	0.0664	0.413	-0.176
Mof_C 	C 	0.4442	0.0387	0.4121	0.143
Mof_C 	C 	0.5102	0.1701	0.3853	0.354
Mof_C 	C 	0.5182	0.1986	0.3899	-0.141
Mof_C 	C 	0.4999	0.2162	0.4019	0.128
Mof_O 	O 	0.4666	0.6065	0.9025	-0.587
Mof_O 	O 	0.4785	0.5711	0.8805	-0.378
Mof_O 	O 	0.4099	0.4841	0.9415	-0.264
Mof_O 	O 	0.48863	0.66128	0.89428	-0.489
Mof_O 	O 	0.52597	0.65541	0.87349	-0.523
Mof_O 	O 	0.49678	0.78444	0.92211	-0.289
Mof_O 	O 	0.46065	0.86202	0.93016	-0.303
Mof_C 	C 	0.4647	0.583	0.8973	0.407
Mof_C 	C 	0.4466	0.5664	0.913	-0.176
Mof_C 	C 	0.4442	0.5387	0.9121	0.143
Mof_C 	C 	0.5102	0.6701	0.8853	0.354
Mof_C 	C 	0.5182	0.6986	0.8899	-0.141
Mof_C 	C 	0.4999	0.7162	0.9019	0.128
Mof_O 	O 	0.4666	0.1435	0.8475	-0.587
Mof_O 	O 	0.4785	0.1789	0.8695	-0.378
Mof_O 	O 	0.4099	0.2659	0.8085	-0.264
Mof_O 	O 	0.48863	0.08872	0.85572	-0.489
Mof_O 	O 	0.52597	0.09459	0.87651	-0.523
Mof_O 	O 	0.49678	0.96556	0.82789	-0.289
Mof_O 	O 	0.46065	0.88798	0.81984	-0.303
Mof_C 	C 	0.4647	0.167	0.8527	0.407
Mof_C 	C 	0.4466	0.1836	0.837	-0.176
Mof_C 	C 	0.4442	0.2113	0.8379	0.143
Mof_C 	C 	0.5102	0.0799	0.8647	0.354
Mof_C 	C 	0.5182	0.0514	0.8601	-0.142
Mof_C 	C 	0.4999	0.0338	0.8481	0.129
Mof_O 	O 	0.4666	0.6435	0.3475	-0.587
Mof_O 	O 	0.4785	0.6789	0.3695	-0.378
Mof_O 	O 	0.4099	0.7659	0.3085	-0.264
Mof_O 	O 	0.48863	0.58872	0.35572	-0.489
Mof_O 	O 	0.52597	0.59459	0.37651	-0.523
Mof_O 	O 	0.49678	0.46556	0.32789	-0.289
Mof_O 	O 	0.46065	0.38798	0.31984	-0.303
Mof_C 	C 	0.4647	0.667	0.3527	0.407
Mof_C 	C 	0.4466	0.6836	0.337	-0.176
Mof_C 	C 	0.4442	0.7113	0.3379	0.143
Mof_C 	C 	0.5102	0.5799	0.3647	0.354
Mof_C 	C 	0.5182	0.5514	0.3601	-0.141
Mof_C 	C 	0.4999	0.5338	0.3481	0.128
Mof_O 	O 	0.9666	0.1435	0.3475	-0.586
Mof_O 	O 	0.9785	0.1789	0.3695	-0.377
Mof_O 	O 	0.9099	0.2659	0.3085	-0.264
Mof_O 	O 	0.98863	0.08872	0.35572	-0.487
Mof_O 	O 	0.02597	0.09459	0.37651	-0.522
Mof_O 	O 	0.99678	0.96556	0.32789	-0.289
Mof_O 	O 	0.96065	0.88798	0.31984	-0.303
Mof_C 	C 	0.9647	0.167	0.3527	0.407
Mof_C 	C 	0.9466	0.1836	0.337	-0.176
Mof_C 	C 	0.9442	0.2113	0.3379	0.143
Mof_C 	C 	0.0102	0.0799	0.3647	0.352
Mof_C 	C 	0.0182	0.0514	0.3601	-0.144
Mof_C 	C 	0.9999	0.0338	0.3481	0.133
Mof_O 	O 	0.9666	0.6435	0.8475	-0.586
Mof_O 	O 	0.9785	0.6789	0.8695	-0.377
Mof_O 	O 	0.9099	0.7659	0.8085	-0.264
Mof_O 	O 	0.98863	0.58872	0.85572	-0.487
Mof_O 	O 	0.02597	0.59459	0.87651	-0.522
Mof_O 	O 	0.99678	0.46556	0.82789	-0.289
Mof_O 	O 	0.96065	0.38798	0.81984	-0.303
Mof_C 	C 	0.9647	0.667	0.8527	0.407
Mof_C 	C 	0.9466	0.6836	0.837	-0.176
Mof_C 	C 	0.9442	0.7113	0.8379	0.143
Mof_C 	C 	0.0102	0.5799	0.8647	0.352
Mof_C 	C 	0.0182	0.5514	0.8601	-0.143
Mof_C 	C 	0.9999	0.5338	0.8481	0.132
Mof_O 	O 	0.2834	0.6435	0.4025	-0.587
Mof_O 	O 	0.2715	0.6789	0.3805	-0.378
Mof_O 	O 	0.3401	0.7659	0.4415	-0.264
Mof_O 	O 	0.26137	0.58872	0.39428	-0.489
Mof_O 	O 	0.22403	0.59459	0.37349	-0.523
Mof_O 	O 	0.25322	0.46556	0.42211	-0.289
Mof_O 	O 	0.28935	0.38798	0.43016	-0.303
Mof_C 	C 	0.2853	0.667	0.3973	0.407
Mof_C 	C 	0.3034	0.6836	0.413	-0.176
Mof_C 	C 	0.3058	0.7113	0.4121	0.143
Mof_C 	C 	0.2398	0.5799	0.3853	0.354
Mof_C 	C 	0.2318	0.5514	0.3899	-0.141
Mof_C 	C 	0.2501	0.5338	0.4019	0.128
Mof_O 	O 	0.2834	0.1435	0.9025	-0.587
Mof_O 	O 	0.2715	0.1789	0.8805	-0.378
Mof_O 	O 	0.3401	0.2659	0.9415	-0.264
Mof_O 	O 	0.26137	0.08872	0.89428	-0.489
Mof_O 	O 	0.22403	0.09459	0.87349	-0.523
Mof_O 	O 	0.25322	0.96556	0.92211	-0.289
Mof_O 	O 	0.28935	0.88798	0.93016	-0.303
Mof_C 	C 	0.2853	0.167	0.8973	0.407
Mof_C 	C 	0.3034	0.1836	0.913	-0.176
Mof_C 	C 	0.3058	0.2113	0.9121	0.143
Mof_C 	C 	0.2398	0.0799	0.8853	0.354
Mof_C 	C 	0.2318	0.0514	0.8899	-0.142
Mof_C 	C 	0.2501	0.0338	0.9019	0.129
Mof_O 	O 	0.7834	0.6435	0.9025	-0.587
Mof_O 	O 	0.7715	0.6789	0.8805	-0.378
Mof_O 	O 	0.8401	0.7659	0.9415	-0.264
Mof_O 	O 	0.76137	0.58872	0.89428	-0.489
Mof_O 	O 	0.72403	0.59459	0.87349	-0.523
Mof_O 	O 	0.75322	0.46556	0.92211	-0.289
Mof_O 	O 	0.78935	0.38798	0.93016	-0.303
Mof_C 	C 	0.7853	0.667	0.8973	0.407
Mof_C 	C 	0.8034	0.6836	0.913	-0.176
Mof_C 	C 	0.8058	0.7113	0.9121	0.143
Mof_C 	C 	0.7398	0.5799	0.8853	0.354
Mof_C 	C 	0.7318	0.5514	0.8899	-0.141
Mof_C 	C 	0.7501	0.5338	0.9019	0.128
Mof_O 	O 	0.7834	0.1435	0.4025	-0.587
Mof_O 	O 	0.7715	0.1789	0.3805	-0.378
Mof_O 	O 	0.8401	0.2659	0.4415	-0.264
Mof_O 	O 	0.76137	0.08872	0.39428	-0.489
Mof_O 	O 	0.72403	0.09459	0.37349	-0.523
Mof_O 	O 	0.75322	0.96556	0.42211	-0.289
Mof_O 	O 	0.78935	0.88798	0.43016	-0.303
Mof_C 	C 	0.7853	0.167	0.3973	0.407
Mof_C 	C 	0.8034	0.1836	0.413	-0.176
Mof_C 	C 	0.8058	0.2113	0.4121	0.143
Mof_C 	C 	0.7398	0.0799	0.3853	0.354
Mof_C 	C 	0.7318	0.0514	0.3899	-0.142
Mof_C 	C 	0.7501	0.0338	0.4019	0.129
Mof_O 	O 	0.7834	0.6065	0.3475	-0.587
Mof_O 	O 	0.7715	0.5711	0.3695	-0.378
Mof_O 	O 	0.8401	0.4841	0.3085	-0.264
Mof_O 	O 	0.76137	0.66128	0.35572	-0.489
Mof_O 	O 	0.72403	0.65541	0.37651	-0.523
Mof_O 	O 	0.75322	0.78444	0.32789	-0.289
Mof_O 	O 	0.78935	0.86202	0.31984	-0.303
Mof_C 	C 	0.7853	0.583	0.3527	0.407
Mof_C 	C 	0.8034	0.5664	0.337	-0.176
Mof_C 	C 	0.8058	0.5387	0.3379	0.143
Mof_C 	C 	0.7398	0.6701	0.3647	0.354
Mof_C 	C 	0.7318	0.6986	0.3601	-0.141
Mof_C 	C 	0.7501	0.7162	0.3481	0.128
Mof_O 	O 	0.7834	0.1065	0.8475	-0.587
Mof_O 	O 	0.7715	0.0711	0.8695	-0.379
Mof_O 	O 	0.8401	0.9841	0.8085	-0.264
Mof_O 	O 	0.76137	0.16128	0.85572	-0.489
Mof_O 	O 	0.72403	0.15541	0.87651	-0.522
Mof_O 	O 	0.75322	0.28444	0.82789	-0.289
Mof_O 	O 	0.78935	0.36202	0.81984	-0.303
Mof_C 	C 	0.7853	0.083	0.8527	0.407
Mof_C 	C 	0.8034	0.0664	0.837	-0.176
Mof_C 	C 	0.8058	0.0387	0.8379	0.143
Mof_C 	C 	0.7398	0.1701	0.8647	0.354
Mof_C 	C 	0.7318	0.1986	0.8601	-0.141
Mof_C 	C 	0.7501	0.2162	0.8481	0.128
Mof_O 	O 	0.2834	0.6065	0.8475	-0.587
Mof_O 	O 	0.2715	0.5711	0.8695	-0.378
Mof_O 	O 	0.3401	0.4841	0.8085	-0.264
Mof_O 	O 	0.26137	0.66128	0.85572	-0.489
Mof_O 	O 	0.22403	0.65541	0.87651	-0.522
Mof_O 	O 	0.25322	0.78444	0.82789	-0.289
Mof_O 	O 	0.28935	0.86202	0.81984	-0.303
Mof_C 	C 	0.2853	0.583	0.8527	0.407
Mof_C 	C 	0.3034	0.5664	0.837	-0.176
Mof_C 	C 	0.3058	0.5387	0.8379	0.143
Mof_C 	C 	0.2398	0.6701	0.8647	0.354
Mof_C 	C 	0.2318	0.6986	0.8601	-0.141
Mof_C 	C 	0.2501	0.7162	0.8481	0.128
Mof_O 	O 	0.2834	0.1065	0.3475	-0.587
Mof_O 	O 	0.2715	0.0711	0.3695	-0.379
Mof_O 	O 	0.3401	0.9841	0.3085	-0.264
Mof_O 	O 	0.26137	0.16128	0.35572	-0.489
Mof_O 	O 	0.22403	0.15541	0.37651	-0.523
Mof_O 	O 	0.25322	0.28444	0.32789	-0.289
Mof_O 	O 	0.28935	0.36202	0.31984	-0.303
Mof_C 	C 	0.2853	0.083	0.3527	0.407
Mof_C 	C 	0.3034	0.0664	0.337	-0.176
Mof_C 	C 	0.3058	0.0387	0.3379	0.143
Mof_C 	C 	0.2398	0.1701	0.3647	0.354
Mof_C 	C 	0.2318	0.1986	0.3601	-0.141
Mof_C 	C 	0.2501	0.2162	0.3481	0.128
Mof_O 	O 	0.9025	0.9666	0.1065	-0.586
Mof_O 	O 	0.8805	0.9785	0.0711	-0.378
Mof_O 	O 	0.9415	0.9099	0.9841	-0.264
Mof_O 	O 	0.89428	0.98863	0.16128	-0.487
Mof_O 	O 	0.87349	0.02597	0.15541	-0.522
Mof_O 	O 	0.92211	0.99678	0.28444	-0.289
Mof_O 	O 	0.93016	0.96065	0.36202	-0.303
Mof_C 	C 	0.8973	0.9647	0.083	0.407
Mof_C 	C 	0.913	0.9466	0.0664	-0.176
Mof_C 	C 	0.9121	0.9442	0.0387	0.143
Mof_C 	C 	0.8853	0.0102	0.1701	0.352
Mof_C 	C 	0.8899	0.0182	0.1986	-0.143
Mof_C 	C 	0.9019	0.9999	0.2162	0.132
Mof_O 	O 	0.9025	0.4666	0.6065	-0.587
Mof_O 	O 	0.8805	0.4785	0.5711	-0.378
Mof_O 	O 	0.9415	0.4099	0.4841	-0.264
Mof_O 	O 	0.89428	0.48863	0.66128	-0.489
Mof_O 	O 	0.87349	0.52597	0.65541	-0.523
Mof_O 	O 	0.92211	0.49678	0.78444	-0.289
Mof_O 	O 	0.93016	0.46065	0.86202	-0.303
Mof_C 	C 	0.8973	0.4647	0.583	0.407
Mof_C 	C 	0.913	0.4466	0.5664	-0.176
Mof_C 	C 	0.9121	0.4442	0.5387	0.143
Mof_C 	C 	0.8853	0.5102	0.6701	0.354
Mof_C 	C 	0.8899	0.5182	0.6986	-0.141
Mof_C 	C 	0.9019	0.4999	0.7162	0.128
Mof_O 	O 	0.4025	0.9666	0.6065	-0.586
Mof_O 	O 	0.3805	0.9785	0.5711	-0.377
Mof_O 	O 	0.4415	0.9099	0.4841	-0.264
Mof_O 	O 	0.39428	0.98863	0.66128	-0.487
Mof_O 	O 	0.37349	0.02597	0.65541	-0.522
Mof_O 	O 	0.42211	0.99678	0.78444	-0.289
Mof_O 	O 	0.43016	0.96065	0.86202	-0.303
Mof_C 	C 	0.3973	0.9647	0.583	0.407
Mof_C 	C 	0.413	0.9466	0.5664	-0.176
Mof_C 	C 	0.4121	0.9442	0.5387	0.143
Mof_C 	C 	0.3853	0.0102	0.6701	0.352
Mof_C 	C 	0.3899	0.0182	0.6986	-0.143
Mof_C 	C 	0.4019	0.9999	0.7162	0.132
Mof_O 	O 	0.4025	0.4666	0.1065	-0.587
Mof_O 	O 	0.3805	0.4785	0.0711	-0.379
Mof_O 	O 	0.4415	0.4099	0.9841	-0.264
Mof_O 	O 	0.39428	0.48863	0.16128	-0.489
Mof_O 	O 	0.37349	0.52597	0.15541	-0.523
Mof_O 	O 	0.42211	0.49678	0.28444	-0.289
Mof_O 	O 	0.43016	0.46065	0.36202	-0.303
Mof_C 	C 	0.3973	0.4647	0.083	0.407
Mof_C 	C 	0.413	0.4466	0.0664	-0.176
Mof_C 	C 	0.4121	0.4442	0.0387	0.143
Mof_C 	C 	0.3853	0.5102	0.1701	0.354
Mof_C 	C 	0.3899	0.5182	0.1986	-0.141
Mof_C 	C 	0.4019	0.4999	0.2162	0.128
Mof_O 	O 	0.8475	0.4666	0.1435	-0.587
Mof_O 	O 	0.8695	0.4785	0.1789	-0.378
Mof_O 	O 	0.8085	0.4099	0.2659	-0.264
Mof_O 	O 	0.85572	0.48863	0.08872	-0.489
Mof_O 	O 	0.87651	0.52597	0.09459	-0.523
Mof_O 	O 	0.82789	0.49678	0.96556	-0.289
Mof_O 	O 	0.81984	0.46065	0.88798	-0.303
Mof_C 	C 	0.8527	0.4647	0.167	0.407
Mof_C 	C 	0.837	0.4466	0.1836	-0.176
Mof_C 	C 	0.8379	0.4442	0.2113	0.143
Mof_C 	C 	0.8647	0.5102	0.0799	0.354
Mof_C 	C 	0.8601	0.5182	0.0514	-0.142
Mof_C 	C 	0.8481	0.4999	0.0338	0.129
Mof_O 	O 	0.8475	0.9666	0.6435	-0.586
Mof_O 	O 	0.8695	0.9785	0.6789	-0.377
Mof_O 	O 	0.8085	0.9099	0.7659	-0.264
Mof_O 	O 	0.85572	0.98863	0.58872	-0.487
Mof_O 	O 	0.87651	0.02597	0.59459	-0.522
Mof_O 	O 	0.82789	0.99678	0.46556	-0.289
Mof_O 	O 	0.81984	0.96065	0.38798	-0.303
Mof_C 	C 	0.8527	0.9647	0.667	0.407
Mof_C 	C 	0.837	0.9466	0.6836	-0.176
Mof_C 	C 	0.8379	0.9442	0.7113	0.143
Mof_C 	C 	0.8647	0.0102	0.5799	0.352
Mof_C 	C 	0.8601	0.0182	0.5514	-0.143
Mof_C 	C 	0.8481	0.9999	0.5338	0.132
Mof_O 	O 	0.3475	0.4666	0.6435	-0.587
Mof_O 	O 	0.3695	0.4785	0.6789	-0.378
Mof_O 	O 	0.3085	0.4099	0.7659	-0.264
Mof_O 	O 	0.35572	0.48863	0.58872	-0.489
Mof_O 	O 	0.37651	0.52597	0.59459	-0.523
Mof_O 	O 	0.32789	0.49678	0.46556	-0.289
Mof_O 	O 	0.31984	0.46065	0.38798	-0.303
Mof_C 	C 	0.3527	0.4647	0.667	0.407
Mof_C 	C 	0.337	0.4466	0.6836	-0.176
Mof_C 	C 	0.3379	0.4442	0.7113	0.143
Mof_C 	C 	0.3647	0.5102	0.5799	0.354
Mof_C 	C 	0.3601	0.5182	0.5514	-0.141
Mof_C 	C 	0.3481	0.4999	0.5338	0.128
Mof_O 	O 	0.3475	0.9666	0.1435	-0.586
Mof_O 	O 	0.3695	0.9785	0.1789	-0.377
Mof_O 	O 	0.3085	0.9099	0.2659	-0.264
Mof_O 	O 	0.35572	0.98863	0.08872	-0.487
Mof_O 	O 	0.37651	0.02597	0.09459	-0.522
Mof_O 	O 	0.32789	0.99678	0.96556	-0.289
Mof_O 	O 	0.31984	0.96065	0.88798	-0.303
Mof_C 	C 	0.3527	0.9647	0.167	0.407
Mof_C 	C 	0.337	0.9466	0.1836	-0.176
Mof_C 	C 	0.3379	0.9442	0.2113	0.143
Mof_C 	C 	0.3647	0.0102	0.0799	0.352
Mof_C 	C 	0.3601	0.0182	0.0514	-0.144
Mof_C 	C 	0.3481	0.9999	0.0338	0.133
Mof_O 	O 	0.4025	0.2834	0.6435	-0.587
Mof_O 	O 	0.3805	0.2715	0.6789	-0.378
Mof_O 	O 	0.4415	0.3401	0.7659	-0.264
Mof_O 	O 	0.39428	0.26137	0.58872	-0.489
Mof_O 	O 	0.37349	0.22403	0.59459	-0.523
Mof_O 	O 	0.42211	0.25322	0.46556	-0.289
Mof_O 	O 	0.43016	0.28935	0.38798	-0.303
Mof_C 	C 	0.3973	0.2853	0.667	0.407
Mof_C 	C 	0.413	0.3034	0.6836	-0.176
Mof_C 	C 	0.4121	0.3058	0.7113	0.143
Mof_C 	C 	0.3853	0.2398	0.5799	0.354
Mof_C 	C 	0.3899	0.2318	0.5514	-0.141
Mof_C 	C 	0.4019	0.2501	0.5338	0.128
Mof_O 	O 	0.4025	0.7834	0.1435	-0.587
Mof_O 	O 	0.3805	0.7715	0.1789	-0.378
Mof_O 	O 	0.4415	0.8401	0.2659	-0.264
Mof_O 	O 	0.39428	0.76137	0.08872	-0.489
Mof_O 	O 	0.37349	0.72403	0.09459	-0.523
Mof_O 	O 	0.42211	0.75322	0.96556	-0.289
Mof_O 	O 	0.43016	0.78935	0.88798	-0.303
Mof_C 	C 	0.3973	0.7853	0.167	0.407
Mof_C 	C 	0.413	0.8034	0.1836	-0.176
Mof_C 	C 	0.4121	0.8058	0.2113	0.143
Mof_C 	C 	0.3853	0.7398	0.0799	0.354
Mof_C 	C 	0.3899	0.7318	0.0514	-0.142
Mof_C 	C 	0.4019	0.7501	0.0338	0.129
Mof_O 	O 	0.9025	0.2834	0.1435	-0.587
Mof_O 	O 	0.8805	0.2715	0.1789	-0.378
Mof_O 	O 	0.9415	0.3401	0.2659	-0.264
Mof_O 	O 	0.89428	0.26137	0.08872	-0.489
Mof_O 	O 	0.87349	0.22403	0.09459	-0.523
Mof_O 	O 	0.92211	0.25322	0.96556	-0.289
Mof_O 	O 	0.93016	0.28935	0.88798	-0.303
Mof_C 	C 	0.8973	0.2853	0.167	0.407
Mof_C 	C 	0.913	0.3034	0.1836	-0.176
Mof_C 	C 	0.9121	0.3058	0.2113	0.143
Mof_C 	C 	0.8853	0.2398	0.0799	0.354
Mof_C 	C 	0.8899	0.2318	0.0514	-0.142
Mof_C 	C 	0.9019	0.2501	0.0338	0.129
Mof_O 	O 	0.9025	0.7834	0.6435	-0.587
Mof_O 	O 	0.8805	0.7715	0.6789	-0.378
Mof_O 	O 	0.9415	0.8401	0.7659	-0.264
Mof_O 	O 	0.89428	0.76137	0.58872	-0.489
Mof_O 	O 	0.87349	0.72403	0.59459	-0.523
Mof_O 	O 	0.92211	0.75322	0.46556	-0.289
Mof_O 	O 	0.93016	0.78935	0.38798	-0.303
Mof_C 	C 	0.8973	0.7853	0.667	0.407
Mof_C 	C 	0.913	0.8034	0.6836	-0.176
Mof_C 	C 	0.9121	0.8058	0.7113	0.143
Mof_C 	C 	0.8853	0.7398	0.5799	0.354
Mof_C 	C 	0.8899	0.7318	0.5514	-0.141
Mof_C 	C 	0.9019	0.7501	0.5338	0.128
Mof_O 	O 	0.3475	0.7834	0.6065	-0.587
Mof_O 	O 	0.3695	0.7715	0.5711	-0.378
Mof_O 	O 	0.3085	0.8401	0.4841	-0.264
Mof_O 	O 	0.35572	0.76137	0.66128	-0.489
Mof_O 	O 	0.37651	0.72403	0.65541	-0.523
Mof_O 	O 	0.32789	0.75322	0.78444	-0.289
Mof_O 	O 	0.31984	0.78935	0.86202	-0.303
Mof_C 	C 	0.3527	0.7853	0.583	0.407
Mof_C 	C 	0.337	0.8034	0.5664	-0.176
Mof_C 	C 	0.3379	0.8058	0.5387	0.143
Mof_C 	C 	0.3647	0.7398	0.6701	0.354
Mof_C 	C 	0.3601	0.7318	0.6986	-0.141
Mof_C 	C 	0.3481	0.7501	0.7162	0.128
Mof_O 	O 	0.3475	0.2834	0.1065	-0.587
Mof_O 	O 	0.3695	0.2715	0.0711	-0.379
Mof_O 	O 	0.3085	0.3401	0.9841	-0.264
Mof_O 	O 	0.35572	0.26137	0.16128	-0.489
Mof_O 	O 	0.37651	0.22403	0.15541	-0.523
Mof_O 	O 	0.32789	0.25322	0.28444	-0.289
Mof_O 	O 	0.31984	0.28935	0.36202	-0.303
Mof_C 	C 	0.3527	0.2853	0.083	0.407
Mof_C 	C 	0.337	0.3034	0.0664	-0.176
Mof_C 	C 	0.3379	0.3058	0.0387	0.143
Mof_C 	C 	0.3647	0.2398	0.1701	0.354
Mof_C 	C 	0.3601	0.2318	0.1986	-0.141
Mof_C 	C 	0.3481	0.2501	0.2162	0.128
Mof_O 	O 	0.8475	0.7834	0.1065	-0.587
Mof_O 	O 	0.8695	0.7715	0.0711	-0.379
Mof_O 	O 	0.8085	0.8401	0.9841	-0.264
Mof_O 	O 	0.85572	0.76137	0.16128	-0.489
Mof_O 	O 	0.87651	0.72403	0.15541	-0.522
Mof_O 	O 	0.82789	0.75322	0.28444	-0.289
Mof_O 	O 	0.81984	0.78935	0.36202	-0.303
Mof_C 	C 	0.8527	0.7853	0.083	0.407
Mof_C 	C 	0.837	0.8034	0.0664	-0.176
Mof_C 	C 	0.8379	0.8058	0.0387	0.143
Mof_C 	C 	0.8647	0.7398	0.1701	0.354
Mof_C 	C 	0.8601	0.7318	0.1986	-0.141
Mof_C 	C 	0.8481	0.7501	0.2162	0.128
Mof_O 	O 	0.8475	0.2834	0.6065	-0.587
Mof_O 	O 	0.8695	0.2715	0.5711	-0.378
Mof_O 	O 	0.8085	0.3401	0.4841	-0.264
Mof_O 	O 	0.85572	0.26137	0.66128	-0.489
Mof_O 	O 	0.87651	0.22403	0.65541	-0.522
Mof_O 	O 	0.82789	0.25322	0.78444	-0.289
Mof_O 	O 	0.81984	0.28935	0.86202	-0.303
Mof_C 	C 	0.8527	0.2853	0.583	0.407
Mof_C 	C 	0.837	0.3034	0.5664	-0.176
Mof_C 	C 	0.8379	0.3058	0.5387	0.143
Mof_C 	C 	0.8647	0.2398	0.6701	0.354
Mof_C 	C 	0.8601	0.2318	0.6986	-0.141
Mof_C 	C 	0.8481	0.2501	0.7162	0.128
Mof_O 	O 	0.1525	0.8565	0.5334	-0.587
Mof_O 	O 	0.1305	0.8211	0.5215	-0.378
Mof_O 	O 	0.1915	0.7341	0.5901	-0.264
Mof_O 	O 	0.14428	0.91128	0.51137	-0.489
Mof_O 	O 	0.12349	0.90541	0.47403	-0.522
Mof_O 	O 	0.17211	0.03444	0.50322	-0.288
Mof_O 	O 	0.18016	0.11202	0.53935	-0.303
Mof_C 	C 	0.1473	0.833	0.5353	0.407
Mof_C 	C 	0.163	0.8164	0.5534	-0.176
Mof_C 	C 	0.1621	0.7887	0.5558	0.143
Mof_C 	C 	0.1353	0.9201	0.4898	0.353
Mof_C 	C 	0.1399	0.9486	0.4818	-0.14
Mof_C 	C 	0.1519	0.9662	0.5001	0.127
Mof_O 	O 	0.1525	0.3565	0.0334	-0.587
Mof_O 	O 	0.1305	0.3211	0.0215	-0.379
Mof_O 	O 	0.1915	0.2341	0.0901	-0.264
Mof_O 	O 	0.14428	0.41128	0.01137	-0.49
Mof_O 	O 	0.12349	0.40541	0.97403	-0.522
Mof_O 	O 	0.17211	0.53444	0.00322	-0.289
Mof_O 	O 	0.18016	0.61202	0.03935	-0.303
Mof_C 	C 	0.1473	0.333	0.0353	0.407
Mof_C 	C 	0.163	0.3164	0.0534	-0.176
Mof_C 	C 	0.1621	0.2887	0.0558	0.142
Mof_C 	C 	0.1353	0.4201	0.9898	0.355
Mof_C 	C 	0.1399	0.4486	0.9818	-0.139
Mof_C 	C 	0.1519	0.4662	0.0001	0.124
Mof_O 	O 	0.6525	0.8565	0.0334	-0.587
Mof_O 	O 	0.6305	0.8211	0.0215	-0.379
Mof_O 	O 	0.6915	0.7341	0.0901	-0.264
Mof_O 	O 	0.64428	0.91128	0.01137	-0.49
Mof_O 	O 	0.62349	0.90541	0.97403	-0.522
Mof_O 	O 	0.67211	0.03444	0.00322	-0.288
Mof_O 	O 	0.68016	0.11202	0.03935	-0.303
Mof_C 	C 	0.6473	0.833	0.0353	0.407
Mof_C 	C 	0.663	0.8164	0.0534	-0.176
Mof_C 	C 	0.6621	0.7887	0.0558	0.142
Mof_C 	C 	0.6353	0.9201	0.9898	0.355
Mof_C 	C 	0.6399	0.9486	0.9818	-0.138
Mof_C 	C 	0.6519	0.9662	0.0001	0.123
Mof_O 	O 	0.6525	0.3565	0.5334	-0.587
Mof_O 	O 	0.6305	0.3211	0.5215	-0.378
Mof_O 	O 	0.6915	0.2341	0.5901	-0.264
Mof_O 	O 	0.64428	0.41128	0.51137	-0.489
Mof_O 	O 	0.62349	0.40541	0.47403	-0.523
Mof_O 	O 	0.67211	0.53444	0.50322	-0.289
Mof_O 	O 	0.68016	0.61202	0.53935	-0.303
Mof_C 	C 	0.6473	0.333	0.5353	0.407
Mof_C 	C 	0.663	0.3164	0.5534	-0.176
Mof_C 	C 	0.6621	0.2887	0.5558	0.143
Mof_C 	C 	0.6353	0.4201	0.4898	0.354
Mof_C 	C 	0.6399	0.4486	0.4818	-0.141
Mof_C 	C 	0.6519	0.4662	0.5001	0.128
Mof_O 	O 	0.0975	0.8935	0.0334	-0.587
Mof_O 	O 	0.1195	0.9289	0.0215	-0.378
Mof_O 	O 	0.0585	0.0159	0.0901	-0.264
Mof_O 	O 	0.10572	0.83872	0.01137	-0.49
Mof_O 	O 	0.12651	0.84459	0.97403	-0.522
Mof_O 	O 	0.07789	0.71556	0.00322	-0.289
Mof_O 	O 	0.06984	0.63798	0.03935	-0.303
Mof_C 	C 	0.1027	0.917	0.0353	0.407
Mof_C 	C 	0.087	0.9336	0.0534	-0.176
Mof_C 	C 	0.0879	0.9613	0.0558	0.142
Mof_C 	C 	0.1147	0.8299	0.9898	0.355
Mof_C 	C 	0.1101	0.8014	0.9818	-0.139
Mof_C 	C 	0.0981	0.7838	0.0001	0.124
Mof_O 	O 	0.0975	0.3935	0.5334	-0.587
Mof_O 	O 	0.1195	0.4289	0.5215	-0.378
Mof_O 	O 	0.0585	0.5159	0.5901	-0.264
Mof_O 	O 	0.10572	0.33872	0.51137	-0.489
Mof_O 	O 	0.12651	0.34459	0.47403	-0.523
Mof_O 	O 	0.07789	0.21556	0.50322	-0.289
Mof_O 	O 	0.06984	0.13798	0.53935	-0.303
Mof_C 	C 	0.1027	0.417	0.5353	0.407
Mof_C 	C 	0.087	0.4336	0.5534	-0.176
Mof_C 	C 	0.0879	0.4613	0.5558	0.143
Mof_C 	C 	0.1147	0.3299	0.4898	0.354
Mof_C 	C 	0.1101	0.3014	0.4818	-0.141
Mof_C 	C 	0.0981	0.2838	0.5001	0.128
Mof_O 	O 	0.5975	0.8935	0.5334	-0.587
Mof_O 	O 	0.6195	0.9289	0.5215	-0.378
Mof_O 	O 	0.5585	0.0159	0.5901	-0.264
Mof_O 	O 	0.60572	0.83872	0.51137	-0.489
Mof_O 	O 	0.62651	0.84459	0.47403	-0.523
Mof_O 	O 	0.57789	0.71556	0.50322	-0.289
Mof_O 	O 	0.56984	0.63798	0.53935	-0.303
Mof_C 	C 	0.6027	0.917	0.5353	0.407
Mof_C 	C 	0.587	0.9336	0.5534	-0.176
Mof_C 	C 	0.5879	0.9613	0.5558	0.143
Mof_C 	C 	0.6147	0.8299	0.4898	0.354
Mof_C 	C 	0.6101	0.8014	0.4818	-0.141
Mof_C 	C 	0.5981	0.7838	0.5001	0.128
Mof_O 	O 	0.5975	0.3935	0.0334	-0.587
Mof_O 	O 	0.6195	0.4289	0.0215	-0.379
Mof_O 	O 	0.5585	0.5159	0.0901	-0.264
Mof_O 	O 	0.60572	0.33872	0.01137	-0.49
Mof_O 	O 	0.62651	0.34459	0.97403	-0.522
Mof_O 	O 	0.57789	0.21556	0.00322	-0.289
Mof_O 	O 	0.56984	0.13798	0.03935	-0.303
Mof_C 	C 	0.6027	0.417	0.0353	0.407
Mof_C 	C 	0.587	0.4336	0.0534	-0.176
Mof_C 	C 	0.5879	0.4613	0.0558	0.142
Mof_C 	C 	0.6147	0.3299	0.9898	0.355
Mof_C 	C 	0.6101	0.3014	0.9818	-0.139
Mof_C 	C 	0.5981	0.2838	0.0001	0.124
Mof_O 	O 	0.6525	0.3935	0.2166	-0.587
Mof_O 	O 	0.6305	0.4289	0.2285	-0.378
Mof_O 	O 	0.6915	0.5159	0.1599	-0.264
Mof_O 	O 	0.64428	0.33872	0.23863	-0.489
Mof_O 	O 	0.62349	0.34459	0.27597	-0.523
Mof_O 	O 	0.67211	0.21556	0.24678	-0.289
Mof_O 	O 	0.68016	0.13798	0.21065	-0.303
Mof_C 	C 	0.6473	0.417	0.2147	0.407
Mof_C 	C 	0.663	0.4336	0.1966	-0.176
Mof_C 	C 	0.6621	0.4613	0.1942	0.143
Mof_C 	C 	0.6353	0.3299	0.2602	0.354
Mof_C 	C 	0.6399	0.3014	0.2682	-0.141
Mof_C 	C 	0.6519	0.2838	0.2499	0.128
Mof_O 	O 	0.6525	0.8935	0.7166	-0.587
Mof_O 	O 	0.6305	0.9289	0.7285	-0.378
Mof_O 	O 	0.6915	0.0159	0.6599	-0.264
Mof_O 	O 	0.64428	0.83872	0.73863	-0.489
Mof_O 	O 	0.62349	0.84459	0.77597	-0.523
Mof_O 	O 	0.67211	0.71556	0.74678	-0.289
Mof_O 	O 	0.68016	0.63798	0.71065	-0.303
Mof_C 	C 	0.6473	0.917	0.7147	0.407
Mof_C 	C 	0.663	0.9336	0.6966	-0.176
Mof_C 	C 	0.6621	0.9613	0.6942	0.143
Mof_C 	C 	0.6353	0.8299	0.7602	0.354
Mof_C 	C 	0.6399	0.8014	0.7682	-0.141
Mof_C 	C 	0.6519	0.7838	0.7499	0.128
Mof_O 	O 	0.1525	0.3935	0.7166	-0.587
Mof_O 	O 	0.1305	0.4289	0.7285	-0.378
Mof_O 	O 	0.1915	0.5159	0.6599	-0.264
Mof_O 	O 	0.14428	0.33872	0.73863	-0.489
Mof_O 	O 	0.12349	0.34459	0.77597	-0.523
Mof_O 	O 	0.17211	0.21556	0.74678	-0.289
Mof_O 	O 	0.18016	0.13798	0.71065	-0.303
Mof_C 	C 	0.1473	0.417	0.7147	0.407
Mof_C 	C 	0.163	0.4336	0.6966	-0.176
Mof_C 	C 	0.1621	0.4613	0.6942	0.143
Mof_C 	C 	0.1353	0.3299	0.7602	0.354
Mof_C 	C 	0.1399	0.3014	0.7682	-0.141
Mof_C 	C 	0.1519	0.2838	0.7499	0.128
Mof_O 	O 	0.1525	0.8935	0.2166	-0.587
Mof_O 	O 	0.1305	0.9289	0.2285	-0.378
Mof_O 	O 	0.1915	0.0159	0.1599	-0.264
Mof_O 	O 	0.14428	0.83872	0.23863	-0.489
Mof_O 	O 	0.12349	0.84459	0.27597	-0.523
Mof_O 	O 	0.17211	0.71556	0.24678	-0.289
Mof_O 	O 	0.18016	0.63798	0.21065	-0.303
Mof_C 	C 	0.1473	0.917	0.2147	0.407
Mof_C 	C 	0.163	0.9336	0.1966	-0.176
Mof_C 	C 	0.1621	0.9613	0.1942	0.143
Mof_C 	C 	0.1353	0.8299	0.2602	0.354
Mof_C 	C 	0.1399	0.8014	0.2682	-0.141
Mof_C 	C 	0.1519	0.7838	0.2499	0.128
Mof_O 	O 	0.5975	0.3565	0.7166	-0.587
Mof_O 	O 	0.6195	0.3211	0.7285	-0.378
Mof_O 	O 	0.5585	0.2341	0.6599	-0.264
Mof_O 	O 	0.60572	0.41128	0.73863	-0.489
Mof_O 	O 	0.62651	0.40541	0.77597	-0.523
Mof_O 	O 	0.57789	0.53444	0.74678	-0.289
Mof_O 	O 	0.56984	0.61202	0.71065	-0.303
Mof_C 	C 	0.6027	0.333	0.7147	0.407
Mof_C 	C 	0.587	0.3164	0.6966	-0.176
Mof_C 	C 	0.5879	0.2887	0.6942	0.143
Mof_C 	C 	0.6147	0.4201	0.7602	0.354
Mof_C 	C 	0.6101	0.4486	0.7682	-0.141
Mof_C 	C 	0.5981	0.4662	0.7499	0.128
Mof_O 	O 	0.5975	0.8565	0.2166	-0.587
Mof_O 	O 	0.6195	0.8211	0.2285	-0.378
Mof_O 	O 	0.5585	0.7341	0.1599	-0.264
Mof_O 	O 	0.60572	0.91128	0.23863	-0.489
Mof_O 	O 	0.62651	0.90541	0.27597	-0.522
Mof_O 	O 	0.57789	0.03444	0.24678	-0.288
Mof_O 	O 	0.56984	0.11202	0.21065	-0.303
Mof_C 	C 	0.6027	0.833	0.2147	0.407
Mof_C 	C 	0.587	0.8164	0.1966	-0.176
Mof_C 	C 	0.5879	0.7887	0.1942	0.143
Mof_C 	C 	0.6147	0.9201	0.2602	0.353
Mof_C 	C 	0.6101	0.9486	0.2682	-0.14
Mof_C 	C 	0.5981	0.9662	0.2499	0.127
Mof_O 	O 	0.0975	0.3565	0.2166	-0.587
Mof_O 	O 	0.1195	0.3211	0.2285	-0.378
Mof_O 	O 	0.0585	0.2341	0.1599	-0.264
Mof_O 	O 	0.10572	0.41128	0.23863	-0.489
Mof_O 	O 	0.12651	0.40541	0.27597	-0.523
Mof_O 	O 	0.07789	0.53444	0.24678	-0.289
Mof_O 	O 	0.06984	0.61202	0.21065	-0.303
Mof_C 	C 	0.1027	0.333	0.2147	0.407
Mof_C 	C 	0.087	0.3164	0.1966	-0.176
Mof_C 	C 	0.0879	0.2887	0.1942	0.143
Mof_C 	C 	0.1147	0.4201	0.2602	0.354
Mof_C 	C 	0.1101	0.4486	0.2682	-0.141
Mof_C 	C 	0.0981	0.4662	0.2499	0.128
Mof_O 	O 	0.0975	0.8565	0.7166	-0.587
Mof_O 	O 	0.1195	0.8211	0.7285	-0.378
Mof_O 	O 	0.0585	0.7341	0.6599	-0.264
Mof_O 	O 	0.10572	0.91128	0.73863	-0.489
Mof_O 	O 	0.12651	0.90541	0.77597	-0.522
Mof_O 	O 	0.07789	0.03444	0.74678	-0.288
Mof_O 	O 	0.06984	0.11202	0.71065	-0.303
Mof_C 	C 	0.1027	0.833	0.7147	0.407
Mof_C 	C 	0.087	0.8164	0.6966	-0.176
Mof_C 	C 	0.0879	0.7887	0.6942	0.143
Mof_C 	C 	0.1147	0.9201	0.7602	0.353
Mof_C 	C 	0.1101	0.9486	0.7682	-0.14
Mof_C 	C 	0.0981	0.9662	0.7499	0.127
Mof_O 	O 	0.3565	0.7166	0.5975	-0.587
Mof_O 	O 	0.3211	0.7285	0.6195	-0.378
Mof_O 	O 	0.2341	0.6599	0.5585	-0.264
Mof_O 	O 	0.41128	0.73863	0.60572	-0.489
Mof_O 	O 	0.40541	0.77597	0.62651	-0.523
Mof_O 	O 	0.53444	0.74678	0.57789	-0.289
Mof_O 	O 	0.61202	0.71065	0.56984	-0.303
Mof_C 	C 	0.333	0.7147	0.6027	0.407
Mof_C 	C 	0.3164	0.6966	0.587	-0.176
Mof_C 	C 	0.2887	0.6942	0.5879	0.143
Mof_C 	C 	0.4201	0.7602	0.6147	0.354
Mof_C 	C 	0.4486	0.7682	0.6101	-0.141
Mof_C 	C 	0.4662	0.7499	0.5981	0.128
Mof_O 	O 	0.3565	0.2166	0.0975	-0.587
Mof_O 	O 	0.3211	0.2285	0.1195	-0.378
Mof_O 	O 	0.2341	0.1599	0.0585	-0.264
Mof_O 	O 	0.41128	0.23863	0.10572	-0.489
Mof_O 	O 	0.40541	0.27597	0.12651	-0.523
Mof_O 	O 	0.53444	0.24678	0.07789	-0.289
Mof_O 	O 	0.61202	0.21065	0.06984	-0.303
Mof_C 	C 	0.333	0.2147	0.1027	0.407
Mof_C 	C 	0.3164	0.1966	0.087	-0.176
Mof_C 	C 	0.2887	0.1942	0.0879	0.143
Mof_C 	C 	0.4201	0.2602	0.1147	0.354
Mof_C 	C 	0.4486	0.2682	0.1101	-0.141
Mof_C 	C 	0.4662	0.2499	0.0981	0.128
Mof_O 	O 	0.8565	0.7166	0.0975	-0.587
Mof_O 	O 	0.8211	0.7285	0.1195	-0.378
Mof_O 	O 	0.7341	0.6599	0.0585	-0.264
Mof_O 	O 	0.91128	0.73863	0.10572	-0.489
Mof_O 	O 	0.90541	0.77597	0.12651	-0.522
Mof_O 	O 	0.03444	0.74678	0.07789	-0.288
Mof_O 	O 	0.11202	0.71065	0.06984	-0.303
Mof_C 	C 	0.833	0.7147	0.1027	0.407
Mof_C 	C 	0.8164	0.6966	0.087	-0.176
Mof_C 	C 	0.7887	0.6942	0.0879	0.143
Mof_C 	C 	0.9201	0.7602	0.1147	0.353
Mof_C 	C 	0.9486	0.7682	0.1101	-0.14
Mof_C 	C 	0.9662	0.7499	0.0981	0.127
Mof_O 	O 	0.8565	0.2166	0.5975	-0.587
Mof_O 	O 	0.8211	0.2285	0.6195	-0.378
Mof_O 	O 	0.7341	0.1599	0.5585	-0.264
Mof_O 	O 	0.91128	0.23863	0.60572	-0.489
Mof_O 	O 	0.90541	0.27597	0.62651	-0.522
Mof_O 	O 	0.03444	0.24678	0.57789	-0.288
Mof_O 	O 	0.11202	0.21065	0.56984	-0.303
Mof_C 	C 	0.833	0.2147	0.6027	0.407
Mof_C 	C 	0.8164	0.1966	0.587	-0.176
Mof_C 	C 	0.7887	0.1942	0.5879	0.143
Mof_C 	C 	0.9201	0.2602	0.6147	0.353
Mof_C 	C 	0.9486	0.2682	0.6101	-0.14
Mof_C 	C 	0.9662	0.2499	0.5981	0.127
Mof_O 	O 	0.3935	0.2166	0.6525	-0.587
Mof_O 	O 	0.4289	0.2285	0.6305	-0.378
Mof_O 	O 	0.5159	0.1599	0.6915	-0.264
Mof_O 	O 	0.33872	0.23863	0.64428	-0.489
Mof_O 	O 	0.34459	0.27597	0.62349	-0.523
Mof_O 	O 	0.21556	0.24678	0.67211	-0.289
Mof_O 	O 	0.13798	0.21065	0.68016	-0.303
Mof_C 	C 	0.417	0.2147	0.6473	0.407
Mof_C 	C 	0.4336	0.1966	0.663	-0.176
Mof_C 	C 	0.4613	0.1942	0.6621	0.143
Mof_C 	C 	0.3299	0.2602	0.6353	0.354
Mof_C 	C 	0.3014	0.2682	0.6399	-0.141
Mof_C 	C 	0.2838	0.2499	0.6519	0.128
Mof_O 	O 	0.3935	0.7166	0.1525	-0.587
Mof_O 	O 	0.4289	0.7285	0.1305	-0.378
Mof_O 	O 	0.5159	0.6599	0.1915	-0.264
Mof_O 	O 	0.33872	0.73863	0.14428	-0.489
Mof_O 	O 	0.34459	0.77597	0.12349	-0.523
Mof_O 	O 	0.21556	0.74678	0.17211	-0.289
Mof_O 	O 	0.13798	0.71065	0.18016	-0.303
Mof_C 	C 	0.417	0.7147	0.1473	0.407
Mof_C 	C 	0.4336	0.6966	0.163	-0.176
Mof_C 	C 	0.4613	0.6942	0.1621	0.143
Mof_C 	C 	0.3299	0.7602	0.1353	0.354
Mof_C 	C 	0.3014	0.7682	0.1399	-0.141
Mof_C 	C 	0.2838	0.7499	0.1519	0.128
Mof_O 	O 	0.8935	0.2166	0.1525	-0.587
Mof_O 	O 	0.9289	0.2285	0.1305	-0.378
Mof_O 	O 	0.0159	0.1599	0.1915	-0.264
Mof_O 	O 	0.83872	0.23863	0.14428	-0.489
Mof_O 	O 	0.84459	0.27597	0.12349	-0.523
Mof_O 	O 	0.71556	0.24678	0.17211	-0.289
Mof_O 	O 	0.63798	0.21065	0.18016	-0.303
Mof_C 	C 	0.917	0.2147	0.1473	0.407
Mof_C 	C 	0.9336	0.1966	0.163	-0.176
Mof_C 	C 	0.9613	0.1942	0.1621	0.143
Mof_C 	C 	0.8299	0.2602	0.1353	0.354
Mof_C 	C 	0.8014	0.2682	0.1399	-0.141
Mof_C 	C 	0.7838	0.2499	0.1519	0.128
Mof_O 	O 	0.8935	0.7166	0.6525	-0.587
Mof_O 	O 	0.9289	0.7285	0.6305	-0.378
Mof_O 	O 	0.0159	0.6599	0.6915	-0.264
Mof_O 	O 	0.83872	0.73863	0.64428	-0.489
Mof_O 	O 	0.84459	0.77597	0.62349	-0.523
Mof_O 	O 	0.71556	0.74678	0.67211	-0.289
Mof_O 	O 	0.63798	0.71065	0.68016	-0.303
Mof_C 	C 	0.917	0.7147	0.6473	0.407
Mof_C 	C 	0.9336	0.6966	0.663	-0.176
Mof_C 	C 	0.9613	0.6942	0.6621	0.143
Mof_C 	C 	0.8299	0.7602	0.6353	0.354
Mof_C 	C 	0.8014	0.7682	0.6399	-0.141
Mof_C 	C 	0.7838	0.7499	0.6519	0.128
Mof_O 	O 	0.8935	0.0334	0.0975	-0.587
Mof_O 	O 	0.9289	0.0215	0.1195	-0.378
Mof_O 	O 	0.0159	0.0901	0.0585	-0.264
Mof_O 	O 	0.83872	0.01137	0.10572	-0.49
Mof_O 	O 	0.84459	0.97403	0.12651	-0.522
Mof_O 	O 	0.71556	0.00322	0.07789	-0.289
Mof_O 	O 	0.63798	0.03935	0.06984	-0.303
Mof_C 	C 	0.917	0.0353	0.1027	0.407
Mof_C 	C 	0.9336	0.0534	0.087	-0.176
Mof_C 	C 	0.9613	0.0558	0.0879	0.142
Mof_C 	C 	0.8299	0.9898	0.1147	0.355
Mof_C 	C 	0.8014	0.9818	0.1101	-0.139
Mof_C 	C 	0.7838	0.0001	0.0981	0.124
Mof_O 	O 	0.8935	0.5334	0.5975	-0.587
Mof_O 	O 	0.9289	0.5215	0.6195	-0.378
Mof_O 	O 	0.0159	0.5901	0.5585	-0.264
Mof_O 	O 	0.83872	0.51137	0.60572	-0.489
Mof_O 	O 	0.84459	0.47403	0.62651	-0.523
Mof_O 	O 	0.71556	0.50322	0.57789	-0.289
Mof_O 	O 	0.63798	0.53935	0.56984	-0.303
Mof_C 	C 	0.917	0.5353	0.6027	0.407
Mof_C 	C 	0.9336	0.5534	0.587	-0.176
Mof_C 	C 	0.9613	0.5558	0.5879	0.143
Mof_C 	C 	0.8299	0.4898	0.6147	0.354
Mof_C 	C 	0.8014	0.4818	0.6101	-0.141
Mof_C 	C 	0.7838	0.5001	0.5981	0.128
Mof_O 	O 	0.3935	0.0334	0.5975	-0.587
Mof_O 	O 	0.4289	0.0215	0.6195	-0.379
Mof_O 	O 	0.5159	0.0901	0.5585	-0.264
Mof_O 	O 	0.33872	0.01137	0.60572	-0.49
Mof_O 	O 	0.34459	0.97403	0.62651	-0.522
Mof_O 	O 	0.21556	0.00322	0.57789	-0.289
Mof_O 	O 	0.13798	0.03935	0.56984	-0.303
Mof_C 	C 	0.417	0.0353	0.6027	0.407
Mof_C 	C 	0.4336	0.0534	0.587	-0.176
Mof_C 	C 	0.4613	0.0558	0.5879	0.142
Mof_C 	C 	0.3299	0.9898	0.6147	0.355
Mof_C 	C 	0.3014	0.9818	0.6101	-0.139
Mof_C 	C 	0.2838	0.0001	0.5981	0.124
Mof_O 	O 	0.3935	0.5334	0.0975	-0.587
Mof_O 	O 	0.4289	0.5215	0.1195	-0.378
Mof_O 	O 	0.5159	0.5901	0.0585	-0.264
Mof_O 	O 	0.33872	0.51137	0.10572	-0.489
Mof_O 	O 	0.34459	0.47403	0.12651	-0.523
Mof_O 	O 	0.21556	0.50322	0.07789	-0.289
Mof_O 	O 	0.13798	0.53935	0.06984	-0.303
Mof_C 	C 	0.417	0.5353	0.1027	0.407
Mof_C 	C 	0.4336	0.5534	0.087	-0.176
Mof_C 	C 	0.4613	0.5558	0.0879	0.143
Mof_C 	C 	0.3299	0.4898	0.1147	0.354
Mof_C 	C 	0.3014	0.4818	0.1101	-0.141
Mof_C 	C 	0.2838	0.5001	0.0981	0.128
Mof_O 	O 	0.8565	0.5334	0.1525	-0.587
Mof_O 	O 	0.8211	0.5215	0.1305	-0.378
Mof_O 	O 	0.7341	0.5901	0.1915	-0.264
Mof_O 	O 	0.91128	0.51137	0.14428	-0.489
Mof_O 	O 	0.90541	0.47403	0.12349	-0.522
Mof_O 	O 	0.03444	0.50322	0.17211	-0.288
Mof_O 	O 	0.11202	0.53935	0.18016	-0.303
Mof_C 	C 	0.833	0.5353	0.1473	0.407
Mof_C 	C 	0.8164	0.5534	0.163	-0.176
Mof_C 	C 	0.7887	0.5558	0.1621	0.143
Mof_C 	C 	0.9201	0.4898	0.1353	0.353
Mof_C 	C 	0.9486	0.4818	0.1399	-0.14
Mof_C 	C 	0.9662	0.5001	0.1519	0.127
Mof_O 	O 	0.8565	0.0334	0.6525	-0.587
Mof_O 	O 	0.8211	0.0215	0.6305	-0.379
Mof_O 	O 	0.7341	0.0901	0.6915	-0.264
Mof_O 	O 	0.91128	0.01137	0.64428	-0.49
Mof_O 	O 	0.90541	0.97403	0.62349	-0.522
Mof_O 	O 	0.03444	0.00322	0.67211	-0.288
Mof_O 	O 	0.11202	0.03935	0.68016	-0.303
Mof_C 	C 	0.833	0.0353	0.6473	0.407
Mof_C 	C 	0.8164	0.0534	0.663	-0.176
Mof_C 	C 	0.7887	0.0558	0.6621	0.142
Mof_C 	C 	0.9201	0.9898	0.6353	0.355
Mof_C 	C 	0.9486	0.9818	0.6399	-0.138
Mof_C 	C 	0.9662	0.0001	0.6519	0.123
Mof_O 	O 	0.3565	0.5334	0.6525	-0.587
Mof_O 	O 	0.3211	0.5215	0.6305	-0.378
Mof_O 	O 	0.2341	0.5901	0.6915	-0.264
Mof_O 	O 	0.41128	0.51137	0.64428	-0.489
Mof_O 	O 	0.40541	0.47403	0.62349	-0.523
Mof_O 	O 	0.53444	0.50322	0.67211	-0.289
Mof_O 	O 	0.61202	0.53935	0.68016	-0.303
Mof_C 	C 	0.333	0.5353	0.6473	0.407
Mof_C 	C 	0.3164	0.5534	0.663	-0.176
Mof_C 	C 	0.2887	0.5558	0.6621	0.143
Mof_C 	C 	0.4201	0.4898	0.6353	0.354
Mof_C 	C 	0.4486	0.4818	0.6399	-0.141
Mof_C 	C 	0.4662	0.5001	0.6519	0.128
Mof_O 	O 	0.3565	0.0334	0.1525	-0.587
Mof_O 	O 	0.3211	0.0215	0.1305	-0.379
Mof_O 	O 	0.2341	0.0901	0.1915	-0.264
Mof_O 	O 	0.41128	0.01137	0.14428	-0.49
Mof_O 	O 	0.40541	0.97403	0.12349	-0.522
Mof_O 	O 	0.53444	0.00322	0.17211	-0.289
Mof_O 	O 	0.61202	0.03935	0.18016	-0.303
Mof_C 	C 	0.333	0.0353	0.1473	0.407
Mof_C 	C 	0.3164	0.0534	0.163	-0.176
Mof_C 	C 	0.2887	0.0558	0.1621	0.142
Mof_C 	C 	0.4201	0.9898	0.1353	0.355
Mof_C 	C 	0.4486	0.9818	0.1399	-0.139
Mof_C 	C 	0.4662	0.0001	0.1519	0.124
Mof_O 	O 	0.2166	0.6525	0.3935	-0.587
Mof_O 	O 	0.2285	0.6305	0.4289	-0.378
Mof_O 	O 	0.1599	0.6915	0.5159	-0.264
Mof_O 	O 	0.23863	0.64428	0.33872	-0.489
Mof_O 	O 	0.27597	0.62349	0.34459	-0.523
Mof_O 	O 	0.24678	0.67211	0.21556	-0.289
Mof_O 	O 	0.21065	0.68016	0.13798	-0.303
Mof_C 	C 	0.2147	0.6473	0.417	0.407
Mof_C 	C 	0.1966	0.663	0.4336	-0.176
Mof_C 	C 	0.1942	0.6621	0.4613	0.143
Mof_C 	C 	0.2602	0.6353	0.3299	0.354
Mof_C 	C 	0.2682	0.6399	0.3014	-0.141
Mof_C 	C 	0.2499	0.6519	0.2838	0.128
Mof_O 	O 	0.2166	0.1525	0.8935	-0.587
Mof_O 	O 	0.2285	0.1305	0.9289	-0.378
Mof_O 	O 	0.1599	0.1915	0.0159	-0.264
Mof_O 	O 	0.23863	0.14428	0.83872	-0.489
Mof_O 	O 	0.27597	0.12349	0.84459	-0.523
Mof_O 	O 	0.24678	0.17211	0.71556	-0.289
Mof_O 	O 	0.21065	0.18016	0.63798	-0.303
Mof_C 	C 	0.2147	0.1473	0.917	0.407
Mof_C 	C 	0.1966	0.163	0.9336	-0.176
Mof_C 	C 	0.1942	0.1621	0.9613	0.143
Mof_C 	C 	0.2602	0.1353	0.8299	0.354
Mof_C 	C 	0.2682	0.1399	0.8014	-0.141
Mof_C 	C 	0.2499	0.1519	0.7838	0.128
Mof_O 	O 	0.7166	0.6525	0.8935	-0.587
Mof_O 	O 	0.7285	0.6305	0.9289	-0.378
Mof_O 	O 	0.6599	0.6915	0.0159	-0.264
Mof_O 	O 	0.73863	0.64428	0.83872	-0.489
Mof_O 	O 	0.77597	0.62349	0.84459	-0.523
Mof_O 	O 	0.74678	0.67211	0.71556	-0.289
Mof_O 	O 	0.71065	0.68016	0.63798	-0.303
Mof_C 	C 	0.7147	0.6473	0.917	0.407
Mof_C 	C 	0.6966	0.663	0.9336	-0.176
Mof_C 	C 	0.6942	0.6621	0.9613	0.143
Mof_C 	C 	0.7602	0.6353	0.8299	0.354
Mof_C 	C 	0.7682	0.6399	0.8014	-0.141
Mof_C 	C 	0.7499	0.6519	0.7838	0.128
Mof_O 	O 	0.7166	0.1525	0.3935	-0.587
Mof_O 	O 	0.7285	0.1305	0.4289	-0.378
Mof_O 	O 	0.6599	0.1915	0.5159	-0.264
Mof_O 	O 	0.73863	0.14428	0.33872	-0.489
Mof_O 	O 	0.77597	0.12349	0.34459	-0.523
Mof_O 	O 	0.74678	0.17211	0.21556	-0.289
Mof_O 	O 	0.71065	0.18016	0.13798	-0.303
Mof_C 	C 	0.7147	0.1473	0.417	0.407
Mof_C 	C 	0.6966	0.163	0.4336	-0.176
Mof_C 	C 	0.6942	0.1621	0.4613	0.143
Mof_C 	C 	0.7602	0.1353	0.3299	0.354
Mof_C 	C 	0.7682	0.1399	0.3014	-0.141
Mof_C 	C 	0.7499	0.1519	0.2838	0.128
Mof_O 	O 	0.7166	0.5975	0.3565	-0.587
Mof_O 	O 	0.7285	0.6195	0.3211	-0.378
Mof_O 	O 	0.6599	0.5585	0.2341	-0.264
Mof_O 	O 	0.73863	0.60572	0.41128	-0.489
Mof_O 	O 	0.77597	0.62651	0.40541	-0.523
Mof_O 	O 	0.74678	0.57789	0.53444	-0.289
Mof_O 	O 	0.71065	0.56984	0.61202	-0.303
Mof_C 	C 	0.7147	0.6027	0.333	0.407
Mof_C 	C 	0.6966	0.587	0.3164	-0.176
Mof_C 	C 	0.6942	0.5879	0.2887	0.143
Mof_C 	C 	0.7602	0.6147	0.4201	0.354
Mof_C 	C 	0.7682	0.6101	0.4486	-0.141
Mof_C 	C 	0.7499	0.5981	0.4662	0.128
Mof_O 	O 	0.7166	0.0975	0.8565	-0.587
Mof_O 	O 	0.7285	0.1195	0.8211	-0.378
Mof_O 	O 	0.6599	0.0585	0.7341	-0.264
Mof_O 	O 	0.73863	0.10572	0.91128	-0.489
Mof_O 	O 	0.77597	0.12651	0.90541	-0.522
Mof_O 	O 	0.74678	0.07789	0.03444	-0.288
Mof_O 	O 	0.71065	0.06984	0.11202	-0.303
Mof_C 	C 	0.7147	0.1027	0.833	0.407
Mof_C 	C 	0.6966	0.087	0.8164	-0.176
Mof_C 	C 	0.6942	0.0879	0.7887	0.143
Mof_C 	C 	0.7602	0.1147	0.9201	0.353
Mof_C 	C 	0.7682	0.1101	0.9486	-0.14
Mof_C 	C 	0.7499	0.0981	0.9662	0.127
Mof_O 	O 	0.2166	0.5975	0.8565	-0.587
Mof_O 	O 	0.2285	0.6195	0.8211	-0.378
Mof_O 	O 	0.1599	0.5585	0.7341	-0.264
Mof_O 	O 	0.23863	0.60572	0.91128	-0.489
Mof_O 	O 	0.27597	0.62651	0.90541	-0.522
Mof_O 	O 	0.24678	0.57789	0.03444	-0.288
Mof_O 	O 	0.21065	0.56984	0.11202	-0.303
Mof_C 	C 	0.2147	0.6027	0.833	0.407
Mof_C 	C 	0.1966	0.587	0.8164	-0.176
Mof_C 	C 	0.1942	0.5879	0.7887	0.143
Mof_C 	C 	0.2602	0.6147	0.9201	0.353
Mof_C 	C 	0.2682	0.6101	0.9486	-0.14
Mof_C 	C 	0.2499	0.5981	0.9662	0.127
Mof_O 	O 	0.2166	0.0975	0.3565	-0.587
Mof_O 	O 	0.2285	0.1195	0.3211	-0.378
Mof_O 	O 	0.1599	0.0585	0.2341	-0.264
Mof_O 	O 	0.23863	0.10572	0.41128	-0.489
Mof_O 	O 	0.27597	0.12651	0.40541	-0.523
Mof_O 	O 	0.24678	0.07789	0.53444	-0.289
Mof_O 	O 	0.21065	0.06984	0.61202	-0.303
Mof_C 	C 	0.2147	0.1027	0.333	0.407
Mof_C 	C 	0.1966	0.087	0.3164	-0.176
Mof_C 	C 	0.1942	0.0879	0.2887	0.143
Mof_C 	C 	0.2602	0.1147	0.4201	0.354
Mof_C 	C 	0.2682	0.1101	0.4486	-0.141
Mof_C 	C 	0.2499	0.0981	0.4662	0.128
Mof_O 	O 	0.5334	0.1525	0.8565	-0.587
Mof_O 	O 	0.5215	0.1305	0.8211	-0.378
Mof_O 	O 	0.5901	0.1915	0.7341	-0.264
Mof_O 	O 	0.51137	0.14428	0.91128	-0.489
Mof_O 	O 	0.47403	0.12349	0.90541	-0.522
Mof_O 	O 	0.50322	0.17211	0.03444	-0.288
Mof_O 	O 	0.53935	0.18016	0.11202	-0.303
Mof_C 	C 	0.5353	0.1473	0.833	0.407
Mof_C 	C 	0.5534	0.163	0.8164	-0.176
Mof_C 	C 	0.5558	0.1621	0.7887	0.143
Mof_C 	C 	0.4898	0.1353	0.9201	0.353
Mof_C 	C 	0.4818	0.1399	0.9486	-0.14
Mof_C 	C 	0.5001	0.1519	0.9662	0.127
Mof_O 	O 	0.5334	0.6525	0.3565	-0.587
Mof_O 	O 	0.5215	0.6305	0.3211	-0.378
Mof_O 	O 	0.5901	0.6915	0.2341	-0.264
Mof_O 	O 	0.51137	0.64428	0.41128	-0.489
Mof_O 	O 	0.47403	0.62349	0.40541	-0.523
Mof_O 	O 	0.50322	0.67211	0.53444	-0.289
Mof_O 	O 	0.53935	0.68016	0.61202	-0.303
Mof_C 	C 	0.5353	0.6473	0.333	0.407
Mof_C 	C 	0.5534	0.663	0.3164	-0.176
Mof_C 	C 	0.5558	0.6621	0.2887	0.143
Mof_C 	C 	0.4898	0.6353	0.4201	0.354
Mof_C 	C 	0.4818	0.6399	0.4486	-0.141
Mof_C 	C 	0.5001	0.6519	0.4662	0.128
Mof_O 	O 	0.0334	0.1525	0.3565	-0.587
Mof_O 	O 	0.0215	0.1305	0.3211	-0.379
Mof_O 	O 	0.0901	0.1915	0.2341	-0.264
Mof_O 	O 	0.01137	0.14428	0.41128	-0.49
Mof_O 	O 	0.97403	0.12349	0.40541	-0.522
Mof_O 	O 	0.00322	0.17211	0.53444	-0.289
Mof_O 	O 	0.03935	0.18016	0.61202	-0.303
Mof_C 	C 	0.0353	0.1473	0.333	0.407
Mof_C 	C 	0.0534	0.163	0.3164	-0.176
Mof_C 	C 	0.0558	0.1621	0.2887	0.142
Mof_C 	C 	0.9898	0.1353	0.4201	0.355
Mof_C 	C 	0.9818	0.1399	0.4486	-0.139
Mof_C 	C 	0.0001	0.1519	0.4662	0.124
Mof_O 	O 	0.0334	0.6525	0.8565	-0.587
Mof_O 	O 	0.0215	0.6305	0.8211	-0.379
Mof_O 	O 	0.0901	0.6915	0.7341	-0.264
Mof_O 	O 	0.01137	0.64428	0.91128	-0.49
Mof_O 	O 	0.97403	0.62349	0.90541	-0.522
Mof_O 	O 	0.00322	0.67211	0.03444	-0.288
Mof_O 	O 	0.03935	0.68016	0.11202	-0.303
Mof_C 	C 	0.0353	0.6473	0.833	0.407
Mof_C 	C 	0.0534	0.663	0.8164	-0.176
Mof_C 	C 	0.0558	0.6621	0.7887	0.142
Mof_C 	C 	0.9898	0.6353	0.9201	0.355
Mof_C 	C 	0.9818	0.6399	0.9486	-0.138
Mof_C 	C 	0.0001	0.6519	0.9662	0.123
Mof_O 	O 	0.0334	0.0975	0.8935	-0.587
Mof_O 	O 	0.0215	0.1195	0.9289	-0.378
Mof_O 	O 	0.0901	0.0585	0.0159	-0.264
Mof_O 	O 	0.01137	0.10572	0.83872	-0.49
Mof_O 	O 	0.97403	0.12651	0.84459	-0.522
Mof_O 	O 	0.00322	0.07789	0.71556	-0.289
Mof_O 	O 	0.03935	0.06984	0.63798	-0.303
Mof_C 	C 	0.0353	0.1027	0.917	0.407
Mof_C 	C 	0.0534	0.087	0.9336	-0.176
Mof_C 	C 	0.0558	0.0879	0.9613	0.142
Mof_C 	C 	0.9898	0.1147	0.8299	0.355
Mof_C 	C 	0.9818	0.1101	0.8014	-0.139
Mof_C 	C 	0.0001	0.0981	0.7838	0.124
Mof_O 	O 	0.0334	0.5975	0.3935	-0.587
Mof_O 	O 	0.0215	0.6195	0.4289	-0.379
Mof_O 	O 	0.0901	0.5585	0.5159	-0.264
Mof_O 	O 	0.01137	0.60572	0.33872	-0.49
Mof_O 	O 	0.97403	0.62651	0.34459	-0.522
Mof_O 	O 	0.00322	0.57789	0.21556	-0.289
Mof_O 	O 	0.03935	0.56984	0.13798	-0.303
Mof_C 	C 	0.0353	0.6027	0.417	0.407
Mof_C 	C 	0.0534	0.587	0.4336	-0.176
Mof_C 	C 	0.0558	0.5879	0.4613	0.142
Mof_C 	C 	0.9898	0.6147	0.3299	0.355
Mof_C 	C 	0.9818	0.6101	0.3014	-0.139
Mof_C 	C 	0.0001	0.5981	0.2838	0.124
Mof_O 	O 	0.5334	0.0975	0.3935	-0.587
Mof_O 	O 	0.5215	0.1195	0.4289	-0.378
Mof_O 	O 	0.5901	0.0585	0.5159	-0.264
Mof_O 	O 	0.51137	0.10572	0.33872	-0.489
Mof_O 	O 	0.47403	0.12651	0.34459	-0.523
Mof_O 	O 	0.50322	0.07789	0.21556	-0.289
Mof_O 	O 	0.53935	0.06984	0.13798	-0.303
Mof_C 	C 	0.5353	0.1027	0.417	0.407
Mof_C 	C 	0.5534	0.087	0.4336	-0.176
Mof_C 	C 	0.5558	0.0879	0.4613	0.143
Mof_C 	C 	0.4898	0.1147	0.3299	0.354
Mof_C 	C 	0.4818	0.1101	0.3014	-0.141
Mof_C 	C 	0.5001	0.0981	0.2838	0.128
Mof_O 	O 	0.5334	0.5975	0.8935	-0.587
Mof_O 	O 	0.5215	0.6195	0.9289	-0.378
Mof_O 	O 	0.5901	0.5585	0.0159	-0.264
Mof_O 	O 	0.51137	0.60572	0.83872	-0.489
Mof_O 	O 	0.47403	0.62651	0.84459	-0.523
Mof_O 	O 	0.50322	0.57789	0.71556	-0.289
Mof_O 	O 	0.53935	0.56984	0.63798	-0.303
Mof_C 	C 	0.5353	0.6027	0.917	0.407
Mof_C 	C 	0.5534	0.587	0.9336	-0.176
Mof_C 	C 	0.5558	0.5879	0.9613	0.143
Mof_C 	C 	0.4898	0.6147	0.8299	0.354
Mof_C 	C 	0.4818	0.6101	0.8014	-0.141
Mof_C 	C 	0.5001	0.5981	0.7838	0.128
Mof_In	In	0.87972	0.12028	-0	2.483
Mof_In	In	0.87972	0.62028	0.5	2.488
Mof_In	In	0.37972	0.12028	0.5	2.488
Mof_In	In	0.37972	0.62028	-0	2.483
Mof_In	In	0.87028	0.12972	0.5	2.488
Mof_In	In	0.87028	0.62972	-0	2.483
Mof_In	In	0.37028	0.12972	-0	2.483
Mof_In	In	0.37028	0.62972	0.5	2.488
Mof_In	In	0.37028	0.62028	0.75	2.488
Mof_In	In	0.37028	0.12028	0.25	2.488
Mof_In	In	0.87028	0.62028	0.25	2.488
Mof_In	In	0.87028	0.12028	0.75	2.488
Mof_In	In	0.37972	0.62972	0.25	2.488
Mof_In	In	0.37972	0.12972	0.75	2.488
Mof_In	In	0.87972	0.62972	0.75	2.488
Mof_In	In	0.87972	0.12972	0.25	2.488
Mof_In	In	-2.67196e-33	0.87972	0.12028	2.483
Mof_In	In	2.32568e-33	0.37972	0.62028	2.483
Mof_In	In	0.5	0.87972	0.62028	2.488
Mof_In	In	0.5	0.37972	0.12028	2.488
Mof_In	In	0.5	0.87028	0.12972	2.488
Mof_In	In	0.5	0.37028	0.62972	2.488
Mof_In	In	-1.01307e-32	0.87028	0.62972	2.483
Mof_In	In	-4.19803e-33	0.37028	0.12972	2.483
Mof_In	In	0.75	0.37028	0.62028	2.488
Mof_In	In	0.75	0.87028	0.12028	2.488
Mof_In	In	0.25	0.37028	0.12028	2.488
Mof_In	In	0.25	0.87028	0.62028	2.488
Mof_In	In	0.25	0.37972	0.62972	2.488
Mof_In	In	0.25	0.87972	0.12972	2.488
Mof_In	In	0.75	0.37972	0.12972	2.488
Mof_In	In	0.75	0.87972	0.62972	2.488
Mof_In	In	0.12028	-6.24587e-33	0.87972	2.483
Mof_In	In	0.12028	0.5	0.37972	2.488
Mof_In	In	0.62028	3.12294e-33	0.37972	2.483
Mof_In	In	0.62028	0.5	0.87972	2.488
Mof_In	In	0.12972	0.5	0.87028	2.488
Mof_In	In	0.12972	-3.12294e-33	0.37028	2.483
Mof_In	In	0.62972	0.5	0.37028	2.488
Mof_In	In	0.62972	6.24587e-33	0.87028	2.483
Mof_In	In	0.62028	0.75	0.37028	2.488
Mof_In	In	0.62028	0.25	0.87028	2.488
Mof_In	In	0.12028	0.75	0.87028	2.488
Mof_In	In	0.12028	0.25	0.37028	2.488
Mof_In	In	0.62972	0.25	0.37972	2.488
Mof_In	In	0.62972	0.75	0.87972	2.488
Mof_In	In	0.12972	0.25	0.87972	2.488
Mof_In	In	0.12972	0.75	0.37972	2.488
Mof_In	In	0.12028	0.87972	-0	2.483
Mof_In	In	0.12028	0.37972	0.5	2.488
Mof_In	In	0.62028	0.87972	0.5	2.488
Mof_In	In	0.62028	0.37972	-0	2.483
Mof_In	In	0.12972	0.87028	0.5	2.488
Mof_In	In	0.12972	0.37028	-0	2.483
Mof_In	In	0.62972	0.87028	-0	2.483
Mof_In	In	0.62972	0.37028	0.5	2.488
Mof_In	In	0.62972	0.37972	0.25	2.488
Mof_In	In	0.62972	0.87972	0.75	2.488
Mof_In	In	0.12972	0.37972	0.75	2.488
Mof_In	In	0.12972	0.87972	0.25	2.488
Mof_In	In	0.62028	0.37028	0.75	2.488
Mof_In	In	0.62028	0.87028	0.25	2.488
Mof_In	In	0.12028	0.37028	0.25	2.488
Mof_In	In	0.12028	0.87028	0.75	2.488
Mof_In	In	-2.94745e-33	0.12028	0.87972	2.483
Mof_In	In	1.42372e-33	0.62028	0.37972	2.483
Mof_In	In	0.5	0.12028	0.37972	2.488
Mof_In	In	0.5	0.62028	0.87972	2.488
Mof_In	In	0.5	0.12972	0.87028	2.488
Mof_In	In	0.5	0.62972	0.37028	2.488
Mof_In	In	-4.85755e-33	0.12972	0.37028	2.483
Mof_In	In	-1.54746e-32	0.62972	0.87028	2.483
Mof_In	In	0.25	0.62972	0.37972	2.488
Mof_In	In	0.25	0.12972	0.87972	2.488
Mof_In	In	0.75	0.62972	0.87972	2.488
Mof_In	In	0.75	0.12972	0.37972	2.488
Mof_In	In	0.75	0.62028	0.37028	2.488
Mof_In	In	0.75	0.12028	0.87028	2.488
Mof_In	In	0.25	0.62028	0.87028	2.488
Mof_In	In	0.25	0.12028	0.37028	2.488
Mof_In	In	0.87972	-1.56147e-33	0.12028	2.483
Mof_In	In	0.87972	0.5	0.62028	2.488
Mof_In	In	0.37972	-6.24587e-33	0.62028	2.483
Mof_In	In	0.37972	0.5	0.12028	2.488
Mof_In	In	0.87028	0.5	0.12972	2.488
Mof_In	In	0.87028	-6.24587e-33	0.62972	2.483
Mof_In	In	0.37028	0.5	0.62972	2.488
Mof_In	In	0.37028	0	0.12972	2.483
Mof_In	In	0.37972	0.25	0.62972	2.488
Mof_In	In	0.37972	0.75	0.12972	2.488
Mof_In	In	0.87972	0.25	0.12972	2.488
Mof_In	In	0.87972	0.75	0.62972	2.488
Mof_In	In	0.37028	0.75	0.62028	2.488
Mof_In	In	0.37028	0.25	0.12028	2.488
Mof_In	In	0.87028	0.75	0.12028	2.488
Mof_In	In	0.87028	0.25	0.62028	2.488
Mof_Cd	Cd	0.6779	0.0721	0.02235	0.546
Mof_Cd	Cd	0.6779	0.5721	0.52235	0.546
Mof_Cd	Cd	0.0721	0.1779	0.52235	0.546
Mof_Cd	Cd	0.5721	0.1779	0.02235	0.546
Mof_Cd	Cd	0.5721	0.6779	0.52235	0.546
Mof_Cd	Cd	0.5721	0.5721	0.72765	0.546
Mof_Cd	Cd	0.5721	0.0721	0.22765	0.546
Mof_Cd	Cd	0.0721	0.5721	0.22765	0.546
Mof_Cd	Cd	0.0721	0.0721	0.72765	0.546
Mof_Cd	Cd	0.1779	0.6779	0.22765	0.546
Mof_Cd	Cd	0.1779	0.1779	0.72765	0.546
Mof_Cd	Cd	0.02235	0.6779	0.0721	0.546
Mof_Cd	Cd	0.02235	0.1779	0.5721	0.546
Mof_Cd	Cd	0.52235	0.6779	0.5721	0.546
Mof_Cd	Cd	0.52235	0.0721	0.1779	0.546
Mof_Cd	Cd	0.52235	0.5721	0.6779	0.546
Mof_Cd	Cd	0.72765	0.5721	0.5721	0.546
Mof_Cd	Cd	0.72765	0.0721	0.0721	0.546
Mof_Cd	Cd	0.22765	0.5721	0.0721	0.546
Mof_Cd	Cd	0.22765	0.0721	0.5721	0.546
Mof_Cd	Cd	0.22765	0.1779	0.6779	0.546
Mof_Cd	Cd	0.72765	0.1779	0.1779	0.546
Mof_Cd	Cd	0.0721	0.02235	0.6779	0.546
Mof_Cd	Cd	0.5721	0.02235	0.1779	0.546
Mof_Cd	Cd	0.5721	0.52235	0.6779	0.546
Mof_Cd	Cd	0.1779	0.52235	0.0721	0.546
Mof_Cd	Cd	0.1779	0.02235	0.5721	0.546
Mof_Cd	Cd	0.6779	0.52235	0.5721	0.546
Mof_Cd	Cd	0.5721	0.72765	0.5721	0.546
Mof_Cd	Cd	0.5721	0.22765	0.0721	0.546
Mof_Cd	Cd	0.0721	0.72765	0.0721	0.546
Mof_Cd	Cd	0.0721	0.22765	0.5721	0.546
Mof_Cd	Cd	0.6779	0.22765	0.1779	0.546
Mof_Cd	Cd	0.6779	0.72765	0.6779	0.546
Mof_Cd	Cd	0.1779	0.72765	0.1779	0.546
Mof_Cd	Cd	0.8221	0.9279	0.47765	0.546
Mof_Cd	Cd	0.8221	0.4279	0.97765	0.547
Mof_Cd	Cd	0.9279	0.3221	0.97765	0.547
Mof_Cd	Cd	0.4279	0.3221	0.47765	0.546
Mof_Cd	Cd	0.3221	0.8221	0.77235	0.546
Mof_Cd	Cd	0.3221	0.3221	0.27235	0.546
Mof_Cd	Cd	0.4279	0.4279	0.27235	0.546
Mof_Cd	Cd	0.4279	0.9279	0.77235	0.546
Mof_Cd	Cd	0.9279	0.4279	0.77235	0.546
Mof_Cd	Cd	0.9279	0.9279	0.27235	0.546
Mof_Cd	Cd	0.4279	0.27235	0.4279	0.546
Mof_Cd	Cd	0.4279	0.77235	0.9279	0.546
Mof_Cd	Cd	0.9279	0.27235	0.9279	0.546
Mof_Cd	Cd	0.9279	0.77235	0.4279	0.546
Mof_Cd	Cd	0.8221	0.77235	0.3221	0.546
Mof_Cd	Cd	0.8221	0.27235	0.8221	0.546
Mof_Cd	Cd	0.3221	0.27235	0.3221	0.546
Mof_Cd	Cd	0.3221	0.97765	0.9279	0.547
Mof_Cd	Cd	0.3221	0.47765	0.4279	0.546
Mof_Cd	Cd	0.9279	0.47765	0.8221	0.546
Mof_Cd	Cd	0.4279	0.47765	0.3221	0.546
Mof_Cd	Cd	0.77235	0.3221	0.8221	0.546
Mof_Cd	Cd	0.27235	0.3221	0.3221	0.546
Mof_Cd	Cd	0.27235	0.4279	0.4279	0.546
Mof_Cd	Cd	0.27235	0.9279	0.9279	0.546
Mof_Cd	Cd	0.77235	0.4279	0.9279	0.546
Mof_Cd	Cd	0.77235	0.9279	0.4279	0.546
Mof_Cd	Cd	0.47765	0.8221	0.9279	0.546
Mof_Cd	Cd	0.47765	0.3221	0.4279	0.546
Mof_Cd	Cd	0.97765	0.9279	0.3221	0.547
Mof_Cd	Cd	0.97765	0.4279	0.8221	0.547
Mof_Cd	Cd	0.3221	0.9279	0.97765	0.547
Mof_Cd	Cd	0.3221	0.4279	0.47765	0.546
Mof_Cd	Cd	0.9279	0.8221	0.47765	0.546
Mof_Cd	Cd	0.4279	0.8221	0.97765	0.547
Mof_Cd	Cd	0.8221	0.3221	0.77235	0.546
Mof_Cd	Cd	0.8221	0.8221	0.27235	0.546
Mof_Cd	Cd	0.97765	0.3221	0.9279	0.547
Mof_Cd	Cd	0.97765	0.8221	0.4279	0.547
Mof_Cd	Cd	0.47765	0.9279	0.8221	0.546
Mof_Cd	Cd	0.47765	0.4279	0.3221	0.546
Mof_Cd	Cd	0.77235	0.8221	0.3221	0.546
Mof_Cd	Cd	0.27235	0.8221	0.8221	0.546
Mof_Cd	Cd	0.9279	0.97765	0.3221	0.547
Mof_Cd	Cd	0.4279	0.97765	0.8221	0.547
Mof_Cd	Cd	0.8221	0.47765	0.9279	0.546
Mof_Cd	Cd	0.8221	0.97765	0.4279	0.547
Mof_Cd	Cd	0.3221	0.77235	0.8221	0.546
Mof_Cd	Cd	0.1779	0.0721	0.52235	0.546
Mof_Cd	Cd	0.1779	0.5721	0.02235	0.546
Mof_Cd	Cd	0.0721	0.6779	0.02235	0.546
Mof_Cd	Cd	0.6779	0.1779	0.22765	0.546
Mof_Cd	Cd	0.6779	0.6779	0.72765	0.546
Mof_Cd	Cd	0.1779	0.22765	0.6779	0.546
Mof_Cd	Cd	0.6779	0.02235	0.0721	0.546
Mof_Cd	Cd	0.0721	0.52235	0.1779	0.546
Mof_Cd	Cd	0.22765	0.6779	0.1779	0.546
Mof_Cd	Cd	0.72765	0.6779	0.6779	0.546
Mof_Cd	Cd	0.52235	0.1779	0.0721	0.546
Mof_Cd	Cd	0.02235	0.0721	0.6779	0.546
Mof_Cd	Cd	0.02235	0.5721	0.1779	0.546
Mof_Cd	Cd	0.05576	0.05576	0.10667	0.381
Mof_Cd	Cd	0.05576	0.55576	0.60667	0.381
Mof_Cd	Cd	0.55576	0.05576	0.60667	0.381
Mof_Cd	Cd	0.55576	0.55576	0.10667	0.382
Mof_Cd	Cd	0.69424	0.19424	0.60667	0.382
Mof_Cd	Cd	0.69424	0.69424	0.10667	0.382
Mof_Cd	Cd	0.19424	0.55576	0.64333	0.382
Mof_Cd	Cd	0.19424	0.05576	0.14333	0.381
Mof_Cd	Cd	0.55576	0.69424	0.14333	0.382
Mof_Cd	Cd	0.05576	0.69424	0.64333	0.381
Mof_Cd	Cd	0.10667	0.05576	0.05576	0.381
Mof_Cd	Cd	0.10667	0.55576	0.55576	0.382
Mof_Cd	Cd	0.60667	0.05576	0.55576	0.381
Mof_Cd	Cd	0.60667	0.55576	0.05576	0.381
Mof_Cd	Cd	0.60667	0.69424	0.19424	0.382
Mof_Cd	Cd	0.10667	0.69424	0.69424	0.382
Mof_Cd	Cd	0.64333	0.19424	0.55576	0.382
Mof_Cd	Cd	0.64333	0.69424	0.05576	0.381
Mof_Cd	Cd	0.14333	0.55576	0.69424	0.382
Mof_Cd	Cd	0.14333	0.05576	0.19424	0.381
Mof_Cd	Cd	0.05576	0.10667	0.05576	0.381
Mof_Cd	Cd	0.05576	0.60667	0.55576	0.381
Mof_Cd	Cd	0.55576	0.10667	0.55576	0.382
Mof_Cd	Cd	0.55576	0.60667	0.05576	0.381
Mof_Cd	Cd	0.19424	0.60667	0.69424	0.382
Mof_Cd	Cd	0.19424	0.10667	0.19424	0.382
Mof_Cd	Cd	0.55576	0.64333	0.19424	0.382
Mof_Cd	Cd	0.05576	0.64333	0.69424	0.381
Mof_Cd	Cd	0.69424	0.14333	0.55576	0.382
Mof_Cd	Cd	0.69424	0.64333	0.05576	0.381
Mof_Cd	Cd	0.80576	0.30576	0.39333	0.382
Mof_Cd	Cd	0.80576	0.80576	0.89333	0.382
Mof_Cd	Cd	0.94424	0.94424	0.89333	0.382
Mof_Cd	Cd	0.94424	0.44424	0.39333	0.382
Mof_Cd	Cd	0.44424	0.94424	0.39333	0.382
Mof_Cd	Cd	0.44424	0.44424	0.89333	0.382
Mof_Cd	Cd	0.30576	0.44424	0.85667	0.382
Mof_Cd	Cd	0.30576	0.94424	0.35667	0.382
Mof_Cd	Cd	0.44424	0.80576	0.35667	0.382
Mof_Cd	Cd	0.94424	0.80576	0.85667	0.382
Mof_Cd	Cd	0.80576	0.35667	0.44424	0.382
Mof_Cd	Cd	0.80576	0.85667	0.94424	0.382
Mof_Cd	Cd	0.44424	0.85667	0.30576	0.382
Mof_Cd	Cd	0.94424	0.85667	0.80576	0.382
Mof_Cd	Cd	0.94424	0.89333	0.94424	0.382
Mof_Cd	Cd	0.94424	0.39333	0.44424	0.382
Mof_Cd	Cd	0.44424	0.89333	0.44424	0.382
Mof_Cd	Cd	0.44424	0.39333	0.94424	0.382
Mof_Cd	Cd	0.30576	0.39333	0.80576	0.382
Mof_Cd	Cd	0.30576	0.89333	0.30576	0.382
Mof_Cd	Cd	0.85667	0.30576	0.44424	0.382
Mof_Cd	Cd	0.85667	0.80576	0.94424	0.382
Mof_Cd	Cd	0.35667	0.44424	0.80576	0.382
Mof_Cd	Cd	0.35667	0.94424	0.30576	0.382
Mof_Cd	Cd	0.39333	0.80576	0.30576	0.382
Mof_Cd	Cd	0.89333	0.80576	0.80576	0.382
Mof_Cd	Cd	0.89333	0.94424	0.94424	0.382
Mof_Cd	Cd	0.89333	0.44424	0.44424	0.382
Mof_Cd	Cd	0.39333	0.94424	0.44424	0.382
Mof_Cd	Cd	0.39333	0.44424	0.94424	0.382
Mof_Cd	Cd	0.30576	0.80576	0.39333	0.382
Mof_Cd	Cd	0.30576	0.30576	0.89333	0.382
Mof_Cd	Cd	0.80576	0.44424	0.35667	0.382
Mof_Cd	Cd	0.80576	0.94424	0.85667	0.382
Mof_Cd	Cd	0.44424	0.30576	0.85667	0.382
Mof_Cd	Cd	0.94424	0.30576	0.35667	0.382
Mof_Cd	Cd	0.39333	0.30576	0.80576	0.382
Mof_Cd	Cd	0.89333	0.30576	0.30576	0.382
Mof_Cd	Cd	0.35667	0.80576	0.44424	0.382
Mof_Cd	Cd	0.35667	0.30576	0.94424	0.382
Mof_Cd	Cd	0.85667	0.44424	0.30576	0.382
Mof_Cd	Cd	0.85667	0.94424	0.80576	0.382
Mof_Cd	Cd	0.80576	0.39333	0.30576	0.382
Mof_Cd	Cd	0.80576	0.89333	0.80576	0.382
Mof_Cd	Cd	0.44424	0.35667	0.80576	0.382
Mof_Cd	Cd	0.94424	0.35667	0.30576	0.382
Mof_Cd	Cd	0.30576	0.85667	0.44424	0.382
Mof_Cd	Cd	0.30576	0.35667	0.94424	0.382
Mof_Cd	Cd	0.19424	0.69424	0.60667	0.382
Mof_Cd	Cd	0.19424	0.19424	0.10667	0.382
Mof_Cd	Cd	0.69424	0.55576	0.14333	0.382
Mof_Cd	Cd	0.69424	0.05576	0.64333	0.381
Mof_Cd	Cd	0.55576	0.19424	0.64333	0.382
Mof_Cd	Cd	0.05576	0.19424	0.14333	0.381
Mof_Cd	Cd	0.19424	0.64333	0.55576	0.382
Mof_Cd	Cd	0.19424	0.14333	0.05576	0.381
Mof_Cd	Cd	0.55576	0.14333	0.69424	0.382
Mof_Cd	Cd	0.05576	0.14333	0.19424	0.381
Mof_Cd	Cd	0.69424	0.60667	0.19424	0.382
Mof_Cd	Cd	0.69424	0.10667	0.69424	0.382
Mof_Cd	Cd	0.14333	0.69424	0.55576	0.382
Mof_Cd	Cd	0.14333	0.19424	0.05576	0.381
Mof_Cd	Cd	0.64333	0.55576	0.19424	0.382
Mof_Cd	Cd	0.64333	0.05576	0.69424	0.381
Mof_Cd	Cd	0.60667	0.19424	0.69424	0.382
Mof_Cd	Cd	0.10667	0.19424	0.19424	0.382
Mof_O 	O 	0.69504	0.05496	0.05496	-0.277
Mof_O 	O 	0.05496	0.19504	0.55496	-0.277
Mof_O 	O 	0.55496	0.55496	0.69504	-0.277
Mof_O 	O 	0.19504	0.69504	0.19504	-0.277
Mof_O 	O 	0.05496	0.69504	0.05496	-0.277
Mof_O 	O 	0.55496	0.05496	0.19504	-0.277
Mof_O 	O 	0.69504	0.55496	0.55496	-0.277
Mof_O 	O 	0.19504	0.19504	0.69504	-0.277
Mof_O 	O 	0.05496	0.05496	0.69504	-0.277
Mof_O 	O 	0.19504	0.55496	0.05496	-0.277
Mof_O 	O 	0.55496	0.69504	0.55496	-0.277
Mof_O 	O 	0.69504	0.19504	0.19504	-0.277
Mof_O 	O 	0.69504	0.69504	0.69504	-0.277
Mof_O 	O 	0.80496	0.94504	0.44504	-0.278
Mof_O 	O 	0.94504	0.30496	0.94504	-0.278
Mof_O 	O 	0.30496	0.80496	0.80496	-0.277
Mof_O 	O 	0.30496	0.30496	0.30496	-0.277
Mof_O 	O 	0.44504	0.44504	0.30496	-0.277
Mof_O 	O 	0.44504	0.30496	0.44504	-0.277
Mof_O 	O 	0.80496	0.80496	0.30496	-0.277
Mof_O 	O 	0.30496	0.94504	0.94504	-0.278
Mof_O 	O 	0.94504	0.44504	0.80496	-0.278
Mof_O 	O 	0.80496	0.30496	0.80496	-0.277
Mof_O 	O 	0.30496	0.44504	0.44504	-0.277
Mof_O 	O 	0.44504	0.80496	0.94504	-0.278
Mof_O 	O 	0.94504	0.94504	0.30496	-0.278
Mof_O 	O 	0.94504	0.80496	0.44504	-0.278
Mof_O 	O 	0.44504	0.94504	0.80496	-0.278
Mof_O 	O 	0.80496	0.44504	0.94504	-0.278
Mof_O 	O 	0.19504	0.05496	0.55496	-0.277
Mof_O 	O 	0.05496	0.55496	0.19504	-0.277
Mof_O 	O 	0.55496	0.19504	0.05496	-0.277
Mof_O 	O 	0.0744	0.0744	0.0744	-0.298
Mof_O 	O 	0.0744	0.5744	0.5744	-0.298
Mof_O 	O 	0.5744	0.0744	0.5744	-0.298
Mof_O 	O 	0.5744	0.5744	0.0744	-0.298
Mof_O 	O 	0.6756	0.1756	0.5744	-0.298
Mof_O 	O 	0.6756	0.6756	0.0744	-0.298
Mof_O 	O 	0.1756	0.5744	0.6756	-0.298
Mof_O 	O 	0.1756	0.0744	0.1756	-0.298
Mof_O 	O 	0.5744	0.6756	0.1756	-0.298
Mof_O 	O 	0.0744	0.6756	0.6756	-0.298
Mof_O 	O 	0.6756	0.0744	0.6756	-0.298
Mof_O 	O 	0.8244	0.3244	0.4256	-0.298
Mof_O 	O 	0.8244	0.8244	0.9256	-0.298
Mof_O 	O 	0.9256	0.9256	0.9256	-0.298
Mof_O 	O 	0.9256	0.4256	0.4256	-0.298
Mof_O 	O 	0.4256	0.9256	0.4256	-0.298
Mof_O 	O 	0.4256	0.4256	0.9256	-0.298
Mof_O 	O 	0.3244	0.4256	0.8244	-0.298
Mof_O 	O 	0.3244	0.9256	0.3244	-0.298
Mof_O 	O 	0.4256	0.8244	0.3244	-0.298
Mof_O 	O 	0.9256	0.8244	0.8244	-0.298
Mof_O 	O 	0.9256	0.3244	0.3244	-0.298
Mof_O 	O 	0.8244	0.9256	0.8244	-0.298
Mof_O 	O 	0.3244	0.8244	0.4256	-0.298
Mof_O 	O 	0.3244	0.3244	0.9256	-0.298
Mof_O 	O 	0.8244	0.4256	0.3244	-0.298
Mof_O 	O 	0.4256	0.3244	0.8244	-0.298
Mof_O 	O 	0.1756	0.6756	0.5744	-0.298
Mof_O 	O 	0.1756	0.1756	0.0744	-0.298
Mof_O 	O 	0.6756	0.5744	0.1756	-0.298
Mof_O 	O 	0.5744	0.1756	0.6756	-0.298
Mof_O 	O 	0.0744	0.1756	0.1756	-0.298
Mof_C 	C 	0.9196	0.0707	0.0707	0.154
Mof_C 	C 	0.9751	0.0726	0.0726	-0.18
Mof_C 	C 	0.0031	0.0706	0.0706	0.31
Mof_C 	C 	0.6284	0.0587	0.0587	0.408
Mof_C 	C 	0.604	0.0691	0.0691	-0.182
Mof_C 	C 	0.9196	0.5707	0.5707	0.154
Mof_C 	C 	0.9751	0.5726	0.5726	-0.18
Mof_C 	C 	0.0031	0.5706	0.5706	0.31
Mof_C 	C 	0.6284	0.5587	0.5587	0.408
Mof_C 	C 	0.604	0.5691	0.5691	-0.182
Mof_C 	C 	0.4196	0.0707	0.5707	0.154
Mof_C 	C 	0.4751	0.0726	0.5726	-0.182
Mof_C 	C 	0.5031	0.0706	0.5706	0.312
Mof_C 	C 	0.1284	0.0587	0.5587	0.408
Mof_C 	C 	0.104	0.0691	0.5691	-0.182
Mof_C 	C 	0.4196	0.5707	0.0707	0.154
Mof_C 	C 	0.4751	0.5726	0.0726	-0.182
Mof_C 	C 	0.5031	0.5706	0.0706	0.312
Mof_C 	C 	0.1284	0.5587	0.0587	0.408
Mof_C 	C 	0.104	0.5691	0.0691	-0.182
Mof_C 	C 	0.8304	0.1793	0.5707	0.154
Mof_C 	C 	0.7749	0.1774	0.5726	-0.182
Mof_C 	C 	0.7469	0.1794	0.5706	0.312
Mof_C 	C 	0.1216	0.1913	0.5587	0.408
Mof_C 	C 	0.146	0.1809	0.5691	-0.182
Mof_C 	C 	0.8304	0.6793	0.0707	0.154
Mof_C 	C 	0.7749	0.6774	0.0726	-0.182
Mof_C 	C 	0.7469	0.6794	0.0706	0.312
Mof_C 	C 	0.1216	0.6913	0.0587	0.408
Mof_C 	C 	0.146	0.6809	0.0691	-0.182
Mof_C 	C 	0.3304	0.5707	0.6793	0.154
Mof_C 	C 	0.2749	0.5726	0.6774	-0.182
Mof_C 	C 	0.2469	0.5706	0.6794	0.312
Mof_C 	C 	0.6216	0.5587	0.6913	0.408
Mof_C 	C 	0.646	0.5691	0.6809	-0.182
Mof_C 	C 	0.3304	0.0707	0.1793	0.154
Mof_C 	C 	0.2749	0.0726	0.1774	-0.182
Mof_C 	C 	0.2469	0.0706	0.1794	0.312
Mof_C 	C 	0.6216	0.0587	0.1913	0.408
Mof_C 	C 	0.646	0.0691	0.1809	-0.182
Mof_C 	C 	0.4196	0.6793	0.1793	0.154
Mof_C 	C 	0.4751	0.6774	0.1774	-0.182
Mof_C 	C 	0.5031	0.6794	0.1794	0.312
Mof_C 	C 	0.1284	0.6913	0.1913	0.408
Mof_C 	C 	0.104	0.6809	0.1809	-0.182
Mof_C 	C 	0.9196	0.6793	0.6793	0.154
Mof_C 	C 	0.9751	0.6774	0.6774	-0.18
Mof_C 	C 	0.0031	0.6794	0.6794	0.31
Mof_C 	C 	0.6284	0.6913	0.6913	0.408
Mof_C 	C 	0.604	0.6809	0.6809	-0.182
Mof_C 	C 	0.9196	0.1793	0.1793	0.154
Mof_C 	C 	0.9751	0.1774	0.1774	-0.18
Mof_C 	C 	0.0031	0.1794	0.1794	0.31
Mof_C 	C 	0.6284	0.1913	0.1913	0.408
Mof_C 	C 	0.604	0.1809	0.1809	-0.182
Mof_C 	C 	0.0707	0.9196	0.0707	0.154
Mof_C 	C 	0.0726	0.9751	0.0726	-0.18
Mof_C 	C 	0.0706	0.0031	0.0706	0.31
Mof_C 	C 	0.0587	0.6284	0.0587	0.408
Mof_C 	C 	0.0691	0.604	0.0691	-0.182
Mof_C 	C 	0.0707	0.4196	0.5707	0.154
Mof_C 	C 	0.0726	0.4751	0.5726	-0.182
Mof_C 	C 	0.0706	0.5031	0.5706	0.312
Mof_C 	C 	0.0587	0.1284	0.5587	0.408
Mof_C 	C 	0.0691	0.104	0.5691	-0.182
Mof_C 	C 	0.5707	0.9196	0.5707	0.154
Mof_C 	C 	0.5726	0.9751	0.5726	-0.18
Mof_C 	C 	0.5706	0.0031	0.5706	0.31
Mof_C 	C 	0.5587	0.6284	0.5587	0.408
Mof_C 	C 	0.5691	0.604	0.5691	-0.182
Mof_C 	C 	0.5707	0.4196	0.0707	0.154
Mof_C 	C 	0.5726	0.4751	0.0726	-0.182
Mof_C 	C 	0.5706	0.5031	0.0706	0.312
Mof_C 	C 	0.5587	0.1284	0.0587	0.408
Mof_C 	C 	0.5691	0.104	0.0691	-0.182
Mof_C 	C 	0.5707	0.8304	0.1793	0.154
Mof_C 	C 	0.5726	0.7749	0.1774	-0.182
Mof_C 	C 	0.5706	0.7469	0.1794	0.312
Mof_C 	C 	0.5587	0.1216	0.1913	0.408
Mof_C 	C 	0.5691	0.146	0.1809	-0.182
Mof_C 	C 	0.0707	0.8304	0.6793	0.154
Mof_C 	C 	0.0726	0.7749	0.6774	-0.182
Mof_C 	C 	0.0706	0.7469	0.6794	0.312
Mof_C 	C 	0.0587	0.1216	0.6913	0.408
Mof_C 	C 	0.0691	0.146	0.6809	-0.182
Mof_C 	C 	0.6793	0.3304	0.5707	0.154
Mof_C 	C 	0.6774	0.2749	0.5726	-0.182
Mof_C 	C 	0.6794	0.2469	0.5706	0.312
Mof_C 	C 	0.6913	0.6216	0.5587	0.408
Mof_C 	C 	0.6809	0.646	0.5691	-0.182
Mof_C 	C 	0.6793	0.8304	0.0707	0.154
Mof_C 	C 	0.6774	0.7749	0.0726	-0.182
Mof_C 	C 	0.6794	0.7469	0.0706	0.312
Mof_C 	C 	0.6913	0.1216	0.0587	0.408
Mof_C 	C 	0.6809	0.146	0.0691	-0.182
Mof_C 	C 	0.1793	0.4196	0.6793	0.154
Mof_C 	C 	0.1774	0.4751	0.6774	-0.182
Mof_C 	C 	0.1794	0.5031	0.6794	0.312
Mof_C 	C 	0.1913	0.1284	0.6913	0.408
Mof_C 	C 	0.1809	0.104	0.6809	-0.182
Mof_C 	C 	0.1793	0.9196	0.1793	0.154
Mof_C 	C 	0.1774	0.9751	0.1774	-0.18
Mof_C 	C 	0.1794	0.0031	0.1794	0.31
Mof_C 	C 	0.1913	0.6284	0.1913	0.408
Mof_C 	C 	0.1809	0.604	0.1809	-0.182
Mof_C 	C 	0.0707	0.0707	0.9196	0.154
Mof_C 	C 	0.0726	0.0726	0.9751	-0.18
Mof_C 	C 	0.0706	0.0706	0.0031	0.31
Mof_C 	C 	0.0587	0.0587	0.6284	0.408
Mof_C 	C 	0.0691	0.0691	0.604	-0.182
Mof_C 	C 	0.0707	0.5707	0.4196	0.154
Mof_C 	C 	0.0726	0.5726	0.4751	-0.182
Mof_C 	C 	0.0706	0.5706	0.5031	0.312
Mof_C 	C 	0.0587	0.5587	0.1284	0.408
Mof_C 	C 	0.0691	0.5691	0.104	-0.182
Mof_C 	C 	0.5707	0.0707	0.4196	0.154
Mof_C 	C 	0.5726	0.0726	0.4751	-0.182
Mof_C 	C 	0.5706	0.0706	0.5031	0.312
Mof_C 	C 	0.5587	0.0587	0.1284	0.408
Mof_C 	C 	0.5691	0.0691	0.104	-0.182
Mof_C 	C 	0.5707	0.5707	0.9196	0.154
Mof_C 	C 	0.5726	0.5726	0.9751	-0.18
Mof_C 	C 	0.5706	0.5706	0.0031	0.31
Mof_C 	C 	0.5587	0.5587	0.6284	0.408
Mof_C 	C 	0.5691	0.5691	0.604	-0.182
Mof_C 	C 	0.1793	0.5707	0.8304	0.154
Mof_C 	C 	0.1774	0.5726	0.7749	-0.182
Mof_C 	C 	0.1794	0.5706	0.7469	0.312
Mof_C 	C 	0.1913	0.5587	0.1216	0.408
Mof_C 	C 	0.1809	0.5691	0.146	-0.182
Mof_C 	C 	0.1793	0.0707	0.3304	0.154
Mof_C 	C 	0.1774	0.0726	0.2749	-0.182
Mof_C 	C 	0.1794	0.0706	0.2469	0.312
Mof_C 	C 	0.1913	0.0587	0.6216	0.408
Mof_C 	C 	0.1809	0.0691	0.646	-0.182
Mof_C 	C 	0.5707	0.6793	0.3304	0.154
Mof_C 	C 	0.5726	0.6774	0.2749	-0.182
Mof_C 	C 	0.5706	0.6794	0.2469	0.312
Mof_C 	C 	0.5587	0.6913	0.6216	0.408
Mof_C 	C 	0.5691	0.6809	0.646	-0.182
Mof_C 	C 	0.0707	0.6793	0.8304	0.154
Mof_C 	C 	0.0726	0.6774	0.7749	-0.182
Mof_C 	C 	0.0706	0.6794	0.7469	0.312
Mof_C 	C 	0.0587	0.6913	0.1216	0.408
Mof_C 	C 	0.0691	0.6809	0.146	-0.182
Mof_C 	C 	0.6793	0.1793	0.4196	0.154
Mof_C 	C 	0.6774	0.1774	0.4751	-0.182
Mof_C 	C 	0.6794	0.1794	0.5031	0.312
Mof_C 	C 	0.6913	0.1913	0.1284	0.408
Mof_C 	C 	0.6809	0.1809	0.104	-0.182
Mof_C 	C 	0.6793	0.6793	0.9196	0.154
Mof_C 	C 	0.6774	0.6774	0.9751	-0.18
Mof_C 	C 	0.6794	0.6794	0.0031	0.31
Mof_C 	C 	0.6913	0.6913	0.6284	0.408
Mof_C 	C 	0.6809	0.6809	0.604	-0.182
Mof_C 	C 	0.1793	0.1793	0.9196	0.154
Mof_C 	C 	0.1774	0.1774	0.9751	-0.18
Mof_C 	C 	0.1794	0.1794	0.0031	0.31
Mof_C 	C 	0.1913	0.1913	0.6284	0.408
Mof_C 	C 	0.1809	0.1809	0.604	-0.182
Mof_C 	C 	0.8207	0.1696	0.4293	0.154
Mof_C 	C 	0.8226	0.2251	0.4274	-0.182
Mof_C 	C 	0.8206	0.2531	0.4294	0.312
Mof_C 	C 	0.8087	0.8784	0.4413	0.408
Mof_C 	C 	0.8191	0.854	0.4309	-0.182
Mof_C 	C 	0.8207	0.6696	0.9293	0.154
Mof_C 	C 	0.8226	0.7251	0.9274	-0.182
Mof_C 	C 	0.8206	0.7531	0.9294	0.312
Mof_C 	C 	0.8087	0.3784	0.9413	0.408
Mof_C 	C 	0.8191	0.354	0.9309	-0.182
Mof_C 	C 	0.9293	0.0804	0.9293	0.155
Mof_C 	C 	0.9274	0.0249	0.9274	-0.184
Mof_C 	C 	0.9294	0.9969	0.9294	0.314
Mof_C 	C 	0.9413	0.3716	0.9413	0.408
Mof_C 	C 	0.9309	0.396	0.9309	-0.182
Mof_C 	C 	0.9293	0.5804	0.4293	0.154
Mof_C 	C 	0.9274	0.5249	0.4274	-0.182
Mof_C 	C 	0.9294	0.4969	0.4294	0.312
Mof_C 	C 	0.9413	0.8716	0.4413	0.408
Mof_C 	C 	0.9309	0.896	0.4309	-0.182
Mof_C 	C 	0.4293	0.0804	0.4293	0.154
Mof_C 	C 	0.4274	0.0249	0.4274	-0.184
Mof_C 	C 	0.4294	0.9969	0.4294	0.314
Mof_C 	C 	0.4413	0.3716	0.4413	0.408
Mof_C 	C 	0.4309	0.396	0.4309	-0.182
Mof_C 	C 	0.4293	0.5804	0.9293	0.154
Mof_C 	C 	0.4274	0.5249	0.9274	-0.182
Mof_C 	C 	0.4294	0.4969	0.9294	0.312
Mof_C 	C 	0.4413	0.8716	0.9413	0.408
Mof_C 	C 	0.4309	0.896	0.9309	-0.182
Mof_C 	C 	0.3207	0.5804	0.8207	0.154
Mof_C 	C 	0.3226	0.5249	0.8226	-0.182
Mof_C 	C 	0.3206	0.4969	0.8206	0.312
Mof_C 	C 	0.3087	0.8716	0.8087	0.408
Mof_C 	C 	0.3191	0.896	0.8191	-0.182
Mof_C 	C 	0.3207	0.0804	0.3207	0.155
Mof_C 	C 	0.3226	0.0249	0.3226	-0.184
Mof_C 	C 	0.3206	0.9969	0.3206	0.314
Mof_C 	C 	0.3087	0.3716	0.3087	0.408
Mof_C 	C 	0.3191	0.396	0.3191	-0.182
Mof_C 	C 	0.4293	0.6696	0.3207	0.154
Mof_C 	C 	0.4274	0.7251	0.3226	-0.182
Mof_C 	C 	0.4294	0.7531	0.3206	0.312
Mof_C 	C 	0.4413	0.3784	0.3087	0.408
Mof_C 	C 	0.4309	0.354	0.3191	-0.182
Mof_C 	C 	0.9293	0.6696	0.8207	0.154
Mof_C 	C 	0.9274	0.7251	0.8226	-0.182
Mof_C 	C 	0.9294	0.7531	0.8206	0.312
Mof_C 	C 	0.9413	0.3784	0.8087	0.408
Mof_C 	C 	0.9309	0.354	0.8191	-0.182
Mof_C 	C 	0.6696	0.3207	0.4293	0.154
Mof_C 	C 	0.7251	0.3226	0.4274	-0.182
Mof_C 	C 	0.7531	0.3206	0.4294	0.312
Mof_C 	C 	0.3784	0.3087	0.4413	0.408
Mof_C 	C 	0.354	0.3191	0.4309	-0.182
Mof_C 	C 	0.6696	0.8207	0.9293	0.154
Mof_C 	C 	0.7251	0.8226	0.9274	-0.182
Mof_C 	C 	0.7531	0.8206	0.9294	0.312
Mof_C 	C 	0.3784	0.8087	0.9413	0.408
Mof_C 	C 	0.354	0.8191	0.9309	-0.182
Mof_C 	C 	0.5804	0.8207	0.3207	0.154
Mof_C 	C 	0.5249	0.8226	0.3226	-0.182
Mof_C 	C 	0.4969	0.8206	0.3206	0.312
Mof_C 	C 	0.8716	0.8087	0.3087	0.408
Mof_C 	C 	0.896	0.8191	0.3191	-0.182
Mof_C 	C 	0.0804	0.8207	0.8207	0.154
Mof_C 	C 	0.0249	0.8226	0.8226	-0.184
Mof_C 	C 	0.9969	0.8206	0.8206	0.314
Mof_C 	C 	0.3716	0.8087	0.8087	0.408
Mof_C 	C 	0.396	0.8191	0.8191	-0.182
Mof_C 	C 	0.0804	0.3207	0.3207	0.155
Mof_C 	C 	0.0249	0.3226	0.3226	-0.184
Mof_C 	C 	0.9969	0.3206	0.3206	0.314
Mof_C 	C 	0.3716	0.3087	0.3087	0.408
Mof_C 	C 	0.396	0.3191	0.3191	-0.182
Mof_C 	C 	0.0804	0.9293	0.9293	0.155
Mof_C 	C 	0.0249	0.9274	0.9274	-0.184
Mof_C 	C 	0.9969	0.9294	0.9294	0.314
Mof_C 	C 	0.3716	0.9413	0.9413	0.408
Mof_C 	C 	0.396	0.9309	0.9309	-0.182
Mof_C 	C 	0.0804	0.4293	0.4293	0.154
Mof_C 	C 	0.0249	0.4274	0.4274	-0.184
Mof_C 	C 	0.9969	0.4294	0.4294	0.314
Mof_C 	C 	0.3716	0.4413	0.4413	0.408
Mof_C 	C 	0.396	0.4309	0.4309	-0.182
Mof_C 	C 	0.5804	0.9293	0.4293	0.154
Mof_C 	C 	0.5249	0.9274	0.4274	-0.182
Mof_C 	C 	0.4969	0.9294	0.4294	0.312
Mof_C 	C 	0.8716	0.9413	0.4413	0.408
Mof_C 	C 	0.896	0.9309	0.4309	-0.182
Mof_C 	C 	0.5804	0.4293	0.9293	0.154
Mof_C 	C 	0.5249	0.4274	0.9274	-0.182
Mof_C 	C 	0.4969	0.4294	0.9294	0.312
Mof_C 	C 	0.8716	0.4413	0.9413	0.408
Mof_C 	C 	0.896	0.4309	0.9309	-0.182
Mof_C 	C 	0.1696	0.4293	0.8207	0.154
Mof_C 	C 	0.2251	0.4274	0.8226	-0.182
Mof_C 	C 	0.2531	0.4294	0.8206	0.312
Mof_C 	C 	0.8784	0.4413	0.8087	0.408
Mof_C 	C 	0.854	0.4309	0.8191	-0.182
Mof_C 	C 	0.1696	0.9293	0.3207	0.154
Mof_C 	C 	0.2251	0.9274	0.3226	-0.182
Mof_C 	C 	0.2531	0.9294	0.3206	0.312
Mof_C 	C 	0.8784	0.9413	0.3087	0.408
Mof_C 	C 	0.854	0.9309	0.3191	-0.182
Mof_C 	C 	0.8207	0.3207	0.5804	0.154
Mof_C 	C 	0.8226	0.3226	0.5249	-0.182
Mof_C 	C 	0.8206	0.3206	0.4969	0.312
Mof_C 	C 	0.8087	0.3087	0.8716	0.408
Mof_C 	C 	0.8191	0.3191	0.896	-0.182
Mof_C 	C 	0.8207	0.8207	0.0804	0.154
Mof_C 	C 	0.8226	0.8226	0.0249	-0.184
Mof_C 	C 	0.8206	0.8206	0.9969	0.314
Mof_C 	C 	0.8087	0.8087	0.3716	0.408
Mof_C 	C 	0.8191	0.8191	0.396	-0.182
Mof_C 	C 	0.3207	0.3207	0.0804	0.155
Mof_C 	C 	0.3226	0.3226	0.0249	-0.184
Mof_C 	C 	0.3206	0.3206	0.9969	0.314
Mof_C 	C 	0.3087	0.3087	0.3716	0.408
Mof_C 	C 	0.3191	0.3191	0.396	-0.182
Mof_C 	C 	0.3207	0.4293	0.6696	0.154
Mof_C 	C 	0.3226	0.4274	0.7251	-0.182
Mof_C 	C 	0.3206	0.4294	0.7531	0.312
Mof_C 	C 	0.3087	0.4413	0.3784	0.408
Mof_C 	C 	0.3191	0.4309	0.354	-0.182
Mof_C 	C 	0.3207	0.9293	0.1696	0.154
Mof_C 	C 	0.3226	0.9274	0.2251	-0.182
Mof_C 	C 	0.3206	0.9294	0.2531	0.312
Mof_C 	C 	0.3087	0.9413	0.8784	0.408
Mof_C 	C 	0.3191	0.9309	0.854	-0.182
Mof_C 	C 	0.4293	0.8207	0.1696	0.154
Mof_C 	C 	0.4274	0.8226	0.2251	-0.182
Mof_C 	C 	0.4294	0.8206	0.2531	0.312
Mof_C 	C 	0.4413	0.8087	0.8784	0.408
Mof_C 	C 	0.4309	0.8191	0.854	-0.182
Mof_C 	C 	0.9293	0.8207	0.6696	0.154
Mof_C 	C 	0.9274	0.8226	0.7251	-0.182
Mof_C 	C 	0.9294	0.8206	0.7531	0.312
Mof_C 	C 	0.9413	0.8087	0.3784	0.408
Mof_C 	C 	0.9309	0.8191	0.354	-0.182
Mof_C 	C 	0.9293	0.9293	0.0804	0.155
Mof_C 	C 	0.9274	0.9274	0.0249	-0.184
Mof_C 	C 	0.9294	0.9294	0.9969	0.314
Mof_C 	C 	0.9413	0.9413	0.3716	0.408
Mof_C 	C 	0.9309	0.9309	0.396	-0.182
Mof_C 	C 	0.9293	0.4293	0.5804	0.154
Mof_C 	C 	0.9274	0.4274	0.5249	-0.182
Mof_C 	C 	0.9294	0.4294	0.4969	0.312
Mof_C 	C 	0.9413	0.4413	0.8716	0.408
Mof_C 	C 	0.9309	0.4309	0.896	-0.182
Mof_C 	C 	0.4293	0.9293	0.5804	0.154
Mof_C 	C 	0.4274	0.9274	0.5249	-0.182
Mof_C 	C 	0.4294	0.9294	0.4969	0.312
Mof_C 	C 	0.4413	0.9413	0.8716	0.408
Mof_C 	C 	0.4309	0.9309	0.896	-0.182
Mof_C 	C 	0.4293	0.4293	0.0804	0.154
Mof_C 	C 	0.4274	0.4274	0.0249	-0.184
Mof_C 	C 	0.4294	0.4294	0.9969	0.314
Mof_C 	C 	0.4413	0.4413	0.3716	0.408
Mof_C 	C 	0.4309	0.4309	0.396	-0.182
Mof_C 	C 	0.1696	0.8207	0.4293	0.154
Mof_C 	C 	0.2251	0.8226	0.4274	-0.182
Mof_C 	C 	0.2531	0.8206	0.4294	0.312
Mof_C 	C 	0.8784	0.8087	0.4413	0.408
Mof_C 	C 	0.854	0.8191	0.4309	-0.182
Mof_C 	C 	0.1696	0.3207	0.9293	0.154
Mof_C 	C 	0.2251	0.3226	0.9274	-0.182
Mof_C 	C 	0.2531	0.3206	0.9294	0.312
Mof_C 	C 	0.8784	0.3087	0.9413	0.408
Mof_C 	C 	0.854	0.3191	0.9309	-0.182
Mof_C 	C 	0.6696	0.4293	0.3207	0.154
Mof_C 	C 	0.7251	0.4274	0.3226	-0.182
Mof_C 	C 	0.7531	0.4294	0.3206	0.312
Mof_C 	C 	0.3784	0.4413	0.3087	0.408
Mof_C 	C 	0.354	0.4309	0.3191	-0.182
Mof_C 	C 	0.6696	0.9293	0.8207	0.154
Mof_C 	C 	0.7251	0.9274	0.8226	-0.182
Mof_C 	C 	0.7531	0.9294	0.8206	0.312
Mof_C 	C 	0.3784	0.9413	0.8087	0.408
Mof_C 	C 	0.354	0.9309	0.8191	-0.182
Mof_C 	C 	0.5804	0.3207	0.8207	0.154
Mof_C 	C 	0.5249	0.3226	0.8226	-0.182
Mof_C 	C 	0.4969	0.3206	0.8206	0.312
Mof_C 	C 	0.8716	0.3087	0.8087	0.408
Mof_C 	C 	0.896	0.3191	0.8191	-0.182
Mof_C 	C 	0.4293	0.1696	0.8207	0.154
Mof_C 	C 	0.4274	0.2251	0.8226	-0.182
Mof_C 	C 	0.4294	0.2531	0.8206	0.312
Mof_C 	C 	0.4413	0.8784	0.8087	0.408
Mof_C 	C 	0.4309	0.854	0.8191	-0.182
Mof_C 	C 	0.9293	0.1696	0.3207	0.154
Mof_C 	C 	0.9274	0.2251	0.3226	-0.182
Mof_C 	C 	0.9294	0.2531	0.3206	0.312
Mof_C 	C 	0.9413	0.8784	0.3087	0.408
Mof_C 	C 	0.9309	0.854	0.3191	-0.182
Mof_C 	C 	0.3207	0.6696	0.4293	0.154
Mof_C 	C 	0.3226	0.7251	0.4274	-0.182
Mof_C 	C 	0.3206	0.7531	0.4294	0.312
Mof_C 	C 	0.3087	0.3784	0.4413	0.408
Mof_C 	C 	0.3191	0.354	0.4309	-0.182
Mof_C 	C 	0.3207	0.1696	0.9293	0.154
Mof_C 	C 	0.3226	0.2251	0.9274	-0.182
Mof_C 	C 	0.3206	0.2531	0.9294	0.312
Mof_C 	C 	0.3087	0.8784	0.9413	0.408
Mof_C 	C 	0.3191	0.854	0.9309	-0.182
Mof_C 	C 	0.8207	0.5804	0.3207	0.154
Mof_C 	C 	0.8226	0.5249	0.3226	-0.182
Mof_C 	C 	0.8206	0.4969	0.3206	0.312
Mof_C 	C 	0.8087	0.8716	0.3087	0.408
Mof_C 	C 	0.8191	0.896	0.3191	-0.182
Mof_C 	C 	0.8207	0.0804	0.8207	0.154
Mof_C 	C 	0.8226	0.0249	0.8226	-0.184
Mof_C 	C 	0.8206	0.9969	0.8206	0.314
Mof_C 	C 	0.8087	0.3716	0.8087	0.408
Mof_C 	C 	0.8191	0.396	0.8191	-0.182
Mof_C 	C 	0.8207	0.4293	0.1696	0.154
Mof_C 	C 	0.8226	0.4274	0.2251	-0.182
Mof_C 	C 	0.8206	0.4294	0.2531	0.312
Mof_C 	C 	0.8087	0.4413	0.8784	0.408
Mof_C 	C 	0.8191	0.4309	0.854	-0.182
Mof_C 	C 	0.8207	0.9293	0.6696	0.154
Mof_C 	C 	0.8226	0.9274	0.7251	-0.182
Mof_C 	C 	0.8206	0.9294	0.7531	0.312
Mof_C 	C 	0.8087	0.9413	0.3784	0.408
Mof_C 	C 	0.8191	0.9309	0.354	-0.182
Mof_C 	C 	0.4293	0.3207	0.6696	0.154
Mof_C 	C 	0.4274	0.3226	0.7251	-0.182
Mof_C 	C 	0.4294	0.3206	0.7531	0.312
Mof_C 	C 	0.4413	0.3087	0.3784	0.408
Mof_C 	C 	0.4309	0.3191	0.354	-0.182
Mof_C 	C 	0.9293	0.3207	0.1696	0.154
Mof_C 	C 	0.9274	0.3226	0.2251	-0.182
Mof_C 	C 	0.9294	0.3206	0.2531	0.312
Mof_C 	C 	0.9413	0.3087	0.8784	0.408
Mof_C 	C 	0.9309	0.3191	0.854	-0.182
Mof_C 	C 	0.3207	0.8207	0.5804	0.154
Mof_C 	C 	0.3226	0.8226	0.5249	-0.182
Mof_C 	C 	0.3206	0.8206	0.4969	0.312
Mof_C 	C 	0.3087	0.8087	0.8716	0.408
Mof_C 	C 	0.3191	0.8191	0.896	-0.182
Mof_C 	C 	0.1793	0.8304	0.5707	0.154
Mof_C 	C 	0.1774	0.7749	0.5726	-0.182
Mof_C 	C 	0.1794	0.7469	0.5706	0.312
Mof_C 	C 	0.1913	0.1216	0.5587	0.408
Mof_C 	C 	0.1809	0.146	0.5691	-0.182
Mof_C 	C 	0.1793	0.3304	0.0707	0.154
Mof_C 	C 	0.1774	0.2749	0.0726	-0.182
Mof_C 	C 	0.1794	0.2469	0.0706	0.312
Mof_C 	C 	0.1913	0.6216	0.0587	0.408
Mof_C 	C 	0.1809	0.646	0.0691	-0.182
Mof_C 	C 	0.6793	0.4196	0.1793	0.154
Mof_C 	C 	0.6774	0.4751	0.1774	-0.182
Mof_C 	C 	0.6794	0.5031	0.1794	0.312
Mof_C 	C 	0.6913	0.1284	0.1913	0.408
Mof_C 	C 	0.6809	0.104	0.1809	-0.182
Mof_C 	C 	0.6793	0.9196	0.6793	0.154
Mof_C 	C 	0.6774	0.9751	0.6774	-0.18
Mof_C 	C 	0.6794	0.0031	0.6794	0.31
Mof_C 	C 	0.6913	0.6284	0.6913	0.408
Mof_C 	C 	0.6809	0.604	0.6809	-0.182
Mof_C 	C 	0.5707	0.3304	0.6793	0.154
Mof_C 	C 	0.5726	0.2749	0.6774	-0.182
Mof_C 	C 	0.5706	0.2469	0.6794	0.312
Mof_C 	C 	0.5587	0.6216	0.6913	0.408
Mof_C 	C 	0.5691	0.646	0.6809	-0.182
Mof_C 	C 	0.0707	0.3304	0.1793	0.154
Mof_C 	C 	0.0726	0.2749	0.1774	-0.182
Mof_C 	C 	0.0706	0.2469	0.1794	0.312
Mof_C 	C 	0.0587	0.6216	0.1913	0.408
Mof_C 	C 	0.0691	0.646	0.1809	-0.182
Mof_C 	C 	0.3304	0.6793	0.5707	0.154
Mof_C 	C 	0.2749	0.6774	0.5726	-0.182
Mof_C 	C 	0.2469	0.6794	0.5706	0.312
Mof_C 	C 	0.6216	0.6913	0.5587	0.408
Mof_C 	C 	0.646	0.6809	0.5691	-0.182
Mof_C 	C 	0.3304	0.1793	0.0707	0.154
Mof_C 	C 	0.2749	0.1774	0.0726	-0.182
Mof_C 	C 	0.2469	0.1794	0.0706	0.312
Mof_C 	C 	0.6216	0.1913	0.0587	0.408
Mof_C 	C 	0.646	0.1809	0.0691	-0.182
Mof_C 	C 	0.4196	0.1793	0.6793	0.154
Mof_C 	C 	0.4751	0.1774	0.6774	-0.182
Mof_C 	C 	0.5031	0.1794	0.6794	0.312
Mof_C 	C 	0.1284	0.1913	0.6913	0.408
Mof_C 	C 	0.104	0.1809	0.6809	-0.182
Mof_C 	C 	0.8304	0.5707	0.1793	0.154
Mof_C 	C 	0.7749	0.5726	0.1774	-0.182
Mof_C 	C 	0.7469	0.5706	0.1794	0.312
Mof_C 	C 	0.1216	0.5587	0.1913	0.408
Mof_C 	C 	0.146	0.5691	0.1809	-0.182
Mof_C 	C 	0.8304	0.0707	0.6793	0.154
Mof_C 	C 	0.7749	0.0726	0.6774	-0.182
Mof_C 	C 	0.7469	0.0706	0.6794	0.312
Mof_C 	C 	0.1216	0.0587	0.6913	0.408
Mof_C 	C 	0.146	0.0691	0.6809	-0.182
Mof_C 	C 	0.1793	0.6793	0.4196	0.154
Mof_C 	C 	0.1774	0.6774	0.4751	-0.182
Mof_C 	C 	0.1794	0.6794	0.5031	0.312
Mof_C 	C 	0.1913	0.6913	0.1284	0.408
Mof_C 	C 	0.1809	0.6809	0.104	-0.182
Mof_C 	C 	0.6793	0.5707	0.3304	0.154
Mof_C 	C 	0.6774	0.5726	0.2749	-0.182
Mof_C 	C 	0.6794	0.5706	0.2469	0.312
Mof_C 	C 	0.6913	0.5587	0.6216	0.408
Mof_C 	C 	0.6809	0.5691	0.646	-0.182
Mof_C 	C 	0.6793	0.0707	0.8304	0.154
Mof_C 	C 	0.6774	0.0726	0.7749	-0.182
Mof_C 	C 	0.6794	0.0706	0.7469	0.312
Mof_C 	C 	0.6913	0.0587	0.1216	0.408
Mof_C 	C 	0.6809	0.0691	0.146	-0.182
Mof_C 	C 	0.5707	0.1793	0.8304	0.154
Mof_C 	C 	0.5726	0.1774	0.7749	-0.182
Mof_C 	C 	0.5706	0.1794	0.7469	0.312
Mof_C 	C 	0.5587	0.1913	0.1216	0.408
Mof_C 	C 	0.5691	0.1809	0.146	-0.182
Mof_C 	C 	0.0707	0.1793	0.3304	0.154
Mof_C 	C 	0.0726	0.1774	0.2749	-0.182
Mof_C 	C 	0.0706	0.1794	0.2469	0.312
Mof_C 	C 	0.0587	0.1913	0.6216	0.408
Mof_C 	C 	0.0691	0.1809	0.646	-0.182
Mof_C 	C 	0.7932	0.1142	0.9568	0.137
Mof_C 	C 	0.7588	0.0929	0.9912	-0.139
Mof_C 	C 	0.7386	0.0805	0.0114	0.362
Mof_C 	C 	0.2932	0.1142	0.4568	0.137
Mof_C 	C 	0.2588	0.0929	0.4912	-0.143
Mof_C 	C 	0.2386	0.0805	0.5114	0.364
Mof_C 	C 	0.9568	0.1358	0.4568	0.137
Mof_C 	C 	0.9912	0.1571	0.4912	-0.139
Mof_C 	C 	0.0114	0.1695	0.5114	0.362
Mof_C 	C 	0.9568	0.6358	0.9568	0.136
Mof_C 	C 	0.9912	0.6571	0.9912	-0.135
Mof_C 	C 	0.0114	0.6695	0.0114	0.36
Mof_C 	C 	0.4568	0.6142	0.7932	0.138
Mof_C 	C 	0.4912	0.5929	0.7588	-0.143
Mof_C 	C 	0.5114	0.5805	0.7386	0.364
Mof_C 	C 	0.4568	0.1142	0.2932	0.137
Mof_C 	C 	0.4912	0.0929	0.2588	-0.143
Mof_C 	C 	0.5114	0.0805	0.2386	0.364
Mof_C 	C 	0.2932	0.6358	0.2932	0.138
Mof_C 	C 	0.2588	0.6571	0.2588	-0.143
Mof_C 	C 	0.2386	0.6695	0.2386	0.364
Mof_C 	C 	0.2932	0.1358	0.7932	0.137
Mof_C 	C 	0.2588	0.1571	0.7588	-0.143
Mof_C 	C 	0.2386	0.1695	0.7386	0.364
Mof_C 	C 	0.7932	0.6358	0.7932	0.138
Mof_C 	C 	0.7588	0.6571	0.7588	-0.143
Mof_C 	C 	0.7386	0.6695	0.7386	0.364
Mof_C 	C 	0.7932	0.1358	0.2932	0.137
Mof_C 	C 	0.7588	0.1571	0.2588	-0.143
Mof_C 	C 	0.7386	0.1695	0.2386	0.364
Mof_C 	C 	0.9568	0.7932	0.1142	0.137
Mof_C 	C 	0.9912	0.7588	0.0929	-0.139
Mof_C 	C 	0.0114	0.7386	0.0805	0.362
Mof_C 	C 	0.9568	0.2932	0.6142	0.137
Mof_C 	C 	0.9912	0.2588	0.5929	-0.139
Mof_C 	C 	0.0114	0.2386	0.5805	0.362
Mof_C 	C 	0.4568	0.9568	0.1358	0.137
Mof_C 	C 	0.4912	0.9912	0.1571	-0.139
Mof_C 	C 	0.5114	0.0114	0.1695	0.362
Mof_C 	C 	0.4568	0.4568	0.6358	0.138
Mof_C 	C 	0.4912	0.4912	0.6571	-0.143
Mof_C 	C 	0.5114	0.5114	0.6695	0.364
Mof_C 	C 	0.9568	0.9568	0.6358	0.136
Mof_C 	C 	0.9912	0.9912	0.6571	-0.135
Mof_C 	C 	0.0114	0.0114	0.6695	0.36
Mof_C 	C 	0.7932	0.4568	0.6142	0.138
Mof_C 	C 	0.7588	0.4912	0.5929	-0.143
Mof_C 	C 	0.7386	0.5114	0.5805	0.364
Mof_C 	C 	0.2932	0.4568	0.1142	0.137
Mof_C 	C 	0.2588	0.4912	0.0929	-0.143
Mof_C 	C 	0.2386	0.5114	0.0805	0.364
Mof_C 	C 	0.2932	0.2932	0.6358	0.138
Mof_C 	C 	0.2588	0.2588	0.6571	-0.143
Mof_C 	C 	0.2386	0.2386	0.6695	0.364
Mof_C 	C 	0.2932	0.7932	0.1358	0.137
Mof_C 	C 	0.2588	0.7588	0.1571	-0.143
Mof_C 	C 	0.2386	0.7386	0.1695	0.364
Mof_C 	C 	0.7932	0.2932	0.1358	0.137
Mof_C 	C 	0.7588	0.2588	0.1571	-0.143
Mof_C 	C 	0.7386	0.2386	0.1695	0.364
Mof_C 	C 	0.7932	0.7932	0.6358	0.138
Mof_C 	C 	0.7588	0.7588	0.6571	-0.143
Mof_C 	C 	0.7386	0.7386	0.6695	0.364
Mof_C 	C 	0.1142	0.9568	0.7932	0.137
Mof_C 	C 	0.0929	0.9912	0.7588	-0.139
Mof_C 	C 	0.0805	0.0114	0.7386	0.362
Mof_C 	C 	0.1142	0.4568	0.2932	0.137
Mof_C 	C 	0.0929	0.4912	0.2588	-0.143
Mof_C 	C 	0.0805	0.5114	0.2386	0.364
Mof_C 	C 	0.1358	0.4568	0.9568	0.137
Mof_C 	C 	0.1571	0.4912	0.9912	-0.139
Mof_C 	C 	0.1695	0.5114	0.0114	0.362
Mof_C 	C 	0.6358	0.4568	0.4568	0.138
Mof_C 	C 	0.6571	0.4912	0.4912	-0.143
Mof_C 	C 	0.6695	0.5114	0.5114	0.364
Mof_C 	C 	0.6358	0.9568	0.9568	0.136
Mof_C 	C 	0.6571	0.9912	0.9912	-0.135
Mof_C 	C 	0.6695	0.0114	0.0114	0.36
Mof_C 	C 	0.6142	0.7932	0.4568	0.138
Mof_C 	C 	0.5929	0.7588	0.4912	-0.143
Mof_C 	C 	0.5805	0.7386	0.5114	0.364
Mof_C 	C 	0.6142	0.2932	0.9568	0.137
Mof_C 	C 	0.5929	0.2588	0.9912	-0.139
Mof_C 	C 	0.5805	0.2386	0.0114	0.362
Mof_C 	C 	0.6358	0.2932	0.2932	0.138
Mof_C 	C 	0.6571	0.2588	0.2588	-0.143
Mof_C 	C 	0.6695	0.2386	0.2386	0.364
Mof_C 	C 	0.6358	0.7932	0.7932	0.138
Mof_C 	C 	0.6571	0.7588	0.7588	-0.143
Mof_C 	C 	0.6695	0.7386	0.7386	0.364
Mof_C 	C 	0.1358	0.2932	0.7932	0.137
Mof_C 	C 	0.1571	0.2588	0.7588	-0.143
Mof_C 	C 	0.1695	0.2386	0.7386	0.364
Mof_C 	C 	0.1358	0.7932	0.2932	0.137
Mof_C 	C 	0.1571	0.7588	0.2588	-0.143
Mof_C 	C 	0.1695	0.7386	0.2386	0.364
Mof_C 	C 	0.8642	0.0432	0.5432	0.138
Mof_C 	C 	0.8429	0.0088	0.5088	-0.147
Mof_C 	C 	0.8305	0.9886	0.4886	0.366
Mof_C 	C 	0.3642	0.0432	0.0432	0.139
Mof_C 	C 	0.3429	0.0088	0.0088	-0.151
Mof_C 	C 	0.3305	0.9886	0.9886	0.368
Mof_C 	C 	0.3642	0.5432	0.5432	0.138
Mof_C 	C 	0.3429	0.5088	0.5088	-0.143
Mof_C 	C 	0.3305	0.4886	0.4886	0.364
Mof_C 	C 	0.8858	0.2068	0.0432	0.138
Mof_C 	C 	0.9071	0.2412	0.0088	-0.147
Mof_C 	C 	0.9195	0.2614	0.9886	0.366
Mof_C 	C 	0.8858	0.7068	0.5432	0.138
Mof_C 	C 	0.9071	0.7412	0.5088	-0.143
Mof_C 	C 	0.9195	0.7614	0.4886	0.364
Mof_C 	C 	0.3858	0.2068	0.5432	0.138
Mof_C 	C 	0.4071	0.2412	0.5088	-0.143
Mof_C 	C 	0.4195	0.2614	0.4886	0.364
Mof_C 	C 	0.3642	0.7068	0.7068	0.138
Mof_C 	C 	0.3429	0.7412	0.7412	-0.143
Mof_C 	C 	0.3305	0.7614	0.7614	0.364
Mof_C 	C 	0.3642	0.2068	0.2068	0.138
Mof_C 	C 	0.3429	0.2412	0.2412	-0.143
Mof_C 	C 	0.3305	0.2614	0.2614	0.364
Mof_C 	C 	0.8642	0.7068	0.2068	0.138
Mof_C 	C 	0.8429	0.7412	0.2412	-0.143
Mof_C 	C 	0.8305	0.7614	0.2614	0.364
Mof_C 	C 	0.8642	0.2068	0.7068	0.138
Mof_C 	C 	0.8429	0.2412	0.7412	-0.143
Mof_C 	C 	0.8305	0.2614	0.7614	0.364
Mof_C 	C 	0.3858	0.5432	0.2068	0.138
Mof_C 	C 	0.4071	0.5088	0.2412	-0.143
Mof_C 	C 	0.4195	0.4886	0.2614	0.364
Mof_C 	C 	0.3858	0.0432	0.7068	0.138
Mof_C 	C 	0.4071	0.0088	0.7412	-0.147
Mof_C 	C 	0.4195	0.9886	0.7614	0.366
Mof_C 	C 	0.5432	0.2068	0.3858	0.138
Mof_C 	C 	0.5088	0.2412	0.4071	-0.143
Mof_C 	C 	0.4886	0.2614	0.4195	0.364
Mof_C 	C 	0.5432	0.7068	0.8858	0.138
Mof_C 	C 	0.5088	0.7412	0.9071	-0.143
Mof_C 	C 	0.4886	0.7614	0.9195	0.364
Mof_C 	C 	0.7068	0.7068	0.3642	0.138
Mof_C 	C 	0.7412	0.7412	0.3429	-0.143
Mof_C 	C 	0.7614	0.7614	0.3305	0.364
Mof_C 	C 	0.7068	0.2068	0.8642	0.138
Mof_C 	C 	0.7412	0.2412	0.8429	-0.143
Mof_C 	C 	0.7614	0.2614	0.8305	0.364
Mof_C 	C 	0.2068	0.7068	0.8642	0.138
Mof_C 	C 	0.2412	0.7412	0.8429	-0.143
Mof_C 	C 	0.2614	0.7614	0.8305	0.364
Mof_C 	C 	0.2068	0.2068	0.3642	0.138
Mof_C 	C 	0.2412	0.2412	0.3429	-0.143
Mof_C 	C 	0.2614	0.2614	0.3305	0.364
Mof_C 	C 	0.2068	0.0432	0.8858	0.138
Mof_C 	C 	0.2412	0.0088	0.9071	-0.147
Mof_C 	C 	0.2614	0.9886	0.9195	0.366
Mof_C 	C 	0.2068	0.5432	0.3858	0.138
Mof_C 	C 	0.2412	0.5088	0.4071	-0.143
Mof_C 	C 	0.2614	0.4886	0.4195	0.364
Mof_C 	C 	0.7068	0.0432	0.3858	0.138
Mof_C 	C 	0.7412	0.0088	0.4071	-0.147
Mof_C 	C 	0.7614	0.9886	0.4195	0.366
Mof_C 	C 	0.0432	0.5432	0.8642	0.138
Mof_C 	C 	0.0088	0.5088	0.8429	-0.147
Mof_C 	C 	0.9886	0.4886	0.8305	0.366
Mof_C 	C 	0.0432	0.0432	0.3642	0.139
Mof_C 	C 	0.0088	0.0088	0.3429	-0.151
Mof_C 	C 	0.9886	0.9886	0.3305	0.368
Mof_C 	C 	0.5432	0.5432	0.3642	0.138
Mof_C 	C 	0.5088	0.5088	0.3429	-0.143
Mof_C 	C 	0.4886	0.4886	0.3305	0.364
Mof_C 	C 	0.7068	0.3642	0.7068	0.138
Mof_C 	C 	0.7412	0.3429	0.7412	-0.143
Mof_C 	C 	0.7614	0.3305	0.7614	0.364
Mof_C 	C 	0.7068	0.8642	0.2068	0.138
Mof_C 	C 	0.7412	0.8429	0.2412	-0.143
Mof_C 	C 	0.7614	0.8305	0.2614	0.364
Mof_C 	C 	0.2068	0.3642	0.2068	0.138
Mof_C 	C 	0.2412	0.3429	0.2412	-0.143
Mof_C 	C 	0.2614	0.3305	0.2614	0.364
Mof_C 	C 	0.2068	0.8642	0.7068	0.138
Mof_C 	C 	0.2412	0.8429	0.7412	-0.143
Mof_C 	C 	0.2614	0.8305	0.7614	0.364
Mof_C 	C 	0.2068	0.3858	0.5432	0.138
Mof_C 	C 	0.2412	0.4071	0.5088	-0.143
Mof_C 	C 	0.2614	0.4195	0.4886	0.364
Mof_C 	C 	0.7068	0.3858	0.0432	0.138
Mof_C 	C 	0.7412	0.4071	0.0088	-0.147
Mof_C 	C 	0.7614	0.4195	0.9886	0.366
Mof_C 	C 	0.5432	0.8642	0.0432	0.138
Mof_C 	C 	0.5088	0.8429	0.0088	-0.147
Mof_C 	C 	0.4886	0.8305	0.9886	0.366
Mof_C 	C 	0.5432	0.3642	0.5432	0.138
Mof_C 	C 	0.5088	0.3429	0.5088	-0.143
Mof_C 	C 	0.4886	0.3305	0.4886	0.364
Mof_C 	C 	0.0432	0.8858	0.2068	0.138
Mof_C 	C 	0.0088	0.9071	0.2412	-0.147
Mof_C 	C 	0.9886	0.9195	0.2614	0.366
Mof_C 	C 	0.0432	0.3858	0.7068	0.138
Mof_C 	C 	0.0088	0.4071	0.7412	-0.147
Mof_C 	C 	0.9886	0.4195	0.7614	0.366
Mof_C 	C 	0.5432	0.3858	0.2068	0.138
Mof_C 	C 	0.5088	0.4071	0.2412	-0.143
Mof_C 	C 	0.4886	0.4195	0.2614	0.364
Mof_C 	C 	0.2068	0.8858	0.0432	0.138
Mof_C 	C 	0.2412	0.9071	0.0088	-0.147
Mof_C 	C 	0.2614	0.9195	0.9886	0.366
Mof_C 	C 	0.7068	0.8858	0.5432	0.138
Mof_C 	C 	0.7412	0.9071	0.5088	-0.143
Mof_C 	C 	0.7614	0.9195	0.4886	0.364
Mof_C 	C 	0.0432	0.8642	0.5432	0.138
Mof_C 	C 	0.0088	0.8429	0.5088	-0.147
Mof_C 	C 	0.9886	0.8305	0.4886	0.366
Mof_C 	C 	0.0432	0.3642	0.0432	0.139
Mof_C 	C 	0.0088	0.3429	0.0088	-0.151
Mof_C 	C 	0.9886	0.3305	0.9886	0.368
Mof_C 	C 	0.5432	0.8858	0.7068	0.138
Mof_C 	C 	0.5088	0.9071	0.7412	-0.143
Mof_C 	C 	0.4886	0.9195	0.7614	0.364
Mof_C 	C 	0.0432	0.2068	0.8858	0.138
Mof_C 	C 	0.0088	0.2412	0.9071	-0.147
Mof_C 	C 	0.9886	0.2614	0.9195	0.366
Mof_C 	C 	0.0432	0.7068	0.3858	0.138
Mof_C 	C 	0.0088	0.7412	0.4071	-0.147
Mof_C 	C 	0.9886	0.7614	0.4195	0.366
Mof_C 	C 	0.5432	0.0432	0.8642	0.138
Mof_C 	C 	0.5088	0.0088	0.8429	-0.147
Mof_C 	C 	0.4886	0.9886	0.8305	0.366
Mof_C 	C 	0.7068	0.5432	0.8858	0.138
Mof_C 	C 	0.7412	0.5088	0.9071	-0.143
Mof_C 	C 	0.7614	0.4886	0.9195	0.364
Mof_C 	C 	0.8858	0.0432	0.2068	0.138
Mof_C 	C 	0.9071	0.0088	0.2412	-0.147
Mof_C 	C 	0.9195	0.9886	0.2614	0.366
Mof_C 	C 	0.8858	0.5432	0.7068	0.138
Mof_C 	C 	0.9071	0.5088	0.7412	-0.143
Mof_C 	C 	0.9195	0.4886	0.7614	0.364
Mof_C 	C 	0.8642	0.5432	0.0432	0.138
Mof_C 	C 	0.8429	0.5088	0.0088	-0.147
Mof_C 	C 	0.8305	0.4886	0.9886	0.366
Mof_C 	C 	0.3858	0.7068	0.0432	0.138
Mof_C 	C 	0.4071	0.7412	0.0088	-0.147
Mof_C 	C 	0.4195	0.7614	0.9886	0.366
Mof_C 	C 	0.1358	0.9568	0.4568	0.137
Mof_C 	C 	0.1571	0.9912	0.4912	-0.139
Mof_C 	C 	0.1695	0.0114	0.5114	0.362
Mof_C 	C 	0.1142	0.7932	0.9568	0.137
Mof_C 	C 	0.0929	0.7588	0.9912	-0.139
Mof_C 	C 	0.0805	0.7386	0.0114	0.362
Mof_C 	C 	0.1142	0.2932	0.4568	0.137
Mof_C 	C 	0.0929	0.2588	0.4912	-0.143
Mof_C 	C 	0.0805	0.2386	0.5114	0.364
Mof_C 	C 	0.6142	0.4568	0.7932	0.138
Mof_C 	C 	0.5929	0.4912	0.7588	-0.143
Mof_C 	C 	0.5805	0.5114	0.7386	0.364
Mof_C 	C 	0.6142	0.9568	0.2932	0.137
Mof_C 	C 	0.5929	0.9912	0.2588	-0.139
Mof_C 	C 	0.5805	0.0114	0.2386	0.362
Mof_C 	C 	0.4568	0.7932	0.6142	0.138
Mof_C 	C 	0.4912	0.7588	0.5929	-0.143
Mof_C 	C 	0.5114	0.7386	0.5805	0.364
Mof_C 	C 	0.4568	0.2932	0.1142	0.137
Mof_C 	C 	0.4912	0.2588	0.0929	-0.143
Mof_C 	C 	0.5114	0.2386	0.0805	0.364
Mof_C 	C 	0.7932	0.9568	0.1142	0.137
Mof_C 	C 	0.7588	0.9912	0.0929	-0.139
Mof_C 	C 	0.7386	0.0114	0.0805	0.362
Mof_C 	C 	0.2932	0.9568	0.6142	0.137
Mof_C 	C 	0.2588	0.9912	0.5929	-0.139
Mof_C 	C 	0.2386	0.0114	0.5805	0.362
Mof_C 	C 	0.9568	0.4568	0.1358	0.137
Mof_C 	C 	0.9912	0.4912	0.1571	-0.139
Mof_C 	C 	0.0114	0.5114	0.1695	0.362
Mof_C 	C 	0.7932	0.6142	0.4568	0.138
Mof_C 	C 	0.7588	0.5929	0.4912	-0.143
Mof_C 	C 	0.7386	0.5805	0.5114	0.364
Mof_C 	C 	0.2932	0.6142	0.9568	0.137
Mof_C 	C 	0.2588	0.5929	0.9912	-0.139
Mof_C 	C 	0.2386	0.5805	0.0114	0.362
Mof_C 	C 	0.4568	0.1358	0.9568	0.137
Mof_C 	C 	0.4912	0.1571	0.9912	-0.139
Mof_C 	C 	0.5114	0.1695	0.0114	0.362
Mof_C 	C 	0.4568	0.6358	0.4568	0.138
Mof_C 	C 	0.4912	0.6571	0.4912	-0.143
Mof_C 	C 	0.5114	0.6695	0.5114	0.364
Mof_C 	C 	0.9568	0.1142	0.7932	0.137
Mof_C 	C 	0.9912	0.0929	0.7588	-0.139
Mof_C 	C 	0.0114	0.0805	0.7386	0.362
Mof_C 	C 	0.9568	0.6142	0.2932	0.137
Mof_C 	C 	0.9912	0.5929	0.2588	-0.139
Mof_C 	C 	0.0114	0.5805	0.2386	0.362
Mof_C 	C 	0.5927	0.0927	0.0589	0.145
Mof_C 	C 	0.5927	0.5927	0.5589	0.145
Mof_C 	C 	0.1573	0.1573	0.5589	0.145
Mof_C 	C 	0.1573	0.6573	0.0589	0.145
Mof_C 	C 	0.6573	0.1573	0.0589	0.145
Mof_C 	C 	0.6573	0.6573	0.5589	0.145
Mof_C 	C 	0.6573	0.5927	0.6911	0.145
Mof_C 	C 	0.1573	0.5927	0.1911	0.145
Mof_C 	C 	0.0927	0.6573	0.1911	0.145
Mof_C 	C 	0.0927	0.1573	0.6911	0.145
Mof_C 	C 	0.0589	0.5927	0.0927	0.145
Mof_C 	C 	0.5589	0.5927	0.5927	0.145
Mof_C 	C 	0.5589	0.1573	0.1573	0.145
Mof_C 	C 	0.5589	0.6573	0.6573	0.145
Mof_C 	C 	0.0589	0.1573	0.6573	0.145
Mof_C 	C 	0.0589	0.6573	0.1573	0.145
Mof_C 	C 	0.6911	0.6573	0.5927	0.145
Mof_C 	C 	0.6911	0.1573	0.0927	0.145
Mof_C 	C 	0.1911	0.0927	0.6573	0.145
Mof_C 	C 	0.1911	0.5927	0.1573	0.145
Mof_C 	C 	0.0927	0.0589	0.5927	0.145
Mof_C 	C 	0.0927	0.5589	0.0927	0.145
Mof_C 	C 	0.1573	0.5589	0.1573	0.145
Mof_C 	C 	0.1573	0.0589	0.6573	0.145
Mof_C 	C 	0.6573	0.5589	0.6573	0.145
Mof_C 	C 	0.6573	0.0589	0.1573	0.145
Mof_C 	C 	0.5927	0.6911	0.6573	0.145
Mof_C 	C 	0.5927	0.1911	0.1573	0.145
Mof_C 	C 	0.6573	0.1911	0.0927	0.145
Mof_C 	C 	0.1573	0.1911	0.5927	0.145
Mof_C 	C 	0.8427	0.8427	0.4411	0.145
Mof_C 	C 	0.8427	0.3427	0.9411	0.145
Mof_C 	C 	0.3427	0.8427	0.9411	0.145
Mof_C 	C 	0.3427	0.3427	0.4411	0.145
Mof_C 	C 	0.9073	0.4073	0.9411	0.145
Mof_C 	C 	0.9073	0.9073	0.4411	0.145
Mof_C 	C 	0.3427	0.9073	0.8089	0.145
Mof_C 	C 	0.8427	0.9073	0.3089	0.145
Mof_C 	C 	0.4073	0.3427	0.3089	0.145
Mof_C 	C 	0.4073	0.8427	0.8089	0.145
Mof_C 	C 	0.3427	0.3089	0.4073	0.145
Mof_C 	C 	0.8427	0.3089	0.9073	0.145
Mof_C 	C 	0.9073	0.8089	0.3427	0.145
Mof_C 	C 	0.9073	0.3089	0.8427	0.145
Mof_C 	C 	0.4073	0.9411	0.9073	0.145
Mof_C 	C 	0.4073	0.4411	0.4073	0.145
Mof_C 	C 	0.8427	0.4411	0.8427	0.145
Mof_C 	C 	0.8427	0.9411	0.3427	0.145
Mof_C 	C 	0.3427	0.4411	0.3427	0.145
Mof_C 	C 	0.3427	0.9411	0.8427	0.145
Mof_C 	C 	0.8089	0.3427	0.9073	0.145
Mof_C 	C 	0.8089	0.8427	0.4073	0.145
Mof_C 	C 	0.3089	0.4073	0.3427	0.145
Mof_C 	C 	0.3089	0.9073	0.8427	0.145
Mof_C 	C 	0.4411	0.8427	0.8427	0.145
Mof_C 	C 	0.4411	0.3427	0.3427	0.145
Mof_C 	C 	0.9411	0.8427	0.3427	0.145
Mof_C 	C 	0.9411	0.3427	0.8427	0.145
Mof_C 	C 	0.9411	0.9073	0.4073	0.145
Mof_C 	C 	0.4411	0.9073	0.9073	0.145
Mof_C 	C 	0.4073	0.9073	0.9411	0.145
Mof_C 	C 	0.4073	0.4073	0.4411	0.145
Mof_C 	C 	0.3427	0.4073	0.3089	0.145
Mof_C 	C 	0.8427	0.4073	0.8089	0.145
Mof_C 	C 	0.9073	0.3427	0.8089	0.145
Mof_C 	C 	0.9073	0.8427	0.3089	0.145
Mof_C 	C 	0.9411	0.4073	0.9073	0.145
Mof_C 	C 	0.4411	0.4073	0.4073	0.145
Mof_C 	C 	0.3089	0.3427	0.4073	0.145
Mof_C 	C 	0.3089	0.8427	0.9073	0.145
Mof_C 	C 	0.8089	0.9073	0.3427	0.145
Mof_C 	C 	0.8089	0.4073	0.8427	0.145
Mof_C 	C 	0.9073	0.9411	0.4073	0.145
Mof_C 	C 	0.9073	0.4411	0.9073	0.145
Mof_C 	C 	0.4073	0.3089	0.3427	0.145
Mof_C 	C 	0.4073	0.8089	0.8427	0.145
Mof_C 	C 	0.3427	0.8089	0.9073	0.145
Mof_C 	C 	0.8427	0.8089	0.4073	0.145
Mof_C 	C 	0.0927	0.5927	0.0589	0.145
Mof_C 	C 	0.0927	0.0927	0.5589	0.145
Mof_C 	C 	0.6573	0.0927	0.1911	0.145
Mof_C 	C 	0.1573	0.0927	0.6911	0.145
Mof_C 	C 	0.5927	0.6573	0.6911	0.145
Mof_C 	C 	0.5927	0.1573	0.1911	0.145
Mof_C 	C 	0.6573	0.6911	0.5927	0.145
Mof_C 	C 	0.1573	0.6911	0.0927	0.145
Mof_C 	C 	0.0927	0.1911	0.6573	0.145
Mof_C 	C 	0.0927	0.6911	0.1573	0.145
Mof_C 	C 	0.5927	0.0589	0.0927	0.145
Mof_C 	C 	0.5927	0.5589	0.5927	0.145
Mof_C 	C 	0.1911	0.6573	0.0927	0.145
Mof_C 	C 	0.1911	0.1573	0.5927	0.145
Mof_C 	C 	0.6911	0.5927	0.6573	0.145
Mof_C 	C 	0.6911	0.0927	0.1573	0.145
Mof_C 	C 	0.0589	0.0927	0.5927	0.145
Mof_C 	C 	0.5589	0.0927	0.0927	0.145
_end
