# CIF file generated by openbabel 3.1.0, see https://openbabel.org
data_I
_chemical_name_common 'image0'
_cell_length_a 47.02
_cell_length_b 10.77
_cell_length_c 23.78
_cell_angle_alpha 90
_cell_angle_beta 94.87
_cell_angle_gamma 90
_space_group_name_H-M_alt 'P 1'
_space_group_name_Hall 'P 1'
loop_
    _symmetry_equiv_pos_as_xyz
    x,y,z
loop_
    _atom_site_label
    _atom_site_type_symbol
    _atom_site_fract_x
    _atom_site_fract_y
    _atom_site_fract_z
    _atom_site_occupancy
    Co1      Co       0.78453    0.34792    0.42515    1.000
    Co2      Co       0.49162    0.16544    0.43025    1.000
    O1       O        0.75190    0.20210    0.41890    1.000
    O2       O        0.98184    0.18490    0.54310    1.000
    O3       O        0.52262    0.12740    0.37690    1.000
    O4       O        0.91870    0.00040    0.75720    1.000
    O5       O        0.51211    0.94390    0.33600    1.000
    O6       O        0.90361    0.79450    0.60810    1.000
    O7       O        0.87741    0.99720    0.37730    1.000
    O8       O        0.74668    0.36640    0.36450    1.000
    O9       O        0.85324    0.90940    0.74240    1.000
    N1       N        0.80606    0.73310    0.85830    1.000
    O10      O        0.87379    0.08560    0.59980    1.000
    O11      O        0.80834    0.50580    0.41820    1.000
    O12      O        0.63826    0.05690    0.26060    1.000
    N2       N        0.96259    0.68890    0.49510    1.000
    O13      O        0.97147    0.36010    0.50020    1.000
    C1       C        0.66182    0.10680    0.29250    1.000
    C2       C        0.86233    0.23280    0.52930    1.000
    H1       H        0.88120    0.25950    0.53250    1.000
    O14      O        0.79940    0.60960    0.49620    1.000
    C3       C        0.82497    0.10410    0.55680    1.000
    H2       H        0.81830    0.04040    0.57850    1.000
    C4       C        0.91191    0.00200    0.45930    1.000
    H3       H        0.90720    0.92160    0.46930    1.000
    C5       C        0.67610    0.04370    0.33620    1.000
    H4       H        0.66950    0.96650    0.34680    1.000
    N3       N        0.96597    0.22850    0.87110    1.000
    C6       C        0.88743    0.94250    0.67630    1.000
    C7       C        0.52855    0.03220    0.34730    1.000
    N4       N        0.81458    0.25840    0.48430    1.000
    C8       C        0.89752    0.05900    0.41330    1.000
    C9       C        0.67210    0.22170    0.27690    1.000
    H5       H        0.66250    0.26550    0.24740    1.000
    C10      C        0.90351    0.17940    0.39910    1.000
    H6       H        0.89350    0.21750    0.36840    1.000
    C11      C        0.91490    0.68280    0.52730    1.000
    H7       H        0.89620    0.65370    0.52200    1.000
    C12      C        0.82350    0.66780    0.82630    1.000
    H8       H        0.82480    0.58240    0.83180    1.000
    C13      C        0.89941    0.05240    0.71270    1.000
    H9       H        0.90950    0.10970    0.69000    1.000
    H10      H        0.88400    0.09680    0.72860    1.000
    C14      C        0.85338    0.13590    0.56330    1.000
    C15      C        0.93361    0.07990    0.79310    1.000
    C16      C        0.70090    0.09490    0.36520    1.000
    H11      H        0.71030    0.05200    0.39520    1.000
    C17      C        0.55843    0.03540    0.32570    1.000
    C18      C        0.93520    0.65380    0.48980    1.000
    H12      H        0.92920    0.60610    0.45840    1.000
    C19      C        0.59100    0.97700    0.25770    1.000
    H13      H        0.59470    0.93400    0.22520    1.000
    C20      C        0.93259    0.20740    0.78830    1.000
    H14      H        0.92140    0.24620    0.75940    1.000
    C21      C        0.96548    0.24740    0.50870    1.000
    C22      C        0.73765    0.26290    0.37980    1.000
    C23      C        0.84237    0.28770    0.49070    1.000
    H15      H        0.84880    0.34950    0.46760    1.000
    C24      C        0.86339    0.98500    0.63340    1.000
    H16      H        0.85710    0.91630    0.60900    1.000
    H17      H        0.84730    0.01330    0.65280    1.000
    C25      C        0.86280    0.89700    0.39860    1.000
    C26      C        0.94906    0.27550    0.82870    1.000
    H18      H        0.94820    0.36160    0.82580    1.000
    C27      C        0.83010    0.81650    0.46050    1.000
    H19      H        0.81920    0.82830    0.49090    1.000
    C28      C        0.83925    0.71910    0.78680    1.000
    H20      H        0.85070    0.66980    0.76590    1.000
    C29      C        0.84640    0.91310    0.44200    1.000
    H21      H        0.84590    0.99010    0.45960    1.000
    C30      C        0.93354    0.06590    0.49040    1.000
    H22      H        0.94330    0.02750    0.52140    1.000
    C31      C        0.92419    0.75860    0.57380    1.000
    C32      C        0.56397    0.96870    0.27790    1.000
    H23      H        0.54990    0.91910    0.25950    1.000
    C33      C        0.60688    0.11210    0.33450    1.000
    H24      H        0.62120    0.15760    0.35430    1.000
    C34      C        0.57997    0.10610    0.35270    1.000
    H25      H        0.57610    0.15150    0.38440    1.000
    C35      C        0.83010    0.70060    0.43330    1.000
    C36      C        0.92478    0.24310    0.43140    1.000
    H26      H        0.92830    0.32570    0.42290    1.000
    C37      C        0.94099    0.18680    0.47610    1.000
    C38      C        0.80460    0.85410    0.84800    1.000
    H27      H        0.79260    0.90160    0.86860    1.000
    C39      C        0.87441    0.84570    0.71220    1.000
    H28      H        0.86550    0.78050    0.68870    1.000
    H29      H        0.88890    0.80890    0.73850    1.000
    C40      C        0.80598    0.16630    0.51780    1.000
    H30      H        0.78680    0.14360    0.51480    1.000
    C41      C        0.61212    0.04790    0.28520    1.000
    C42      C        0.91320    0.88980    0.64890    1.000
    H31      H        0.92280    0.95580    0.63020    1.000
    H32      H        0.92670    0.85430    0.67770    1.000
    C43      C        0.95100    0.02800    0.83570    1.000
    H33      H        0.95240    0.94210    0.83900    1.000
    C44      C        0.86360    0.78460    0.37230    1.000
    H34      H        0.87520    0.77350    0.34290    1.000
    C45      C        0.95297    0.79190    0.58170    1.000
    H35      H        0.95990    0.83740    0.61310    1.000
    C46      C        0.81960    0.91380    0.80880    1.000
    H36      H        0.81740    0.99870    0.80290    1.000
    C47      C        0.71110    0.20760    0.34910    1.000
    C48      C        0.84731    0.68780    0.38930    1.000
    H37      H        0.84790    0.61190    0.37080    1.000
    C49      C        0.83794    0.84560    0.77850    1.000
    C50      C        0.69636    0.27140    0.30470    1.000
    H38      H        0.70300    0.34830    0.29380    1.000
    C51      C        0.81090    0.59850    0.45100    1.000
    C52      C        0.97050    0.75560    0.54190    1.000
    H39      H        0.98960    0.77880    0.54750    1.000
    C53      C        0.96640    0.10430    0.87400    1.000
    H40      H        0.97770    0.06730    0.90340    1.000
    Co3      Co       0.28453    0.84792    0.42515    1.000
    Co4      Co       0.99162    0.66544    0.43025    1.000
    O15      O        0.25190    0.70210    0.41890    1.000
    O16      O        0.48184    0.68490    0.54310    1.000
    O17      O        0.02262    0.62740    0.37690    1.000
    O18      O        0.41870    0.50040    0.75720    1.000
    O19      O        0.01211    0.44390    0.33600    1.000
    O20      O        0.40361    0.29450    0.60810    1.000
    O21      O        0.37741    0.49720    0.37730    1.000
    O22      O        0.24668    0.86640    0.36450    1.000
    O23      O        0.35324    0.40940    0.74240    1.000
    N5       N        0.30606    0.23310    0.85830    1.000
    O24      O        0.37379    0.58560    0.59980    1.000
    O25      O        0.30834    0.00580    0.41820    1.000
    O26      O        0.13826    0.55690    0.26060    1.000
    N6       N        0.46259    0.18890    0.49510    1.000
    O27      O        0.47147    0.86010    0.50020    1.000
    C54      C        0.16182    0.60680    0.29250    1.000
    C55      C        0.36233    0.73280    0.52930    1.000
    H41      H        0.38120    0.75950    0.53250    1.000
    O28      O        0.29940    0.10960    0.49620    1.000
    C56      C        0.32497    0.60410    0.55680    1.000
    H42      H        0.31830    0.54040    0.57850    1.000
    C57      C        0.41191    0.50200    0.45930    1.000
    H43      H        0.40720    0.42160    0.46930    1.000
    C58      C        0.17610    0.54370    0.33620    1.000
    H44      H        0.16950    0.46650    0.34680    1.000
    N7       N        0.46597    0.72850    0.87110    1.000
    C59      C        0.38743    0.44250    0.67630    1.000
    C60      C        0.02855    0.53220    0.34730    1.000
    N8       N        0.31458    0.75840    0.48430    1.000
    C61      C        0.39752    0.55900    0.41330    1.000
    C62      C        0.17210    0.72170    0.27690    1.000
    H45      H        0.16250    0.76550    0.24740    1.000
    C63      C        0.40351    0.67940    0.39910    1.000
    H46      H        0.39350    0.71750    0.36840    1.000
    C64      C        0.41490    0.18280    0.52730    1.000
    H47      H        0.39620    0.15370    0.52200    1.000
    C65      C        0.32350    0.16780    0.82630    1.000
    H48      H        0.32480    0.08240    0.83180    1.000
    C66      C        0.39941    0.55240    0.71270    1.000
    H49      H        0.40950    0.60970    0.69000    1.000
    H50      H        0.38400    0.59680    0.72860    1.000
    C67      C        0.35338    0.63590    0.56330    1.000
    C68      C        0.43361    0.57990    0.79310    1.000
    C69      C        0.20090    0.59490    0.36520    1.000
    H51      H        0.21030    0.55200    0.39520    1.000
    C70      C        0.05843    0.53540    0.32570    1.000
    C71      C        0.43520    0.15380    0.48980    1.000
    H52      H        0.42920    0.10610    0.45840    1.000
    C72      C        0.09100    0.47700    0.25770    1.000
    H53      H        0.09470    0.43400    0.22520    1.000
    C73      C        0.43259    0.70740    0.78830    1.000
    H54      H        0.42140    0.74620    0.75940    1.000
    C74      C        0.46548    0.74740    0.50870    1.000
    C75      C        0.23765    0.76290    0.37980    1.000
    C76      C        0.34237    0.78770    0.49070    1.000
    H55      H        0.34880    0.84950    0.46760    1.000
    C77      C        0.36339    0.48500    0.63340    1.000
    H56      H        0.35710    0.41630    0.60900    1.000
    H57      H        0.34730    0.51330    0.65280    1.000
    C78      C        0.36280    0.39700    0.39860    1.000
    C79      C        0.44906    0.77550    0.82870    1.000
    H58      H        0.44820    0.86160    0.82580    1.000
    C80      C        0.33010    0.31650    0.46050    1.000
    H59      H        0.31920    0.32830    0.49090    1.000
    C81      C        0.33925    0.21910    0.78680    1.000
    H60      H        0.35070    0.16980    0.76590    1.000
    C82      C        0.34640    0.41310    0.44200    1.000
    H61      H        0.34590    0.49010    0.45960    1.000
    C83      C        0.43354    0.56590    0.49040    1.000
    H62      H        0.44330    0.52750    0.52140    1.000
    C84      C        0.42419    0.25860    0.57380    1.000
    C85      C        0.06397    0.46870    0.27790    1.000
    H63      H        0.04990    0.41910    0.25950    1.000
    C86      C        0.10688    0.61210    0.33450    1.000
    H64      H        0.12120    0.65760    0.35430    1.000
    C87      C        0.07997    0.60610    0.35270    1.000
    H65      H        0.07610    0.65150    0.38440    1.000
    C88      C        0.33010    0.20060    0.43330    1.000
    C89      C        0.42478    0.74310    0.43140    1.000
    H66      H        0.42830    0.82570    0.42290    1.000
    C90      C        0.44099    0.68680    0.47610    1.000
    C91      C        0.30460    0.35410    0.84800    1.000
    H67      H        0.29260    0.40160    0.86860    1.000
    C92      C        0.37441    0.34570    0.71220    1.000
    H68      H        0.36550    0.28050    0.68870    1.000
    H69      H        0.38890    0.30890    0.73850    1.000
    C93      C        0.30598    0.66630    0.51780    1.000
    H70      H        0.28680    0.64360    0.51480    1.000
    C94      C        0.11212    0.54790    0.28520    1.000
    C95      C        0.41320    0.38980    0.64890    1.000
    H71      H        0.42280    0.45580    0.63020    1.000
    H72      H        0.42670    0.35430    0.67770    1.000
    C96      C        0.45100    0.52800    0.83570    1.000
    H73      H        0.45240    0.44210    0.83900    1.000
    C97      C        0.36360    0.28460    0.37230    1.000
    H74      H        0.37520    0.27350    0.34290    1.000
    C98      C        0.45297    0.29190    0.58170    1.000
    H75      H        0.45990    0.33740    0.61310    1.000
    C99      C        0.31960    0.41380    0.80880    1.000
    H76      H        0.31740    0.49870    0.80290    1.000
    C100     C        0.21110    0.70760    0.34910    1.000
    C101     C        0.34731    0.18780    0.38930    1.000
    H77      H        0.34790    0.11190    0.37080    1.000
    C102     C        0.33794    0.34560    0.77850    1.000
    C103     C        0.19636    0.77140    0.30470    1.000
    H78      H        0.20300    0.84830    0.29380    1.000
    C104     C        0.31090    0.09850    0.45100    1.000
    C105     C        0.47050    0.25560    0.54190    1.000
    H79      H        0.48960    0.27880    0.54750    1.000
    C106     C        0.46640    0.60430    0.87400    1.000
    H80      H        0.47770    0.56730    0.90340    1.000
    Co5      Co       0.21547    0.34792    0.07485    1.000
    Co6      Co       0.50838    0.16544    0.06975    1.000
    O29      O        0.24810    0.20210    0.08110    1.000
    O30      O        0.01816    0.18490    0.95690    1.000
    O31      O        0.47738    0.12740    0.12310    1.000
    O32      O        0.08130    0.00040    0.74280    1.000
    O33      O        0.48789    0.94390    0.16400    1.000
    O34      O        0.09639    0.79450    0.89190    1.000
    O35      O        0.12259    0.99720    0.12270    1.000
    O36      O        0.25332    0.36640    0.13550    1.000
    O37      O        0.14676    0.90940    0.75760    1.000
    N9       N        0.19394    0.73310    0.64170    1.000
    O38      O        0.12621    0.08560    0.90020    1.000
    O39      O        0.19166    0.50580    0.08180    1.000
    O40      O        0.36174    0.05690    0.23940    1.000
    N10      N        0.03741    0.68890    0.00490    1.000
    O41      O        0.02853    0.36010    0.99980    1.000
    C107     C        0.33818    0.10680    0.20750    1.000
    C108     C        0.13767    0.23280    0.97070    1.000
    H81      H        0.11880    0.25950    0.96750    1.000
    O42      O        0.20060    0.60960    0.00380    1.000
    C109     C        0.17503    0.10410    0.94320    1.000
    H82      H        0.18170    0.04040    0.92150    1.000
    C110     C        0.08809    0.00200    0.04070    1.000
    H83      H        0.09280    0.92160    0.03070    1.000
    C111     C        0.32390    0.04370    0.16380    1.000
    H84      H        0.33050    0.96650    0.15320    1.000
    N11      N        0.03403    0.22850    0.62890    1.000
    C112     C        0.11257    0.94250    0.82370    1.000
    C113     C        0.47145    0.03220    0.15270    1.000
    N12      N        0.18542    0.25840    0.01570    1.000
    C114     C        0.10248    0.05900    0.08670    1.000
    C115     C        0.32790    0.22170    0.22310    1.000
    H85      H        0.33750    0.26550    0.25260    1.000
    C116     C        0.09649    0.17940    0.10090    1.000
    H86      H        0.10650    0.21750    0.13160    1.000
    C117     C        0.08510    0.68280    0.97270    1.000
    H87      H        0.10380    0.65370    0.97800    1.000
    C118     C        0.17650    0.66780    0.67370    1.000
    H88      H        0.17520    0.58240    0.66820    1.000
    C119     C        0.10059    0.05240    0.78730    1.000
    H89      H        0.09050    0.10970    0.81000    1.000
    H90      H        0.11600    0.09680    0.77140    1.000
    C120     C        0.14662    0.13590    0.93670    1.000
    C121     C        0.06639    0.07990    0.70690    1.000
    C122     C        0.29910    0.09490    0.13480    1.000
    H91      H        0.28970    0.05200    0.10480    1.000
    C123     C        0.44157    0.03540    0.17430    1.000
    C124     C        0.06480    0.65380    0.01020    1.000
    H92      H        0.07080    0.60610    0.04160    1.000
    C125     C        0.40900    0.97700    0.24230    1.000
    H93      H        0.40530    0.93400    0.27480    1.000
    C126     C        0.06741    0.20740    0.71170    1.000
    H94      H        0.07860    0.24620    0.74060    1.000
    C127     C        0.03452    0.24740    0.99130    1.000
    C128     C        0.26235    0.26290    0.12020    1.000
    C129     C        0.15763    0.28770    0.00930    1.000
    H95      H        0.15120    0.34950    0.03240    1.000
    C130     C        0.13661    0.98500    0.86660    1.000
    H96      H        0.14290    0.91630    0.89100    1.000
    H97      H        0.15270    0.01330    0.84720    1.000
    C131     C        0.13720    0.89700    0.10140    1.000
    C132     C        0.05094    0.27550    0.67130    1.000
    H98      H        0.05180    0.36160    0.67420    1.000
    C133     C        0.16990    0.81650    0.03950    1.000
    H99      H        0.18080    0.82830    0.00910    1.000
    C134     C        0.16075    0.71910    0.71320    1.000
    H100     H        0.14930    0.66980    0.73410    1.000
    C135     C        0.15360    0.91310    0.05800    1.000
    H101     H        0.15410    0.99010    0.04040    1.000
    C136     C        0.06646    0.06590    0.00960    1.000
    H102     H        0.05670    0.02750    0.97860    1.000
    C137     C        0.07581    0.75860    0.92620    1.000
    C138     C        0.43603    0.96870    0.22210    1.000
    H103     H        0.45010    0.91910    0.24050    1.000
    C139     C        0.39312    0.11210    0.16550    1.000
    H104     H        0.37880    0.15760    0.14570    1.000
    C140     C        0.42003    0.10610    0.14730    1.000
    H105     H        0.42390    0.15150    0.11560    1.000
    C141     C        0.16990    0.70060    0.06670    1.000
    C142     C        0.07522    0.24310    0.06860    1.000
    H106     H        0.07170    0.32570    0.07710    1.000
    C143     C        0.05901    0.18680    0.02390    1.000
    C144     C        0.19540    0.85410    0.65200    1.000
    H107     H        0.20740    0.90160    0.63140    1.000
    C145     C        0.12559    0.84570    0.78780    1.000
    H108     H        0.13450    0.78050    0.81130    1.000
    H109     H        0.11110    0.80890    0.76150    1.000
    C146     C        0.19402    0.16630    0.98220    1.000
    H110     H        0.21320    0.14360    0.98520    1.000
    C147     C        0.38788    0.04790    0.21480    1.000
    C148     C        0.08680    0.88980    0.85110    1.000
    H111     H        0.07720    0.95580    0.86980    1.000
    H112     H        0.07330    0.85430    0.82230    1.000
    C149     C        0.04900    0.02800    0.66430    1.000
    H113     H        0.04760    0.94210    0.66100    1.000
    C150     C        0.13640    0.78460    0.12770    1.000
    H114     H        0.12480    0.77350    0.15710    1.000
    C151     C        0.04703    0.79190    0.91830    1.000
    H115     H        0.04010    0.83740    0.88690    1.000
    C152     C        0.18040    0.91380    0.69120    1.000
    H116     H        0.18260    0.99870    0.69710    1.000
    C153     C        0.28890    0.20760    0.15090    1.000
    C154     C        0.15269    0.68780    0.11070    1.000
    H117     H        0.15210    0.61190    0.12920    1.000
    C155     C        0.16206    0.84560    0.72150    1.000
    C156     C        0.30364    0.27140    0.19530    1.000
    H118     H        0.29700    0.34830    0.20620    1.000
    C157     C        0.18910    0.59850    0.04900    1.000
    C158     C        0.02950    0.75560    0.95810    1.000
    H119     H        0.01040    0.77880    0.95250    1.000
    C159     C        0.03360    0.10430    0.62600    1.000
    H120     H        0.02230    0.06730    0.59660    1.000
    Co7      Co       0.71547    0.84792    0.07485    1.000
    Co8      Co       0.00838    0.66544    0.06975    1.000
    O43      O        0.74810    0.70210    0.08110    1.000
    O44      O        0.51816    0.68490    0.95690    1.000
    O45      O        0.97738    0.62740    0.12310    1.000
    O46      O        0.58130    0.50040    0.74280    1.000
    O47      O        0.98789    0.44390    0.16400    1.000
    O48      O        0.59639    0.29450    0.89190    1.000
    O49      O        0.62259    0.49720    0.12270    1.000
    O50      O        0.75332    0.86640    0.13550    1.000
    O51      O        0.64676    0.40940    0.75760    1.000
    N13      N        0.69394    0.23310    0.64170    1.000
    O52      O        0.62621    0.58560    0.90020    1.000
    O53      O        0.69166    0.00580    0.08180    1.000
    O54      O        0.86174    0.55690    0.23940    1.000
    N14      N        0.53741    0.18890    0.00490    1.000
    O55      O        0.52853    0.86010    0.99980    1.000
    C160     C        0.83818    0.60680    0.20750    1.000
    C161     C        0.63767    0.73280    0.97070    1.000
    H121     H        0.61880    0.75950    0.96750    1.000
    O56      O        0.70060    0.10960    0.00380    1.000
    C162     C        0.67503    0.60410    0.94320    1.000
    H122     H        0.68170    0.54040    0.92150    1.000
    C163     C        0.58809    0.50200    0.04070    1.000
    H123     H        0.59280    0.42160    0.03070    1.000
    C164     C        0.82390    0.54370    0.16380    1.000
    H124     H        0.83050    0.46650    0.15320    1.000
    N15      N        0.53403    0.72850    0.62890    1.000
    C165     C        0.61257    0.44250    0.82370    1.000
    C166     C        0.97145    0.53220    0.15270    1.000
    N16      N        0.68542    0.75840    0.01570    1.000
    C167     C        0.60248    0.55900    0.08670    1.000
    C168     C        0.82790    0.72170    0.22310    1.000
    H125     H        0.83750    0.76550    0.25260    1.000
    C169     C        0.59649    0.67940    0.10090    1.000
    H126     H        0.60650    0.71750    0.13160    1.000
    C170     C        0.58510    0.18280    0.97270    1.000
    H127     H        0.60380    0.15370    0.97800    1.000
    C171     C        0.67650    0.16780    0.67370    1.000
    H128     H        0.67520    0.08240    0.66820    1.000
    C172     C        0.60059    0.55240    0.78730    1.000
    H129     H        0.59050    0.60970    0.81000    1.000
    H130     H        0.61600    0.59680    0.77140    1.000
    C173     C        0.64662    0.63590    0.93670    1.000
    C174     C        0.56639    0.57990    0.70690    1.000
    C175     C        0.79910    0.59490    0.13480    1.000
    H131     H        0.78970    0.55200    0.10480    1.000
    C176     C        0.94157    0.53540    0.17430    1.000
    C177     C        0.56480    0.15380    0.01020    1.000
    H132     H        0.57080    0.10610    0.04160    1.000
    C178     C        0.90900    0.47700    0.24230    1.000
    H133     H        0.90530    0.43400    0.27480    1.000
    C179     C        0.56741    0.70740    0.71170    1.000
    H134     H        0.57860    0.74620    0.74060    1.000
    C180     C        0.53452    0.74740    0.99130    1.000
    C181     C        0.76235    0.76290    0.12020    1.000
    C182     C        0.65763    0.78770    0.00930    1.000
    H135     H        0.65120    0.84950    0.03240    1.000
    C183     C        0.63661    0.48500    0.86660    1.000
    H136     H        0.64290    0.41630    0.89100    1.000
    H137     H        0.65270    0.51330    0.84720    1.000
    C184     C        0.63720    0.39700    0.10140    1.000
    C185     C        0.55094    0.77550    0.67130    1.000
    H138     H        0.55180    0.86160    0.67420    1.000
    C186     C        0.66990    0.31650    0.03950    1.000
    H139     H        0.68080    0.32830    0.00910    1.000
    C187     C        0.66075    0.21910    0.71320    1.000
    H140     H        0.64930    0.16980    0.73410    1.000
    C188     C        0.65360    0.41310    0.05800    1.000
    H141     H        0.65410    0.49010    0.04040    1.000
    C189     C        0.56646    0.56590    0.00960    1.000
    H142     H        0.55670    0.52750    0.97860    1.000
    C190     C        0.57581    0.25860    0.92620    1.000
    C191     C        0.93603    0.46870    0.22210    1.000
    H143     H        0.95010    0.41910    0.24050    1.000
    C192     C        0.89312    0.61210    0.16550    1.000
    H144     H        0.87880    0.65760    0.14570    1.000
    C193     C        0.92003    0.60610    0.14730    1.000
    H145     H        0.92390    0.65150    0.11560    1.000
    C194     C        0.66990    0.20060    0.06670    1.000
    C195     C        0.57522    0.74310    0.06860    1.000
    H146     H        0.57170    0.82570    0.07710    1.000
    C196     C        0.55901    0.68680    0.02390    1.000
    C197     C        0.69540    0.35410    0.65200    1.000
    H147     H        0.70740    0.40160    0.63140    1.000
    C198     C        0.62559    0.34570    0.78780    1.000
    H148     H        0.63450    0.28050    0.81130    1.000
    H149     H        0.61110    0.30890    0.76150    1.000
    C199     C        0.69402    0.66630    0.98220    1.000
    H150     H        0.71320    0.64360    0.98520    1.000
    C200     C        0.88788    0.54790    0.21480    1.000
    C201     C        0.58680    0.38980    0.85110    1.000
    H151     H        0.57720    0.45580    0.86980    1.000
    H152     H        0.57330    0.35430    0.82230    1.000
    C202     C        0.54900    0.52800    0.66430    1.000
    H153     H        0.54760    0.44210    0.66100    1.000
    C203     C        0.63640    0.28460    0.12770    1.000
    H154     H        0.62480    0.27350    0.15710    1.000
    C204     C        0.54703    0.29190    0.91830    1.000
    H155     H        0.54010    0.33740    0.88690    1.000
    C205     C        0.68040    0.41380    0.69120    1.000
    H156     H        0.68260    0.49870    0.69710    1.000
    C206     C        0.78890    0.70760    0.15090    1.000
    C207     C        0.65269    0.18780    0.11070    1.000
    H157     H        0.65210    0.11190    0.12920    1.000
    C208     C        0.66206    0.34560    0.72150    1.000
    C209     C        0.80364    0.77140    0.19530    1.000
    H158     H        0.79700    0.84830    0.20620    1.000
    C210     C        0.68910    0.09850    0.04900    1.000
    C211     C        0.52950    0.25560    0.95810    1.000
    H159     H        0.51040    0.27880    0.95250    1.000
    C212     C        0.53360    0.60430    0.62600    1.000
    H160     H        0.52230    0.56730    0.59660    1.000
    Co9      Co       0.21547    0.65208    0.57485    1.000
    Co10     Co       0.50838    0.83456    0.56975    1.000
    O57      O        0.24810    0.79790    0.58110    1.000
    O58      O        0.01816    0.81510    0.45690    1.000
    O59      O        0.47738    0.87260    0.62310    1.000
    O60      O        0.08130    0.99960    0.24280    1.000
    O61      O        0.48789    0.05610    0.66400    1.000
    O62      O        0.09639    0.20550    0.39190    1.000
    O63      O        0.12259    0.00280    0.62270    1.000
    O64      O        0.25332    0.63360    0.63550    1.000
    O65      O        0.14676    0.09060    0.25760    1.000
    N17      N        0.19394    0.26690    0.14170    1.000
    O66      O        0.12621    0.91440    0.40020    1.000
    O67      O        0.19166    0.49420    0.58180    1.000
    O68      O        0.36174    0.94310    0.73940    1.000
    N18      N        0.03741    0.31110    0.50490    1.000
    O69      O        0.02853    0.63990    0.49980    1.000
    C213     C        0.33818    0.89320    0.70750    1.000
    C214     C        0.13767    0.76720    0.47070    1.000
    H161     H        0.11880    0.74050    0.46750    1.000
    O70      O        0.20060    0.39040    0.50380    1.000
    C215     C        0.17503    0.89590    0.44320    1.000
    H162     H        0.18170    0.95960    0.42150    1.000
    C216     C        0.08809    0.99800    0.54070    1.000
    H163     H        0.09280    0.07840    0.53070    1.000
    C217     C        0.32390    0.95630    0.66380    1.000
    H164     H        0.33050    0.03350    0.65320    1.000
    N19      N        0.03403    0.77150    0.12890    1.000
    C218     C        0.11257    0.05750    0.32370    1.000
    C219     C        0.47145    0.96780    0.65270    1.000
    N20      N        0.18542    0.74160    0.51570    1.000
    C220     C        0.10248    0.94100    0.58670    1.000
    C221     C        0.32790    0.77830    0.72310    1.000
    H165     H        0.33750    0.73450    0.75260    1.000
    C222     C        0.09649    0.82060    0.60090    1.000
    H166     H        0.10650    0.78250    0.63160    1.000
    C223     C        0.08510    0.31720    0.47270    1.000
    H167     H        0.10380    0.34630    0.47800    1.000
    C224     C        0.17650    0.33220    0.17370    1.000
    H168     H        0.17520    0.41760    0.16820    1.000
    C225     C        0.10059    0.94760    0.28730    1.000
    H169     H        0.09050    0.89030    0.31000    1.000
    H170     H        0.11600    0.90320    0.27140    1.000
    C226     C        0.14662    0.86410    0.43670    1.000
    C227     C        0.06639    0.92010    0.20690    1.000
    C228     C        0.29910    0.90510    0.63480    1.000
    H171     H        0.28970    0.94800    0.60480    1.000
    C229     C        0.44157    0.96460    0.67430    1.000
    C230     C        0.06480    0.34620    0.51020    1.000
    H172     H        0.07080    0.39390    0.54160    1.000
    C231     C        0.40900    0.02300    0.74230    1.000
    H173     H        0.40530    0.06600    0.77480    1.000
    C232     C        0.06741    0.79260    0.21170    1.000
    H174     H        0.07860    0.75380    0.24060    1.000
    C233     C        0.03452    0.75260    0.49130    1.000
    C234     C        0.26235    0.73710    0.62020    1.000
    C235     C        0.15763    0.71230    0.50930    1.000
    H175     H        0.15120    0.65050    0.53240    1.000
    C236     C        0.13661    0.01500    0.36660    1.000
    H176     H        0.14290    0.08370    0.39100    1.000
    H177     H        0.15270    0.98670    0.34720    1.000
    C237     C        0.13720    0.10300    0.60140    1.000
    C238     C        0.05094    0.72450    0.17130    1.000
    H178     H        0.05180    0.63840    0.17420    1.000
    C239     C        0.16990    0.18350    0.53950    1.000
    H179     H        0.18080    0.17170    0.50910    1.000
    C240     C        0.16075    0.28090    0.21320    1.000
    H180     H        0.14930    0.33020    0.23410    1.000
    C241     C        0.15360    0.08690    0.55800    1.000
    H181     H        0.15410    0.00990    0.54040    1.000
    C242     C        0.06646    0.93410    0.50960    1.000
    H182     H        0.05670    0.97250    0.47860    1.000
    C243     C        0.07581    0.24140    0.42620    1.000
    C244     C        0.43603    0.03130    0.72210    1.000
    H183     H        0.45010    0.08090    0.74050    1.000
    C245     C        0.39312    0.88790    0.66550    1.000
    H184     H        0.37880    0.84240    0.64570    1.000
    C246     C        0.42003    0.89390    0.64730    1.000
    H185     H        0.42390    0.84850    0.61560    1.000
    C247     C        0.16990    0.29940    0.56670    1.000
    C248     C        0.07522    0.75690    0.56860    1.000
    H186     H        0.07170    0.67430    0.57710    1.000
    C249     C        0.05901    0.81320    0.52390    1.000
    C250     C        0.19540    0.14590    0.15200    1.000
    H187     H        0.20740    0.09840    0.13140    1.000
    C251     C        0.12559    0.15430    0.28780    1.000
    H188     H        0.13450    0.21950    0.31130    1.000
    H189     H        0.11110    0.19110    0.26150    1.000
    C252     C        0.19402    0.83370    0.48220    1.000
    H190     H        0.21320    0.85640    0.48520    1.000
    C253     C        0.38788    0.95210    0.71480    1.000
    C254     C        0.08680    0.11020    0.35110    1.000
    H191     H        0.07720    0.04420    0.36980    1.000
    H192     H        0.07330    0.14570    0.32230    1.000
    C255     C        0.04900    0.97200    0.16430    1.000
    H193     H        0.04760    0.05790    0.16100    1.000
    C256     C        0.13640    0.21540    0.62770    1.000
    H194     H        0.12480    0.22650    0.65710    1.000
    C257     C        0.04703    0.20810    0.41830    1.000
    H195     H        0.04010    0.16260    0.38690    1.000
    C258     C        0.18040    0.08620    0.19120    1.000
    H196     H        0.18260    0.00130    0.19710    1.000
    C259     C        0.28890    0.79240    0.65090    1.000
    C260     C        0.15269    0.31220    0.61070    1.000
    H197     H        0.15210    0.38810    0.62920    1.000
    C261     C        0.16206    0.15440    0.22150    1.000
    C262     C        0.30364    0.72860    0.69530    1.000
    H198     H        0.29700    0.65170    0.70620    1.000
    C263     C        0.18910    0.40150    0.54900    1.000
    C264     C        0.02950    0.24440    0.45810    1.000
    H199     H        0.01040    0.22120    0.45250    1.000
    C265     C        0.03360    0.89570    0.12600    1.000
    H200     H        0.02230    0.93270    0.09660    1.000
    Co11     Co       0.71547    0.15208    0.57485    1.000
    Co12     Co       0.00838    0.33456    0.56975    1.000
    O71      O        0.74810    0.29790    0.58110    1.000
    O72      O        0.51816    0.31510    0.45690    1.000
    O73      O        0.97738    0.37260    0.62310    1.000
    O74      O        0.58130    0.49960    0.24280    1.000
    O75      O        0.98789    0.55610    0.66400    1.000
    O76      O        0.59639    0.70550    0.39190    1.000
    O77      O        0.62259    0.50280    0.62270    1.000
    O78      O        0.75332    0.13360    0.63550    1.000
    O79      O        0.64676    0.59060    0.25760    1.000
    N21      N        0.69394    0.76690    0.14170    1.000
    O80      O        0.62621    0.41440    0.40020    1.000
    O81      O        0.69166    0.99420    0.58180    1.000
    O82      O        0.86174    0.44310    0.73940    1.000
    N22      N        0.53741    0.81110    0.50490    1.000
    O83      O        0.52853    0.13990    0.49980    1.000
    C266     C        0.83818    0.39320    0.70750    1.000
    C267     C        0.63767    0.26720    0.47070    1.000
    H201     H        0.61880    0.24050    0.46750    1.000
    O84      O        0.70060    0.89040    0.50380    1.000
    C268     C        0.67503    0.39590    0.44320    1.000
    H202     H        0.68170    0.45960    0.42150    1.000
    C269     C        0.58809    0.49800    0.54070    1.000
    H203     H        0.59280    0.57840    0.53070    1.000
    C270     C        0.82390    0.45630    0.66380    1.000
    H204     H        0.83050    0.53350    0.65320    1.000
    N23      N        0.53403    0.27150    0.12890    1.000
    C271     C        0.61257    0.55750    0.32370    1.000
    C272     C        0.97145    0.46780    0.65270    1.000
    N24      N        0.68542    0.24160    0.51570    1.000
    C273     C        0.60248    0.44100    0.58670    1.000
    C274     C        0.82790    0.27830    0.72310    1.000
    H205     H        0.83750    0.23450    0.75260    1.000
    C275     C        0.59649    0.32060    0.60090    1.000
    H206     H        0.60650    0.28250    0.63160    1.000
    C276     C        0.58510    0.81720    0.47270    1.000
    H207     H        0.60380    0.84630    0.47800    1.000
    C277     C        0.67650    0.83220    0.17370    1.000
    H208     H        0.67520    0.91760    0.16820    1.000
    C278     C        0.60059    0.44760    0.28730    1.000
    H209     H        0.59050    0.39030    0.31000    1.000
    H210     H        0.61600    0.40320    0.27140    1.000
    C279     C        0.64662    0.36410    0.43670    1.000
    C280     C        0.56639    0.42010    0.20690    1.000
    C281     C        0.79910    0.40510    0.63480    1.000
    H211     H        0.78970    0.44800    0.60480    1.000
    C282     C        0.94157    0.46460    0.67430    1.000
    C283     C        0.56480    0.84620    0.51020    1.000
    H212     H        0.57080    0.89390    0.54160    1.000
    C284     C        0.90900    0.52300    0.74230    1.000
    H213     H        0.90530    0.56600    0.77480    1.000
    C285     C        0.56741    0.29260    0.21170    1.000
    H214     H        0.57860    0.25380    0.24060    1.000
    C286     C        0.53452    0.25260    0.49130    1.000
    C287     C        0.76235    0.23710    0.62020    1.000
    C288     C        0.65763    0.21230    0.50930    1.000
    H215     H        0.65120    0.15050    0.53240    1.000
    C289     C        0.63661    0.51500    0.36660    1.000
    H216     H        0.64290    0.58370    0.39100    1.000
    H217     H        0.65270    0.48670    0.34720    1.000
    C290     C        0.63720    0.60300    0.60140    1.000
    C291     C        0.55094    0.22450    0.17130    1.000
    H218     H        0.55180    0.13840    0.17420    1.000
    C292     C        0.66990    0.68350    0.53950    1.000
    H219     H        0.68080    0.67170    0.50910    1.000
    C293     C        0.66075    0.78090    0.21320    1.000
    H220     H        0.64930    0.83020    0.23410    1.000
    C294     C        0.65360    0.58690    0.55800    1.000
    H221     H        0.65410    0.50990    0.54040    1.000
    C295     C        0.56646    0.43410    0.50960    1.000
    H222     H        0.55670    0.47250    0.47860    1.000
    C296     C        0.57581    0.74140    0.42620    1.000
    C297     C        0.93603    0.53130    0.72210    1.000
    H223     H        0.95010    0.58090    0.74050    1.000
    C298     C        0.89312    0.38790    0.66550    1.000
    H224     H        0.87880    0.34240    0.64570    1.000
    C299     C        0.92003    0.39390    0.64730    1.000
    H225     H        0.92390    0.34850    0.61560    1.000
    C300     C        0.66990    0.79940    0.56670    1.000
    C301     C        0.57522    0.25690    0.56860    1.000
    H226     H        0.57170    0.17430    0.57710    1.000
    C302     C        0.55901    0.31320    0.52390    1.000
    C303     C        0.69540    0.64590    0.15200    1.000
    H227     H        0.70740    0.59840    0.13140    1.000
    C304     C        0.62559    0.65430    0.28780    1.000
    H228     H        0.63450    0.71950    0.31130    1.000
    H229     H        0.61110    0.69110    0.26150    1.000
    C305     C        0.69402    0.33370    0.48220    1.000
    H230     H        0.71320    0.35640    0.48520    1.000
    C306     C        0.88788    0.45210    0.71480    1.000
    C307     C        0.58680    0.61020    0.35110    1.000
    H231     H        0.57720    0.54420    0.36980    1.000
    H232     H        0.57330    0.64570    0.32230    1.000
    C308     C        0.54900    0.47200    0.16430    1.000
    H233     H        0.54760    0.55790    0.16100    1.000
    C309     C        0.63640    0.71540    0.62770    1.000
    H234     H        0.62480    0.72650    0.65710    1.000
    C310     C        0.54703    0.70810    0.41830    1.000
    H235     H        0.54010    0.66260    0.38690    1.000
    C311     C        0.68040    0.58620    0.19120    1.000
    H236     H        0.68260    0.50130    0.19710    1.000
    C312     C        0.78890    0.29240    0.65090    1.000
    C313     C        0.65269    0.81220    0.61070    1.000
    H237     H        0.65210    0.88810    0.62920    1.000
    C314     C        0.66206    0.65440    0.22150    1.000
    C315     C        0.80364    0.22860    0.69530    1.000
    H238     H        0.79700    0.15170    0.70620    1.000
    C316     C        0.68910    0.90150    0.54900    1.000
    C317     C        0.52950    0.74440    0.45810    1.000
    H239     H        0.51040    0.72120    0.45250    1.000
    C318     C        0.53360    0.39570    0.12600    1.000
    H240     H        0.52230    0.43270    0.09660    1.000
    Co13     Co       0.78453    0.65208    0.92515    1.000
    Co14     Co       0.49162    0.83456    0.93025    1.000
    O85      O        0.75190    0.79790    0.91890    1.000
    O86      O        0.98184    0.81510    0.04310    1.000
    O87      O        0.52262    0.87260    0.87690    1.000
    O88      O        0.91870    0.99960    0.25720    1.000
    O89      O        0.51211    0.05610    0.83600    1.000
    O90      O        0.90361    0.20550    0.10810    1.000
    O91      O        0.87741    0.00280    0.87730    1.000
    O92      O        0.74668    0.63360    0.86450    1.000
    O93      O        0.85324    0.09060    0.24240    1.000
    N25      N        0.80606    0.26690    0.35830    1.000
    O94      O        0.87379    0.91440    0.09980    1.000
    O95      O        0.80834    0.49420    0.91820    1.000
    O96      O        0.63826    0.94310    0.76060    1.000
    N26      N        0.96259    0.31110    0.99510    1.000
    O97      O        0.97147    0.63990    0.00020    1.000
    C319     C        0.66182    0.89320    0.79250    1.000
    C320     C        0.86233    0.76720    0.02930    1.000
    H241     H        0.88120    0.74050    0.03250    1.000
    O98      O        0.79940    0.39040    0.99620    1.000
    C321     C        0.82497    0.89590    0.05680    1.000
    H242     H        0.81830    0.95960    0.07850    1.000
    C322     C        0.91191    0.99800    0.95930    1.000
    H243     H        0.90720    0.07840    0.96930    1.000
    C323     C        0.67610    0.95630    0.83620    1.000
    H244     H        0.66950    0.03350    0.84680    1.000
    N27      N        0.96597    0.77150    0.37110    1.000
    C324     C        0.88743    0.05750    0.17630    1.000
    C325     C        0.52855    0.96780    0.84730    1.000
    N28      N        0.81458    0.74160    0.98430    1.000
    C326     C        0.89752    0.94100    0.91330    1.000
    C327     C        0.67210    0.77830    0.77690    1.000
    H245     H        0.66250    0.73450    0.74740    1.000
    C328     C        0.90351    0.82060    0.89910    1.000
    H246     H        0.89350    0.78250    0.86840    1.000
    C329     C        0.91490    0.31720    0.02730    1.000
    H247     H        0.89620    0.34630    0.02200    1.000
    C330     C        0.82350    0.33220    0.32630    1.000
    H248     H        0.82480    0.41760    0.33180    1.000
    C331     C        0.89941    0.94760    0.21270    1.000
    H249     H        0.90950    0.89030    0.19000    1.000
    H250     H        0.88400    0.90320    0.22860    1.000
    C332     C        0.85338    0.86410    0.06330    1.000
    C333     C        0.93361    0.92010    0.29310    1.000
    C334     C        0.70090    0.90510    0.86520    1.000
    H251     H        0.71030    0.94800    0.89520    1.000
    C335     C        0.55843    0.96460    0.82570    1.000
    C336     C        0.93520    0.34620    0.98980    1.000
    H252     H        0.92920    0.39390    0.95840    1.000
    C337     C        0.59100    0.02300    0.75770    1.000
    H253     H        0.59470    0.06600    0.72520    1.000
    C338     C        0.93259    0.79260    0.28830    1.000
    H254     H        0.92140    0.75380    0.25940    1.000
    C339     C        0.96548    0.75260    0.00870    1.000
    C340     C        0.73765    0.73710    0.87980    1.000
    C341     C        0.84237    0.71230    0.99070    1.000
    H255     H        0.84880    0.65050    0.96760    1.000
    C342     C        0.86339    0.01500    0.13340    1.000
    H256     H        0.85710    0.08370    0.10900    1.000
    H257     H        0.84730    0.98670    0.15280    1.000
    C343     C        0.86280    0.10300    0.89860    1.000
    C344     C        0.94906    0.72450    0.32870    1.000
    H258     H        0.94820    0.63840    0.32580    1.000
    C345     C        0.83010    0.18350    0.96050    1.000
    H259     H        0.81920    0.17170    0.99090    1.000
    C346     C        0.83925    0.28090    0.28680    1.000
    H260     H        0.85070    0.33020    0.26590    1.000
    C347     C        0.84640    0.08690    0.94200    1.000
    H261     H        0.84590    0.00990    0.95960    1.000
    C348     C        0.93354    0.93410    0.99040    1.000
    H262     H        0.94330    0.97250    0.02140    1.000
    C349     C        0.92419    0.24140    0.07380    1.000
    C350     C        0.56397    0.03130    0.77790    1.000
    H263     H        0.54990    0.08090    0.75950    1.000
    C351     C        0.60688    0.88790    0.83450    1.000
    H264     H        0.62120    0.84240    0.85430    1.000
    C352     C        0.57997    0.89390    0.85270    1.000
    H265     H        0.57610    0.84850    0.88440    1.000
    C353     C        0.83010    0.29940    0.93330    1.000
    C354     C        0.92478    0.75690    0.93140    1.000
    H266     H        0.92830    0.67430    0.92290    1.000
    C355     C        0.94099    0.81320    0.97610    1.000
    C356     C        0.80460    0.14590    0.34800    1.000
    H267     H        0.79260    0.09840    0.36860    1.000
    C357     C        0.87441    0.15430    0.21220    1.000
    H268     H        0.86550    0.21950    0.18870    1.000
    H269     H        0.88890    0.19110    0.23850    1.000
    C358     C        0.80598    0.83370    0.01780    1.000
    H270     H        0.78680    0.85640    0.01480    1.000
    C359     C        0.61212    0.95210    0.78520    1.000
    C360     C        0.91320    0.11020    0.14890    1.000
    H271     H        0.92280    0.04420    0.13020    1.000
    H272     H        0.92670    0.14570    0.17770    1.000
    C361     C        0.95100    0.97200    0.33570    1.000
    H273     H        0.95240    0.05790    0.33900    1.000
    C362     C        0.86360    0.21540    0.87230    1.000
    H274     H        0.87520    0.22650    0.84290    1.000
    C363     C        0.95297    0.20810    0.08170    1.000
    H275     H        0.95990    0.16260    0.11310    1.000
    C364     C        0.81960    0.08620    0.30880    1.000
    H276     H        0.81740    0.00130    0.30290    1.000
    C365     C        0.71110    0.79240    0.84910    1.000
    C366     C        0.84731    0.31220    0.88930    1.000
    H277     H        0.84790    0.38810    0.87080    1.000
    C367     C        0.83794    0.15440    0.27850    1.000
    C368     C        0.69636    0.72860    0.80470    1.000
    H278     H        0.70300    0.65170    0.79380    1.000
    C369     C        0.81090    0.40150    0.95100    1.000
    C370     C        0.97050    0.24440    0.04190    1.000
    H279     H        0.98960    0.22120    0.04750    1.000
    C371     C        0.96640    0.89570    0.37400    1.000
    H280     H        0.97770    0.93270    0.40340    1.000
    Co15     Co       0.28453    0.15208    0.92515    1.000
    Co16     Co       0.99162    0.33456    0.93025    1.000
    O99      O        0.25190    0.29790    0.91890    1.000
    O100     O        0.48184    0.31510    0.04310    1.000
    O101     O        0.02262    0.37260    0.87690    1.000
    O102     O        0.41870    0.49960    0.25720    1.000
    O103     O        0.01211    0.55610    0.83600    1.000
    O104     O        0.40361    0.70550    0.10810    1.000
    O105     O        0.37741    0.50280    0.87730    1.000
    O106     O        0.24668    0.13360    0.86450    1.000
    O107     O        0.35324    0.59060    0.24240    1.000
    N29      N        0.30606    0.76690    0.35830    1.000
    O108     O        0.37379    0.41440    0.09980    1.000
    O109     O        0.30834    0.99420    0.91820    1.000
    O110     O        0.13826    0.44310    0.76060    1.000
    N30      N        0.46259    0.81110    0.99510    1.000
    O111     O        0.47147    0.13990    0.00020    1.000
    C372     C        0.16182    0.39320    0.79250    1.000
    C373     C        0.36233    0.26720    0.02930    1.000
    H281     H        0.38120    0.24050    0.03250    1.000
    O112     O        0.29940    0.89040    0.99620    1.000
    C374     C        0.32497    0.39590    0.05680    1.000
    H282     H        0.31830    0.45960    0.07850    1.000
    C375     C        0.41191    0.49800    0.95930    1.000
    H283     H        0.40720    0.57840    0.96930    1.000
    C376     C        0.17610    0.45630    0.83620    1.000
    H284     H        0.16950    0.53350    0.84680    1.000
    N31      N        0.46597    0.27150    0.37110    1.000
    C377     C        0.38743    0.55750    0.17630    1.000
    C378     C        0.02855    0.46780    0.84730    1.000
    N32      N        0.31458    0.24160    0.98430    1.000
    C379     C        0.39752    0.44100    0.91330    1.000
    C380     C        0.17210    0.27830    0.77690    1.000
    H285     H        0.16250    0.23450    0.74740    1.000
    C381     C        0.40351    0.32060    0.89910    1.000
    H286     H        0.39350    0.28250    0.86840    1.000
    C382     C        0.41490    0.81720    0.02730    1.000
    H287     H        0.39620    0.84630    0.02200    1.000
    C383     C        0.32350    0.83220    0.32630    1.000
    H288     H        0.32480    0.91760    0.33180    1.000
    C384     C        0.39941    0.44760    0.21270    1.000
    H289     H        0.40950    0.39030    0.19000    1.000
    H290     H        0.38400    0.40320    0.22860    1.000
    C385     C        0.35338    0.36410    0.06330    1.000
    C386     C        0.43361    0.42010    0.29310    1.000
    C387     C        0.20090    0.40510    0.86520    1.000
    H291     H        0.21030    0.44800    0.89520    1.000
    C388     C        0.05843    0.46460    0.82570    1.000
    C389     C        0.43520    0.84620    0.98980    1.000
    H292     H        0.42920    0.89390    0.95840    1.000
    C390     C        0.09100    0.52300    0.75770    1.000
    H293     H        0.09470    0.56600    0.72520    1.000
    C391     C        0.43259    0.29260    0.28830    1.000
    H294     H        0.42140    0.25380    0.25940    1.000
    C392     C        0.46548    0.25260    0.00870    1.000
    C393     C        0.23765    0.23710    0.87980    1.000
    C394     C        0.34237    0.21230    0.99070    1.000
    H295     H        0.34880    0.15050    0.96760    1.000
    C395     C        0.36339    0.51500    0.13340    1.000
    H296     H        0.35710    0.58370    0.10900    1.000
    H297     H        0.34730    0.48670    0.15280    1.000
    C396     C        0.36280    0.60300    0.89860    1.000
    C397     C        0.44906    0.22450    0.32870    1.000
    H298     H        0.44820    0.13840    0.32580    1.000
    C398     C        0.33010    0.68350    0.96050    1.000
    H299     H        0.31920    0.67170    0.99090    1.000
    C399     C        0.33925    0.78090    0.28680    1.000
    H300     H        0.35070    0.83020    0.26590    1.000
    C400     C        0.34640    0.58690    0.94200    1.000
    H301     H        0.34590    0.50990    0.95960    1.000
    C401     C        0.43354    0.43410    0.99040    1.000
    H302     H        0.44330    0.47250    0.02140    1.000
    C402     C        0.42419    0.74140    0.07380    1.000
    C403     C        0.06397    0.53130    0.77790    1.000
    H303     H        0.04990    0.58090    0.75950    1.000
    C404     C        0.10688    0.38790    0.83450    1.000
    H304     H        0.12120    0.34240    0.85430    1.000
    C405     C        0.07997    0.39390    0.85270    1.000
    H305     H        0.07610    0.34850    0.88440    1.000
    C406     C        0.33010    0.79940    0.93330    1.000
    C407     C        0.42478    0.25690    0.93140    1.000
    H306     H        0.42830    0.17430    0.92290    1.000
    C408     C        0.44099    0.31320    0.97610    1.000
    C409     C        0.30460    0.64590    0.34800    1.000
    H307     H        0.29260    0.59840    0.36860    1.000
    C410     C        0.37441    0.65430    0.21220    1.000
    H308     H        0.36550    0.71950    0.18870    1.000
    H309     H        0.38890    0.69110    0.23850    1.000
    C411     C        0.30598    0.33370    0.01780    1.000
    H310     H        0.28680    0.35640    0.01480    1.000
    C412     C        0.11212    0.45210    0.78520    1.000
    C413     C        0.41320    0.61020    0.14890    1.000
    H311     H        0.42280    0.54420    0.13020    1.000
    H312     H        0.42670    0.64570    0.17770    1.000
    C414     C        0.45100    0.47200    0.33570    1.000
    H313     H        0.45240    0.55790    0.33900    1.000
    C415     C        0.36360    0.71540    0.87230    1.000
    H314     H        0.37520    0.72650    0.84290    1.000
    C416     C        0.45297    0.70810    0.08170    1.000
    H315     H        0.45990    0.66260    0.11310    1.000
    C417     C        0.31960    0.58620    0.30880    1.000
    H316     H        0.31740    0.50130    0.30290    1.000
    C418     C        0.21110    0.29240    0.84910    1.000
    C419     C        0.34731    0.81220    0.88930    1.000
    H317     H        0.34790    0.88810    0.87080    1.000
    C420     C        0.33794    0.65440    0.27850    1.000
    C421     C        0.19636    0.22860    0.80470    1.000
    H318     H        0.20300    0.15170    0.79380    1.000
    C422     C        0.31090    0.90150    0.95100    1.000
    C423     C        0.47050    0.74440    0.04190    1.000
    H319     H        0.48960    0.72120    0.04750    1.000
    C424     C        0.46640    0.39570    0.37400    1.000
    H320     H        0.47770    0.43270    0.40340    1.000
