# CIF file generated by openbabel 3.1.0, see https://openbabel.org
data_I
_chemical_name_common 'image0'
_cell_length_a 29.1925
_cell_length_b 10.4327
_cell_length_c 26.0659
_cell_angle_alpha 90
_cell_angle_beta 114.234
_cell_angle_gamma 90
_space_group_name_H-M_alt 'P 1'
_space_group_name_Hall 'P 1'
loop_
    _symmetry_equiv_pos_as_xyz
    x,y,z
loop_
    _atom_site_label
    _atom_site_type_symbol
    _atom_site_fract_x
    _atom_site_fract_y
    _atom_site_fract_z
    _atom_site_occupancy
    Zn1      Zn       0.82105    0.62583    0.25321    1.000
    K1       K        0.77328    0.36410    0.31356    1.000
    O1       O        0.10660    0.78770    0.27510    1.000
    O2       O        0.18547    0.73010    0.31273    1.000
    O3       O        0.06676    0.03280    0.28620    1.000
    O4       O        0.03240    0.90790    0.32930    1.000
    O5       O        0.20350    0.38960    0.67000    1.000
    O6       O        0.19605    0.21070    0.70860    1.000
    O7       O        0.27870    0.02190    0.70913    1.000
    O8       O        0.21275    0.89230    0.67946    1.000
    O9       O        0.00487    0.19780    0.31907    1.000
    O10      O        0.94497    0.33430    0.27007    1.000
    O11      O        0.88815    0.56660    0.30267    1.000
    O12      O        0.86424    0.36810    0.31123    1.000
    C1       C        0.17630    0.99770    0.46730    1.000
    C2       C        0.13050    0.00710    0.42110    1.000
    H1       H        0.10580    0.06090    0.42310    1.000
    C3       C        0.12034    0.93840    0.37190    1.000
    C4       C        0.15782    0.85950    0.36830    1.000
    C5       C        0.20340    0.85150    0.41420    1.000
    H2       H        0.22830    0.79920    0.41210    1.000
    C6       C        0.21320    0.91890    0.46350    1.000
    H3       H        0.24420    0.91150    0.49380    1.000
    C7       C        0.06890    0.95680    0.32510    1.000
    C8       C        0.14790    0.77870    0.31700    1.000
    C9       C        0.18530    0.06870    0.51970    1.000
    C10      C        0.20495    0.00540    0.57159    1.000
    H4       H        0.21350    0.91930    0.57280    1.000
    C11      C        0.21204    0.06760    0.62124    1.000
    C12      C        0.19940    0.19730    0.61960    1.000
    C13      C        0.18140    0.26210    0.56880    1.000
    H5       H        0.17420    0.34910    0.56800    1.000
    C14      C        0.17380    0.19880    0.51920    1.000
    H6       H        0.16100    0.24340    0.48530    1.000
    C15      C        0.23448    0.98840    0.67411    1.000
    C16      C        0.20080    0.26970    0.67010    1.000
    C17      C        0.99640    0.47010    0.47260    1.000
    C18      C        0.95333    0.49130    0.42410    1.000
    H7       H        0.92870    0.54540    0.42580    1.000
    C19      C        0.94567    0.43420    0.37280    1.000
    C20      C        0.98200    0.35350    0.36930    1.000
    C21      C        0.02480    0.33180    0.41760    1.000
    H8       H        0.04930    0.27680    0.41600    1.000
    C22      C        0.03230    0.38920    0.46820    1.000
    H9       H        0.06190    0.37330    0.49970    1.000
    C23      C        0.89525    0.45540    0.32420    1.000
    C24      C        0.97600    0.29190    0.31510    1.000
    O13      O        0.10340    0.74040    0.29010    1.000
    Zn2      Zn       0.32105    0.12583    0.25321    1.000
    K2       K        0.27328    0.86410    0.31356    1.000
    O14      O        0.60660    0.28770    0.27510    1.000
    O15      O        0.68547    0.23010    0.31273    1.000
    O16      O        0.56676    0.53280    0.28620    1.000
    O17      O        0.53240    0.40790    0.32930    1.000
    O18      O        0.70350    0.88960    0.67000    1.000
    O19      O        0.69605    0.71070    0.70860    1.000
    O20      O        0.77870    0.52190    0.70913    1.000
    O21      O        0.71275    0.39230    0.67946    1.000
    O22      O        0.50487    0.69780    0.31907    1.000
    O23      O        0.44497    0.83430    0.27007    1.000
    O24      O        0.38815    0.06660    0.30267    1.000
    O25      O        0.36424    0.86810    0.31123    1.000
    C25      C        0.67630    0.49770    0.46730    1.000
    C26      C        0.63050    0.50710    0.42110    1.000
    H10      H        0.60580    0.56090    0.42310    1.000
    C27      C        0.62034    0.43840    0.37190    1.000
    C28      C        0.65782    0.35950    0.36830    1.000
    C29      C        0.70340    0.35150    0.41420    1.000
    H11      H        0.72830    0.29920    0.41210    1.000
    C30      C        0.71320    0.41890    0.46350    1.000
    H12      H        0.74420    0.41150    0.49380    1.000
    C31      C        0.56890    0.45680    0.32510    1.000
    C32      C        0.64790    0.27870    0.31700    1.000
    C33      C        0.68530    0.56870    0.51970    1.000
    C34      C        0.70495    0.50540    0.57159    1.000
    H13      H        0.71350    0.41930    0.57280    1.000
    C35      C        0.71204    0.56760    0.62124    1.000
    C36      C        0.69940    0.69730    0.61960    1.000
    C37      C        0.68140    0.76210    0.56880    1.000
    H14      H        0.67420    0.84910    0.56800    1.000
    C38      C        0.67380    0.69880    0.51920    1.000
    H15      H        0.66100    0.74340    0.48530    1.000
    C39      C        0.73448    0.48840    0.67411    1.000
    C40      C        0.70080    0.76970    0.67010    1.000
    C41      C        0.49640    0.97010    0.47260    1.000
    C42      C        0.45333    0.99130    0.42410    1.000
    H16      H        0.42870    0.04540    0.42580    1.000
    C43      C        0.44567    0.93420    0.37280    1.000
    C44      C        0.48200    0.85350    0.36930    1.000
    C45      C        0.52480    0.83180    0.41760    1.000
    H17      H        0.54930    0.77680    0.41600    1.000
    C46      C        0.53230    0.88920    0.46820    1.000
    H18      H        0.56190    0.87330    0.49970    1.000
    C47      C        0.39525    0.95540    0.32420    1.000
    C48      C        0.47600    0.79190    0.31510    1.000
    O26      O        0.60340    0.24040    0.29010    1.000
    Zn3      Zn       0.17895    0.62583    0.24679    1.000
    K3       K        0.22672    0.36410    0.18644    1.000
    O27      O        0.89340    0.78770    0.22490    1.000
    O28      O        0.81453    0.73010    0.18727    1.000
    O29      O        0.93324    0.03280    0.21380    1.000
    O30      O        0.96760    0.90790    0.17070    1.000
    O31      O        0.79650    0.38960    0.83000    1.000
    O32      O        0.80395    0.21070    0.79140    1.000
    O33      O        0.72130    0.02190    0.79087    1.000
    O34      O        0.78725    0.89230    0.82054    1.000
    O35      O        0.99513    0.19780    0.18093    1.000
    O36      O        0.05503    0.33430    0.22993    1.000
    O37      O        0.11185    0.56660    0.19733    1.000
    O38      O        0.13576    0.36810    0.18877    1.000
    C49      C        0.82370    0.99770    0.03270    1.000
    C50      C        0.86950    0.00710    0.07890    1.000
    H19      H        0.89420    0.06090    0.07690    1.000
    C51      C        0.87966    0.93840    0.12810    1.000
    C52      C        0.84218    0.85950    0.13170    1.000
    C53      C        0.79660    0.85150    0.08580    1.000
    H20      H        0.77170    0.79920    0.08790    1.000
    C54      C        0.78680    0.91890    0.03650    1.000
    H21      H        0.75580    0.91150    0.00620    1.000
    C55      C        0.93110    0.95680    0.17490    1.000
    C56      C        0.85210    0.77870    0.18300    1.000
    C57      C        0.81470    0.06870    0.98030    1.000
    C58      C        0.79505    0.00540    0.92841    1.000
    H22      H        0.78650    0.91930    0.92720    1.000
    C59      C        0.78796    0.06760    0.87876    1.000
    C60      C        0.80060    0.19730    0.88040    1.000
    C61      C        0.81860    0.26210    0.93120    1.000
    H23      H        0.82580    0.34910    0.93200    1.000
    C62      C        0.82620    0.19880    0.98080    1.000
    H24      H        0.83900    0.24340    0.01470    1.000
    C63      C        0.76552    0.98840    0.82589    1.000
    C64      C        0.79920    0.26970    0.82990    1.000
    C65      C        0.00360    0.47010    0.02740    1.000
    C66      C        0.04667    0.49130    0.07590    1.000
    H25      H        0.07130    0.54540    0.07420    1.000
    C67      C        0.05433    0.43420    0.12720    1.000
    C68      C        0.01800    0.35350    0.13070    1.000
    C69      C        0.97520    0.33180    0.08240    1.000
    H26      H        0.95070    0.27680    0.08400    1.000
    C70      C        0.96770    0.38920    0.03180    1.000
    H27      H        0.93810    0.37330    0.00030    1.000
    C71      C        0.10475    0.45540    0.17580    1.000
    C72      C        0.02400    0.29190    0.18490    1.000
    O39      O        0.89660    0.74040    0.20990    1.000
    Zn4      Zn       0.67895    0.12583    0.24679    1.000
    K4       K        0.72672    0.86410    0.18644    1.000
    O40      O        0.39340    0.28770    0.22490    1.000
    O41      O        0.31453    0.23010    0.18727    1.000
    O42      O        0.43324    0.53280    0.21380    1.000
    O43      O        0.46760    0.40790    0.17070    1.000
    O44      O        0.29650    0.88960    0.83000    1.000
    O45      O        0.30395    0.71070    0.79140    1.000
    O46      O        0.22130    0.52190    0.79087    1.000
    O47      O        0.28725    0.39230    0.82054    1.000
    O48      O        0.49513    0.69780    0.18093    1.000
    O49      O        0.55503    0.83430    0.22993    1.000
    O50      O        0.61185    0.06660    0.19733    1.000
    O51      O        0.63576    0.86810    0.18877    1.000
    C73      C        0.32370    0.49770    0.03270    1.000
    C74      C        0.36950    0.50710    0.07890    1.000
    H28      H        0.39420    0.56090    0.07690    1.000
    C75      C        0.37966    0.43840    0.12810    1.000
    C76      C        0.34218    0.35950    0.13170    1.000
    C77      C        0.29660    0.35150    0.08580    1.000
    H29      H        0.27170    0.29920    0.08790    1.000
    C78      C        0.28680    0.41890    0.03650    1.000
    H30      H        0.25580    0.41150    0.00620    1.000
    C79      C        0.43110    0.45680    0.17490    1.000
    C80      C        0.35210    0.27870    0.18300    1.000
    C81      C        0.31470    0.56870    0.98030    1.000
    C82      C        0.29505    0.50540    0.92841    1.000
    H31      H        0.28650    0.41930    0.92720    1.000
    C83      C        0.28796    0.56760    0.87876    1.000
    C84      C        0.30060    0.69730    0.88040    1.000
    C85      C        0.31860    0.76210    0.93120    1.000
    H32      H        0.32580    0.84910    0.93200    1.000
    C86      C        0.32620    0.69880    0.98080    1.000
    H33      H        0.33900    0.74340    0.01470    1.000
    C87      C        0.26552    0.48840    0.82589    1.000
    C88      C        0.29920    0.76970    0.82990    1.000
    C89      C        0.50360    0.97010    0.02740    1.000
    C90      C        0.54667    0.99130    0.07590    1.000
    H34      H        0.57130    0.04540    0.07420    1.000
    C91      C        0.55433    0.93420    0.12720    1.000
    C92      C        0.51800    0.85350    0.13070    1.000
    C93      C        0.47520    0.83180    0.08240    1.000
    H35      H        0.45070    0.77680    0.08400    1.000
    C94      C        0.46770    0.88920    0.03180    1.000
    H36      H        0.43810    0.87330    0.00030    1.000
    C95      C        0.60475    0.95540    0.17580    1.000
    C96      C        0.52400    0.79190    0.18490    1.000
    O52      O        0.39660    0.24040    0.20990    1.000
    Zn5      Zn       0.17895    0.37417    0.74679    1.000
    K5       K        0.22672    0.63590    0.68644    1.000
    O53      O        0.89340    0.21230    0.72490    1.000
    O54      O        0.81453    0.26990    0.68727    1.000
    O55      O        0.93324    0.96720    0.71380    1.000
    O56      O        0.96760    0.09210    0.67070    1.000
    O57      O        0.79650    0.61040    0.33000    1.000
    O58      O        0.80395    0.78930    0.29140    1.000
    O59      O        0.72130    0.97810    0.29087    1.000
    O60      O        0.78725    0.10770    0.32054    1.000
    O61      O        0.99513    0.80220    0.68093    1.000
    O62      O        0.05503    0.66570    0.72993    1.000
    O63      O        0.11185    0.43340    0.69733    1.000
    O64      O        0.13576    0.63190    0.68877    1.000
    C97      C        0.82370    0.00230    0.53270    1.000
    C98      C        0.86950    0.99290    0.57890    1.000
    H37      H        0.89420    0.93910    0.57690    1.000
    C99      C        0.87966    0.06160    0.62810    1.000
    C100     C        0.84218    0.14050    0.63170    1.000
    C101     C        0.79660    0.14850    0.58580    1.000
    H38      H        0.77170    0.20080    0.58790    1.000
    C102     C        0.78680    0.08110    0.53650    1.000
    H39      H        0.75580    0.08850    0.50620    1.000
    C103     C        0.93110    0.04320    0.67490    1.000
    C104     C        0.85210    0.22130    0.68300    1.000
    C105     C        0.81470    0.93130    0.48030    1.000
    C106     C        0.79505    0.99460    0.42841    1.000
    H40      H        0.78650    0.08070    0.42720    1.000
    C107     C        0.78796    0.93240    0.37876    1.000
    C108     C        0.80060    0.80270    0.38040    1.000
    C109     C        0.81860    0.73790    0.43120    1.000
    H41      H        0.82580    0.65090    0.43200    1.000
    C110     C        0.82620    0.80120    0.48080    1.000
    H42      H        0.83900    0.75660    0.51470    1.000
    C111     C        0.76552    0.01160    0.32589    1.000
    C112     C        0.79920    0.73030    0.32990    1.000
    C113     C        0.00360    0.52990    0.52740    1.000
    C114     C        0.04667    0.50870    0.57590    1.000
    H43      H        0.07130    0.45460    0.57420    1.000
    C115     C        0.05433    0.56580    0.62720    1.000
    C116     C        0.01800    0.64650    0.63070    1.000
    C117     C        0.97520    0.66820    0.58240    1.000
    H44      H        0.95070    0.72320    0.58400    1.000
    C118     C        0.96770    0.61080    0.53180    1.000
    H45      H        0.93810    0.62670    0.50030    1.000
    C119     C        0.10475    0.54460    0.67580    1.000
    C120     C        0.02400    0.70810    0.68490    1.000
    O65      O        0.89660    0.25960    0.70990    1.000
    Zn6      Zn       0.67895    0.87417    0.74679    1.000
    K6       K        0.72672    0.13590    0.68644    1.000
    O66      O        0.39340    0.71230    0.72490    1.000
    O67      O        0.31453    0.76990    0.68727    1.000
    O68      O        0.43324    0.46720    0.71380    1.000
    O69      O        0.46760    0.59210    0.67070    1.000
    O70      O        0.29650    0.11040    0.33000    1.000
    O71      O        0.30395    0.28930    0.29140    1.000
    O72      O        0.22130    0.47810    0.29087    1.000
    O73      O        0.28725    0.60770    0.32054    1.000
    O74      O        0.49513    0.30220    0.68093    1.000
    O75      O        0.55503    0.16570    0.72993    1.000
    O76      O        0.61185    0.93340    0.69733    1.000
    O77      O        0.63576    0.13190    0.68877    1.000
    C121     C        0.32370    0.50230    0.53270    1.000
    C122     C        0.36950    0.49290    0.57890    1.000
    H46      H        0.39420    0.43910    0.57690    1.000
    C123     C        0.37966    0.56160    0.62810    1.000
    C124     C        0.34218    0.64050    0.63170    1.000
    C125     C        0.29660    0.64850    0.58580    1.000
    H47      H        0.27170    0.70080    0.58790    1.000
    C126     C        0.28680    0.58110    0.53650    1.000
    H48      H        0.25580    0.58850    0.50620    1.000
    C127     C        0.43110    0.54320    0.67490    1.000
    C128     C        0.35210    0.72130    0.68300    1.000
    C129     C        0.31470    0.43130    0.48030    1.000
    C130     C        0.29505    0.49460    0.42841    1.000
    H49      H        0.28650    0.58070    0.42720    1.000
    C131     C        0.28796    0.43240    0.37876    1.000
    C132     C        0.30060    0.30270    0.38040    1.000
    C133     C        0.31860    0.23790    0.43120    1.000
    H50      H        0.32580    0.15090    0.43200    1.000
    C134     C        0.32620    0.30120    0.48080    1.000
    H51      H        0.33900    0.25660    0.51470    1.000
    C135     C        0.26552    0.51160    0.32589    1.000
    C136     C        0.29920    0.23030    0.32990    1.000
    C137     C        0.50360    0.02990    0.52740    1.000
    C138     C        0.54667    0.00870    0.57590    1.000
    H52      H        0.57130    0.95460    0.57420    1.000
    C139     C        0.55433    0.06580    0.62720    1.000
    C140     C        0.51800    0.14650    0.63070    1.000
    C141     C        0.47520    0.16820    0.58240    1.000
    H53      H        0.45070    0.22320    0.58400    1.000
    C142     C        0.46770    0.11080    0.53180    1.000
    H54      H        0.43810    0.12670    0.50030    1.000
    C143     C        0.60475    0.04460    0.67580    1.000
    C144     C        0.52400    0.20810    0.68490    1.000
    O78      O        0.39660    0.75960    0.70990    1.000
    Zn7      Zn       0.82105    0.37417    0.75321    1.000
    K7       K        0.77328    0.63590    0.81356    1.000
    O79      O        0.10660    0.21230    0.77510    1.000
    O80      O        0.18547    0.26990    0.81273    1.000
    O81      O        0.06676    0.96720    0.78620    1.000
    O82      O        0.03240    0.09210    0.82930    1.000
    O83      O        0.20350    0.61040    0.17000    1.000
    O84      O        0.19605    0.78930    0.20860    1.000
    O85      O        0.27870    0.97810    0.20913    1.000
    O86      O        0.21275    0.10770    0.17946    1.000
    O87      O        0.00487    0.80220    0.81907    1.000
    O88      O        0.94497    0.66570    0.77007    1.000
    O89      O        0.88815    0.43340    0.80267    1.000
    O90      O        0.86424    0.63190    0.81123    1.000
    C145     C        0.17630    0.00230    0.96730    1.000
    C146     C        0.13050    0.99290    0.92110    1.000
    H55      H        0.10580    0.93910    0.92310    1.000
    C147     C        0.12034    0.06160    0.87190    1.000
    C148     C        0.15782    0.14050    0.86830    1.000
    C149     C        0.20340    0.14850    0.91420    1.000
    H56      H        0.22830    0.20080    0.91210    1.000
    C150     C        0.21320    0.08110    0.96350    1.000
    H57      H        0.24420    0.08850    0.99380    1.000
    C151     C        0.06890    0.04320    0.82510    1.000
    C152     C        0.14790    0.22130    0.81700    1.000
    C153     C        0.18530    0.93130    0.01970    1.000
    C154     C        0.20495    0.99460    0.07159    1.000
    H58      H        0.21350    0.08070    0.07280    1.000
    C155     C        0.21204    0.93240    0.12124    1.000
    C156     C        0.19940    0.80270    0.11960    1.000
    C157     C        0.18140    0.73790    0.06880    1.000
    H59      H        0.17420    0.65090    0.06800    1.000
    C158     C        0.17380    0.80120    0.01920    1.000
    H60      H        0.16100    0.75660    0.98530    1.000
    C159     C        0.23448    0.01160    0.17411    1.000
    C160     C        0.20080    0.73030    0.17010    1.000
    C161     C        0.99640    0.52990    0.97260    1.000
    C162     C        0.95333    0.50870    0.92410    1.000
    H61      H        0.92870    0.45460    0.92580    1.000
    C163     C        0.94567    0.56580    0.87280    1.000
    C164     C        0.98200    0.64650    0.86930    1.000
    C165     C        0.02480    0.66820    0.91760    1.000
    H62      H        0.04930    0.72320    0.91600    1.000
    C166     C        0.03230    0.61080    0.96820    1.000
    H63      H        0.06190    0.62670    0.99970    1.000
    C167     C        0.89525    0.54460    0.82420    1.000
    C168     C        0.97600    0.70810    0.81510    1.000
    O91      O        0.10340    0.25960    0.79010    1.000
    Zn8      Zn       0.32105    0.87417    0.75321    1.000
    K8       K        0.27328    0.13590    0.81356    1.000
    O92      O        0.60660    0.71230    0.77510    1.000
    O93      O        0.68547    0.76990    0.81273    1.000
    O94      O        0.56676    0.46720    0.78620    1.000
    O95      O        0.53240    0.59210    0.82930    1.000
    O96      O        0.70350    0.11040    0.17000    1.000
    O97      O        0.69605    0.28930    0.20860    1.000
    O98      O        0.77870    0.47810    0.20913    1.000
    O99      O        0.71275    0.60770    0.17946    1.000
    O100     O        0.50487    0.30220    0.81907    1.000
    O101     O        0.44497    0.16570    0.77007    1.000
    O102     O        0.38815    0.93340    0.80267    1.000
    O103     O        0.36424    0.13190    0.81123    1.000
    C169     C        0.67630    0.50230    0.96730    1.000
    C170     C        0.63050    0.49290    0.92110    1.000
    H64      H        0.60580    0.43910    0.92310    1.000
    C171     C        0.62034    0.56160    0.87190    1.000
    C172     C        0.65782    0.64050    0.86830    1.000
    C173     C        0.70340    0.64850    0.91420    1.000
    H65      H        0.72830    0.70080    0.91210    1.000
    C174     C        0.71320    0.58110    0.96350    1.000
    H66      H        0.74420    0.58850    0.99380    1.000
    C175     C        0.56890    0.54320    0.82510    1.000
    C176     C        0.64790    0.72130    0.81700    1.000
    C177     C        0.68530    0.43130    0.01970    1.000
    C178     C        0.70495    0.49460    0.07159    1.000
    H67      H        0.71350    0.58070    0.07280    1.000
    C179     C        0.71204    0.43240    0.12124    1.000
    C180     C        0.69940    0.30270    0.11960    1.000
    C181     C        0.68140    0.23790    0.06880    1.000
    H68      H        0.67420    0.15090    0.06800    1.000
    C182     C        0.67380    0.30120    0.01920    1.000
    H69      H        0.66100    0.25660    0.98530    1.000
    C183     C        0.73448    0.51160    0.17411    1.000
    C184     C        0.70080    0.23030    0.17010    1.000
    C185     C        0.49640    0.02990    0.97260    1.000
    C186     C        0.45333    0.00870    0.92410    1.000
    H70      H        0.42870    0.95460    0.92580    1.000
    C187     C        0.44567    0.06580    0.87280    1.000
    C188     C        0.48200    0.14650    0.86930    1.000
    C189     C        0.52480    0.16820    0.91760    1.000
    H71      H        0.54930    0.22320    0.91600    1.000
    C190     C        0.53230    0.11080    0.96820    1.000
    H72      H        0.56190    0.12670    0.99970    1.000
    C191     C        0.39525    0.04460    0.82420    1.000
    C192     C        0.47600    0.20810    0.81510    1.000
    O104     O        0.60340    0.75960    0.79010    1.000
    Zn9      Zn       0.00000    0.11405    0.25000    1.000
    Zn10     Zn       0.50000    0.61405    0.25000    1.000
    Zn11     Zn       0.00000    0.88595    0.75000    1.000
    Zn12     Zn       0.50000    0.38595    0.75000    1.000
