# CIF file generated by openbabel 3.1.0, see https://openbabel.org
data_I
_chemical_name_common 'image0'
_cell_length_a 17.06
_cell_length_b 17.06
_cell_length_c 9.2376
_cell_angle_alpha 90
_cell_angle_beta 90
_cell_angle_gamma 120
_space_group_name_H-M_alt 'P 1'
_space_group_name_Hall 'P 1'
loop_
    _symmetry_equiv_pos_as_xyz
    x,y,z
loop_
    _atom_site_label
    _atom_site_type_symbol
    _atom_site_fract_x
    _atom_site_fract_y
    _atom_site_fract_z
    _atom_site_occupancy
    C1       C        0.18440    0.32030    0.13190    1.000
    C2       C        0.21370    0.29000    0.02660    1.000
    H1       H        0.19730    0.22820    0.01830    1.000
    C3       C        0.26700    0.35140    0.93400    1.000
    H2       H        0.28470    0.32760    0.85600    1.000
    C4       C        0.30200    0.44150    0.92740    1.000
    H3       H        0.34510    0.47900    0.85700    1.000
    C5       C        0.26880    0.47340    0.03290    1.000
    C6       C        0.18400    0.44810    0.25250    1.000
    H4       H        0.20140    0.51090    0.24690    1.000
    C7       C        0.12670    0.39240    0.36710    1.000
    H5       H        0.10720    0.41720    0.44140    1.000
    C8       C        0.10050    0.30140    0.36670    1.000
    H6       H        0.05960    0.26090    0.43840    1.000
    C9       C        0.67970    0.86410    0.13190    1.000
    C10      C        0.71000    0.92370    0.02660    1.000
    H7       H        0.77180    0.96910    0.01830    1.000
    C11      C        0.64860    0.91560    0.93400    1.000
    H8       H        0.67240    0.95710    0.85600    1.000
    C12      C        0.55850    0.86050    0.92740    1.000
    H9       H        0.52100    0.86610    0.85700    1.000
    C13      C        0.52660    0.79540    0.03290    1.000
    C14      C        0.55190    0.73590    0.25250    1.000
    H10      H        0.48910    0.69050    0.24690    1.000
    C15      C        0.60760    0.73430    0.36710    1.000
    H11      H        0.58280    0.69000    0.44140    1.000
    C16      C        0.69860    0.79910    0.36670    1.000
    H12      H        0.73910    0.79870    0.43840    1.000
    C17      C        0.13590    0.81560    0.13190    1.000
    C18      C        0.07630    0.78630    0.02660    1.000
    H13      H        0.03090    0.80270    0.01830    1.000
    C19      C        0.08440    0.73300    0.93400    1.000
    H14      H        0.04290    0.71530    0.85600    1.000
    C20      C        0.13950    0.69800    0.92740    1.000
    H15      H        0.13390    0.65490    0.85700    1.000
    C21      C        0.20460    0.73120    0.03290    1.000
    C22      C        0.26410    0.81600    0.25250    1.000
    H16      H        0.30950    0.79860    0.24690    1.000
    C23      C        0.26570    0.87330    0.36710    1.000
    H17      H        0.31000    0.89280    0.44140    1.000
    C24      C        0.20090    0.89950    0.36670    1.000
    H18      H        0.20130    0.94040    0.43840    1.000
    C25      C        0.32030    0.18440    0.86810    1.000
    C26      C        0.29000    0.21370    0.97340    1.000
    H19      H        0.22820    0.19730    0.98170    1.000
    C27      C        0.35140    0.26700    0.06600    1.000
    H20      H        0.32760    0.28470    0.14400    1.000
    C28      C        0.44150    0.30200    0.07260    1.000
    H21      H        0.47900    0.34510    0.14300    1.000
    C29      C        0.47340    0.26880    0.96710    1.000
    C30      C        0.44810    0.18400    0.74750    1.000
    H22      H        0.51090    0.20140    0.75310    1.000
    C31      C        0.39240    0.12670    0.63290    1.000
    H23      H        0.41720    0.10720    0.55860    1.000
    C32      C        0.30140    0.10050    0.63330    1.000
    H24      H        0.26090    0.05960    0.56160    1.000
    C33      C        0.86410    0.67970    0.86810    1.000
    C34      C        0.92370    0.71000    0.97340    1.000
    H25      H        0.96910    0.77180    0.98170    1.000
    C35      C        0.91560    0.64860    0.06600    1.000
    H26      H        0.95710    0.67240    0.14400    1.000
    C36      C        0.86050    0.55850    0.07260    1.000
    H27      H        0.86610    0.52100    0.14300    1.000
    C37      C        0.79540    0.52660    0.96710    1.000
    C38      C        0.73590    0.55190    0.74750    1.000
    H28      H        0.69050    0.48910    0.75310    1.000
    C39      C        0.73430    0.60760    0.63290    1.000
    H29      H        0.69000    0.58280    0.55860    1.000
    C40      C        0.79910    0.69860    0.63330    1.000
    H30      H        0.79870    0.73910    0.56160    1.000
    C41      C        0.81560    0.13590    0.86810    1.000
    C42      C        0.78630    0.07630    0.97340    1.000
    H31      H        0.80270    0.03090    0.98170    1.000
    C43      C        0.73300    0.08440    0.06600    1.000
    H32      H        0.71530    0.04290    0.14400    1.000
    C44      C        0.69800    0.13950    0.07260    1.000
    H33      H        0.65490    0.13390    0.14300    1.000
    C45      C        0.73120    0.20460    0.96710    1.000
    C46      C        0.81600    0.26410    0.74750    1.000
    H34      H        0.79860    0.30950    0.75310    1.000
    C47      C        0.87330    0.26570    0.63290    1.000
    H35      H        0.89280    0.31000    0.55860    1.000
    C48      C        0.89950    0.20090    0.63330    1.000
    H36      H        0.94040    0.20130    0.56160    1.000
    C49      C        0.81560    0.67970    0.86810    1.000
    C50      C        0.78630    0.71000    0.97340    1.000
    H37      H        0.80270    0.77180    0.98170    1.000
    C51      C        0.73300    0.64860    0.06600    1.000
    H38      H        0.71530    0.67240    0.14400    1.000
    C52      C        0.69800    0.55850    0.07260    1.000
    H39      H        0.65490    0.52100    0.14300    1.000
    C53      C        0.73120    0.52660    0.96710    1.000
    C54      C        0.81600    0.55190    0.74750    1.000
    H40      H        0.79860    0.48910    0.75310    1.000
    C55      C        0.87330    0.60760    0.63290    1.000
    H41      H        0.89280    0.58280    0.55860    1.000
    C56      C        0.89950    0.69860    0.63330    1.000
    H42      H        0.94040    0.73910    0.56160    1.000
    C57      C        0.32030    0.13590    0.86810    1.000
    C58      C        0.29000    0.07630    0.97340    1.000
    H43      H        0.22820    0.03090    0.98170    1.000
    C59      C        0.35140    0.08440    0.06600    1.000
    H44      H        0.32760    0.04290    0.14400    1.000
    C60      C        0.44150    0.13950    0.07260    1.000
    H45      H        0.47900    0.13390    0.14300    1.000
    C61      C        0.47340    0.20460    0.96710    1.000
    C62      C        0.44810    0.26410    0.74750    1.000
    H46      H        0.51090    0.30950    0.75310    1.000
    C63      C        0.39240    0.26570    0.63290    1.000
    H47      H        0.41720    0.31000    0.55860    1.000
    C64      C        0.30140    0.20090    0.63330    1.000
    H48      H        0.26090    0.20130    0.56160    1.000
    C65      C        0.86410    0.18440    0.86810    1.000
    C66      C        0.92370    0.21370    0.97340    1.000
    H49      H        0.96910    0.19730    0.98170    1.000
    C67      C        0.91560    0.26700    0.06600    1.000
    H50      H        0.95710    0.28470    0.14400    1.000
    C68      C        0.86050    0.30200    0.07260    1.000
    H51      H        0.86610    0.34510    0.14300    1.000
    C69      C        0.79540    0.26880    0.96710    1.000
    C70      C        0.73590    0.18400    0.74750    1.000
    H52      H        0.69050    0.20140    0.75310    1.000
    C71      C        0.73430    0.12670    0.63290    1.000
    H53      H        0.69000    0.10720    0.55860    1.000
    C72      C        0.79910    0.10050    0.63330    1.000
    H54      H        0.79870    0.05960    0.56160    1.000
    C73      C        0.67970    0.81560    0.13190    1.000
    C74      C        0.71000    0.78630    0.02660    1.000
    H55      H        0.77180    0.80270    0.01830    1.000
    C75      C        0.64860    0.73300    0.93400    1.000
    H56      H        0.67240    0.71530    0.85600    1.000
    C76      C        0.55850    0.69800    0.92740    1.000
    H57      H        0.52100    0.65490    0.85700    1.000
    C77      C        0.52660    0.73120    0.03290    1.000
    C78      C        0.55190    0.81600    0.25250    1.000
    H58      H        0.48910    0.79860    0.24690    1.000
    C79      C        0.60760    0.87330    0.36710    1.000
    H59      H        0.58280    0.89280    0.44140    1.000
    C80      C        0.69860    0.89950    0.36670    1.000
    H60      H        0.73910    0.94040    0.43840    1.000
    C81      C        0.13590    0.32030    0.13190    1.000
    C82      C        0.07630    0.29000    0.02660    1.000
    H61      H        0.03090    0.22820    0.01830    1.000
    C83      C        0.08440    0.35140    0.93400    1.000
    H62      H        0.04290    0.32760    0.85600    1.000
    C84      C        0.13950    0.44150    0.92740    1.000
    H63      H        0.13390    0.47900    0.85700    1.000
    C85      C        0.20460    0.47340    0.03290    1.000
    C86      C        0.26410    0.44810    0.25250    1.000
    H64      H        0.30950    0.51090    0.24690    1.000
    C87      C        0.26570    0.39240    0.36710    1.000
    H65      H        0.31000    0.41720    0.44140    1.000
    C88      C        0.20090    0.30140    0.36670    1.000
    H66      H        0.20130    0.26090    0.43840    1.000
    C89      C        0.18440    0.86410    0.13190    1.000
    C90      C        0.21370    0.92370    0.02660    1.000
    H67      H        0.19730    0.96910    0.01830    1.000
    C91      C        0.26700    0.91560    0.93400    1.000
    H68      H        0.28470    0.95710    0.85600    1.000
    C92      C        0.30200    0.86050    0.92740    1.000
    H69      H        0.34510    0.86610    0.85700    1.000
    C93      C        0.26880    0.79540    0.03290    1.000
    C94      C        0.18400    0.73590    0.25250    1.000
    H70      H        0.20140    0.69050    0.24690    1.000
    C95      C        0.12670    0.73430    0.36710    1.000
    H71      H        0.10720    0.69000    0.44140    1.000
    C96      C        0.10050    0.79910    0.36670    1.000
    H72      H        0.05960    0.79870    0.43840    1.000
    Yb1      Yb       0.00000    0.00000    0.50000    1.000
    Yb2      Yb       0.00000    0.00000    0.00000    1.000
    O1       O        0.06205    0.12410    0.36980    1.000
    O2       O        0.06175    0.12350    0.13200    1.000
    C97      C        0.08230    0.16460    0.24980    1.000
    C98      C        0.13225    0.26450    0.24960    1.000
    C99      C        0.20825    0.41650    0.13890    1.000
    C100     C        0.28670    0.57340    0.02840    1.000
    O3       O        0.87590    0.93795    0.36980    1.000
    O4       O        0.87650    0.93825    0.13200    1.000
    C101     C        0.83540    0.91770    0.24980    1.000
    C102     C        0.73550    0.86775    0.24960    1.000
    C103     C        0.58350    0.79175    0.13890    1.000
    C104     C        0.42660    0.71330    0.02840    1.000
    O5       O        0.06205    0.93795    0.36980    1.000
    O6       O        0.06175    0.93825    0.13200    1.000
    C105     C        0.08230    0.91770    0.24980    1.000
    C106     C        0.13225    0.86775    0.24960    1.000
    C107     C        0.20825    0.79175    0.13890    1.000
    C108     C        0.28670    0.71330    0.02840    1.000
    O7       O        0.12410    0.06205    0.63020    1.000
    O8       O        0.12350    0.06175    0.86800    1.000
    C109     C        0.16460    0.08230    0.75020    1.000
    C110     C        0.26450    0.13225    0.75040    1.000
    C111     C        0.41650    0.20825    0.86110    1.000
    C112     C        0.57340    0.28670    0.97160    1.000
    O9       O        0.93795    0.87590    0.63020    1.000
    O10      O        0.93825    0.87650    0.86800    1.000
    C113     C        0.91770    0.83540    0.75020    1.000
    C114     C        0.86775    0.73550    0.75040    1.000
    C115     C        0.79175    0.58350    0.86110    1.000
    C116     C        0.71330    0.42660    0.97160    1.000
    O11      O        0.93795    0.06205    0.63020    1.000
    O12      O        0.93825    0.06175    0.86800    1.000
    C117     C        0.91770    0.08230    0.75020    1.000
    C118     C        0.86775    0.13225    0.75040    1.000
    C119     C        0.79175    0.20825    0.86110    1.000
    C120     C        0.71330    0.28670    0.97160    1.000
    C121     C        0.23970    0.61985    0.02720    1.000
    H73      H        0.17540    0.58770    0.02560    1.000
    C122     C        0.38015    0.61985    0.02720    1.000
    H74      H        0.41230    0.58770    0.02560    1.000
    C123     C        0.38015    0.76030    0.02720    1.000
    H75      H        0.41230    0.82460    0.02560    1.000
    C124     C        0.61985    0.23970    0.97280    1.000
    H76      H        0.58770    0.17540    0.97440    1.000
    C125     C        0.61985    0.38015    0.97280    1.000
    H77      H        0.58770    0.41230    0.97440    1.000
    C126     C        0.76030    0.38015    0.97280    1.000
    H78      H        0.82460    0.41230    0.97440    1.000
