data_functionalizedCrystal
_audit_creation_method	'EQeq! by Chris Wilmer'
_symmetry_space_group_name_H-M	'P1'
_symmetry_Int_Tables_number	1
_symmetry_cell_setting	triclinic
loop_
_symmetry_equiv_pos_as_xyz
  x,y,z
_cell_length_a	24.542
_cell_length_b	12.641
_cell_length_c	15.446
_cell_angle_alpha	90
_cell_angle_beta	90
_cell_angle_gamma	90
loop_
_atom_site_label
_atom_site_type_symbol
_atom_site_fract_x
_atom_site_fract_y
_atom_site_fract_z
_atom_site_charge
Mof_C 	C 	0.6256	0.5354	0.0263	0.074
Mof_H 	H 	0.6128	0.5172	0.9717	0.028
Mof_C 	C 	0.5908	0.5757	0.0865	-0.125
Mof_H 	H 	0.5542	0.5854	0.0732	0.075
Mof_C 	C 	0.6106	0.6022	0.1681	0.054
Mof_H 	H 	0.5871	0.6309	0.2091	0.025
Mof_C 	C 	0.6641	0.5868	0.1889	-0.106
Mof_C 	C 	0.6985	0.5456	0.1263	0.105
Mof_C 	C 	0.7577	0.5242	0.1392	0.097
Mof_C 	C 	0.8006	0.5884	0.1128	-0.092
Mof_C 	C 	0.8529	0.5574	0.1301	0.046
Mof_H 	H 	0.8822	0.599	0.1123	0.03
Mof_C 	C 	0.8621	0.4624	0.1749	-0.111
Mof_H 	H 	0.8974	0.4424	0.1893	0.07
Mof_C 	C 	0.8196	0.4	0.1971	0.069
Mof_H 	H 	0.8258	0.3356	0.2244	0.036
Mof_C 	C 	0.6852	0.618	0.2775	0.331
Mof_C 	C 	0.788	0.6872	0.0604	0.309
Mof_C 	C 	0.843	0.5229	0.4112	0.137
Mof_H 	H 	0.8172	0.4766	0.3884	0.011
Mof_C 	C 	0.8962	0.4903	0.4122	-0.22
Mof_H 	H 	0.9058	0.4252	0.3887	0.117
Mof_C 	C 	0.9349	0.5541	0.4479	0.17
Mof_C 	C 	0.9179	0.6521	0.4786	-0.205
Mof_H 	H 	0.9429	0.6999	0.5011	0.104
Mof_C 	C 	0.863	0.6772	0.4753	0.117
Mof_H 	H 	0.8518	0.7412	0.4991	0.015
Mof_C 	C 	0.9936	0.5235	0.4546	-0.188
Mof_H 	H 	0.0162	0.5852	0.4447	0.089
Mof_H 	H 	0.0021	0.4716	0.4104	0.084
Mof_Cd	Cd	0.73548	0.67365	0.43249	0.454
Mof_N 	N 	0.8254	0.6151	0.4401	-0.161
Mof_N 	N 	0.7679	0.431	0.1798	-0.075
Mof_N 	N 	0.678	0.5222	0.0457	-0.077
Mof_O 	O 	0.733	0.5921	0.2964	-0.262
Mof_O 	O 	0.6558	0.6687	0.3265	-0.271
Mof_O 	O 	0.82731	0.7307	0.0205	-0.256
Mof_O 	O 	0.73989	0.7185	0.0551	-0.257
Mof_O 	O 	0.7121	0.4927	0.9843	-0.141
Mof_O 	O 	0.7266	0.3709	0.2037	-0.103
Mof_C 	C 	0.8744	0.9646	0.5263	0.075
Mof_H 	H 	0.8872	0.9828	0.4717	0.029
Mof_C 	C 	0.9092	0.9243	0.5865	-0.124
Mof_H 	H 	0.9458	0.9146	0.5732	0.076
Mof_C 	C 	0.8894	0.8978	0.6681	0.055
Mof_H 	H 	0.9129	0.8691	0.7091	0.026
Mof_C 	C 	0.8359	0.9132	0.6889	-0.106
Mof_C 	C 	0.8015	0.9544	0.6263	0.105
Mof_C 	C 	0.7423	0.9758	0.6392	0.096
Mof_C 	C 	0.6994	0.9116	0.6128	-0.092
Mof_C 	C 	0.6471	0.9426	0.6301	0.046
Mof_H 	H 	0.6178	0.901	0.6123	0.03
Mof_C 	C 	0.6379	0.0376	0.6749	-0.111
Mof_H 	H 	0.6026	0.0576	0.6893	0.07
Mof_C 	C 	0.6804	0.1	0.6971	0.069
Mof_H 	H 	0.6742	0.1644	0.7244	0.036
Mof_C 	C 	0.8148	0.882	0.7775	0.331
Mof_C 	C 	0.712	0.8128	0.5604	0.309
Mof_C 	C 	0.657	0.9771	0.9112	0.135
Mof_H 	H 	0.6828	0.0234	0.8884	0.012
Mof_C 	C 	0.6038	0.0097	0.9122	-0.218
Mof_H 	H 	0.5942	0.0748	0.8887	0.116
Mof_C 	C 	0.5651	0.9459	0.9479	0.169
Mof_C 	C 	0.5821	0.8479	0.9786	-0.205
Mof_H 	H 	0.5571	0.8001	0.0011	0.104
Mof_C 	C 	0.637	0.8228	0.9753	0.117
Mof_H 	H 	0.6482	0.7588	0.9991	0.015
Mof_C 	C 	0.5064	0.9765	0.9546	-0.188
Mof_H 	H 	0.4838	0.9148	0.9447	0.089
Mof_H 	H 	0.4979	0.0284	0.9104	0.085
Mof_Cd	Cd	0.76452	0.82635	0.93249	0.454
Mof_N 	N 	0.6746	0.8849	0.9401	-0.161
Mof_N 	N 	0.7321	0.069	0.6798	-0.075
Mof_N 	N 	0.822	0.9778	0.5457	-0.077
Mof_O 	O 	0.767	0.9079	0.7964	-0.262
Mof_O 	O 	0.8442	0.8313	0.8265	-0.272
Mof_O 	O 	0.67269	0.7693	0.5205	-0.256
Mof_O 	O 	0.76011	0.7815	0.5551	-0.257
Mof_O 	O 	0.7879	0.0073	0.4843	-0.141
Mof_O 	O 	0.7734	0.1291	0.7037	-0.103
Mof_C 	C 	0.3744	0.5354	0.4737	0.075
Mof_H 	H 	0.3872	0.5172	0.5283	0.029
Mof_C 	C 	0.4092	0.5757	0.4135	-0.124
Mof_H 	H 	0.4458	0.5854	0.4268	0.076
Mof_C 	C 	0.3894	0.6022	0.3319	0.055
Mof_H 	H 	0.4129	0.6309	0.2909	0.026
Mof_C 	C 	0.3359	0.5868	0.3111	-0.106
Mof_C 	C 	0.3015	0.5456	0.3737	0.105
Mof_C 	C 	0.2423	0.5242	0.3608	0.097
Mof_C 	C 	0.1994	0.5884	0.3872	-0.092
Mof_C 	C 	0.1471	0.5574	0.3699	0.046
Mof_H 	H 	0.1178	0.599	0.3877	0.03
Mof_C 	C 	0.1379	0.4624	0.3251	-0.111
Mof_H 	H 	0.1026	0.4424	0.3107	0.07
Mof_C 	C 	0.1804	0.4	0.3029	0.069
Mof_H 	H 	0.1742	0.3356	0.2756	0.036
Mof_C 	C 	0.3148	0.618	0.2225	0.331
Mof_C 	C 	0.212	0.6872	0.4396	0.309
Mof_C 	C 	0.157	0.5229	0.0888	0.136
Mof_H 	H 	0.1828	0.4766	0.1116	0.011
Mof_C 	C 	0.1038	0.4903	0.0878	-0.22
Mof_H 	H 	0.0942	0.4252	0.1113	0.117
Mof_C 	C 	0.0651	0.5541	0.0521	0.169
Mof_C 	C 	0.0821	0.6521	0.0214	-0.204
Mof_H 	H 	0.0571	0.6999	0.9989	0.103
Mof_C 	C 	0.137	0.6772	0.0247	0.116
Mof_H 	H 	0.1482	0.7412	0.0009	0.016
Mof_C 	C 	0.0064	0.5235	0.0454	-0.187
Mof_H 	H 	0.9838	0.5852	0.0553	0.088
Mof_H 	H 	0.9979	0.4716	0.0896	0.084
Mof_Cd	Cd	0.26452	0.67365	0.06751	0.454
Mof_N 	N 	0.1746	0.6151	0.0599	-0.161
Mof_N 	N 	0.2321	0.431	0.3202	-0.075
Mof_N 	N 	0.322	0.5222	0.4543	-0.077
Mof_O 	O 	0.267	0.5921	0.2036	-0.262
Mof_O 	O 	0.3442	0.6687	0.1735	-0.271
Mof_O 	O 	0.17269	0.7307	0.4795	-0.256
Mof_O 	O 	0.26011	0.7185	0.4449	-0.257
Mof_O 	O 	0.2879	0.4927	0.5157	-0.141
Mof_O 	O 	0.2734	0.3709	0.2963	-0.103
Mof_C 	C 	0.1256	0.9646	0.9737	0.074
Mof_H 	H 	0.1128	0.9828	0.0283	0.03
Mof_C 	C 	0.0908	0.9243	0.9135	-0.123
Mof_H 	H 	0.0542	0.9146	0.9268	0.076
Mof_C 	C 	0.1106	0.8978	0.8319	0.054
Mof_H 	H 	0.0871	0.8691	0.7909	0.026
Mof_C 	C 	0.1641	0.9132	0.8111	-0.105
Mof_C 	C 	0.1985	0.9544	0.8737	0.104
Mof_C 	C 	0.2577	0.9758	0.8608	0.096
Mof_C 	C 	0.3006	0.9116	0.8872	-0.092
Mof_C 	C 	0.3529	0.9426	0.8699	0.045
Mof_H 	H 	0.3822	0.901	0.8877	0.03
Mof_C 	C 	0.3621	0.0376	0.8251	-0.11
Mof_H 	H 	0.3974	0.0576	0.8107	0.069
Mof_C 	C 	0.3196	0.1	0.8029	0.069
Mof_H 	H 	0.3258	0.1644	0.7756	0.036
Mof_C 	C 	0.1852	0.882	0.7225	0.33
Mof_C 	C 	0.288	0.8128	0.9396	0.309
Mof_C 	C 	0.343	0.9771	0.5888	0.136
Mof_H 	H 	0.3172	0.0234	0.6116	0.011
Mof_C 	C 	0.3962	0.0097	0.5878	-0.22
Mof_H 	H 	0.4058	0.0748	0.6113	0.117
Mof_C 	C 	0.4349	0.9459	0.5521	0.169
Mof_C 	C 	0.4179	0.8479	0.5214	-0.205
Mof_H 	H 	0.4429	0.8001	0.4989	0.104
Mof_C 	C 	0.363	0.8228	0.5247	0.117
Mof_H 	H 	0.3518	0.7588	0.5009	0.015
Mof_C 	C 	0.4936	0.9765	0.5454	-0.188
Mof_H 	H 	0.5162	0.9148	0.5553	0.089
Mof_H 	H 	0.5021	0.0284	0.5896	0.084
Mof_Cd	Cd	0.23548	0.82635	0.56751	0.454
Mof_N 	N 	0.3254	0.8849	0.5599	-0.161
Mof_N 	N 	0.2679	0.069	0.8202	-0.075
Mof_N 	N 	0.178	0.9778	0.9543	-0.077
Mof_O 	O 	0.233	0.9079	0.7036	-0.262
Mof_O 	O 	0.1558	0.8313	0.6735	-0.271
Mof_O 	O 	0.32731	0.7693	0.9795	-0.256
Mof_O 	O 	0.23989	0.7815	0.9449	-0.257
Mof_O 	O 	0.2121	0.0073	0.0157	-0.141
Mof_O 	O 	0.2266	0.1291	0.7963	-0.103
Mof_C 	C 	0.3744	0.4646	0.9737	0.075
Mof_H 	H 	0.3872	0.4828	0.0283	0.029
Mof_C 	C 	0.4092	0.4243	0.9135	-0.124
Mof_H 	H 	0.4458	0.4146	0.9268	0.076
Mof_C 	C 	0.3894	0.3978	0.8319	0.055
Mof_H 	H 	0.4129	0.3691	0.7909	0.026
Mof_C 	C 	0.3359	0.4132	0.8111	-0.106
Mof_C 	C 	0.3015	0.4544	0.8737	0.105
Mof_C 	C 	0.2423	0.4758	0.8608	0.097
Mof_C 	C 	0.1994	0.4116	0.8872	-0.092
Mof_C 	C 	0.1471	0.4426	0.8699	0.046
Mof_H 	H 	0.1178	0.401	0.8877	0.03
Mof_C 	C 	0.1379	0.5376	0.8251	-0.111
Mof_H 	H 	0.1026	0.5576	0.8107	0.07
Mof_C 	C 	0.1804	0.6	0.8029	0.069
Mof_H 	H 	0.1742	0.6644	0.7756	0.036
Mof_C 	C 	0.3148	0.382	0.7225	0.331
Mof_C 	C 	0.212	0.3128	0.9396	0.309
Mof_C 	C 	0.157	0.4771	0.5888	0.137
Mof_H 	H 	0.1828	0.5234	0.6116	0.011
Mof_C 	C 	0.1038	0.5097	0.5878	-0.22
Mof_H 	H 	0.0942	0.5748	0.6113	0.117
Mof_C 	C 	0.0651	0.4459	0.5521	0.17
Mof_C 	C 	0.0821	0.3479	0.5214	-0.205
Mof_H 	H 	0.0571	0.3001	0.4989	0.104
Mof_C 	C 	0.137	0.3228	0.5247	0.117
Mof_H 	H 	0.1482	0.2588	0.5009	0.015
Mof_C 	C 	0.0064	0.4765	0.5454	-0.188
Mof_H 	H 	0.9838	0.4148	0.5553	0.089
Mof_H 	H 	0.9979	0.5284	0.5896	0.084
Mof_Cd	Cd	0.26452	0.32635	0.56751	0.454
Mof_N 	N 	0.1746	0.3849	0.5599	-0.161
Mof_N 	N 	0.2321	0.569	0.8202	-0.075
Mof_N 	N 	0.322	0.4778	0.9543	-0.077
Mof_O 	O 	0.267	0.4079	0.7036	-0.262
Mof_O 	O 	0.3442	0.3313	0.6735	-0.271
Mof_O 	O 	0.17269	0.2693	0.9795	-0.256
Mof_O 	O 	0.26011	0.2815	0.9449	-0.257
Mof_O 	O 	0.2879	0.5073	0.0157	-0.141
Mof_O 	O 	0.2734	0.6291	0.7963	-0.103
Mof_C 	C 	0.1256	0.0354	0.4737	0.075
Mof_H 	H 	0.1128	0.0172	0.5283	0.029
Mof_C 	C 	0.0908	0.0757	0.4135	-0.124
Mof_H 	H 	0.0542	0.0854	0.4268	0.076
Mof_C 	C 	0.1106	0.1022	0.3319	0.055
Mof_H 	H 	0.0871	0.1309	0.2909	0.026
Mof_C 	C 	0.1641	0.0868	0.3111	-0.106
Mof_C 	C 	0.1985	0.0456	0.3737	0.105
Mof_C 	C 	0.2577	0.0242	0.3608	0.096
Mof_C 	C 	0.3006	0.0884	0.3872	-0.092
Mof_C 	C 	0.3529	0.0574	0.3699	0.046
Mof_H 	H 	0.3822	0.099	0.3877	0.03
Mof_C 	C 	0.3621	0.9624	0.3251	-0.111
Mof_H 	H 	0.3974	0.9424	0.3107	0.07
Mof_C 	C 	0.3196	0.9	0.3029	0.069
Mof_H 	H 	0.3258	0.8356	0.2756	0.036
Mof_C 	C 	0.1852	0.118	0.2225	0.331
Mof_C 	C 	0.288	0.1872	0.4396	0.309
Mof_C 	C 	0.343	0.0229	0.0888	0.135
Mof_H 	H 	0.3172	0.9766	0.1116	0.012
Mof_C 	C 	0.3962	0.9903	0.0878	-0.218
Mof_H 	H 	0.4058	0.9252	0.1113	0.116
Mof_C 	C 	0.4349	0.0541	0.0521	0.169
Mof_C 	C 	0.4179	0.1521	0.0214	-0.205
Mof_H 	H 	0.4429	0.1999	0.9989	0.104
Mof_C 	C 	0.363	0.1772	0.0247	0.117
Mof_H 	H 	0.3518	0.2412	0.0009	0.015
Mof_C 	C 	0.4936	0.0235	0.0454	-0.188
Mof_H 	H 	0.5162	0.0852	0.0553	0.089
Mof_H 	H 	0.5021	0.9716	0.0896	0.085
Mof_Cd	Cd	0.23548	0.17365	0.06751	0.454
Mof_N 	N 	0.3254	0.1151	0.0599	-0.161
Mof_N 	N 	0.2679	0.931	0.3202	-0.075
Mof_N 	N 	0.178	0.0222	0.4543	-0.077
Mof_O 	O 	0.233	0.0921	0.2036	-0.262
Mof_O 	O 	0.1558	0.1687	0.1735	-0.272
Mof_O 	O 	0.32731	0.2307	0.4795	-0.256
Mof_O 	O 	0.23989	0.2185	0.4449	-0.257
Mof_O 	O 	0.2121	0.9927	0.5157	-0.141
Mof_O 	O 	0.2266	0.8709	0.2963	-0.103
Mof_C 	C 	0.6256	0.4646	0.5263	0.075
Mof_H 	H 	0.6128	0.4828	0.4717	0.029
Mof_C 	C 	0.5908	0.4243	0.5865	-0.124
Mof_H 	H 	0.5542	0.4146	0.5732	0.076
Mof_C 	C 	0.6106	0.3978	0.6681	0.055
Mof_H 	H 	0.5871	0.3691	0.7091	0.026
Mof_C 	C 	0.6641	0.4132	0.6889	-0.106
Mof_C 	C 	0.6985	0.4544	0.6263	0.105
Mof_C 	C 	0.7577	0.4758	0.6392	0.097
Mof_C 	C 	0.8006	0.4116	0.6128	-0.092
Mof_C 	C 	0.8529	0.4426	0.6301	0.046
Mof_H 	H 	0.8822	0.401	0.6123	0.03
Mof_C 	C 	0.8621	0.5376	0.6749	-0.111
Mof_H 	H 	0.8974	0.5576	0.6893	0.07
Mof_C 	C 	0.8196	0.6	0.6971	0.069
Mof_H 	H 	0.8258	0.6644	0.7244	0.036
Mof_C 	C 	0.6852	0.382	0.7775	0.331
Mof_C 	C 	0.788	0.3128	0.5604	0.309
Mof_C 	C 	0.843	0.4771	0.9112	0.136
Mof_H 	H 	0.8172	0.5234	0.8884	0.011
Mof_C 	C 	0.8962	0.5097	0.9122	-0.22
Mof_H 	H 	0.9058	0.5748	0.8887	0.117
Mof_C 	C 	0.9349	0.4459	0.9479	0.169
Mof_C 	C 	0.9179	0.3479	0.9786	-0.204
Mof_H 	H 	0.9429	0.3001	0.0011	0.103
Mof_C 	C 	0.863	0.3228	0.9753	0.116
Mof_H 	H 	0.8518	0.2588	0.9991	0.016
Mof_C 	C 	0.9936	0.4765	0.9546	-0.187
Mof_H 	H 	0.0162	0.4148	0.9447	0.088
Mof_H 	H 	0.0021	0.5284	0.9104	0.084
Mof_Cd	Cd	0.73548	0.32635	0.93249	0.454
Mof_N 	N 	0.8254	0.3849	0.9401	-0.161
Mof_N 	N 	0.7679	0.569	0.6798	-0.075
Mof_N 	N 	0.678	0.4778	0.5457	-0.077
Mof_O 	O 	0.733	0.4079	0.7964	-0.262
Mof_O 	O 	0.6558	0.3313	0.8265	-0.271
Mof_O 	O 	0.82731	0.2693	0.5205	-0.256
Mof_O 	O 	0.73989	0.2815	0.5551	-0.257
Mof_O 	O 	0.7121	0.5073	0.4843	-0.141
Mof_O 	O 	0.7266	0.6291	0.7037	-0.103
Mof_C 	C 	0.8744	0.0354	0.0263	0.074
Mof_H 	H 	0.8872	0.0172	0.9717	0.03
Mof_C 	C 	0.9092	0.0757	0.0865	-0.123
Mof_H 	H 	0.9458	0.0854	0.0732	0.076
Mof_C 	C 	0.8894	0.1022	0.1681	0.054
Mof_H 	H 	0.9129	0.1309	0.2091	0.026
Mof_C 	C 	0.8359	0.0868	0.1889	-0.105
Mof_C 	C 	0.8015	0.0456	0.1263	0.104
Mof_C 	C 	0.7423	0.0242	0.1392	0.096
Mof_C 	C 	0.6994	0.0884	0.1128	-0.092
Mof_C 	C 	0.6471	0.0574	0.1301	0.045
Mof_H 	H 	0.6178	0.099	0.1123	0.03
Mof_C 	C 	0.6379	0.9624	0.1749	-0.11
Mof_H 	H 	0.6026	0.9424	0.1893	0.069
Mof_C 	C 	0.6804	0.9	0.1971	0.069
Mof_H 	H 	0.6742	0.8356	0.2244	0.036
Mof_C 	C 	0.8148	0.118	0.2775	0.33
Mof_C 	C 	0.712	0.1872	0.0604	0.309
Mof_C 	C 	0.657	0.0229	0.4112	0.136
Mof_H 	H 	0.6828	0.9766	0.3884	0.011
Mof_C 	C 	0.6038	0.9903	0.4122	-0.22
Mof_H 	H 	0.5942	0.9252	0.3887	0.117
Mof_C 	C 	0.5651	0.0541	0.4479	0.169
Mof_C 	C 	0.5821	0.1521	0.4786	-0.205
Mof_H 	H 	0.5571	0.1999	0.5011	0.104
Mof_C 	C 	0.637	0.1772	0.4753	0.117
Mof_H 	H 	0.6482	0.2412	0.4991	0.015
Mof_C 	C 	0.5064	0.0235	0.4546	-0.188
Mof_H 	H 	0.4838	0.0852	0.4447	0.089
Mof_H 	H 	0.4979	0.9716	0.4104	0.084
Mof_Cd	Cd	0.76452	0.17365	0.43249	0.454
Mof_N 	N 	0.6746	0.1151	0.4401	-0.161
Mof_N 	N 	0.7321	0.931	0.1798	-0.075
Mof_N 	N 	0.822	0.0222	0.0457	-0.077
Mof_O 	O 	0.767	0.0921	0.2964	-0.262
Mof_O 	O 	0.8442	0.1687	0.3265	-0.271
Mof_O 	O 	0.67269	0.2307	0.0205	-0.256
Mof_O 	O 	0.76011	0.2185	0.0551	-0.257
Mof_O 	O 	0.7879	0.9927	0.9843	-0.141
Mof_O 	O 	0.7734	0.8709	0.2037	-0.103
_end
