data_functionalizedCrystal
_audit_creation_method	'EQeq! by Chris Wilmer'
_symmetry_space_group_name_H-M	'P1'
_symmetry_Int_Tables_number	1
_symmetry_cell_setting	triclinic
loop_
_symmetry_equiv_pos_as_xyz
  x,y,z
_cell_length_a	13.922
_cell_length_b	17.031
_cell_length_c	17.031
_cell_angle_alpha	120
_cell_angle_beta	90
_cell_angle_gamma	90
loop_
_atom_site_label
_atom_site_type_symbol
_atom_site_fract_x
_atom_site_fract_y
_atom_site_fract_z
_atom_site_charge
Mof_Co	Co	0.89747	0.33333	0.66666	1.166
Mof_Co	Co	0.60253	0.33333	0.66666	1.166
Mof_Co	Co	0.10253	0.66667	0.33334	1.166
Mof_Co	Co	0.39747	0.66667	0.33334	1.166
Mof_H 	H 	0.6144	0.0651	0.574	0.101
Mof_H 	H 	0.5856	0.7863	0.3652	0.008
Mof_H 	H 	0.3545	0.7747	0.566	0.081
Mof_H 	H 	0.3517	0.8858	0.7156	0.029
Mof_H 	H 	0.4622	0.0027	0.7738	0.042
Mof_H 	H 	0.5729	0.0188	0.6803	0.065
Mof_H 	H 	0.6144	0.5089	0.9349	0.102
Mof_H 	H 	0.5856	0.5789	0.2137	0.009
Mof_H 	H 	0.3545	0.7913	0.2253	0.082
Mof_H 	H 	0.3517	0.8298	0.1142	0.03
Mof_H 	H 	0.4622	0.7711	0.9973	0.042
Mof_H 	H 	0.5729	0.6615	0.9812	0.065
Mof_H 	H 	0.6144	0.426	0.4911	0.102
Mof_H 	H 	0.5856	0.6348	0.4211	0.009
Mof_H 	H 	0.3545	0.434	0.2087	0.082
Mof_H 	H 	0.3517	0.2844	0.1702	0.03
Mof_H 	H 	0.4622	0.2262	0.2289	0.042
Mof_H 	H 	0.5729	0.3197	0.3385	0.065
Mof_H 	H 	0.8856	0.5089	0.574	0.102
Mof_H 	H 	0.9144	0.5789	0.3652	0.009
Mof_H 	H 	0.1455	0.7913	0.566	0.082
Mof_H 	H 	0.1483	0.8298	0.7156	0.03
Mof_H 	H 	0.0378	0.7711	0.7738	0.042
Mof_H 	H 	0.9271	0.6615	0.6803	0.065
Mof_H 	H 	0.8856	0.426	0.9349	0.102
Mof_H 	H 	0.9144	0.6348	0.2137	0.009
Mof_H 	H 	0.1455	0.434	0.2253	0.082
Mof_H 	H 	0.1483	0.2844	0.1142	0.03
Mof_H 	H 	0.0378	0.2262	0.9973	0.041
Mof_H 	H 	0.9271	0.3197	0.9812	0.066
Mof_H 	H 	0.8856	0.0651	0.4911	0.102
Mof_H 	H 	0.9144	0.7863	0.4211	0.009
Mof_H 	H 	0.1455	0.7747	0.2087	0.082
Mof_H 	H 	0.1483	0.8858	0.1702	0.031
Mof_H 	H 	0.0378	0.0027	0.2289	0.04
Mof_H 	H 	0.9271	0.0188	0.3385	0.066
Mof_H 	H 	0.3856	0.9349	0.426	0.102
Mof_H 	H 	0.4144	0.2137	0.6348	0.009
Mof_H 	H 	0.6455	0.2253	0.434	0.082
Mof_H 	H 	0.6483	0.1142	0.2844	0.03
Mof_H 	H 	0.5378	0.9973	0.2262	0.042
Mof_H 	H 	0.4271	0.9812	0.3197	0.065
Mof_H 	H 	0.3856	0.4911	0.0651	0.102
Mof_H 	H 	0.4144	0.4211	0.7863	0.009
Mof_H 	H 	0.6455	0.2087	0.7747	0.082
Mof_H 	H 	0.6483	0.1702	0.8858	0.03
Mof_H 	H 	0.5378	0.2289	0.0027	0.042
Mof_H 	H 	0.4271	0.3385	0.0188	0.065
Mof_H 	H 	0.3856	0.574	0.5089	0.102
Mof_H 	H 	0.4144	0.3652	0.5789	0.009
Mof_H 	H 	0.6455	0.566	0.7913	0.082
Mof_H 	H 	0.6483	0.7156	0.8298	0.03
Mof_H 	H 	0.5378	0.7738	0.7711	0.042
Mof_H 	H 	0.4271	0.6803	0.6615	0.065
Mof_H 	H 	0.1144	0.4911	0.426	0.102
Mof_H 	H 	0.0856	0.4211	0.6348	0.009
Mof_H 	H 	0.8545	0.2087	0.434	0.082
Mof_H 	H 	0.8517	0.1702	0.2844	0.03
Mof_H 	H 	0.9622	0.2289	0.2262	0.042
Mof_H 	H 	0.0729	0.3385	0.3197	0.065
Mof_H 	H 	0.1144	0.574	0.0651	0.102
Mof_H 	H 	0.0856	0.3652	0.7863	0.009
Mof_H 	H 	0.8545	0.566	0.7747	0.082
Mof_H 	H 	0.8517	0.7156	0.8858	0.03
Mof_H 	H 	0.9622	0.7738	0.0027	0.041
Mof_H 	H 	0.0729	0.6803	0.0188	0.066
Mof_H 	H 	0.1144	0.9349	0.5089	0.102
Mof_H 	H 	0.0856	0.2137	0.5789	0.009
Mof_H 	H 	0.8545	0.2253	0.7913	0.082
Mof_H 	H 	0.8517	0.1142	0.8298	0.031
Mof_H 	H 	0.9622	0.9973	0.7711	0.04
Mof_H 	H 	0.0729	0.9812	0.6615	0.066
Mof_H 	H 	0.75	0.8311	0.41555	0.16
Mof_H 	H 	0.75	0.58445	0.1689	0.16
Mof_H 	H 	0.75	0.58445	0.41555	0.16
Mof_H 	H 	0.25	0.1689	0.58445	0.16
Mof_H 	H 	0.25	0.41555	0.8311	0.16
Mof_H 	H 	0.25	0.41555	0.58445	0.16
Mof_C 	C 	0.6688	0.0338	0.5419	-0.165
Mof_C 	C 	0.6698	0.9412	0.4961	0.188
Mof_C 	C 	0.5575	0.8107	0.4222	0.097
Mof_C 	C 	0.4659	0.8299	0.5318	0.068
Mof_C 	C 	0.3977	0.8227	0.5884	-0.115
Mof_C 	C 	0.3972	0.8884	0.677	-0.005
Mof_C 	C 	0.4635	0.9604	0.7122	-0.034
Mof_C 	C 	0.5305	0.97	0.6575	-0.087
Mof_C 	C 	0.5311	0.9037	0.5681	0.064
Mof_C 	C 	0.6688	0.5081	0.9662	-0.165
Mof_C 	C 	0.6698	0.5549	0.0588	0.188
Mof_C 	C 	0.5575	0.6115	0.1893	0.097
Mof_C 	C 	0.4659	0.7019	0.1701	0.068
Mof_C 	C 	0.3977	0.7657	0.1773	-0.115
Mof_C 	C 	0.3972	0.7886	0.1116	-0.005
Mof_C 	C 	0.4635	0.7518	0.0396	-0.034
Mof_C 	C 	0.5305	0.6875	0.03	-0.087
Mof_C 	C 	0.5311	0.6644	0.0963	0.064
Mof_C 	C 	0.6688	0.4581	0.4919	-0.166
Mof_C 	C 	0.6698	0.5039	0.4451	0.189
Mof_C 	C 	0.5575	0.5778	0.3885	0.097
Mof_C 	C 	0.4659	0.4682	0.2981	0.068
Mof_C 	C 	0.3977	0.4116	0.2343	-0.115
Mof_C 	C 	0.3972	0.323	0.2114	-0.004
Mof_C 	C 	0.4635	0.2878	0.2482	-0.034
Mof_C 	C 	0.5305	0.3425	0.3125	-0.087
Mof_C 	C 	0.5311	0.4319	0.3356	0.063
Mof_C 	C 	0.8312	0.5081	0.5419	-0.166
Mof_C 	C 	0.8302	0.5549	0.4961	0.189
Mof_C 	C 	0.9425	0.6115	0.4222	0.096
Mof_C 	C 	0.0341	0.7019	0.5318	0.068
Mof_C 	C 	0.1023	0.7657	0.5884	-0.115
Mof_C 	C 	0.1028	0.7886	0.677	-0.004
Mof_C 	C 	0.0365	0.7518	0.7122	-0.034
Mof_C 	C 	0.9695	0.6875	0.6575	-0.087
Mof_C 	C 	0.9689	0.6644	0.5681	0.063
Mof_C 	C 	0.8312	0.4581	0.9662	-0.165
Mof_C 	C 	0.8302	0.5039	0.0588	0.188
Mof_C 	C 	0.9425	0.5778	0.1893	0.096
Mof_C 	C 	0.0341	0.4682	0.1701	0.067
Mof_C 	C 	0.1023	0.4116	0.1773	-0.114
Mof_C 	C 	0.1028	0.323	0.1116	-0.007
Mof_C 	C 	0.0365	0.2878	0.0396	-0.031
Mof_C 	C 	0.9695	0.3425	0.03	-0.09
Mof_C 	C 	0.9689	0.4319	0.0963	0.064
Mof_C 	C 	0.8312	0.0338	0.4919	-0.165
Mof_C 	C 	0.8302	0.9412	0.4451	0.188
Mof_C 	C 	0.9425	0.8107	0.3885	0.096
Mof_C 	C 	0.0341	0.8299	0.2981	0.067
Mof_C 	C 	0.1023	0.8227	0.2343	-0.114
Mof_C 	C 	0.1028	0.8884	0.2114	-0.007
Mof_C 	C 	0.0365	0.9604	0.2482	-0.03
Mof_C 	C 	0.9695	0.97	0.3125	-0.091
Mof_C 	C 	0.9689	0.9037	0.3356	0.064
Mof_C 	C 	0.3312	0.9662	0.4581	-0.165
Mof_C 	C 	0.3302	0.0588	0.5039	0.188
Mof_C 	C 	0.4425	0.1893	0.5778	0.097
Mof_C 	C 	0.5341	0.1701	0.4682	0.068
Mof_C 	C 	0.6023	0.1773	0.4116	-0.115
Mof_C 	C 	0.6028	0.1116	0.323	-0.005
Mof_C 	C 	0.5365	0.0396	0.2878	-0.034
Mof_C 	C 	0.4695	0.03	0.3425	-0.087
Mof_C 	C 	0.4689	0.0963	0.4319	0.064
Mof_C 	C 	0.3312	0.4919	0.0338	-0.165
Mof_C 	C 	0.3302	0.4451	0.9412	0.188
Mof_C 	C 	0.4425	0.3885	0.8107	0.097
Mof_C 	C 	0.5341	0.2981	0.8299	0.068
Mof_C 	C 	0.6023	0.2343	0.8227	-0.115
Mof_C 	C 	0.6028	0.2114	0.8884	-0.005
Mof_C 	C 	0.5365	0.2482	0.9604	-0.034
Mof_C 	C 	0.4695	0.3125	0.97	-0.087
Mof_C 	C 	0.4689	0.3356	0.9037	0.064
Mof_C 	C 	0.3312	0.5419	0.5081	-0.166
Mof_C 	C 	0.3302	0.4961	0.5549	0.189
Mof_C 	C 	0.4425	0.4222	0.6115	0.097
Mof_C 	C 	0.5341	0.5318	0.7019	0.068
Mof_C 	C 	0.6023	0.5884	0.7657	-0.115
Mof_C 	C 	0.6028	0.677	0.7886	-0.004
Mof_C 	C 	0.5365	0.7122	0.7518	-0.034
Mof_C 	C 	0.4695	0.6575	0.6875	-0.087
Mof_C 	C 	0.4689	0.5681	0.6644	0.063
Mof_C 	C 	0.1688	0.4919	0.4581	-0.166
Mof_C 	C 	0.1698	0.4451	0.5039	0.189
Mof_C 	C 	0.0575	0.3885	0.5778	0.096
Mof_C 	C 	0.9659	0.2981	0.4682	0.068
Mof_C 	C 	0.8977	0.2343	0.4116	-0.115
Mof_C 	C 	0.8972	0.2114	0.323	-0.004
Mof_C 	C 	0.9635	0.2482	0.2878	-0.034
Mof_C 	C 	0.0305	0.3125	0.3425	-0.087
Mof_C 	C 	0.0311	0.3356	0.4319	0.063
Mof_C 	C 	0.1688	0.5419	0.0338	-0.165
Mof_C 	C 	0.1698	0.4961	0.9412	0.188
Mof_C 	C 	0.0575	0.4222	0.8107	0.096
Mof_C 	C 	0.9659	0.5318	0.8299	0.067
Mof_C 	C 	0.8977	0.5884	0.8227	-0.114
Mof_C 	C 	0.8972	0.677	0.8884	-0.007
Mof_C 	C 	0.9635	0.7122	0.9604	-0.031
Mof_C 	C 	0.0305	0.6575	0.97	-0.09
Mof_C 	C 	0.0311	0.5681	0.9037	0.064
Mof_C 	C 	0.1688	0.9662	0.5081	-0.165
Mof_C 	C 	0.1698	0.0588	0.5549	0.188
Mof_C 	C 	0.0575	0.1893	0.6115	0.096
Mof_C 	C 	0.9659	0.1701	0.7019	0.067
Mof_C 	C 	0.8977	0.1773	0.7657	-0.114
Mof_C 	C 	0.8972	0.1116	0.7886	-0.007
Mof_C 	C 	0.9635	0.0396	0.7518	-0.03
Mof_C 	C 	0.0305	0.03	0.6875	-0.091
Mof_C 	C 	0.0311	0.0963	0.6644	0.064
Mof_C 	C 	0.75	0.1833	0.59165	0.317
Mof_C 	C 	0.75	0.0814	0.5407	0.027
Mof_C 	C 	0.75	0.8941	0.44705	-0.25
Mof_C 	C 	0.75	0.40835	0.8167	0.317
Mof_C 	C 	0.75	0.4593	0.9186	0.027
Mof_C 	C 	0.75	0.55295	0.1059	-0.25
Mof_C 	C 	0.75	0.40835	0.59165	0.317
Mof_C 	C 	0.75	0.4593	0.5407	0.028
Mof_C 	C 	0.75	0.55295	0.44705	-0.251
Mof_C 	C 	0.25	0.8167	0.40835	0.317
Mof_C 	C 	0.25	0.9186	0.4593	0.027
Mof_C 	C 	0.25	0.1059	0.55295	-0.25
Mof_C 	C 	0.25	0.59165	0.1833	0.317
Mof_C 	C 	0.25	0.5407	0.0814	0.027
Mof_C 	C 	0.25	0.44705	0.8941	-0.25
Mof_C 	C 	0.25	0.59165	0.40835	0.317
Mof_C 	C 	0.25	0.5407	0.4593	0.028
Mof_C 	C 	0.25	0.44705	0.55295	-0.251
Mof_N 	N 	0.5877	0.89	0.4955	-0.158
Mof_N 	N 	0.4852	0.772	0.4395	-0.224
Mof_N 	N 	0.5877	0.6055	0.11	-0.158
Mof_N 	N 	0.4852	0.6675	0.228	-0.224
Mof_N 	N 	0.5877	0.5045	0.3945	-0.158
Mof_N 	N 	0.4852	0.5605	0.3325	-0.224
Mof_N 	N 	0.9123	0.6055	0.4955	-0.158
Mof_N 	N 	0.0148	0.6675	0.4395	-0.224
Mof_N 	N 	0.9123	0.5045	0.11	-0.158
Mof_N 	N 	0.0148	0.5605	0.228	-0.224
Mof_N 	N 	0.9123	0.89	0.3945	-0.158
Mof_N 	N 	0.0148	0.772	0.3325	-0.224
Mof_N 	N 	0.4123	0.11	0.5045	-0.158
Mof_N 	N 	0.5148	0.228	0.5605	-0.224
Mof_N 	N 	0.4123	0.3945	0.89	-0.158
Mof_N 	N 	0.5148	0.3325	0.772	-0.224
Mof_N 	N 	0.4123	0.4955	0.6055	-0.158
Mof_N 	N 	0.5148	0.4395	0.6675	-0.224
Mof_N 	N 	0.0877	0.3945	0.5045	-0.158
Mof_N 	N 	0.9852	0.3325	0.5605	-0.224
Mof_N 	N 	0.0877	0.4955	0.89	-0.158
Mof_N 	N 	0.9852	0.4395	0.772	-0.224
Mof_N 	N 	0.0877	0.11	0.6055	-0.158
Mof_N 	N 	0.9852	0.228	0.6675	-0.224
Mof_O 	O 	0.8193	0.2215	0.57567	-0.412
Mof_O 	O 	0.8193	0.35417	0.7785	-0.412
Mof_O 	O 	0.8193	0.42433	0.64583	-0.412
Mof_O 	O 	0.6807	0.35417	0.57567	-0.412
Mof_O 	O 	0.6807	0.42433	0.7785	-0.412
Mof_O 	O 	0.6807	0.2215	0.64583	-0.412
Mof_O 	O 	0.1807	0.7785	0.42433	-0.412
Mof_O 	O 	0.1807	0.64583	0.2215	-0.412
Mof_O 	O 	0.1807	0.57567	0.35417	-0.412
Mof_O 	O 	0.3193	0.64583	0.42433	-0.412
Mof_O 	O 	0.3193	0.57567	0.2215	-0.412
Mof_O 	O 	0.3193	0.7785	0.35417	-0.412
Mof_Cl	Cl	0.75	0.66667	0.33334	-0.367
Mof_Cl	Cl	0.25	0.33333	0.66666	-0.367
_end
