# CIF file generated by openbabel 3.1.0, see https://openbabel.org
data_I
_chemical_name_common 'image0'
_cell_length_a 8.8294
_cell_length_b 33.7719
_cell_length_c 8.8052
_cell_angle_alpha 90
_cell_angle_beta 107.901
_cell_angle_gamma 90
_space_group_name_H-M_alt 'P 1'
_space_group_name_Hall 'P 1'
loop_
    _symmetry_equiv_pos_as_xyz
    x,y,z
loop_
    _atom_site_label
    _atom_site_type_symbol
    _atom_site_fract_x
    _atom_site_fract_y
    _atom_site_fract_z
    _atom_site_occupancy
    Cu1      Cu       0.74697    0.20406    0.49762    1.000
    Cu2      Cu       0.74245    0.04569    0.50213    1.000
    O1       O        0.88646    0.15533    0.62327    1.000
    O2       O        0.85721    0.09045    0.63135    1.000
    O3       O        0.61824    0.15976    0.37513    1.000
    O4       O        0.61562    0.09430    0.35651    1.000
    O5       O        0.61971    0.20802    0.66085    1.000
    O6       O        0.59850    0.24970    0.84700    1.000
    O7       O        0.87460    0.24618    0.63822    1.000
    O8       O        0.86365    0.28759    0.82974    1.000
    O9       O        0.91075    0.04012    0.38118    1.000
    O10      O        0.09200    0.99823    0.35078    1.000
    O11      O        0.57543    0.04032    0.62236    1.000
    O12      O        0.38241    0.99852    0.62598    1.000
    C1       C        0.81870    0.12393    0.57220    1.000
    C2       C        0.66990    0.12604    0.42030    1.000
    C3       C        0.81450    0.25919    0.73880    1.000
    C4       C        0.66470    0.23729    0.75210    1.000
    C5       C        0.00220    0.01086    0.42250    1.000
    C6       C        0.48800    0.01139    0.57180    1.000
    Cu3      Cu       0.25303    0.70406    0.00238    1.000
    Cu4      Cu       0.25755    0.54569    0.99787    1.000
    O13      O        0.11354    0.65533    0.87673    1.000
    O14      O        0.14279    0.59045    0.86865    1.000
    O15      O        0.38176    0.65976    0.12487    1.000
    O16      O        0.38438    0.59430    0.14349    1.000
    O17      O        0.38029    0.70802    0.83915    1.000
    O18      O        0.40150    0.74970    0.65300    1.000
    O19      O        0.12540    0.74618    0.86178    1.000
    O20      O        0.13635    0.78759    0.67026    1.000
    O21      O        0.08925    0.54012    0.11882    1.000
    O22      O        0.90800    0.49823    0.14922    1.000
    O23      O        0.42457    0.54032    0.87764    1.000
    O24      O        0.61759    0.49852    0.87402    1.000
    C7       C        0.18130    0.62393    0.92780    1.000
    C8       C        0.33010    0.62604    0.07970    1.000
    C9       C        0.18550    0.75919    0.76120    1.000
    C10      C        0.33530    0.73729    0.74790    1.000
    C11      C        0.99780    0.51086    0.07750    1.000
    C12      C        0.51200    0.51139    0.92820    1.000
    Cu5      Cu       0.25303    0.79594    0.50238    1.000
    Cu6      Cu       0.25755    0.95431    0.49787    1.000
    O25      O        0.11354    0.84467    0.37673    1.000
    O26      O        0.14279    0.90955    0.36865    1.000
    O27      O        0.38176    0.84024    0.62487    1.000
    O28      O        0.38438    0.90570    0.64349    1.000
    O29      O        0.38029    0.79198    0.33915    1.000
    O30      O        0.40150    0.75030    0.15300    1.000
    O31      O        0.12540    0.75382    0.36178    1.000
    O32      O        0.13635    0.71241    0.17026    1.000
    O33      O        0.08925    0.95988    0.61882    1.000
    O34      O        0.90800    0.00177    0.64922    1.000
    O35      O        0.42457    0.95968    0.37764    1.000
    O36      O        0.61759    0.00148    0.37402    1.000
    C13      C        0.18130    0.87607    0.42780    1.000
    C14      C        0.33010    0.87396    0.57970    1.000
    C15      C        0.18550    0.74081    0.26120    1.000
    C16      C        0.33530    0.76271    0.24790    1.000
    C17      C        0.99780    0.98914    0.57750    1.000
    C18      C        0.51200    0.98861    0.42820    1.000
    Cu7      Cu       0.74697    0.29594    0.99762    1.000
    Cu8      Cu       0.74245    0.45431    0.00213    1.000
    O37      O        0.88646    0.34467    0.12327    1.000
    O38      O        0.85721    0.40955    0.13135    1.000
    O39      O        0.61824    0.34024    0.87513    1.000
    O40      O        0.61562    0.40570    0.85651    1.000
    O41      O        0.61971    0.29198    0.16085    1.000
    O42      O        0.59850    0.25030    0.34700    1.000
    O43      O        0.87460    0.25382    0.13822    1.000
    O44      O        0.86365    0.21241    0.32974    1.000
    O45      O        0.91075    0.45988    0.88118    1.000
    O46      O        0.09200    0.50177    0.85078    1.000
    O47      O        0.57543    0.45968    0.12236    1.000
    O48      O        0.38241    0.50148    0.12598    1.000
    C19      C        0.81870    0.37607    0.07220    1.000
    C20      C        0.66990    0.37396    0.92030    1.000
    C21      C        0.81450    0.24081    0.23880    1.000
    C22      C        0.66470    0.26271    0.25210    1.000
    C23      C        0.00220    0.48914    0.92250    1.000
    C24      C        0.48800    0.48861    0.07180    1.000
