data_functionalizedCrystal
_audit_creation_method	'EQeq! by Chris Wilmer'
_symmetry_space_group_name_H-M	'P1'
_symmetry_Int_Tables_number	1
_symmetry_cell_setting	triclinic
loop_
_symmetry_equiv_pos_as_xyz
  x,y,z
_cell_length_a	11.14
_cell_length_b	11.497
_cell_length_c	16.854
_cell_angle_alpha	90
_cell_angle_beta	90
_cell_angle_gamma	90
loop_
_atom_site_label
_atom_site_type_symbol
_atom_site_fract_x
_atom_site_fract_y
_atom_site_fract_z
_atom_site_charge
Mof_Fe	Fe	-0	0	-0	0.517
Mof_Fe	Fe	0.5	0	0.5	0.666
Mof_Fe	Fe	2.83628e-33	0.5	0.5	0.655
Mof_Fe	Fe	0.5	0.5	-0	0.629
Mof_C 	C 	0.1774	0.0665	0.2472	-0.171
Mof_C 	C 	0.1302	0.1476	0.2983	0.087
Mof_C 	C 	0.1694	0.1812	0.3741	-0.138
Mof_C 	C 	0.125	0.0473	0.1699	0.131
Mof_C 	C 	0.2816	0.9993	0.2639	0.192
Mof_C 	C 	0.0179	0.2021	0.2712	-0.004
Mof_C 	C 	0.7709	0.1307	0.0876	0.121
Mof_C 	C 	0.112	0.2297	0.9162	0.15
Mof_C 	C 	0.3226	0.9335	0.7472	-0.051
Mof_C 	C 	0.3698	0.8524	0.7983	0.039
Mof_C 	C 	0.3306	0.8188	0.8741	-0.097
Mof_C 	C 	0.375	0.9527	0.6699	0.145
Mof_C 	C 	0.2184	0.0007	0.7639	0.066
Mof_C 	C 	0.4821	0.7979	0.7712	0.091
Mof_C 	C 	0.7291	0.8693	0.5876	0.146
Mof_C 	C 	0.388	0.7703	0.4162	0.149
Mof_C 	C 	0.8226	0.5665	0.2528	-0.094
Mof_C 	C 	0.8698	0.6476	0.2017	0.033
Mof_C 	C 	0.8306	0.6812	0.1259	-0.102
Mof_C 	C 	0.875	0.5473	0.3301	0.154
Mof_C 	C 	0.7184	0.4993	0.2361	0.13
Mof_C 	C 	0.9821	0.7021	0.2288	0.145
Mof_C 	C 	0.2291	0.6307	0.4124	0.134
Mof_C 	C 	0.888	0.7297	0.5838	0.152
Mof_C 	C 	0.6774	0.4335	0.7528	-0.103
Mof_C 	C 	0.6302	0.3524	0.7017	0.055
Mof_C 	C 	0.6694	0.3188	0.6259	-0.115
Mof_C 	C 	0.625	0.4527	0.8301	0.156
Mof_C 	C 	0.7816	0.5007	0.7361	0.142
Mof_C 	C 	0.5179	0.2979	0.7288	0.077
Mof_C 	C 	0.2709	0.3693	0.9124	0.148
Mof_C 	C 	0.612	0.2703	0.0838	0.136
Mof_C 	C 	0.8226	0.9335	0.7528	-0.038
Mof_C 	C 	0.8698	0.8524	0.7017	0.021
Mof_C 	C 	0.8306	0.8188	0.6259	-0.092
Mof_C 	C 	0.875	0.9527	0.8301	0.157
Mof_C 	C 	0.7184	0.0007	0.7361	0.075
Mof_C 	C 	0.9821	0.7979	0.7288	0.156
Mof_C 	C 	0.2291	0.8693	0.9124	0.151
Mof_C 	C 	0.888	0.7703	0.0838	0.14
Mof_C 	C 	0.6774	0.0665	0.2528	-0.158
Mof_C 	C 	0.6302	0.1476	0.2017	0.067
Mof_C 	C 	0.6694	0.1812	0.1259	-0.126
Mof_C 	C 	0.625	0.0473	0.3301	0.15
Mof_C 	C 	0.7816	0.9993	0.2361	0.198
Mof_C 	C 	0.5179	0.2021	0.2288	0.064
Mof_C 	C 	0.2709	0.1307	0.4124	0.129
Mof_C 	C 	0.612	0.2297	0.5838	0.146
Mof_C 	C 	0.1774	0.4335	0.7472	-0.116
Mof_C 	C 	0.1302	0.3524	0.7983	0.073
Mof_C 	C 	0.1694	0.3188	0.8741	-0.12
Mof_C 	C 	0.125	0.4527	0.6699	0.141
Mof_C 	C 	0.2816	0.5007	0.7639	0.134
Mof_C 	C 	0.0179	0.2979	0.7712	0.012
Mof_C 	C 	0.7709	0.3693	0.5876	0.141
Mof_C 	C 	0.112	0.2703	0.4162	0.143
Mof_C 	C 	0.3226	0.5665	0.2472	-0.107
Mof_C 	C 	0.3698	0.6476	0.2983	0.053
Mof_C 	C 	0.3306	0.6812	0.3741	-0.115
Mof_C 	C 	0.375	0.5473	0.1699	0.138
Mof_C 	C 	0.2184	0.4993	0.2639	0.122
Mof_C 	C 	0.4821	0.7021	0.2712	0.078
Mof_C 	C 	0.7291	0.6307	0.0876	0.127
Mof_C 	C 	0.388	0.7297	0.9162	0.158
Mof_N 	N 	0.0902	0.0325	0.1077	-0.213
Mof_N 	N 	0.3621	0.9426	0.2744	-0.138
Mof_N 	N 	0.9305	0.2427	0.2527	-0.064
Mof_N 	N 	0.8486	0.0896	0.0517	-0.179
Mof_N 	N 	0.0668	0.158	0.9518	-0.172
Mof_N 	N 	0.4098	0.9675	0.6077	-0.178
Mof_N 	N 	0.1379	0.0574	0.7744	-0.132
Mof_N 	N 	0.5695	0.7573	0.7527	-0.108
Mof_N 	N 	0.6514	0.9104	0.5517	-0.171
Mof_N 	N 	0.4332	0.842	0.4518	-0.183
Mof_N 	N 	0.9098	0.5325	0.3923	-0.177
Mof_N 	N 	0.6379	0.4426	0.2256	-0.129
Mof_N 	N 	0.0695	0.7427	0.2473	-0.155
Mof_N 	N 	0.1514	0.5896	0.4483	-0.192
Mof_N 	N 	0.9332	0.658	0.5482	-0.174
Mof_N 	N 	0.5902	0.4675	0.8923	-0.17
Mof_N 	N 	0.8621	0.5574	0.7256	-0.119
Mof_N 	N 	0.4305	0.2573	0.7473	-0.113
Mof_N 	N 	0.3486	0.4104	0.9483	-0.163
Mof_N 	N 	0.5668	0.342	0.0482	-0.204
Mof_N 	N 	0.9098	0.9675	0.8923	-0.13
Mof_N 	N 	0.6379	0.0574	0.7256	-0.122
Mof_N 	N 	0.0695	0.7573	0.7473	-0.153
Mof_N 	N 	0.1514	0.9104	0.9483	-0.147
Mof_N 	N 	0.9332	0.842	0.0482	-0.167
Mof_N 	N 	0.5902	0.0325	0.3923	-0.205
Mof_N 	N 	0.8621	0.9426	0.2256	-0.124
Mof_N 	N 	0.4305	0.2427	0.2473	-0.113
Mof_N 	N 	0.3486	0.0896	0.4483	-0.196
Mof_N 	N 	0.5668	0.158	0.5482	-0.198
Mof_N 	N 	0.0902	0.4675	0.6077	-0.203
Mof_N 	N 	0.3621	0.5574	0.7744	-0.13
Mof_N 	N 	0.9305	0.2573	0.7527	-0.066
Mof_N 	N 	0.8486	0.4104	0.5517	-0.172
Mof_N 	N 	0.0668	0.342	0.4518	-0.204
Mof_N 	N 	0.4098	0.5325	0.1077	-0.202
Mof_N 	N 	0.1379	0.4426	0.2744	-0.141
Mof_N 	N 	0.5695	0.7427	0.2527	-0.108
Mof_N 	N 	0.6514	0.5896	0.0517	-0.192
Mof_N 	N 	0.4332	0.658	0.9518	-0.166
_end
