data_functionalizedCrystal
_audit_creation_method	'EQeq! by Chris Wilmer'
_symmetry_space_group_name_H-M	'P1'
_symmetry_Int_Tables_number	1
_symmetry_cell_setting	triclinic
loop_
_symmetry_equiv_pos_as_xyz
  x,y,z
_cell_length_a	17.143
_cell_length_b	41.968
_cell_length_c	41.968
_cell_angle_alpha	120
_cell_angle_beta	90
_cell_angle_gamma	90
loop_
_atom_site_label
_atom_site_type_symbol
_atom_site_fract_x
_atom_site_fract_y
_atom_site_fract_z
_atom_site_charge
Mof_Zr	Zr	0.89734	0.54203	0.54203	3.181
Mof_Zr	Zr	0.89734	0	0.45797	3.177
Mof_Zr	Zr	0.89734	0.45797	-0	3.177
Mof_Zr	Zr	0.89734	0.45797	0.45797	3.181
Mof_Zr	Zr	0.89734	3.47813e-17	0.54203	3.177
Mof_Zr	Zr	0.89734	0.54203	-0	3.177
Mof_Zr	Zr	0.10266	0	0.45797	3.174
Mof_Zr	Zr	0.10266	0.54203	0.54203	3.178
Mof_Zr	Zr	0.10266	0.45797	-0	3.173
Mof_Zr	Zr	0.10266	3.47813e-17	0.54203	3.174
Mof_Zr	Zr	0.10266	0.45797	0.45797	3.178
Mof_Zr	Zr	0.10266	0.54203	-0	3.174
Mof_Zr	Zr	-7.72301e-33	0.46618	0.53382	3.208
Mof_Zr	Zr	-7.72301e-33	0.06764	0.53382	3.208
Mof_Zr	Zr	-1.5446e-32	0.46618	0.93236	3.208
Mof_Zr	Zr	-7.72301e-33	0.53382	0.46618	3.208
Mof_Zr	Zr	7.72301e-33	0.93236	0.46618	3.208
Mof_Zr	Zr	1.93075e-33	0.53382	0.06764	3.208
Mof_Fe	Fe	0.5	0.488	0.744	0.738
Mof_Fe	Fe	0.5	0.256	0.512	0.736
Mof_Fe	Fe	0.5	0.256	0.744	0.737
Mof_Fe	Fe	0.5	0.512	0.256	0.736
Mof_Fe	Fe	0.5	0.744	0.488	0.738
Mof_Fe	Fe	0.5	0.744	0.256	0.737
Mof_H 	H 	0.8423	0.4532	0.6096	-0.01
Mof_H 	H 	0.7911	0.5019	0.722	0.064
Mof_H 	H 	0.7637	0.5545	0.6387	-0.047
Mof_H 	H 	0.6755	0.5504	0.6787	0.104
Mof_H 	H 	0.7506	0.4503	0.6498	0.122
Mof_H 	H 	0.572	0.4969	0.6301	0.051
Mof_H 	H 	0.8423	0.1564	0.5468	-0.01
Mof_H 	H 	0.7911	0.2201	0.4981	0.062
Mof_H 	H 	0.7637	0.0842	0.4455	-0.053
Mof_H 	H 	0.6755	0.1283	0.4496	0.1
Mof_H 	H 	0.7506	0.1995	0.5497	0.122
Mof_H 	H 	0.572	0.1332	0.5031	0.049
Mof_H 	H 	0.8423	0.3904	0.8436	-0.009
Mof_H 	H 	0.7911	0.278	0.7799	0.063
Mof_H 	H 	0.7637	0.3613	0.9158	-0.044
Mof_H 	H 	0.6755	0.3213	0.8717	0.104
Mof_H 	H 	0.7506	0.3502	0.8005	0.121
Mof_H 	H 	0.572	0.3699	0.8668	0.053
Mof_H 	H 	0.8423	0.5468	0.3904	-0.01
Mof_H 	H 	0.7911	0.4981	0.278	0.062
Mof_H 	H 	0.7637	0.4455	0.3613	-0.049
Mof_H 	H 	0.6755	0.4496	0.3213	0.101
Mof_H 	H 	0.7506	0.5497	0.3502	0.122
Mof_H 	H 	0.572	0.5031	0.3699	0.051
Mof_H 	H 	0.8423	0.8436	0.4532	-0.009
Mof_H 	H 	0.7911	0.7799	0.5019	0.064
Mof_H 	H 	0.7637	0.9158	0.5545	-0.043
Mof_H 	H 	0.6755	0.8717	0.5504	0.105
Mof_H 	H 	0.7506	0.8005	0.4503	0.121
Mof_H 	H 	0.572	0.8668	0.4969	0.053
Mof_H 	H 	0.8423	0.6096	0.1564	-0.01
Mof_H 	H 	0.7911	0.722	0.2201	0.063
Mof_H 	H 	0.7637	0.6387	0.0842	-0.052
Mof_H 	H 	0.6755	0.6787	0.1283	0.102
Mof_H 	H 	0.7506	0.6498	0.1995	0.122
Mof_H 	H 	0.572	0.6301	0.1332	0.05
Mof_H 	H 	0.1577	0.8436	0.3904	-0.016
Mof_H 	H 	0.2089	0.7799	0.278	0.056
Mof_H 	H 	0.2363	0.9158	0.3613	-0.049
Mof_H 	H 	0.3245	0.8717	0.3213	0.103
Mof_H 	H 	0.2494	0.8005	0.3502	0.119
Mof_H 	H 	0.428	0.8668	0.3699	0.053
Mof_H 	H 	0.1577	0.6096	0.4532	-0.017
Mof_H 	H 	0.2089	0.722	0.5019	0.057
Mof_H 	H 	0.2363	0.6387	0.5545	-0.053
Mof_H 	H 	0.3245	0.6787	0.5504	0.103
Mof_H 	H 	0.2494	0.6498	0.4503	0.12
Mof_H 	H 	0.428	0.6301	0.4969	0.052
Mof_H 	H 	0.1577	0.5468	0.1564	-0.018
Mof_H 	H 	0.2089	0.4981	0.2201	0.055
Mof_H 	H 	0.2363	0.4455	0.0842	-0.059
Mof_H 	H 	0.3245	0.4496	0.1283	0.1
Mof_H 	H 	0.2494	0.5497	0.1995	0.12
Mof_H 	H 	0.428	0.5031	0.1332	0.05
Mof_H 	H 	0.1577	0.1564	0.6096	-0.018
Mof_H 	H 	0.2089	0.2201	0.722	0.056
Mof_H 	H 	0.2363	0.0842	0.6387	-0.058
Mof_H 	H 	0.3245	0.1283	0.6787	0.101
Mof_H 	H 	0.2494	0.1995	0.6498	0.12
Mof_H 	H 	0.428	0.1332	0.6301	0.05
Mof_H 	H 	0.1577	0.3904	0.5468	-0.017
Mof_H 	H 	0.2089	0.278	0.4981	0.056
Mof_H 	H 	0.2363	0.3613	0.4455	-0.055
Mof_H 	H 	0.3245	0.3213	0.4496	0.101
Mof_H 	H 	0.2494	0.3502	0.5497	0.12
Mof_H 	H 	0.428	0.3699	0.5031	0.051
Mof_H 	H 	0.1577	0.4532	0.8436	-0.016
Mof_H 	H 	0.2089	0.5019	0.7799	0.057
Mof_H 	H 	0.2363	0.5545	0.9158	-0.048
Mof_H 	H 	0.3245	0.5504	0.8717	0.105
Mof_H 	H 	0.2494	0.4503	0.8005	0.119
Mof_H 	H 	0.428	0.4969	0.8668	0.054
Mof_H 	H 	0.1577	0.5468	0.3904	-0.017
Mof_H 	H 	0.2089	0.4981	0.278	0.056
Mof_H 	H 	0.2363	0.4455	0.3613	-0.055
Mof_H 	H 	0.3245	0.4496	0.3213	0.101
Mof_H 	H 	0.2494	0.5497	0.3502	0.12
Mof_H 	H 	0.428	0.5031	0.3699	0.051
Mof_H 	H 	0.1577	0.8436	0.4532	-0.016
Mof_H 	H 	0.2089	0.7799	0.5019	0.057
Mof_H 	H 	0.2363	0.9158	0.5545	-0.048
Mof_H 	H 	0.3245	0.8717	0.5504	0.105
Mof_H 	H 	0.2494	0.8005	0.4503	0.119
Mof_H 	H 	0.428	0.8668	0.4969	0.054
Mof_H 	H 	0.1577	0.6096	0.1564	-0.018
Mof_H 	H 	0.2089	0.722	0.2201	0.056
Mof_H 	H 	0.2363	0.6387	0.0842	-0.058
Mof_H 	H 	0.3245	0.6787	0.1283	0.101
Mof_H 	H 	0.2494	0.6498	0.1995	0.12
Mof_H 	H 	0.428	0.6301	0.1332	0.05
Mof_H 	H 	0.1577	0.4532	0.6096	-0.017
Mof_H 	H 	0.2089	0.5019	0.722	0.057
Mof_H 	H 	0.2363	0.5545	0.6387	-0.053
Mof_H 	H 	0.3245	0.5504	0.6787	0.103
Mof_H 	H 	0.2494	0.4503	0.6498	0.12
Mof_H 	H 	0.428	0.4969	0.6301	0.052
Mof_H 	H 	0.1577	0.1564	0.5468	-0.018
Mof_H 	H 	0.2089	0.2201	0.4981	0.055
Mof_H 	H 	0.2363	0.0842	0.4455	-0.059
Mof_H 	H 	0.3245	0.1283	0.4496	0.1
Mof_H 	H 	0.2494	0.1995	0.5497	0.12
Mof_H 	H 	0.428	0.1332	0.5031	0.05
Mof_H 	H 	0.1577	0.3904	0.8436	-0.016
Mof_H 	H 	0.2089	0.278	0.7799	0.056
Mof_H 	H 	0.2363	0.3613	0.9158	-0.049
Mof_H 	H 	0.3245	0.3213	0.8717	0.103
Mof_H 	H 	0.2494	0.3502	0.8005	0.119
Mof_H 	H 	0.428	0.3699	0.8668	0.053
Mof_H 	H 	0.8423	0.1564	0.6096	-0.01
Mof_H 	H 	0.7911	0.2201	0.722	0.063
Mof_H 	H 	0.7637	0.0842	0.6387	-0.052
Mof_H 	H 	0.6755	0.1283	0.6787	0.102
Mof_H 	H 	0.7506	0.1995	0.6498	0.122
Mof_H 	H 	0.572	0.1332	0.6301	0.05
Mof_H 	H 	0.8423	0.3904	0.5468	-0.01
Mof_H 	H 	0.7911	0.278	0.4981	0.062
Mof_H 	H 	0.7637	0.3613	0.4455	-0.049
Mof_H 	H 	0.6755	0.3213	0.4496	0.101
Mof_H 	H 	0.7506	0.3502	0.5497	0.122
Mof_H 	H 	0.572	0.3699	0.5031	0.051
Mof_H 	H 	0.8423	0.4532	0.8436	-0.009
Mof_H 	H 	0.7911	0.5019	0.7799	0.064
Mof_H 	H 	0.7637	0.5545	0.9158	-0.043
Mof_H 	H 	0.6755	0.5504	0.8717	0.105
Mof_H 	H 	0.7506	0.4503	0.8005	0.121
Mof_H 	H 	0.572	0.4969	0.8668	0.053
Mof_H 	H 	0.8423	0.8436	0.3904	-0.009
Mof_H 	H 	0.7911	0.7799	0.278	0.063
Mof_H 	H 	0.7637	0.9158	0.3613	-0.044
Mof_H 	H 	0.6755	0.8717	0.3213	0.104
Mof_H 	H 	0.7506	0.8005	0.3502	0.121
Mof_H 	H 	0.572	0.8668	0.3699	0.053
Mof_H 	H 	0.8423	0.6096	0.4532	-0.01
Mof_H 	H 	0.7911	0.722	0.5019	0.064
Mof_H 	H 	0.7637	0.6387	0.5545	-0.047
Mof_H 	H 	0.6755	0.6787	0.5504	0.104
Mof_H 	H 	0.7506	0.6498	0.4503	0.122
Mof_H 	H 	0.572	0.6301	0.4969	0.051
Mof_H 	H 	0.8423	0.5468	0.1564	-0.01
Mof_H 	H 	0.7911	0.4981	0.2201	0.062
Mof_H 	H 	0.7637	0.4455	0.0842	-0.053
Mof_H 	H 	0.6755	0.4496	0.1283	0.1
Mof_H 	H 	0.7506	0.5497	0.1995	0.122
Mof_H 	H 	0.572	0.5031	0.1332	0.049
Mof_C 	C 	0.6419	0.49774	0.69122	-0.162
Mof_C 	C 	0.5646	0.49713	0.68105	0.122
Mof_C 	C 	0.8081	0.47335	0.62354	0.177
Mof_C 	C 	0.7464	0.50031	0.73446	-0.084
Mof_C 	C 	0.8124	0.50408	0.6207	-0.275
Mof_C 	C 	0.8686	0.5064	0.59408	0.597
Mof_C 	C 	0.7619	0.53299	0.64078	0.172
Mof_C 	C 	0.6666	0.49742	0.72229	0.124
Mof_C 	C 	0.7087	0.53009	0.66405	-0.256
Mof_C 	C 	0.7025	0.49952	0.66653	0.2
Mof_C 	C 	0.7528	0.47152	0.64721	-0.247
Mof_C 	C 	0.5393	0.497	0.64841	-0.087
Mof_C 	C 	0.6419	0.19348	0.50226	-0.163
Mof_C 	C 	0.5646	0.18392	0.50287	0.121
Mof_C 	C 	0.8081	0.15019	0.52665	0.179
Mof_C 	C 	0.7464	0.23415	0.49969	-0.085
Mof_C 	C 	0.8124	0.11662	0.49592	-0.278
Mof_C 	C 	0.8686	0.08768	0.4936	0.598
Mof_C 	C 	0.7619	0.10779	0.46701	0.173
Mof_C 	C 	0.6666	0.22487	0.50258	0.123
Mof_C 	C 	0.7087	0.13396	0.46991	-0.259
Mof_C 	C 	0.7025	0.16701	0.50048	0.2
Mof_C 	C 	0.7528	0.17569	0.52848	-0.249
Mof_C 	C 	0.5393	0.15141	0.503	-0.088
Mof_C 	C 	0.6419	0.30878	0.80652	-0.161
Mof_C 	C 	0.5646	0.31895	0.81608	0.122
Mof_C 	C 	0.8081	0.37646	0.84981	0.176
Mof_C 	C 	0.7464	0.26554	0.76585	-0.084
Mof_C 	C 	0.8124	0.3793	0.88338	-0.272
Mof_C 	C 	0.8686	0.40592	0.91232	0.595
Mof_C 	C 	0.7619	0.35922	0.89221	0.171
Mof_C 	C 	0.6666	0.27771	0.77513	0.124
Mof_C 	C 	0.7087	0.33595	0.86604	-0.254
Mof_C 	C 	0.7025	0.33347	0.83299	0.199
Mof_C 	C 	0.7528	0.35279	0.82431	-0.245
Mof_C 	C 	0.5393	0.35159	0.84859	-0.087
Mof_C 	C 	0.6419	0.50226	0.30878	-0.162
Mof_C 	C 	0.5646	0.50287	0.31895	0.121
Mof_C 	C 	0.8081	0.52665	0.37646	0.177
Mof_C 	C 	0.7464	0.49969	0.26554	-0.085
Mof_C 	C 	0.8124	0.49592	0.3793	-0.276
Mof_C 	C 	0.8686	0.4936	0.40592	0.597
Mof_C 	C 	0.7619	0.46701	0.35922	0.172
Mof_C 	C 	0.6666	0.50258	0.27771	0.123
Mof_C 	C 	0.7087	0.46991	0.33595	-0.257
Mof_C 	C 	0.7025	0.50048	0.33347	0.2
Mof_C 	C 	0.7528	0.52848	0.35279	-0.247
Mof_C 	C 	0.5393	0.503	0.35159	-0.088
Mof_C 	C 	0.6419	0.80652	0.49774	-0.161
Mof_C 	C 	0.5646	0.81608	0.49713	0.122
Mof_C 	C 	0.8081	0.84981	0.47335	0.176
Mof_C 	C 	0.7464	0.76585	0.50031	-0.084
Mof_C 	C 	0.8124	0.88338	0.50408	-0.271
Mof_C 	C 	0.8686	0.91232	0.5064	0.595
Mof_C 	C 	0.7619	0.89221	0.53299	0.171
Mof_C 	C 	0.6666	0.77513	0.49742	0.124
Mof_C 	C 	0.7087	0.86604	0.53009	-0.254
Mof_C 	C 	0.7025	0.83299	0.49952	0.199
Mof_C 	C 	0.7528	0.82431	0.47152	-0.245
Mof_C 	C 	0.5393	0.84859	0.497	-0.087
Mof_C 	C 	0.6419	0.69122	0.19348	-0.162
Mof_C 	C 	0.5646	0.68105	0.18392	0.122
Mof_C 	C 	0.8081	0.62354	0.15019	0.179
Mof_C 	C 	0.7464	0.73446	0.23415	-0.085
Mof_C 	C 	0.8124	0.6207	0.11662	-0.278
Mof_C 	C 	0.8686	0.59408	0.08768	0.598
Mof_C 	C 	0.7619	0.64078	0.10779	0.173
Mof_C 	C 	0.6666	0.72229	0.22487	0.124
Mof_C 	C 	0.7087	0.66405	0.13396	-0.258
Mof_C 	C 	0.7025	0.66653	0.16701	0.201
Mof_C 	C 	0.7528	0.64721	0.17569	-0.249
Mof_C 	C 	0.5393	0.64841	0.15141	-0.088
Mof_C 	C 	0.3581	0.80652	0.30878	-0.163
Mof_C 	C 	0.4354	0.81608	0.31895	0.122
Mof_C 	C 	0.1919	0.84981	0.37646	0.178
Mof_C 	C 	0.2536	0.76585	0.26554	-0.087
Mof_C 	C 	0.1876	0.88338	0.3793	-0.281
Mof_C 	C 	0.1314	0.91232	0.40592	0.598
Mof_C 	C 	0.2381	0.89221	0.35922	0.174
Mof_C 	C 	0.3334	0.77513	0.27771	0.123
Mof_C 	C 	0.2913	0.86604	0.33595	-0.259
Mof_C 	C 	0.2975	0.83299	0.33347	0.201
Mof_C 	C 	0.2472	0.82431	0.35279	-0.251
Mof_C 	C 	0.4607	0.84859	0.35159	-0.087
Mof_C 	C 	0.3581	0.69122	0.49774	-0.163
Mof_C 	C 	0.4354	0.68105	0.49713	0.123
Mof_C 	C 	0.1919	0.62354	0.47335	0.18
Mof_C 	C 	0.2536	0.73446	0.50031	-0.086
Mof_C 	C 	0.1876	0.6207	0.50408	-0.284
Mof_C 	C 	0.1314	0.59408	0.5064	0.6
Mof_C 	C 	0.2381	0.64078	0.53299	0.175
Mof_C 	C 	0.3334	0.72229	0.49742	0.123
Mof_C 	C 	0.2913	0.66405	0.53009	-0.262
Mof_C 	C 	0.2975	0.66653	0.49952	0.202
Mof_C 	C 	0.2472	0.64721	0.47152	-0.253
Mof_C 	C 	0.4607	0.64841	0.497	-0.088
Mof_C 	C 	0.3581	0.50226	0.19348	-0.164
Mof_C 	C 	0.4354	0.50287	0.18392	0.122
Mof_C 	C 	0.1919	0.52665	0.15019	0.181
Mof_C 	C 	0.2536	0.49969	0.23415	-0.087
Mof_C 	C 	0.1876	0.49592	0.11662	-0.288
Mof_C 	C 	0.1314	0.4936	0.08768	0.601
Mof_C 	C 	0.2381	0.46701	0.10779	0.175
Mof_C 	C 	0.3334	0.50258	0.22487	0.122
Mof_C 	C 	0.2913	0.46991	0.13396	-0.264
Mof_C 	C 	0.2975	0.50048	0.16701	0.202
Mof_C 	C 	0.2472	0.52848	0.17569	-0.254
Mof_C 	C 	0.4607	0.503	0.15141	-0.089
Mof_C 	C 	0.3581	0.19348	0.69122	-0.164
Mof_C 	C 	0.4354	0.18392	0.68105	0.122
Mof_C 	C 	0.1919	0.15019	0.62354	0.181
Mof_C 	C 	0.2536	0.23415	0.73446	-0.087
Mof_C 	C 	0.1876	0.11662	0.6207	-0.287
Mof_C 	C 	0.1314	0.08768	0.59408	0.601
Mof_C 	C 	0.2381	0.10779	0.64078	0.176
Mof_C 	C 	0.3334	0.22487	0.72229	0.123
Mof_C 	C 	0.2913	0.13396	0.66405	-0.264
Mof_C 	C 	0.2975	0.16701	0.66653	0.203
Mof_C 	C 	0.2472	0.17569	0.64721	-0.254
Mof_C 	C 	0.4607	0.15141	0.64841	-0.089
Mof_C 	C 	0.3581	0.30878	0.50226	-0.164
Mof_C 	C 	0.4354	0.31895	0.50287	0.122
Mof_C 	C 	0.1919	0.37646	0.52665	0.18
Mof_C 	C 	0.2536	0.26554	0.49969	-0.087
Mof_C 	C 	0.1876	0.3793	0.49592	-0.285
Mof_C 	C 	0.1314	0.40592	0.4936	0.6
Mof_C 	C 	0.2381	0.35922	0.46701	0.174
Mof_C 	C 	0.3334	0.27771	0.50258	0.122
Mof_C 	C 	0.2913	0.33595	0.46991	-0.262
Mof_C 	C 	0.2975	0.33347	0.50048	0.202
Mof_C 	C 	0.2472	0.35279	0.52848	-0.253
Mof_C 	C 	0.4607	0.35159	0.503	-0.088
Mof_C 	C 	0.3581	0.49774	0.80652	-0.163
Mof_C 	C 	0.4354	0.49713	0.81608	0.123
Mof_C 	C 	0.1919	0.47335	0.84981	0.179
Mof_C 	C 	0.2536	0.50031	0.76585	-0.086
Mof_C 	C 	0.1876	0.50408	0.88338	-0.281
Mof_C 	C 	0.1314	0.5064	0.91232	0.598
Mof_C 	C 	0.2381	0.53299	0.89221	0.174
Mof_C 	C 	0.3334	0.49742	0.77513	0.123
Mof_C 	C 	0.2913	0.53009	0.86604	-0.259
Mof_C 	C 	0.2975	0.49952	0.83299	0.201
Mof_C 	C 	0.2472	0.47152	0.82431	-0.251
Mof_C 	C 	0.4607	0.497	0.84859	-0.087
Mof_C 	C 	0.3581	0.50226	0.30878	-0.164
Mof_C 	C 	0.4354	0.50287	0.31895	0.122
Mof_C 	C 	0.1919	0.52665	0.37646	0.18
Mof_C 	C 	0.2536	0.49969	0.26554	-0.087
Mof_C 	C 	0.1876	0.49592	0.3793	-0.285
Mof_C 	C 	0.1314	0.4936	0.40592	0.6
Mof_C 	C 	0.2381	0.46701	0.35922	0.174
Mof_C 	C 	0.3334	0.50258	0.27771	0.122
Mof_C 	C 	0.2913	0.46991	0.33595	-0.262
Mof_C 	C 	0.2975	0.50048	0.33347	0.202
Mof_C 	C 	0.2472	0.52848	0.35279	-0.253
Mof_C 	C 	0.4607	0.503	0.35159	-0.088
Mof_C 	C 	0.3581	0.80652	0.49774	-0.163
Mof_C 	C 	0.4354	0.81608	0.49713	0.123
Mof_C 	C 	0.1919	0.84981	0.47335	0.179
Mof_C 	C 	0.2536	0.76585	0.50031	-0.086
Mof_C 	C 	0.1876	0.88338	0.50408	-0.281
Mof_C 	C 	0.1314	0.91232	0.5064	0.598
Mof_C 	C 	0.2381	0.89221	0.53299	0.174
Mof_C 	C 	0.3334	0.77513	0.49742	0.123
Mof_C 	C 	0.2913	0.86604	0.53009	-0.259
Mof_C 	C 	0.2975	0.83299	0.49952	0.201
Mof_C 	C 	0.2472	0.82431	0.47152	-0.251
Mof_C 	C 	0.4607	0.84859	0.497	-0.087
Mof_C 	C 	0.3581	0.69122	0.19348	-0.164
Mof_C 	C 	0.4354	0.68105	0.18392	0.122
Mof_C 	C 	0.1919	0.62354	0.15019	0.181
Mof_C 	C 	0.2536	0.73446	0.23415	-0.087
Mof_C 	C 	0.1876	0.6207	0.11662	-0.287
Mof_C 	C 	0.1314	0.59408	0.08768	0.601
Mof_C 	C 	0.2381	0.64078	0.10779	0.176
Mof_C 	C 	0.3334	0.72229	0.22487	0.123
Mof_C 	C 	0.2913	0.66405	0.13396	-0.264
Mof_C 	C 	0.2975	0.66653	0.16701	0.203
Mof_C 	C 	0.2472	0.64721	0.17569	-0.254
Mof_C 	C 	0.4607	0.64841	0.15141	-0.089
Mof_C 	C 	0.3581	0.49774	0.69122	-0.163
Mof_C 	C 	0.4354	0.49713	0.68105	0.122
Mof_C 	C 	0.1919	0.47335	0.62354	0.18
Mof_C 	C 	0.2536	0.50031	0.73446	-0.086
Mof_C 	C 	0.1876	0.50408	0.6207	-0.284
Mof_C 	C 	0.1314	0.5064	0.59408	0.6
Mof_C 	C 	0.2381	0.53299	0.64078	0.175
Mof_C 	C 	0.3334	0.49742	0.72229	0.123
Mof_C 	C 	0.2913	0.53009	0.66405	-0.262
Mof_C 	C 	0.2975	0.49952	0.66653	0.202
Mof_C 	C 	0.2472	0.47152	0.64721	-0.253
Mof_C 	C 	0.4607	0.497	0.64841	-0.088
Mof_C 	C 	0.3581	0.19348	0.50226	-0.164
Mof_C 	C 	0.4354	0.18392	0.50287	0.122
Mof_C 	C 	0.1919	0.15019	0.52665	0.181
Mof_C 	C 	0.2536	0.23415	0.49969	-0.087
Mof_C 	C 	0.1876	0.11662	0.49592	-0.288
Mof_C 	C 	0.1314	0.08768	0.4936	0.601
Mof_C 	C 	0.2381	0.10779	0.46701	0.175
Mof_C 	C 	0.3334	0.22487	0.50258	0.122
Mof_C 	C 	0.2913	0.13396	0.46991	-0.264
Mof_C 	C 	0.2975	0.16701	0.50048	0.202
Mof_C 	C 	0.2472	0.17569	0.52848	-0.254
Mof_C 	C 	0.4607	0.15141	0.503	-0.089
Mof_C 	C 	0.3581	0.30878	0.80652	-0.163
Mof_C 	C 	0.4354	0.31895	0.81608	0.122
Mof_C 	C 	0.1919	0.37646	0.84981	0.179
Mof_C 	C 	0.2536	0.26554	0.76585	-0.087
Mof_C 	C 	0.1876	0.3793	0.88338	-0.281
Mof_C 	C 	0.1314	0.40592	0.91232	0.598
Mof_C 	C 	0.2381	0.35922	0.89221	0.174
Mof_C 	C 	0.3334	0.27771	0.77513	0.123
Mof_C 	C 	0.2913	0.33595	0.86604	-0.259
Mof_C 	C 	0.2975	0.33347	0.83299	0.201
Mof_C 	C 	0.2472	0.35279	0.82431	-0.251
Mof_C 	C 	0.4607	0.35159	0.84859	-0.087
Mof_C 	C 	0.6419	0.19348	0.69122	-0.162
Mof_C 	C 	0.5646	0.18392	0.68105	0.122
Mof_C 	C 	0.8081	0.15019	0.62354	0.179
Mof_C 	C 	0.7464	0.23415	0.73446	-0.085
Mof_C 	C 	0.8124	0.11662	0.6207	-0.278
Mof_C 	C 	0.8686	0.08768	0.59408	0.598
Mof_C 	C 	0.7619	0.10779	0.64078	0.173
Mof_C 	C 	0.6666	0.22487	0.72229	0.124
Mof_C 	C 	0.7087	0.13396	0.66405	-0.258
Mof_C 	C 	0.7025	0.16701	0.66653	0.201
Mof_C 	C 	0.7528	0.17569	0.64721	-0.249
Mof_C 	C 	0.5393	0.15141	0.64841	-0.088
Mof_C 	C 	0.6419	0.30878	0.50226	-0.162
Mof_C 	C 	0.5646	0.31895	0.50287	0.121
Mof_C 	C 	0.8081	0.37646	0.52665	0.177
Mof_C 	C 	0.7464	0.26554	0.49969	-0.085
Mof_C 	C 	0.8124	0.3793	0.49592	-0.276
Mof_C 	C 	0.8686	0.40592	0.4936	0.597
Mof_C 	C 	0.7619	0.35922	0.46701	0.172
Mof_C 	C 	0.6666	0.27771	0.50258	0.123
Mof_C 	C 	0.7087	0.33595	0.46991	-0.257
Mof_C 	C 	0.7025	0.33347	0.50048	0.2
Mof_C 	C 	0.7528	0.35279	0.52848	-0.247
Mof_C 	C 	0.5393	0.35159	0.503	-0.088
Mof_C 	C 	0.6419	0.49774	0.80652	-0.161
Mof_C 	C 	0.5646	0.49713	0.81608	0.122
Mof_C 	C 	0.8081	0.47335	0.84981	0.176
Mof_C 	C 	0.7464	0.50031	0.76585	-0.084
Mof_C 	C 	0.8124	0.50408	0.88338	-0.271
Mof_C 	C 	0.8686	0.5064	0.91232	0.595
Mof_C 	C 	0.7619	0.53299	0.89221	0.171
Mof_C 	C 	0.6666	0.49742	0.77513	0.124
Mof_C 	C 	0.7087	0.53009	0.86604	-0.254
Mof_C 	C 	0.7025	0.49952	0.83299	0.199
Mof_C 	C 	0.7528	0.47152	0.82431	-0.245
Mof_C 	C 	0.5393	0.497	0.84859	-0.087
Mof_C 	C 	0.6419	0.80652	0.30878	-0.161
Mof_C 	C 	0.5646	0.81608	0.31895	0.122
Mof_C 	C 	0.8081	0.84981	0.37646	0.176
Mof_C 	C 	0.7464	0.76585	0.26554	-0.084
Mof_C 	C 	0.8124	0.88338	0.3793	-0.272
Mof_C 	C 	0.8686	0.91232	0.40592	0.595
Mof_C 	C 	0.7619	0.89221	0.35922	0.171
Mof_C 	C 	0.6666	0.77513	0.27771	0.124
Mof_C 	C 	0.7087	0.86604	0.33595	-0.254
Mof_C 	C 	0.7025	0.83299	0.33347	0.199
Mof_C 	C 	0.7528	0.82431	0.35279	-0.245
Mof_C 	C 	0.5393	0.84859	0.35159	-0.087
Mof_C 	C 	0.6419	0.69122	0.49774	-0.162
Mof_C 	C 	0.5646	0.68105	0.49713	0.122
Mof_C 	C 	0.8081	0.62354	0.47335	0.177
Mof_C 	C 	0.7464	0.73446	0.50031	-0.084
Mof_C 	C 	0.8124	0.6207	0.50408	-0.275
Mof_C 	C 	0.8686	0.59408	0.5064	0.597
Mof_C 	C 	0.7619	0.64078	0.53299	0.172
Mof_C 	C 	0.6666	0.72229	0.49742	0.125
Mof_C 	C 	0.7087	0.66405	0.53009	-0.256
Mof_C 	C 	0.7025	0.66653	0.49952	0.2
Mof_C 	C 	0.7528	0.64721	0.47152	-0.247
Mof_C 	C 	0.5393	0.64841	0.497	-0.087
Mof_C 	C 	0.6419	0.50226	0.19348	-0.163
Mof_C 	C 	0.5646	0.50287	0.18392	0.121
Mof_C 	C 	0.8081	0.52665	0.15019	0.179
Mof_C 	C 	0.7464	0.49969	0.23415	-0.085
Mof_C 	C 	0.8124	0.49592	0.11662	-0.278
Mof_C 	C 	0.8686	0.4936	0.08768	0.598
Mof_C 	C 	0.7619	0.46701	0.10779	0.173
Mof_C 	C 	0.6666	0.50258	0.22487	0.124
Mof_C 	C 	0.7087	0.46991	0.13396	-0.259
Mof_C 	C 	0.7025	0.50048	0.16701	0.2
Mof_C 	C 	0.7528	0.52848	0.17569	-0.249
Mof_C 	C 	0.5393	0.503	0.15141	-0.088
Mof_N 	N 	0.6176	0.49595	0.74798	-0.207
Mof_N 	N 	0.6176	0.25203	0.50406	-0.207
Mof_N 	N 	0.6176	0.25202	0.74797	-0.207
Mof_N 	N 	0.6176	0.50405	0.25202	-0.207
Mof_N 	N 	0.6176	0.74797	0.49595	-0.207
Mof_N 	N 	0.6176	0.74797	0.25202	-0.207
Mof_N 	N 	0.3824	0.74797	0.25202	-0.207
Mof_N 	N 	0.3824	0.74797	0.49595	-0.207
Mof_N 	N 	0.3824	0.50405	0.25203	-0.208
Mof_N 	N 	0.3824	0.25203	0.74798	-0.207
Mof_N 	N 	0.3824	0.25202	0.50405	-0.208
Mof_N 	N 	0.3824	0.49595	0.74798	-0.207
Mof_N 	N 	0.5	0.49707	0.70139	-0.211
Mof_N 	N 	0.5	0.20432	0.50293	-0.211
Mof_N 	N 	0.5	0.29861	0.79568	-0.211
Mof_N 	N 	0.5	0.50293	0.29861	-0.211
Mof_N 	N 	0.5	0.79568	0.49707	-0.211
Mof_N 	N 	0.5	0.70139	0.20432	-0.211
Mof_N 	N 	0.5	0.79568	0.29861	-0.211
Mof_N 	N 	0.5	0.70139	0.49707	-0.211
Mof_N 	N 	0.5	0.50293	0.20432	-0.211
Mof_N 	N 	0.5	0.20432	0.70139	-0.211
Mof_N 	N 	0.5	0.29861	0.50293	-0.211
Mof_N 	N 	0.5	0.49707	0.79568	-0.211
Mof_Cl	Cl	0.5	0.42296	0.71148	-0.365
Mof_Cl	Cl	0.5	0.28852	0.57704	-0.365
Mof_Cl	Cl	0.5	0.28852	0.71148	-0.365
Mof_Cl	Cl	0.5	0.57704	0.28852	-0.365
Mof_Cl	Cl	0.5	0.71148	0.42296	-0.365
Mof_Cl	Cl	0.5	0.71148	0.28852	-0.365
Mof_O 	O 	0.92108	0.4824	0.58113	-0.663
Mof_O 	O 	0.85652	0.53095	0.58627	-0.792
Mof_O 	O 	0.92108	0.09873	0.5176	-0.665
Mof_O 	O 	0.85652	0.05532	0.46905	-0.8
Mof_O 	O 	0.92108	0.41887	0.90127	-0.663
Mof_O 	O 	0.85652	0.41373	0.94468	-0.783
Mof_O 	O 	0.92108	0.5176	0.41887	-0.664
Mof_O 	O 	0.85652	0.46905	0.41373	-0.793
Mof_O 	O 	0.92108	0.90127	0.4824	-0.663
Mof_O 	O 	0.85652	0.94468	0.53095	-0.783
Mof_O 	O 	0.92108	0.58113	0.09873	-0.664
Mof_O 	O 	0.85652	0.58627	0.05532	-0.799
Mof_O 	O 	0.07892	0.90127	0.41887	-0.685
Mof_O 	O 	0.14348	0.94468	0.41373	-0.794
Mof_O 	O 	0.07892	0.58113	0.4824	-0.686
Mof_O 	O 	0.14348	0.58627	0.53095	-0.803
Mof_O 	O 	0.07892	0.5176	0.09873	-0.687
Mof_O 	O 	0.14348	0.46905	0.05532	-0.811
Mof_O 	O 	0.07892	0.09873	0.58113	-0.686
Mof_O 	O 	0.14348	0.05532	0.58627	-0.81
Mof_O 	O 	0.07892	0.41887	0.5176	-0.686
Mof_O 	O 	0.14348	0.41373	0.46905	-0.804
Mof_O 	O 	0.07892	0.4824	0.90127	-0.685
Mof_O 	O 	0.14348	0.53095	0.94468	-0.794
Mof_O 	O 	0.07892	0.5176	0.41887	-0.686
Mof_O 	O 	0.14348	0.46905	0.41373	-0.804
Mof_O 	O 	0.07892	0.90127	0.4824	-0.685
Mof_O 	O 	0.14348	0.94468	0.53095	-0.794
Mof_O 	O 	0.07892	0.58113	0.09873	-0.686
Mof_O 	O 	0.14348	0.58627	0.05532	-0.81
Mof_O 	O 	0.07892	0.4824	0.58113	-0.686
Mof_O 	O 	0.14348	0.53095	0.58627	-0.803
Mof_O 	O 	0.07892	0.09873	0.5176	-0.687
Mof_O 	O 	0.14348	0.05532	0.46905	-0.811
Mof_O 	O 	0.07892	0.41887	0.90127	-0.685
Mof_O 	O 	0.14348	0.41373	0.94468	-0.794
Mof_O 	O 	0.92108	0.09873	0.58113	-0.664
Mof_O 	O 	0.85652	0.05532	0.58627	-0.799
Mof_O 	O 	0.92108	0.41887	0.5176	-0.664
Mof_O 	O 	0.85652	0.41373	0.46905	-0.793
Mof_O 	O 	0.92108	0.4824	0.90127	-0.663
Mof_O 	O 	0.85652	0.53095	0.94468	-0.783
Mof_O 	O 	0.92108	0.90127	0.41887	-0.663
Mof_O 	O 	0.85652	0.94468	0.41373	-0.783
Mof_O 	O 	0.92108	0.58113	0.4824	-0.664
Mof_O 	O 	0.85652	0.58627	0.53095	-0.792
Mof_O 	O 	0.92108	0.5176	0.09873	-0.665
Mof_O 	O 	0.85652	0.46905	0.05532	-0.8
Mof_O 	O 	0.8969	0.48356	0.51645	-1.341
Mof_O 	O 	0.8969	0.03289	0.51645	-1.351
Mof_O 	O 	0.8969	0.48356	0.96712	-1.328
Mof_O 	O 	0.8969	0.51644	0.48355	-1.341
Mof_O 	O 	0.8969	0.96711	0.48355	-1.328
Mof_O 	O 	0.8969	0.51644	0.03289	-1.351
Mof_O 	O 	0.1031	0.96711	0.48355	-1.342
Mof_O 	O 	0.1031	0.51644	0.48355	-1.355
Mof_O 	O 	0.1031	0.51644	0.03288	-1.365
Mof_O 	O 	0.1031	0.03289	0.51645	-1.365
Mof_O 	O 	0.1031	0.48356	0.51645	-1.355
Mof_O 	O 	0.1031	0.48356	0.96712	-1.342
Mof_O 	O 	-2.3169e-32	0.52596	0.55981	-1.341
Mof_O 	O 	7.72301e-33	0.03385	0.47404	-1.352
Mof_O 	O 	1.5446e-32	0.44019	0.96615	-1.33
Mof_O 	O 	-1.5446e-32	0.47404	0.44019	-1.342
Mof_O 	O 	7.72301e-33	0.96615	0.52596	-1.329
Mof_O 	O 	-1.01364e-32	0.55981	0.03385	-1.351
Mof_O 	O 	3.0892e-32	0.96615	0.44019	-1.33
Mof_O 	O 	-2.3169e-32	0.55981	0.52596	-1.341
Mof_O 	O 	-1.01364e-32	0.47404	0.03385	-1.352
Mof_O 	O 	-7.72301e-33	0.03385	0.55981	-1.351
Mof_O 	O 	-7.72301e-33	0.44019	0.47404	-1.342
Mof_O 	O 	1.5446e-32	0.52596	0.96615	-1.329
_end
