data_functionalizedCrystal
_audit_creation_method	'EQeq! by Chris Wilmer'
_symmetry_space_group_name_H-M	'P1'
_symmetry_Int_Tables_number	1
_symmetry_cell_setting	triclinic
loop_
_symmetry_equiv_pos_as_xyz
  x,y,z
_cell_length_a	26.232
_cell_length_b	26.232
_cell_length_c	26.232
_cell_angle_alpha	90
_cell_angle_beta	90
_cell_angle_gamma	90
loop_
_atom_site_label
_atom_site_type_symbol
_atom_site_fract_x
_atom_site_fract_y
_atom_site_fract_z
_atom_site_charge
Mof_O 	O 	0.9476	0.183	0.2568	-0.387
Mof_O 	O 	0.9476	0.683	0.7568	-0.378
Mof_O 	O 	0.4476	0.183	0.7568	-0.416
Mof_O 	O 	0.4476	0.683	0.2568	-0.414
Mof_O 	O 	0.0524	0.817	0.2568	-0.426
Mof_O 	O 	0.0524	0.317	0.7568	-0.428
Mof_O 	O 	0.5524	0.817	0.7568	-0.405
Mof_O 	O 	0.5524	0.317	0.2568	-0.415
Mof_O 	O 	0.0524	0.183	0.7432	-0.432
Mof_O 	O 	0.0524	0.683	0.2432	-0.429
Mof_O 	O 	0.5524	0.183	0.2432	-0.418
Mof_O 	O 	0.5524	0.683	0.7432	-0.409
Mof_O 	O 	0.9476	0.817	0.7432	-0.372
Mof_O 	O 	0.9476	0.317	0.2432	-0.381
Mof_O 	O 	0.4476	0.817	0.2432	-0.407
Mof_O 	O 	0.4476	0.317	0.7432	-0.409
Mof_O 	O 	0.2568	0.9476	0.183	-0.386
Mof_O 	O 	0.2568	0.4476	0.683	-0.413
Mof_O 	O 	0.7568	0.9476	0.683	-0.377
Mof_O 	O 	0.7568	0.4476	0.183	-0.415
Mof_O 	O 	0.2568	0.0524	0.817	-0.425
Mof_O 	O 	0.2568	0.5524	0.317	-0.414
Mof_O 	O 	0.7568	0.0524	0.317	-0.427
Mof_O 	O 	0.7568	0.5524	0.817	-0.404
Mof_O 	O 	0.7432	0.0524	0.183	-0.431
Mof_O 	O 	0.7432	0.5524	0.683	-0.409
Mof_O 	O 	0.2432	0.0524	0.683	-0.429
Mof_O 	O 	0.2432	0.5524	0.183	-0.418
Mof_O 	O 	0.7432	0.9476	0.817	-0.372
Mof_O 	O 	0.7432	0.4476	0.317	-0.409
Mof_O 	O 	0.2432	0.9476	0.317	-0.381
Mof_O 	O 	0.2432	0.4476	0.817	-0.407
Mof_O 	O 	0.183	0.2568	0.9476	-0.386
Mof_O 	O 	0.183	0.7568	0.4476	-0.415
Mof_O 	O 	0.683	0.2568	0.4476	-0.413
Mof_O 	O 	0.683	0.7568	0.9476	-0.377
Mof_O 	O 	0.817	0.2568	0.0524	-0.425
Mof_O 	O 	0.817	0.7568	0.5524	-0.404
Mof_O 	O 	0.317	0.2568	0.5524	-0.414
Mof_O 	O 	0.317	0.7568	0.0524	-0.427
Mof_O 	O 	0.183	0.7432	0.0524	-0.431
Mof_O 	O 	0.183	0.2432	0.5524	-0.418
Mof_O 	O 	0.683	0.7432	0.5524	-0.409
Mof_O 	O 	0.683	0.2432	0.0524	-0.429
Mof_O 	O 	0.817	0.7432	0.9476	-0.372
Mof_O 	O 	0.817	0.2432	0.4476	-0.407
Mof_O 	O 	0.317	0.7432	0.4476	-0.409
Mof_O 	O 	0.317	0.2432	0.9476	-0.381
Mof_O 	O 	0.183	0.9476	0.7432	-0.382
Mof_O 	O 	0.183	0.4476	0.2432	-0.418
Mof_O 	O 	0.683	0.9476	0.2432	-0.38
Mof_O 	O 	0.683	0.4476	0.7432	-0.409
Mof_O 	O 	0.817	0.0524	0.7432	-0.42
Mof_O 	O 	0.817	0.5524	0.2432	-0.407
Mof_O 	O 	0.317	0.0524	0.2432	-0.43
Mof_O 	O 	0.317	0.5524	0.7432	-0.409
Mof_O 	O 	0.183	0.0524	0.2568	-0.435
Mof_O 	O 	0.183	0.5524	0.7568	-0.415
Mof_O 	O 	0.683	0.0524	0.7568	-0.427
Mof_O 	O 	0.683	0.5524	0.2568	-0.413
Mof_O 	O 	0.817	0.9476	0.2568	-0.376
Mof_O 	O 	0.817	0.4476	0.7568	-0.404
Mof_O 	O 	0.317	0.9476	0.7568	-0.378
Mof_O 	O 	0.317	0.4476	0.2568	-0.414
Mof_O 	O 	0.9476	0.2568	0.817	-0.376
Mof_O 	O 	0.9476	0.7568	0.317	-0.378
Mof_O 	O 	0.4476	0.2568	0.317	-0.414
Mof_O 	O 	0.4476	0.7568	0.817	-0.404
Mof_O 	O 	0.0524	0.2568	0.183	-0.435
Mof_O 	O 	0.0524	0.7568	0.683	-0.427
Mof_O 	O 	0.5524	0.2568	0.683	-0.413
Mof_O 	O 	0.5524	0.7568	0.183	-0.415
Mof_O 	O 	0.0524	0.7432	0.817	-0.42
Mof_O 	O 	0.0524	0.2432	0.317	-0.43
Mof_O 	O 	0.5524	0.7432	0.317	-0.409
Mof_O 	O 	0.5524	0.2432	0.817	-0.407
Mof_O 	O 	0.9476	0.7432	0.183	-0.382
Mof_O 	O 	0.9476	0.2432	0.683	-0.38
Mof_O 	O 	0.4476	0.7432	0.683	-0.409
Mof_O 	O 	0.4476	0.2432	0.183	-0.418
Mof_O 	O 	0.2568	0.183	0.0524	-0.435
Mof_O 	O 	0.2568	0.683	0.5524	-0.413
Mof_O 	O 	0.7568	0.183	0.5524	-0.415
Mof_O 	O 	0.7568	0.683	0.0524	-0.427
Mof_O 	O 	0.2568	0.817	0.9476	-0.376
Mof_O 	O 	0.2568	0.317	0.4476	-0.414
Mof_O 	O 	0.7568	0.817	0.4476	-0.404
Mof_O 	O 	0.7568	0.317	0.9476	-0.378
Mof_O 	O 	0.7432	0.183	0.9476	-0.382
Mof_O 	O 	0.7432	0.683	0.4476	-0.409
Mof_O 	O 	0.2432	0.183	0.4476	-0.418
Mof_O 	O 	0.2432	0.683	0.9476	-0.38
Mof_O 	O 	0.7432	0.817	0.0524	-0.42
Mof_O 	O 	0.7432	0.317	0.5524	-0.409
Mof_O 	O 	0.2432	0.817	0.5524	-0.407
Mof_O 	O 	0.2432	0.317	0.0524	-0.43
Mof_O 	O 	0.0524	0.817	0.7432	-0.42
Mof_O 	O 	0.0524	0.317	0.2432	-0.43
Mof_O 	O 	0.5524	0.817	0.2432	-0.407
Mof_O 	O 	0.5524	0.317	0.7432	-0.409
Mof_O 	O 	0.9476	0.183	0.7432	-0.382
Mof_O 	O 	0.9476	0.683	0.2432	-0.38
Mof_O 	O 	0.4476	0.183	0.2432	-0.418
Mof_O 	O 	0.4476	0.683	0.7432	-0.409
Mof_O 	O 	0.9476	0.817	0.2568	-0.376
Mof_O 	O 	0.9476	0.317	0.7568	-0.378
Mof_O 	O 	0.4476	0.817	0.7568	-0.404
Mof_O 	O 	0.4476	0.317	0.2568	-0.414
Mof_O 	O 	0.0524	0.183	0.2568	-0.435
Mof_O 	O 	0.0524	0.683	0.7568	-0.427
Mof_O 	O 	0.5524	0.183	0.7568	-0.415
Mof_O 	O 	0.5524	0.683	0.2568	-0.413
Mof_O 	O 	0.7432	0.0524	0.817	-0.42
Mof_O 	O 	0.7432	0.5524	0.317	-0.409
Mof_O 	O 	0.2432	0.0524	0.317	-0.43
Mof_O 	O 	0.2432	0.5524	0.817	-0.407
Mof_O 	O 	0.7432	0.9476	0.183	-0.382
Mof_O 	O 	0.7432	0.4476	0.683	-0.409
Mof_O 	O 	0.2432	0.9476	0.683	-0.38
Mof_O 	O 	0.2432	0.4476	0.183	-0.418
Mof_O 	O 	0.2568	0.9476	0.817	-0.376
Mof_O 	O 	0.2568	0.4476	0.317	-0.414
Mof_O 	O 	0.7568	0.9476	0.317	-0.378
Mof_O 	O 	0.7568	0.4476	0.817	-0.404
Mof_O 	O 	0.2568	0.0524	0.183	-0.435
Mof_O 	O 	0.2568	0.5524	0.683	-0.413
Mof_O 	O 	0.7568	0.0524	0.683	-0.427
Mof_O 	O 	0.7568	0.5524	0.183	-0.415
Mof_O 	O 	0.817	0.7432	0.0524	-0.42
Mof_O 	O 	0.817	0.2432	0.5524	-0.407
Mof_O 	O 	0.317	0.7432	0.5524	-0.409
Mof_O 	O 	0.317	0.2432	0.0524	-0.43
Mof_O 	O 	0.183	0.7432	0.9476	-0.382
Mof_O 	O 	0.183	0.2432	0.4476	-0.418
Mof_O 	O 	0.683	0.7432	0.4476	-0.409
Mof_O 	O 	0.683	0.2432	0.9476	-0.38
Mof_O 	O 	0.817	0.2568	0.9476	-0.376
Mof_O 	O 	0.817	0.7568	0.4476	-0.404
Mof_O 	O 	0.317	0.2568	0.4476	-0.414
Mof_O 	O 	0.317	0.7568	0.9476	-0.378
Mof_O 	O 	0.183	0.2568	0.0524	-0.435
Mof_O 	O 	0.183	0.7568	0.5524	-0.415
Mof_O 	O 	0.683	0.2568	0.5524	-0.413
Mof_O 	O 	0.683	0.7568	0.0524	-0.427
Mof_O 	O 	0.817	0.0524	0.2568	-0.425
Mof_O 	O 	0.817	0.5524	0.7568	-0.404
Mof_O 	O 	0.317	0.0524	0.7568	-0.427
Mof_O 	O 	0.317	0.5524	0.2568	-0.414
Mof_O 	O 	0.183	0.9476	0.2568	-0.386
Mof_O 	O 	0.183	0.4476	0.7568	-0.415
Mof_O 	O 	0.683	0.9476	0.7568	-0.377
Mof_O 	O 	0.683	0.4476	0.2568	-0.413
Mof_O 	O 	0.817	0.9476	0.7432	-0.372
Mof_O 	O 	0.817	0.4476	0.2432	-0.407
Mof_O 	O 	0.317	0.9476	0.2432	-0.381
Mof_O 	O 	0.317	0.4476	0.7432	-0.409
Mof_O 	O 	0.183	0.0524	0.7432	-0.431
Mof_O 	O 	0.183	0.5524	0.2432	-0.418
Mof_O 	O 	0.683	0.0524	0.2432	-0.429
Mof_O 	O 	0.683	0.5524	0.7432	-0.409
Mof_O 	O 	0.0524	0.7432	0.183	-0.431
Mof_O 	O 	0.0524	0.2432	0.683	-0.429
Mof_O 	O 	0.5524	0.7432	0.683	-0.409
Mof_O 	O 	0.5524	0.2432	0.183	-0.418
Mof_O 	O 	0.9476	0.7432	0.817	-0.372
Mof_O 	O 	0.9476	0.2432	0.317	-0.381
Mof_O 	O 	0.4476	0.7432	0.317	-0.409
Mof_O 	O 	0.4476	0.2432	0.817	-0.407
Mof_O 	O 	0.9476	0.2568	0.183	-0.386
Mof_O 	O 	0.9476	0.7568	0.683	-0.377
Mof_O 	O 	0.4476	0.2568	0.683	-0.413
Mof_O 	O 	0.4476	0.7568	0.183	-0.415
Mof_O 	O 	0.0524	0.2568	0.817	-0.425
Mof_O 	O 	0.0524	0.7568	0.317	-0.427
Mof_O 	O 	0.5524	0.2568	0.317	-0.414
Mof_O 	O 	0.5524	0.7568	0.817	-0.404
Mof_O 	O 	0.7432	0.817	0.9476	-0.372
Mof_O 	O 	0.7432	0.317	0.4476	-0.409
Mof_O 	O 	0.2432	0.817	0.4476	-0.407
Mof_O 	O 	0.2432	0.317	0.9476	-0.381
Mof_O 	O 	0.7432	0.183	0.0524	-0.431
Mof_O 	O 	0.7432	0.683	0.5524	-0.409
Mof_O 	O 	0.2432	0.183	0.5524	-0.418
Mof_O 	O 	0.2432	0.683	0.0524	-0.429
Mof_O 	O 	0.2568	0.817	0.0524	-0.425
Mof_O 	O 	0.2568	0.317	0.5524	-0.414
Mof_O 	O 	0.7568	0.817	0.5524	-0.404
Mof_O 	O 	0.7568	0.317	0.0524	-0.427
Mof_O 	O 	0.2568	0.183	0.9476	-0.386
Mof_O 	O 	0.2568	0.683	0.4476	-0.413
Mof_O 	O 	0.7568	0.183	0.4476	-0.415
Mof_O 	O 	0.7568	0.683	0.9476	-0.377
Mof_Cu	Cu	8.05671e-34	0.21488	0.21488	0.875
Mof_Cu	Cu	-8.50747e-33	0.71488	0.71488	0.878
Mof_Cu	Cu	0.5	0.21488	0.71488	0.906
Mof_Cu	Cu	0.5	0.71488	0.21488	0.906
Mof_Cu	Cu	-4.78825e-33	0.78512	0.21488	0.878
Mof_Cu	Cu	-8.50747e-33	0.28512	0.71488	0.878
Mof_Cu	Cu	0.5	0.78512	0.71488	0.909
Mof_Cu	Cu	0.5	0.28512	0.21488	0.906
Mof_Cu	Cu	-2.65019e-33	0.21488	0.78512	0.878
Mof_Cu	Cu	-1.01188e-32	0.71488	0.28512	0.878
Mof_Cu	Cu	0.5	0.21488	0.28512	0.906
Mof_Cu	Cu	0.5	0.71488	0.78512	0.909
Mof_Cu	Cu	-8.24411e-33	0.78512	0.78512	0.881
Mof_Cu	Cu	-4.52489e-33	0.28512	0.28512	0.878
Mof_Cu	Cu	0.5	0.78512	0.28512	0.909
Mof_Cu	Cu	0.5	0.28512	0.78512	0.909
Mof_Cu	Cu	0.21488	0	0.21488	0.875
Mof_Cu	Cu	0.21488	0.5	0.71488	0.906
Mof_Cu	Cu	0.71488	-5.59392e-33	0.71488	0.878
Mof_Cu	Cu	0.71488	0.5	0.21488	0.906
Mof_Cu	Cu	0.21488	-5.59392e-33	0.78512	0.878
Mof_Cu	Cu	0.21488	0.5	0.28512	0.906
Mof_Cu	Cu	0.71488	-2.79696e-33	0.28512	0.878
Mof_Cu	Cu	0.71488	0.5	0.78512	0.909
Mof_Cu	Cu	0.78512	0	0.21488	0.878
Mof_Cu	Cu	0.78512	0.5	0.71488	0.909
Mof_Cu	Cu	0.28512	-5.59392e-33	0.71488	0.878
Mof_Cu	Cu	0.28512	0.5	0.21488	0.906
Mof_Cu	Cu	0.78512	-5.59392e-33	0.78512	0.881
Mof_Cu	Cu	0.78512	0.5	0.28512	0.909
Mof_Cu	Cu	0.28512	-2.79696e-33	0.28512	0.878
Mof_Cu	Cu	0.28512	0.5	0.78512	0.909
Mof_Cu	Cu	0.21488	0.21488	-0	0.875
Mof_Cu	Cu	0.21488	0.71488	0.5	0.906
Mof_Cu	Cu	0.71488	0.21488	0.5	0.906
Mof_Cu	Cu	0.71488	0.71488	-0	0.878
Mof_Cu	Cu	0.78512	0.21488	-0	0.878
Mof_Cu	Cu	0.78512	0.71488	0.5	0.909
Mof_Cu	Cu	0.28512	0.21488	0.5	0.906
Mof_Cu	Cu	0.28512	0.71488	-0	0.878
Mof_Cu	Cu	0.21488	0.78512	-0	0.878
Mof_Cu	Cu	0.21488	0.28512	0.5	0.906
Mof_Cu	Cu	0.71488	0.78512	0.5	0.909
Mof_Cu	Cu	0.71488	0.28512	-0	0.878
Mof_Cu	Cu	0.78512	0.78512	-0	0.881
Mof_Cu	Cu	0.78512	0.28512	0.5	0.909
Mof_Cu	Cu	0.28512	0.78512	0.5	0.909
Mof_Cu	Cu	0.28512	0.28512	-0	0.878
Mof_C 	C 	0.867	0.1992	0.367	0.054
Mof_H 	H 	0.8809	0.2286	0.3809	0.053
Mof_C 	C 	0.867	0.6992	0.867	0.044
Mof_H 	H 	0.8809	0.7286	0.8809	0.065
Mof_C 	C 	0.367	0.6992	0.367	0.056
Mof_H 	H 	0.3809	0.7286	0.3809	0.048
Mof_C 	C 	0.133	0.8008	0.367	0.056
Mof_H 	H 	0.1191	0.7714	0.3809	0.042
Mof_C 	C 	0.133	0.3008	0.867	0.055
Mof_H 	H 	0.1191	0.2714	0.8809	0.046
Mof_C 	C 	0.133	0.1992	0.633	0.061
Mof_H 	H 	0.1191	0.2286	0.6191	0.038
Mof_C 	C 	0.133	0.6992	0.133	0.061
Mof_H 	H 	0.1191	0.7286	0.1191	0.035
Mof_C 	C 	0.867	0.8008	0.633	0.046
Mof_H 	H 	0.8809	0.7714	0.6191	0.058
Mof_C 	C 	0.867	0.3008	0.133	0.055
Mof_H 	H 	0.8809	0.2714	0.1191	0.046
Mof_C 	C 	0.367	0.8008	0.133	0.056
Mof_H 	H 	0.3809	0.7714	0.1191	0.042
Mof_C 	C 	0.367	0.867	0.1992	0.054
Mof_H 	H 	0.3809	0.8809	0.2286	0.053
Mof_C 	C 	0.367	0.367	0.6992	0.056
Mof_H 	H 	0.3809	0.3809	0.7286	0.048
Mof_C 	C 	0.367	0.133	0.8008	0.056
Mof_H 	H 	0.3809	0.1191	0.7714	0.042
Mof_C 	C 	0.367	0.633	0.3008	0.057
Mof_H 	H 	0.3809	0.6191	0.2714	0.045
Mof_C 	C 	0.633	0.133	0.1992	0.061
Mof_H 	H 	0.6191	0.1191	0.2286	0.038
Mof_C 	C 	0.633	0.633	0.6992	0.053
Mof_H 	H 	0.6191	0.6191	0.7286	0.049
Mof_C 	C 	0.133	0.133	0.6992	0.061
Mof_H 	H 	0.1191	0.1191	0.7286	0.035
Mof_C 	C 	0.633	0.867	0.8008	0.046
Mof_H 	H 	0.6191	0.8809	0.7714	0.058
Mof_C 	C 	0.633	0.367	0.3008	0.057
Mof_H 	H 	0.6191	0.3809	0.2714	0.045
Mof_C 	C 	0.133	0.367	0.8008	0.056
Mof_H 	H 	0.1191	0.3809	0.7714	0.042
Mof_C 	C 	0.1992	0.367	0.867	0.054
Mof_H 	H 	0.2286	0.3809	0.8809	0.053
Mof_C 	C 	0.6992	0.367	0.367	0.056
Mof_H 	H 	0.7286	0.3809	0.3809	0.048
Mof_C 	C 	0.8008	0.367	0.133	0.056
Mof_H 	H 	0.7714	0.3809	0.1191	0.042
Mof_C 	C 	0.3008	0.367	0.633	0.057
Mof_H 	H 	0.2714	0.3809	0.6191	0.045
Mof_C 	C 	0.1992	0.633	0.133	0.061
Mof_H 	H 	0.2286	0.6191	0.1191	0.038
Mof_C 	C 	0.6992	0.633	0.633	0.053
Mof_H 	H 	0.7286	0.6191	0.6191	0.049
Mof_C 	C 	0.6992	0.133	0.133	0.061
Mof_H 	H 	0.7286	0.1191	0.1191	0.035
Mof_C 	C 	0.8008	0.633	0.867	0.046
Mof_H 	H 	0.7714	0.6191	0.8809	0.058
Mof_C 	C 	0.8008	0.133	0.367	0.056
Mof_H 	H 	0.7714	0.1191	0.3809	0.042
Mof_C 	C 	0.3008	0.633	0.367	0.057
Mof_H 	H 	0.2714	0.6191	0.3809	0.045
Mof_C 	C 	0.1992	0.867	0.633	0.052
Mof_H 	H 	0.2286	0.8809	0.6191	0.053
Mof_C 	C 	0.1992	0.367	0.133	0.062
Mof_H 	H 	0.2286	0.3809	0.1191	0.037
Mof_C 	C 	0.6992	0.867	0.133	0.053
Mof_H 	H 	0.7286	0.8809	0.1191	0.05
Mof_C 	C 	0.8008	0.133	0.633	0.055
Mof_H 	H 	0.7714	0.1191	0.6191	0.042
Mof_C 	C 	0.3008	0.133	0.133	0.063
Mof_H 	H 	0.2714	0.1191	0.1191	0.031
Mof_C 	C 	0.1992	0.133	0.367	0.062
Mof_H 	H 	0.2286	0.1191	0.3809	0.037
Mof_C 	C 	0.6992	0.133	0.867	0.053
Mof_H 	H 	0.7286	0.1191	0.8809	0.05
Mof_C 	C 	0.8008	0.867	0.367	0.048
Mof_H 	H 	0.7714	0.8809	0.3809	0.057
Mof_C 	C 	0.3008	0.867	0.867	0.047
Mof_H 	H 	0.2714	0.8809	0.8809	0.061
Mof_C 	C 	0.3008	0.367	0.367	0.058
Mof_H 	H 	0.2714	0.3809	0.3809	0.044
Mof_C 	C 	0.867	0.367	0.8008	0.048
Mof_H 	H 	0.8809	0.3809	0.7714	0.057
Mof_C 	C 	0.867	0.867	0.3008	0.047
Mof_H 	H 	0.8809	0.8809	0.2714	0.061
Mof_C 	C 	0.367	0.367	0.3008	0.058
Mof_H 	H 	0.3809	0.3809	0.2714	0.044
Mof_C 	C 	0.133	0.367	0.1992	0.062
Mof_H 	H 	0.1191	0.3809	0.2286	0.037
Mof_C 	C 	0.133	0.867	0.6992	0.053
Mof_H 	H 	0.1191	0.8809	0.7286	0.05
Mof_C 	C 	0.133	0.633	0.8008	0.055
Mof_H 	H 	0.1191	0.6191	0.7714	0.042
Mof_C 	C 	0.133	0.133	0.3008	0.063
Mof_H 	H 	0.1191	0.1191	0.2714	0.031
Mof_C 	C 	0.867	0.633	0.1992	0.052
Mof_H 	H 	0.8809	0.6191	0.2286	0.053
Mof_C 	C 	0.867	0.133	0.6992	0.053
Mof_H 	H 	0.8809	0.1191	0.7286	0.05
Mof_C 	C 	0.367	0.133	0.1992	0.062
Mof_H 	H 	0.3809	0.1191	0.2286	0.037
Mof_C 	C 	0.367	0.1992	0.133	0.062
Mof_H 	H 	0.3809	0.2286	0.1191	0.037
Mof_C 	C 	0.367	0.6992	0.633	0.054
Mof_H 	H 	0.3809	0.7286	0.6191	0.049
Mof_C 	C 	0.367	0.8008	0.867	0.048
Mof_H 	H 	0.3809	0.7714	0.8809	0.057
Mof_C 	C 	0.367	0.3008	0.367	0.058
Mof_H 	H 	0.3809	0.2714	0.3809	0.044
Mof_C 	C 	0.633	0.1992	0.867	0.052
Mof_H 	H 	0.6191	0.2286	0.8809	0.053
Mof_C 	C 	0.633	0.6992	0.367	0.054
Mof_H 	H 	0.6191	0.7286	0.3809	0.049
Mof_C 	C 	0.133	0.1992	0.367	0.062
Mof_H 	H 	0.1191	0.2286	0.3809	0.037
Mof_C 	C 	0.633	0.8008	0.133	0.055
Mof_H 	H 	0.6191	0.7714	0.1191	0.042
Mof_C 	C 	0.633	0.3008	0.633	0.055
Mof_H 	H 	0.6191	0.2714	0.6191	0.045
Mof_C 	C 	0.133	0.3008	0.133	0.063
Mof_H 	H 	0.1191	0.2714	0.1191	0.031
Mof_C 	C 	0.133	0.8008	0.633	0.055
Mof_H 	H 	0.1191	0.7714	0.6191	0.042
Mof_C 	C 	0.867	0.1992	0.633	0.052
Mof_H 	H 	0.8809	0.2286	0.6191	0.053
Mof_C 	C 	0.867	0.6992	0.133	0.053
Mof_H 	H 	0.8809	0.7286	0.1191	0.05
Mof_C 	C 	0.867	0.8008	0.367	0.048
Mof_H 	H 	0.8809	0.7714	0.3809	0.057
Mof_C 	C 	0.867	0.3008	0.867	0.047
Mof_H 	H 	0.8809	0.2714	0.8809	0.061
Mof_C 	C 	0.133	0.6992	0.867	0.053
Mof_H 	H 	0.1191	0.7286	0.8809	0.05
Mof_C 	C 	0.633	0.133	0.8008	0.055
Mof_H 	H 	0.6191	0.1191	0.7714	0.042
Mof_C 	C 	0.633	0.633	0.3008	0.055
Mof_H 	H 	0.6191	0.6191	0.2714	0.045
Mof_C 	C 	0.633	0.867	0.1992	0.052
Mof_H 	H 	0.6191	0.8809	0.2286	0.053
Mof_C 	C 	0.633	0.367	0.6992	0.054
Mof_H 	H 	0.6191	0.3809	0.7286	0.049
Mof_C 	C 	0.367	0.867	0.8008	0.048
Mof_H 	H 	0.3809	0.8809	0.7714	0.057
Mof_C 	C 	0.367	0.633	0.6992	0.054
Mof_H 	H 	0.3809	0.6191	0.7286	0.049
Mof_C 	C 	0.8008	0.633	0.133	0.055
Mof_H 	H 	0.7714	0.6191	0.1191	0.042
Mof_C 	C 	0.3008	0.633	0.633	0.055
Mof_H 	H 	0.2714	0.6191	0.6191	0.045
Mof_C 	C 	0.1992	0.633	0.867	0.052
Mof_H 	H 	0.2286	0.6191	0.8809	0.053
Mof_C 	C 	0.6992	0.633	0.367	0.054
Mof_H 	H 	0.7286	0.6191	0.3809	0.049
Mof_C 	C 	0.8008	0.367	0.867	0.048
Mof_H 	H 	0.7714	0.3809	0.8809	0.057
Mof_C 	C 	0.6992	0.367	0.633	0.054
Mof_H 	H 	0.7286	0.3809	0.6191	0.049
Mof_C 	C 	0.3008	0.133	0.867	0.055
Mof_H 	H 	0.2714	0.1191	0.8809	0.046
Mof_C 	C 	0.1992	0.867	0.367	0.054
Mof_H 	H 	0.2286	0.8809	0.3809	0.053
Mof_C 	C 	0.6992	0.867	0.867	0.044
Mof_H 	H 	0.7286	0.8809	0.8809	0.065
Mof_C 	C 	0.8008	0.867	0.633	0.046
Mof_H 	H 	0.7714	0.8809	0.6191	0.058
Mof_C 	C 	0.3008	0.867	0.133	0.055
Mof_H 	H 	0.2714	0.8809	0.1191	0.046
Mof_C 	C 	0.1992	0.133	0.633	0.061
Mof_H 	H 	0.2286	0.1191	0.6191	0.038
Mof_C 	C 	0.133	0.633	0.1992	0.061
Mof_H 	H 	0.1191	0.6191	0.2286	0.038
Mof_C 	C 	0.867	0.633	0.8008	0.046
Mof_H 	H 	0.8809	0.6191	0.7714	0.058
Mof_C 	C 	0.867	0.133	0.3008	0.055
Mof_H 	H 	0.8809	0.1191	0.2714	0.046
Mof_C 	C 	0.867	0.367	0.1992	0.054
Mof_H 	H 	0.8809	0.3809	0.2286	0.053
Mof_C 	C 	0.867	0.867	0.6992	0.044
Mof_H 	H 	0.8809	0.8809	0.7286	0.065
Mof_C 	C 	0.133	0.867	0.3008	0.055
Mof_H 	H 	0.1191	0.8809	0.2714	0.046
Mof_C 	C 	0.633	0.8008	0.867	0.046
Mof_H 	H 	0.6191	0.7714	0.8809	0.058
Mof_C 	C 	0.633	0.3008	0.367	0.057
Mof_H 	H 	0.6191	0.2714	0.3809	0.045
Mof_C 	C 	0.633	0.1992	0.133	0.061
Mof_H 	H 	0.6191	0.2286	0.1191	0.038
Mof_C 	C 	0.633	0.6992	0.633	0.053
Mof_H 	H 	0.6191	0.7286	0.6191	0.049
Mof_C 	C 	0.367	0.3008	0.633	0.057
Mof_H 	H 	0.3809	0.2714	0.6191	0.045
Mof_C 	C 	0.367	0.1992	0.867	0.054
Mof_H 	H 	0.3809	0.2286	0.8809	0.053
Mof_C 	C 	0.8891	0.1766	0.3234	-0.106
Mof_C 	C 	0.9325	0.2024	0.2976	0.374
Mof_C 	C 	0.3891	0.1766	0.8234	-0.112
Mof_C 	C 	0.4325	0.2024	0.7976	0.379
Mof_C 	C 	0.1109	0.8234	0.3234	-0.116
Mof_C 	C 	0.0675	0.7976	0.2976	0.379
Mof_C 	C 	0.6109	0.8234	0.8234	-0.097
Mof_C 	C 	0.5675	0.7976	0.7976	0.376
Mof_C 	C 	0.6109	0.3234	0.3234	-0.114
Mof_C 	C 	0.5675	0.2976	0.2976	0.38
Mof_C 	C 	0.1109	0.1766	0.6766	-0.128
Mof_C 	C 	0.0675	0.2024	0.7024	0.38
Mof_C 	C 	0.6109	0.1766	0.1766	-0.124
Mof_C 	C 	0.5675	0.2024	0.2024	0.381
Mof_C 	C 	0.8891	0.8234	0.6766	-0.09
Mof_C 	C 	0.9325	0.7976	0.7024	0.37
Mof_C 	C 	0.8891	0.3234	0.1766	-0.106
Mof_C 	C 	0.9325	0.2976	0.2024	0.374
Mof_C 	C 	0.3891	0.8234	0.1766	-0.112
Mof_C 	C 	0.4325	0.7976	0.2024	0.379
Mof_C 	C 	0.3234	0.8891	0.1766	-0.106
Mof_C 	C 	0.2976	0.9325	0.2024	0.374
Mof_C 	C 	0.3234	0.3891	0.6766	-0.113
Mof_C 	C 	0.2976	0.4325	0.7024	0.379
Mof_C 	C 	0.3234	0.1109	0.8234	-0.116
Mof_C 	C 	0.2976	0.0675	0.7976	0.379
Mof_C 	C 	0.3234	0.6109	0.3234	-0.114
Mof_C 	C 	0.2976	0.5675	0.2976	0.38
Mof_C 	C 	0.6766	0.1109	0.1766	-0.128
Mof_C 	C 	0.7024	0.0675	0.2024	0.38
Mof_C 	C 	0.6766	0.6109	0.6766	-0.109
Mof_C 	C 	0.7024	0.5675	0.7024	0.377
Mof_C 	C 	0.1766	0.6109	0.1766	-0.124
Mof_C 	C 	0.2024	0.5675	0.2024	0.381
Mof_C 	C 	0.6766	0.8891	0.8234	-0.09
Mof_C 	C 	0.7024	0.9325	0.7976	0.37
Mof_C 	C 	0.6766	0.3891	0.3234	-0.113
Mof_C 	C 	0.7024	0.4325	0.2976	0.379
Mof_C 	C 	0.1766	0.8891	0.3234	-0.106
Mof_C 	C 	0.2024	0.9325	0.2976	0.374
Mof_C 	C 	0.1766	0.3234	0.8891	-0.106
Mof_C 	C 	0.2024	0.2976	0.9325	0.374
Mof_C 	C 	0.1766	0.8234	0.3891	-0.112
Mof_C 	C 	0.2024	0.7976	0.4325	0.379
Mof_C 	C 	0.8234	0.3234	0.1109	-0.116
Mof_C 	C 	0.7976	0.2976	0.0675	0.379
Mof_C 	C 	0.8234	0.8234	0.6109	-0.097
Mof_C 	C 	0.7976	0.7976	0.5675	0.376
Mof_C 	C 	0.3234	0.3234	0.6109	-0.114
Mof_C 	C 	0.2976	0.2976	0.5675	0.38
Mof_C 	C 	0.1766	0.6766	0.1109	-0.128
Mof_C 	C 	0.2024	0.7024	0.0675	0.38
Mof_C 	C 	0.1766	0.1766	0.6109	-0.124
Mof_C 	C 	0.2024	0.2024	0.5675	0.381
Mof_C 	C 	0.8234	0.6766	0.8891	-0.09
Mof_C 	C 	0.7976	0.7024	0.9325	0.37
Mof_C 	C 	0.8234	0.1766	0.3891	-0.112
Mof_C 	C 	0.7976	0.2024	0.4325	0.379
Mof_C 	C 	0.3234	0.1766	0.8891	-0.106
Mof_C 	C 	0.2976	0.2024	0.9325	0.374
Mof_C 	C 	0.1766	0.8891	0.6766	-0.104
Mof_C 	C 	0.2024	0.9325	0.7024	0.373
Mof_C 	C 	0.1766	0.3891	0.1766	-0.125
Mof_C 	C 	0.2024	0.4325	0.2024	0.382
Mof_C 	C 	0.8234	0.1109	0.6766	-0.114
Mof_C 	C 	0.7976	0.0675	0.7024	0.377
Mof_C 	C 	0.8234	0.6109	0.1766	-0.111
Mof_C 	C 	0.7976	0.5675	0.2024	0.378
Mof_C 	C 	0.3234	0.1109	0.1766	-0.13
Mof_C 	C 	0.2976	0.0675	0.2024	0.382
Mof_C 	C 	0.1766	0.1109	0.3234	-0.13
Mof_C 	C 	0.2024	0.0675	0.2976	0.382
Mof_C 	C 	0.1766	0.6109	0.8234	-0.111
Mof_C 	C 	0.2024	0.5675	0.7976	0.378
Mof_C 	C 	0.8234	0.8891	0.3234	-0.092
Mof_C 	C 	0.7976	0.9325	0.2976	0.372
Mof_C 	C 	0.8234	0.3891	0.8234	-0.098
Mof_C 	C 	0.7976	0.4325	0.7976	0.376
Mof_C 	C 	0.3234	0.3891	0.3234	-0.115
Mof_C 	C 	0.2976	0.4325	0.2976	0.381
Mof_C 	C 	0.8891	0.3234	0.8234	-0.092
Mof_C 	C 	0.9325	0.2976	0.7976	0.372
Mof_C 	C 	0.3891	0.3234	0.3234	-0.115
Mof_C 	C 	0.4325	0.2976	0.2976	0.381
Mof_C 	C 	0.1109	0.3234	0.1766	-0.13
Mof_C 	C 	0.0675	0.2976	0.2024	0.382
Mof_C 	C 	0.6109	0.3234	0.6766	-0.112
Mof_C 	C 	0.5675	0.2976	0.7024	0.379
Mof_C 	C 	0.1109	0.6766	0.8234	-0.114
Mof_C 	C 	0.0675	0.7024	0.7976	0.377
Mof_C 	C 	0.1109	0.1766	0.3234	-0.13
Mof_C 	C 	0.0675	0.2024	0.2976	0.382
Mof_C 	C 	0.6109	0.6766	0.3234	-0.112
Mof_C 	C 	0.5675	0.7024	0.2976	0.379
Mof_C 	C 	0.8891	0.6766	0.1766	-0.104
Mof_C 	C 	0.9325	0.7024	0.2024	0.373
Mof_C 	C 	0.3891	0.6766	0.6766	-0.11
Mof_C 	C 	0.4325	0.7024	0.7024	0.377
Mof_C 	C 	0.3891	0.1766	0.1766	-0.125
Mof_C 	C 	0.4325	0.2024	0.2024	0.382
Mof_C 	C 	0.3234	0.1766	0.1109	-0.13
Mof_C 	C 	0.2976	0.2024	0.0675	0.382
Mof_C 	C 	0.3234	0.6766	0.6109	-0.112
Mof_C 	C 	0.2976	0.7024	0.5675	0.379
Mof_C 	C 	0.3234	0.8234	0.8891	-0.092
Mof_C 	C 	0.2976	0.7976	0.9325	0.372
Mof_C 	C 	0.3234	0.3234	0.3891	-0.115
Mof_C 	C 	0.2976	0.2976	0.4325	0.381
Mof_C 	C 	0.6766	0.1766	0.8891	-0.104
Mof_C 	C 	0.7024	0.2024	0.9325	0.373
Mof_C 	C 	0.6766	0.6766	0.3891	-0.11
Mof_C 	C 	0.7024	0.7024	0.4325	0.377
Mof_C 	C 	0.1766	0.1766	0.3891	-0.125
Mof_C 	C 	0.2024	0.2024	0.4325	0.382
Mof_C 	C 	0.6766	0.8234	0.1109	-0.114
Mof_C 	C 	0.7024	0.7976	0.0675	0.377
Mof_C 	C 	0.6766	0.3234	0.6109	-0.112
Mof_C 	C 	0.7024	0.2976	0.5675	0.379
Mof_C 	C 	0.1766	0.3234	0.1109	-0.13
Mof_C 	C 	0.2024	0.2976	0.0675	0.382
Mof_C 	C 	0.1109	0.8234	0.6766	-0.114
Mof_C 	C 	0.0675	0.7976	0.7024	0.377
Mof_C 	C 	0.6109	0.8234	0.1766	-0.111
Mof_C 	C 	0.5675	0.7976	0.2024	0.378
Mof_C 	C 	0.8891	0.1766	0.6766	-0.104
Mof_C 	C 	0.9325	0.2024	0.7024	0.373
Mof_C 	C 	0.8891	0.8234	0.3234	-0.092
Mof_C 	C 	0.9325	0.7976	0.2976	0.372
Mof_C 	C 	0.3891	0.8234	0.8234	-0.098
Mof_C 	C 	0.4325	0.7976	0.7976	0.376
Mof_C 	C 	0.6109	0.1766	0.8234	-0.111
Mof_C 	C 	0.5675	0.2024	0.7976	0.378
Mof_C 	C 	0.6766	0.1109	0.8234	-0.114
Mof_C 	C 	0.7024	0.0675	0.7976	0.377
Mof_C 	C 	0.6766	0.6109	0.3234	-0.112
Mof_C 	C 	0.7024	0.5675	0.2976	0.379
Mof_C 	C 	0.6766	0.8891	0.1766	-0.104
Mof_C 	C 	0.7024	0.9325	0.2024	0.373
Mof_C 	C 	0.6766	0.3891	0.6766	-0.11
Mof_C 	C 	0.7024	0.4325	0.7024	0.377
Mof_C 	C 	0.3234	0.8891	0.8234	-0.092
Mof_C 	C 	0.2976	0.9325	0.7976	0.372
Mof_C 	C 	0.3234	0.6109	0.6766	-0.112
Mof_C 	C 	0.2976	0.5675	0.7024	0.379
Mof_C 	C 	0.8234	0.6766	0.1109	-0.114
Mof_C 	C 	0.7976	0.7024	0.0675	0.377
Mof_C 	C 	0.8234	0.1766	0.6109	-0.111
Mof_C 	C 	0.7976	0.2024	0.5675	0.378
Mof_C 	C 	0.1766	0.6766	0.8891	-0.104
Mof_C 	C 	0.2024	0.7024	0.9325	0.373
Mof_C 	C 	0.8234	0.3234	0.8891	-0.092
Mof_C 	C 	0.7976	0.2976	0.9325	0.372
Mof_C 	C 	0.8234	0.8234	0.3891	-0.098
Mof_C 	C 	0.7976	0.7976	0.4325	0.376
Mof_C 	C 	0.1766	0.8234	0.6109	-0.111
Mof_C 	C 	0.2024	0.7976	0.5675	0.378
Mof_C 	C 	0.8234	0.1109	0.3234	-0.116
Mof_C 	C 	0.7976	0.0675	0.2976	0.379
Mof_C 	C 	0.8234	0.6109	0.8234	-0.097
Mof_C 	C 	0.7976	0.5675	0.7976	0.376
Mof_C 	C 	0.1766	0.3891	0.8234	-0.112
Mof_C 	C 	0.2024	0.4325	0.7976	0.379
Mof_C 	C 	0.8234	0.8891	0.6766	-0.09
Mof_C 	C 	0.7976	0.9325	0.7024	0.37
Mof_C 	C 	0.8234	0.3891	0.1766	-0.112
Mof_C 	C 	0.7976	0.4325	0.2024	0.379
Mof_C 	C 	0.1766	0.1109	0.6766	-0.128
Mof_C 	C 	0.2024	0.0675	0.7024	0.38
Mof_C 	C 	0.1109	0.6766	0.1766	-0.128
Mof_C 	C 	0.0675	0.7024	0.2024	0.38
Mof_C 	C 	0.6109	0.6766	0.6766	-0.109
Mof_C 	C 	0.5675	0.7024	0.7024	0.377
Mof_C 	C 	0.8891	0.6766	0.8234	-0.09
Mof_C 	C 	0.9325	0.7024	0.7976	0.37
Mof_C 	C 	0.3891	0.6766	0.3234	-0.113
Mof_C 	C 	0.4325	0.7024	0.2976	0.379
Mof_C 	C 	0.3891	0.3234	0.6766	-0.113
Mof_C 	C 	0.4325	0.2976	0.7024	0.379
Mof_C 	C 	0.1109	0.3234	0.8234	-0.116
Mof_C 	C 	0.0675	0.2976	0.7976	0.379
Mof_C 	C 	0.6766	0.8234	0.8891	-0.09
Mof_C 	C 	0.7024	0.7976	0.9325	0.37
Mof_C 	C 	0.6766	0.3234	0.3891	-0.113
Mof_C 	C 	0.7024	0.2976	0.4325	0.379
Mof_C 	C 	0.6766	0.1766	0.1109	-0.128
Mof_C 	C 	0.7024	0.2024	0.0675	0.38
Mof_C 	C 	0.6766	0.6766	0.6109	-0.109
Mof_C 	C 	0.7024	0.7024	0.5675	0.377
Mof_C 	C 	0.3234	0.8234	0.1109	-0.116
Mof_C 	C 	0.2976	0.7976	0.0675	0.379
Mof_C 	C 	0.3234	0.6766	0.3891	-0.113
Mof_C 	C 	0.2976	0.7024	0.4325	0.379
_end
