data_functionalizedCrystal
_audit_creation_method	'EQeq! by Chris Wilmer'
_symmetry_space_group_name_H-M	'P1'
_symmetry_Int_Tables_number	1
_symmetry_cell_setting	triclinic
loop_
_symmetry_equiv_pos_as_xyz
  x,y,z
_cell_length_a	6.6916
_cell_length_b	18.581
_cell_length_c	8.491
_cell_angle_alpha	90
_cell_angle_beta	90
_cell_angle_gamma	90
loop_
_atom_site_label
_atom_site_type_symbol
_atom_site_fract_x
_atom_site_fract_y
_atom_site_fract_z
_atom_site_charge
Mof_O 	O 	0.485	0.45009	0.0677	-0.523
Mof_O 	O 	0.3225	0.31801	0.0156	-0.518
Mof_O 	O 	0.163	0.4062	0.2735	-0.426
Mof_O 	O 	0.1816	0.24351	0.8459	-0.524
Mof_C 	C 	0.2675	0.2576	0.9725	0.659
Mof_H 	H 	0.2923	0.2193	0.0404	-0.215
Mof_O 	O 	0.985	0.95009	0.0677	-0.117
Mof_O 	O 	0.8225	0.81801	0.0156	-0.422
Mof_O 	O 	0.663	0.9062	0.2735	-0.37
Mof_O 	O 	0.6816	0.74351	0.8459	-0.486
Mof_C 	C 	0.7675	0.7576	0.9725	0.656
Mof_H 	H 	0.7923	0.7193	0.0404	-0.168
Mof_O 	O 	0.515	0.54991	0.5677	-0.518
Mof_O 	O 	0.6775	0.68199	0.5156	-0.444
Mof_O 	O 	0.837	0.5938	0.7735	-0.296
Mof_O 	O 	0.8184	0.75649	0.3459	-0.398
Mof_C 	C 	0.7325	0.7424	0.4725	0.585
Mof_H 	H 	0.7077	0.7807	0.5404	-0.136
Mof_O 	O 	0.015	0.04991	0.5677	-0.701
Mof_O 	O 	0.1775	0.18199	0.5156	-0.472
Mof_O 	O 	0.337	0.0938	0.7735	-0.437
Mof_O 	O 	0.3184	0.25649	0.3459	-0.512
Mof_C 	C 	0.2325	0.2424	0.4725	0.596
Mof_H 	H 	0.2077	0.2807	0.5404	-0.188
Mof_O 	O 	0.515	0.45009	0.4323	-0.517
Mof_O 	O 	0.6775	0.31801	0.4844	-0.444
Mof_O 	O 	0.837	0.4062	0.2265	-0.302
Mof_O 	O 	0.8184	0.24351	0.6541	-0.399
Mof_C 	C 	0.7325	0.2576	0.5275	0.588
Mof_H 	H 	0.7077	0.2193	0.4596	-0.143
Mof_O 	O 	0.015	0.95009	0.4323	-0.651
Mof_O 	O 	0.1775	0.81801	0.4844	-0.464
Mof_O 	O 	0.337	0.9062	0.2265	-0.418
Mof_O 	O 	0.3184	0.74351	0.6541	-0.507
Mof_C 	C 	0.2325	0.7576	0.5275	0.596
Mof_H 	H 	0.2077	0.7193	0.4596	-0.19
Mof_O 	O 	0.485	0.54991	0.9323	-0.509
Mof_O 	O 	0.3225	0.68199	0.9844	-0.462
Mof_O 	O 	0.163	0.5938	0.7265	-0.424
Mof_O 	O 	0.1816	0.75649	0.1541	-0.495
Mof_C 	C 	0.2675	0.7424	0.0275	0.535
Mof_H 	H 	0.2923	0.7807	0.9596	-0.149
Mof_O 	O 	0.985	0.04991	0.9323	-0.156
Mof_O 	O 	0.8225	0.18199	0.9844	-0.375
Mof_O 	O 	0.663	0.0938	0.7265	-0.393
Mof_O 	O 	0.6816	0.25649	0.1541	-0.463
Mof_C 	C 	0.7675	0.2424	0.0275	0.535
Mof_H 	H 	0.7923	0.2807	0.9596	-0.107
Mof_Gd	Gd	0.5	0.3573	0.25	2.103
Mof_Gd	Gd	-7.77711e-33	0.8573	0.25	1.741
Mof_Gd	Gd	0.5	0.6427	0.75	2.108
Mof_Gd	Gd	-2.03425e-32	0.1427	0.75	1.74
Mof_C 	C 	-7.77711e-33	0.3757	0.25	0.349
Mof_H 	H 	-7.77711e-33	0.3256	0.25	-0.147
Mof_C 	C 	0.5	0.8757	0.25	0.553
Mof_H 	H 	0.5	0.8256	0.25	-0.154
Mof_C 	C 	-2.03425e-32	0.6243	0.75	0.348
Mof_H 	H 	-3.22978e-32	0.6744	0.75	-0.145
Mof_C 	C 	0.5	0.1243	0.75	0.556
Mof_H 	H 	0.5	0.1744	0.75	-0.154
Mof_C 	C 	0.5735	0.5	-0	0.668
Mof_H 	H 	0.711	0.5	-0	-0.156
Mof_C 	C 	0.0735	0	-0	-0.047
Mof_H 	H 	0.211	0	-0	0.038
Mof_C 	C 	0.4265	0.5	0.5	0.708
Mof_H 	H 	0.289	0.5	0.5	-0.206
Mof_C 	C 	0.9265	2.98884e-33	0.5	1.084
Mof_H 	H 	0.789	2.98884e-33	0.5	-0.298
_end
