data_functionalizedCrystal
_audit_creation_method	'EQeq! by Chris Wilmer'
_symmetry_space_group_name_H-M	'P1'
_symmetry_Int_Tables_number	1
_symmetry_cell_setting	triclinic
loop_
_symmetry_equiv_pos_as_xyz
  x,y,z
_cell_length_a	19.469
_cell_length_b	18.077
_cell_length_c	13.265
_cell_angle_alpha	90
_cell_angle_beta	131.213
_cell_angle_gamma	90
loop_
_atom_site_label
_atom_site_type_symbol
_atom_site_fract_x
_atom_site_fract_y
_atom_site_fract_z
_atom_site_charge
Mof_O 	O 	0.87631	0.96414	0.4334	-0.423
Mof_O 	O 	0.8467	0.0437	0.528	-0.337
Mof_O 	O 	0.6868	0.0555	0.4421	-0.419
Mof_H 	H 	0.7422	0.0614	0.4917	0.276
Mof_N 	N 	0.0666	0.91631	0.6433	-0.235
Mof_C 	C 	0.8233	0.9946	0.4421	0.385
Mof_C 	C 	0.6956	0.9238	0.2448	-0.036
Mof_H 	H 	0.7383	0.9019	0.2439	0.058
Mof_C 	C 	0.7235	0.9731	0.3411	-0.112
Mof_C 	C 	0.6593	0.0065	0.3441	0.116
Mof_C 	C 	0.5668	0.9892	0.2488	0.061
Mof_C 	C 	0.5374	0.9395	0.1466	-0.01
Mof_C 	C 	0.6024	0.9047	0.145	0.044
Mof_C 	C 	0.5722	0.8562	0.0422	-0.137
Mof_H 	H 	0.6146	0.8342	0.0404	0.078
Mof_C 	C 	0.4812	0.8399	0.9427	0.03
Mof_H 	H 	0.4623	0.8064	0.8755	0.03
Mof_C 	C 	0.4178	0.8737	0.9437	-0
Mof_H 	H 	0.3561	0.8626	0.8766	0.041
Mof_C 	C 	0.444	0.9225	0.0403	-0.098
Mof_H 	H 	0.3999	0.9454	0.0371	0.075
Mof_H 	H 	0.5354	0.0635	0.3281	0.136
Mof_C 	C 	0.0297	0.849	0.621	0.055
Mof_H 	H 	0.9732	0.839	0.5375	0.015
Mof_C 	C 	0.0724	0.7945	0.7167	-0.149
Mof_H 	H 	0.045	0.7483	0.6963	0.077
Mof_C 	C 	0.1555	0.8074	0.8426	0.1
Mof_C 	C 	0.193	0.8765	0.8642	-0.156
Mof_H 	H 	0.2495	0.8878	0.947	0.103
Mof_C 	C 	0.1476	0.9289	0.7642	0.095
Mof_H 	H 	0.1745	0.9751	0.7817	0.011
Mof_C 	C 	0.2015	0.7484	0.9481	-0.052
Mof_H 	H 	0.186	0.701	0.9036	0.052
Mof_H 	H 	0.1754	0.7495	0.99	0.058
Mof_O 	O 	0.37631	0.46414	0.4334	-0.437
Mof_O 	O 	0.3467	0.5437	0.528	-0.319
Mof_O 	O 	0.1868	0.5555	0.4421	-0.44
Mof_H 	H 	0.2422	0.5614	0.4917	0.286
Mof_N 	N 	0.5666	0.41631	0.6433	-0.249
Mof_C 	C 	0.3233	0.4946	0.4421	0.367
Mof_C 	C 	0.1956	0.4238	0.2448	-0.025
Mof_H 	H 	0.2383	0.4019	0.2439	0.05
Mof_C 	C 	0.2235	0.4731	0.3411	-0.163
Mof_C 	C 	0.1593	0.5065	0.3441	0.202
Mof_C 	C 	0.0668	0.4892	0.2488	-0.026
Mof_C 	C 	0.0374	0.4395	0.1466	-0.03
Mof_C 	C 	0.1024	0.4047	0.145	0.055
Mof_C 	C 	0.0722	0.3562	0.0422	-0.206
Mof_H 	H 	0.1146	0.3342	0.0404	0.093
Mof_C 	C 	0.9812	0.3399	0.9427	0.108
Mof_H 	H 	0.9623	0.3064	0.8755	0.007
Mof_C 	C 	0.9178	0.3737	0.9437	-0.061
Mof_H 	H 	0.8561	0.3626	0.8766	0.061
Mof_C 	C 	0.944	0.4225	0.0403	-0.042
Mof_H 	H 	0.8999	0.4454	0.0371	0.051
Mof_H 	H 	0.0354	0.5635	0.3281	0.109
Mof_C 	C 	0.5297	0.349	0.621	0.103
Mof_H 	H 	0.4732	0.339	0.5375	-0.016
Mof_C 	C 	0.5724	0.2945	0.7167	-0.178
Mof_H 	H 	0.545	0.2483	0.6963	0.093
Mof_C 	C 	0.6555	0.3074	0.8426	0.115
Mof_C 	C 	0.693	0.3765	0.8642	-0.17
Mof_H 	H 	0.7495	0.3878	0.947	0.105
Mof_C 	C 	0.6476	0.4289	0.7642	0.103
Mof_H 	H 	0.6745	0.4751	0.7817	-0.004
Mof_C 	C 	0.7015	0.2484	0.9481	-0.056
Mof_H 	H 	0.686	0.201	0.9036	0.053
Mof_H 	H 	0.6754	0.2495	0.99	0.06
Mof_O 	O 	0.12369	0.96414	0.0666	-0.431
Mof_O 	O 	0.1533	0.0437	0.972	-0.302
Mof_O 	O 	0.3132	0.0555	0.0579	-0.42
Mof_H 	H 	0.2578	0.0614	0.0083	0.255
Mof_N 	N 	0.9334	0.91631	0.8567	-0.244
Mof_C 	C 	0.1767	0.9946	0.0579	0.343
Mof_C 	C 	0.3044	0.9238	0.2552	-0.042
Mof_H 	H 	0.2617	0.9019	0.2561	0.059
Mof_C 	C 	0.2765	0.9731	0.1589	-0.099
Mof_C 	C 	0.3407	0.0065	0.1559	0.098
Mof_C 	C 	0.4332	0.9892	0.2512	0.073
Mof_C 	C 	0.4626	0.9395	0.3534	-0.026
Mof_C 	C 	0.3976	0.9047	0.355	0.044
Mof_C 	C 	0.4278	0.8562	0.4578	-0.091
Mof_H 	H 	0.3854	0.8342	0.4596	0.072
Mof_C 	C 	0.5188	0.8399	0.5573	-0.002
Mof_H 	H 	0.5377	0.8064	0.6245	0.037
Mof_C 	C 	0.5822	0.8737	0.5563	-0.056
Mof_H 	H 	0.6439	0.8626	0.6234	0.056
Mof_C 	C 	0.556	0.9225	0.4597	-0.032
Mof_H 	H 	0.6001	0.9454	0.4629	0.062
Mof_H 	H 	0.4646	0.0635	0.1719	0.131
Mof_C 	C 	0.9703	0.849	0.879	0.166
Mof_H 	H 	0.0268	0.839	0.9625	-0.033
Mof_C 	C 	0.9276	0.7945	0.7833	-0.231
Mof_H 	H 	0.955	0.7483	0.8037	0.12
Mof_C 	C 	0.8445	0.8074	0.6574	0.174
Mof_C 	C 	0.807	0.8765	0.6358	-0.209
Mof_H 	H 	0.7505	0.8878	0.553	0.109
Mof_C 	C 	0.8524	0.9289	0.7358	0.126
Mof_H 	H 	0.8255	0.9751	0.7183	-0.001
Mof_C 	C 	0.7985	0.7484	0.5519	-0.187
Mof_H 	H 	0.814	0.701	0.5964	0.085
Mof_H 	H 	0.8246	0.7495	0.51	0.086
Mof_O 	O 	0.62369	0.46414	0.0666	-0.441
Mof_O 	O 	0.6533	0.5437	0.972	-0.279
Mof_O 	O 	0.8132	0.5555	0.0579	-0.445
Mof_H 	H 	0.7578	0.5614	0.0083	0.273
Mof_N 	N 	0.4334	0.41631	0.8567	-0.247
Mof_C 	C 	0.6767	0.4946	0.0579	0.335
Mof_C 	C 	0.8044	0.4238	0.2552	0.056
Mof_H 	H 	0.7617	0.4019	0.2561	0.024
Mof_C 	C 	0.7765	0.4731	0.1589	-0.195
Mof_C 	C 	0.8407	0.5065	0.1559	0.222
Mof_C 	C 	0.9332	0.4892	0.2512	-0.055
Mof_C 	C 	0.9626	0.4395	0.3534	0.111
Mof_C 	C 	0.8976	0.4047	0.355	-0.081
Mof_C 	C 	0.9278	0.3562	0.4578	0.062
Mof_H 	H 	0.8854	0.3342	0.4596	0.02
Mof_C 	C 	0.0188	0.3399	0.5573	-0.172
Mof_H 	H 	0.0377	0.3064	0.6245	0.088
Mof_C 	C 	0.0822	0.3737	0.5563	0.09
Mof_H 	H 	0.1439	0.3626	0.6234	0.002
Mof_C 	C 	0.056	0.4225	0.4597	-0.192
Mof_H 	H 	0.1001	0.4454	0.4629	0.109
Mof_H 	H 	0.9646	0.5635	0.1719	0.125
Mof_C 	C 	0.4703	0.349	0.879	0.122
Mof_H 	H 	0.5268	0.339	0.9625	-0.007
Mof_C 	C 	0.4276	0.2945	0.7833	-0.209
Mof_H 	H 	0.455	0.2483	0.8037	0.107
Mof_C 	C 	0.3445	0.3074	0.6574	0.163
Mof_C 	C 	0.307	0.3765	0.6358	-0.203
Mof_H 	H 	0.2505	0.3878	0.553	0.103
Mof_C 	C 	0.3524	0.4289	0.7358	0.119
Mof_H 	H 	0.3255	0.4751	0.7183	-0.013
Mof_C 	C 	0.2985	0.2484	0.5519	-0.187
Mof_H 	H 	0.314	0.201	0.5964	0.084
Mof_H 	H 	0.3246	0.2495	0.51	0.085
Mof_O 	O 	0.12369	0.03586	0.5666	-0.447
Mof_O 	O 	0.1533	0.9563	0.472	-0.305
Mof_O 	O 	0.3132	0.9445	0.5579	-0.473
Mof_H 	H 	0.2578	0.9386	0.5083	0.303
Mof_N 	N 	0.9334	0.08369	0.3567	-0.269
Mof_C 	C 	0.1767	0.0054	0.5579	0.366
Mof_C 	C 	0.3044	0.0762	0.7552	0.112
Mof_H 	H 	0.2617	0.0981	0.7561	0.008
Mof_C 	C 	0.2765	0.0269	0.6589	-0.278
Mof_C 	C 	0.3407	0.9935	0.6559	0.354
Mof_C 	C 	0.4332	0.0108	0.7512	-0.21
Mof_C 	C 	0.4626	0.0605	0.8534	0.133
Mof_C 	C 	0.3976	0.0953	0.855	-0.113
Mof_C 	C 	0.4278	0.1438	0.9578	0.087
Mof_H 	H 	0.3854	0.1658	0.9596	0.019
Mof_C 	C 	0.5188	0.1601	0.0573	-0.172
Mof_H 	H 	0.5377	0.1936	0.1245	0.083
Mof_C 	C 	0.5822	0.1263	0.0563	0.017
Mof_H 	H 	0.6439	0.1374	0.1234	0.018
Mof_C 	C 	0.556	0.0775	0.9597	-0.117
Mof_H 	H 	0.6001	0.0546	0.9629	0.091
Mof_H 	H 	0.4646	0.9365	0.6719	0.045
Mof_C 	C 	0.9703	0.151	0.379	0.192
Mof_H 	H 	0.0268	0.161	0.4625	-0.059
Mof_C 	C 	0.9276	0.2055	0.2833	-0.272
Mof_H 	H 	0.955	0.2517	0.3037	0.131
Mof_C 	C 	0.8445	0.1926	0.1574	0.216
Mof_C 	C 	0.807	0.1235	0.1358	-0.246
Mof_H 	H 	0.7505	0.1122	0.053	0.102
Mof_C 	C 	0.8524	0.0711	0.2358	0.138
Mof_H 	H 	0.8255	0.0249	0.2183	-0.036
Mof_C 	C 	0.7985	0.2516	0.0519	-0.294
Mof_H 	H 	0.814	0.299	0.0964	0.107
Mof_H 	H 	0.8246	0.2505	0.01	0.105
Mof_O 	O 	0.62369	0.53586	0.5666	-0.439
Mof_O 	O 	0.6533	0.4563	0.472	-0.327
Mof_O 	O 	0.8132	0.4445	0.5579	-0.443
Mof_H 	H 	0.7578	0.4386	0.5083	0.288
Mof_N 	N 	0.4334	0.58369	0.3567	-0.26
Mof_C 	C 	0.6767	0.5054	0.5579	0.382
Mof_C 	C 	0.8044	0.5762	0.7552	0.067
Mof_H 	H 	0.7617	0.5981	0.7561	0.026
Mof_C 	C 	0.7765	0.5269	0.6589	-0.203
Mof_C 	C 	0.8407	0.4935	0.6559	0.23
Mof_C 	C 	0.9332	0.5108	0.7512	-0.046
Mof_C 	C 	0.9626	0.5605	0.8534	0.092
Mof_C 	C 	0.8976	0.5953	0.855	-0.08
Mof_C 	C 	0.9278	0.6438	0.9578	0.102
Mof_H 	H 	0.8854	0.6658	0.9596	0.018
Mof_C 	C 	0.0188	0.6601	0.0573	-0.195
Mof_H 	H 	0.0377	0.6936	0.1245	0.087
Mof_C 	C 	0.0822	0.6263	0.0563	0.025
Mof_H 	H 	0.1439	0.6374	0.1234	0.016
Mof_C 	C 	0.056	0.5775	0.9597	-0.115
Mof_H 	H 	0.1001	0.5546	0.9629	0.094
Mof_H 	H 	0.9646	0.4365	0.6719	0.131
Mof_C 	C 	0.4703	0.651	0.379	0.131
Mof_H 	H 	0.5268	0.661	0.4625	-0.023
Mof_C 	C 	0.4276	0.7055	0.2833	-0.236
Mof_H 	H 	0.455	0.7517	0.3037	0.111
Mof_C 	C 	0.3445	0.6926	0.1574	0.194
Mof_C 	C 	0.307	0.6235	0.1358	-0.229
Mof_H 	H 	0.2505	0.6122	0.053	0.099
Mof_C 	C 	0.3524	0.5711	0.2358	0.127
Mof_H 	H 	0.3255	0.5249	0.2183	-0.023
Mof_C 	C 	0.2985	0.7516	0.0519	-0.283
Mof_H 	H 	0.314	0.799	0.0964	0.103
Mof_H 	H 	0.3246	0.7505	0.01	0.1
Mof_O 	O 	0.87631	0.03586	0.9334	-0.429
Mof_O 	O 	0.8467	0.9563	0.028	-0.34
Mof_O 	O 	0.6868	0.9445	0.9421	-0.469
Mof_H 	H 	0.7422	0.9386	0.9917	0.319
Mof_N 	N 	0.0666	0.08369	0.1433	-0.254
Mof_C 	C 	0.8233	0.0054	0.9421	0.411
Mof_C 	C 	0.6956	0.0762	0.7448	0.11
Mof_H 	H 	0.7383	0.0981	0.7439	0.009
Mof_C 	C 	0.7235	0.0269	0.8411	-0.281
Mof_C 	C 	0.6593	0.9935	0.8441	0.359
Mof_C 	C 	0.5668	0.0108	0.7488	-0.213
Mof_C 	C 	0.5374	0.0605	0.6466	0.143
Mof_C 	C 	0.6024	0.0953	0.645	-0.105
Mof_C 	C 	0.5722	0.1438	0.5422	0.031
Mof_H 	H 	0.6146	0.1658	0.5404	0.027
Mof_C 	C 	0.4812	0.1601	0.4427	-0.13
Mof_H 	H 	0.4623	0.1936	0.3755	0.073
Mof_C 	C 	0.4178	0.1263	0.4437	0.069
Mof_H 	H 	0.3561	0.1374	0.3766	0.004
Mof_C 	C 	0.444	0.0775	0.5403	-0.181
Mof_H 	H 	0.3999	0.0546	0.5371	0.101
Mof_H 	H 	0.5354	0.9365	0.8281	0.049
Mof_C 	C 	0.0297	0.151	0.121	0.048
Mof_H 	H 	0.9732	0.161	0.0375	0.008
Mof_C 	C 	0.0724	0.2055	0.2167	-0.169
Mof_H 	H 	0.045	0.2517	0.1963	0.078
Mof_C 	C 	0.1555	0.1926	0.3426	0.128
Mof_C 	C 	0.193	0.1235	0.3642	-0.184
Mof_H 	H 	0.2495	0.1122	0.447	0.093
Mof_C 	C 	0.1476	0.0711	0.2642	0.1
Mof_H 	H 	0.1745	0.0249	0.2817	-0.024
Mof_C 	C 	0.2015	0.2516	0.4481	-0.147
Mof_H 	H 	0.186	0.299	0.4036	0.07
Mof_H 	H 	0.1754	0.2505	0.49	0.073
Mof_O 	O 	0.37631	0.53586	0.9334	-0.43
Mof_O 	O 	0.3467	0.4563	0.028	-0.368
Mof_O 	O 	0.1868	0.4445	0.9421	-0.438
Mof_H 	H 	0.2422	0.4386	0.9917	0.303
Mof_N 	N 	0.5666	0.58369	0.1433	-0.259
Mof_C 	C 	0.3233	0.5054	0.9421	0.417
Mof_C 	C 	0.1956	0.5762	0.7448	-0.002
Mof_H 	H 	0.2383	0.5981	0.7439	0.048
Mof_C 	C 	0.2235	0.5269	0.8411	-0.176
Mof_C 	C 	0.1593	0.4935	0.8441	0.216
Mof_C 	C 	0.0668	0.5108	0.7488	-0.024
Mof_C 	C 	0.0374	0.5605	0.6466	-0.026
Mof_C 	C 	0.1024	0.5953	0.645	0.038
Mof_C 	C 	0.0722	0.6438	0.5422	-0.137
Mof_H 	H 	0.1146	0.6658	0.5404	0.083
Mof_C 	C 	0.9812	0.6601	0.4427	0.052
Mof_H 	H 	0.9623	0.6936	0.3755	0.017
Mof_C 	C 	0.9178	0.6263	0.4437	-0.094
Mof_H 	H 	0.8561	0.6374	0.3766	0.064
Mof_C 	C 	0.944	0.5775	0.5403	0.001
Mof_H 	H 	0.8999	0.5546	0.5371	0.047
Mof_H 	H 	0.0354	0.4365	0.8281	0.116
Mof_C 	C 	0.5297	0.651	0.121	0.114
Mof_H 	H 	0.4732	0.661	0.0375	-0.031
Mof_C 	C 	0.5724	0.7055	0.2167	-0.206
Mof_H 	H 	0.545	0.7517	0.1963	0.098
Mof_C 	C 	0.6555	0.6926	0.3426	0.15
Mof_C 	C 	0.693	0.6235	0.3642	-0.198
Mof_H 	H 	0.7495	0.6122	0.447	0.102
Mof_C 	C 	0.6476	0.5711	0.2642	0.113
Mof_H 	H 	0.6745	0.5249	0.2817	-0.014
Mof_C 	C 	0.7015	0.7516	0.4481	-0.16
Mof_H 	H 	0.686	0.799	0.4036	0.075
Mof_H 	H 	0.6754	0.7505	0.49	0.078
Mof_Ni	Ni	2.11887e-33	0	0.5	1.042
Mof_Ni	Ni	0.5	0.5	0.5	1.064
Mof_Ni	Ni	-0	0	-0	1.026
Mof_Ni	Ni	0.5	0.5	-0	1.049
Mof_C 	C 	0.5	0.0316	0.25	-0.283
Mof_C 	C 	1.05944e-33	0.5316	0.25	-0.186
Mof_C 	C 	0.5	0.9684	0.75	0.081
Mof_C 	C 	6.47429e-17	0.4684	0.75	-0.191
_end
