# CIF file generated by openbabel 3.1.0, see https://openbabel.org
data_I
_chemical_name_common 'GIRDUI_clean'
_cell_length_a 8.287
_cell_length_b 14.224
_cell_length_c 14.726
_cell_angle_alpha 90
_cell_angle_beta 90
_cell_angle_gamma 99.696
_space_group_name_H-M_alt 'P 1'
_space_group_name_Hall 'P 1'
loop_
    _symmetry_equiv_pos_as_xyz
    x,y,z
loop_
    _atom_site_label
    _atom_site_type_symbol
    _atom_site_fract_x
    _atom_site_fract_y
    _atom_site_fract_z
    _atom_site_occupancy
    Co1      Co       0.90593    0.11991    0.08256    1.000
    Co2      Co       0.59407    0.88009    0.58256    1.000
    Co3      Co       0.09407    0.88009    0.91744    1.000
    Co4      Co       0.40593    0.11991    0.41744    1.000
    H1       H        0.49570    0.83870    0.30200    1.000
    H2       H        0.65580    0.92330    0.05610    1.000
    H3       H        0.50530    0.76460    0.07370    1.000
    H4       H        0.35040    0.80090    0.11140    1.000
    H5       H        0.35240    0.70890    0.23590    1.000
    H6       H        0.34880    0.64630    0.14810    1.000
    H7       H        0.51270    0.67510    0.20210    1.000
    H8       H        0.24660    0.20760    0.10960    1.000
    H9       H        0.44270    0.33610    0.08080    1.000
    H10      H        0.11840    0.44150    0.92970    1.000
    H11      H        0.93280    0.30890    0.96020    1.000
    H12      H        0.39080    0.53760    0.94770    1.000
    H13      H        0.00430    0.16130    0.80200    1.000
    H14      H        0.84420    0.07670    0.55610    1.000
    H15      H        0.99470    0.23540    0.57370    1.000
    H16      H        0.14960    0.19910    0.61140    1.000
    H17      H        0.14760    0.29110    0.73590    1.000
    H18      H        0.15120    0.35370    0.64810    1.000
    H19      H        0.98730    0.32490    0.70210    1.000
    H20      H        0.25340    0.79240    0.60960    1.000
    H21      H        0.05730    0.66390    0.58080    1.000
    H22      H        0.38160    0.55850    0.42970    1.000
    H23      H        0.56720    0.69110    0.46020    1.000
    H24      H        0.10920    0.46240    0.44770    1.000
    H25      H        0.50430    0.16130    0.69800    1.000
    H26      H        0.34420    0.07670    0.94390    1.000
    H27      H        0.49470    0.23540    0.92630    1.000
    H28      H        0.64960    0.19910    0.88860    1.000
    H29      H        0.64760    0.29110    0.76410    1.000
    H30      H        0.65120    0.35370    0.85190    1.000
    H31      H        0.48730    0.32490    0.79790    1.000
    H32      H        0.75340    0.79240    0.89040    1.000
    H33      H        0.55730    0.66390    0.91920    1.000
    H34      H        0.88160    0.55850    0.07030    1.000
    H35      H        0.06720    0.69110    0.03980    1.000
    H36      H        0.60920    0.46240    0.05230    1.000
    H37      H        0.99570    0.83870    0.19800    1.000
    H38      H        0.15580    0.92330    0.44390    1.000
    H39      H        0.00530    0.76460    0.42630    1.000
    H40      H        0.85040    0.80090    0.38860    1.000
    H41      H        0.85240    0.70890    0.26410    1.000
    H42      H        0.84880    0.64630    0.35190    1.000
    H43      H        0.01270    0.67510    0.29790    1.000
    H44      H        0.74660    0.20760    0.39040    1.000
    H45      H        0.94270    0.33610    0.41920    1.000
    H46      H        0.61840    0.44150    0.57030    1.000
    H47      H        0.43280    0.30890    0.53980    1.000
    H48      H        0.89080    0.53760    0.55230    1.000
    C1       C        0.89460    0.09801    0.27681    1.000
    C2       C        0.76450    0.01841    0.24426    1.000
    C3       C        0.66270    0.95841    0.30205    1.000
    C4       C        0.56280    0.88087    0.26422    1.000
    C5       C        0.55970    0.86421    0.17215    1.000
    C6       C        0.65940    0.93093    0.11879    1.000
    C7       C        0.45230    0.78090    0.12890    1.000
    C8       C        0.41330    0.69570    0.18330    1.000
    C9       C        0.64710    0.97528    0.40260    1.000
    C10      C        0.21990    0.25570    0.07260    1.000
    C11      C        0.33870    0.33300    0.05600    1.000
    C12      C        0.30360    0.40600    0.00270    1.000
    C13      C        0.14800    0.39450    0.96700    1.000
    C14      C        0.03660    0.31470    0.98590    1.000
    C15      C        0.42400    0.49130    0.98450    1.000
    C16      C        0.60540    0.90199    0.77681    1.000
    C17      C        0.73550    0.98159    0.74426    1.000
    C18      C        0.83730    0.04159    0.80205    1.000
    C19      C        0.93720    0.11913    0.76422    1.000
    C20      C        0.94030    0.13579    0.67215    1.000
    C21      C        0.84060    0.06907    0.61879    1.000
    C22      C        0.04770    0.21910    0.62890    1.000
    C23      C        0.08670    0.30430    0.68330    1.000
    C24      C        0.85290    0.02472    0.90260    1.000
    C25      C        0.28010    0.74430    0.57260    1.000
    C26      C        0.16130    0.66700    0.55600    1.000
    C27      C        0.19640    0.59400    0.50270    1.000
    C28      C        0.35200    0.60550    0.46700    1.000
    C29      C        0.46340    0.68530    0.48590    1.000
    C30      C        0.07600    0.50870    0.48450    1.000
    C31      C        0.10540    0.90199    0.72319    1.000
    C32      C        0.23550    0.98159    0.75574    1.000
    C33      C        0.33730    0.04159    0.69795    1.000
    C34      C        0.43720    0.11913    0.73578    1.000
    C35      C        0.44030    0.13579    0.82785    1.000
    C36      C        0.34060    0.06907    0.88121    1.000
    C37      C        0.54770    0.21910    0.87110    1.000
    C38      C        0.58670    0.30430    0.81670    1.000
    C39      C        0.35290    0.02472    0.59740    1.000
    C40      C        0.78010    0.74430    0.92740    1.000
    C41      C        0.66130    0.66700    0.94400    1.000
    C42      C        0.69640    0.59400    0.99730    1.000
    C43      C        0.85200    0.60550    0.03300    1.000
    C44      C        0.96340    0.68530    0.01410    1.000
    C45      C        0.57600    0.50870    0.01550    1.000
    C46      C        0.39460    0.09801    0.22319    1.000
    C47      C        0.26450    0.01841    0.25574    1.000
    C48      C        0.16270    0.95841    0.19795    1.000
    C49      C        0.06280    0.88087    0.23578    1.000
    C50      C        0.05970    0.86421    0.32785    1.000
    C51      C        0.15940    0.93093    0.38121    1.000
    C52      C        0.95230    0.78090    0.37110    1.000
    C53      C        0.91330    0.69570    0.31670    1.000
    C54      C        0.14710    0.97528    0.09740    1.000
    C55      C        0.71990    0.25570    0.42740    1.000
    C56      C        0.83870    0.33300    0.44400    1.000
    C57      C        0.80360    0.40600    0.49730    1.000
    C58      C        0.64800    0.39450    0.53300    1.000
    C59      C        0.53660    0.31470    0.51410    1.000
    C60      C        0.92400    0.49130    0.51550    1.000
    N1       N        0.76000    0.00552    0.15367    1.000
    N2       N        0.06950    0.24486    0.03926    1.000
    N3       N        0.74000    0.99448    0.65367    1.000
    N4       N        0.43050    0.75514    0.53926    1.000
    N5       N        0.24000    0.99448    0.84633    1.000
    N6       N        0.93050    0.75514    0.96074    1.000
    N7       N        0.26000    0.00552    0.34633    1.000
    N8       N        0.56950    0.24486    0.46074    1.000
    O1       O        0.95810    0.15804    0.21751    1.000
    O2       O        0.93400    0.09924    0.35754    1.000
    O3       O        0.60280    0.04958    0.42893    1.000
    O4       O        0.67310    0.90797    0.45263    1.000
    O5       O        0.54190    0.84196    0.71751    1.000
    O6       O        0.56600    0.90076    0.85754    1.000
    O7       O        0.89720    0.95042    0.92893    1.000
    O8       O        0.82690    0.09203    0.95263    1.000
    O9       O        0.04190    0.84196    0.78249    1.000
    O10      O        0.06600    0.90076    0.64246    1.000
    O11      O        0.39720    0.95042    0.57107    1.000
    O12      O        0.32690    0.09203    0.54737    1.000
    O13      O        0.45810    0.15804    0.28249    1.000
    O14      O        0.43400    0.09924    0.14246    1.000
    O15      O        0.10280    0.04958    0.07107    1.000
    O16      O        0.17310    0.90797    0.04737    1.000
