data_functionalizedCrystal
_audit_creation_method	'EQeq! by Chris Wilmer'
_symmetry_space_group_name_H-M	'P1'
_symmetry_Int_Tables_number	1
_symmetry_cell_setting	triclinic
loop_
_symmetry_equiv_pos_as_xyz
  x,y,z
_cell_length_a	13.636
_cell_length_b	13.636
_cell_length_c	19.467
_cell_angle_alpha	90
_cell_angle_beta	90
_cell_angle_gamma	90
loop_
_atom_site_label
_atom_site_type_symbol
_atom_site_fract_x
_atom_site_fract_y
_atom_site_fract_z
_atom_site_charge
Mof_N 	N 	0.4321	0.423	0.0731	-0.256
Mof_C 	C 	0.449	0.4259	0.1425	0.098
Mof_C 	C 	0.4004	0.3441	0.1755	-0.082
Mof_H 	H 	0.4031	0.327	0.2228	0.05
Mof_C 	C 	0.3505	0.2968	0.1253	-0.096
Mof_H 	H 	0.3096	0.2411	0.1313	0.053
Mof_C 	C 	0.37	0.3455	0.0619	0.11
Mof_C 	C 	0.1608	0.259	0.0368	-0.202
Mof_H 	H 	0.1495	0.317	0.0626	0.084
Mof_C 	C 	0.0931	0.1869	0.0352	0.098
Mof_H 	H 	0.0343	0.1956	0.0607	-0.046
Mof_C 	C 	0.5876	0.501	0.2892	-0.18
Mof_H 	H 	0.6488	0.5008	0.2659	0.088
Mof_C 	C 	0.5846	0.5023	0.3597	0.089
Mof_H 	H 	0.6449	0.5049	0.3842	-0.02
Mof_N 	N 	0.5679	0.577	0.0731	-0.256
Mof_C 	C 	0.551	0.5741	0.1425	0.098
Mof_C 	C 	0.5996	0.6559	0.1755	-0.078
Mof_H 	H 	0.5969	0.673	0.2228	0.056
Mof_C 	C 	0.6495	0.7032	0.1253	-0.095
Mof_H 	H 	0.6904	0.7589	0.1313	0.065
Mof_C 	C 	0.63	0.6545	0.0619	0.113
Mof_C 	C 	0.8392	0.741	0.0368	-0.196
Mof_H 	H 	0.8505	0.683	0.0626	0.094
Mof_C 	C 	0.9069	0.8131	0.0352	0.111
Mof_H 	H 	0.9657	0.8044	0.0607	-0.018
Mof_C 	C 	0.4124	0.499	0.2892	-0.181
Mof_H 	H 	0.3512	0.4992	0.2659	0.083
Mof_C 	C 	0.4154	0.4977	0.3597	0.088
Mof_H 	H 	0.3551	0.4951	0.3842	-0.027
Mof_N 	N 	0.077	0.9321	0.5731	-0.252
Mof_C 	C 	0.0741	0.949	0.6425	0.158
Mof_C 	C 	0.1559	0.9004	0.6755	-0.106
Mof_H 	H 	0.173	0.9031	0.7228	0.071
Mof_C 	C 	0.2032	0.8505	0.6253	-0.074
Mof_H 	H 	0.2589	0.8096	0.6313	0.056
Mof_C 	C 	0.1545	0.87	0.5619	0.101
Mof_C 	C 	0.241	0.6608	0.5368	-0.208
Mof_H 	H 	0.183	0.6495	0.5626	0.091
Mof_C 	C 	0.3131	0.5931	0.5352	0.116
Mof_H 	H 	0.3044	0.5343	0.5607	-0.038
Mof_C 	C 	0.999	0.0876	0.7892	-0.126
Mof_H 	H 	0.9992	0.1488	0.7659	0.08
Mof_C 	C 	0.9977	0.0846	0.8597	0.101
Mof_H 	H 	0.9951	0.1449	0.8842	-0.007
Mof_N 	N 	0.923	0.0679	0.5731	-0.251
Mof_C 	C 	0.9259	0.051	0.6425	0.155
Mof_C 	C 	0.8441	0.0996	0.6755	-0.107
Mof_H 	H 	0.827	0.0969	0.7228	0.065
Mof_C 	C 	0.7968	0.1495	0.6253	-0.077
Mof_H 	H 	0.7411	0.1904	0.6313	0.053
Mof_C 	C 	0.8455	0.13	0.5619	0.099
Mof_C 	C 	0.759	0.3392	0.5368	-0.206
Mof_H 	H 	0.817	0.3505	0.5626	0.1
Mof_C 	C 	0.6869	0.4069	0.5352	0.118
Mof_H 	H 	0.6956	0.4657	0.5607	-0.031
Mof_C 	C 	0.001	0.9124	0.7892	-0.129
Mof_H 	H 	0.0008	0.8512	0.7659	0.07
Mof_C 	C 	0.0023	0.9154	0.8597	0.098
Mof_H 	H 	0.0049	0.8551	0.8842	-0.023
Mof_N 	N 	0.0679	0.923	0.4269	-0.252
Mof_C 	C 	0.051	0.9259	0.3575	0.156
Mof_C 	C 	0.0996	0.8441	0.3245	-0.107
Mof_H 	H 	0.0969	0.827	0.2772	0.062
Mof_C 	C 	0.1495	0.7968	0.3747	-0.078
Mof_H 	H 	0.1904	0.7411	0.3687	0.052
Mof_C 	C 	0.13	0.8455	0.4381	0.099
Mof_C 	C 	0.3392	0.759	0.4632	-0.206
Mof_H 	H 	0.3505	0.817	0.4374	0.099
Mof_C 	C 	0.4069	0.6869	0.4648	0.118
Mof_H 	H 	0.4657	0.6956	0.4393	-0.032
Mof_C 	C 	0.9124	0.001	0.2108	-0.131
Mof_H 	H 	0.8512	0.0008	0.2341	0.068
Mof_C 	C 	0.9154	0.0023	0.1403	0.099
Mof_H 	H 	0.8551	0.0049	0.1158	-0.036
Mof_N 	N 	0.9321	0.077	0.4269	-0.252
Mof_C 	C 	0.949	0.0741	0.3575	0.158
Mof_C 	C 	0.9004	0.1559	0.3245	-0.106
Mof_H 	H 	0.9031	0.173	0.2772	0.069
Mof_C 	C 	0.8505	0.2032	0.3747	-0.075
Mof_H 	H 	0.8096	0.2589	0.3687	0.055
Mof_C 	C 	0.87	0.1545	0.4381	0.101
Mof_C 	C 	0.6608	0.241	0.4632	-0.208
Mof_H 	H 	0.6495	0.183	0.4374	0.09
Mof_C 	C 	0.5931	0.3131	0.4648	0.116
Mof_H 	H 	0.5343	0.3044	0.4393	-0.039
Mof_C 	C 	0.0876	0.999	0.2108	-0.128
Mof_H 	H 	0.1488	0.9992	0.2341	0.078
Mof_C 	C 	0.0846	0.9977	0.1403	0.103
Mof_H 	H 	0.1449	0.9951	0.1158	-0.021
Mof_N 	N 	0.423	0.4321	0.9269	-0.246
Mof_C 	C 	0.4259	0.449	0.8575	0.098
Mof_C 	C 	0.3441	0.4004	0.8245	-0.072
Mof_H 	H 	0.327	0.4031	0.7772	0.048
Mof_C 	C 	0.2968	0.3505	0.8747	-0.109
Mof_H 	H 	0.2411	0.3096	0.8687	0.065
Mof_C 	C 	0.3455	0.37	0.9381	0.151
Mof_C 	C 	0.259	0.1608	0.9632	-0.169
Mof_H 	H 	0.317	0.1495	0.9374	0.085
Mof_C 	C 	0.1869	0.0931	0.9648	0.137
Mof_H 	H 	0.1956	0.0343	0.9393	-0.047
Mof_C 	C 	0.501	0.5876	0.7108	-0.179
Mof_H 	H 	0.5008	0.6488	0.7341	0.09
Mof_C 	C 	0.5023	0.5846	0.6403	0.09
Mof_H 	H 	0.5049	0.6449	0.6158	-0.02
Mof_N 	N 	0.577	0.5679	0.9269	-0.245
Mof_C 	C 	0.5741	0.551	0.8575	0.1
Mof_C 	C 	0.6559	0.5996	0.8245	-0.067
Mof_H 	H 	0.673	0.5969	0.7772	0.055
Mof_C 	C 	0.7032	0.6495	0.8747	-0.106
Mof_H 	H 	0.7589	0.6904	0.8687	0.077
Mof_C 	C 	0.6545	0.63	0.9381	0.154
Mof_C 	C 	0.741	0.8392	0.9632	-0.165
Mof_H 	H 	0.683	0.8505	0.9374	0.096
Mof_C 	C 	0.8131	0.9069	0.9648	0.146
Mof_H 	H 	0.8044	0.9657	0.9393	-0.018
Mof_C 	C 	0.499	0.4124	0.7108	-0.18
Mof_H 	H 	0.4992	0.3512	0.7341	0.085
Mof_C 	C 	0.4977	0.4154	0.6403	0.089
Mof_H 	H 	0.4951	0.3551	0.6158	-0.026
Mof_Cu	Cu	0.5	0.5	-0	0.843
Mof_Cu	Cu	9.65028e-33	6.97393e-33	0.5	0.826
Mof_Cu	Cu	-0	0	-0	0.815
Mof_Cu	Cu	0.5	0.5	0.5	0.85
Mof_N 	N 	0.1045	0.1045	-0	-0.287
Mof_C 	C 	0.3246	0.3246	-0	-0.2
Mof_C 	C 	0.2472	0.2472	-0	0.114
Mof_N 	N 	0.8955	0.8955	-0	-0.256
Mof_C 	C 	0.6754	0.6754	-0	-0.196
Mof_C 	C 	0.7528	0.7528	-0	0.123
Mof_N 	N 	0.3955	0.6045	0.5	-0.259
Mof_C 	C 	0.1754	0.8246	0.5	-0.154
Mof_C 	C 	0.2528	0.7472	0.5	0.153
Mof_N 	N 	0.6045	0.3955	0.5	-0.259
Mof_C 	C 	0.8246	0.1754	0.5	-0.154
Mof_C 	C 	0.7472	0.2528	0.5	0.153
Mof_N 	N 	0.5	0.5	0.396	-0.246
Mof_C 	C 	0.5	0.5	0.1755	-0.149
Mof_C 	C 	0.5	0.5	0.2521	0.133
Mof_N 	N 	4.79603e-33	0	0.896	-0.275
Mof_C 	C 	-3.35817e-33	0	0.6755	-0.228
Mof_C 	C 	4.02577e-33	0	0.7521	0.059
Mof_N 	N 	5.56682e-34	0	0.104	-0.289
Mof_C 	C 	1.73695e-33	0	0.3245	-0.23
Mof_C 	C 	1.32694e-33	0	0.2479	0.057
Mof_N 	N 	0.5	0.5	0.604	-0.246
Mof_C 	C 	0.5	0.5	0.8245	-0.142
Mof_C 	C 	0.5	0.5	0.7479	0.133
_end
