# CIF file generated by openbabel 3.1.0, see https://openbabel.org
data_I
_chemical_name_common 'image0'
_cell_length_a 7.361
_cell_length_b 15.645
_cell_length_c 26.957
_cell_angle_alpha 90
_cell_angle_beta 90
_cell_angle_gamma 90
_space_group_name_H-M_alt 'P 1'
_space_group_name_Hall 'P 1'
loop_
    _symmetry_equiv_pos_as_xyz
    x,y,z
loop_
    _atom_site_label
    _atom_site_type_symbol
    _atom_site_fract_x
    _atom_site_fract_y
    _atom_site_fract_z
    _atom_site_occupancy
    Ni1      Ni       0.48950    0.65587    0.68717    1.000
    O1       O        0.38870    0.64300    0.61404    1.000
    O2       O        0.60140    0.55620    0.64209    1.000
    O3       O        0.87900    0.36430    0.25192    1.000
    O4       O        0.64370    0.27720    0.25000    1.000
    O5       O        0.08690    0.55710    0.45820    1.000
    O6       O        0.28060    0.54680    0.39648    1.000
    O7       O        0.17490    0.31870    0.37220    1.000
    O8       O        0.23430    0.35690    0.44380    1.000
    N1       N        0.34400    0.76090    0.70996    1.000
    N2       N        0.70930    0.07160    0.78859    1.000
    N3       N        0.24130    0.54010    0.44040    1.000
    N4       N        0.28450    0.34400    0.40340    1.000
    C1       C        0.34200    0.78960    0.75640    1.000
    H1       H        0.42070    0.76460    0.77920    1.000
    C2       C        0.23260    0.79980    0.67770    1.000
    H2       H        0.23700    0.78320    0.64460    1.000
    C3       C        0.23160    0.85330    0.77230    1.000
    H3       H        0.23890    0.87220    0.80500    1.000
    C4       C        0.11360    0.86200    0.69090    1.000
    H4       H        0.03640    0.88570    0.66730    1.000
    C5       C        0.10720    0.89060    0.73990    1.000
    C6       C        0.97220    0.95540    0.75664    1.000
    C7       C        0.79950    0.95200    0.73800    1.000
    H5       H        0.76770    0.91110    0.71460    1.000
    C8       C        0.01610    0.01530    0.79160    1.000
    H6       H        0.13210    0.01780    0.80520    1.000
    C9       C        0.67130    0.01150    0.75500    1.000
    H7       H        0.55410    0.00900    0.74220    1.000
    C10      C        0.88050    0.07260    0.80610    1.000
    H8       H        0.91050    0.11420    0.82940    1.000
    C11      C        0.49680    0.58170    0.60780    1.000
    C12      C        0.50660    0.53920    0.55684    1.000
    C13      C        0.64120    0.48280    0.54632    1.000
    H9       H        0.72490    0.46740    0.57060    1.000
    C14      C        0.65310    0.44800    0.49890    1.000
    H10      H        0.74950    0.41180    0.49140    1.000
    C15      C        0.52590    0.46580    0.46254    1.000
    C16      C        0.38390    0.51800    0.47650    1.000
    C17      C        0.37310    0.55450    0.52290    1.000
    H11      H        0.27530    0.58940    0.53100    1.000
    C18      C        0.73560    0.33220    0.26936    1.000
    C19      C        0.67670    0.36880    0.31801    1.000
    C20      C        0.51220    0.34520    0.33744    1.000
    H12      H        0.43670    0.30830    0.31990    1.000
    C21      C        0.45790    0.37670    0.38380    1.000
    C22      C        0.56390    0.43180    0.41090    1.000
    C23      C        0.72850    0.45670    0.39120    1.000
    H13      H        0.80180    0.49530    0.40820    1.000
    C24      C        0.78550    0.42290    0.34450    1.000
    H14      H        0.89870    0.43800    0.33190    1.000
    Ni2      Ni       0.01050    0.34413    0.18717    1.000
    O9       O        0.11130    0.35700    0.11404    1.000
    O10      O        0.89860    0.44380    0.14209    1.000
    O11      O        0.62100    0.63570    0.75192    1.000
    O12      O        0.85630    0.72280    0.75000    1.000
    O13      O        0.41310    0.44290    0.95820    1.000
    O14      O        0.21940    0.45320    0.89648    1.000
    O15      O        0.32510    0.68130    0.87220    1.000
    O16      O        0.26570    0.64310    0.94380    1.000
    N5       N        0.15600    0.23910    0.20996    1.000
    N6       N        0.79070    0.92840    0.28859    1.000
    N7       N        0.25870    0.45990    0.94040    1.000
    N8       N        0.21550    0.65600    0.90340    1.000
    C25      C        0.15800    0.21040    0.25640    1.000
    H15      H        0.07930    0.23540    0.27920    1.000
    C26      C        0.26740    0.20020    0.17770    1.000
    H16      H        0.26300    0.21680    0.14460    1.000
    C27      C        0.26840    0.14670    0.27230    1.000
    H17      H        0.26110    0.12780    0.30500    1.000
    C28      C        0.38640    0.13800    0.19090    1.000
    H18      H        0.46360    0.11430    0.16730    1.000
    C29      C        0.39280    0.10940    0.23990    1.000
    C30      C        0.52780    0.04460    0.25664    1.000
    C31      C        0.70050    0.04800    0.23800    1.000
    H19      H        0.73230    0.08890    0.21460    1.000
    C32      C        0.48390    0.98470    0.29160    1.000
    H20      H        0.36790    0.98220    0.30520    1.000
    C33      C        0.82870    0.98850    0.25500    1.000
    H21      H        0.94590    0.99100    0.24220    1.000
    C34      C        0.61950    0.92740    0.30610    1.000
    H22      H        0.58950    0.88580    0.32940    1.000
    C35      C        0.00320    0.41830    0.10780    1.000
    C36      C        0.99340    0.46080    0.05684    1.000
    C37      C        0.85880    0.51720    0.04632    1.000
    H23      H        0.77510    0.53260    0.07060    1.000
    C38      C        0.84690    0.55200    0.99890    1.000
    H24      H        0.75050    0.58820    0.99140    1.000
    C39      C        0.97410    0.53420    0.96254    1.000
    C40      C        0.11610    0.48200    0.97650    1.000
    C41      C        0.12690    0.44550    0.02290    1.000
    H25      H        0.22470    0.41060    0.03100    1.000
    C42      C        0.76440    0.66780    0.76936    1.000
    C43      C        0.82330    0.63120    0.81801    1.000
    C44      C        0.98780    0.65480    0.83744    1.000
    H26      H        0.06330    0.69170    0.81990    1.000
    C45      C        0.04210    0.62330    0.88380    1.000
    C46      C        0.93610    0.56820    0.91090    1.000
    C47      C        0.77150    0.54330    0.89120    1.000
    H27      H        0.69820    0.50470    0.90820    1.000
    C48      C        0.71450    0.57710    0.84450    1.000
    H28      H        0.60130    0.56200    0.83190    1.000
    Ni3      Ni       0.51050    0.15587    0.81283    1.000
    O17      O        0.61130    0.14300    0.88596    1.000
    O18      O        0.39860    0.05620    0.85791    1.000
    O19      O        0.12100    0.86430    0.24808    1.000
    O20      O        0.35630    0.77720    0.25000    1.000
    O21      O        0.91310    0.05710    0.04180    1.000
    O22      O        0.71940    0.04680    0.10352    1.000
    O23      O        0.82510    0.81870    0.12780    1.000
    O24      O        0.76570    0.85690    0.05620    1.000
    N9       N        0.65600    0.26090    0.79004    1.000
    N10      N        0.29070    0.57160    0.71141    1.000
    N11      N        0.75870    0.04010    0.05960    1.000
    N12      N        0.71550    0.84400    0.09660    1.000
    C49      C        0.65800    0.28960    0.74360    1.000
    H29      H        0.57930    0.26460    0.72080    1.000
    C50      C        0.76740    0.29980    0.82230    1.000
    H30      H        0.76300    0.28320    0.85540    1.000
    C51      C        0.76840    0.35330    0.72770    1.000
    H31      H        0.76110    0.37220    0.69500    1.000
    C52      C        0.88640    0.36200    0.80910    1.000
    H32      H        0.96360    0.38570    0.83270    1.000
    C53      C        0.89280    0.39060    0.76010    1.000
    C54      C        0.02780    0.45540    0.74336    1.000
    C55      C        0.20050    0.45200    0.76200    1.000
    H33      H        0.23230    0.41110    0.78540    1.000
    C56      C        0.98390    0.51530    0.70840    1.000
    H34      H        0.86790    0.51780    0.69480    1.000
    C57      C        0.32870    0.51150    0.74500    1.000
    H35      H        0.44590    0.50900    0.75780    1.000
    C58      C        0.11950    0.57260    0.69390    1.000
    H36      H        0.08950    0.61420    0.67060    1.000
    C59      C        0.50320    0.08170    0.89220    1.000
    C60      C        0.49340    0.03920    0.94316    1.000
    C61      C        0.35880    0.98280    0.95368    1.000
    H37      H        0.27510    0.96740    0.92940    1.000
    C62      C        0.34690    0.94800    0.00110    1.000
    H38      H        0.25050    0.91180    0.00860    1.000
    C63      C        0.47410    0.96580    0.03746    1.000
    C64      C        0.61610    0.01800    0.02350    1.000
    C65      C        0.62690    0.05450    0.97710    1.000
    H39      H        0.72470    0.08940    0.96900    1.000
    C66      C        0.26440    0.83220    0.23064    1.000
    C67      C        0.32330    0.86880    0.18199    1.000
    C68      C        0.48780    0.84520    0.16256    1.000
    H40      H        0.56330    0.80830    0.18010    1.000
    C69      C        0.54210    0.87670    0.11620    1.000
    C70      C        0.43610    0.93180    0.08910    1.000
    C71      C        0.27150    0.95670    0.10880    1.000
    H41      H        0.19820    0.99530    0.09180    1.000
    C72      C        0.21450    0.92290    0.15550    1.000
    H42      H        0.10130    0.93800    0.16810    1.000
    Ni4      Ni       0.98950    0.84413    0.31283    1.000
    O25      O        0.88870    0.85700    0.38596    1.000
    O26      O        0.10140    0.94380    0.35791    1.000
    O27      O        0.37900    0.13570    0.74808    1.000
    O28      O        0.14370    0.22280    0.75000    1.000
    O29      O        0.58690    0.94290    0.54180    1.000
    O30      O        0.78060    0.95320    0.60352    1.000
    O31      O        0.67490    0.18130    0.62780    1.000
    O32      O        0.73430    0.14310    0.55620    1.000
    N13      N        0.84400    0.73910    0.29004    1.000
    N14      N        0.20930    0.42840    0.21141    1.000
    N15      N        0.74130    0.95990    0.55960    1.000
    N16      N        0.78450    0.15600    0.59660    1.000
    C73      C        0.84200    0.71040    0.24360    1.000
    H43      H        0.92070    0.73540    0.22080    1.000
    C74      C        0.73260    0.70020    0.32230    1.000
    H44      H        0.73700    0.71680    0.35540    1.000
    C75      C        0.73160    0.64670    0.22770    1.000
    H45      H        0.73890    0.62780    0.19500    1.000
    C76      C        0.61360    0.63800    0.30910    1.000
    H46      H        0.53640    0.61430    0.33270    1.000
    C77      C        0.60720    0.60940    0.26010    1.000
    C78      C        0.47220    0.54460    0.24336    1.000
    C79      C        0.29950    0.54800    0.26200    1.000
    H47      H        0.26770    0.58890    0.28540    1.000
    C80      C        0.51610    0.48470    0.20840    1.000
    H48      H        0.63210    0.48220    0.19480    1.000
    C81      C        0.17130    0.48850    0.24500    1.000
    H49      H        0.05410    0.49100    0.25780    1.000
    C82      C        0.38050    0.42740    0.19390    1.000
    H50      H        0.41050    0.38580    0.17060    1.000
    C83      C        0.99680    0.91830    0.39220    1.000
    C84      C        0.00660    0.96080    0.44316    1.000
    C85      C        0.14120    0.01720    0.45368    1.000
    H51      H        0.22490    0.03260    0.42940    1.000
    C86      C        0.15310    0.05200    0.50110    1.000
    H52      H        0.24950    0.08820    0.50860    1.000
    C87      C        0.02590    0.03420    0.53746    1.000
    C88      C        0.88390    0.98200    0.52350    1.000
    C89      C        0.87310    0.94550    0.47710    1.000
    H53      H        0.77530    0.91060    0.46900    1.000
    C90      C        0.23560    0.16780    0.73064    1.000
    C91      C        0.17670    0.13120    0.68199    1.000
    C92      C        0.01220    0.15480    0.66256    1.000
    H54      H        0.93670    0.19170    0.68010    1.000
    C93      C        0.95790    0.12330    0.61620    1.000
    C94      C        0.06390    0.06820    0.58910    1.000
    C95      C        0.22850    0.04330    0.60880    1.000
    H55      H        0.30180    0.00470    0.59180    1.000
    C96      C        0.28550    0.07710    0.65550    1.000
    H56      H        0.39870    0.06200    0.66810    1.000
