# CIF file generated by openbabel 3.1.0, see https://openbabel.org
data_I
_chemical_name_common 'image0'
_cell_length_a 33.4
_cell_length_b 13.8787
_cell_length_c 13.579
_cell_angle_alpha 90
_cell_angle_beta 104.966
_cell_angle_gamma 90
_space_group_name_H-M_alt 'P 1'
_space_group_name_Hall 'P 1'
loop_
    _symmetry_equiv_pos_as_xyz
    x,y,z
loop_
    _atom_site_label
    _atom_site_type_symbol
    _atom_site_fract_x
    _atom_site_fract_y
    _atom_site_fract_z
    _atom_site_occupancy
    La1      La       0.81208    0.21260    0.56137    1.000
    O1       O        0.76805    0.17953    0.68232    1.000
    O2       O        0.70667    0.25192    0.62586    1.000
    O3       O        0.73352    0.85648    0.96732    1.000
    O4       O        0.78787    0.94598    0.96750    1.000
    O5       O        0.36644    0.17089    0.02088    1.000
    O6       O        0.38019    0.32605    0.01709    1.000
    C1       C        0.42611    0.21684    0.96648    1.000
    C2       C        0.45567    0.28786    0.96861    1.000
    C3       C        0.49127    0.26642    0.93794    1.000
    C4       C        0.49732    0.17397    0.90513    1.000
    C5       C        0.46776    0.10295    0.90300    1.000
    C6       C        0.43216    0.12439    0.93367    1.000
    C7       C        0.53665    0.15092    0.87572    1.000
    C8       C        0.56045    0.22227    0.84513    1.000
    C9       C        0.59837    0.20177    0.82653    1.000
    C10      C        0.61407    0.10765    0.83673    1.000
    C11      C        0.58999    0.03437    0.86093    1.000
    C12      C        0.55188    0.05554    0.88176    1.000
    C13      C        0.65639    0.08990    0.82510    1.000
    C14      C        0.67299    0.14593    0.76086    1.000
    C15      C        0.71407    0.13567    0.75604    1.000
    C16      C        0.73919    0.06726    0.81805    1.000
    C17      C        0.72259    0.00772    0.87922    1.000
    C18      C        0.68127    0.01675    0.88314    1.000
    C19      C        0.73097    0.19400    0.68160    1.000
    C20      C        0.74994    0.93240    0.94290    1.000
    C21      C        0.38851    0.23830    0.00450    1.000
    La2      La       0.31208    0.71260    0.56137    1.000
    O7       O        0.26805    0.67953    0.68232    1.000
    O8       O        0.20667    0.75192    0.62586    1.000
    O9       O        0.23352    0.35648    0.96732    1.000
    O10      O        0.28787    0.44598    0.96750    1.000
    O11      O        0.86644    0.67089    0.02088    1.000
    O12      O        0.88019    0.82605    0.01709    1.000
    C22      C        0.92611    0.71684    0.96648    1.000
    C23      C        0.95567    0.78786    0.96861    1.000
    C24      C        0.99127    0.76642    0.93794    1.000
    C25      C        0.99732    0.67397    0.90513    1.000
    C26      C        0.96776    0.60295    0.90300    1.000
    C27      C        0.93216    0.62439    0.93367    1.000
    C28      C        0.03665    0.65092    0.87572    1.000
    C29      C        0.06045    0.72227    0.84513    1.000
    C30      C        0.09837    0.70177    0.82653    1.000
    C31      C        0.11407    0.60765    0.83673    1.000
    C32      C        0.08999    0.53437    0.86093    1.000
    C33      C        0.05188    0.55554    0.88176    1.000
    C34      C        0.15639    0.58990    0.82510    1.000
    C35      C        0.17299    0.64593    0.76086    1.000
    C36      C        0.21407    0.63567    0.75604    1.000
    C37      C        0.23919    0.56726    0.81805    1.000
    C38      C        0.22259    0.50772    0.87922    1.000
    C39      C        0.18127    0.51675    0.88314    1.000
    C40      C        0.23097    0.69400    0.68160    1.000
    C41      C        0.24994    0.43240    0.94290    1.000
    C42      C        0.88851    0.73830    0.00450    1.000
    La3      La       0.18792    0.21260    0.93863    1.000
    O13      O        0.23195    0.17953    0.81768    1.000
    O14      O        0.29333    0.25192    0.87414    1.000
    O15      O        0.26648    0.85648    0.53268    1.000
    O16      O        0.21213    0.94598    0.53250    1.000
    O17      O        0.63356    0.17089    0.47912    1.000
    O18      O        0.61981    0.32605    0.48291    1.000
    C43      C        0.57389    0.21684    0.53352    1.000
    C44      C        0.54433    0.28786    0.53139    1.000
    C45      C        0.50873    0.26642    0.56206    1.000
    C46      C        0.50268    0.17397    0.59487    1.000
    C47      C        0.53224    0.10295    0.59700    1.000
    C48      C        0.56784    0.12439    0.56633    1.000
    C49      C        0.46335    0.15092    0.62428    1.000
    C50      C        0.43955    0.22227    0.65487    1.000
    C51      C        0.40163    0.20177    0.67347    1.000
    C52      C        0.38593    0.10765    0.66327    1.000
    C53      C        0.41001    0.03437    0.63907    1.000
    C54      C        0.44812    0.05554    0.61824    1.000
    C55      C        0.34361    0.08990    0.67490    1.000
    C56      C        0.32701    0.14593    0.73914    1.000
    C57      C        0.28593    0.13567    0.74396    1.000
    C58      C        0.26081    0.06726    0.68195    1.000
    C59      C        0.27741    0.00772    0.62078    1.000
    C60      C        0.31873    0.01675    0.61686    1.000
    C61      C        0.26903    0.19400    0.81840    1.000
    C62      C        0.25006    0.93240    0.55710    1.000
    C63      C        0.61149    0.23830    0.49550    1.000
    La4      La       0.68792    0.71260    0.93863    1.000
    O19      O        0.73195    0.67953    0.81768    1.000
    O20      O        0.79333    0.75192    0.87414    1.000
    O21      O        0.76648    0.35648    0.53268    1.000
    O22      O        0.71213    0.44598    0.53250    1.000
    O23      O        0.13356    0.67089    0.47912    1.000
    O24      O        0.11981    0.82605    0.48291    1.000
    C64      C        0.07389    0.71684    0.53352    1.000
    C65      C        0.04433    0.78786    0.53139    1.000
    C66      C        0.00873    0.76642    0.56206    1.000
    C67      C        0.00268    0.67397    0.59487    1.000
    C68      C        0.03224    0.60295    0.59700    1.000
    C69      C        0.06784    0.62439    0.56633    1.000
    C70      C        0.96335    0.65092    0.62428    1.000
    C71      C        0.93955    0.72227    0.65487    1.000
    C72      C        0.90163    0.70177    0.67347    1.000
    C73      C        0.88593    0.60765    0.66327    1.000
    C74      C        0.91001    0.53437    0.63907    1.000
    C75      C        0.94812    0.55554    0.61824    1.000
    C76      C        0.84361    0.58990    0.67490    1.000
    C77      C        0.82701    0.64593    0.73914    1.000
    C78      C        0.78593    0.63567    0.74396    1.000
    C79      C        0.76081    0.56726    0.68195    1.000
    C80      C        0.77741    0.50772    0.62078    1.000
    C81      C        0.81873    0.51675    0.61686    1.000
    C82      C        0.76903    0.69400    0.81840    1.000
    C83      C        0.75006    0.43240    0.55710    1.000
    C84      C        0.11149    0.73830    0.49550    1.000
    La5      La       0.18792    0.78740    0.43863    1.000
    O25      O        0.23195    0.82047    0.31768    1.000
    O26      O        0.29333    0.74808    0.37414    1.000
    O27      O        0.26648    0.14352    0.03268    1.000
    O28      O        0.21213    0.05402    0.03250    1.000
    O29      O        0.63356    0.82911    0.97912    1.000
    O30      O        0.61981    0.67395    0.98291    1.000
    C85      C        0.57389    0.78316    0.03352    1.000
    C86      C        0.54433    0.71214    0.03139    1.000
    C87      C        0.50873    0.73358    0.06206    1.000
    C88      C        0.50268    0.82603    0.09487    1.000
    C89      C        0.53224    0.89705    0.09700    1.000
    C90      C        0.56784    0.87561    0.06633    1.000
    C91      C        0.46335    0.84908    0.12428    1.000
    C92      C        0.43955    0.77773    0.15487    1.000
    C93      C        0.40163    0.79823    0.17347    1.000
    C94      C        0.38593    0.89235    0.16327    1.000
    C95      C        0.41001    0.96563    0.13907    1.000
    C96      C        0.44812    0.94446    0.11824    1.000
    C97      C        0.34361    0.91010    0.17490    1.000
    C98      C        0.32701    0.85407    0.23914    1.000
    C99      C        0.28593    0.86433    0.24396    1.000
    C100     C        0.26081    0.93274    0.18195    1.000
    C101     C        0.27741    0.99228    0.12078    1.000
    C102     C        0.31873    0.98325    0.11686    1.000
    C103     C        0.26903    0.80600    0.31840    1.000
    C104     C        0.25006    0.06760    0.05710    1.000
    C105     C        0.61149    0.76170    0.99550    1.000
    La6      La       0.68792    0.28740    0.43863    1.000
    O31      O        0.73195    0.32047    0.31768    1.000
    O32      O        0.79333    0.24808    0.37414    1.000
    O33      O        0.76648    0.64352    0.03268    1.000
    O34      O        0.71213    0.55402    0.03250    1.000
    O35      O        0.13356    0.32911    0.97912    1.000
    O36      O        0.11981    0.17395    0.98291    1.000
    C106     C        0.07389    0.28316    0.03352    1.000
    C107     C        0.04433    0.21214    0.03139    1.000
    C108     C        0.00873    0.23358    0.06206    1.000
    C109     C        0.00268    0.32603    0.09487    1.000
    C110     C        0.03224    0.39705    0.09700    1.000
    C111     C        0.06784    0.37561    0.06633    1.000
    C112     C        0.96335    0.34908    0.12428    1.000
    C113     C        0.93955    0.27773    0.15487    1.000
    C114     C        0.90163    0.29823    0.17347    1.000
    C115     C        0.88593    0.39235    0.16327    1.000
    C116     C        0.91001    0.46563    0.13907    1.000
    C117     C        0.94812    0.44446    0.11824    1.000
    C118     C        0.84361    0.41010    0.17490    1.000
    C119     C        0.82701    0.35407    0.23914    1.000
    C120     C        0.78593    0.36433    0.24396    1.000
    C121     C        0.76081    0.43274    0.18195    1.000
    C122     C        0.77741    0.49228    0.12078    1.000
    C123     C        0.81873    0.48325    0.11686    1.000
    C124     C        0.76903    0.30600    0.31840    1.000
    C125     C        0.75006    0.56760    0.05710    1.000
    C126     C        0.11149    0.26170    0.99550    1.000
    La7      La       0.81208    0.78740    0.06137    1.000
    O37      O        0.76805    0.82047    0.18232    1.000
    O38      O        0.70667    0.74808    0.12586    1.000
    O39      O        0.73352    0.14352    0.46732    1.000
    O40      O        0.78787    0.05402    0.46750    1.000
    O41      O        0.36644    0.82911    0.52088    1.000
    O42      O        0.38019    0.67395    0.51709    1.000
    C127     C        0.42611    0.78316    0.46648    1.000
    C128     C        0.45567    0.71214    0.46861    1.000
    C129     C        0.49127    0.73358    0.43794    1.000
    C130     C        0.49732    0.82603    0.40513    1.000
    C131     C        0.46776    0.89705    0.40300    1.000
    C132     C        0.43216    0.87561    0.43367    1.000
    C133     C        0.53665    0.84908    0.37572    1.000
    C134     C        0.56045    0.77773    0.34513    1.000
    C135     C        0.59837    0.79823    0.32653    1.000
    C136     C        0.61407    0.89235    0.33673    1.000
    C137     C        0.58999    0.96563    0.36093    1.000
    C138     C        0.55188    0.94446    0.38176    1.000
    C139     C        0.65639    0.91010    0.32510    1.000
    C140     C        0.67299    0.85407    0.26086    1.000
    C141     C        0.71407    0.86433    0.25604    1.000
    C142     C        0.73919    0.93274    0.31805    1.000
    C143     C        0.72259    0.99228    0.37922    1.000
    C144     C        0.68127    0.98325    0.38314    1.000
    C145     C        0.73097    0.80600    0.18160    1.000
    C146     C        0.74994    0.06760    0.44290    1.000
    C147     C        0.38851    0.76170    0.50450    1.000
    La8      La       0.31208    0.28740    0.06137    1.000
    O43      O        0.26805    0.32047    0.18232    1.000
    O44      O        0.20667    0.24808    0.12586    1.000
    O45      O        0.23352    0.64352    0.46732    1.000
    O46      O        0.28787    0.55402    0.46750    1.000
    O47      O        0.86644    0.32911    0.52088    1.000
    O48      O        0.88019    0.17395    0.51709    1.000
    C148     C        0.92611    0.28316    0.46648    1.000
    C149     C        0.95567    0.21214    0.46861    1.000
    C150     C        0.99127    0.23358    0.43794    1.000
    C151     C        0.99732    0.32603    0.40513    1.000
    C152     C        0.96776    0.39705    0.40300    1.000
    C153     C        0.93216    0.37561    0.43367    1.000
    C154     C        0.03665    0.34908    0.37572    1.000
    C155     C        0.06045    0.27773    0.34513    1.000
    C156     C        0.09837    0.29823    0.32653    1.000
    C157     C        0.11407    0.39235    0.33673    1.000
    C158     C        0.08999    0.46563    0.36093    1.000
    C159     C        0.05188    0.44446    0.38176    1.000
    C160     C        0.15639    0.41010    0.32510    1.000
    C161     C        0.17299    0.35407    0.26086    1.000
    C162     C        0.21407    0.36433    0.25604    1.000
    C163     C        0.23919    0.43274    0.31805    1.000
    C164     C        0.22259    0.49228    0.37922    1.000
    C165     C        0.18127    0.48325    0.38314    1.000
    C166     C        0.23097    0.30600    0.18160    1.000
    C167     C        0.24994    0.56760    0.44290    1.000
    C168     C        0.88851    0.26170    0.50450    1.000
