data_functionalizedCrystal
_audit_creation_method	'EQeq! by Chris Wilmer'
_symmetry_space_group_name_H-M	'P1'
_symmetry_Int_Tables_number	1
_symmetry_cell_setting	triclinic
loop_
_symmetry_equiv_pos_as_xyz
  x,y,z
_cell_length_a	13.7171
_cell_length_b	13.7171
_cell_length_c	14.813
_cell_angle_alpha	89.7586
_cell_angle_beta	89.7586
_cell_angle_gamma	82.0503
loop_
_atom_site_label
_atom_site_type_symbol
_atom_site_fract_x
_atom_site_fract_y
_atom_site_fract_z
_atom_site_charge
Mof_Co	Co	0.44793	0.29391	0.03892	1.161
Mof_Co	Co	0.45786	0.47584	0.90961	1.157
Mof_Co	Co	0.70609	0.55207	0.46108	1.161
Mof_Co	Co	0.52416	0.54214	0.59039	1.157
Mof_Co	Co	0.55207	0.70609	0.96108	1.16
Mof_Co	Co	0.54214	0.52416	0.09039	1.156
Mof_Co	Co	0.29391	0.44793	0.53892	1.16
Mof_Co	Co	0.47584	0.45786	0.40961	1.156
Mof_H 	H 	0.5865	0.3635	0.989	0.275
Mof_H 	H 	0.0767	0.4513	0.3111	0.032
Mof_H 	H 	0.9875	0.4545	0.1798	0.077
Mof_H 	H 	0.0676	0.4526	0.0414	0.03
Mof_H 	H 	0.5373	0.0843	0.9925	-0.027
Mof_H 	H 	0.6545	0.9603	0.0369	0.136
Mof_H 	H 	0.7447	0.1435	0.2163	0.124
Mof_H 	H 	0.6292	0.2676	0.1611	-0.052
Mof_H 	H 	0.7449	0.8985	0.1926	0.171
Mof_H 	H 	0.8202	0.9158	0.1165	0.157
Mof_H 	H 	0.8185	0.9923	0.2902	-0.054
Mof_H 	H 	0.8893	0.0203	0.2138	-0.06
Mof_H 	H 	0.9796	0.9006	0.2954	0.152
Mof_H 	H 	0.9565	0.8509	0.2045	0.151
Mof_H 	H 	0.9167	0.6903	0.2227	0.128
Mof_H 	H 	0.8442	0.5734	0.303	-0.025
Mof_H 	H 	0.7714	0.759	0.4964	-0.033
Mof_H 	H 	0.8381	0.8813	0.4183	0.127
Mof_H 	H 	0.6365	0.4135	0.511	0.274
Mof_H 	H 	0.5487	0.9233	0.1889	0.033
Mof_H 	H 	0.5455	0.0125	0.3202	0.075
Mof_H 	H 	0.5474	0.9324	0.4586	0.03
Mof_H 	H 	0.9157	0.4627	0.5075	-0.027
Mof_H 	H 	0.0397	0.3455	0.4631	0.135
Mof_H 	H 	0.8565	0.2553	0.2837	0.124
Mof_H 	H 	0.7324	0.3708	0.3389	-0.052
Mof_H 	H 	0.1015	0.2551	0.3074	0.17
Mof_H 	H 	0.0842	0.1798	0.3835	0.156
Mof_H 	H 	0.0077	0.1815	0.2098	-0.053
Mof_H 	H 	0.9797	0.1107	0.2862	-0.059
Mof_H 	H 	0.0994	0.0204	0.2046	0.151
Mof_H 	H 	0.1491	0.0435	0.2955	0.15
Mof_H 	H 	0.3097	0.0833	0.2773	0.128
Mof_H 	H 	0.4266	0.1558	0.197	-0.025
Mof_H 	H 	0.241	0.2286	0.0036	-0.033
Mof_H 	H 	0.1187	0.1619	0.0817	0.126
Mof_H 	H 	0.4135	0.6365	0.011	0.275
Mof_H 	H 	0.9233	0.5487	0.6889	0.032
Mof_H 	H 	0.0125	0.5455	0.8202	0.077
Mof_H 	H 	0.9324	0.5474	0.9586	0.03
Mof_H 	H 	0.4627	0.9157	0.0075	-0.027
Mof_H 	H 	0.3455	0.0397	0.9631	0.136
Mof_H 	H 	0.2553	0.8565	0.7837	0.124
Mof_H 	H 	0.3708	0.7324	0.8389	-0.052
Mof_H 	H 	0.2551	0.1015	0.8074	0.171
Mof_H 	H 	0.1798	0.0842	0.8835	0.157
Mof_H 	H 	0.1815	0.0077	0.7098	-0.054
Mof_H 	H 	0.1107	0.9797	0.7862	-0.06
Mof_H 	H 	0.0204	0.0994	0.7046	0.152
Mof_H 	H 	0.0435	0.1491	0.7955	0.151
Mof_H 	H 	0.0833	0.3097	0.7773	0.128
Mof_H 	H 	0.1558	0.4266	0.697	-0.025
Mof_H 	H 	0.2286	0.241	0.5036	-0.033
Mof_H 	H 	0.1619	0.1187	0.5817	0.127
Mof_H 	H 	0.3635	0.5865	0.489	0.274
Mof_H 	H 	0.4513	0.0767	0.8111	0.033
Mof_H 	H 	0.4545	0.9875	0.6798	0.075
Mof_H 	H 	0.4526	0.0676	0.5414	0.03
Mof_H 	H 	0.0843	0.5373	0.4925	-0.027
Mof_H 	H 	0.9603	0.6545	0.5369	0.135
Mof_H 	H 	0.1435	0.7447	0.7163	0.124
Mof_H 	H 	0.2676	0.6292	0.6611	-0.052
Mof_H 	H 	0.8985	0.7449	0.6926	0.17
Mof_H 	H 	0.9158	0.8202	0.6165	0.156
Mof_H 	H 	0.9923	0.8185	0.7902	-0.053
Mof_H 	H 	0.0203	0.8893	0.7138	-0.059
Mof_H 	H 	0.9006	0.9796	0.7954	0.151
Mof_H 	H 	0.8509	0.9565	0.7045	0.15
Mof_H 	H 	0.6903	0.9167	0.7227	0.128
Mof_H 	H 	0.5734	0.8442	0.803	-0.025
Mof_H 	H 	0.759	0.7714	0.9964	-0.033
Mof_H 	H 	0.8813	0.8381	0.9183	0.126
Mof_C 	C 	0.206	0.4458	0.0901	-0.114
Mof_C 	C 	0.2603	0.4421	0.1704	0.002
Mof_C 	C 	0.2115	0.4445	0.2533	-0.094
Mof_C 	C 	0.1091	0.4495	0.2557	0.024
Mof_C 	C 	0.0556	0.452	0.1775	-0.105
Mof_C 	C 	0.1039	0.4505	0.0945	0.036
Mof_C 	C 	0.2526	0.4514	0.999	0.358
Mof_C 	C 	0.3719	0.4391	0.1631	0.316
Mof_C 	C 	0.2675	0.4467	0.3394	0.373
Mof_C 	C 	0.58	0.0966	0.0385	0.156
Mof_C 	C 	0.6497	0.0213	0.065	-0.293
Mof_C 	C 	0.7124	0.0362	0.1331	0.266
Mof_C 	C 	0.7032	0.1302	0.1699	-0.276
Mof_C 	C 	0.6323	0.2045	0.1377	0.153
Mof_C 	C 	0.7837	0.9463	0.1677	-0.449
Mof_C 	C 	0.854	0.9684	0.2361	0.264
Mof_C 	C 	0.9273	0.8793	0.2598	-0.443
Mof_C 	C 	0.8837	0.7995	0.3123	0.274
Mof_C 	C 	0.8864	0.7066	0.278	-0.281
Mof_C 	C 	0.843	0.636	0.3273	0.153
Mof_C 	C 	0.7999	0.7445	0.4401	0.149
Mof_C 	C 	0.8408	0.819	0.3932	-0.288
Mof_C 	C 	0.5542	0.794	0.4099	-0.113
Mof_C 	C 	0.5579	0.7397	0.3296	0.002
Mof_C 	C 	0.5555	0.7885	0.2467	-0.093
Mof_C 	C 	0.5505	0.8909	0.2443	0.022
Mof_C 	C 	0.548	0.9444	0.3225	-0.103
Mof_C 	C 	0.5495	0.8961	0.4055	0.034
Mof_C 	C 	0.5486	0.7474	0.501	0.357
Mof_C 	C 	0.5609	0.6281	0.3369	0.316
Mof_C 	C 	0.5533	0.7325	0.1606	0.372
Mof_C 	C 	0.9034	0.42	0.4615	0.156
Mof_C 	C 	0.9787	0.3503	0.435	-0.291
Mof_C 	C 	0.9638	0.2876	0.3669	0.265
Mof_C 	C 	0.8698	0.2968	0.3301	-0.276
Mof_C 	C 	0.7955	0.3677	0.3623	0.152
Mof_C 	C 	0.0537	0.2163	0.3323	-0.448
Mof_C 	C 	0.0316	0.146	0.2639	0.262
Mof_C 	C 	0.1207	0.0727	0.2402	-0.441
Mof_C 	C 	0.2005	0.1163	0.1877	0.273
Mof_C 	C 	0.2934	0.1136	0.222	-0.28
Mof_C 	C 	0.364	0.157	0.1727	0.153
Mof_C 	C 	0.2555	0.2001	0.0599	0.149
Mof_C 	C 	0.181	0.1592	0.1068	-0.287
Mof_C 	C 	0.794	0.5542	0.9099	-0.114
Mof_C 	C 	0.7397	0.5579	0.8296	0.002
Mof_C 	C 	0.7885	0.5555	0.7467	-0.094
Mof_C 	C 	0.8909	0.5505	0.7443	0.024
Mof_C 	C 	0.9444	0.548	0.8225	-0.105
Mof_C 	C 	0.8961	0.5495	0.9055	0.036
Mof_C 	C 	0.7474	0.5486	0.001	0.358
Mof_C 	C 	0.6281	0.5609	0.8369	0.316
Mof_C 	C 	0.7325	0.5533	0.6606	0.373
Mof_C 	C 	0.42	0.9034	0.9615	0.156
Mof_C 	C 	0.3503	0.9787	0.935	-0.293
Mof_C 	C 	0.2876	0.9638	0.8669	0.266
Mof_C 	C 	0.2968	0.8698	0.8301	-0.276
Mof_C 	C 	0.3677	0.7955	0.8623	0.153
Mof_C 	C 	0.2163	0.0537	0.8323	-0.449
Mof_C 	C 	0.146	0.0316	0.7639	0.264
Mof_C 	C 	0.0727	0.1207	0.7402	-0.443
Mof_C 	C 	0.1163	0.2005	0.6877	0.274
Mof_C 	C 	0.1136	0.2934	0.722	-0.281
Mof_C 	C 	0.157	0.364	0.6727	0.153
Mof_C 	C 	0.2001	0.2555	0.5599	0.149
Mof_C 	C 	0.1592	0.181	0.6068	-0.288
Mof_C 	C 	0.4458	0.206	0.5901	-0.113
Mof_C 	C 	0.4421	0.2603	0.6704	0.002
Mof_C 	C 	0.4445	0.2115	0.7533	-0.093
Mof_C 	C 	0.4495	0.1091	0.7557	0.022
Mof_C 	C 	0.452	0.0556	0.6775	-0.103
Mof_C 	C 	0.4505	0.1039	0.5945	0.034
Mof_C 	C 	0.4514	0.2526	0.499	0.357
Mof_C 	C 	0.4391	0.3719	0.6631	0.316
Mof_C 	C 	0.4467	0.2675	0.8394	0.372
Mof_C 	C 	0.0966	0.58	0.5385	0.156
Mof_C 	C 	0.0213	0.6497	0.565	-0.291
Mof_C 	C 	0.0362	0.7124	0.6331	0.265
Mof_C 	C 	0.1302	0.7032	0.6699	-0.276
Mof_C 	C 	0.2045	0.6323	0.6377	0.152
Mof_C 	C 	0.9463	0.7837	0.6677	-0.448
Mof_C 	C 	0.9684	0.854	0.7361	0.262
Mof_C 	C 	0.8793	0.9273	0.7598	-0.441
Mof_C 	C 	0.7995	0.8837	0.8123	0.273
Mof_C 	C 	0.7066	0.8864	0.778	-0.28
Mof_C 	C 	0.636	0.843	0.8273	0.153
Mof_C 	C 	0.7445	0.7999	0.9401	0.149
Mof_C 	C 	0.819	0.8408	0.8932	-0.287
Mof_N 	N 	0.5689	0.1873	0.0744	-0.272
Mof_N 	N 	0.8003	0.6549	0.4071	-0.252
Mof_N 	N 	0.8127	0.4311	0.4256	-0.272
Mof_N 	N 	0.3451	0.1997	0.0929	-0.252
Mof_N 	N 	0.4311	0.8127	0.9256	-0.272
Mof_N 	N 	0.1997	0.3451	0.5929	-0.252
Mof_N 	N 	0.1873	0.5689	0.5744	-0.272
Mof_N 	N 	0.6549	0.8003	0.9071	-0.252
Mof_O 	O 	0.53825	0.39931	0.013	-0.789
Mof_O 	O 	0.34297	0.41617	0.9905	-0.51
Mof_O 	O 	0.2018	0.4912	0.9364	-0.293
Mof_O 	O 	0.42452	0.35534	0.1683	-0.418
Mof_O 	O 	0.40288	0.51868	0.1488	-0.399
Mof_O 	O 	0.3556	0.46	0.3305	-0.437
Mof_O 	O 	0.22478	0.43818	0.4146	-0.434
Mof_O 	O 	0.60069	0.46175	0.487	-0.789
Mof_O 	O 	0.58383	0.65703	0.5095	-0.51
Mof_O 	O 	0.5088	0.7982	0.5636	-0.293
Mof_O 	O 	0.64466	0.57548	0.3317	-0.418
Mof_O 	O 	0.48132	0.59712	0.3512	-0.399
Mof_O 	O 	0.54	0.6444	0.1695	-0.437
Mof_O 	O 	0.56182	0.77522	0.0854	-0.434
Mof_O 	O 	0.46175	0.60069	0.987	-0.789
Mof_O 	O 	0.65703	0.58383	0.0095	-0.51
Mof_O 	O 	0.7982	0.5088	0.0636	-0.293
Mof_O 	O 	0.57548	0.64466	0.8317	-0.418
Mof_O 	O 	0.59712	0.48132	0.8512	-0.399
Mof_O 	O 	0.6444	0.54	0.6695	-0.437
Mof_O 	O 	0.77522	0.56182	0.5854	-0.434
Mof_O 	O 	0.39931	0.53825	0.513	-0.789
Mof_O 	O 	0.41617	0.34297	0.4905	-0.51
Mof_O 	O 	0.4912	0.2018	0.4364	-0.293
Mof_O 	O 	0.35534	0.42452	0.6683	-0.418
Mof_O 	O 	0.51868	0.40288	0.6488	-0.399
Mof_O 	O 	0.46	0.3556	0.8305	-0.437
Mof_O 	O 	0.43818	0.22478	0.9146	-0.434
_end
