# CIF file generated by openbabel 3.1.0, see https://openbabel.org
data_I
_chemical_name_common 'image0'
_cell_length_a 18.4468
_cell_length_b 13.2575
_cell_length_c 21.8586
_cell_angle_alpha 90
_cell_angle_beta 99.491
_cell_angle_gamma 90
_space_group_name_H-M_alt 'P 1'
_space_group_name_Hall 'P 1'
loop_
    _symmetry_equiv_pos_as_xyz
    x,y,z
loop_
    _atom_site_label
    _atom_site_type_symbol
    _atom_site_fract_x
    _atom_site_fract_y
    _atom_site_fract_z
    _atom_site_occupancy
    Cd1      Cd       0.81597    0.42180    0.57492    1.000
    Cd2      Cd       0.70791    0.19303    0.47145    1.000
    N1       N        0.91090    0.36830    0.45410    1.000
    N2       N        0.85730    0.34110    0.48580    1.000
    N3       N        0.81620    0.27160    0.45450    1.000
    N4       N        0.83980    0.25350    0.40090    1.000
    N5       N        0.00230    0.34520    0.24120    1.000
    N6       N        0.79690    0.65670    0.52700    1.000
    N7       N        0.84020    0.57620    0.52870    1.000
    N8       N        0.90010    0.60000    0.50660    1.000
    N9       N        0.89750    0.69830    0.49040    1.000
    N10      N        0.75290    0.02970    0.47590    1.000
    N11      N        0.45900    0.12450    0.17790    1.000
    N12      N        0.43990    0.09480    0.11970    1.000
    N13      N        0.49870    0.06550    0.09760    1.000
    N14      N        0.55830    0.07670    0.14090    1.000
    N15      N        0.65570    0.17470    0.36800    1.000
    N16      N        0.71360    0.74410    0.82720    1.000
    N17      N        0.71750    0.76820    0.88690    1.000
    N18      N        0.75760    0.69800    0.92130    1.000
    N19      N        0.78050    0.63000    0.88450    1.000
    N20      N        0.79160    0.50590    0.66480    1.000
    O1       O        0.69650    0.44990    0.53800    1.000
    O2       O        0.64870    0.33960    0.46730    1.000
    C1       C        0.64460    0.41230    0.50270    1.000
    C2       C        0.57020    0.45940    0.50070    1.000
    C3       C        0.50890    0.41890    0.46560    1.000
    H1       H        0.51380    0.36100    0.44250    1.000
    C4       C        0.56050    0.53920    0.53700    1.000
    H2       H        0.60030    0.56610    0.56360    1.000
    C5       C        0.89780    0.31250    0.40100    1.000
    C6       C        0.93080    0.33980    0.23650    1.000
    H3       H        0.90270    0.34540    0.19720    1.000
    C7       C        0.89330    0.32600    0.28780    1.000
    H4       H        0.84250    0.31870    0.28170    1.000
    C8       C        0.93460    0.32350    0.34780    1.000
    C9       C        0.00960    0.33440    0.35150    1.000
    H5       H        0.03900    0.33770    0.39030    1.000
    C10      C        0.04170    0.34040    0.29950    1.000
    H6       H        0.09270    0.34130    0.30420    1.000
    C11      C        0.83390    0.73070    0.50320    1.000
    C12      C        0.72440    0.96560    0.51310    1.000
    H7       H        0.68900    0.98980    0.53520    1.000
    C13      C        0.74490    0.86480    0.52050    1.000
    H8       H        0.71980    0.82010    0.54220    1.000
    C14      C        0.80560    0.83340    0.49350    1.000
    C15      C        0.84040    0.90300    0.46170    1.000
    H9       H        0.88310    0.88700    0.44630    1.000
    C16      C        0.80890    0.99800    0.45370    1.000
    H10      H        0.83050    0.04370    0.42980    1.000
    C17      C        0.53220    0.11310    0.18930    1.000
    C18      C        0.58660    0.20900    0.35020    1.000
    H11      H        0.56550    0.24680    0.37840    1.000
    C19      C        0.54620    0.19170    0.29360    1.000
    H12      H        0.49880    0.21740    0.28380    1.000
    C20      C        0.57650    0.13460    0.25020    1.000
    C21      C        0.64570    0.10330    0.26720    1.000
    H13      H        0.66870    0.06760    0.23920    1.000
    C22      C        0.68400    0.12360    0.32660    1.000
    H14      H        0.73180    0.09950    0.33720    1.000
    C23      C        0.75180    0.66060    0.82670    1.000
    C24      C        0.81720    0.47020    0.72190    1.000
    H15      H        0.84400    0.41040    0.72550    1.000
    C25      C        0.80570    0.51790    0.77480    1.000
    H16      H        0.82470    0.49060    0.81340    1.000
    C26      C        0.76590    0.60690    0.77120    1.000
    C27      C        0.73980    0.64250    0.71260    1.000
    H17      H        0.71240    0.70170    0.70740    1.000
    C28      C        0.75450    0.59010    0.66190    1.000
    H18      H        0.73690    0.61640    0.62280    1.000
    C29      C        0.70910    0.95000    0.46850    1.000
    H19      H        0.65880    0.96120    0.45770    1.000
    C30      C        0.73260    0.85400    0.47600    1.000
    H20      H        0.69890    0.80170    0.46830    1.000
    C31      C        0.85500    0.91300    0.50100    1.000
    H21      H        0.90520    0.90370    0.51410    1.000
    C32      C        0.82300    0.01100    0.48900    1.000
    H22      H        0.85540    0.06500    0.49040    1.000
    Cd3      Cd       0.68403    0.92180    0.92508    1.000
    Cd4      Cd       0.79209    0.69303    0.02855    1.000
    N21      N        0.58910    0.86830    0.04590    1.000
    N22      N        0.64270    0.84110    0.01420    1.000
    N23      N        0.68380    0.77160    0.04550    1.000
    N24      N        0.66020    0.75350    0.09910    1.000
    N25      N        0.49770    0.84520    0.25880    1.000
    N26      N        0.70310    0.15670    0.97300    1.000
    N27      N        0.65980    0.07620    0.97130    1.000
    N28      N        0.59990    0.10000    0.99340    1.000
    N29      N        0.60250    0.19830    0.00960    1.000
    N30      N        0.74710    0.52970    0.02410    1.000
    N31      N        0.04100    0.62450    0.32210    1.000
    N32      N        0.06010    0.59480    0.38030    1.000
    N33      N        0.00130    0.56550    0.40240    1.000
    N34      N        0.94170    0.57670    0.35910    1.000
    N35      N        0.84430    0.67470    0.13200    1.000
    N36      N        0.78640    0.24410    0.67280    1.000
    N37      N        0.78250    0.26820    0.61310    1.000
    N38      N        0.74240    0.19800    0.57870    1.000
    N39      N        0.71950    0.13000    0.61550    1.000
    N40      N        0.70840    0.00590    0.83520    1.000
    O3       O        0.80350    0.94990    0.96200    1.000
    O4       O        0.85130    0.83960    0.03270    1.000
    C33      C        0.85540    0.91230    0.99730    1.000
    C34      C        0.92980    0.95940    0.99930    1.000
    C35      C        0.99110    0.91890    0.03440    1.000
    H23      H        0.98620    0.86100    0.05750    1.000
    C36      C        0.93950    0.03920    0.96300    1.000
    H24      H        0.89970    0.06610    0.93640    1.000
    C37      C        0.60220    0.81250    0.09900    1.000
    C38      C        0.56920    0.83980    0.26350    1.000
    H25      H        0.59730    0.84540    0.30280    1.000
    C39      C        0.60670    0.82600    0.21220    1.000
    H26      H        0.65750    0.81870    0.21830    1.000
    C40      C        0.56540    0.82350    0.15220    1.000
    C41      C        0.49040    0.83440    0.14850    1.000
    H27      H        0.46100    0.83770    0.10970    1.000
    C42      C        0.45830    0.84040    0.20050    1.000
    H28      H        0.40730    0.84130    0.19580    1.000
    C43      C        0.66610    0.23070    0.99680    1.000
    C44      C        0.77560    0.46560    0.98690    1.000
    H29      H        0.81100    0.48980    0.96480    1.000
    C45      C        0.75510    0.36480    0.97950    1.000
    H30      H        0.78020    0.32010    0.95780    1.000
    C46      C        0.69440    0.33340    0.00650    1.000
    C47      C        0.65960    0.40300    0.03830    1.000
    H31      H        0.61690    0.38700    0.05370    1.000
    C48      C        0.69110    0.49800    0.04630    1.000
    H32      H        0.66950    0.54370    0.07020    1.000
    C49      C        0.96780    0.61310    0.31070    1.000
    C50      C        0.91340    0.70900    0.14980    1.000
    H33      H        0.93450    0.74680    0.12160    1.000
    C51      C        0.95380    0.69170    0.20640    1.000
    H34      H        0.00120    0.71740    0.21620    1.000
    C52      C        0.92350    0.63460    0.24980    1.000
    C53      C        0.85430    0.60330    0.23280    1.000
    H35      H        0.83130    0.56760    0.26080    1.000
    C54      C        0.81600    0.62360    0.17340    1.000
    H36      H        0.76820    0.59950    0.16280    1.000
    C55      C        0.74820    0.16060    0.67330    1.000
    C56      C        0.68280    0.97020    0.77810    1.000
    H37      H        0.65600    0.91040    0.77450    1.000
    C57      C        0.69430    0.01790    0.72520    1.000
    H38      H        0.67530    0.99060    0.68660    1.000
    C58      C        0.73410    0.10690    0.72880    1.000
    C59      C        0.76020    0.14250    0.78740    1.000
    H39      H        0.78760    0.20170    0.79260    1.000
    C60      C        0.74550    0.09010    0.83810    1.000
    H40      H        0.76310    0.11640    0.87720    1.000
    C61      C        0.79090    0.45000    0.03150    1.000
    H41      H        0.84120    0.46120    0.04230    1.000
    C62      C        0.76740    0.35400    0.02400    1.000
    H42      H        0.80110    0.30170    0.03170    1.000
    C63      C        0.64500    0.41300    0.99900    1.000
    H43      H        0.59480    0.40370    0.98590    1.000
    C64      C        0.67700    0.51100    0.01100    1.000
    H44      H        0.64460    0.56500    0.00960    1.000
    Cd5      Cd       0.18403    0.57820    0.42508    1.000
    Cd6      Cd       0.29209    0.80697    0.52855    1.000
    N41      N        0.08910    0.63170    0.54590    1.000
    N42      N        0.14270    0.65890    0.51420    1.000
    N43      N        0.18380    0.72840    0.54550    1.000
    N44      N        0.16020    0.74650    0.59910    1.000
    N45      N        0.99770    0.65480    0.75880    1.000
    N46      N        0.20310    0.34330    0.47300    1.000
    N47      N        0.15980    0.42380    0.47130    1.000
    N48      N        0.09990    0.40000    0.49340    1.000
    N49      N        0.10250    0.30170    0.50960    1.000
    N50      N        0.24710    0.97030    0.52410    1.000
    N51      N        0.54100    0.87550    0.82210    1.000
    N52      N        0.56010    0.90520    0.88030    1.000
    N53      N        0.50130    0.93450    0.90240    1.000
    N54      N        0.44170    0.92330    0.85910    1.000
    N55      N        0.34430    0.82530    0.63200    1.000
    N56      N        0.28640    0.25590    0.17280    1.000
    N57      N        0.28250    0.23180    0.11310    1.000
    N58      N        0.24240    0.30200    0.07870    1.000
    N59      N        0.21950    0.37000    0.11550    1.000
    N60      N        0.20840    0.49410    0.33520    1.000
    O5       O        0.30350    0.55010    0.46200    1.000
    O6       O        0.35130    0.66040    0.53270    1.000
    C65      C        0.35540    0.58770    0.49730    1.000
    C66      C        0.42980    0.54060    0.49930    1.000
    C67      C        0.49110    0.58110    0.53440    1.000
    H45      H        0.48620    0.63900    0.55750    1.000
    C68      C        0.43950    0.46080    0.46300    1.000
    H46      H        0.39970    0.43390    0.43640    1.000
    C69      C        0.10220    0.68750    0.59900    1.000
    C70      C        0.06920    0.66020    0.76350    1.000
    H47      H        0.09730    0.65460    0.80280    1.000
    C71      C        0.10670    0.67400    0.71220    1.000
    H48      H        0.15750    0.68130    0.71830    1.000
    C72      C        0.06540    0.67650    0.65220    1.000
    C73      C        0.99040    0.66560    0.64850    1.000
    H49      H        0.96100    0.66230    0.60970    1.000
    C74      C        0.95830    0.65960    0.70050    1.000
    H50      H        0.90730    0.65870    0.69580    1.000
    C75      C        0.16610    0.26930    0.49680    1.000
    C76      C        0.27560    0.03440    0.48690    1.000
    H51      H        0.31100    0.01020    0.46480    1.000
    C77      C        0.25510    0.13520    0.47950    1.000
    H52      H        0.28020    0.17990    0.45780    1.000
    C78      C        0.19440    0.16660    0.50650    1.000
    C79      C        0.15960    0.09700    0.53830    1.000
    H53      H        0.11690    0.11300    0.55370    1.000
    C80      C        0.19110    0.00200    0.54630    1.000
    H54      H        0.16950    0.95630    0.57020    1.000
    C81      C        0.46780    0.88690    0.81070    1.000
    C82      C        0.41340    0.79100    0.64980    1.000
    H55      H        0.43450    0.75320    0.62160    1.000
    C83      C        0.45380    0.80830    0.70640    1.000
    H56      H        0.50120    0.78260    0.71620    1.000
    C84      C        0.42350    0.86540    0.74980    1.000
    C85      C        0.35430    0.89670    0.73280    1.000
    H57      H        0.33130    0.93240    0.76080    1.000
    C86      C        0.31600    0.87640    0.67340    1.000
    H58      H        0.26820    0.90050    0.66280    1.000
    C87      C        0.24820    0.33940    0.17330    1.000
    C88      C        0.18280    0.52980    0.27810    1.000
    H59      H        0.15600    0.58960    0.27450    1.000
    C89      C        0.19430    0.48210    0.22520    1.000
    H60      H        0.17530    0.50940    0.18660    1.000
    C90      C        0.23410    0.39310    0.22880    1.000
    C91      C        0.26020    0.35750    0.28740    1.000
    H61      H        0.28760    0.29830    0.29260    1.000
    C92      C        0.24550    0.40990    0.33810    1.000
    H62      H        0.26310    0.38360    0.37720    1.000
    C93      C        0.29090    0.05000    0.53150    1.000
    H63      H        0.34120    0.03880    0.54230    1.000
    C94      C        0.26740    0.14600    0.52400    1.000
    H64      H        0.30110    0.19830    0.53170    1.000
    C95      C        0.14500    0.08700    0.49900    1.000
    H65      H        0.09480    0.09630    0.48590    1.000
    C96      C        0.17700    0.98900    0.51100    1.000
    H66      H        0.14460    0.93500    0.50960    1.000
    Cd7      Cd       0.31597    0.07820    0.07492    1.000
    Cd8      Cd       0.20791    0.30697    0.97145    1.000
    N61      N        0.41090    0.13170    0.95410    1.000
    N62      N        0.35730    0.15890    0.98580    1.000
    N63      N        0.31620    0.22840    0.95450    1.000
    N64      N        0.33980    0.24650    0.90090    1.000
    N65      N        0.50230    0.15480    0.74120    1.000
    N66      N        0.29690    0.84330    0.02700    1.000
    N67      N        0.34020    0.92380    0.02870    1.000
    N68      N        0.40010    0.90000    0.00660    1.000
    N69      N        0.39750    0.80170    0.99040    1.000
    N70      N        0.25290    0.47030    0.97590    1.000
    N71      N        0.95900    0.37550    0.67790    1.000
    N72      N        0.93990    0.40520    0.61970    1.000
    N73      N        0.99870    0.43450    0.59760    1.000
    N74      N        0.05830    0.42330    0.64090    1.000
    N75      N        0.15570    0.32530    0.86800    1.000
    N76      N        0.21360    0.75590    0.32720    1.000
    N77      N        0.21750    0.73180    0.38690    1.000
    N78      N        0.25760    0.80200    0.42130    1.000
    N79      N        0.28050    0.87000    0.38450    1.000
    N80      N        0.29160    0.99410    0.16480    1.000
    O7       O        0.19650    0.05010    0.03800    1.000
    O8       O        0.14870    0.16040    0.96730    1.000
    C97      C        0.14460    0.08770    0.00270    1.000
    C98      C        0.07020    0.04060    0.00070    1.000
    C99      C        0.00890    0.08110    0.96560    1.000
    H67      H        0.01380    0.13900    0.94250    1.000
    C100     C        0.06050    0.96080    0.03700    1.000
    H68      H        0.10030    0.93390    0.06360    1.000
    C101     C        0.39780    0.18750    0.90100    1.000
    C102     C        0.43080    0.16020    0.73650    1.000
    H69      H        0.40270    0.15460    0.69720    1.000
    C103     C        0.39330    0.17400    0.78780    1.000
    H70      H        0.34250    0.18130    0.78170    1.000
    C104     C        0.43460    0.17650    0.84780    1.000
    C105     C        0.50960    0.16560    0.85150    1.000
    H71      H        0.53900    0.16230    0.89030    1.000
    C106     C        0.54170    0.15960    0.79950    1.000
    H72      H        0.59270    0.15870    0.80420    1.000
    C107     C        0.33390    0.76930    0.00320    1.000
    C108     C        0.22440    0.53440    0.01310    1.000
    H73      H        0.18900    0.51020    0.03520    1.000
    C109     C        0.24490    0.63520    0.02050    1.000
    H74      H        0.21980    0.67990    0.04220    1.000
    C110     C        0.30560    0.66660    0.99350    1.000
    C111     C        0.34040    0.59700    0.96170    1.000
    H75      H        0.38310    0.61300    0.94630    1.000
    C112     C        0.30890    0.50200    0.95370    1.000
    H76      H        0.33050    0.45630    0.92980    1.000
    C113     C        0.03220    0.38690    0.68930    1.000
    C114     C        0.08660    0.29100    0.85020    1.000
    H77      H        0.06550    0.25320    0.87840    1.000
    C115     C        0.04620    0.30830    0.79360    1.000
    H78      H        0.99880    0.28260    0.78380    1.000
    C116     C        0.07650    0.36540    0.75020    1.000
    C117     C        0.14570    0.39670    0.76720    1.000
    H79      H        0.16870    0.43240    0.73920    1.000
    C118     C        0.18400    0.37640    0.82660    1.000
    H80      H        0.23180    0.40050    0.83720    1.000
    C119     C        0.25180    0.83940    0.32670    1.000
    C120     C        0.31720    0.02980    0.22190    1.000
    H81      H        0.34400    0.08960    0.22550    1.000
    C121     C        0.30570    0.98210    0.27480    1.000
    H82      H        0.32470    0.00940    0.31340    1.000
    C122     C        0.26590    0.89310    0.27120    1.000
    C123     C        0.23980    0.85750    0.21260    1.000
    H83      H        0.21240    0.79830    0.20740    1.000
    C124     C        0.25450    0.90990    0.16190    1.000
    H84      H        0.23690    0.88360    0.12280    1.000
    C125     C        0.20910    0.55000    0.96850    1.000
    H85      H        0.15880    0.53880    0.95770    1.000
    C126     C        0.23260    0.64600    0.97600    1.000
    H86      H        0.19890    0.69830    0.96830    1.000
    C127     C        0.35500    0.58700    0.00100    1.000
    H87      H        0.40520    0.59630    0.01410    1.000
    C128     C        0.32300    0.48900    0.98900    1.000
    H88      H        0.35540    0.43500    0.99040    1.000
    Cd9      Cd       0.00000    0.50000    0.50000    1.000
    Cd10     Cd       0.50000    0.00000    0.00000    1.000
