# CIF file generated by openbabel 3.1.0, see https://openbabel.org
data_I
_chemical_name_common 'IKETAU_clean'
_cell_length_a 6.1645
_cell_length_b 10.074
_cell_length_c 13.503
_cell_angle_alpha 68.951
_cell_angle_beta 80.872
_cell_angle_gamma 76.667
_space_group_name_H-M_alt 'P 1'
_space_group_name_Hall 'P 1'
loop_
    _symmetry_equiv_pos_as_xyz
    x,y,z
loop_
    _atom_site_label
    _atom_site_type_symbol
    _atom_site_fract_x
    _atom_site_fract_y
    _atom_site_fract_z
    _atom_site_occupancy
    Nd1      Nd       0.82878    0.61541    0.19666    1.000
    Nd2      Nd       0.17122    0.38459    0.80335    1.000
    H1       H        0.32390    0.04690    0.02680    1.000
    H2       H        0.70160    0.32710    0.62930    1.000
    H3       H        0.67610    0.95310    0.97320    1.000
    H4       H        0.29840    0.67290    0.37070    1.000
    C1       C        0.28380    0.76950    0.14050    1.000
    C2       C        0.13360    0.89500    0.06820    1.000
    C3       C        0.19060    0.02940    0.01450    1.000
    C4       C        0.94690    0.38420    0.44090    1.000
    C5       C        0.71020    0.44510    0.47300    1.000
    C6       C        0.61640    0.39880    0.57750    1.000
    C7       C        0.08730    0.44030    0.03380    1.000
    C8       C        0.71620    0.23050    0.85950    1.000
    C9       C        0.86640    0.10500    0.93180    1.000
    C10      C        0.80940    0.97060    0.98550    1.000
    C11      C        0.05310    0.61580    0.55910    1.000
    C12      C        0.28980    0.55490    0.52700    1.000
    C13      C        0.38360    0.60120    0.42250    1.000
    C14      C        0.91270    0.55970    0.96620    1.000
    N1       N        0.94020    0.86590    0.05440    1.000
    N2       N        0.59240    0.54570    0.39460    1.000
    N3       N        0.05980    0.13410    0.94560    1.000
    N4       N        0.40760    0.45430    0.60540    1.000
    O1       O        0.21210    0.65430    0.18460    1.000
    O2       O        0.47380    0.78760    0.14960    1.000
    O3       O        0.01180    0.43090    0.34380    1.000
    O4       O        0.06470    0.29250    0.51140    1.000
    O5       O        0.08290    0.43080    0.12890    1.000
    O6       O        0.22060    0.36310    0.98780    1.000
    O7       O        0.78790    0.34570    0.81540    1.000
    O8       O        0.52620    0.21240    0.85040    1.000
    O9       O        0.98820    0.56910    0.65620    1.000
    O10      O        0.93530    0.70750    0.48860    1.000
    O11      O        0.91710    0.56920    0.87110    1.000
    O12      O        0.77940    0.63690    0.01220    1.000
