data_functionalizedCrystal
_audit_creation_method	'EQeq! by Chris Wilmer'
_symmetry_space_group_name_H-M	'P1'
_symmetry_Int_Tables_number	1
_symmetry_cell_setting	triclinic
loop_
_symmetry_equiv_pos_as_xyz
  x,y,z
_cell_length_a	28.0996
_cell_length_b	13.8122
_cell_length_c	22.4619
_cell_angle_alpha	90
_cell_angle_beta	99.3566
_cell_angle_gamma	90
loop_
_atom_site_label
_atom_site_type_symbol
_atom_site_fract_x
_atom_site_fract_y
_atom_site_fract_z
_atom_site_charge
Mof_Tb	Tb	0.0332	0.37557	0.04244	2.085
Mof_Co	Co	0.26261	0.61682	0.85187	1.117
Mof_Cl	Cl	0.22567	0.77213	0.83415	-0.515
Mof_O 	O 	0.99897	0.53684	0.05741	-1.101
Mof_O 	O 	0.08685	0.47749	0.90799	-0.348
Mof_N 	N 	0.22626	0.5857	0.92525	-0.236
Mof_O 	O 	0.07814	0.5548	0.63037	-0.48
Mof_O 	O 	0.07807	0.64898	0.71114	-0.296
Mof_O 	O 	0.09723	0.4472	0.00713	-0.51
Mof_O 	O 	0.4517	0.83926	0.01642	-0.545
Mof_N 	N 	0.21221	0.5438	0.78704	-0.238
Mof_C 	C 	0.18251	0.5456	0.92038	0.106
Mof_H 	H 	0.1662	0.5312	0.882	-0
Mof_C 	C 	0.1602	0.5243	0.96897	-0.163
Mof_C 	C 	0.29731	0.6568	0.9817	0.074
Mof_O 	O 	0.39844	0.3605	0.98555	-0.319
Mof_C 	C 	0.2497	0.6089	0.98072	0.071
Mof_C 	C 	0.18453	0.5477	0.02625	0.093
Mof_H 	H 	0.1708	0.5341	0.0603	0.018
Mof_O 	O 	0.4065	0.23601	0.92422	-0.523
Mof_N 	N 	0.31074	0.6696	0.92712	-0.247
Mof_C 	C 	0.36836	0.7373	0.03093	0.097
Mof_H 	H 	0.3882	0.7583	0.0658	0.008
Mof_C 	C 	0.42515	0.8139	0.96796	0.417
Mof_C 	C 	0.32555	0.4371	0.89634	0.095
Mof_H 	H 	0.3415	0.4795	0.925	-0.006
Mof_C 	C 	0.32556	0.6883	0.0346	-0.154
Mof_H 	H 	0.3161	0.677	0.0718	0.111
Mof_N 	N 	0.28764	0.4702	0.85777	-0.247
Mof_C 	C 	0.11056	0.4796	0.9599	0.434
Mof_C 	C 	0.38101	0.7544	0.97474	-0.173
Mof_C 	C 	0.17212	0.5846	0.75629	0.072
Mof_H 	H 	0.1655	0.6489	0.7641	0.024
Mof_C 	C 	0.35164	0.7187	0.92459	0.106
Mof_H 	H 	0.3605	0.7292	0.887	-0.02
Mof_C 	C 	0.09515	0.5841	0.6823	0.398
Mof_C 	C 	0.22945	0.5915	0.03204	-0.15
Mof_H 	H 	0.2458	0.609	0.0699	0.107
Mof_C 	C 	0.38593	0.3116	0.93921	0.414
Mof_C 	C 	0.31679	0.2797	0.8544	0.084
Mof_H 	H 	0.3268	0.2158	0.8529	0.016
Mof_C 	C 	0.26314	0.4074	0.81774	0.063
Mof_C 	C 	0.2769	0.3109	0.81572	-0.126
Mof_H 	H 	0.2593	0.2682	0.7886	0.077
Mof_C 	C 	0.34218	0.3429	0.89558	-0.158
Mof_O 	O 	0.43153	0.83366	0.91577	-0.362
Mof_C 	C 	0.14023	0.5345	0.71329	-0.128
Mof_C 	C 	0.22074	0.4493	0.77754	0.051
Mof_C 	C 	0.15075	0.4392	0.70086	0.046
Mof_H 	H 	0.1313	0.4053	0.6704	0.036
Mof_C 	C 	0.19096	0.3949	0.73481	-0.102
Mof_H 	H 	0.1977	0.33	0.7288	0.065
Mof_H 	H 	0.0199	0.575	0.0728	0.436
Mof_H 	H 	0.9795	0.542	0.082	0.42
Mof_Tb	Tb	0.5332	0.87557	0.04244	2.091
Mof_Co	Co	0.76261	0.11682	0.85187	1.118
Mof_Cl	Cl	0.72567	0.27213	0.83415	-0.515
Mof_O 	O 	0.49897	0.03684	0.05741	-1.106
Mof_O 	O 	0.58685	0.97749	0.90799	-0.348
Mof_N 	N 	0.72626	0.0857	0.92525	-0.237
Mof_O 	O 	0.57814	0.0548	0.63037	-0.48
Mof_O 	O 	0.57807	0.14898	0.71114	-0.296
Mof_O 	O 	0.59723	0.9472	0.00713	-0.51
Mof_O 	O 	0.9517	0.33926	0.01642	-0.54
Mof_N 	N 	0.71221	0.0438	0.78704	-0.239
Mof_C 	C 	0.68251	0.0456	0.92038	0.108
Mof_H 	H 	0.6662	0.0312	0.882	-0.001
Mof_C 	C 	0.6602	0.0243	0.96897	-0.169
Mof_C 	C 	0.79731	0.1568	0.9817	0.07
Mof_O 	O 	0.89844	0.8605	0.98555	-0.319
Mof_C 	C 	0.7497	0.1089	0.98072	0.068
Mof_C 	C 	0.68453	0.0477	0.02625	0.099
Mof_H 	H 	0.6708	0.0341	0.0603	0.017
Mof_O 	O 	0.9065	0.73601	0.92422	-0.523
Mof_N 	N 	0.81074	0.1696	0.92712	-0.247
Mof_C 	C 	0.86836	0.2373	0.03093	0.101
Mof_H 	H 	0.8882	0.2583	0.0658	0.007
Mof_C 	C 	0.92515	0.3139	0.96796	0.413
Mof_C 	C 	0.82555	0.9371	0.89634	0.095
Mof_H 	H 	0.8415	0.9795	0.925	-0.006
Mof_C 	C 	0.82556	0.1883	0.0346	-0.151
Mof_H 	H 	0.8161	0.177	0.0718	0.111
Mof_N 	N 	0.78764	0.9702	0.85777	-0.247
Mof_C 	C 	0.61056	0.9796	0.9599	0.435
Mof_C 	C 	0.88101	0.2544	0.97474	-0.176
Mof_C 	C 	0.67212	0.0846	0.75629	0.073
Mof_H 	H 	0.6655	0.1489	0.7641	0.023
Mof_C 	C 	0.85164	0.2187	0.92459	0.107
Mof_H 	H 	0.8605	0.2292	0.887	-0.02
Mof_C 	C 	0.59515	0.0841	0.6823	0.399
Mof_C 	C 	0.72945	0.0915	0.03204	-0.147
Mof_H 	H 	0.7458	0.109	0.0699	0.107
Mof_C 	C 	0.88593	0.8116	0.93921	0.414
Mof_C 	C 	0.81679	0.7797	0.8544	0.084
Mof_H 	H 	0.8268	0.7158	0.8529	0.016
Mof_C 	C 	0.76314	0.9074	0.81774	0.063
Mof_C 	C 	0.7769	0.8109	0.81572	-0.126
Mof_H 	H 	0.7593	0.7682	0.7886	0.077
Mof_C 	C 	0.84218	0.8429	0.89558	-0.158
Mof_O 	O 	0.93153	0.33366	0.91577	-0.361
Mof_C 	C 	0.64023	0.0345	0.71329	-0.129
Mof_C 	C 	0.72074	0.9493	0.77754	0.052
Mof_C 	C 	0.65075	0.9392	0.70086	0.047
Mof_H 	H 	0.6313	0.9053	0.6704	0.035
Mof_C 	C 	0.69096	0.8949	0.73481	-0.103
Mof_H 	H 	0.6977	0.83	0.7288	0.065
Mof_H 	H 	0.5199	0.075	0.0728	0.44
Mof_H 	H 	0.4795	0.042	0.082	0.422
Mof_Tb	Tb	0.9668	0.37557	0.45756	2.093
Mof_Co	Co	0.73739	0.61682	0.64813	1.118
Mof_Cl	Cl	0.77433	0.77213	0.66585	-0.515
Mof_O 	O 	0.00103	0.53684	0.44259	-1.107
Mof_O 	O 	0.91315	0.47749	0.59201	-0.348
Mof_N 	N 	0.77374	0.5857	0.57475	-0.236
Mof_O 	O 	0.92186	0.5548	0.86963	-0.479
Mof_O 	O 	0.92193	0.64898	0.78886	-0.296
Mof_O 	O 	0.90277	0.4472	0.49287	-0.509
Mof_O 	O 	0.5483	0.83926	0.48358	-0.544
Mof_N 	N 	0.78779	0.5438	0.71296	-0.238
Mof_C 	C 	0.81749	0.5456	0.57962	0.107
Mof_H 	H 	0.8338	0.5312	0.618	-0.001
Mof_C 	C 	0.8398	0.5243	0.53103	-0.165
Mof_C 	C 	0.70269	0.6568	0.5183	0.072
Mof_O 	O 	0.60156	0.3605	0.51445	-0.319
Mof_C 	C 	0.7503	0.6089	0.51928	0.07
Mof_C 	C 	0.81547	0.5477	0.47375	0.095
Mof_H 	H 	0.8292	0.5341	0.4397	0.018
Mof_O 	O 	0.5935	0.23601	0.57578	-0.523
Mof_N 	N 	0.68926	0.6696	0.57288	-0.247
Mof_C 	C 	0.63164	0.7373	0.46907	0.098
Mof_H 	H 	0.6118	0.7583	0.4342	0.007
Mof_C 	C 	0.57485	0.8139	0.53204	0.416
Mof_C 	C 	0.67445	0.4371	0.60366	0.095
Mof_H 	H 	0.6585	0.4795	0.575	-0.006
Mof_C 	C 	0.67444	0.6883	0.4654	-0.153
Mof_H 	H 	0.6839	0.677	0.4282	0.111
Mof_N 	N 	0.71236	0.4702	0.64223	-0.247
Mof_C 	C 	0.88944	0.4796	0.5401	0.432
Mof_C 	C 	0.61899	0.7544	0.52526	-0.174
Mof_C 	C 	0.82788	0.5846	0.74371	0.072
Mof_H 	H 	0.8345	0.6489	0.7359	0.024
Mof_C 	C 	0.64836	0.7187	0.57541	0.107
Mof_H 	H 	0.6395	0.7292	0.613	-0.02
Mof_C 	C 	0.90485	0.5841	0.8177	0.398
Mof_C 	C 	0.77055	0.5915	0.46796	-0.148
Mof_H 	H 	0.7542	0.609	0.4301	0.107
Mof_C 	C 	0.61407	0.3116	0.56079	0.414
Mof_C 	C 	0.68321	0.2797	0.6456	0.084
Mof_H 	H 	0.6732	0.2158	0.6471	0.016
Mof_C 	C 	0.73686	0.4074	0.68226	0.063
Mof_C 	C 	0.7231	0.3109	0.68428	-0.126
Mof_H 	H 	0.7407	0.2682	0.7114	0.077
Mof_C 	C 	0.65782	0.3429	0.60442	-0.158
Mof_O 	O 	0.56847	0.83366	0.58423	-0.362
Mof_C 	C 	0.85977	0.5345	0.78671	-0.128
Mof_C 	C 	0.77926	0.4493	0.72246	0.051
Mof_C 	C 	0.84925	0.4392	0.79914	0.046
Mof_H 	H 	0.8687	0.4053	0.8296	0.035
Mof_C 	C 	0.80904	0.3949	0.76519	-0.102
Mof_H 	H 	0.8023	0.33	0.7712	0.065
Mof_H 	H 	0.9801	0.575	0.4272	0.44
Mof_H 	H 	0.0205	0.542	0.418	0.422
Mof_Tb	Tb	0.4668	0.87557	0.45756	2.092
Mof_Co	Co	0.23739	0.11682	0.64813	1.118
Mof_Cl	Cl	0.27433	0.27213	0.66585	-0.515
Mof_O 	O 	0.50103	0.03684	0.44259	-1.107
Mof_O 	O 	0.41315	0.97749	0.59201	-0.348
Mof_N 	N 	0.27374	0.0857	0.57475	-0.237
Mof_O 	O 	0.42186	0.0548	0.86963	-0.48
Mof_O 	O 	0.42193	0.14898	0.78886	-0.296
Mof_O 	O 	0.40277	0.9472	0.49287	-0.508
Mof_O 	O 	0.0483	0.33926	0.48358	-0.544
Mof_N 	N 	0.28779	0.0438	0.71296	-0.239
Mof_C 	C 	0.31749	0.0456	0.57962	0.107
Mof_H 	H 	0.3338	0.0312	0.618	-0.001
Mof_C 	C 	0.3398	0.0243	0.53103	-0.165
Mof_C 	C 	0.20269	0.1568	0.5183	0.072
Mof_O 	O 	0.10156	0.8605	0.51445	-0.319
Mof_C 	C 	0.2503	0.1089	0.51928	0.07
Mof_C 	C 	0.31547	0.0477	0.47375	0.095
Mof_H 	H 	0.3292	0.0341	0.4397	0.018
Mof_O 	O 	0.0935	0.73601	0.57578	-0.523
Mof_N 	N 	0.18926	0.1696	0.57288	-0.247
Mof_C 	C 	0.13164	0.2373	0.46907	0.098
Mof_H 	H 	0.1118	0.2583	0.4342	0.007
Mof_C 	C 	0.07485	0.3139	0.53204	0.416
Mof_C 	C 	0.17445	0.9371	0.60366	0.095
Mof_H 	H 	0.1585	0.9795	0.575	-0.006
Mof_C 	C 	0.17444	0.1883	0.4654	-0.153
Mof_H 	H 	0.1839	0.177	0.4282	0.111
Mof_N 	N 	0.21236	0.9702	0.64223	-0.247
Mof_C 	C 	0.38944	0.9796	0.5401	0.432
Mof_C 	C 	0.11899	0.2544	0.52526	-0.174
Mof_C 	C 	0.32788	0.0846	0.74371	0.073
Mof_H 	H 	0.3345	0.1489	0.7359	0.023
Mof_C 	C 	0.14836	0.2187	0.57541	0.106
Mof_H 	H 	0.1395	0.2292	0.613	-0.02
Mof_C 	C 	0.40485	0.0841	0.8177	0.399
Mof_C 	C 	0.27055	0.0915	0.46796	-0.149
Mof_H 	H 	0.2542	0.109	0.4301	0.107
Mof_C 	C 	0.11407	0.8116	0.56079	0.415
Mof_C 	C 	0.18321	0.7797	0.6456	0.084
Mof_H 	H 	0.1732	0.7158	0.6471	0.016
Mof_C 	C 	0.23686	0.9074	0.68226	0.063
Mof_C 	C 	0.2231	0.8109	0.68428	-0.126
Mof_H 	H 	0.2407	0.7682	0.7114	0.077
Mof_C 	C 	0.15782	0.8429	0.60442	-0.158
Mof_O 	O 	0.06847	0.33366	0.58423	-0.362
Mof_C 	C 	0.35977	0.0345	0.78671	-0.13
Mof_C 	C 	0.27926	0.9493	0.72246	0.052
Mof_C 	C 	0.34925	0.9392	0.79914	0.048
Mof_H 	H 	0.3687	0.9053	0.8296	0.035
Mof_C 	C 	0.30904	0.8949	0.76519	-0.103
Mof_H 	H 	0.3023	0.83	0.7712	0.065
Mof_H 	H 	0.4801	0.075	0.4272	0.44
Mof_H 	H 	0.5205	0.042	0.418	0.422
Mof_Tb	Tb	0.9668	0.62443	0.95756	2.086
Mof_Co	Co	0.73739	0.38318	0.14813	1.118
Mof_Cl	Cl	0.77433	0.22787	0.16585	-0.514
Mof_O 	O 	0.00103	0.46316	0.94259	-1.1
Mof_O 	O 	0.91315	0.52251	0.09201	-0.348
Mof_N 	N 	0.77374	0.4143	0.07475	-0.236
Mof_O 	O 	0.92186	0.4452	0.36963	-0.48
Mof_O 	O 	0.92193	0.35102	0.28886	-0.296
Mof_O 	O 	0.90277	0.5528	0.99287	-0.51
Mof_O 	O 	0.5483	0.16074	0.98358	-0.545
Mof_N 	N 	0.78779	0.4562	0.21296	-0.238
Mof_C 	C 	0.81749	0.4544	0.07962	0.106
Mof_H 	H 	0.8338	0.4688	0.118	-0
Mof_C 	C 	0.8398	0.4757	0.03103	-0.163
Mof_C 	C 	0.70269	0.3432	0.0183	0.074
Mof_O 	O 	0.60156	0.6395	0.01445	-0.319
Mof_C 	C 	0.7503	0.3911	0.01928	0.071
Mof_C 	C 	0.81547	0.4523	0.97375	0.093
Mof_H 	H 	0.8292	0.4659	0.9397	0.018
Mof_O 	O 	0.5935	0.76399	0.07578	-0.523
Mof_N 	N 	0.68926	0.3304	0.07288	-0.247
Mof_C 	C 	0.63164	0.2627	0.96907	0.097
Mof_H 	H 	0.6118	0.2417	0.9342	0.008
Mof_C 	C 	0.57485	0.1861	0.03204	0.417
Mof_C 	C 	0.67445	0.5629	0.10366	0.095
Mof_H 	H 	0.6585	0.5205	0.075	-0.006
Mof_C 	C 	0.67444	0.3117	0.9654	-0.154
Mof_H 	H 	0.6839	0.323	0.9282	0.111
Mof_N 	N 	0.71236	0.5298	0.14223	-0.247
Mof_C 	C 	0.88944	0.5204	0.0401	0.434
Mof_C 	C 	0.61899	0.2456	0.02526	-0.173
Mof_C 	C 	0.82788	0.4154	0.24371	0.072
Mof_H 	H 	0.8345	0.3511	0.2359	0.024
Mof_C 	C 	0.64836	0.2813	0.07541	0.106
Mof_H 	H 	0.6395	0.2708	0.113	-0.02
Mof_C 	C 	0.90485	0.4159	0.3177	0.398
Mof_C 	C 	0.77055	0.4085	0.96796	-0.15
Mof_H 	H 	0.7542	0.391	0.9301	0.107
Mof_C 	C 	0.61407	0.6884	0.06079	0.414
Mof_C 	C 	0.68321	0.7203	0.1456	0.084
Mof_H 	H 	0.6732	0.7842	0.1471	0.016
Mof_C 	C 	0.73686	0.5926	0.18226	0.063
Mof_C 	C 	0.7231	0.6891	0.18428	-0.126
Mof_H 	H 	0.7407	0.7318	0.2114	0.077
Mof_C 	C 	0.65782	0.6571	0.10442	-0.158
Mof_O 	O 	0.56847	0.16634	0.08423	-0.362
Mof_C 	C 	0.85977	0.4655	0.28671	-0.128
Mof_C 	C 	0.77926	0.5507	0.22246	0.051
Mof_C 	C 	0.84925	0.5608	0.29914	0.046
Mof_H 	H 	0.8687	0.5947	0.3296	0.036
Mof_C 	C 	0.80904	0.6051	0.26519	-0.102
Mof_H 	H 	0.8023	0.67	0.2712	0.065
Mof_H 	H 	0.9801	0.425	0.9272	0.436
Mof_H 	H 	0.0205	0.458	0.918	0.42
Mof_Tb	Tb	0.4668	0.12443	0.95756	2.091
Mof_Co	Co	0.23739	0.88318	0.14813	1.118
Mof_Cl	Cl	0.27433	0.72787	0.16585	-0.515
Mof_O 	O 	0.50103	0.96316	0.94259	-1.106
Mof_O 	O 	0.41315	0.02251	0.09201	-0.348
Mof_N 	N 	0.27374	0.9143	0.07475	-0.237
Mof_O 	O 	0.42186	0.9452	0.36963	-0.48
Mof_O 	O 	0.42193	0.85102	0.28886	-0.296
Mof_O 	O 	0.40277	0.0528	0.99287	-0.51
Mof_O 	O 	0.0483	0.66074	0.98358	-0.54
Mof_N 	N 	0.28779	0.9562	0.21296	-0.239
Mof_C 	C 	0.31749	0.9544	0.07962	0.108
Mof_H 	H 	0.3338	0.9688	0.118	-0.001
Mof_C 	C 	0.3398	0.9757	0.03103	-0.169
Mof_C 	C 	0.20269	0.8432	0.0183	0.07
Mof_O 	O 	0.10156	0.1395	0.01445	-0.319
Mof_C 	C 	0.2503	0.8911	0.01928	0.068
Mof_C 	C 	0.31547	0.9523	0.97375	0.099
Mof_H 	H 	0.3292	0.9659	0.9397	0.017
Mof_O 	O 	0.0935	0.26399	0.07578	-0.523
Mof_N 	N 	0.18926	0.8304	0.07288	-0.247
Mof_C 	C 	0.13164	0.7627	0.96907	0.101
Mof_H 	H 	0.1118	0.7417	0.9342	0.007
Mof_C 	C 	0.07485	0.6861	0.03204	0.413
Mof_C 	C 	0.17445	0.0629	0.10366	0.095
Mof_H 	H 	0.1585	0.0205	0.075	-0.006
Mof_C 	C 	0.17444	0.8117	0.9654	-0.151
Mof_H 	H 	0.1839	0.823	0.9282	0.111
Mof_N 	N 	0.21236	0.0298	0.14223	-0.247
Mof_C 	C 	0.38944	0.0204	0.0401	0.435
Mof_C 	C 	0.11899	0.7456	0.02526	-0.176
Mof_C 	C 	0.32788	0.9154	0.24371	0.073
Mof_H 	H 	0.3345	0.8511	0.2359	0.023
Mof_C 	C 	0.14836	0.7813	0.07541	0.107
Mof_H 	H 	0.1395	0.7708	0.113	-0.02
Mof_C 	C 	0.40485	0.9159	0.3177	0.399
Mof_C 	C 	0.27055	0.9085	0.96796	-0.147
Mof_H 	H 	0.2542	0.891	0.9301	0.107
Mof_C 	C 	0.11407	0.1884	0.06079	0.414
Mof_C 	C 	0.18321	0.2203	0.1456	0.084
Mof_H 	H 	0.1732	0.2842	0.1471	0.016
Mof_C 	C 	0.23686	0.0926	0.18226	0.063
Mof_C 	C 	0.2231	0.1891	0.18428	-0.126
Mof_H 	H 	0.2407	0.2318	0.2114	0.077
Mof_C 	C 	0.15782	0.1571	0.10442	-0.158
Mof_O 	O 	0.06847	0.66634	0.08423	-0.361
Mof_C 	C 	0.35977	0.9655	0.28671	-0.129
Mof_C 	C 	0.27926	0.0507	0.22246	0.052
Mof_C 	C 	0.34925	0.0608	0.29914	0.047
Mof_H 	H 	0.3687	0.0947	0.3296	0.035
Mof_C 	C 	0.30904	0.1051	0.26519	-0.103
Mof_H 	H 	0.3023	0.17	0.2712	0.065
Mof_H 	H 	0.4801	0.925	0.9272	0.44
Mof_H 	H 	0.5205	0.958	0.918	0.422
Mof_Tb	Tb	0.0332	0.62443	0.54244	2.093
Mof_Co	Co	0.26261	0.38318	0.35187	1.118
Mof_Cl	Cl	0.22567	0.22787	0.33415	-0.515
Mof_O 	O 	0.99897	0.46316	0.55741	-1.107
Mof_O 	O 	0.08685	0.52251	0.40799	-0.348
Mof_N 	N 	0.22626	0.4143	0.42525	-0.236
Mof_O 	O 	0.07814	0.4452	0.13037	-0.479
Mof_O 	O 	0.07807	0.35102	0.21114	-0.296
Mof_O 	O 	0.09723	0.5528	0.50713	-0.509
Mof_O 	O 	0.4517	0.16074	0.51642	-0.544
Mof_N 	N 	0.21221	0.4562	0.28704	-0.238
Mof_C 	C 	0.18251	0.4544	0.42038	0.107
Mof_H 	H 	0.1662	0.4688	0.382	-0.001
Mof_C 	C 	0.1602	0.4757	0.46897	-0.165
Mof_C 	C 	0.29731	0.3432	0.4817	0.072
Mof_O 	O 	0.39844	0.6395	0.48555	-0.319
Mof_C 	C 	0.2497	0.3911	0.48072	0.07
Mof_C 	C 	0.18453	0.4523	0.52625	0.095
Mof_H 	H 	0.1708	0.4659	0.5603	0.018
Mof_O 	O 	0.4065	0.76399	0.42422	-0.523
Mof_N 	N 	0.31074	0.3304	0.42712	-0.247
Mof_C 	C 	0.36836	0.2627	0.53093	0.098
Mof_H 	H 	0.3882	0.2417	0.5658	0.007
Mof_C 	C 	0.42515	0.1861	0.46796	0.416
Mof_C 	C 	0.32555	0.5629	0.39634	0.095
Mof_H 	H 	0.3415	0.5205	0.425	-0.006
Mof_C 	C 	0.32556	0.3117	0.5346	-0.153
Mof_H 	H 	0.3161	0.323	0.5718	0.111
Mof_N 	N 	0.28764	0.5298	0.35777	-0.247
Mof_C 	C 	0.11056	0.5204	0.4599	0.432
Mof_C 	C 	0.38101	0.2456	0.47474	-0.174
Mof_C 	C 	0.17212	0.4154	0.25629	0.072
Mof_H 	H 	0.1655	0.3511	0.2641	0.024
Mof_C 	C 	0.35164	0.2813	0.42459	0.107
Mof_H 	H 	0.3605	0.2708	0.387	-0.02
Mof_C 	C 	0.09515	0.4159	0.1823	0.398
Mof_C 	C 	0.22945	0.4085	0.53204	-0.148
Mof_H 	H 	0.2458	0.391	0.5699	0.107
Mof_C 	C 	0.38593	0.6884	0.43921	0.414
Mof_C 	C 	0.31679	0.7203	0.3544	0.084
Mof_H 	H 	0.3268	0.7842	0.3529	0.016
Mof_C 	C 	0.26314	0.5926	0.31774	0.063
Mof_C 	C 	0.2769	0.6891	0.31572	-0.126
Mof_H 	H 	0.2593	0.7318	0.2886	0.077
Mof_C 	C 	0.34218	0.6571	0.39558	-0.158
Mof_O 	O 	0.43153	0.16634	0.41577	-0.362
Mof_C 	C 	0.14023	0.4655	0.21329	-0.128
Mof_C 	C 	0.22074	0.5507	0.27754	0.051
Mof_C 	C 	0.15075	0.5608	0.20086	0.046
Mof_H 	H 	0.1313	0.5947	0.1704	0.035
Mof_C 	C 	0.19096	0.6051	0.23481	-0.102
Mof_H 	H 	0.1977	0.67	0.2288	0.065
Mof_H 	H 	0.0199	0.425	0.5728	0.44
Mof_H 	H 	0.9795	0.458	0.582	0.422
Mof_Tb	Tb	0.5332	0.12443	0.54244	2.092
Mof_Co	Co	0.76261	0.88318	0.35187	1.118
Mof_Cl	Cl	0.72567	0.72787	0.33415	-0.515
Mof_O 	O 	0.49897	0.96316	0.55741	-1.107
Mof_O 	O 	0.58685	0.02251	0.40799	-0.348
Mof_N 	N 	0.72626	0.9143	0.42525	-0.237
Mof_O 	O 	0.57814	0.9452	0.13037	-0.48
Mof_O 	O 	0.57807	0.85102	0.21114	-0.296
Mof_O 	O 	0.59723	0.0528	0.50713	-0.508
Mof_O 	O 	0.9517	0.66074	0.51642	-0.544
Mof_N 	N 	0.71221	0.9562	0.28704	-0.239
Mof_C 	C 	0.68251	0.9544	0.42038	0.107
Mof_H 	H 	0.6662	0.9688	0.382	-0.001
Mof_C 	C 	0.6602	0.9757	0.46897	-0.165
Mof_C 	C 	0.79731	0.8432	0.4817	0.072
Mof_O 	O 	0.89844	0.1395	0.48555	-0.319
Mof_C 	C 	0.7497	0.8911	0.48072	0.07
Mof_C 	C 	0.68453	0.9523	0.52625	0.095
Mof_H 	H 	0.6708	0.9659	0.5603	0.018
Mof_O 	O 	0.9065	0.26399	0.42422	-0.523
Mof_N 	N 	0.81074	0.8304	0.42712	-0.247
Mof_C 	C 	0.86836	0.7627	0.53093	0.098
Mof_H 	H 	0.8882	0.7417	0.5658	0.007
Mof_C 	C 	0.92515	0.6861	0.46796	0.416
Mof_C 	C 	0.82555	0.0629	0.39634	0.095
Mof_H 	H 	0.8415	0.0205	0.425	-0.006
Mof_C 	C 	0.82556	0.8117	0.5346	-0.153
Mof_H 	H 	0.8161	0.823	0.5718	0.111
Mof_N 	N 	0.78764	0.0298	0.35777	-0.247
Mof_C 	C 	0.61056	0.0204	0.4599	0.432
Mof_C 	C 	0.88101	0.7456	0.47474	-0.174
Mof_C 	C 	0.67212	0.9154	0.25629	0.073
Mof_H 	H 	0.6655	0.8511	0.2641	0.023
Mof_C 	C 	0.85164	0.7813	0.42459	0.106
Mof_H 	H 	0.8605	0.7708	0.387	-0.02
Mof_C 	C 	0.59515	0.9159	0.1823	0.399
Mof_C 	C 	0.72945	0.9085	0.53204	-0.149
Mof_H 	H 	0.7458	0.891	0.5699	0.107
Mof_C 	C 	0.88593	0.1884	0.43921	0.415
Mof_C 	C 	0.81679	0.2203	0.3544	0.084
Mof_H 	H 	0.8268	0.2842	0.3529	0.016
Mof_C 	C 	0.76314	0.0926	0.31774	0.063
Mof_C 	C 	0.7769	0.1891	0.31572	-0.126
Mof_H 	H 	0.7593	0.2318	0.2886	0.077
Mof_C 	C 	0.84218	0.1571	0.39558	-0.158
Mof_O 	O 	0.93153	0.66634	0.41577	-0.362
Mof_C 	C 	0.64023	0.9655	0.21329	-0.13
Mof_C 	C 	0.72074	0.0507	0.27754	0.052
Mof_C 	C 	0.65075	0.0608	0.20086	0.048
Mof_H 	H 	0.6313	0.0947	0.1704	0.035
Mof_C 	C 	0.69096	0.1051	0.23481	-0.103
Mof_H 	H 	0.6977	0.17	0.2288	0.065
Mof_H 	H 	0.5199	0.925	0.5728	0.44
Mof_H 	H 	0.4795	0.958	0.582	0.422
_end
