# CIF file generated by openbabel 3.1.0, see https://openbabel.org
data_I
_chemical_name_common 'image0'
_cell_length_a 15.2345
_cell_length_b 10.1817
_cell_length_c 18.6968
_cell_angle_alpha 90
_cell_angle_beta 103.524
_cell_angle_gamma 90
_space_group_name_H-M_alt 'P 1'
_space_group_name_Hall 'P 1'
loop_
    _symmetry_equiv_pos_as_xyz
    x,y,z
loop_
    _atom_site_label
    _atom_site_type_symbol
    _atom_site_fract_x
    _atom_site_fract_y
    _atom_site_fract_z
    _atom_site_occupancy
    V1       V        0.75200    0.95280    0.21718    1.000
    O1       O        0.65430    0.00840    0.21650    1.000
    V2       V        0.80470    0.92500    0.21870    1.000
    O2       O        0.90940    0.87700    0.22920    1.000
    V3       V        0.16193    0.88449    0.08390    1.000
    P1       P        0.66171    0.66724    0.16590    1.000
    P2       P        0.28554    0.61826    0.07647    1.000
    O3       O        0.73127    0.77730    0.17113    1.000
    O4       O        0.66980    0.59820    0.23971    1.000
    O5       O        0.28635    0.49670    0.12477    1.000
    O6       O        0.20163    0.70090    0.07478    1.000
    O7       O        0.79520    0.85510    0.30972    1.000
    O8       O        0.67459    0.57350    0.10537    1.000
    O9       O        0.28952    0.56800    0.00036    1.000
    C1       C        0.55210    0.73910    0.14190    1.000
    H1       H        0.54580    0.79920    0.18200    1.000
    H2       H        0.54770    0.79290    0.09710    1.000
    C2       C        0.47270    0.64310    0.12770    1.000
    H3       H        0.47690    0.58640    0.17140    1.000
    H4       H        0.47550    0.58610    0.08540    1.000
    C3       C        0.38260    0.71730    0.11140    1.000
    H5       H        0.38490    0.78760    0.07530    1.000
    H6       H        0.37550    0.76010    0.15730    1.000
    H7       H        0.78500    0.79200    0.30500    1.000
    V4       V        0.25200    0.45280    0.21718    1.000
    O10      O        0.15430    0.50840    0.21650    1.000
    V5       V        0.30470    0.42500    0.21870    1.000
    O11      O        0.40940    0.37700    0.22920    1.000
    V6       V        0.66193    0.38449    0.08390    1.000
    P3       P        0.16171    0.16724    0.16590    1.000
    P4       P        0.78554    0.11826    0.07647    1.000
    O12      O        0.23127    0.27730    0.17113    1.000
    O13      O        0.16980    0.09820    0.23971    1.000
    O14      O        0.78635    0.99670    0.12477    1.000
    O15      O        0.70163    0.20090    0.07478    1.000
    O16      O        0.29520    0.35510    0.30972    1.000
    O17      O        0.17459    0.07350    0.10537    1.000
    O18      O        0.78952    0.06800    0.00036    1.000
    C4       C        0.05210    0.23910    0.14190    1.000
    H8       H        0.04580    0.29920    0.18200    1.000
    H9       H        0.04770    0.29290    0.09710    1.000
    C5       C        0.97270    0.14310    0.12770    1.000
    H10      H        0.97690    0.08640    0.17140    1.000
    H11      H        0.97550    0.08610    0.08540    1.000
    C6       C        0.88260    0.21730    0.11140    1.000
    H12      H        0.88490    0.28760    0.07530    1.000
    H13      H        0.87550    0.26010    0.15730    1.000
    H14      H        0.28500    0.29200    0.30500    1.000
    V7       V        0.24800    0.95280    0.28282    1.000
    O19      O        0.34570    0.00840    0.28350    1.000
    V8       V        0.19530    0.92500    0.28130    1.000
    O20      O        0.09060    0.87700    0.27080    1.000
    V9       V        0.83807    0.88449    0.41610    1.000
    P5       P        0.33829    0.66724    0.33410    1.000
    P6       P        0.71446    0.61826    0.42353    1.000
    O21      O        0.26873    0.77730    0.32887    1.000
    O22      O        0.33020    0.59820    0.26029    1.000
    O23      O        0.71365    0.49670    0.37523    1.000
    O24      O        0.79837    0.70090    0.42522    1.000
    O25      O        0.20480    0.85510    0.19028    1.000
    O26      O        0.32541    0.57350    0.39463    1.000
    O27      O        0.71048    0.56800    0.49964    1.000
    C7       C        0.44790    0.73910    0.35810    1.000
    H15      H        0.45420    0.79920    0.31800    1.000
    H16      H        0.45230    0.79290    0.40290    1.000
    C8       C        0.52730    0.64310    0.37230    1.000
    H17      H        0.52310    0.58640    0.32860    1.000
    H18      H        0.52450    0.58610    0.41460    1.000
    C9       C        0.61740    0.71730    0.38860    1.000
    H19      H        0.61510    0.78760    0.42470    1.000
    H20      H        0.62450    0.76010    0.34270    1.000
    H21      H        0.21500    0.79200    0.19500    1.000
    V10      V        0.74800    0.45280    0.28282    1.000
    O28      O        0.84570    0.50840    0.28350    1.000
    V11      V        0.69530    0.42500    0.28130    1.000
    O29      O        0.59060    0.37700    0.27080    1.000
    V12      V        0.33807    0.38449    0.41610    1.000
    P7       P        0.83829    0.16724    0.33410    1.000
    P8       P        0.21446    0.11826    0.42353    1.000
    O30      O        0.76873    0.27730    0.32887    1.000
    O31      O        0.83020    0.09820    0.26029    1.000
    O32      O        0.21365    0.99670    0.37523    1.000
    O33      O        0.29837    0.20090    0.42522    1.000
    O34      O        0.70480    0.35510    0.19028    1.000
    O35      O        0.82541    0.07350    0.39463    1.000
    O36      O        0.21048    0.06800    0.49964    1.000
    C10      C        0.94790    0.23910    0.35810    1.000
    H22      H        0.95420    0.29920    0.31800    1.000
    H23      H        0.95230    0.29290    0.40290    1.000
    C11      C        0.02730    0.14310    0.37230    1.000
    H24      H        0.02310    0.08640    0.32860    1.000
    H25      H        0.02450    0.08610    0.41460    1.000
    C12      C        0.11740    0.21730    0.38860    1.000
    H26      H        0.11510    0.28760    0.42470    1.000
    H27      H        0.12450    0.26010    0.34270    1.000
    H28      H        0.71500    0.29200    0.19500    1.000
    V13      V        0.24800    0.04720    0.78282    1.000
    O37      O        0.34570    0.99160    0.78350    1.000
    V14      V        0.19530    0.07500    0.78130    1.000
    O38      O        0.09060    0.12300    0.77080    1.000
    V15      V        0.83807    0.11551    0.91610    1.000
    P9       P        0.33829    0.33276    0.83410    1.000
    P10      P        0.71446    0.38174    0.92353    1.000
    O39      O        0.26873    0.22270    0.82887    1.000
    O40      O        0.33020    0.40180    0.76029    1.000
    O41      O        0.71365    0.50330    0.87523    1.000
    O42      O        0.79837    0.29910    0.92522    1.000
    O43      O        0.20480    0.14490    0.69028    1.000
    O44      O        0.32541    0.42650    0.89463    1.000
    O45      O        0.71048    0.43200    0.99964    1.000
    C13      C        0.44790    0.26090    0.85810    1.000
    H29      H        0.45420    0.20080    0.81800    1.000
    H30      H        0.45230    0.20710    0.90290    1.000
    C14      C        0.52730    0.35690    0.87230    1.000
    H31      H        0.52310    0.41360    0.82860    1.000
    H32      H        0.52450    0.41390    0.91460    1.000
    C15      C        0.61740    0.28270    0.88860    1.000
    H33      H        0.61510    0.21240    0.92470    1.000
    H34      H        0.62450    0.23990    0.84270    1.000
    H35      H        0.21500    0.20800    0.69500    1.000
    V16      V        0.74800    0.54720    0.78282    1.000
    O46      O        0.84570    0.49160    0.78350    1.000
    V17      V        0.69530    0.57500    0.78130    1.000
    O47      O        0.59060    0.62300    0.77080    1.000
    V18      V        0.33807    0.61551    0.91610    1.000
    P11      P        0.83829    0.83276    0.83410    1.000
    P12      P        0.21446    0.88174    0.92353    1.000
    O48      O        0.76873    0.72270    0.82887    1.000
    O49      O        0.83020    0.90180    0.76029    1.000
    O50      O        0.21365    0.00330    0.87523    1.000
    O51      O        0.29837    0.79910    0.92522    1.000
    O52      O        0.70480    0.64490    0.69028    1.000
    O53      O        0.82541    0.92650    0.89463    1.000
    O54      O        0.21048    0.93200    0.99964    1.000
    C16      C        0.94790    0.76090    0.85810    1.000
    H36      H        0.95420    0.70080    0.81800    1.000
    H37      H        0.95230    0.70710    0.90290    1.000
    C17      C        0.02730    0.85690    0.87230    1.000
    H38      H        0.02310    0.91360    0.82860    1.000
    H39      H        0.02450    0.91390    0.91460    1.000
    C18      C        0.11740    0.78270    0.88860    1.000
    H40      H        0.11510    0.71240    0.92470    1.000
    H41      H        0.12450    0.73990    0.84270    1.000
    H42      H        0.71500    0.70800    0.69500    1.000
    V19      V        0.75200    0.04720    0.71718    1.000
    O55      O        0.65430    0.99160    0.71650    1.000
    V20      V        0.80470    0.07500    0.71870    1.000
    O56      O        0.90940    0.12300    0.72920    1.000
    V21      V        0.16193    0.11551    0.58390    1.000
    P13      P        0.66171    0.33276    0.66590    1.000
    P14      P        0.28554    0.38174    0.57647    1.000
    O57      O        0.73127    0.22270    0.67113    1.000
    O58      O        0.66980    0.40180    0.73971    1.000
    O59      O        0.28635    0.50330    0.62477    1.000
    O60      O        0.20163    0.29910    0.57478    1.000
    O61      O        0.79520    0.14490    0.80972    1.000
    O62      O        0.67459    0.42650    0.60537    1.000
    O63      O        0.28952    0.43200    0.50036    1.000
    C19      C        0.55210    0.26090    0.64190    1.000
    H43      H        0.54580    0.20080    0.68200    1.000
    H44      H        0.54770    0.20710    0.59710    1.000
    C20      C        0.47270    0.35690    0.62770    1.000
    H45      H        0.47690    0.41360    0.67140    1.000
    H46      H        0.47550    0.41390    0.58540    1.000
    C21      C        0.38260    0.28270    0.61140    1.000
    H47      H        0.38490    0.21240    0.57530    1.000
    H48      H        0.37550    0.23990    0.65730    1.000
    H49      H        0.78500    0.20800    0.80500    1.000
    V22      V        0.25200    0.54720    0.71718    1.000
    O64      O        0.15430    0.49160    0.71650    1.000
    V23      V        0.30470    0.57500    0.71870    1.000
    O65      O        0.40940    0.62300    0.72920    1.000
    V24      V        0.66193    0.61551    0.58390    1.000
    P15      P        0.16171    0.83276    0.66590    1.000
    P16      P        0.78554    0.88174    0.57647    1.000
    O66      O        0.23127    0.72270    0.67113    1.000
    O67      O        0.16980    0.90180    0.73971    1.000
    O68      O        0.78635    0.00330    0.62477    1.000
    O69      O        0.70163    0.79910    0.57478    1.000
    O70      O        0.29520    0.64490    0.80972    1.000
    O71      O        0.17459    0.92650    0.60537    1.000
    O72      O        0.78952    0.93200    0.50036    1.000
    C22      C        0.05210    0.76090    0.64190    1.000
    H50      H        0.04580    0.70080    0.68200    1.000
    H51      H        0.04770    0.70710    0.59710    1.000
    C23      C        0.97270    0.85690    0.62770    1.000
    H52      H        0.97690    0.91360    0.67140    1.000
    H53      H        0.97550    0.91390    0.58540    1.000
    C24      C        0.88260    0.78270    0.61140    1.000
    H54      H        0.88490    0.71240    0.57530    1.000
    H55      H        0.87550    0.73990    0.65730    1.000
    H56      H        0.28500    0.70800    0.80500    1.000
