data_functionalizedCrystal
_audit_creation_method	'EQeq! by Chris Wilmer'
_symmetry_space_group_name_H-M	'P1'
_symmetry_Int_Tables_number	1
_symmetry_cell_setting	triclinic
loop_
_symmetry_equiv_pos_as_xyz
  x,y,z
_cell_length_a	19.4498
_cell_length_b	26.8572
_cell_length_c	34.812
_cell_angle_alpha	90
_cell_angle_beta	90
_cell_angle_gamma	90
loop_
_atom_site_label
_atom_site_type_symbol
_atom_site_fract_x
_atom_site_fract_y
_atom_site_fract_z
_atom_site_charge
Mof_K 	K 	0.56103	0.6351	0.48398	1.889
Mof_Pr	Pr	0.74395	0.55811	0.93212	1.074
Mof_Pr	Pr	0.74305	0.56895	0.25993	0.937
Mof_Pt	Pt	0.75305	0.56435	0.09633	0.072
Mof_Pt	Pt	0.99201	0.56164	0.84466	0.154
Mof_Pt	Pt	0.50081	0.56367	0.83944	0.078
Mof_Pt	Pt	0.24479	0.55767	0.09485	0.068
Mof_C 	C 	0.6516	0.563	0.0987	-0.045
Mof_C 	C 	0.7477	0.5619	0.0394	-0.017
Mof_C 	C 	0.8545	0.5631	0.0929	-0.045
Mof_C 	C 	0.7594	0.5681	0.1537	-0.038
Mof_C 	C 	0.041	0.5627	0.8952	-0.086
Mof_C 	C 	0.0814	0.5669	0.8168	-0.082
Mof_C 	C 	0.9457	0.561	0.7933	-0.084
Mof_C 	C 	0.9023	0.5555	0.8721	-0.054
Mof_C 	C 	0.5861	0.5628	0.871	-0.016
Mof_C 	C 	0.5592	0.5645	0.7935	-0.04
Mof_C 	C 	0.4182	0.566	0.807	-0.023
Mof_C 	C 	0.4452	0.5621	0.8879	-0.033
Mof_C 	C 	0.1715	0.5604	0.1342	-0.095
Mof_C 	C 	0.315	0.5554	0.1374	-0.103
Mof_C 	C 	0.3171	0.5532	0.0555	-0.064
Mof_C 	C 	0.1723	0.5589	0.053	-0.081
Mof_N 	N 	0.5931	0.5584	0.1002	-0.326
Mof_N 	N 	0.7467	0.5606	0.00638	-0.267
Mof_N 	N 	0.9129	0.5636	0.0908	-0.328
Mof_N 	N 	0.7617	0.5711	0.18625	-0.282
Mof_N 	N 	0.0702	0.5631	0.9229	-0.299
Mof_N 	N 	0.1308	0.5678	0.79993	-0.281
Mof_N 	N 	0.9235	0.5603	0.763	-0.361
Mof_N 	N 	0.8512	0.5519	0.88749	-0.285
Mof_N 	N 	0.6354	0.5634	0.8885	-0.281
Mof_N 	N 	0.5928	0.5655	0.7663	-0.218
Mof_N 	N 	0.371	0.5681	0.7872	-0.263
Mof_N 	N 	0.414	0.563	0.9151	-0.203
Mof_N 	N 	0.1331	0.5615	0.1575	-0.224
Mof_N 	N 	0.3515	0.5529	0.1621	-0.376
Mof_N 	N 	0.3571	0.5492	0.0319	-0.194
Mof_N 	N 	0.1289	0.5585	0.0313	-0.402
Mof_O 	O 	0.4581	0.5583	0.48401	-0.673
Mof_K 	K 	0.56103	0.1351	0.98398	1.803
Mof_Pr	Pr	0.74395	0.05811	0.43212	1.054
Mof_Pr	Pr	0.74305	0.06895	0.75993	0.886
Mof_Pt	Pt	0.75305	0.06435	0.59633	0.052
Mof_Pt	Pt	0.99201	0.06164	0.34466	0.136
Mof_Pt	Pt	0.50081	0.06367	0.33944	0.058
Mof_Pt	Pt	0.24479	0.05767	0.59485	0.045
Mof_C 	C 	0.6516	0.063	0.5987	-0.053
Mof_C 	C 	0.7477	0.0619	0.5394	-0.028
Mof_C 	C 	0.8545	0.0631	0.5929	-0.052
Mof_C 	C 	0.7594	0.0681	0.6537	-0.045
Mof_C 	C 	0.041	0.0627	0.3952	-0.1
Mof_C 	C 	0.0814	0.0669	0.3168	-0.094
Mof_C 	C 	0.9457	0.061	0.2933	-0.093
Mof_C 	C 	0.9023	0.0555	0.3721	-0.065
Mof_C 	C 	0.5861	0.0628	0.371	-0.025
Mof_C 	C 	0.5592	0.0645	0.2935	-0.051
Mof_C 	C 	0.4182	0.066	0.307	-0.034
Mof_C 	C 	0.4452	0.0621	0.3879	-0.043
Mof_C 	C 	0.1715	0.0604	0.6342	-0.099
Mof_C 	C 	0.315	0.0554	0.6374	-0.108
Mof_C 	C 	0.3171	0.0532	0.5555	-0.075
Mof_C 	C 	0.1723	0.0589	0.553	-0.09
Mof_N 	N 	0.5931	0.0584	0.6002	-0.32
Mof_N 	N 	0.7467	0.0606	0.50638	-0.279
Mof_N 	N 	0.9129	0.0636	0.5908	-0.314
Mof_N 	N 	0.7617	0.0711	0.68625	-0.283
Mof_N 	N 	0.0702	0.0631	0.4229	-0.31
Mof_N 	N 	0.1308	0.0678	0.29993	-0.283
Mof_N 	N 	0.9235	0.0603	0.263	-0.362
Mof_N 	N 	0.8512	0.0519	0.38749	-0.29
Mof_N 	N 	0.6354	0.0634	0.3885	-0.284
Mof_N 	N 	0.5928	0.0655	0.2663	-0.226
Mof_N 	N 	0.371	0.0681	0.2872	-0.265
Mof_N 	N 	0.414	0.063	0.4151	-0.209
Mof_N 	N 	0.1331	0.0615	0.6575	-0.229
Mof_N 	N 	0.3515	0.0529	0.6621	-0.373
Mof_N 	N 	0.3571	0.0492	0.5319	-0.209
Mof_N 	N 	0.1289	0.0585	0.5313	-0.406
Mof_O 	O 	0.4581	0.0583	0.98401	-0.675
Mof_K 	K 	0.06103	0.6351	0.98398	1.723
Mof_Pr	Pr	0.24395	0.55811	0.43212	1.093
Mof_Pr	Pr	0.24305	0.56895	0.75993	0.929
Mof_Pt	Pt	0.25305	0.56435	0.59633	0.069
Mof_Pt	Pt	0.49201	0.56164	0.34466	0.054
Mof_Pt	Pt	0.00081	0.56367	0.33944	-0.022
Mof_Pt	Pt	0.74479	0.55767	0.59485	0.069
Mof_C 	C 	0.1516	0.563	0.5987	-0.047
Mof_C 	C 	0.2477	0.5619	0.5394	-0.024
Mof_C 	C 	0.3545	0.5631	0.5929	-0.051
Mof_C 	C 	0.2594	0.5681	0.6537	-0.038
Mof_C 	C 	0.541	0.5627	0.3952	-0.037
Mof_C 	C 	0.5814	0.5669	0.3168	-0.039
Mof_C 	C 	0.4457	0.561	0.2933	-0.082
Mof_C 	C 	0.4023	0.5555	0.3721	-0.045
Mof_C 	C 	0.0861	0.5628	0.371	-0.006
Mof_C 	C 	0.0592	0.5645	0.2935	-0.039
Mof_C 	C 	0.9182	0.566	0.307	0.021
Mof_C 	C 	0.9452	0.5621	0.3879	0.02
Mof_C 	C 	0.6715	0.5604	0.6342	-0.094
Mof_C 	C 	0.815	0.5554	0.6374	-0.097
Mof_C 	C 	0.8171	0.5532	0.5555	-0.063
Mof_C 	C 	0.6723	0.5589	0.553	-0.086
Mof_N 	N 	0.0931	0.5584	0.6002	-0.324
Mof_N 	N 	0.2467	0.5606	0.50638	-0.28
Mof_N 	N 	0.4129	0.5636	0.5908	-0.349
Mof_N 	N 	0.2617	0.5711	0.68625	-0.282
Mof_N 	N 	0.5702	0.5631	0.4229	-0.315
Mof_N 	N 	0.6308	0.5678	0.29993	-0.292
Mof_N 	N 	0.4235	0.5603	0.263	-0.371
Mof_N 	N 	0.3512	0.5519	0.38749	-0.29
Mof_N 	N 	0.1354	0.5634	0.3885	-0.287
Mof_N 	N 	0.0928	0.5655	0.2663	-0.227
Mof_N 	N 	0.871	0.5681	0.2872	-0.272
Mof_N 	N 	0.914	0.563	0.4151	-0.205
Mof_N 	N 	0.6331	0.5615	0.6575	-0.217
Mof_N 	N 	0.8515	0.5529	0.6621	-0.364
Mof_N 	N 	0.8571	0.5492	0.5319	-0.193
Mof_N 	N 	0.6289	0.5585	0.5313	-0.421
Mof_O 	O 	0.9581	0.5583	0.98401	-0.634
Mof_K 	K 	0.06103	0.1351	0.48398	1.83
Mof_Pr	Pr	0.24395	0.05811	0.93212	1.008
Mof_Pr	Pr	0.24305	0.06895	0.25993	0.874
Mof_Pt	Pt	0.25305	0.06435	0.09633	0.05
Mof_Pt	Pt	0.49201	0.06164	0.84466	0.033
Mof_Pt	Pt	0.00081	0.06367	0.83944	-0.042
Mof_Pt	Pt	0.74479	0.05767	0.09485	0.049
Mof_C 	C 	0.1516	0.063	0.0987	-0.054
Mof_C 	C 	0.2477	0.0619	0.0394	-0.031
Mof_C 	C 	0.3545	0.0631	0.0929	-0.057
Mof_C 	C 	0.2594	0.0681	0.1537	-0.047
Mof_C 	C 	0.541	0.0627	0.8952	-0.046
Mof_C 	C 	0.5814	0.0669	0.8168	-0.048
Mof_C 	C 	0.4457	0.061	0.7933	-0.09
Mof_C 	C 	0.4023	0.0555	0.8721	-0.056
Mof_C 	C 	0.0861	0.0628	0.871	-0.019
Mof_C 	C 	0.0592	0.0645	0.7935	-0.048
Mof_C 	C 	0.9182	0.066	0.807	0.012
Mof_C 	C 	0.9452	0.0621	0.8879	0.008
Mof_C 	C 	0.6715	0.0604	0.1342	-0.1
Mof_C 	C 	0.815	0.0554	0.1374	-0.103
Mof_C 	C 	0.8171	0.0532	0.0555	-0.069
Mof_C 	C 	0.6723	0.0589	0.053	-0.09
Mof_N 	N 	0.0931	0.0584	0.1002	-0.318
Mof_N 	N 	0.2467	0.0606	0.00638	-0.27
Mof_N 	N 	0.4129	0.0636	0.0908	-0.343
Mof_N 	N 	0.2617	0.0711	0.18625	-0.283
Mof_N 	N 	0.5702	0.0631	0.9229	-0.319
Mof_N 	N 	0.6308	0.0678	0.79993	-0.294
Mof_N 	N 	0.4235	0.0603	0.763	-0.373
Mof_N 	N 	0.3512	0.0519	0.88749	-0.292
Mof_N 	N 	0.1354	0.0634	0.8885	-0.288
Mof_N 	N 	0.0928	0.0655	0.7663	-0.235
Mof_N 	N 	0.871	0.0681	0.7872	-0.275
Mof_N 	N 	0.914	0.063	0.9151	-0.219
Mof_N 	N 	0.6331	0.0615	0.1575	-0.224
Mof_N 	N 	0.8515	0.0529	0.1621	-0.361
Mof_N 	N 	0.8571	0.0492	0.0319	-0.198
Mof_N 	N 	0.6289	0.0585	0.0313	-0.408
Mof_O 	O 	0.9581	0.0583	0.48401	-0.613
Mof_K 	K 	0.43897	0.3649	0.48398	1.89
Mof_Pr	Pr	0.25605	0.44189	0.93212	1.067
Mof_Pr	Pr	0.25695	0.43105	0.25993	0.927
Mof_Pt	Pt	0.24695	0.43565	0.09633	0.07
Mof_Pt	Pt	0.00799	0.43836	0.84466	-0.043
Mof_Pt	Pt	0.49919	0.43633	0.83944	0.078
Mof_Pt	Pt	0.75521	0.44233	0.09485	0.071
Mof_C 	C 	0.3484	0.437	0.0987	-0.044
Mof_C 	C 	0.2523	0.4381	0.0394	-0.019
Mof_C 	C 	0.1455	0.4369	0.0929	-0.05
Mof_C 	C 	0.2406	0.4319	0.1537	-0.04
Mof_C 	C 	0.959	0.4373	0.8952	0.014
Mof_C 	C 	0.9186	0.4331	0.8168	0.007
Mof_C 	C 	0.0543	0.439	0.7933	-0.077
Mof_C 	C 	0.0977	0.4445	0.8721	-0.036
Mof_C 	C 	0.4139	0.4372	0.871	-0.016
Mof_C 	C 	0.4408	0.4355	0.7935	-0.04
Mof_C 	C 	0.5818	0.434	0.807	-0.023
Mof_C 	C 	0.5548	0.4379	0.8879	-0.034
Mof_C 	C 	0.8285	0.4396	0.1342	-0.088
Mof_C 	C 	0.685	0.4446	0.1374	-0.103
Mof_C 	C 	0.6829	0.4468	0.0555	-0.066
Mof_C 	C 	0.8277	0.4411	0.053	-0.077
Mof_N 	N 	0.4069	0.4416	0.1002	-0.326
Mof_N 	N 	0.2533	0.4394	0.00638	-0.268
Mof_N 	N 	0.0871	0.4364	0.0908	-0.348
Mof_N 	N 	0.2383	0.4289	0.18625	-0.282
Mof_N 	N 	0.9298	0.4369	0.9229	-0.323
Mof_N 	N 	0.8692	0.4322	0.79993	-0.3
Mof_N 	N 	0.0765	0.4397	0.763	-0.376
Mof_N 	N 	0.1488	0.4481	0.88749	-0.293
Mof_N 	N 	0.3646	0.4366	0.8885	-0.28
Mof_N 	N 	0.4072	0.4345	0.7663	-0.217
Mof_N 	N 	0.629	0.4319	0.7872	-0.264
Mof_N 	N 	0.586	0.437	0.9151	-0.204
Mof_N 	N 	0.8669	0.4385	0.1575	-0.207
Mof_N 	N 	0.6485	0.4471	0.1621	-0.376
Mof_N 	N 	0.6429	0.4508	0.0319	-0.195
Mof_N 	N 	0.8711	0.4415	0.0313	-0.403
Mof_O 	O 	0.5419	0.4417	0.48401	-0.673
Mof_K 	K 	0.43897	0.8649	0.98398	1.847
Mof_Pr	Pr	0.25605	0.94189	0.43212	1.157
Mof_Pr	Pr	0.25695	0.93105	0.75993	0.992
Mof_Pt	Pt	0.24695	0.93565	0.59633	0.093
Mof_Pt	Pt	0.00799	0.93836	0.34466	-0.019
Mof_Pt	Pt	0.49919	0.93633	0.33944	0.099
Mof_Pt	Pt	0.75521	0.94233	0.59485	0.094
Mof_C 	C 	0.3484	0.937	0.5987	-0.031
Mof_C 	C 	0.2523	0.9381	0.5394	-0.006
Mof_C 	C 	0.1455	0.9369	0.5929	-0.037
Mof_C 	C 	0.2406	0.9319	0.6537	-0.024
Mof_C 	C 	0.959	0.9373	0.3952	0.021
Mof_C 	C 	0.9186	0.9331	0.3168	0.017
Mof_C 	C 	0.0543	0.939	0.2933	-0.067
Mof_C 	C 	0.0977	0.9445	0.3721	-0.025
Mof_C 	C 	0.4139	0.9372	0.371	-0.002
Mof_C 	C 	0.4408	0.9355	0.2935	-0.03
Mof_C 	C 	0.5818	0.934	0.307	-0.012
Mof_C 	C 	0.5548	0.9379	0.3879	-0.02
Mof_C 	C 	0.8285	0.9396	0.6342	-0.074
Mof_C 	C 	0.685	0.9446	0.6374	-0.087
Mof_C 	C 	0.6829	0.9468	0.5555	-0.053
Mof_C 	C 	0.8277	0.9411	0.553	-0.063
Mof_N 	N 	0.4069	0.9416	0.6002	-0.299
Mof_N 	N 	0.2533	0.9394	0.50638	-0.275
Mof_N 	N 	0.0871	0.9364	0.5908	-0.318
Mof_N 	N 	0.2383	0.9289	0.68625	-0.28
Mof_N 	N 	0.9298	0.9369	0.4229	-0.319
Mof_N 	N 	0.8692	0.9322	0.29993	-0.297
Mof_N 	N 	0.0765	0.9397	0.263	-0.366
Mof_N 	N 	0.1488	0.9481	0.38749	-0.292
Mof_N 	N 	0.3646	0.9366	0.3885	-0.279
Mof_N 	N 	0.4072	0.9345	0.2663	-0.208
Mof_N 	N 	0.629	0.9319	0.2872	-0.262
Mof_N 	N 	0.586	0.937	0.4151	-0.19
Mof_N 	N 	0.8669	0.9385	0.6575	-0.196
Mof_N 	N 	0.6485	0.9471	0.6621	-0.358
Mof_N 	N 	0.6429	0.9508	0.5319	-0.185
Mof_N 	N 	0.8711	0.9415	0.5313	-0.391
Mof_O 	O 	0.5419	0.9417	0.98401	-0.648
Mof_K 	K 	0.93897	0.3649	0.98398	1.92
Mof_Pr	Pr	0.75605	0.44189	0.43212	1.112
Mof_Pr	Pr	0.75695	0.43105	0.75993	0.944
Mof_Pt	Pt	0.74695	0.43565	0.59633	0.071
Mof_Pt	Pt	0.50799	0.43836	0.34466	0.054
Mof_Pt	Pt	0.99919	0.43633	0.33944	0.182
Mof_Pt	Pt	0.25521	0.44233	0.59485	0.067
Mof_C 	C 	0.8484	0.437	0.5987	-0.038
Mof_C 	C 	0.7523	0.4381	0.5394	-0.019
Mof_C 	C 	0.6455	0.4369	0.5929	-0.052
Mof_C 	C 	0.7406	0.4319	0.6537	-0.036
Mof_C 	C 	0.459	0.4373	0.3952	-0.037
Mof_C 	C 	0.4186	0.4331	0.3168	-0.039
Mof_C 	C 	0.5543	0.439	0.2933	-0.082
Mof_C 	C 	0.5977	0.4445	0.3721	-0.045
Mof_C 	C 	0.9139	0.4372	0.371	-0.023
Mof_C 	C 	0.9408	0.4355	0.2935	-0.042
Mof_C 	C 	0.0818	0.434	0.307	-0.069
Mof_C 	C 	0.0548	0.4379	0.3879	-0.084
Mof_C 	C 	0.3285	0.4396	0.6342	-0.093
Mof_C 	C 	0.185	0.4446	0.6374	-0.101
Mof_C 	C 	0.1829	0.4468	0.5555	-0.067
Mof_C 	C 	0.3277	0.4411	0.553	-0.085
Mof_N 	N 	0.9069	0.4416	0.6002	-0.301
Mof_N 	N 	0.7533	0.4394	0.50638	-0.278
Mof_N 	N 	0.5871	0.4364	0.5908	-0.349
Mof_N 	N 	0.7383	0.4289	0.68625	-0.282
Mof_N 	N 	0.4298	0.4369	0.4229	-0.315
Mof_N 	N 	0.3692	0.4322	0.29993	-0.291
Mof_N 	N 	0.5765	0.4397	0.263	-0.372
Mof_N 	N 	0.6488	0.4481	0.38749	-0.292
Mof_N 	N 	0.8646	0.4366	0.3885	-0.276
Mof_N 	N 	0.9072	0.4345	0.2663	-0.206
Mof_N 	N 	0.129	0.4319	0.2872	-0.254
Mof_N 	N 	0.086	0.437	0.4151	-0.193
Mof_N 	N 	0.3669	0.4385	0.6575	-0.217
Mof_N 	N 	0.1485	0.4471	0.6621	-0.371
Mof_N 	N 	0.1429	0.4508	0.5319	-0.201
Mof_N 	N 	0.3711	0.4415	0.5313	-0.421
Mof_O 	O 	0.0419	0.4417	0.98401	-0.698
Mof_K 	K 	0.93897	0.8649	0.48398	2.07
Mof_Pr	Pr	0.75605	0.94189	0.93212	1.134
Mof_Pr	Pr	0.75695	0.93105	0.25993	1.004
Mof_Pt	Pt	0.74695	0.93565	0.09633	0.096
Mof_Pt	Pt	0.50799	0.93836	0.84466	0.076
Mof_Pt	Pt	0.99919	0.93633	0.83944	0.197
Mof_Pt	Pt	0.25521	0.94233	0.09485	0.094
Mof_C 	C 	0.8484	0.937	0.0987	-0.026
Mof_C 	C 	0.7523	0.9381	0.0394	-0.003
Mof_C 	C 	0.6455	0.9369	0.0929	-0.037
Mof_C 	C 	0.7406	0.9319	0.1537	-0.022
Mof_C 	C 	0.459	0.9373	0.8952	-0.026
Mof_C 	C 	0.4186	0.9331	0.8168	-0.026
Mof_C 	C 	0.5543	0.939	0.7933	-0.071
Mof_C 	C 	0.5977	0.9445	0.8721	-0.034
Mof_C 	C 	0.9139	0.9372	0.871	-0.013
Mof_C 	C 	0.9408	0.9355	0.7935	-0.032
Mof_C 	C 	0.0818	0.934	0.807	-0.054
Mof_C 	C 	0.0548	0.9379	0.8879	-0.071
Mof_C 	C 	0.3285	0.9396	0.1342	-0.081
Mof_C 	C 	0.185	0.9446	0.1374	-0.086
Mof_C 	C 	0.1829	0.9468	0.0555	-0.049
Mof_C 	C 	0.3277	0.9411	0.053	-0.066
Mof_N 	N 	0.9069	0.9416	0.1002	-0.275
Mof_N 	N 	0.7533	0.9394	0.00638	-0.263
Mof_N 	N 	0.5871	0.9364	0.0908	-0.326
Mof_N 	N 	0.7383	0.9289	0.18625	-0.279
Mof_N 	N 	0.4298	0.9369	0.9229	-0.303
Mof_N 	N 	0.3692	0.9322	0.79993	-0.288
Mof_N 	N 	0.5765	0.9397	0.763	-0.362
Mof_N 	N 	0.6488	0.9481	0.88749	-0.287
Mof_N 	N 	0.8646	0.9366	0.8885	-0.274
Mof_N 	N 	0.9072	0.9345	0.7663	-0.199
Mof_N 	N 	0.129	0.9319	0.7872	-0.252
Mof_N 	N 	0.086	0.937	0.9151	-0.187
Mof_N 	N 	0.3669	0.9385	0.1575	-0.207
Mof_N 	N 	0.1485	0.9471	0.1621	-0.353
Mof_N 	N 	0.1429	0.9508	0.0319	-0.183
Mof_N 	N 	0.3711	0.9415	0.0313	-0.392
Mof_O 	O 	0.0419	0.9417	0.48401	-0.65
Mof_K 	K 	0.81103	0.6149	0.73398	1.922
Mof_Pr	Pr	0.99395	0.69189	0.18212	1.196
Mof_Pr	Pr	0.99305	0.68105	0.50993	1.026
Mof_Pt	Pt	0.00305	0.68565	0.34633	-0.019
Mof_Pt	Pt	0.24201	0.68836	0.09466	0.053
Mof_Pt	Pt	0.75081	0.68633	0.08944	0.08
Mof_Pt	Pt	0.49479	0.69233	0.34485	0.067
Mof_C 	C 	0.9016	0.687	0.3487	-0.004
Mof_C 	C 	0.9977	0.6881	0.2894	0.034
Mof_C 	C 	0.1045	0.6869	0.3429	-0.041
Mof_C 	C 	0.0094	0.6819	0.4037	-0.041
Mof_C 	C 	0.291	0.6873	0.1452	-0.039
Mof_C 	C 	0.3314	0.6831	0.0668	-0.036
Mof_C 	C 	0.1957	0.689	0.0433	-0.078
Mof_C 	C 	0.1523	0.6945	0.1221	-0.044
Mof_C 	C 	0.8361	0.6872	0.121	-0.008
Mof_C 	C 	0.8092	0.6855	0.0435	-0.033
Mof_C 	C 	0.6682	0.684	0.057	-0.021
Mof_C 	C 	0.6952	0.6879	0.1379	-0.033
Mof_C 	C 	0.4215	0.6896	0.3842	-0.094
Mof_C 	C 	0.565	0.6946	0.3874	-0.103
Mof_C 	C 	0.5671	0.6968	0.3055	-0.068
Mof_C 	C 	0.4223	0.6911	0.303	-0.085
Mof_N 	N 	0.8431	0.6916	0.3502	-0.336
Mof_N 	N 	0.9967	0.6894	0.25638	-0.288
Mof_N 	N 	0.1629	0.6864	0.3408	-0.352
Mof_N 	N 	0.0117	0.6789	0.43625	-0.309
Mof_N 	N 	0.3202	0.6869	0.1729	-0.315
Mof_N 	N 	0.3808	0.6822	0.04993	-0.292
Mof_N 	N 	0.1735	0.6897	0.013	-0.352
Mof_N 	N 	0.1012	0.6981	0.13749	-0.309
Mof_N 	N 	0.8854	0.6866	0.1385	-0.283
Mof_N 	N 	0.8428	0.6845	0.0163	-0.2
Mof_N 	N 	0.621	0.6819	0.0372	-0.263
Mof_N 	N 	0.664	0.687	0.1651	-0.2
Mof_N 	N 	0.3831	0.6885	0.4075	-0.217
Mof_N 	N 	0.6015	0.6971	0.4121	-0.376
Mof_N 	N 	0.6071	0.7008	0.2819	-0.2
Mof_N 	N 	0.3789	0.6915	0.2813	-0.42
Mof_O 	O 	0.7081	0.6917	0.73401	-0.675
Mof_K 	K 	0.81103	0.1149	0.23398	1.884
Mof_Pr	Pr	0.99395	0.19189	0.68212	1.195
Mof_Pr	Pr	0.99305	0.18105	0.00993	1.075
Mof_Pt	Pt	0.00305	0.18565	0.84633	-0.02
Mof_Pt	Pt	0.24201	0.18836	0.59466	0.053
Mof_Pt	Pt	0.75081	0.18633	0.58944	0.082
Mof_Pt	Pt	0.49479	0.19233	0.84485	0.069
Mof_C 	C 	0.9016	0.187	0.8487	-0.003
Mof_C 	C 	0.9977	0.1881	0.7894	0.036
Mof_C 	C 	0.1045	0.1869	0.8429	-0.041
Mof_C 	C 	0.0094	0.1819	0.9037	-0.041
Mof_C 	C 	0.291	0.1873	0.6452	-0.037
Mof_C 	C 	0.3314	0.1831	0.5668	-0.037
Mof_C 	C 	0.1957	0.189	0.5433	-0.081
Mof_C 	C 	0.1523	0.1945	0.6221	-0.044
Mof_C 	C 	0.8361	0.1872	0.621	-0.007
Mof_C 	C 	0.8092	0.1855	0.5435	-0.035
Mof_C 	C 	0.6682	0.184	0.557	-0.022
Mof_C 	C 	0.6952	0.1879	0.6379	-0.031
Mof_C 	C 	0.4215	0.1896	0.8842	-0.093
Mof_C 	C 	0.565	0.1946	0.8874	-0.101
Mof_C 	C 	0.5671	0.1968	0.8055	-0.066
Mof_C 	C 	0.4223	0.1911	0.803	-0.084
Mof_N 	N 	0.8431	0.1916	0.8502	-0.334
Mof_N 	N 	0.9967	0.1894	0.75638	-0.287
Mof_N 	N 	0.1629	0.1864	0.8408	-0.353
Mof_N 	N 	0.0117	0.1789	0.93625	-0.319
Mof_N 	N 	0.3202	0.1869	0.6729	-0.311
Mof_N 	N 	0.3808	0.1822	0.54993	-0.291
Mof_N 	N 	0.1735	0.1897	0.513	-0.368
Mof_N 	N 	0.1012	0.1981	0.63749	-0.309
Mof_N 	N 	0.8854	0.1866	0.6385	-0.282
Mof_N 	N 	0.8428	0.1845	0.5163	-0.207
Mof_N 	N 	0.621	0.1819	0.5372	-0.263
Mof_N 	N 	0.664	0.187	0.6651	-0.198
Mof_N 	N 	0.3831	0.1885	0.9075	-0.218
Mof_N 	N 	0.6015	0.1971	0.9121	-0.374
Mof_N 	N 	0.6071	0.2008	0.7819	-0.198
Mof_N 	N 	0.3789	0.1915	0.7813	-0.418
Mof_O 	O 	0.7081	0.1917	0.23401	-0.674
Mof_K 	K 	0.31103	0.6149	0.23398	1.884
Mof_Pr	Pr	0.49395	0.69189	0.68212	1.104
Mof_Pr	Pr	0.49305	0.68105	0.00993	0.976
Mof_Pt	Pt	0.50305	0.68565	0.84633	0.068
Mof_Pt	Pt	0.74201	0.68836	0.59466	0.054
Mof_Pt	Pt	0.25081	0.68633	0.58944	0.076
Mof_Pt	Pt	0.99479	0.69233	0.84485	0.155
Mof_C 	C 	0.4016	0.687	0.8487	-0.045
Mof_C 	C 	0.4977	0.6881	0.7894	-0.022
Mof_C 	C 	0.6045	0.6869	0.8429	-0.052
Mof_C 	C 	0.5094	0.6819	0.9037	-0.04
Mof_C 	C 	0.791	0.6873	0.6452	-0.035
Mof_C 	C 	0.8314	0.6831	0.5668	-0.035
Mof_C 	C 	0.6957	0.689	0.5433	-0.083
Mof_C 	C 	0.6523	0.6945	0.6221	-0.045
Mof_C 	C 	0.3361	0.6872	0.621	-0.013
Mof_C 	C 	0.3092	0.6855	0.5435	-0.041
Mof_C 	C 	0.1682	0.684	0.557	-0.026
Mof_C 	C 	0.1952	0.6879	0.6379	-0.034
Mof_C 	C 	0.9215	0.6896	0.8842	-0.1
Mof_C 	C 	0.065	0.6946	0.8874	-0.146
Mof_C 	C 	0.0671	0.6968	0.8055	-0.113
Mof_C 	C 	0.9223	0.6911	0.803	-0.088
Mof_N 	N 	0.3431	0.6916	0.8502	-0.324
Mof_N 	N 	0.4967	0.6894	0.75638	-0.279
Mof_N 	N 	0.6629	0.6864	0.8408	-0.349
Mof_N 	N 	0.5117	0.6789	0.93625	-0.293
Mof_N 	N 	0.8202	0.6869	0.6729	-0.311
Mof_N 	N 	0.8808	0.6822	0.54993	-0.295
Mof_N 	N 	0.6735	0.6897	0.513	-0.372
Mof_N 	N 	0.6012	0.6981	0.63749	-0.291
Mof_N 	N 	0.3854	0.6866	0.6385	-0.282
Mof_N 	N 	0.3428	0.6845	0.5163	-0.218
Mof_N 	N 	0.121	0.6819	0.5372	-0.281
Mof_N 	N 	0.164	0.687	0.6651	-0.201
Mof_N 	N 	0.8831	0.6885	0.9075	-0.211
Mof_N 	N 	0.1015	0.6971	0.9121	-0.361
Mof_N 	N 	0.1071	0.7008	0.7819	-0.19
Mof_N 	N 	0.8789	0.6915	0.7813	-0.416
Mof_O 	O 	0.2081	0.6917	0.23401	-0.679
Mof_K 	K 	0.31103	0.1149	0.73398	1.848
Mof_Pr	Pr	0.49395	0.19189	0.18212	1.099
Mof_Pr	Pr	0.49305	0.18105	0.50993	0.927
Mof_Pt	Pt	0.50305	0.18565	0.34633	0.071
Mof_Pt	Pt	0.74201	0.18836	0.09466	0.057
Mof_Pt	Pt	0.25081	0.18633	0.08944	0.079
Mof_Pt	Pt	0.99479	0.19233	0.34485	0.161
Mof_C 	C 	0.4016	0.187	0.3487	-0.045
Mof_C 	C 	0.4977	0.1881	0.2894	-0.022
Mof_C 	C 	0.6045	0.1869	0.3429	-0.051
Mof_C 	C 	0.5094	0.1819	0.4037	-0.039
Mof_C 	C 	0.791	0.1873	0.1452	-0.034
Mof_C 	C 	0.8314	0.1831	0.0668	-0.031
Mof_C 	C 	0.6957	0.189	0.0433	-0.078
Mof_C 	C 	0.6523	0.1945	0.1221	-0.043
Mof_C 	C 	0.3361	0.1872	0.121	-0.012
Mof_C 	C 	0.3092	0.1855	0.0435	-0.037
Mof_C 	C 	0.1682	0.184	0.057	-0.022
Mof_C 	C 	0.1952	0.1879	0.1379	-0.033
Mof_C 	C 	0.9215	0.1896	0.3842	-0.1
Mof_C 	C 	0.065	0.1946	0.3874	-0.149
Mof_C 	C 	0.0671	0.1968	0.3055	-0.114
Mof_C 	C 	0.9223	0.1911	0.303	-0.087
Mof_N 	N 	0.3431	0.1916	0.3502	-0.325
Mof_N 	N 	0.4967	0.1894	0.25638	-0.279
Mof_N 	N 	0.6629	0.1864	0.3408	-0.349
Mof_N 	N 	0.5117	0.1789	0.43625	-0.282
Mof_N 	N 	0.8202	0.1869	0.1729	-0.308
Mof_N 	N 	0.8808	0.1822	0.04993	-0.295
Mof_N 	N 	0.6735	0.1897	0.013	-0.358
Mof_N 	N 	0.6012	0.1981	0.13749	-0.29
Mof_N 	N 	0.3854	0.1866	0.1385	-0.281
Mof_N 	N 	0.3428	0.1845	0.0163	-0.208
Mof_N 	N 	0.121	0.1819	0.0372	-0.281
Mof_N 	N 	0.164	0.187	0.1651	-0.199
Mof_N 	N 	0.8831	0.1885	0.4075	-0.207
Mof_N 	N 	0.1015	0.1971	0.4121	-0.364
Mof_N 	N 	0.1071	0.2008	0.2819	-0.189
Mof_N 	N 	0.8789	0.1915	0.2813	-0.414
Mof_O 	O 	0.2081	0.1917	0.73401	-0.677
Mof_K 	K 	0.68897	0.8851	0.73398	1.955
Mof_Pr	Pr	0.50605	0.80811	0.18212	1.112
Mof_Pr	Pr	0.50695	0.81895	0.50993	0.945
Mof_Pt	Pt	0.49695	0.81435	0.34633	0.067
Mof_Pt	Pt	0.25799	0.81164	0.09466	0.054
Mof_Pt	Pt	0.74919	0.81367	0.08944	0.081
Mof_Pt	Pt	0.00521	0.80767	0.34485	-0.021
Mof_C 	C 	0.5984	0.813	0.3487	-0.045
Mof_C 	C 	0.5023	0.8119	0.2894	-0.022
Mof_C 	C 	0.3955	0.8131	0.3429	-0.052
Mof_C 	C 	0.4906	0.8181	0.4037	-0.039
Mof_C 	C 	0.209	0.8127	0.1452	-0.038
Mof_C 	C 	0.1686	0.8169	0.0668	-0.038
Mof_C 	C 	0.3043	0.811	0.0433	-0.077
Mof_C 	C 	0.3477	0.8055	0.1221	-0.043
Mof_C 	C 	0.6639	0.8128	0.121	-0.014
Mof_C 	C 	0.6908	0.8145	0.0435	-0.037
Mof_C 	C 	0.8318	0.816	0.057	-0.016
Mof_C 	C 	0.8048	0.8121	0.1379	-0.028
Mof_C 	C 	0.0785	0.8104	0.3842	-0.09
Mof_C 	C 	0.935	0.8054	0.3874	-0.06
Mof_C 	C 	0.9329	0.8032	0.3055	-0.022
Mof_C 	C 	0.0777	0.8089	0.303	-0.082
Mof_N 	N 	0.6569	0.8084	0.3502	-0.326
Mof_N 	N 	0.5033	0.8106	0.25638	-0.279
Mof_N 	N 	0.3371	0.8136	0.3408	-0.348
Mof_N 	N 	0.4883	0.8211	0.43625	-0.282
Mof_N 	N 	0.1798	0.8131	0.1729	-0.32
Mof_N 	N 	0.1192	0.8178	0.04993	-0.287
Mof_N 	N 	0.3265	0.8103	0.013	-0.359
Mof_N 	N 	0.3988	0.8019	0.13749	-0.29
Mof_N 	N 	0.6146	0.8134	0.1385	-0.281
Mof_N 	N 	0.6572	0.8155	0.0163	-0.209
Mof_N 	N 	0.879	0.8181	0.0372	-0.244
Mof_N 	N 	0.836	0.813	0.1651	-0.194
Mof_N 	N 	0.1169	0.8115	0.4075	-0.228
Mof_N 	N 	0.8985	0.8029	0.4121	-0.392
Mof_N 	N 	0.8929	0.7992	0.2819	-0.207
Mof_N 	N 	0.1211	0.8085	0.2813	-0.428
Mof_O 	O 	0.7919	0.8083	0.73401	-0.67
Mof_K 	K 	0.68897	0.3851	0.23398	1.894
Mof_Pr	Pr	0.50605	0.30811	0.68212	1.105
Mof_Pr	Pr	0.50695	0.31895	0.00993	0.978
Mof_Pt	Pt	0.49695	0.31435	0.84633	0.068
Mof_Pt	Pt	0.25799	0.31164	0.59466	0.054
Mof_Pt	Pt	0.74919	0.31367	0.58944	0.082
Mof_Pt	Pt	0.00521	0.30767	0.84485	-0.021
Mof_C 	C 	0.5984	0.313	0.8487	-0.046
Mof_C 	C 	0.5023	0.3119	0.7894	-0.021
Mof_C 	C 	0.3955	0.3131	0.8429	-0.052
Mof_C 	C 	0.4906	0.3181	0.9037	-0.04
Mof_C 	C 	0.209	0.3127	0.6452	-0.038
Mof_C 	C 	0.1686	0.3169	0.5668	-0.042
Mof_C 	C 	0.3043	0.311	0.5433	-0.081
Mof_C 	C 	0.3477	0.3055	0.6221	-0.044
Mof_C 	C 	0.6639	0.3128	0.621	-0.014
Mof_C 	C 	0.6908	0.3145	0.5435	-0.04
Mof_C 	C 	0.8318	0.316	0.557	-0.019
Mof_C 	C 	0.8048	0.3121	0.6379	-0.028
Mof_C 	C 	0.0785	0.3104	0.8842	-0.088
Mof_C 	C 	0.935	0.3054	0.8874	-0.056
Mof_C 	C 	0.9329	0.3032	0.8055	-0.02
Mof_C 	C 	0.0777	0.3089	0.803	-0.082
Mof_N 	N 	0.6569	0.3084	0.8502	-0.325
Mof_N 	N 	0.5033	0.3106	0.75638	-0.279
Mof_N 	N 	0.3371	0.3136	0.8408	-0.348
Mof_N 	N 	0.4883	0.3211	0.93625	-0.292
Mof_N 	N 	0.1798	0.3131	0.6729	-0.318
Mof_N 	N 	0.1192	0.3178	0.54993	-0.287
Mof_N 	N 	0.3265	0.3103	0.513	-0.371
Mof_N 	N 	0.3988	0.3019	0.63749	-0.291
Mof_N 	N 	0.6146	0.3134	0.6385	-0.281
Mof_N 	N 	0.6572	0.3155	0.5163	-0.217
Mof_N 	N 	0.879	0.3181	0.5372	-0.244
Mof_N 	N 	0.836	0.313	0.6651	-0.195
Mof_N 	N 	0.1169	0.3115	0.9075	-0.228
Mof_N 	N 	0.8985	0.3029	0.9121	-0.388
Mof_N 	N 	0.8929	0.2992	0.7819	-0.207
Mof_N 	N 	0.1211	0.3085	0.7813	-0.426
Mof_O 	O 	0.7919	0.3083	0.23401	-0.666
Mof_K 	K 	0.18897	0.8851	0.23398	1.937
Mof_Pr	Pr	0.00605	0.80811	0.68212	1.033
Mof_Pr	Pr	0.00695	0.81895	0.00993	0.903
Mof_Pt	Pt	0.99695	0.81435	0.84633	0.153
Mof_Pt	Pt	0.75799	0.81164	0.59466	0.055
Mof_Pt	Pt	0.24919	0.81367	0.58944	0.076
Mof_Pt	Pt	0.50521	0.80767	0.84485	0.065
Mof_C 	C 	0.0984	0.813	0.8487	-0.086
Mof_C 	C 	0.0023	0.8119	0.7894	-0.075
Mof_C 	C 	0.8955	0.8131	0.8429	-0.062
Mof_C 	C 	0.9906	0.8181	0.9037	-0.038
Mof_C 	C 	0.709	0.8127	0.6452	-0.036
Mof_C 	C 	0.6686	0.8169	0.5668	-0.039
Mof_C 	C 	0.8043	0.811	0.5433	-0.081
Mof_C 	C 	0.8477	0.8055	0.6221	-0.043
Mof_C 	C 	0.1639	0.8128	0.621	-0.018
Mof_C 	C 	0.1908	0.8145	0.5435	-0.043
Mof_C 	C 	0.3318	0.816	0.557	-0.023
Mof_C 	C 	0.3048	0.8121	0.6379	-0.031
Mof_C 	C 	0.5785	0.8104	0.8842	-0.095
Mof_C 	C 	0.435	0.8054	0.8874	-0.102
Mof_C 	C 	0.4329	0.8032	0.8055	-0.067
Mof_C 	C 	0.5777	0.8089	0.803	-0.085
Mof_N 	N 	0.1569	0.8084	0.8502	-0.315
Mof_N 	N 	0.0033	0.8106	0.75638	-0.271
Mof_N 	N 	0.8371	0.8136	0.8408	-0.345
Mof_N 	N 	0.9883	0.8211	0.93625	-0.267
Mof_N 	N 	0.6798	0.8131	0.6729	-0.317
Mof_N 	N 	0.6192	0.8178	0.54993	-0.291
Mof_N 	N 	0.8265	0.8103	0.513	-0.383
Mof_N 	N 	0.8988	0.8019	0.63749	-0.272
Mof_N 	N 	0.1146	0.8134	0.6385	-0.279
Mof_N 	N 	0.1572	0.8155	0.5163	-0.226
Mof_N 	N 	0.379	0.8181	0.5372	-0.263
Mof_N 	N 	0.336	0.813	0.6651	-0.198
Mof_N 	N 	0.6169	0.8115	0.9075	-0.22
Mof_N 	N 	0.3985	0.8029	0.9121	-0.375
Mof_N 	N 	0.3929	0.7992	0.7819	-0.199
Mof_N 	N 	0.6211	0.8085	0.7813	-0.424
Mof_O 	O 	0.2919	0.8083	0.23401	-0.675
Mof_K 	K 	0.18897	0.3851	0.73398	1.877
Mof_Pr	Pr	0.00605	0.30811	0.18212	1.024
Mof_Pr	Pr	0.00695	0.31895	0.50993	0.841
Mof_Pt	Pt	0.99695	0.31435	0.34633	0.161
Mof_Pt	Pt	0.75799	0.31164	0.09466	0.057
Mof_Pt	Pt	0.24919	0.31367	0.08944	0.079
Mof_Pt	Pt	0.50521	0.30767	0.34485	0.067
Mof_C 	C 	0.0984	0.313	0.3487	-0.088
Mof_C 	C 	0.0023	0.3119	0.2894	-0.078
Mof_C 	C 	0.8955	0.3131	0.3429	-0.062
Mof_C 	C 	0.9906	0.3181	0.4037	-0.037
Mof_C 	C 	0.709	0.3127	0.1452	-0.037
Mof_C 	C 	0.6686	0.3169	0.0668	-0.037
Mof_C 	C 	0.8043	0.311	0.0433	-0.077
Mof_C 	C 	0.8477	0.3055	0.1221	-0.041
Mof_C 	C 	0.1639	0.3128	0.121	-0.018
Mof_C 	C 	0.1908	0.3145	0.0435	-0.041
Mof_C 	C 	0.3318	0.316	0.057	-0.021
Mof_C 	C 	0.3048	0.3121	0.1379	-0.032
Mof_C 	C 	0.5785	0.3104	0.3842	-0.094
Mof_C 	C 	0.435	0.3054	0.3874	-0.102
Mof_C 	C 	0.4329	0.3032	0.3055	-0.067
Mof_C 	C 	0.5777	0.3089	0.303	-0.086
Mof_N 	N 	0.1569	0.3084	0.3502	-0.316
Mof_N 	N 	0.0033	0.3106	0.25638	-0.271
Mof_N 	N 	0.8371	0.3136	0.3408	-0.345
Mof_N 	N 	0.9883	0.3211	0.43625	-0.255
Mof_N 	N 	0.6798	0.3131	0.1729	-0.315
Mof_N 	N 	0.6192	0.3178	0.04993	-0.292
Mof_N 	N 	0.8265	0.3103	0.013	-0.365
Mof_N 	N 	0.8988	0.3019	0.13749	-0.271
Mof_N 	N 	0.1146	0.3134	0.1385	-0.279
Mof_N 	N 	0.1572	0.3155	0.0163	-0.217
Mof_N 	N 	0.379	0.3181	0.0372	-0.263
Mof_N 	N 	0.336	0.313	0.1651	-0.199
Mof_N 	N 	0.6169	0.3115	0.4075	-0.217
Mof_N 	N 	0.3985	0.3029	0.4121	-0.375
Mof_N 	N 	0.3929	0.2992	0.2819	-0.199
Mof_N 	N 	0.6211	0.3085	0.2813	-0.422
Mof_O 	O 	0.2919	0.3083	0.73401	-0.671
Mof_K 	K 	0.5	0.5	0.14427	1.763
Mof_K 	K 	0.5	0.5	0.5453	2.189
Mof_K 	K 	0.5	0	0.64427	1.597
Mof_K 	K 	0.5	6.9409e-34	0.0453	2.065
Mof_K 	K 	-6.78185e-33	0.5	0.64427	1.63
Mof_K 	K 	4.46854e-33	0.5	0.0453	2.105
Mof_K 	K 	3.74453e-33	0	0.14427	1.463
Mof_K 	K 	1.47648e-32	0	0.5453	1.793
Mof_K 	K 	0.75	0.75	0.39427	1.766
Mof_K 	K 	0.75	0.75	0.7953	2.185
Mof_K 	K 	0.75	0.25	0.89427	1.74
Mof_K 	K 	0.75	0.25	0.2953	2.199
Mof_K 	K 	0.25	0.75	0.89427	1.739
Mof_K 	K 	0.25	0.75	0.2953	2.174
Mof_K 	K 	0.25	0.25	0.39427	1.751
Mof_K 	K 	0.25	0.25	0.7953	2.183
_end
