# CIF file generated by openbabel 3.1.0, see https://openbabel.org
data_I
_chemical_name_common 'GIFFAE_clean'
_cell_length_a 12.7748
_cell_length_b 12.7976
_cell_length_c 13.3317
_cell_angle_alpha 90
_cell_angle_beta 90
_cell_angle_gamma 90
_space_group_name_H-M_alt 'P 1'
_space_group_name_Hall 'P 1'
loop_
    _symmetry_equiv_pos_as_xyz
    x,y,z
loop_
    _atom_site_label
    _atom_site_type_symbol
    _atom_site_fract_x
    _atom_site_fract_y
    _atom_site_fract_z
    _atom_site_occupancy
    Sm1      Sm       0.54260    0.21070    0.25420    1.000
    Sm2      Sm       0.53970    0.70810    0.09480    1.000
    Sm3      Sm       0.04260    0.78930    0.24580    1.000
    Sm4      Sm       0.03970    0.29190    0.40520    1.000
    Sm5      Sm       0.95740    0.71070    0.74580    1.000
    Sm6      Sm       0.96030    0.20810    0.90520    1.000
    Sm7      Sm       0.45740    0.28930    0.75420    1.000
    Sm8      Sm       0.46030    0.79190    0.59480    1.000
    C1       C        0.70000    0.25000    0.94700    1.000
    C2       C        0.61900    0.25400    0.01000    1.000
    C3       C        0.71400    0.26400    0.83600    1.000
    C4       C        0.50200    0.26400    0.01100    1.000
    C5       C        0.49200    0.75200    0.34300    1.000
    C6       C        0.52600    0.96500    0.17800    1.000
    C7       C        0.50900    0.94700    0.28700    1.000
    C8       C        0.49600    0.86400    0.35100    1.000
    C9       C        0.20000    0.75000    0.55300    1.000
    C10      C        0.11900    0.74600    0.49000    1.000
    C11      C        0.21400    0.73600    0.66400    1.000
    C12      C        0.00200    0.73600    0.48900    1.000
    C13      C        0.99200    0.24800    0.15700    1.000
    C14      C        0.02600    0.03500    0.32200    1.000
    C15      C        0.00900    0.05300    0.21300    1.000
    C16      C        0.99600    0.13600    0.14900    1.000
    C17      C        0.80000    0.75000    0.05300    1.000
    C18      C        0.88100    0.75400    0.99000    1.000
    C19      C        0.78600    0.76400    0.16400    1.000
    C20      C        0.99800    0.76400    0.98900    1.000
    C21      C        0.00800    0.25200    0.65700    1.000
    C22      C        0.97400    0.46500    0.82200    1.000
    C23      C        0.99100    0.44700    0.71300    1.000
    C24      C        0.00400    0.36400    0.64900    1.000
    C25      C        0.30000    0.25000    0.44700    1.000
    C26      C        0.38100    0.24600    0.51000    1.000
    C27      C        0.28600    0.23600    0.33600    1.000
    C28      C        0.49800    0.23600    0.51100    1.000
    C29      C        0.50800    0.74800    0.84300    1.000
    C30      C        0.47400    0.53500    0.67800    1.000
    C31      C        0.49100    0.55300    0.78700    1.000
    C32      C        0.50400    0.63600    0.85100    1.000
    N1       N        0.79300    0.23100    0.99700    1.000
    N2       N        0.76500    0.22800    0.09800    1.000
    N3       N        0.66300    0.24100    0.10700    1.000
    N4       N        0.50800    0.03800    0.34500    1.000
    N5       N        0.49400    0.01400    0.43900    1.000
    N6       N        0.49100    0.90900    0.44100    1.000
    N7       N        0.29300    0.76900    0.50300    1.000
    N8       N        0.26500    0.77200    0.40200    1.000
    N9       N        0.16300    0.75900    0.39300    1.000
    N10      N        0.00800    0.96200    0.15500    1.000
    N11      N        0.99400    0.98600    0.06100    1.000
    N12      N        0.99100    0.09100    0.05900    1.000
    N13      N        0.70700    0.73100    0.00300    1.000
    N14      N        0.73500    0.72800    0.90200    1.000
    N15      N        0.83700    0.74100    0.89300    1.000
    N16      N        0.99200    0.53800    0.65500    1.000
    N17      N        0.00600    0.51400    0.56100    1.000
    N18      N        0.00900    0.40900    0.55900    1.000
    N19      N        0.20700    0.26900    0.49700    1.000
    N20      N        0.23500    0.27200    0.59800    1.000
    N21      N        0.33700    0.25900    0.60700    1.000
    N22      N        0.49200    0.46200    0.84500    1.000
    N23      N        0.50600    0.48600    0.93900    1.000
    N24      N        0.50900    0.59100    0.94100    1.000
    O1       O        0.80400    0.24300    0.80000    1.000
    O2       O        0.63700    0.29000    0.78500    1.000
    O3       O        0.45900    0.26700    0.09500    1.000
    O4       O        0.45300    0.25500    0.92800    1.000
    O5       O        0.53200    0.05700    0.14700    1.000
    O6       O        0.52700    0.88600    0.12100    1.000
    O7       O        0.49200    0.70400    0.43100    1.000
    O8       O        0.48600    0.70600    0.26200    1.000
    O9       O        0.30400    0.75700    0.70000    1.000
    O10      O        0.13700    0.71000    0.71500    1.000
    O11      O        0.95900    0.73300    0.40500    1.000
    O12      O        0.95300    0.74500    0.57200    1.000
    O13      O        0.03200    0.94300    0.35300    1.000
    O14      O        0.02700    0.11400    0.37900    1.000
    O15      O        0.99200    0.29600    0.06900    1.000
    O16      O        0.98600    0.29400    0.23800    1.000
    O17      O        0.69600    0.74300    0.20000    1.000
    O18      O        0.86300    0.79000    0.21500    1.000
    O19      O        0.04100    0.76700    0.90500    1.000
    O20      O        0.04700    0.75500    0.07200    1.000
    O21      O        0.96800    0.55700    0.85300    1.000
    O22      O        0.97300    0.38600    0.87900    1.000
    O23      O        0.00800    0.20400    0.56900    1.000
    O24      O        0.01400    0.20600    0.73800    1.000
    O25      O        0.19600    0.25700    0.30000    1.000
    O26      O        0.36300    0.21000    0.28500    1.000
    O27      O        0.54100    0.23300    0.59500    1.000
    O28      O        0.54700    0.24500    0.42800    1.000
    O29      O        0.46800    0.44300    0.64700    1.000
    O30      O        0.47300    0.61400    0.62100    1.000
    O31      O        0.50800    0.79600    0.93100    1.000
    O32      O        0.51400    0.79400    0.76200    1.000
