# CIF file generated by openbabel 3.1.0, see https://openbabel.org
data_I
_chemical_name_common 'image0'
_cell_length_a 11.135
_cell_length_b 12.38
_cell_length_c 14.607
_cell_angle_alpha 84.662
_cell_angle_beta 89.537
_cell_angle_gamma 67.261
_space_group_name_H-M_alt 'P 1'
_space_group_name_Hall 'P 1'
loop_
    _symmetry_equiv_pos_as_xyz
    x,y,z
loop_
    _atom_site_label
    _atom_site_type_symbol
    _atom_site_fract_x
    _atom_site_fract_y
    _atom_site_fract_z
    _atom_site_occupancy
    Ag1      Ag       0.27092    0.51881    0.73996    1.000
    Ag2      Ag       0.82223    0.90341    0.91585    1.000
    Ag3      Ag       0.24109    0.09228    0.59621    1.000
    N1       N        0.09600    0.62760    0.63370    1.000
    N2       N        0.89550    0.77600    0.51330    1.000
    N3       N        0.10440    0.03340    0.70030    1.000
    N4       N        0.96000    0.96150    0.82910    1.000
    S1       S        0.01157    0.75436    0.77545    1.000
    C1       C        0.08340    0.60320    0.54860    1.000
    H1       H        0.14390    0.53420    0.52890    1.000
    C2       C        0.98500    0.67550    0.48840    1.000
    H2       H        0.98050    0.65430    0.42950    1.000
    C3       C        0.90430    0.79900    0.59840    1.000
    H3       H        0.84140    0.86640    0.61860    1.000
    C4       C        0.00270    0.72740    0.65820    1.000
    C5       C        0.02370    0.89370    0.76460    1.000
    C6       C        0.09640    0.92800    0.70160    1.000
    H4       H        0.14140    0.87720    0.65870    1.000
    C7       C        0.04160    0.10090    0.76550    1.000
    H5       H        0.04610    0.17410    0.76730    1.000
    C8       C        0.97060    0.06570    0.83000    1.000
    H6       H        0.92930    0.11470    0.87500    1.000
    N5       N        0.63420    0.95100    0.81650    1.000
    N6       N        0.42270    0.02270    0.69300    1.000
    N7       N        0.24720    0.39000    0.85110    1.000
    N8       N        0.19760    0.23110    0.97800    1.000
    S2       S        0.33227    0.24516    0.72383    1.000
    C9       C        0.61270    0.87600    0.76560    1.000
    H7       H        0.67020    0.79750    0.77210    1.000
    C10      C        0.50870    0.90980    0.70340    1.000
    H8       H        0.49800    0.85460    0.66880    1.000
    C11      C        0.44250    0.09630    0.74500    1.000
    C12      C        0.54700    0.06260    0.80560    1.000
    H9       H        0.55760    0.11820    0.83980    1.000
    C13      C        0.24980    0.20020    0.89650    1.000
    H10      H        0.26950    0.12380    0.88190    1.000
    C14      C        0.27470    0.27870    0.83430    1.000
    C15      C        0.19350    0.42120    0.93190    1.000
    H11      H        0.17090    0.49830    0.94560    1.000
    C16      C        0.17130    0.34310    0.99400    1.000
    H12      H        0.13650    0.36800    0.05010    1.000
    Ag4      Ag       0.72908    0.48119    0.26004    1.000
    Ag5      Ag       0.17777    0.09659    0.08415    1.000
    Ag6      Ag       0.75891    0.90772    0.40379    1.000
    N9       N        0.90400    0.37240    0.36630    1.000
    N10      N        0.10450    0.22400    0.48670    1.000
    N11      N        0.89560    0.96660    0.29970    1.000
    N12      N        0.04000    0.03850    0.17090    1.000
    S3       S        0.98843    0.24564    0.22455    1.000
    C17      C        0.91660    0.39680    0.45140    1.000
    H13      H        0.85610    0.46580    0.47110    1.000
    C18      C        0.01500    0.32450    0.51160    1.000
    H14      H        0.01950    0.34570    0.57050    1.000
    C19      C        0.09570    0.20100    0.40160    1.000
    H15      H        0.15860    0.13360    0.38140    1.000
    C20      C        0.99730    0.27260    0.34180    1.000
    C21      C        0.97630    0.10630    0.23540    1.000
    C22      C        0.90360    0.07200    0.29840    1.000
    H16      H        0.85860    0.12280    0.34130    1.000
    C23      C        0.95840    0.89910    0.23450    1.000
    H17      H        0.95390    0.82590    0.23270    1.000
    C24      C        0.02940    0.93430    0.17000    1.000
    H18      H        0.07070    0.88530    0.12500    1.000
    N13      N        0.36580    0.04900    0.18350    1.000
    N14      N        0.57730    0.97730    0.30700    1.000
    N15      N        0.75280    0.61000    0.14890    1.000
    N16      N        0.80240    0.76890    0.02200    1.000
    S4       S        0.66773    0.75484    0.27617    1.000
    C25      C        0.38730    0.12400    0.23440    1.000
    H19      H        0.32980    0.20250    0.22790    1.000
    C26      C        0.49130    0.09020    0.29660    1.000
    H20      H        0.50200    0.14540    0.33120    1.000
    C27      C        0.55750    0.90370    0.25500    1.000
    C28      C        0.45300    0.93740    0.19440    1.000
    H21      H        0.44240    0.88180    0.16020    1.000
    C29      C        0.75020    0.79980    0.10350    1.000
    H22      H        0.73050    0.87620    0.11810    1.000
    C30      C        0.72530    0.72130    0.16570    1.000
    C31      C        0.80650    0.57880    0.06810    1.000
    H23      H        0.82910    0.50170    0.05440    1.000
    C32      C        0.82870    0.65690    0.00600    1.000
    H24      H        0.86350    0.63200    0.94990    1.000
