data_functionalizedCrystal
_audit_creation_method	'EQeq! by Chris Wilmer'
_symmetry_space_group_name_H-M	'P1'
_symmetry_Int_Tables_number	1
_symmetry_cell_setting	triclinic
loop_
_symmetry_equiv_pos_as_xyz
  x,y,z
_cell_length_a	18.797
_cell_length_b	18.883
_cell_length_c	31.934
_cell_angle_alpha	90
_cell_angle_beta	90.69
_cell_angle_gamma	90
loop_
_atom_site_label
_atom_site_type_symbol
_atom_site_fract_x
_atom_site_fract_y
_atom_site_fract_z
_atom_site_charge
Mof_Ag	Ag	0.46384	0.17587	0.37496	0.759
Mof_Ag	Ag	0.96476	0.21329	0.4759	0.619
Mof_Ag	Ag	0.56681	0.28234	0.6737	0.759
Mof_Ag	Ag	0.79651	0.0427	0.29516	0.661
Mof_Ag	Ag	0.03616	0.67587	0.12504	0.764
Mof_Ag	Ag	0.53524	0.71329	0.0241	0.614
Mof_Ag	Ag	0.93319	0.78234	0.8263	0.76
Mof_Ag	Ag	0.70349	0.5427	0.20484	0.656
Mof_Ag	Ag	0.53616	0.82413	0.62504	0.76
Mof_Ag	Ag	0.03524	0.78671	0.5241	0.62
Mof_Ag	Ag	0.43319	0.71766	0.3263	0.76
Mof_Ag	Ag	0.20349	0.9573	0.70484	0.662
Mof_Ag	Ag	0.96384	0.32413	0.87496	0.765
Mof_Ag	Ag	0.46476	0.28671	0.9759	0.615
Mof_Ag	Ag	0.06681	0.21766	0.1737	0.761
Mof_Ag	Ag	0.29651	0.4573	0.79516	0.657
Mof_H 	H 	0.5241	0.3551	0.5935	0.087
Mof_H 	H 	0.5243	0.1525	0.6134	0.073
Mof_H 	H 	0.4517	0.0072	0.5552	0.149
Mof_H 	H 	0.5207	0.0433	0.5731	0.172
Mof_H 	H 	0.4483	0.0523	0.5963	0.17
Mof_H 	H 	0.4968	0.1186	0.4677	0.045
Mof_H 	H 	0.3137	0.1005	0.4108	0.118
Mof_H 	H 	0.1543	0.0316	0.5027	0.122
Mof_H 	H 	0.2237	0.9865	0.4977	0.133
Mof_H 	H 	0.2195	0.0442	0.5329	0.132
Mof_H 	H 	0.0927	0.1075	0.4762	0.024
Mof_H 	H 	0.0942	0.3111	0.4541	0.024
Mof_H 	H 	0.1538	0.397	0.4645	0.146
Mof_H 	H 	0.2212	0.4054	0.4935	0.183
Mof_H 	H 	0.2221	0.4344	0.4475	0.185
Mof_H 	H 	0.3154	0.2762	0.392	0.08
Mof_H 	H 	0.4998	0.3038	0.4483	0.103
Mof_H 	H 	0.4995	0.4308	0.5524	0.22
Mof_H 	H 	0.4965	0.4456	0.5041	0.203
Mof_H 	H 	0.4274	0.4526	0.5309	0.212
Mof_H 	H 	0.5858	0.2859	0.3803	0.064
Mof_H 	H 	0.6043	0.0819	0.3853	0.056
Mof_H 	H 	0.7549	0.9676	0.3886	0.123
Mof_H 	H 	0.6875	0.9912	0.4135	0.141
Mof_H 	H 	0.6866	0.9938	0.3645	0.163
Mof_H 	H 	0.8267	0.1177	0.4516	0.042
Mof_H 	H 	0.0065	0.1225	0.39	0.135
Mof_H 	H 	0.9685	0.9756	0.3212	0.15
Mof_H 	H 	0.9728	0.003	0.275	0.189
Mof_H 	H 	0.0376	0.0134	0.3057	0.228
Mof_H 	H 	0.0227	0.1014	0.245	0.08
Mof_H 	H 	0.0052	0.3078	0.2401	0.075
Mof_H 	H 	0.9117	0.4259	0.3068	0.166
Mof_H 	H 	0.9699	0.4049	0.2744	0.182
Mof_H 	H 	0.891	0.3798	0.2677	0.163
Mof_H 	H 	0.99	0.2946	0.3868	0.056
Mof_H 	H 	0.8119	0.2922	0.4467	0.135
Mof_H 	H 	0.6356	0.3733	0.371	0.186
Mof_H 	H 	0.6997	0.4202	0.3861	0.168
Mof_H 	H 	0.6995	0.3874	0.341	0.157
Mof_H 	H 	0.3708	0.3807	0.0394	0.024
Mof_H 	H 	0.3949	0.1732	0.0287	0.045
Mof_H 	H 	0.3857	0.0853	0.0538	0.139
Mof_H 	H 	0.3932	0.0583	0.1001	0.128
Mof_H 	H 	0.3283	0.0343	0.0723	0.148
Mof_H 	H 	0.1856	0.1683	0.1062	0.117
Mof_H 	H 	0.172	0.1118	0.2225	0.108
Mof_H 	H 	0.2932	0.9839	0.2293	0.177
Mof_H 	H 	0.3636	0.0033	0.2535	0.208
Mof_H 	H 	0.2904	0.0065	0.2765	0.197
Mof_H 	H 	0.3778	0.0899	0.3108	0.081
Mof_H 	H 	0.3881	0.2961	0.3218	0.055
Mof_H 	H 	0.3889	0.3838	0.2877	0.202
Mof_H 	H 	0.3952	0.4011	0.2399	0.189
Mof_H 	H 	0.3331	0.4338	0.2659	0.207
Mof_H 	H 	0.1893	0.2819	0.2395	0.098
Mof_H 	H 	0.1614	0.3402	0.123	0.065
Mof_H 	H 	0.2906	0.4842	0.1187	0.197
Mof_H 	H 	0.3658	0.4536	0.1081	0.175
Mof_H 	H 	0.3092	0.4653	0.0723	0.155
Mof_H 	H 	0.6897	0.9148	0.3057	0.079
Mof_H 	H 	0.8706	0.9141	0.2473	0.09
Mof_H 	H 	0.9472	0.856	0.2268	0.186
Mof_H 	H 	0.9782	0.7952	0.255	0.154
Mof_H 	H 	0.9718	0.7848	0.2064	0.155
Mof_H 	H 	0.7989	0.6863	0.1975	0.051
Mof_H 	H 	0.8473	0.5178	0.2605	0.042
Mof_H 	H 	0.0362	0.5959	0.2856	0.201
Mof_H 	H 	0.0306	0.616	0.3331	0.156
Mof_H 	H 	0.0429	0.537	0.32	0.166
Mof_H 	H 	0.9867	0.5029	0.378	0.052
Mof_H 	H 	0.8044	0.4898	0.4362	0.082
Mof_H 	H 	0.6425	0.5906	0.4139	0.217
Mof_H 	H 	0.6917	0.5322	0.4337	0.22
Mof_H 	H 	0.7154	0.6118	0.4346	0.189
Mof_H 	H 	0.6975	0.5155	0.3043	0.058
Mof_H 	H 	0.6512	0.691	0.2466	0.048
Mof_H 	H 	0.625	0.8607	0.3386	0.184
Mof_H 	H 	0.5785	0.792	0.3421	0.15
Mof_H 	H 	0.6478	0.8001	0.3695	0.156
Mof_H 	H 	0.9759	0.8551	0.9065	0.086
Mof_H 	H 	0.9757	0.6525	0.8866	0.072
Mof_H 	H 	0.0483	0.5072	0.9448	0.152
Mof_H 	H 	0.9793	0.5433	0.9269	0.178
Mof_H 	H 	0.0517	0.5523	0.9037	0.173
Mof_H 	H 	0.0032	0.6186	0.0323	0.046
Mof_H 	H 	0.1863	0.6005	0.0892	0.118
Mof_H 	H 	0.3457	0.5316	0.9973	0.123
Mof_H 	H 	0.2763	0.4865	0.0023	0.133
Mof_H 	H 	0.2805	0.5442	0.9671	0.133
Mof_H 	H 	0.4073	0.6075	0.0238	0.025
Mof_H 	H 	0.4058	0.8111	0.0459	0.024
Mof_H 	H 	0.3462	0.897	0.0355	0.145
Mof_H 	H 	0.2788	0.9054	0.0065	0.183
Mof_H 	H 	0.2779	0.9344	0.0525	0.185
Mof_H 	H 	0.1846	0.7762	0.108	0.08
Mof_H 	H 	0.0002	0.8038	0.0517	0.105
Mof_H 	H 	0.0005	0.9308	0.9476	0.222
Mof_H 	H 	0.0035	0.9456	0.9959	0.205
Mof_H 	H 	0.0726	0.9526	0.9691	0.213
Mof_H 	H 	0.9142	0.7859	0.1197	0.062
Mof_H 	H 	0.8957	0.5819	0.1147	0.054
Mof_H 	H 	0.7451	0.4676	0.1114	0.135
Mof_H 	H 	0.8125	0.4912	0.0865	0.152
Mof_H 	H 	0.8134	0.4938	0.1355	0.175
Mof_H 	H 	0.6733	0.6177	0.0484	0.041
Mof_H 	H 	0.4935	0.6225	0.11	0.137
Mof_H 	H 	0.5315	0.4756	0.1788	0.162
Mof_H 	H 	0.5272	0.503	0.225	0.196
Mof_H 	H 	0.4624	0.5134	0.1943	0.236
Mof_H 	H 	0.4773	0.6014	0.255	0.079
Mof_H 	H 	0.4948	0.8078	0.2599	0.074
Mof_H 	H 	0.5883	0.9259	0.1932	0.164
Mof_H 	H 	0.5301	0.9049	0.2256	0.181
Mof_H 	H 	0.609	0.8798	0.2323	0.162
Mof_H 	H 	0.51	0.7946	0.1132	0.056
Mof_H 	H 	0.6881	0.7922	0.0533	0.134
Mof_H 	H 	0.8644	0.8733	0.129	0.184
Mof_H 	H 	0.8003	0.9202	0.1139	0.165
Mof_H 	H 	0.8005	0.8874	0.159	0.155
Mof_H 	H 	0.1292	0.8807	0.4606	0.024
Mof_H 	H 	0.1051	0.6732	0.4713	0.044
Mof_H 	H 	0.1143	0.5853	0.4462	0.138
Mof_H 	H 	0.1068	0.5583	0.3999	0.127
Mof_H 	H 	0.1717	0.5343	0.4277	0.146
Mof_H 	H 	0.3144	0.6683	0.3938	0.117
Mof_H 	H 	0.328	0.6118	0.2775	0.108
Mof_H 	H 	0.2068	0.4839	0.2707	0.179
Mof_H 	H 	0.1364	0.5033	0.2465	0.209
Mof_H 	H 	0.2096	0.5065	0.2235	0.198
Mof_H 	H 	0.1222	0.5899	0.1892	0.08
Mof_H 	H 	0.1119	0.7961	0.1782	0.055
Mof_H 	H 	0.1111	0.8838	0.2123	0.203
Mof_H 	H 	0.1048	0.9011	0.2601	0.191
Mof_H 	H 	0.1669	0.9338	0.2341	0.208
Mof_H 	H 	0.3107	0.7819	0.2605	0.098
Mof_H 	H 	0.3386	0.8402	0.377	0.065
Mof_H 	H 	0.2094	0.9842	0.3813	0.198
Mof_H 	H 	0.1342	0.9536	0.3919	0.176
Mof_H 	H 	0.1908	0.9653	0.4277	0.156
Mof_H 	H 	0.8103	0.4148	0.1943	0.079
Mof_H 	H 	0.6294	0.4141	0.2527	0.091
Mof_H 	H 	0.5528	0.356	0.2732	0.188
Mof_H 	H 	0.5218	0.2952	0.245	0.156
Mof_H 	H 	0.5282	0.2848	0.2936	0.157
Mof_H 	H 	0.7011	0.1863	0.3025	0.051
Mof_H 	H 	0.6527	0.0178	0.2395	0.043
Mof_H 	H 	0.4638	0.0959	0.2144	0.202
Mof_H 	H 	0.4694	0.116	0.1669	0.157
Mof_H 	H 	0.4571	0.037	0.18	0.167
Mof_H 	H 	0.5133	0.0029	0.122	0.051
Mof_H 	H 	0.6956	0.9898	0.0638	0.074
Mof_H 	H 	0.8575	0.0906	0.0861	0.218
Mof_H 	H 	0.8083	0.0322	0.0663	0.223
Mof_H 	H 	0.7846	0.1118	0.0654	0.19
Mof_H 	H 	0.8025	0.0155	0.1957	0.059
Mof_H 	H 	0.8488	0.191	0.2534	0.048
Mof_H 	H 	0.875	0.3607	0.1614	0.184
Mof_H 	H 	0.9215	0.292	0.1579	0.149
Mof_H 	H 	0.8522	0.3001	0.1305	0.155
Mof_H 	H 	0.4759	0.6449	0.4065	0.087
Mof_H 	H 	0.4757	0.8475	0.3866	0.073
Mof_H 	H 	0.5483	0.9928	0.4448	0.149
Mof_H 	H 	0.4793	0.9567	0.4269	0.172
Mof_H 	H 	0.5517	0.9477	0.4037	0.17
Mof_H 	H 	0.5032	0.8814	0.5323	0.045
Mof_H 	H 	0.6863	0.8995	0.5892	0.118
Mof_H 	H 	0.8457	0.9684	0.4973	0.122
Mof_H 	H 	0.7763	0.0135	0.5023	0.133
Mof_H 	H 	0.7805	0.9558	0.4671	0.132
Mof_H 	H 	0.9073	0.8925	0.5238	0.024
Mof_H 	H 	0.9058	0.6889	0.5459	0.024
Mof_H 	H 	0.8462	0.603	0.5355	0.146
Mof_H 	H 	0.7788	0.5946	0.5065	0.183
Mof_H 	H 	0.7779	0.5656	0.5525	0.185
Mof_H 	H 	0.6846	0.7238	0.608	0.08
Mof_H 	H 	0.5002	0.6962	0.5517	0.103
Mof_H 	H 	0.5005	0.5692	0.4476	0.22
Mof_H 	H 	0.5035	0.5544	0.4959	0.203
Mof_H 	H 	0.5726	0.5474	0.4691	0.212
Mof_H 	H 	0.4142	0.7141	0.6197	0.064
Mof_H 	H 	0.3957	0.9181	0.6147	0.056
Mof_H 	H 	0.2451	0.0324	0.6114	0.123
Mof_H 	H 	0.3125	0.0088	0.5865	0.141
Mof_H 	H 	0.3134	0.0062	0.6355	0.163
Mof_H 	H 	0.1733	0.8823	0.5484	0.042
Mof_H 	H 	0.9935	0.8775	0.61	0.135
Mof_H 	H 	0.0315	0.0244	0.6788	0.15
Mof_H 	H 	0.0272	0.997	0.725	0.189
Mof_H 	H 	0.9624	0.9866	0.6943	0.228
Mof_H 	H 	0.9773	0.8986	0.755	0.08
Mof_H 	H 	0.9948	0.6922	0.7599	0.075
Mof_H 	H 	0.0883	0.5741	0.6932	0.166
Mof_H 	H 	0.0301	0.5951	0.7256	0.182
Mof_H 	H 	0.109	0.6202	0.7323	0.163
Mof_H 	H 	0.01	0.7054	0.6132	0.056
Mof_H 	H 	0.1881	0.7078	0.5533	0.135
Mof_H 	H 	0.3644	0.6267	0.629	0.186
Mof_H 	H 	0.3003	0.5798	0.6139	0.168
Mof_H 	H 	0.3005	0.6126	0.659	0.157
Mof_H 	H 	0.6292	0.6193	0.9606	0.024
Mof_H 	H 	0.6051	0.8268	0.9713	0.045
Mof_H 	H 	0.6143	0.9147	0.9462	0.139
Mof_H 	H 	0.6068	0.9417	0.8999	0.128
Mof_H 	H 	0.6717	0.9657	0.9277	0.148
Mof_H 	H 	0.8144	0.8317	0.8938	0.117
Mof_H 	H 	0.828	0.8882	0.7775	0.108
Mof_H 	H 	0.7068	0.0161	0.7707	0.177
Mof_H 	H 	0.6364	0.9967	0.7465	0.208
Mof_H 	H 	0.7096	0.9935	0.7235	0.197
Mof_H 	H 	0.6222	0.9101	0.6892	0.081
Mof_H 	H 	0.6119	0.7039	0.6782	0.055
Mof_H 	H 	0.6111	0.6162	0.7123	0.202
Mof_H 	H 	0.6048	0.5989	0.7601	0.189
Mof_H 	H 	0.6669	0.5662	0.7341	0.207
Mof_H 	H 	0.8107	0.7181	0.7605	0.098
Mof_H 	H 	0.8386	0.6598	0.877	0.065
Mof_H 	H 	0.7094	0.5158	0.8813	0.197
Mof_H 	H 	0.6342	0.5464	0.8919	0.175
Mof_H 	H 	0.6908	0.5347	0.9277	0.155
Mof_H 	H 	0.3103	0.0852	0.6943	0.079
Mof_H 	H 	0.1294	0.0859	0.7527	0.09
Mof_H 	H 	0.0528	0.144	0.7732	0.186
Mof_H 	H 	0.0218	0.2048	0.745	0.154
Mof_H 	H 	0.0282	0.2152	0.7936	0.155
Mof_H 	H 	0.2011	0.3137	0.8025	0.051
Mof_H 	H 	0.1527	0.4822	0.7395	0.042
Mof_H 	H 	0.9638	0.4041	0.7144	0.201
Mof_H 	H 	0.9694	0.384	0.6669	0.156
Mof_H 	H 	0.9571	0.463	0.68	0.166
Mof_H 	H 	0.0133	0.4971	0.622	0.052
Mof_H 	H 	0.1956	0.5102	0.5638	0.082
Mof_H 	H 	0.3575	0.4094	0.5861	0.217
Mof_H 	H 	0.3083	0.4678	0.5663	0.22
Mof_H 	H 	0.2846	0.3882	0.5654	0.189
Mof_H 	H 	0.3025	0.4845	0.6957	0.058
Mof_H 	H 	0.3488	0.309	0.7534	0.048
Mof_H 	H 	0.375	0.1393	0.6614	0.184
Mof_H 	H 	0.4215	0.208	0.6579	0.15
Mof_H 	H 	0.3522	0.1999	0.6305	0.156
Mof_H 	H 	0.0241	0.1449	0.0935	0.086
Mof_H 	H 	0.0243	0.3475	0.1134	0.072
Mof_H 	H 	0.9517	0.4928	0.0552	0.152
Mof_H 	H 	0.0207	0.4567	0.0731	0.178
Mof_H 	H 	0.9483	0.4477	0.0963	0.173
Mof_H 	H 	0.9968	0.3814	0.9677	0.046
Mof_H 	H 	0.8137	0.3995	0.9108	0.118
Mof_H 	H 	0.6543	0.4684	0.0027	0.123
Mof_H 	H 	0.7237	0.5135	0.9977	0.133
Mof_H 	H 	0.7195	0.4558	0.0329	0.133
Mof_H 	H 	0.5927	0.3925	0.9762	0.025
Mof_H 	H 	0.5942	0.1889	0.9541	0.024
Mof_H 	H 	0.6538	0.103	0.9645	0.145
Mof_H 	H 	0.7212	0.0946	0.9935	0.183
Mof_H 	H 	0.7221	0.0656	0.9475	0.185
Mof_H 	H 	0.8154	0.2238	0.892	0.08
Mof_H 	H 	0.9998	0.1962	0.9483	0.105
Mof_H 	H 	0.9995	0.0692	0.0524	0.222
Mof_H 	H 	0.9965	0.0544	0.0041	0.205
Mof_H 	H 	0.9274	0.0474	0.0309	0.213
Mof_H 	H 	0.0858	0.2141	0.8803	0.062
Mof_H 	H 	0.1043	0.4181	0.8853	0.054
Mof_H 	H 	0.2549	0.5324	0.8886	0.135
Mof_H 	H 	0.1875	0.5088	0.9135	0.152
Mof_H 	H 	0.1866	0.5062	0.8645	0.175
Mof_H 	H 	0.3267	0.3823	0.9516	0.041
Mof_H 	H 	0.5065	0.3775	0.89	0.137
Mof_H 	H 	0.4685	0.5244	0.8212	0.162
Mof_H 	H 	0.4728	0.497	0.775	0.196
Mof_H 	H 	0.5376	0.4866	0.8057	0.236
Mof_H 	H 	0.5227	0.3986	0.745	0.079
Mof_H 	H 	0.5052	0.1922	0.7401	0.074
Mof_H 	H 	0.4117	0.0741	0.8068	0.164
Mof_H 	H 	0.4699	0.0951	0.7744	0.181
Mof_H 	H 	0.391	0.1202	0.7677	0.162
Mof_H 	H 	0.49	0.2054	0.8868	0.056
Mof_H 	H 	0.3119	0.2078	0.9467	0.134
Mof_H 	H 	0.1356	0.1267	0.871	0.184
Mof_H 	H 	0.1997	0.0798	0.8861	0.165
Mof_H 	H 	0.1995	0.1126	0.841	0.155
Mof_H 	H 	0.8708	0.1193	0.5394	0.024
Mof_H 	H 	0.8949	0.3268	0.5287	0.044
Mof_H 	H 	0.8857	0.4147	0.5538	0.138
Mof_H 	H 	0.8932	0.4417	0.6001	0.127
Mof_H 	H 	0.8283	0.4657	0.5723	0.146
Mof_H 	H 	0.6856	0.3317	0.6062	0.117
Mof_H 	H 	0.672	0.3882	0.7225	0.108
Mof_H 	H 	0.7932	0.5161	0.7293	0.179
Mof_H 	H 	0.8636	0.4967	0.7535	0.209
Mof_H 	H 	0.7904	0.4935	0.7765	0.198
Mof_H 	H 	0.8778	0.4101	0.8108	0.08
Mof_H 	H 	0.8881	0.2039	0.8218	0.055
Mof_H 	H 	0.8889	0.1162	0.7877	0.203
Mof_H 	H 	0.8952	0.0989	0.7399	0.191
Mof_H 	H 	0.8331	0.0662	0.7659	0.208
Mof_H 	H 	0.6893	0.2181	0.7395	0.098
Mof_H 	H 	0.6614	0.1598	0.623	0.065
Mof_H 	H 	0.7906	0.0158	0.6187	0.198
Mof_H 	H 	0.8658	0.0464	0.6081	0.176
Mof_H 	H 	0.8092	0.0347	0.5723	0.156
Mof_H 	H 	0.1897	0.5852	0.8057	0.079
Mof_H 	H 	0.3706	0.5859	0.7473	0.091
Mof_H 	H 	0.4472	0.644	0.7268	0.188
Mof_H 	H 	0.4782	0.7048	0.755	0.156
Mof_H 	H 	0.4718	0.7152	0.7064	0.157
Mof_H 	H 	0.2989	0.8137	0.6975	0.051
Mof_H 	H 	0.3473	0.9822	0.7605	0.043
Mof_H 	H 	0.5362	0.9041	0.7856	0.202
Mof_H 	H 	0.5306	0.884	0.8331	0.157
Mof_H 	H 	0.5429	0.963	0.82	0.167
Mof_H 	H 	0.4867	0.9971	0.878	0.051
Mof_H 	H 	0.3044	0.0102	0.9362	0.074
Mof_H 	H 	0.1425	0.9094	0.9139	0.218
Mof_H 	H 	0.1917	0.9678	0.9337	0.223
Mof_H 	H 	0.2154	0.8882	0.9346	0.19
Mof_H 	H 	0.1975	0.9845	0.8043	0.059
Mof_H 	H 	0.1512	0.809	0.7466	0.048
Mof_H 	H 	0.125	0.6393	0.8386	0.184
Mof_H 	H 	0.0785	0.708	0.8421	0.149
Mof_H 	H 	0.1478	0.6999	0.8695	0.155
Mof_C 	C 	0.4754	0.3	0.5454	0.14
Mof_C 	C 	0.5124	0.3098	0.5844	-0.022
Mof_C 	C 	0.513	0.1904	0.596	-0.05
Mof_C 	C 	0.4778	0.1788	0.5574	0.124
Mof_C 	C 	0.4702	0.0481	0.5694	-0.376
Mof_C 	C 	0.4153	0.1049	0.5066	0.123
Mof_C 	C 	0.4476	0.1137	0.4682	-0.047
Mof_C 	C 	0.3414	0.1031	0.4351	-0.057
Mof_C 	C 	0.3096	0.0941	0.4725	0.131
Mof_C 	C 	0.2053	0.0323	0.5047	-0.337
Mof_C 	C 	0.1918	0.147	0.4678	0.124
Mof_C 	C 	0.1176	0.1489	0.4708	-0.018
Mof_C 	C 	0.1186	0.2688	0.4583	-0.021
Mof_C 	C 	0.1956	0.2686	0.4565	0.123
Mof_C 	C 	0.2049	0.3973	0.4653	-0.388
Mof_C 	C 	0.3088	0.322	0.4498	0.135
Mof_C 	C 	0.3426	0.2908	0.4149	-0.029
Mof_C 	C 	0.4504	0.3062	0.4482	-0.037
Mof_C 	C 	0.4134	0.3357	0.4838	0.148
Mof_C 	C 	0.4709	0.4267	0.5274	-0.434
Mof_C 	C 	0.6878	0.252	0.3868	0.133
Mof_C 	C 	0.6135	0.2454	0.3832	-0.026
Mof_C 	C 	0.6256	0.1264	0.3862	-0.045
Mof_C 	C 	0.6979	0.1306	0.39	0.11
Mof_C 	C 	0.7156	0.0001	0.3892	-0.357
Mof_C 	C 	0.815	0.0861	0.39	0.113
Mof_C 	C 	0.8524	0.1095	0.4274	-0.043
Mof_C 	C 	0.9582	0.1121	0.3912	-0.074
Mof_C 	C 	0.9211	0.0884	0.3538	0.143
Mof_C 	C 	0.9866	0.0123	0.3035	-0.417
Mof_C 	C 	0.9757	0.1452	0.2951	0.138
Mof_C 	C 	0.0088	0.1443	0.2566	-0.006
Mof_C 	C 	0.9984	0.2652	0.2541	-0.057
Mof_C 	C 	0.9656	0.2639	0.293	0.137
Mof_C 	C 	0.9276	0.3895	0.2882	-0.387
Mof_C 	C 	0.903	0.3168	0.3512	0.125
Mof_C 	C 	0.9407	0.299	0.3872	-0.039
Mof_C 	C 	0.8363	0.2976	0.4218	-0.058
Mof_C 	C 	0.7991	0.3148	0.3861	0.144
Mof_C 	C 	0.6861	0.3798	0.3696	-0.352
Mof_C 	C 	0.3189	0.3222	0.085	0.109
Mof_C 	C 	0.3615	0.3348	0.0484	-0.028
Mof_C 	C 	0.375	0.2121	0.0421	-0.027
Mof_C 	C 	0.3319	0.2027	0.0772	0.153
Mof_C 	C 	0.3602	0.0727	0.0786	-0.322
Mof_C 	C 	0.2759	0.1283	0.1295	0.148
Mof_C 	C 	0.2058	0.1485	0.1302	-0.049
Mof_C 	C 	0.1987	0.1177	0.1984	-0.033
Mof_C 	C 	0.2676	0.1022	0.2006	0.123
Mof_C 	C 	0.3139	0.0141	0.2504	-0.427
Mof_C 	C 	0.3291	0.1421	0.2605	0.136
Mof_C 	C 	0.3687	0.1346	0.2997	-0.004
Mof_C 	C 	0.3743	0.2565	0.3064	-0.033
Mof_C 	C 	0.3339	0.2637	0.2684	0.126
Mof_C 	C 	0.3626	0.3928	0.2623	-0.427
Mof_C 	C 	0.2739	0.3327	0.2163	0.121
Mof_C 	C 	0.2055	0.304	0.2154	-0.038
Mof_C 	C 	0.1904	0.3362	0.1466	-0.04
Mof_C 	C 	0.2596	0.3597	0.1455	0.128
Mof_C 	C 	0.316	0.452	0.1011	-0.389
Mof_C 	C 	0.724	0.8171	0.2908	0.123
Mof_C 	C 	0.7261	0.8902	0.2927	-0.076
Mof_C 	C 	0.8317	0.89	0.258	-0.073
Mof_C 	C 	0.8281	0.8151	0.2548	0.136
Mof_C 	C 	0.9501	0.8057	0.2305	-0.385
Mof_C 	C 	0.8746	0.7022	0.2404	0.117
Mof_C 	C 	0.8266	0.6635	0.2178	-0.042
Mof_C 	C 	0.8546	0.5653	0.254	-0.002
Mof_C 	C 	0.905	0.6038	0.2772	0.138
Mof_C 	C 	0.0197	0.5805	0.3125	-0.383
Mof_C 	C 	0.9045	0.5475	0.3468	0.112
Mof_C 	C 	0.9383	0.5129	0.3791	-0.058
Mof_C 	C 	0.8311	0.5058	0.4137	-0.045
Mof_C 	C 	0.7957	0.5454	0.379	0.112
Mof_C 	C 	0.6909	0.5762	0.4186	-0.457
Mof_C 	C 	0.7023	0.6009	0.3426	0.133
Mof_C 	C 	0.6919	0.5644	0.3047	-0.005
Mof_C 	C 	0.6654	0.6669	0.2707	-0.038
Mof_C 	C 	0.677	0.7027	0.3076	0.119
Mof_C 	C 	0.6262	0.8103	0.3428	-0.377
Mof_C 	C 	0.0246	0.8	0.9546	0.138
Mof_C 	C 	0.9876	0.8098	0.9156	-0.019
Mof_C 	C 	0.987	0.6904	0.904	-0.046
Mof_C 	C 	0.0222	0.6788	0.9426	0.121
Mof_C 	C 	0.0298	0.5481	0.9306	-0.388
Mof_C 	C 	0.0847	0.6049	0.9934	0.119
Mof_C 	C 	0.0524	0.6137	0.0318	-0.043
Mof_C 	C 	0.1586	0.6031	0.0649	-0.057
Mof_C 	C 	0.1904	0.5941	0.0275	0.133
Mof_C 	C 	0.2947	0.5323	0.9953	-0.339
Mof_C 	C 	0.3082	0.647	0.0322	0.124
Mof_C 	C 	0.3824	0.6489	0.0292	-0.018
Mof_C 	C 	0.3814	0.7688	0.0417	-0.021
Mof_C 	C 	0.3044	0.7686	0.0435	0.123
Mof_C 	C 	0.2951	0.8973	0.0347	-0.387
Mof_C 	C 	0.1912	0.822	0.0502	0.136
Mof_C 	C 	0.1574	0.7908	0.0851	-0.029
Mof_C 	C 	0.0496	0.8062	0.0518	-0.037
Mof_C 	C 	0.0866	0.8357	0.0162	0.149
Mof_C 	C 	0.0291	0.9267	0.9726	-0.436
Mof_C 	C 	0.8122	0.752	0.1132	0.133
Mof_C 	C 	0.8865	0.7454	0.1168	-0.026
Mof_C 	C 	0.8744	0.6264	0.1138	-0.044
Mof_C 	C 	0.8021	0.6306	0.11	0.109
Mof_C 	C 	0.7844	0.5001	0.1108	-0.389
Mof_C 	C 	0.685	0.5861	0.11	0.111
Mof_C 	C 	0.6476	0.6095	0.0726	-0.042
Mof_C 	C 	0.5418	0.6121	0.1088	-0.077
Mof_C 	C 	0.5789	0.5884	0.1462	0.142
Mof_C 	C 	0.5134	0.5123	0.1965	-0.445
Mof_C 	C 	0.5243	0.6452	0.2049	0.136
Mof_C 	C 	0.4912	0.6443	0.2434	-0.005
Mof_C 	C 	0.5016	0.7652	0.2459	-0.054
Mof_C 	C 	0.5344	0.7639	0.207	0.137
Mof_C 	C 	0.5724	0.8895	0.2118	-0.386
Mof_C 	C 	0.597	0.8168	0.1488	0.125
Mof_C 	C 	0.5593	0.799	0.1128	-0.039
Mof_C 	C 	0.6637	0.7976	0.0782	-0.058
Mof_C 	C 	0.7009	0.8148	0.1139	0.144
Mof_C 	C 	0.8139	0.8798	0.1304	-0.349
Mof_C 	C 	0.1811	0.8222	0.415	0.109
Mof_C 	C 	0.1385	0.8348	0.4516	-0.028
Mof_C 	C 	0.125	0.7121	0.4579	-0.027
Mof_C 	C 	0.1681	0.7027	0.4228	0.152
Mof_C 	C 	0.1398	0.5727	0.4214	-0.321
Mof_C 	C 	0.2241	0.6283	0.3705	0.148
Mof_C 	C 	0.2942	0.6485	0.3698	-0.049
Mof_C 	C 	0.3013	0.6177	0.3016	-0.032
Mof_C 	C 	0.2324	0.6022	0.2994	0.123
Mof_C 	C 	0.1861	0.5141	0.2496	-0.431
Mof_C 	C 	0.1709	0.6421	0.2395	0.136
Mof_C 	C 	0.1313	0.6346	0.2003	-0.003
Mof_C 	C 	0.1257	0.7565	0.1936	-0.032
Mof_C 	C 	0.1661	0.7637	0.2316	0.127
Mof_C 	C 	0.1374	0.8928	0.2377	-0.429
Mof_C 	C 	0.2261	0.8327	0.2837	0.121
Mof_C 	C 	0.2945	0.804	0.2846	-0.038
Mof_C 	C 	0.3096	0.8362	0.3534	-0.04
Mof_C 	C 	0.2404	0.8597	0.3545	0.128
Mof_C 	C 	0.184	0.952	0.3989	-0.391
Mof_C 	C 	0.776	0.3171	0.2092	0.123
Mof_C 	C 	0.7739	0.3902	0.2073	-0.076
Mof_C 	C 	0.6683	0.39	0.242	-0.073
Mof_C 	C 	0.6719	0.3151	0.2452	0.136
Mof_C 	C 	0.5499	0.3057	0.2695	-0.389
Mof_C 	C 	0.6254	0.2022	0.2596	0.118
Mof_C 	C 	0.6734	0.1635	0.2822	-0.042
Mof_C 	C 	0.6454	0.0653	0.246	-0.001
Mof_C 	C 	0.595	0.1038	0.2228	0.139
Mof_C 	C 	0.4803	0.0805	0.1875	-0.387
Mof_C 	C 	0.5955	0.0475	0.1532	0.11
Mof_C 	C 	0.5617	0.0129	0.1209	-0.053
Mof_C 	C 	0.6689	0.0058	0.0863	-0.031
Mof_C 	C 	0.7043	0.0454	0.121	0.109
Mof_C 	C 	0.8091	0.0762	0.0814	-0.459
Mof_C 	C 	0.7977	0.1009	0.1574	0.133
Mof_C 	C 	0.8081	0.0644	0.1953	-0.005
Mof_C 	C 	0.8346	0.1669	0.2293	-0.038
Mof_C 	C 	0.823	0.2027	0.1924	0.119
Mof_C 	C 	0.8738	0.3103	0.1572	-0.375
Mof_C 	C 	0.5246	0.7	0.4546	0.14
Mof_C 	C 	0.4876	0.6902	0.4156	-0.022
Mof_C 	C 	0.487	0.8096	0.404	-0.05
Mof_C 	C 	0.5222	0.8212	0.4426	0.124
Mof_C 	C 	0.5298	0.9519	0.4306	-0.376
Mof_C 	C 	0.5847	0.8951	0.4934	0.123
Mof_C 	C 	0.5524	0.8863	0.5318	-0.047
Mof_C 	C 	0.6586	0.8969	0.5649	-0.057
Mof_C 	C 	0.6904	0.9059	0.5275	0.131
Mof_C 	C 	0.7947	0.9677	0.4953	-0.337
Mof_C 	C 	0.8082	0.853	0.5322	0.124
Mof_C 	C 	0.8824	0.8511	0.5292	-0.018
Mof_C 	C 	0.8814	0.7312	0.5417	-0.021
Mof_C 	C 	0.8044	0.7314	0.5435	0.123
Mof_C 	C 	0.7951	0.6027	0.5347	-0.388
Mof_C 	C 	0.6912	0.678	0.5502	0.135
Mof_C 	C 	0.6574	0.7092	0.5851	-0.029
Mof_C 	C 	0.5496	0.6938	0.5518	-0.037
Mof_C 	C 	0.5866	0.6643	0.5162	0.148
Mof_C 	C 	0.5291	0.5733	0.4726	-0.434
Mof_C 	C 	0.3122	0.748	0.6132	0.133
Mof_C 	C 	0.3865	0.7546	0.6168	-0.026
Mof_C 	C 	0.3744	0.8736	0.6138	-0.045
Mof_C 	C 	0.3021	0.8694	0.61	0.11
Mof_C 	C 	0.2844	0.9999	0.6108	-0.357
Mof_C 	C 	0.185	0.9139	0.61	0.113
Mof_C 	C 	0.1476	0.8905	0.5726	-0.043
Mof_C 	C 	0.0418	0.8879	0.6088	-0.074
Mof_C 	C 	0.0789	0.9116	0.6462	0.143
Mof_C 	C 	0.0134	0.9877	0.6965	-0.417
Mof_C 	C 	0.0243	0.8548	0.7049	0.138
Mof_C 	C 	0.9912	0.8557	0.7434	-0.006
Mof_C 	C 	0.0016	0.7348	0.7459	-0.057
Mof_C 	C 	0.0344	0.7361	0.707	0.137
Mof_C 	C 	0.0724	0.6105	0.7118	-0.387
Mof_C 	C 	0.097	0.6832	0.6488	0.125
Mof_C 	C 	0.0593	0.701	0.6128	-0.039
Mof_C 	C 	0.1637	0.7024	0.5782	-0.058
Mof_C 	C 	0.2009	0.6852	0.6139	0.144
Mof_C 	C 	0.3139	0.6202	0.6304	-0.352
Mof_C 	C 	0.6811	0.6778	0.915	0.109
Mof_C 	C 	0.6385	0.6652	0.9516	-0.028
Mof_C 	C 	0.625	0.7879	0.9579	-0.027
Mof_C 	C 	0.6681	0.7973	0.9228	0.153
Mof_C 	C 	0.6398	0.9273	0.9214	-0.322
Mof_C 	C 	0.7241	0.8717	0.8705	0.148
Mof_C 	C 	0.7942	0.8515	0.8698	-0.049
Mof_C 	C 	0.8013	0.8823	0.8016	-0.033
Mof_C 	C 	0.7324	0.8978	0.7994	0.123
Mof_C 	C 	0.6861	0.9859	0.7496	-0.427
Mof_C 	C 	0.6709	0.8579	0.7395	0.136
Mof_C 	C 	0.6313	0.8654	0.7003	-0.004
Mof_C 	C 	0.6257	0.7435	0.6936	-0.033
Mof_C 	C 	0.6661	0.7363	0.7316	0.126
Mof_C 	C 	0.6374	0.6072	0.7377	-0.427
Mof_C 	C 	0.7261	0.6673	0.7837	0.121
Mof_C 	C 	0.7945	0.696	0.7846	-0.038
Mof_C 	C 	0.8096	0.6638	0.8534	-0.04
Mof_C 	C 	0.7404	0.6403	0.8545	0.128
Mof_C 	C 	0.684	0.548	0.8989	-0.389
Mof_C 	C 	0.276	0.1829	0.7092	0.123
Mof_C 	C 	0.2739	0.1098	0.7073	-0.076
Mof_C 	C 	0.1683	0.11	0.742	-0.073
Mof_C 	C 	0.1719	0.1849	0.7452	0.136
Mof_C 	C 	0.0499	0.1943	0.7695	-0.385
Mof_C 	C 	0.1254	0.2978	0.7596	0.117
Mof_C 	C 	0.1734	0.3365	0.7822	-0.042
Mof_C 	C 	0.1454	0.4347	0.746	-0.002
Mof_C 	C 	0.095	0.3962	0.7228	0.138
Mof_C 	C 	0.9803	0.4195	0.6875	-0.383
Mof_C 	C 	0.0955	0.4525	0.6532	0.112
Mof_C 	C 	0.0617	0.4871	0.6209	-0.058
Mof_C 	C 	0.1689	0.4942	0.5863	-0.045
Mof_C 	C 	0.2043	0.4546	0.621	0.112
Mof_C 	C 	0.3091	0.4238	0.5814	-0.457
Mof_C 	C 	0.2977	0.3991	0.6574	0.133
Mof_C 	C 	0.3081	0.4356	0.6953	-0.005
Mof_C 	C 	0.3346	0.3331	0.7293	-0.038
Mof_C 	C 	0.323	0.2973	0.6924	0.119
Mof_C 	C 	0.3738	0.1897	0.6572	-0.377
Mof_C 	C 	0.9754	0.2	0.0454	0.138
Mof_C 	C 	0.0124	0.1902	0.0844	-0.019
Mof_C 	C 	0.013	0.3096	0.096	-0.046
Mof_C 	C 	0.9778	0.3212	0.0574	0.121
Mof_C 	C 	0.9702	0.4519	0.0694	-0.388
Mof_C 	C 	0.9153	0.3951	0.0066	0.119
Mof_C 	C 	0.9476	0.3863	0.9682	-0.043
Mof_C 	C 	0.8414	0.3969	0.9351	-0.057
Mof_C 	C 	0.8096	0.4059	0.9725	0.133
Mof_C 	C 	0.7053	0.4677	0.0047	-0.339
Mof_C 	C 	0.6918	0.353	0.9678	0.124
Mof_C 	C 	0.6176	0.3511	0.9708	-0.018
Mof_C 	C 	0.6186	0.2312	0.9583	-0.021
Mof_C 	C 	0.6956	0.2314	0.9565	0.123
Mof_C 	C 	0.7049	0.1027	0.9653	-0.387
Mof_C 	C 	0.8088	0.178	0.9498	0.136
Mof_C 	C 	0.8426	0.2092	0.9149	-0.029
Mof_C 	C 	0.9504	0.1938	0.9482	-0.037
Mof_C 	C 	0.9134	0.1643	0.9838	0.149
Mof_C 	C 	0.9709	0.0733	0.0274	-0.436
Mof_C 	C 	0.1878	0.248	0.8868	0.133
Mof_C 	C 	0.1135	0.2546	0.8832	-0.026
Mof_C 	C 	0.1256	0.3736	0.8862	-0.044
Mof_C 	C 	0.1979	0.3694	0.89	0.109
Mof_C 	C 	0.2156	0.4999	0.8892	-0.389
Mof_C 	C 	0.315	0.4139	0.89	0.111
Mof_C 	C 	0.3524	0.3905	0.9274	-0.042
Mof_C 	C 	0.4582	0.3879	0.8912	-0.077
Mof_C 	C 	0.4211	0.4116	0.8538	0.142
Mof_C 	C 	0.4866	0.4877	0.8035	-0.445
Mof_C 	C 	0.4757	0.3548	0.7951	0.136
Mof_C 	C 	0.5088	0.3557	0.7566	-0.005
Mof_C 	C 	0.4984	0.2348	0.7541	-0.054
Mof_C 	C 	0.4656	0.2361	0.793	0.137
Mof_C 	C 	0.4276	0.1105	0.7882	-0.386
Mof_C 	C 	0.403	0.1832	0.8512	0.125
Mof_C 	C 	0.4407	0.201	0.8872	-0.039
Mof_C 	C 	0.3363	0.2024	0.9218	-0.058
Mof_C 	C 	0.2991	0.1852	0.8861	0.144
Mof_C 	C 	0.1861	0.1202	0.8696	-0.349
Mof_C 	C 	0.8189	0.1778	0.585	0.109
Mof_C 	C 	0.8615	0.1652	0.5484	-0.028
Mof_C 	C 	0.875	0.2879	0.5421	-0.027
Mof_C 	C 	0.8319	0.2973	0.5772	0.152
Mof_C 	C 	0.8602	0.4273	0.5786	-0.321
Mof_C 	C 	0.7759	0.3717	0.6295	0.148
Mof_C 	C 	0.7058	0.3515	0.6302	-0.049
Mof_C 	C 	0.6987	0.3823	0.6984	-0.032
Mof_C 	C 	0.7676	0.3978	0.7006	0.123
Mof_C 	C 	0.8139	0.4859	0.7504	-0.431
Mof_C 	C 	0.8291	0.3579	0.7605	0.136
Mof_C 	C 	0.8687	0.3654	0.7997	-0.003
Mof_C 	C 	0.8743	0.2435	0.8064	-0.032
Mof_C 	C 	0.8339	0.2363	0.7684	0.127
Mof_C 	C 	0.8626	0.1072	0.7623	-0.429
Mof_C 	C 	0.7739	0.1673	0.7163	0.121
Mof_C 	C 	0.7055	0.196	0.7154	-0.038
Mof_C 	C 	0.6904	0.1638	0.6466	-0.04
Mof_C 	C 	0.7596	0.1403	0.6455	0.128
Mof_C 	C 	0.816	0.048	0.6011	-0.391
Mof_C 	C 	0.224	0.6829	0.7908	0.123
Mof_C 	C 	0.2261	0.6098	0.7927	-0.076
Mof_C 	C 	0.3317	0.61	0.758	-0.073
Mof_C 	C 	0.3281	0.6849	0.7548	0.136
Mof_C 	C 	0.4501	0.6943	0.7305	-0.389
Mof_C 	C 	0.3746	0.7978	0.7404	0.118
Mof_C 	C 	0.3266	0.8365	0.7178	-0.042
Mof_C 	C 	0.3546	0.9347	0.754	-0.001
Mof_C 	C 	0.405	0.8962	0.7772	0.139
Mof_C 	C 	0.5197	0.9195	0.8125	-0.387
Mof_C 	C 	0.4045	0.9525	0.8468	0.11
Mof_C 	C 	0.4383	0.9871	0.8791	-0.053
Mof_C 	C 	0.3311	0.9942	0.9137	-0.031
Mof_C 	C 	0.2957	0.9546	0.879	0.109
Mof_C 	C 	0.1909	0.9238	0.9186	-0.459
Mof_C 	C 	0.2023	0.8991	0.8426	0.133
Mof_C 	C 	0.1919	0.9356	0.8047	-0.005
Mof_C 	C 	0.1654	0.8331	0.7707	-0.038
Mof_C 	C 	0.177	0.7973	0.8076	0.119
Mof_C 	C 	0.1262	0.6897	0.8428	-0.375
Mof_N 	N 	0.4563	0.2328	0.5344	-0.137
Mof_N 	N 	0.5297	0.2547	0.6072	-0.147
Mof_N 	N 	0.4545	0.1127	0.5441	-0.101
Mof_N 	N 	0.3459	0.0961	0.5095	-0.141
Mof_N 	N 	0.4111	0.1156	0.4317	-0.127
Mof_N 	N 	0.2339	0.0861	0.4753	-0.098
Mof_N 	N 	0.2309	0.2079	0.4594	-0.119
Mof_N 	N 	0.0822	0.2102	0.4658	-0.158
Mof_N 	N 	0.2319	0.3285	0.4505	-0.091
Mof_N 	N 	0.3436	0.3434	0.4842	-0.129
Mof_N 	N 	0.4122	0.2822	0.4148	-0.115
Mof_N 	N 	0.4545	0.3519	0.5196	-0.081
Mof_N 	N 	0.7305	0.195	0.3899	-0.139
Mof_N 	N 	0.5835	0.185	0.3837	-0.158
Mof_N 	N 	0.7425	0.0727	0.3906	-0.113
Mof_N 	N 	0.8529	0.0752	0.3553	-0.209
Mof_N 	N 	0.9231	0.1197	0.4283	-0.131
Mof_N 	N 	0.9575	0.0811	0.3166	-0.097
Mof_N 	N 	0.9512	0.2038	0.3135	-0.139
Mof_N 	N 	0.0205	0.2026	0.2369	-0.146
Mof_N 	N 	0.9433	0.3238	0.3126	-0.096
Mof_N 	N 	0.8336	0.326	0.3499	-0.14
Mof_N 	N 	0.9055	0.2884	0.4217	-0.123
Mof_N 	N 	0.7223	0.3166	0.3859	-0.083
Mof_N 	N 	0.3057	0.2553	0.0981	-0.137
Mof_N 	N 	0.3873	0.2787	0.0276	-0.157
Mof_N 	N 	0.3176	0.1364	0.0937	-0.101
Mof_N 	N 	0.3111	0.1078	0.1645	-0.136
Mof_N 	N 	0.1653	0.1409	0.1643	-0.117
Mof_N 	N 	0.3057	0.0866	0.2381	-0.083
Mof_N 	N 	0.3136	0.2064	0.2465	-0.128
Mof_N 	N 	0.3913	0.1916	0.319	-0.149
Mof_N 	N 	0.3177	0.331	0.2522	-0.086
Mof_N 	N 	0.3038	0.3598	0.18	-0.12
Mof_N 	N 	0.1632	0.3062	0.1834	-0.115
Mof_N 	N 	0.2891	0.3795	0.1075	-0.09
Mof_N 	N 	0.7738	0.7805	0.2711	-0.143
Mof_N 	N 	0.7801	0.9254	0.276	-0.138
Mof_N 	N 	0.877	0.7761	0.2356	-0.103
Mof_N 	N 	0.9156	0.6703	0.2711	-0.138
Mof_N 	N 	0.8177	0.5934	0.2236	-0.136
Mof_N 	N 	0.9431	0.5695	0.3105	-0.083
Mof_N 	N 	0.8364	0.5625	0.3463	-0.14
Mof_N 	N 	0.8989	0.4934	0.4129	-0.083
Mof_N 	N 	0.7266	0.5667	0.3776	-0.088
Mof_N 	N 	0.6931	0.6711	0.3444	-0.132
Mof_N 	N 	0.6748	0.5972	0.27	-0.137
Mof_N 	N 	0.6682	0.7767	0.309	-0.097
Mof_N 	N 	0.0437	0.7328	0.9656	-0.137
Mof_N 	N 	0.9703	0.7547	0.8928	-0.148
Mof_N 	N 	0.0455	0.6127	0.9559	-0.099
Mof_N 	N 	0.1541	0.5961	0.9905	-0.141
Mof_N 	N 	0.0889	0.6156	0.0683	-0.127
Mof_N 	N 	0.2661	0.5861	0.0247	-0.098
Mof_N 	N 	0.2691	0.7079	0.0406	-0.119
Mof_N 	N 	0.4178	0.7102	0.0342	-0.157
Mof_N 	N 	0.2681	0.8285	0.0495	-0.091
Mof_N 	N 	0.1564	0.8434	0.0158	-0.129
Mof_N 	N 	0.0878	0.7822	0.0852	-0.115
Mof_N 	N 	0.0455	0.8519	0.9804	-0.081
Mof_N 	N 	0.7695	0.695	0.1101	-0.138
Mof_N 	N 	0.9165	0.685	0.1163	-0.16
Mof_N 	N 	0.7575	0.5727	0.1094	-0.109
Mof_N 	N 	0.6471	0.5752	0.1447	-0.208
Mof_N 	N 	0.5769	0.6197	0.0717	-0.131
Mof_N 	N 	0.5425	0.5811	0.1834	-0.093
Mof_N 	N 	0.5488	0.7038	0.1865	-0.138
Mof_N 	N 	0.4795	0.7026	0.2631	-0.147
Mof_N 	N 	0.5567	0.8238	0.1874	-0.096
Mof_N 	N 	0.6664	0.826	0.1501	-0.141
Mof_N 	N 	0.5945	0.7884	0.0783	-0.123
Mof_N 	N 	0.7777	0.8166	0.1141	-0.083
Mof_N 	N 	0.1943	0.7553	0.4019	-0.137
Mof_N 	N 	0.1127	0.7787	0.4724	-0.157
Mof_N 	N 	0.1824	0.6364	0.4063	-0.101
Mof_N 	N 	0.1889	0.6078	0.3355	-0.136
Mof_N 	N 	0.3347	0.6409	0.3357	-0.117
Mof_N 	N 	0.1943	0.5866	0.2619	-0.082
Mof_N 	N 	0.1864	0.7064	0.2535	-0.128
Mof_N 	N 	0.1087	0.6916	0.181	-0.149
Mof_N 	N 	0.1823	0.831	0.2478	-0.085
Mof_N 	N 	0.1962	0.8598	0.32	-0.12
Mof_N 	N 	0.3368	0.8062	0.3166	-0.115
Mof_N 	N 	0.2109	0.8795	0.3925	-0.09
Mof_N 	N 	0.7262	0.2805	0.2289	-0.143
Mof_N 	N 	0.7199	0.4254	0.224	-0.136
Mof_N 	N 	0.623	0.2761	0.2644	-0.102
Mof_N 	N 	0.5844	0.1703	0.2289	-0.137
Mof_N 	N 	0.6823	0.0934	0.2764	-0.136
Mof_N 	N 	0.5569	0.0695	0.1895	-0.081
Mof_N 	N 	0.6636	0.0625	0.1537	-0.139
Mof_N 	N 	0.6011	0.9934	0.0871	-0.089
Mof_N 	N 	0.7734	0.0667	0.1224	-0.087
Mof_N 	N 	0.8069	0.1711	0.1556	-0.132
Mof_N 	N 	0.8252	0.0972	0.23	-0.136
Mof_N 	N 	0.8318	0.2767	0.191	-0.098
Mof_N 	N 	0.5437	0.7672	0.4656	-0.137
Mof_N 	N 	0.4703	0.7453	0.3928	-0.147
Mof_N 	N 	0.5455	0.8873	0.4559	-0.101
Mof_N 	N 	0.6541	0.9039	0.4905	-0.141
Mof_N 	N 	0.5889	0.8844	0.5683	-0.127
Mof_N 	N 	0.7661	0.9139	0.5247	-0.098
Mof_N 	N 	0.7691	0.7921	0.5406	-0.119
Mof_N 	N 	0.9178	0.7898	0.5342	-0.158
Mof_N 	N 	0.7681	0.6715	0.5495	-0.091
Mof_N 	N 	0.6564	0.6566	0.5158	-0.129
Mof_N 	N 	0.5878	0.7178	0.5852	-0.115
Mof_N 	N 	0.5455	0.6481	0.4804	-0.081
Mof_N 	N 	0.2695	0.805	0.6101	-0.139
Mof_N 	N 	0.4165	0.815	0.6163	-0.158
Mof_N 	N 	0.2575	0.9273	0.6094	-0.113
Mof_N 	N 	0.1471	0.9248	0.6447	-0.209
Mof_N 	N 	0.0769	0.8803	0.5717	-0.131
Mof_N 	N 	0.0425	0.9189	0.6834	-0.097
Mof_N 	N 	0.0488	0.7962	0.6865	-0.139
Mof_N 	N 	0.9795	0.7974	0.7631	-0.146
Mof_N 	N 	0.0567	0.6762	0.6874	-0.096
Mof_N 	N 	0.1664	0.674	0.6501	-0.14
Mof_N 	N 	0.0945	0.7116	0.5783	-0.123
Mof_N 	N 	0.2777	0.6834	0.6141	-0.083
Mof_N 	N 	0.6943	0.7447	0.9019	-0.137
Mof_N 	N 	0.6127	0.7213	0.9724	-0.157
Mof_N 	N 	0.6824	0.8636	0.9063	-0.101
Mof_N 	N 	0.6889	0.8922	0.8355	-0.136
Mof_N 	N 	0.8347	0.8591	0.8357	-0.117
Mof_N 	N 	0.6943	0.9134	0.7619	-0.083
Mof_N 	N 	0.6864	0.7936	0.7535	-0.128
Mof_N 	N 	0.6087	0.8084	0.681	-0.149
Mof_N 	N 	0.6823	0.669	0.7478	-0.086
Mof_N 	N 	0.6962	0.6402	0.82	-0.12
Mof_N 	N 	0.8368	0.6938	0.8166	-0.115
Mof_N 	N 	0.7109	0.6205	0.8925	-0.09
Mof_N 	N 	0.2262	0.2195	0.7289	-0.143
Mof_N 	N 	0.2199	0.0746	0.724	-0.138
Mof_N 	N 	0.123	0.2239	0.7644	-0.103
Mof_N 	N 	0.0844	0.3297	0.7289	-0.138
Mof_N 	N 	0.1823	0.4066	0.7764	-0.136
Mof_N 	N 	0.0569	0.4305	0.6895	-0.083
Mof_N 	N 	0.1636	0.4375	0.6537	-0.14
Mof_N 	N 	0.1011	0.5066	0.5871	-0.083
Mof_N 	N 	0.2734	0.4333	0.6224	-0.088
Mof_N 	N 	0.3069	0.3289	0.6556	-0.132
Mof_N 	N 	0.3252	0.4028	0.73	-0.137
Mof_N 	N 	0.3318	0.2233	0.691	-0.097
Mof_N 	N 	0.9563	0.2672	0.0344	-0.137
Mof_N 	N 	0.0297	0.2453	0.1072	-0.148
Mof_N 	N 	0.9545	0.3873	0.0441	-0.099
Mof_N 	N 	0.8459	0.4039	0.0095	-0.141
Mof_N 	N 	0.9111	0.3844	0.9317	-0.127
Mof_N 	N 	0.7339	0.4139	0.9753	-0.098
Mof_N 	N 	0.7309	0.2921	0.9594	-0.119
Mof_N 	N 	0.5822	0.2898	0.9658	-0.157
Mof_N 	N 	0.7319	0.1715	0.9505	-0.091
Mof_N 	N 	0.8436	0.1566	0.9842	-0.129
Mof_N 	N 	0.9122	0.2178	0.9148	-0.115
Mof_N 	N 	0.9545	0.1481	0.0196	-0.081
Mof_N 	N 	0.2305	0.305	0.8899	-0.138
Mof_N 	N 	0.0835	0.315	0.8837	-0.16
Mof_N 	N 	0.2425	0.4273	0.8906	-0.109
Mof_N 	N 	0.3529	0.4248	0.8553	-0.208
Mof_N 	N 	0.4231	0.3803	0.9283	-0.131
Mof_N 	N 	0.4575	0.4189	0.8166	-0.093
Mof_N 	N 	0.4512	0.2962	0.8135	-0.138
Mof_N 	N 	0.5205	0.2974	0.7369	-0.147
Mof_N 	N 	0.4433	0.1762	0.8126	-0.096
Mof_N 	N 	0.3336	0.174	0.8499	-0.141
Mof_N 	N 	0.4055	0.2116	0.9217	-0.123
Mof_N 	N 	0.2223	0.1834	0.8859	-0.083
Mof_N 	N 	0.8057	0.2447	0.5981	-0.137
Mof_N 	N 	0.8873	0.2213	0.5276	-0.157
Mof_N 	N 	0.8176	0.3636	0.5937	-0.101
Mof_N 	N 	0.8111	0.3922	0.6645	-0.136
Mof_N 	N 	0.6653	0.3591	0.6643	-0.117
Mof_N 	N 	0.8057	0.4134	0.7381	-0.082
Mof_N 	N 	0.8136	0.2936	0.7465	-0.128
Mof_N 	N 	0.8913	0.3084	0.819	-0.149
Mof_N 	N 	0.8177	0.169	0.7522	-0.085
Mof_N 	N 	0.8038	0.1402	0.68	-0.12
Mof_N 	N 	0.6632	0.1938	0.6834	-0.115
Mof_N 	N 	0.7891	0.1205	0.6075	-0.09
Mof_N 	N 	0.2738	0.7195	0.7711	-0.143
Mof_N 	N 	0.2801	0.5746	0.776	-0.136
Mof_N 	N 	0.377	0.7239	0.7356	-0.102
Mof_N 	N 	0.4156	0.8297	0.7711	-0.137
Mof_N 	N 	0.3177	0.9066	0.7236	-0.136
Mof_N 	N 	0.4431	0.9305	0.8105	-0.081
Mof_N 	N 	0.3364	0.9375	0.8463	-0.139
Mof_N 	N 	0.3989	0.0066	0.9129	-0.089
Mof_N 	N 	0.2266	0.9333	0.8776	-0.087
Mof_N 	N 	0.1931	0.8289	0.8444	-0.132
Mof_N 	N 	0.1748	0.9028	0.77	-0.136
Mof_N 	N 	0.1682	0.7233	0.809	-0.098
Mof_B 	B 	0.9943	0.4821	0.1859	3.322
Mof_F 	F 	0.0245	0.4131	0.1855	-1.027
Mof_F 	F 	0.0299	0.5185	0.1555	-1.115
Mof_F 	F 	0.0095	0.5124	0.2234	-1.131
Mof_F 	F 	0.9237	0.4741	0.1772	-1.148
Mof_B 	B 	0.1785	0.1086	0.9968	4.755
Mof_F 	F 	0.2337	0.1357	0.9895	-1.766
Mof_F 	F 	0.1855	0.0392	0.9995	-1.452
Mof_F 	F 	0.126	0.1254	0.9677	-1.33
Mof_F 	F 	0.1509	0.1279	0.0353	-1.299
Mof_B 	B 	0.9897	0.9869	0.1667	3.345
Mof_F 	F 	0.9679	0.0334	0.1383	-1.168
Mof_F 	F 	0.0059	0.9193	0.1499	-1.017
Mof_F 	F 	0.0497	0.0091	0.1868	-1.101
Mof_F 	F 	0.9392	0.9747	0.1978	-1.077
Mof_B 	B 	0.3273	0.6332	0.1668	4.064
Mof_F 	F 	0.3382	0.5684	0.1824	-1.249
Mof_F 	F 	0.2708	0.6453	0.1427	-1.323
Mof_F 	F 	0.3847	0.6315	0.1428	-1.253
Mof_F 	F 	0.3312	0.6766	0.2001	-1.268
Mof_B 	B 	0.5057	0.9821	0.3141	3.329
Mof_F 	F 	0.4755	0.9131	0.3145	-1.03
Mof_F 	F 	0.4701	0.0185	0.3445	-1.117
Mof_F 	F 	0.4905	0.0124	0.2766	-1.133
Mof_F 	F 	0.5763	0.9741	0.3228	-1.149
Mof_B 	B 	0.3215	0.6086	0.5032	4.764
Mof_F 	F 	0.2663	0.6357	0.5105	-1.767
Mof_F 	F 	0.3145	0.5392	0.5005	-1.451
Mof_F 	F 	0.374	0.6254	0.5323	-1.33
Mof_F 	F 	0.3491	0.6279	0.4647	-1.304
Mof_B 	B 	0.5103	0.4869	0.3333	3.373
Mof_F 	F 	0.5321	0.5334	0.3617	-1.177
Mof_F 	F 	0.4941	0.4193	0.3501	-1.026
Mof_F 	F 	0.4503	0.5091	0.3132	-1.109
Mof_F 	F 	0.5608	0.4747	0.3022	-1.08
Mof_B 	B 	0.1727	0.1332	0.3332	4.064
Mof_F 	F 	0.1618	0.0684	0.3176	-1.249
Mof_F 	F 	0.2292	0.1453	0.3573	-1.323
Mof_F 	F 	0.1153	0.1315	0.3572	-1.253
Mof_F 	F 	0.1688	0.1766	0.2999	-1.268
Mof_B 	B 	0.0057	0.5179	0.8141	3.322
Mof_F 	F 	0.9755	0.5869	0.8145	-1.027
Mof_F 	F 	0.9701	0.4815	0.8445	-1.115
Mof_F 	F 	0.9905	0.4876	0.7766	-1.131
Mof_F 	F 	0.0763	0.5259	0.8228	-1.148
Mof_B 	B 	0.8215	0.8914	0.0032	4.755
Mof_F 	F 	0.7663	0.8643	0.0105	-1.766
Mof_F 	F 	0.8145	0.9608	0.0005	-1.452
Mof_F 	F 	0.874	0.8746	0.0323	-1.33
Mof_F 	F 	0.8491	0.8721	0.9647	-1.299
Mof_B 	B 	0.0103	0.0131	0.8333	3.345
Mof_F 	F 	0.0321	0.9666	0.8617	-1.168
Mof_F 	F 	0.9941	0.0807	0.8501	-1.017
Mof_F 	F 	0.9503	0.9909	0.8132	-1.101
Mof_F 	F 	0.0608	0.0253	0.8022	-1.077
Mof_B 	B 	0.6727	0.3668	0.8332	4.064
Mof_F 	F 	0.6618	0.4316	0.8176	-1.249
Mof_F 	F 	0.7292	0.3547	0.8573	-1.323
Mof_F 	F 	0.6153	0.3685	0.8572	-1.253
Mof_F 	F 	0.6688	0.3234	0.7999	-1.268
Mof_B 	B 	0.4943	0.0179	0.6859	3.329
Mof_F 	F 	0.5245	0.0869	0.6855	-1.03
Mof_F 	F 	0.5299	0.9815	0.6555	-1.117
Mof_F 	F 	0.5095	0.9876	0.7234	-1.133
Mof_F 	F 	0.4237	0.0259	0.6772	-1.149
Mof_B 	B 	0.6785	0.3914	0.4968	4.764
Mof_F 	F 	0.7337	0.3643	0.4895	-1.767
Mof_F 	F 	0.6855	0.4608	0.4995	-1.451
Mof_F 	F 	0.626	0.3746	0.4677	-1.33
Mof_F 	F 	0.6509	0.3721	0.5353	-1.304
Mof_B 	B 	0.4897	0.5131	0.6667	3.373
Mof_F 	F 	0.4679	0.4666	0.6383	-1.177
Mof_F 	F 	0.5059	0.5807	0.6499	-1.026
Mof_F 	F 	0.5497	0.4909	0.6868	-1.109
Mof_F 	F 	0.4392	0.5253	0.6978	-1.08
Mof_B 	B 	0.8273	0.8668	0.6668	4.064
Mof_F 	F 	0.8382	0.9316	0.6824	-1.249
Mof_F 	F 	0.7708	0.8547	0.6427	-1.323
Mof_F 	F 	0.8847	0.8685	0.6428	-1.253
Mof_F 	F 	0.8312	0.8234	0.7001	-1.268
_end
