data_functionalizedCrystal
_audit_creation_method	'EQeq! by Chris Wilmer'
_symmetry_space_group_name_H-M	'P1'
_symmetry_Int_Tables_number	1
_symmetry_cell_setting	triclinic
loop_
_symmetry_equiv_pos_as_xyz
  x,y,z
_cell_length_a	10.9068
_cell_length_b	15.858
_cell_length_c	16.1047
_cell_angle_alpha	89.575
_cell_angle_beta	89.485
_cell_angle_gamma	85.889
loop_
_atom_site_label
_atom_site_type_symbol
_atom_site_fract_x
_atom_site_fract_y
_atom_site_fract_z
_atom_site_charge
Mof_Fe	Fe	0.97426	0.27905	0.74711	0.668
Mof_N 	N 	0.013	0.2003	0.6384	-0.176
Mof_N 	N 	0.9889	0.0276	0.5254	-0.094
Mof_N 	N 	0.9383	0.3573	0.8551	-0.18
Mof_N 	N 	0.966	0.4873	0.0277	-0.092
Mof_N 	N 	0.9521	0.168	0.8206	-0.18
Mof_N 	N 	0.9999	0.0334	0.9802	-0.095
Mof_N 	N 	0.0019	0.3882	0.6739	-0.183
Mof_N 	N 	0.0422	0.5231	0.5077	-0.092
Mof_N 	N 	0.1669	0.27	0.7781	-0.178
Mof_N 	N 	0.4904	0.2642	0.7886	-0.092
Mof_N 	N 	0.7808	0.2827	0.7188	-0.177
Mof_N 	N 	0.4599	0.2626	0.7146	-0.093
Mof_C 	C 	0.0397	0.1565	0.5851	0.062
Mof_C 	C 	0.0686	0.1004	0.5128	0.082
Mof_C 	C 	0.2054	0.07	0.5119	-0.17
Mof_H 	H 	0.2274	0.0434	0.5661	0.075
Mof_H 	H 	0.2208	0.0268	0.4683	0.081
Mof_C 	C 	0.2854	0.1426	0.4955	-0.023
Mof_H 	H 	0.3726	0.1207	0.4925	0.021
Mof_H 	H 	0.2764	0.183	0.5422	0.034
Mof_C 	C 	0.2503	0.1886	0.4144	-0.132
Mof_H 	H 	0.3015	0.2372	0.4068	0.054
Mof_H 	H 	0.267	0.1497	0.3672	0.058
Mof_C 	C 	0.1157	0.2199	0.4146	-0.024
Mof_H 	H 	0.0945	0.2454	0.3599	0.022
Mof_H 	H 	0.1015	0.2644	0.4572	0.035
Mof_C 	C 	0.0319	0.1486	0.4329	-0.169
Mof_H 	H 	0.0361	0.1088	0.3857	0.08
Mof_H 	H 	0.9459	0.1726	0.4383	0.073
Mof_C 	C 	0.9215	0.3858	0.9187	0.069
Mof_C 	C 	0.8984	0.4132	0.0059	0.079
Mof_C 	C 	0.9416	0.3395	0.0625	-0.162
Mof_H 	H 	0.9396	0.359	0.1208	0.075
Mof_H 	H 	0.0278	0.3209	0.0483	0.072
Mof_C 	C 	0.8614	0.2636	0.055	-0.031
Mof_H 	H 	0.8714	0.2391	0.9988	0.038
Mof_H 	H 	0.8884	0.2194	0.0959	0.026
Mof_C 	C 	0.7278	0.2917	0.0703	-0.125
Mof_H 	H 	0.6774	0.2428	0.0635	0.052
Mof_H 	H 	0.7174	0.3115	0.1283	0.056
Mof_C 	C 	0.6821	0.3616	0.0121	-0.029
Mof_H 	H 	0.5952	0.379	0.0255	0.023
Mof_H 	H 	0.686	0.3406	0.9543	0.035
Mof_C 	C 	0.7601	0.4381	0.0193	-0.163
Mof_H 	H 	0.7474	0.4634	0.075	0.074
Mof_H 	H 	0.7325	0.4813	0.9775	0.072
Mof_C 	C 	0.9423	0.1071	0.8577	0.06
Mof_C 	C 	0.9179	0.0301	0.9061	0.08
Mof_C 	C 	0.9437	0.9503	0.853	-0.167
Mof_H 	H 	0.0298	0.9478	0.8327	0.074
Mof_H 	H 	0.9336	0.8996	0.8879	0.079
Mof_C 	C 	0.8579	0.9496	0.7793	-0.026
Mof_H 	H 	0.8741	0.8962	0.7484	0.023
Mof_H 	H 	0.8735	0.9971	0.7414	0.035
Mof_C 	C 	0.7245	0.9576	0.8083	-0.129
Mof_H 	H 	0.6704	0.96	0.7592	0.053
Mof_H 	H 	0.7071	0.9068	0.8412	0.057
Mof_C 	C 	0.6957	0.0352	0.8602	-0.026
Mof_H 	H 	0.6098	0.0355	0.8808	0.023
Mof_H 	H 	0.7025	0.0862	0.8251	0.036
Mof_C 	C 	0.7819	0.0389	0.9341	-0.166
Mof_H 	H 	0.7661	0.9929	0.9738	0.077
Mof_H 	H 	0.7652	0.0935	0.9631	0.072
Mof_C 	C 	0.0358	0.4433	0.6375	0.074
Mof_C 	C 	0.0933	0.5121	0.5916	0.078
Mof_C 	C 	0.2339	0.4896	0.5832	-0.164
Mof_H 	H 	0.2479	0.4324	0.5592	0.073
Mof_H 	H 	0.2697	0.5301	0.5445	0.075
Mof_C 	C 	0.2984	0.4917	0.6657	-0.029
Mof_H 	H 	0.3881	0.4812	0.6568	0.027
Mof_H 	H 	0.2706	0.4461	0.7021	0.04
Mof_C 	C 	0.2718	0.5771	0.7085	-0.127
Mof_H 	H 	0.3109	0.5754	0.7638	0.053
Mof_H 	H 	0.3079	0.622	0.6751	0.057
Mof_C 	C 	0.1334	0.5981	0.7186	-0.028
Mof_H 	H 	0.0991	0.5565	0.7569	0.036
Mof_H 	H 	0.1188	0.6548	0.7435	0.023
Mof_C 	C 	0.0678	0.5966	0.6359	-0.166
Mof_H 	H 	0.0951	0.6427	0.5999	0.076
Mof_H 	H 	0.9782	0.607	0.6453	0.074
Mof_C 	C 	0.2642	0.2644	0.8048	0.067
Mof_C 	C 	0.3849	0.2592	0.8473	0.079
Mof_C 	C 	0.4077	0.1746	0.8935	-0.166
Mof_H 	H 	0.3979	0.1278	0.8543	0.074
Mof_H 	H 	0.4933	0.1694	0.9137	0.076
Mof_C 	C 	0.3201	0.166	0.9669	-0.029
Mof_H 	H 	0.3428	0.1127	0.9971	0.024
Mof_H 	H 	0.2353	0.1633	0.9462	0.038
Mof_C 	C 	0.3237	0.2408	0.0271	-0.131
Mof_H 	H 	0.2619	0.2354	0.0719	0.053
Mof_H 	H 	0.4058	0.2402	0.0529	0.057
Mof_C 	C 	0.2964	0.3239	0.9801	-0.026
Mof_H 	H 	0.2117	0.3259	0.9583	0.038
Mof_H 	H 	0.3012	0.3716	0.0189	0.025
Mof_C 	C 	0.3863	0.334	0.9083	-0.166
Mof_H 	H 	0.4703	0.3371	0.9303	0.075
Mof_H 	H 	0.3638	0.3876	0.8783	0.073
Mof_C 	C 	0.6825	0.2744	0.6947	0.063
Mof_C 	C 	0.5639	0.2598	0.6544	0.083
Mof_C 	C 	0.5355	0.3278	0.5886	-0.169
Mof_H 	H 	0.541	0.3842	0.6136	0.074
Mof_H 	H 	0.4503	0.3241	0.569	0.077
Mof_C 	C 	0.6246	0.3185	0.5141	-0.03
Mof_H 	H 	0.5989	0.3606	0.4708	0.024
Mof_H 	H 	0.7084	0.3298	0.532	0.036
Mof_C 	C 	0.6263	0.229	0.4776	-0.128
Mof_H 	H 	0.544	0.2195	0.4555	0.057
Mof_H 	H 	0.6862	0.2239	0.431	0.052
Mof_C 	C 	0.661	0.1626	0.543	-0.026
Mof_H 	H 	0.7461	0.1692	0.5615	0.037
Mof_H 	H 	0.6586	0.1057	0.5184	0.024
Mof_C 	C 	0.574	0.17	0.6175	-0.168
Mof_H 	H 	0.6037	0.1291	0.6609	0.075
Mof_H 	H 	0.4914	0.1551	0.6004	0.076
Mof_Fe	Fe	0.02574	0.72095	0.25289	0.667
Mof_N 	N 	0.987	0.7997	0.3616	-0.177
Mof_N 	N 	0.0111	0.9724	0.4746	-0.094
Mof_N 	N 	0.0617	0.6427	0.1449	-0.18
Mof_N 	N 	0.034	0.5127	0.9723	-0.092
Mof_N 	N 	0.0479	0.832	0.1794	-0.18
Mof_N 	N 	0.0001	0.9666	0.0198	-0.095
Mof_N 	N 	0.9981	0.6118	0.3261	-0.183
Mof_N 	N 	0.9578	0.4769	0.4923	-0.092
Mof_N 	N 	0.8331	0.73	0.2219	-0.178
Mof_N 	N 	0.5096	0.7358	0.2114	-0.092
Mof_N 	N 	0.2192	0.7173	0.2812	-0.177
Mof_N 	N 	0.5401	0.7374	0.2854	-0.093
Mof_C 	C 	0.9603	0.8435	0.4149	0.062
Mof_C 	C 	0.9314	0.8996	0.4872	0.082
Mof_C 	C 	0.7946	0.93	0.4881	-0.17
Mof_H 	H 	0.7726	0.9566	0.4339	0.075
Mof_H 	H 	0.7792	0.9732	0.5317	0.081
Mof_C 	C 	0.7146	0.8574	0.5045	-0.023
Mof_H 	H 	0.6274	0.8793	0.5075	0.021
Mof_H 	H 	0.7236	0.817	0.4578	0.034
Mof_C 	C 	0.7497	0.8114	0.5856	-0.132
Mof_H 	H 	0.6985	0.7628	0.5932	0.054
Mof_H 	H 	0.733	0.8503	0.6328	0.058
Mof_C 	C 	0.8843	0.7801	0.5854	-0.024
Mof_H 	H 	0.9055	0.7546	0.6401	0.022
Mof_H 	H 	0.8985	0.7356	0.5428	0.035
Mof_C 	C 	0.9681	0.8514	0.5671	-0.169
Mof_H 	H 	0.9639	0.8912	0.6143	0.08
Mof_H 	H 	0.0541	0.8274	0.5617	0.073
Mof_C 	C 	0.0785	0.6142	0.0813	0.069
Mof_C 	C 	0.1016	0.5868	0.9941	0.079
Mof_C 	C 	0.0584	0.6605	0.9375	-0.162
Mof_H 	H 	0.0604	0.641	0.8792	0.075
Mof_H 	H 	0.9722	0.6791	0.9517	0.072
Mof_C 	C 	0.1386	0.7364	0.945	-0.031
Mof_H 	H 	0.1286	0.7609	0.0012	0.038
Mof_H 	H 	0.1116	0.7806	0.9041	0.026
Mof_C 	C 	0.2722	0.7083	0.9297	-0.125
Mof_H 	H 	0.3226	0.7572	0.9365	0.052
Mof_H 	H 	0.2826	0.6885	0.8717	0.056
Mof_C 	C 	0.3179	0.6384	0.9879	-0.029
Mof_H 	H 	0.4048	0.621	0.9745	0.023
Mof_H 	H 	0.314	0.6594	0.0457	0.035
Mof_C 	C 	0.2399	0.5619	0.9807	-0.163
Mof_H 	H 	0.2526	0.5366	0.925	0.074
Mof_H 	H 	0.2675	0.5187	0.0225	0.072
Mof_C 	C 	0.0577	0.8929	0.1423	0.06
Mof_C 	C 	0.0821	0.9699	0.0939	0.08
Mof_C 	C 	0.0563	0.0497	0.147	-0.167
Mof_H 	H 	0.9702	0.0522	0.1673	0.074
Mof_H 	H 	0.0664	0.1004	0.1121	0.079
Mof_C 	C 	0.1421	0.0504	0.2207	-0.026
Mof_H 	H 	0.1259	0.1038	0.2516	0.023
Mof_H 	H 	0.1265	0.0029	0.2586	0.035
Mof_C 	C 	0.2755	0.0424	0.1917	-0.129
Mof_H 	H 	0.3296	0.04	0.2408	0.053
Mof_H 	H 	0.2929	0.0932	0.1588	0.057
Mof_C 	C 	0.3043	0.9648	0.1398	-0.026
Mof_H 	H 	0.3902	0.9645	0.1192	0.023
Mof_H 	H 	0.2975	0.9138	0.1749	0.036
Mof_C 	C 	0.2181	0.9611	0.0659	-0.166
Mof_H 	H 	0.2339	0.0071	0.0262	0.077
Mof_H 	H 	0.2348	0.9065	0.0369	0.072
Mof_C 	C 	0.9642	0.5567	0.3625	0.074
Mof_C 	C 	0.9067	0.4879	0.4084	0.078
Mof_C 	C 	0.7661	0.5104	0.4168	-0.164
Mof_H 	H 	0.7521	0.5676	0.4408	0.073
Mof_H 	H 	0.7303	0.4699	0.4555	0.075
Mof_C 	C 	0.7016	0.5083	0.3343	-0.029
Mof_H 	H 	0.6119	0.5188	0.3432	0.027
Mof_H 	H 	0.7294	0.5539	0.2979	0.04
Mof_C 	C 	0.7282	0.4229	0.2915	-0.127
Mof_H 	H 	0.6891	0.4246	0.2362	0.053
Mof_H 	H 	0.6921	0.378	0.3249	0.057
Mof_C 	C 	0.8666	0.4019	0.2814	-0.028
Mof_H 	H 	0.9009	0.4435	0.2431	0.036
Mof_H 	H 	0.8812	0.3452	0.2565	0.023
Mof_C 	C 	0.9322	0.4034	0.3641	-0.166
Mof_H 	H 	0.9049	0.3573	0.4001	0.076
Mof_H 	H 	0.0218	0.393	0.3547	0.074
Mof_C 	C 	0.7358	0.7356	0.1952	0.067
Mof_C 	C 	0.6151	0.7408	0.1527	0.079
Mof_C 	C 	0.5923	0.8254	0.1065	-0.166
Mof_H 	H 	0.6021	0.8722	0.1457	0.074
Mof_H 	H 	0.5067	0.8306	0.0863	0.076
Mof_C 	C 	0.6799	0.834	0.0331	-0.029
Mof_H 	H 	0.6572	0.8873	0.0029	0.024
Mof_H 	H 	0.7647	0.8367	0.0538	0.038
Mof_C 	C 	0.6763	0.7592	0.9729	-0.131
Mof_H 	H 	0.7381	0.7646	0.9281	0.053
Mof_H 	H 	0.5942	0.7598	0.9471	0.057
Mof_C 	C 	0.7036	0.6761	0.0199	-0.026
Mof_H 	H 	0.7883	0.6741	0.0417	0.038
Mof_H 	H 	0.6988	0.6284	0.9811	0.025
Mof_C 	C 	0.6137	0.666	0.0917	-0.166
Mof_H 	H 	0.5297	0.6629	0.0697	0.075
Mof_H 	H 	0.6362	0.6124	0.1217	0.073
Mof_C 	C 	0.3175	0.7256	0.3053	0.063
Mof_C 	C 	0.4361	0.7402	0.3456	0.083
Mof_C 	C 	0.4645	0.6722	0.4114	-0.169
Mof_H 	H 	0.459	0.6158	0.3864	0.074
Mof_H 	H 	0.5497	0.6759	0.431	0.077
Mof_C 	C 	0.3754	0.6815	0.4859	-0.03
Mof_H 	H 	0.4011	0.6394	0.5292	0.024
Mof_H 	H 	0.2916	0.6702	0.468	0.036
Mof_C 	C 	0.3737	0.771	0.5224	-0.128
Mof_H 	H 	0.456	0.7805	0.5445	0.057
Mof_H 	H 	0.3138	0.7761	0.569	0.052
Mof_C 	C 	0.339	0.8374	0.457	-0.026
Mof_H 	H 	0.2539	0.8308	0.4385	0.037
Mof_H 	H 	0.3414	0.8943	0.4816	0.024
Mof_C 	C 	0.426	0.83	0.3825	-0.168
Mof_H 	H 	0.3963	0.8709	0.3391	0.075
Mof_H 	H 	0.5086	0.8449	0.3996	0.076
_end
