data_functionalizedCrystal
_audit_creation_method	'EQeq! by Chris Wilmer'
_symmetry_space_group_name_H-M	'P1'
_symmetry_Int_Tables_number	1
_symmetry_cell_setting	triclinic
loop_
_symmetry_equiv_pos_as_xyz
  x,y,z
_cell_length_a	10.574
_cell_length_b	10.345
_cell_length_c	6.166
_cell_angle_alpha	90
_cell_angle_beta	114.85
_cell_angle_gamma	90
loop_
_atom_site_label
_atom_site_type_symbol
_atom_site_fract_x
_atom_site_fract_y
_atom_site_fract_z
_atom_site_charge
Mof_C 	C 	0.3161	0.2117	0.548	-0.063
Mof_H 	H 	0.3323	0.1757	0.7026	-0.002
Mof_H 	H 	0.3942	0.2672	0.5676	0.015
Mof_N 	N 	0.3039	0.1073	0.3793	-0.266
Mof_H 	H 	0.2829	0.1408	0.2335	0.061
Mof_H 	H 	0.2347	0.0534	0.3683	0.055
Mof_C 	C 	0.8161	0.7117	0.548	-0.066
Mof_H 	H 	0.8323	0.6757	0.7026	0.022
Mof_H 	H 	0.8942	0.7672	0.5676	0.041
Mof_N 	N 	0.8039	0.6073	0.3793	-0.261
Mof_H 	H 	0.7829	0.6408	0.2335	0.084
Mof_H 	H 	0.7347	0.5534	0.3683	0.083
Mof_C 	C 	0.6839	0.2117	0.952	0.03
Mof_H 	H 	0.6677	0.1757	0.7974	-0.028
Mof_H 	H 	0.6058	0.2672	0.9324	-0.008
Mof_N 	N 	0.6961	0.1073	0.1207	-0.29
Mof_H 	H 	0.7171	0.1408	0.2665	0.078
Mof_H 	H 	0.7653	0.0534	0.1317	0.072
Mof_C 	C 	0.1839	0.7117	0.952	0.033
Mof_H 	H 	0.1677	0.6757	0.7974	-0.03
Mof_H 	H 	0.1058	0.7672	0.9324	-0.018
Mof_N 	N 	0.1961	0.6073	0.1207	-0.293
Mof_H 	H 	0.2171	0.6408	0.2665	0.08
Mof_H 	H 	0.2653	0.5534	0.1317	0.082
Mof_C 	C 	0.6839	0.7883	0.452	-0.023
Mof_H 	H 	0.6677	0.8243	0.2974	0.003
Mof_H 	H 	0.6058	0.7328	0.4324	0.006
Mof_N 	N 	0.6961	0.8927	0.6207	-0.277
Mof_H 	H 	0.7171	0.8592	0.7665	0.102
Mof_H 	H 	0.7653	0.9466	0.6317	0.116
Mof_C 	C 	0.1839	0.2883	0.452	-0.019
Mof_H 	H 	0.1677	0.3243	0.2974	-0.021
Mof_H 	H 	0.1058	0.2328	0.4324	-0.021
Mof_N 	N 	0.1961	0.3927	0.6207	-0.283
Mof_H 	H 	0.2171	0.3592	0.7665	0.08
Mof_H 	H 	0.2653	0.4466	0.6317	0.087
Mof_C 	C 	0.3161	0.7883	0.048	-0.115
Mof_H 	H 	0.3323	0.8243	0.2026	0.026
Mof_H 	H 	0.3942	0.7328	0.0676	0.029
Mof_N 	N 	0.3039	0.8927	0.8793	-0.245
Mof_H 	H 	0.2829	0.8592	0.7335	0.085
Mof_H 	H 	0.2347	0.9466	0.8683	0.098
Mof_C 	C 	0.8161	0.2883	0.048	-0.118
Mof_H 	H 	0.8323	0.3243	0.2026	0.028
Mof_H 	H 	0.8942	0.2328	0.0676	0.039
Mof_N 	N 	0.8039	0.3927	0.8793	-0.243
Mof_H 	H 	0.7829	0.3592	0.7335	0.082
Mof_H 	H 	0.7347	0.4466	0.8683	0.088
Mof_Ag	Ag	0.5	0	0.5	0.294
Mof_Ag	Ag	1.5526e-33	0.5	0.5	0.294
Mof_Ag	Ag	0.5	0	-0	0.248
Mof_Ag	Ag	-0	0.5	-0	0.249
_end
