# CIF file generated by openbabel 3.1.0, see https://openbabel.org
data_I
_chemical_name_common 'image0'
_cell_length_a 11.958
_cell_length_b 11.958
_cell_length_c 25.035
_cell_angle_alpha 90
_cell_angle_beta 90
_cell_angle_gamma 120
_space_group_name_H-M_alt 'P 1'
_space_group_name_Hall 'P 1'
loop_
    _symmetry_equiv_pos_as_xyz
    x,y,z
loop_
    _atom_site_label
    _atom_site_type_symbol
    _atom_site_fract_x
    _atom_site_fract_y
    _atom_site_fract_z
    _atom_site_occupancy
    H1       H        0.05530    0.14890    0.12920    1.000
    N1       N        0.19940    0.33570    0.11330    1.000
    C1       C        0.17990    0.30710    0.02750    1.000
    H2       H        0.19470    0.32120    0.99020    1.000
    C2       C        0.23980    0.40070    0.06570    1.000
    H3       H        0.29670    0.49050    0.06040    1.000
    C3       C        0.24130    0.39120    0.16710    1.000
    H4       H        0.31060    0.37520    0.17960    1.000
    H5       H        0.16780    0.34810    0.19220    1.000
    C4       C        0.29030    0.53440    0.16690    1.000
    H6       H        0.72197    0.48223    0.46253    1.000
    N2       N        0.86607    0.66903    0.44663    1.000
    C5       C        0.84657    0.64043    0.36083    1.000
    H7       H        0.86137    0.65453    0.32353    1.000
    C6       C        0.90647    0.73403    0.39903    1.000
    H8       H        0.96337    0.82383    0.39373    1.000
    C7       C        0.90797    0.72453    0.50043    1.000
    H9       H        0.97727    0.70853    0.51293    1.000
    H10      H        0.83447    0.68143    0.52553    1.000
    C8       C        0.95697    0.86773    0.50023    1.000
    H11      H        0.38863    0.81557    0.79587    1.000
    N3       N        0.53273    0.00237    0.77997    1.000
    C9       C        0.51323    0.97377    0.69417    1.000
    H12      H        0.52803    0.98787    0.65687    1.000
    C10      C        0.57313    0.06737    0.73237    1.000
    H13      H        0.63003    0.15717    0.72707    1.000
    C11      C        0.57463    0.05787    0.83377    1.000
    H14      H        0.64393    0.04187    0.84627    1.000
    H15      H        0.50113    0.01477    0.85887    1.000
    C12      C        0.62363    0.20107    0.83357    1.000
    H16      H        0.85110    0.90640    0.12920    1.000
    N4       N        0.66430    0.86370    0.11330    1.000
    C13      C        0.69290    0.87280    0.02750    1.000
    H17      H        0.67880    0.87350    0.99020    1.000
    C14      C        0.59930    0.83910    0.06570    1.000
    H18      H        0.50950    0.80620    0.06040    1.000
    C15      C        0.60880    0.85010    0.16710    1.000
    H19      H        0.62480    0.93540    0.17960    1.000
    H20      H        0.65190    0.81970    0.19220    1.000
    C16      C        0.46560    0.75590    0.16690    1.000
    H21      H        0.51777    0.23973    0.46253    1.000
    N5       N        0.33097    0.19703    0.44663    1.000
    C17      C        0.35957    0.20613    0.36083    1.000
    H22      H        0.34547    0.20683    0.32353    1.000
    C18      C        0.26597    0.17243    0.39903    1.000
    H23      H        0.17617    0.13953    0.39373    1.000
    C19      C        0.27547    0.18343    0.50043    1.000
    H24      H        0.29147    0.26873    0.51293    1.000
    H25      H        0.31857    0.15303    0.52553    1.000
    C20      C        0.13227    0.08923    0.50023    1.000
    H26      H        0.18443    0.57307    0.79587    1.000
    N6       N        0.99763    0.53037    0.77997    1.000
    C21      C        0.02623    0.53947    0.69417    1.000
    H27      H        0.01213    0.54017    0.65687    1.000
    C22      C        0.93263    0.50577    0.73237    1.000
    H28      H        0.84283    0.47287    0.72707    1.000
    C23      C        0.94213    0.51677    0.83377    1.000
    H29      H        0.95813    0.60207    0.84627    1.000
    H30      H        0.98523    0.48637    0.85887    1.000
    C24      C        0.79893    0.42257    0.83357    1.000
    H31      H        0.09360    0.94470    0.12920    1.000
    N7       N        0.13630    0.80060    0.11330    1.000
    C25      C        0.12720    0.82010    0.02750    1.000
    H32      H        0.12650    0.80530    0.99020    1.000
    C26      C        0.16090    0.76020    0.06570    1.000
    H33      H        0.19380    0.70330    0.06040    1.000
    C27      C        0.14990    0.75870    0.16710    1.000
    H34      H        0.06460    0.68940    0.17960    1.000
    H35      H        0.18030    0.83220    0.19220    1.000
    C28      C        0.24410    0.70970    0.16690    1.000
    H36      H        0.76027    0.27803    0.46253    1.000
    N8       N        0.80297    0.13393    0.44663    1.000
    C29      C        0.79387    0.15343    0.36083    1.000
    H37      H        0.79317    0.13863    0.32353    1.000
    C30      C        0.82757    0.09353    0.39903    1.000
    H38      H        0.86047    0.03663    0.39373    1.000
    C31      C        0.81657    0.09203    0.50043    1.000
    H39      H        0.73127    0.02273    0.51293    1.000
    H40      H        0.84697    0.16553    0.52553    1.000
    C32      C        0.91077    0.04303    0.50023    1.000
    H41      H        0.42693    0.61137    0.79587    1.000
    N9       N        0.46963    0.46727    0.77997    1.000
    C33      C        0.46053    0.48677    0.69417    1.000
    H42      H        0.45983    0.47197    0.65687    1.000
    C34      C        0.49423    0.42687    0.73237    1.000
    H43      H        0.52713    0.36997    0.72707    1.000
    C35      C        0.48323    0.42537    0.83377    1.000
    H44      H        0.39793    0.35607    0.84627    1.000
    H45      H        0.51363    0.49887    0.85887    1.000
    C36      C        0.57743    0.37637    0.83357    1.000
    H46      H        0.14890    0.05530    0.87080    1.000
    N10      N        0.33570    0.19940    0.88670    1.000
    C37      C        0.30710    0.17990    0.97250    1.000
    H47      H        0.32120    0.19470    0.00980    1.000
    C38      C        0.40070    0.23980    0.93430    1.000
    H48      H        0.49050    0.29670    0.93960    1.000
    C39      C        0.39120    0.24130    0.83290    1.000
    H49      H        0.37520    0.31060    0.82040    1.000
    H50      H        0.34810    0.16780    0.80780    1.000
    C40      C        0.53440    0.29030    0.83310    1.000
    H51      H        0.81557    0.38863    0.20413    1.000
    N11      N        0.00237    0.53273    0.22003    1.000
    C41      C        0.97377    0.51323    0.30583    1.000
    H52      H        0.98787    0.52803    0.34313    1.000
    C42      C        0.06737    0.57313    0.26763    1.000
    H53      H        0.15717    0.63003    0.27293    1.000
    C43      C        0.05787    0.57463    0.16623    1.000
    H54      H        0.04187    0.64393    0.15373    1.000
    H55      H        0.01477    0.50113    0.14113    1.000
    C44      C        0.20107    0.62363    0.16643    1.000
    H56      H        0.48223    0.72197    0.53747    1.000
    N12      N        0.66903    0.86607    0.55337    1.000
    C45      C        0.64043    0.84657    0.63917    1.000
    H57      H        0.65453    0.86137    0.67647    1.000
    C46      C        0.73403    0.90647    0.60097    1.000
    H58      H        0.82383    0.96337    0.60627    1.000
    C47      C        0.72453    0.90797    0.49957    1.000
    H59      H        0.70853    0.97727    0.48707    1.000
    H60      H        0.68143    0.83447    0.47447    1.000
    C48      C        0.86773    0.95697    0.49977    1.000
    H61      H        0.90640    0.85110    0.87080    1.000
    N13      N        0.86370    0.66430    0.88670    1.000
    C49      C        0.87280    0.69290    0.97250    1.000
    H62      H        0.87350    0.67880    0.00980    1.000
    C50      C        0.83910    0.59930    0.93430    1.000
    H63      H        0.80620    0.50950    0.93960    1.000
    C51      C        0.85010    0.60880    0.83290    1.000
    H64      H        0.93540    0.62480    0.82040    1.000
    H65      H        0.81970    0.65190    0.80780    1.000
    C52      C        0.75590    0.46560    0.83310    1.000
    H66      H        0.57307    0.18443    0.20413    1.000
    N14      N        0.53037    0.99763    0.22003    1.000
    C53      C        0.53947    0.02623    0.30583    1.000
    H67      H        0.54017    0.01213    0.34313    1.000
    C54      C        0.50577    0.93263    0.26763    1.000
    H68      H        0.47287    0.84283    0.27293    1.000
    C55      C        0.51677    0.94213    0.16623    1.000
    H69      H        0.60207    0.95813    0.15373    1.000
    H70      H        0.48637    0.98523    0.14113    1.000
    C56      C        0.42257    0.79893    0.16643    1.000
    H71      H        0.23973    0.51777    0.53747    1.000
    N15      N        0.19703    0.33097    0.55337    1.000
    C57      C        0.20613    0.35957    0.63917    1.000
    H72      H        0.20683    0.34547    0.67647    1.000
    C58      C        0.17243    0.26597    0.60097    1.000
    H73      H        0.13953    0.17617    0.60627    1.000
    C59      C        0.18343    0.27547    0.49957    1.000
    H74      H        0.26873    0.29147    0.48707    1.000
    H75      H        0.15303    0.31857    0.47447    1.000
    C60      C        0.08923    0.13227    0.49977    1.000
    H76      H        0.94470    0.09360    0.87080    1.000
    N16      N        0.80060    0.13630    0.88670    1.000
    C61      C        0.82010    0.12720    0.97250    1.000
    H77      H        0.80530    0.12650    0.00980    1.000
    C62      C        0.76020    0.16090    0.93430    1.000
    H78      H        0.70330    0.19380    0.93960    1.000
    C63      C        0.75870    0.14990    0.83290    1.000
    H79      H        0.68940    0.06460    0.82040    1.000
    H80      H        0.83220    0.18030    0.80780    1.000
    C64      C        0.70970    0.24410    0.83310    1.000
    H81      H        0.61137    0.42693    0.20413    1.000
    N17      N        0.46727    0.46963    0.22003    1.000
    C65      C        0.48677    0.46053    0.30583    1.000
    H82      H        0.47197    0.45983    0.34313    1.000
    C66      C        0.42687    0.49423    0.26763    1.000
    H83      H        0.36997    0.52713    0.27293    1.000
    C67      C        0.42537    0.48323    0.16623    1.000
    H84      H        0.35607    0.39793    0.15373    1.000
    H85      H        0.49887    0.51363    0.14113    1.000
    C68      C        0.37637    0.57743    0.16643    1.000
    H86      H        0.27803    0.76027    0.53747    1.000
    N18      N        0.13393    0.80297    0.55337    1.000
    C69      C        0.15343    0.79387    0.63917    1.000
    H87      H        0.13863    0.79317    0.67647    1.000
    C70      C        0.09353    0.82757    0.60097    1.000
    H88      H        0.03663    0.86047    0.60627    1.000
    C71      C        0.09203    0.81657    0.49957    1.000
    H89      H        0.02273    0.73127    0.48707    1.000
    H90      H        0.16553    0.84697    0.47447    1.000
    C72      C        0.04303    0.91077    0.49977    1.000
    H91      H        0.94470    0.85110    0.87080    1.000
    N19      N        0.80060    0.66430    0.88670    1.000
    C73      C        0.82010    0.69290    0.97250    1.000
    H92      H        0.80530    0.67880    0.00980    1.000
    C74      C        0.76020    0.59930    0.93430    1.000
    H93      H        0.70330    0.50950    0.93960    1.000
    C75      C        0.75870    0.60880    0.83290    1.000
    H94      H        0.68940    0.62480    0.82040    1.000
    H95      H        0.83220    0.65190    0.80780    1.000
    C76      C        0.70970    0.46560    0.83310    1.000
    H96      H        0.61137    0.18443    0.20413    1.000
    N20      N        0.46727    0.99763    0.22003    1.000
    C77      C        0.48677    0.02623    0.30583    1.000
    H97      H        0.47197    0.01213    0.34313    1.000
    C78      C        0.42687    0.93263    0.26763    1.000
    H98      H        0.36997    0.84283    0.27293    1.000
    C79      C        0.42537    0.94213    0.16623    1.000
    H99      H        0.35607    0.95813    0.15373    1.000
    H100     H        0.49887    0.98523    0.14113    1.000
    C80      C        0.37637    0.79893    0.16643    1.000
    H101     H        0.27803    0.51777    0.53747    1.000
    N21      N        0.13393    0.33097    0.55337    1.000
    C81      C        0.15343    0.35957    0.63917    1.000
    H102     H        0.13863    0.34547    0.67647    1.000
    C82      C        0.09353    0.26597    0.60097    1.000
    H103     H        0.03663    0.17617    0.60627    1.000
    C83      C        0.09203    0.27547    0.49957    1.000
    H104     H        0.02273    0.29147    0.48707    1.000
    H105     H        0.16553    0.31857    0.47447    1.000
    C84      C        0.04303    0.13227    0.49977    1.000
    H106     H        0.14890    0.09360    0.87080    1.000
    N22      N        0.33570    0.13630    0.88670    1.000
    C85      C        0.30710    0.12720    0.97250    1.000
    H107     H        0.32120    0.12650    0.00980    1.000
    C86      C        0.40070    0.16090    0.93430    1.000
    H108     H        0.49050    0.19380    0.93960    1.000
    C87      C        0.39120    0.14990    0.83290    1.000
    H109     H        0.37520    0.06460    0.82040    1.000
    H110     H        0.34810    0.18030    0.80780    1.000
    C88      C        0.53440    0.24410    0.83310    1.000
    H111     H        0.81557    0.42693    0.20413    1.000
    N23      N        0.00237    0.46963    0.22003    1.000
    C89      C        0.97377    0.46053    0.30583    1.000
    H112     H        0.98787    0.45983    0.34313    1.000
    C90      C        0.06737    0.49423    0.26763    1.000
    H113     H        0.15717    0.52713    0.27293    1.000
    C91      C        0.05787    0.48323    0.16623    1.000
    H114     H        0.04187    0.39793    0.15373    1.000
    H115     H        0.01477    0.51363    0.14113    1.000
    C92      C        0.20107    0.57743    0.16643    1.000
    H116     H        0.48223    0.76027    0.53747    1.000
    N24      N        0.66903    0.80297    0.55337    1.000
    C93      C        0.64043    0.79387    0.63917    1.000
    H117     H        0.65453    0.79317    0.67647    1.000
    C94      C        0.73403    0.82757    0.60097    1.000
    H118     H        0.82383    0.86047    0.60627    1.000
    C95      C        0.72453    0.81657    0.49957    1.000
    H119     H        0.70853    0.73127    0.48707    1.000
    H120     H        0.68143    0.84697    0.47447    1.000
    C96      C        0.86773    0.91077    0.49977    1.000
    H121     H        0.90640    0.05530    0.87080    1.000
    N25      N        0.86370    0.19940    0.88670    1.000
    C97      C        0.87280    0.17990    0.97250    1.000
    H122     H        0.87350    0.19470    0.00980    1.000
    C98      C        0.83910    0.23980    0.93430    1.000
    H123     H        0.80620    0.29670    0.93960    1.000
    C99      C        0.85010    0.24130    0.83290    1.000
    H124     H        0.93540    0.31060    0.82040    1.000
    H125     H        0.81970    0.16780    0.80780    1.000
    C100     C        0.75590    0.29030    0.83310    1.000
    H126     H        0.57307    0.38863    0.20413    1.000
    N26      N        0.53037    0.53273    0.22003    1.000
    C101     C        0.53947    0.51323    0.30583    1.000
    H127     H        0.54017    0.52803    0.34313    1.000
    C102     C        0.50577    0.57313    0.26763    1.000
    H128     H        0.47287    0.63003    0.27293    1.000
    C103     C        0.51677    0.57463    0.16623    1.000
    H129     H        0.60207    0.64393    0.15373    1.000
    H130     H        0.48637    0.50113    0.14113    1.000
    C104     C        0.42257    0.62363    0.16643    1.000
    H131     H        0.23973    0.72197    0.53747    1.000
    N27      N        0.19703    0.86607    0.55337    1.000
    C105     C        0.20613    0.84657    0.63917    1.000
    H132     H        0.20683    0.86137    0.67647    1.000
    C106     C        0.17243    0.90647    0.60097    1.000
    H133     H        0.13953    0.96337    0.60627    1.000
    C107     C        0.18343    0.90797    0.49957    1.000
    H134     H        0.26873    0.97727    0.48707    1.000
    H135     H        0.15303    0.83447    0.47447    1.000
    C108     C        0.08923    0.95697    0.49977    1.000
    H136     H        0.85110    0.94470    0.12920    1.000
    N28      N        0.66430    0.80060    0.11330    1.000
    C109     C        0.69290    0.82010    0.02750    1.000
    H137     H        0.67880    0.80530    0.99020    1.000
    C110     C        0.59930    0.76020    0.06570    1.000
    H138     H        0.50950    0.70330    0.06040    1.000
    C111     C        0.60880    0.75870    0.16710    1.000
    H139     H        0.62480    0.68940    0.17960    1.000
    H140     H        0.65190    0.83220    0.19220    1.000
    C112     C        0.46560    0.70970    0.16690    1.000
    H141     H        0.51777    0.27803    0.46253    1.000
    N29      N        0.33097    0.13393    0.44663    1.000
    C113     C        0.35957    0.15343    0.36083    1.000
    H142     H        0.34547    0.13863    0.32353    1.000
    C114     C        0.26597    0.09353    0.39903    1.000
    H143     H        0.17617    0.03663    0.39373    1.000
    C115     C        0.27547    0.09203    0.50043    1.000
    H144     H        0.29147    0.02273    0.51293    1.000
    H145     H        0.31857    0.16553    0.52553    1.000
    C116     C        0.13227    0.04303    0.50023    1.000
    H146     H        0.18443    0.61137    0.79587    1.000
    N30      N        0.99763    0.46727    0.77997    1.000
    C117     C        0.02623    0.48677    0.69417    1.000
    H147     H        0.01213    0.47197    0.65687    1.000
    C118     C        0.93263    0.42687    0.73237    1.000
    H148     H        0.84283    0.36997    0.72707    1.000
    C119     C        0.94213    0.42537    0.83377    1.000
    H149     H        0.95813    0.35607    0.84627    1.000
    H150     H        0.98523    0.49887    0.85887    1.000
    C120     C        0.79893    0.37637    0.83357    1.000
    H151     H        0.09360    0.14890    0.12920    1.000
    N31      N        0.13630    0.33570    0.11330    1.000
    C121     C        0.12720    0.30710    0.02750    1.000
    H152     H        0.12650    0.32120    0.99020    1.000
    C122     C        0.16090    0.40070    0.06570    1.000
    H153     H        0.19380    0.49050    0.06040    1.000
    C123     C        0.14990    0.39120    0.16710    1.000
    H154     H        0.06460    0.37520    0.17960    1.000
    H155     H        0.18030    0.34810    0.19220    1.000
    C124     C        0.24410    0.53440    0.16690    1.000
    H156     H        0.76027    0.48223    0.46253    1.000
    N32      N        0.80297    0.66903    0.44663    1.000
    C125     C        0.79387    0.64043    0.36083    1.000
    H157     H        0.79317    0.65453    0.32353    1.000
    C126     C        0.82757    0.73403    0.39903    1.000
    H158     H        0.86047    0.82383    0.39373    1.000
    C127     C        0.81657    0.72453    0.50043    1.000
    H159     H        0.73127    0.70853    0.51293    1.000
    H160     H        0.84697    0.68143    0.52553    1.000
    C128     C        0.91077    0.86773    0.50023    1.000
    H161     H        0.42693    0.81557    0.79587    1.000
    N33      N        0.46963    0.00237    0.77997    1.000
    C129     C        0.46053    0.97377    0.69417    1.000
    H162     H        0.45983    0.98787    0.65687    1.000
    C130     C        0.49423    0.06737    0.73237    1.000
    H163     H        0.52713    0.15717    0.72707    1.000
    C131     C        0.48323    0.05787    0.83377    1.000
    H164     H        0.39793    0.04187    0.84627    1.000
    H165     H        0.51363    0.01477    0.85887    1.000
    C132     C        0.57743    0.20107    0.83357    1.000
    H166     H        0.05530    0.90640    0.12920    1.000
    N34      N        0.19940    0.86370    0.11330    1.000
    C133     C        0.17990    0.87280    0.02750    1.000
    H167     H        0.19470    0.87350    0.99020    1.000
    C134     C        0.23980    0.83910    0.06570    1.000
    H168     H        0.29670    0.80620    0.06040    1.000
    C135     C        0.24130    0.85010    0.16710    1.000
    H169     H        0.31060    0.93540    0.17960    1.000
    H170     H        0.16780    0.81970    0.19220    1.000
    C136     C        0.29030    0.75590    0.16690    1.000
    H171     H        0.72197    0.23973    0.46253    1.000
    N35      N        0.86607    0.19703    0.44663    1.000
    C137     C        0.84657    0.20613    0.36083    1.000
    H172     H        0.86137    0.20683    0.32353    1.000
    C138     C        0.90647    0.17243    0.39903    1.000
    H173     H        0.96337    0.13953    0.39373    1.000
    C139     C        0.90797    0.18343    0.50043    1.000
    H174     H        0.97727    0.26873    0.51293    1.000
    H175     H        0.83447    0.15303    0.52553    1.000
    C140     C        0.95697    0.08923    0.50023    1.000
    H176     H        0.38863    0.57307    0.79587    1.000
    N36      N        0.53273    0.53037    0.77997    1.000
    C141     C        0.51323    0.53947    0.69417    1.000
    H177     H        0.52803    0.54017    0.65687    1.000
    C142     C        0.57313    0.50577    0.73237    1.000
    H178     H        0.63003    0.47287    0.72707    1.000
    C143     C        0.57463    0.51677    0.83377    1.000
    H179     H        0.64393    0.60207    0.84627    1.000
    H180     H        0.50113    0.48637    0.85887    1.000
    C144     C        0.62363    0.42257    0.83357    1.000
    Cd1      Cd       0.00000    0.00000    0.00000    1.000
    Cd2      Cd       0.66667    0.33333    0.33333    1.000
    Cd3      Cd       0.33333    0.66667    0.66667    1.000
    N37      N        0.09435    0.18870    0.05070    1.000
    C145     C        0.10540    0.21080    0.10280    1.000
    N38      N        0.76102    0.52203    0.38403    1.000
    C146     C        0.77207    0.54413    0.43613    1.000
    N39      N        0.42768    0.85537    0.71737    1.000
    C147     C        0.43873    0.87747    0.76947    1.000
    N40      N        0.81130    0.90565    0.05070    1.000
    C148     C        0.78920    0.89460    0.10280    1.000
    N41      N        0.47797    0.23898    0.38403    1.000
    C149     C        0.45587    0.22793    0.43613    1.000
    N42      N        0.14463    0.57232    0.71737    1.000
    C150     C        0.12253    0.56127    0.76947    1.000
    N43      N        0.09435    0.90565    0.05070    1.000
    C151     C        0.10540    0.89460    0.10280    1.000
    N44      N        0.76102    0.23898    0.38403    1.000
    C152     C        0.77207    0.22793    0.43613    1.000
    N45      N        0.42768    0.57232    0.71737    1.000
    C153     C        0.43873    0.56127    0.76947    1.000
    N46      N        0.18870    0.09435    0.94930    1.000
    C154     C        0.21080    0.10540    0.89720    1.000
    N47      N        0.85537    0.42768    0.28263    1.000
    C155     C        0.87747    0.43873    0.23053    1.000
    N48      N        0.52203    0.76102    0.61597    1.000
    C156     C        0.54413    0.77207    0.56387    1.000
    N49      N        0.90565    0.81130    0.94930    1.000
    C157     C        0.89460    0.78920    0.89720    1.000
    N50      N        0.57232    0.14463    0.28263    1.000
    C158     C        0.56127    0.12253    0.23053    1.000
    N51      N        0.23898    0.47797    0.61597    1.000
    C159     C        0.22793    0.45587    0.56387    1.000
    N52      N        0.90565    0.09435    0.94930    1.000
    C160     C        0.89460    0.10540    0.89720    1.000
    N53      N        0.57232    0.42768    0.28263    1.000
    C161     C        0.56127    0.43873    0.23053    1.000
    N54      N        0.23898    0.76102    0.61597    1.000
    C162     C        0.22793    0.77207    0.56387    1.000
