# CIF file generated by openbabel 3.1.0, see https://openbabel.org
data_I
_chemical_name_common 'image0'
_cell_length_a 22.8995
_cell_length_b 22.8995
_cell_length_c 19.0201
_cell_angle_alpha 90
_cell_angle_beta 90
_cell_angle_gamma 90
_space_group_name_H-M_alt 'P 1'
_space_group_name_Hall 'P 1'
loop_
    _symmetry_equiv_pos_as_xyz
    x,y,z
loop_
    _atom_site_label
    _atom_site_type_symbol
    _atom_site_fract_x
    _atom_site_fract_y
    _atom_site_fract_z
    _atom_site_occupancy
    F1       F        0.35770    0.37300    0.08970    1.000
    F2       F        0.39090    0.36320    0.19960    1.000
    F3       F        0.36870    0.28370    0.13550    1.000
    O1       O        0.15810    0.44160    0.07000    1.000
    O2       O        0.08690    0.39440    0.13040    1.000
    C1       C        0.14000    0.40480    0.11520    1.000
    C2       C        0.18490    0.37190    0.15650    1.000
    C3       C        0.24190    0.37660    0.14240    1.000
    H1       H        0.25540    0.40230    0.10670    1.000
    C4       C        0.28160    0.34250    0.18170    1.000
    C5       C        0.26300    0.30350    0.23210    1.000
    C6       C        0.20460    0.30740    0.25030    1.000
    H2       H        0.19130    0.28780    0.29130    1.000
    C7       C        0.16500    0.33900    0.21040    1.000
    H3       H        0.12450    0.33760    0.22080    1.000
    C8       C        0.34220    0.34100    0.15620    1.000
    F4       F        0.17320    0.20640    0.29710    1.000
    F5       F        0.11610    0.28140    0.32660    1.000
    F6       F        0.20390    0.27130    0.37830    1.000
    H4       H        0.32220    0.34650    0.17310    1.000
    C9       C        0.17940    0.27070    0.30640    1.000
    F7       F        0.64230    0.62700    0.08970    1.000
    F8       F        0.60910    0.63680    0.19960    1.000
    F9       F        0.63130    0.71630    0.13550    1.000
    O3       O        0.84190    0.55840    0.07000    1.000
    O4       O        0.91310    0.60560    0.13040    1.000
    C10      C        0.86000    0.59520    0.11520    1.000
    C11      C        0.81510    0.62810    0.15650    1.000
    C12      C        0.75810    0.62340    0.14240    1.000
    H5       H        0.74460    0.59770    0.10670    1.000
    C13      C        0.71840    0.65750    0.18170    1.000
    C14      C        0.73700    0.69650    0.23210    1.000
    C15      C        0.79540    0.69260    0.25030    1.000
    H6       H        0.80870    0.71220    0.29130    1.000
    C16      C        0.83500    0.66100    0.21040    1.000
    H7       H        0.87550    0.66240    0.22080    1.000
    C17      C        0.65780    0.65900    0.15620    1.000
    F10      F        0.82680    0.79360    0.29710    1.000
    F11      F        0.88390    0.71860    0.32660    1.000
    F12      F        0.79610    0.72870    0.37830    1.000
    H8       H        0.67780    0.65350    0.17310    1.000
    C18      C        0.82060    0.72930    0.30640    1.000
    F13      F        0.62700    0.35770    0.58970    1.000
    F14      F        0.63680    0.39090    0.69960    1.000
    F15      F        0.71630    0.36870    0.63550    1.000
    O5       O        0.55840    0.15810    0.57000    1.000
    O6       O        0.60560    0.08690    0.63040    1.000
    C19      C        0.59520    0.14000    0.61520    1.000
    C20      C        0.62810    0.18490    0.65650    1.000
    C21      C        0.62340    0.24190    0.64240    1.000
    H9       H        0.59770    0.25540    0.60670    1.000
    C22      C        0.65750    0.28160    0.68170    1.000
    C23      C        0.69650    0.26300    0.73210    1.000
    C24      C        0.69260    0.20460    0.75030    1.000
    H10      H        0.71220    0.19130    0.79130    1.000
    C25      C        0.66100    0.16500    0.71040    1.000
    H11      H        0.66240    0.12450    0.72080    1.000
    C26      C        0.65900    0.34220    0.65620    1.000
    F16      F        0.79360    0.17320    0.79710    1.000
    F17      F        0.71860    0.11610    0.82660    1.000
    F18      F        0.72870    0.20390    0.87830    1.000
    H12      H        0.65350    0.32220    0.67310    1.000
    C27      C        0.72930    0.17940    0.80640    1.000
    F19      F        0.37300    0.64230    0.58970    1.000
    F20      F        0.36320    0.60910    0.69960    1.000
    F21      F        0.28370    0.63130    0.63550    1.000
    O7       O        0.44160    0.84190    0.57000    1.000
    O8       O        0.39440    0.91310    0.63040    1.000
    C28      C        0.40480    0.86000    0.61520    1.000
    C29      C        0.37190    0.81510    0.65650    1.000
    C30      C        0.37660    0.75810    0.64240    1.000
    H13      H        0.40230    0.74460    0.60670    1.000
    C31      C        0.34250    0.71840    0.68170    1.000
    C32      C        0.30350    0.73700    0.73210    1.000
    C33      C        0.30740    0.79540    0.75030    1.000
    H14      H        0.28780    0.80870    0.79130    1.000
    C34      C        0.33900    0.83500    0.71040    1.000
    H15      H        0.33760    0.87550    0.72080    1.000
    C35      C        0.34100    0.65780    0.65620    1.000
    F22      F        0.20640    0.82680    0.79710    1.000
    F23      F        0.28140    0.88390    0.82660    1.000
    F24      F        0.27130    0.79610    0.87830    1.000
    H16      H        0.34650    0.67780    0.67310    1.000
    C36      C        0.27070    0.82060    0.80640    1.000
    F25      F        0.64230    0.37300    0.91030    1.000
    F26      F        0.60910    0.36320    0.80040    1.000
    F27      F        0.63130    0.28370    0.86450    1.000
    O9       O        0.84190    0.44160    0.93000    1.000
    O10      O        0.91310    0.39440    0.86960    1.000
    C37      C        0.86000    0.40480    0.88480    1.000
    C38      C        0.81510    0.37190    0.84350    1.000
    C39      C        0.75810    0.37660    0.85760    1.000
    H17      H        0.74460    0.40230    0.89330    1.000
    C40      C        0.71840    0.34250    0.81830    1.000
    C41      C        0.73700    0.30350    0.76790    1.000
    C42      C        0.79540    0.30740    0.74970    1.000
    H18      H        0.80870    0.28780    0.70870    1.000
    C43      C        0.83500    0.33900    0.78960    1.000
    H19      H        0.87550    0.33760    0.77920    1.000
    C44      C        0.65780    0.34100    0.84380    1.000
    F28      F        0.82680    0.20640    0.70290    1.000
    F29      F        0.88390    0.28140    0.67340    1.000
    F30      F        0.79610    0.27130    0.62170    1.000
    H20      H        0.67780    0.34650    0.82690    1.000
    C45      C        0.82060    0.27070    0.69360    1.000
    F31      F        0.35770    0.62700    0.91030    1.000
    F32      F        0.39090    0.63680    0.80040    1.000
    F33      F        0.36870    0.71630    0.86450    1.000
    O11      O        0.15810    0.55840    0.93000    1.000
    O12      O        0.08690    0.60560    0.86960    1.000
    C46      C        0.14000    0.59520    0.88480    1.000
    C47      C        0.18490    0.62810    0.84350    1.000
    C48      C        0.24190    0.62340    0.85760    1.000
    H21      H        0.25540    0.59770    0.89330    1.000
    C49      C        0.28160    0.65750    0.81830    1.000
    C50      C        0.26300    0.69650    0.76790    1.000
    C51      C        0.20460    0.69260    0.74970    1.000
    H22      H        0.19130    0.71220    0.70870    1.000
    C52      C        0.16500    0.66100    0.78960    1.000
    H23      H        0.12450    0.66240    0.77920    1.000
    C53      C        0.34220    0.65900    0.84380    1.000
    F34      F        0.17320    0.79360    0.70290    1.000
    F35      F        0.11610    0.71860    0.67340    1.000
    F36      F        0.20390    0.72870    0.62170    1.000
    H24      H        0.32220    0.65350    0.82690    1.000
    C54      C        0.17940    0.72930    0.69360    1.000
    F37      F        0.37300    0.35770    0.41030    1.000
    F38      F        0.36320    0.39090    0.30040    1.000
    F39      F        0.28370    0.36870    0.36450    1.000
    O13      O        0.44160    0.15810    0.43000    1.000
    O14      O        0.39440    0.08690    0.36960    1.000
    C55      C        0.40480    0.14000    0.38480    1.000
    C56      C        0.37190    0.18490    0.34350    1.000
    C57      C        0.37660    0.24190    0.35760    1.000
    H25      H        0.40230    0.25540    0.39330    1.000
    C58      C        0.34250    0.28160    0.31830    1.000
    C59      C        0.30350    0.26300    0.26790    1.000
    C60      C        0.30740    0.20460    0.24970    1.000
    H26      H        0.28780    0.19130    0.20870    1.000
    C61      C        0.33900    0.16500    0.28960    1.000
    H27      H        0.33760    0.12450    0.27920    1.000
    C62      C        0.34100    0.34220    0.34380    1.000
    F40      F        0.20640    0.17320    0.20290    1.000
    F41      F        0.28140    0.11610    0.17340    1.000
    F42      F        0.27130    0.20390    0.12170    1.000
    H28      H        0.34650    0.32220    0.32690    1.000
    C63      C        0.27070    0.17940    0.19360    1.000
    F43      F        0.62700    0.64230    0.41030    1.000
    F44      F        0.63680    0.60910    0.30040    1.000
    F45      F        0.71630    0.63130    0.36450    1.000
    O15      O        0.55840    0.84190    0.43000    1.000
    O16      O        0.60560    0.91310    0.36960    1.000
    C64      C        0.59520    0.86000    0.38480    1.000
    C65      C        0.62810    0.81510    0.34350    1.000
    C66      C        0.62340    0.75810    0.35760    1.000
    H29      H        0.59770    0.74460    0.39330    1.000
    C67      C        0.65750    0.71840    0.31830    1.000
    C68      C        0.69650    0.73700    0.26790    1.000
    C69      C        0.69260    0.79540    0.24970    1.000
    H30      H        0.71220    0.80870    0.20870    1.000
    C70      C        0.66100    0.83500    0.28960    1.000
    H31      H        0.66240    0.87550    0.27920    1.000
    C71      C        0.65900    0.65780    0.34380    1.000
    F46      F        0.79360    0.82680    0.20290    1.000
    F47      F        0.71860    0.88390    0.17340    1.000
    F48      F        0.72870    0.79610    0.12170    1.000
    H32      H        0.65350    0.67780    0.32690    1.000
    C72      C        0.72930    0.82060    0.19360    1.000
    F49      F        0.64230    0.62700    0.91030    1.000
    F50      F        0.60910    0.63680    0.80040    1.000
    F51      F        0.63130    0.71630    0.86450    1.000
    O17      O        0.84190    0.55840    0.93000    1.000
    O18      O        0.91310    0.60560    0.86960    1.000
    C73      C        0.86000    0.59520    0.88480    1.000
    C74      C        0.81510    0.62810    0.84350    1.000
    C75      C        0.75810    0.62340    0.85760    1.000
    H33      H        0.74460    0.59770    0.89330    1.000
    C76      C        0.71840    0.65750    0.81830    1.000
    C77      C        0.73700    0.69650    0.76790    1.000
    C78      C        0.79540    0.69260    0.74970    1.000
    H34      H        0.80870    0.71220    0.70870    1.000
    C79      C        0.83500    0.66100    0.78960    1.000
    H35      H        0.87550    0.66240    0.77920    1.000
    C80      C        0.65780    0.65900    0.84380    1.000
    F52      F        0.82680    0.79360    0.70290    1.000
    F53      F        0.88390    0.71860    0.67340    1.000
    F54      F        0.79610    0.72870    0.62170    1.000
    H36      H        0.67780    0.65350    0.82690    1.000
    C81      C        0.82060    0.72930    0.69360    1.000
    F55      F        0.35770    0.37300    0.91030    1.000
    F56      F        0.39090    0.36320    0.80040    1.000
    F57      F        0.36870    0.28370    0.86450    1.000
    O19      O        0.15810    0.44160    0.93000    1.000
    O20      O        0.08690    0.39440    0.86960    1.000
    C82      C        0.14000    0.40480    0.88480    1.000
    C83      C        0.18490    0.37190    0.84350    1.000
    C84      C        0.24190    0.37660    0.85760    1.000
    H37      H        0.25540    0.40230    0.89330    1.000
    C85      C        0.28160    0.34250    0.81830    1.000
    C86      C        0.26300    0.30350    0.76790    1.000
    C87      C        0.20460    0.30740    0.74970    1.000
    H38      H        0.19130    0.28780    0.70870    1.000
    C88      C        0.16500    0.33900    0.78960    1.000
    H39      H        0.12450    0.33760    0.77920    1.000
    C89      C        0.34220    0.34100    0.84380    1.000
    F58      F        0.17320    0.20640    0.70290    1.000
    F59      F        0.11610    0.28140    0.67340    1.000
    F60      F        0.20390    0.27130    0.62170    1.000
    H40      H        0.32220    0.34650    0.82690    1.000
    C90      C        0.17940    0.27070    0.69360    1.000
    F61      F        0.37300    0.64230    0.41030    1.000
    F62      F        0.36320    0.60910    0.30040    1.000
    F63      F        0.28370    0.63130    0.36450    1.000
    O21      O        0.44160    0.84190    0.43000    1.000
    O22      O        0.39440    0.91310    0.36960    1.000
    C91      C        0.40480    0.86000    0.38480    1.000
    C92      C        0.37190    0.81510    0.34350    1.000
    C93      C        0.37660    0.75810    0.35760    1.000
    H41      H        0.40230    0.74460    0.39330    1.000
    C94      C        0.34250    0.71840    0.31830    1.000
    C95      C        0.30350    0.73700    0.26790    1.000
    C96      C        0.30740    0.79540    0.24970    1.000
    H42      H        0.28780    0.80870    0.20870    1.000
    C97      C        0.33900    0.83500    0.28960    1.000
    H43      H        0.33760    0.87550    0.27920    1.000
    C98      C        0.34100    0.65780    0.34380    1.000
    F64      F        0.20640    0.82680    0.20290    1.000
    F65      F        0.28140    0.88390    0.17340    1.000
    F66      F        0.27130    0.79610    0.12170    1.000
    H44      H        0.34650    0.67780    0.32690    1.000
    C99      C        0.27070    0.82060    0.19360    1.000
    F67      F        0.62700    0.35770    0.41030    1.000
    F68      F        0.63680    0.39090    0.30040    1.000
    F69      F        0.71630    0.36870    0.36450    1.000
    O23      O        0.55840    0.15810    0.43000    1.000
    O24      O        0.60560    0.08690    0.36960    1.000
    C100     C        0.59520    0.14000    0.38480    1.000
    C101     C        0.62810    0.18490    0.34350    1.000
    C102     C        0.62340    0.24190    0.35760    1.000
    H45      H        0.59770    0.25540    0.39330    1.000
    C103     C        0.65750    0.28160    0.31830    1.000
    C104     C        0.69650    0.26300    0.26790    1.000
    C105     C        0.69260    0.20460    0.24970    1.000
    H46      H        0.71220    0.19130    0.20870    1.000
    C106     C        0.66100    0.16500    0.28960    1.000
    H47      H        0.66240    0.12450    0.27920    1.000
    C107     C        0.65900    0.34220    0.34380    1.000
    F70      F        0.79360    0.17320    0.20290    1.000
    F71      F        0.71860    0.11610    0.17340    1.000
    F72      F        0.72870    0.20390    0.12170    1.000
    H48      H        0.65350    0.32220    0.32690    1.000
    C108     C        0.72930    0.17940    0.19360    1.000
    F73      F        0.35770    0.62700    0.08970    1.000
    F74      F        0.39090    0.63680    0.19960    1.000
    F75      F        0.36870    0.71630    0.13550    1.000
    O25      O        0.15810    0.55840    0.07000    1.000
    O26      O        0.08690    0.60560    0.13040    1.000
    C109     C        0.14000    0.59520    0.11520    1.000
    C110     C        0.18490    0.62810    0.15650    1.000
    C111     C        0.24190    0.62340    0.14240    1.000
    H49      H        0.25540    0.59770    0.10670    1.000
    C112     C        0.28160    0.65750    0.18170    1.000
    C113     C        0.26300    0.69650    0.23210    1.000
    C114     C        0.20460    0.69260    0.25030    1.000
    H50      H        0.19130    0.71220    0.29130    1.000
    C115     C        0.16500    0.66100    0.21040    1.000
    H51      H        0.12450    0.66240    0.22080    1.000
    C116     C        0.34220    0.65900    0.15620    1.000
    F76      F        0.17320    0.79360    0.29710    1.000
    F77      F        0.11610    0.71860    0.32660    1.000
    F78      F        0.20390    0.72870    0.37830    1.000
    H52      H        0.32220    0.65350    0.17310    1.000
    C117     C        0.17940    0.72930    0.30640    1.000
    F79      F        0.64230    0.37300    0.08970    1.000
    F80      F        0.60910    0.36320    0.19960    1.000
    F81      F        0.63130    0.28370    0.13550    1.000
    O27      O        0.84190    0.44160    0.07000    1.000
    O28      O        0.91310    0.39440    0.13040    1.000
    C118     C        0.86000    0.40480    0.11520    1.000
    C119     C        0.81510    0.37190    0.15650    1.000
    C120     C        0.75810    0.37660    0.14240    1.000
    H53      H        0.74460    0.40230    0.10670    1.000
    C121     C        0.71840    0.34250    0.18170    1.000
    C122     C        0.73700    0.30350    0.23210    1.000
    C123     C        0.79540    0.30740    0.25030    1.000
    H54      H        0.80870    0.28780    0.29130    1.000
    C124     C        0.83500    0.33900    0.21040    1.000
    H55      H        0.87550    0.33760    0.22080    1.000
    C125     C        0.65780    0.34100    0.15620    1.000
    F82      F        0.82680    0.20640    0.29710    1.000
    F83      F        0.88390    0.28140    0.32660    1.000
    F84      F        0.79610    0.27130    0.37830    1.000
    H56      H        0.67780    0.34650    0.17310    1.000
    C126     C        0.82060    0.27070    0.30640    1.000
    F85      F        0.62700    0.64230    0.58970    1.000
    F86      F        0.63680    0.60910    0.69960    1.000
    F87      F        0.71630    0.63130    0.63550    1.000
    O29      O        0.55840    0.84190    0.57000    1.000
    O30      O        0.60560    0.91310    0.63040    1.000
    C127     C        0.59520    0.86000    0.61520    1.000
    C128     C        0.62810    0.81510    0.65650    1.000
    C129     C        0.62340    0.75810    0.64240    1.000
    H57      H        0.59770    0.74460    0.60670    1.000
    C130     C        0.65750    0.71840    0.68170    1.000
    C131     C        0.69650    0.73700    0.73210    1.000
    C132     C        0.69260    0.79540    0.75030    1.000
    H58      H        0.71220    0.80870    0.79130    1.000
    C133     C        0.66100    0.83500    0.71040    1.000
    H59      H        0.66240    0.87550    0.72080    1.000
    C134     C        0.65900    0.65780    0.65620    1.000
    F88      F        0.79360    0.82680    0.79710    1.000
    F89      F        0.71860    0.88390    0.82660    1.000
    F90      F        0.72870    0.79610    0.87830    1.000
    H60      H        0.65350    0.67780    0.67310    1.000
    C135     C        0.72930    0.82060    0.80640    1.000
    F91      F        0.37300    0.35770    0.58970    1.000
    F92      F        0.36320    0.39090    0.69960    1.000
    F93      F        0.28370    0.36870    0.63550    1.000
    O31      O        0.44160    0.15810    0.57000    1.000
    O32      O        0.39440    0.08690    0.63040    1.000
    C136     C        0.40480    0.14000    0.61520    1.000
    C137     C        0.37190    0.18490    0.65650    1.000
    C138     C        0.37660    0.24190    0.64240    1.000
    H61      H        0.40230    0.25540    0.60670    1.000
    C139     C        0.34250    0.28160    0.68170    1.000
    C140     C        0.30350    0.26300    0.73210    1.000
    C141     C        0.30740    0.20460    0.75030    1.000
    H62      H        0.28780    0.19130    0.79130    1.000
    C142     C        0.33900    0.16500    0.71040    1.000
    H63      H        0.33760    0.12450    0.72080    1.000
    C143     C        0.34100    0.34220    0.65620    1.000
    F94      F        0.20640    0.17320    0.79710    1.000
    F95      F        0.28140    0.11610    0.82660    1.000
    F96      F        0.27130    0.20390    0.87830    1.000
    H64      H        0.34650    0.32220    0.67310    1.000
    C144     C        0.27070    0.17940    0.80640    1.000
    Zr1      Zr       0.00000    0.42394    0.09283    1.000
    O33      O        0.00000    0.44410    0.20790    1.000
    O34      O        0.00000    0.39690    0.45880    1.000
    C145     C        0.00000    0.44739    0.34920    1.000
    H65      H        0.00000    0.41150    0.32420    1.000
    C146     C        0.00000    0.44744    0.42230    1.000
    H66      H        0.00000    0.36250    0.44350    1.000
    H67      H        0.00000    0.41140    0.44700    1.000
    Zr2      Zr       0.00000    0.57606    0.09283    1.000
    O35      O        0.00000    0.55590    0.20790    1.000
    O36      O        0.00000    0.60310    0.45880    1.000
    C147     C        0.00000    0.55261    0.34920    1.000
    H68      H        0.00000    0.58850    0.32420    1.000
    C148     C        0.00000    0.55256    0.42230    1.000
    H69      H        0.00000    0.63750    0.44350    1.000
    H70      H        0.00000    0.58860    0.44700    1.000
    Zr3      Zr       0.57606    0.00000    0.59283    1.000
    O37      O        0.55590    0.00000    0.70790    1.000
    O38      O        0.60310    0.00000    0.95880    1.000
    C149     C        0.55261    0.00000    0.84920    1.000
    H71      H        0.58850    0.00000    0.82420    1.000
    C150     C        0.55256    0.00000    0.92230    1.000
    H72      H        0.63750    0.00000    0.94350    1.000
    H73      H        0.58860    0.00000    0.94700    1.000
    Zr4      Zr       0.42394    0.00000    0.59283    1.000
    O39      O        0.44410    0.00000    0.70790    1.000
    O40      O        0.39690    0.00000    0.95880    1.000
    C151     C        0.44739    0.00000    0.84920    1.000
    H74      H        0.41150    0.00000    0.82420    1.000
    C152     C        0.44744    0.00000    0.92230    1.000
    H75      H        0.36250    0.00000    0.94350    1.000
    H76      H        0.41140    0.00000    0.94700    1.000
    Zr5      Zr       0.00000    0.42394    0.90717    1.000
    O41      O        0.00000    0.44410    0.79210    1.000
    O42      O        0.00000    0.39690    0.54120    1.000
    C153     C        0.00000    0.44739    0.65080    1.000
    H77      H        0.00000    0.41150    0.67580    1.000
    C154     C        0.00000    0.44744    0.57770    1.000
    H78      H        0.00000    0.36250    0.55650    1.000
    H79      H        0.00000    0.41140    0.55300    1.000
    Zr6      Zr       0.00000    0.57606    0.90717    1.000
    O43      O        0.00000    0.55590    0.79210    1.000
    O44      O        0.00000    0.60310    0.54120    1.000
    C155     C        0.00000    0.55261    0.65080    1.000
    H80      H        0.00000    0.58850    0.67580    1.000
    C156     C        0.00000    0.55256    0.57770    1.000
    H81      H        0.00000    0.63750    0.55650    1.000
    H82      H        0.00000    0.58860    0.55300    1.000
    Zr7      Zr       0.42394    0.00000    0.40717    1.000
    O45      O        0.44410    0.00000    0.29210    1.000
    O46      O        0.39690    0.00000    0.04120    1.000
    C157     C        0.44739    0.00000    0.15080    1.000
    H83      H        0.41150    0.00000    0.17580    1.000
    C158     C        0.44744    0.00000    0.07770    1.000
    H84      H        0.36250    0.00000    0.05650    1.000
    H85      H        0.41140    0.00000    0.05300    1.000
    Zr8      Zr       0.57606    0.00000    0.40717    1.000
    O47      O        0.55590    0.00000    0.29210    1.000
    O48      O        0.60310    0.00000    0.04120    1.000
    C159     C        0.55261    0.00000    0.15080    1.000
    H86      H        0.58850    0.00000    0.17580    1.000
    C160     C        0.55256    0.00000    0.07770    1.000
    H87      H        0.63750    0.00000    0.05650    1.000
    H88      H        0.58860    0.00000    0.05300    1.000
    Zr9      Zr       0.10788    0.50000    0.00000    1.000
    Zr10     Zr       0.89212    0.50000    0.00000    1.000
    Zr11     Zr       0.50000    0.10788    0.50000    1.000
    Zr12     Zr       0.50000    0.89212    0.50000    1.000
    O49      O        0.05410    0.42120    0.00000    1.000
    O50      O        0.94590    0.57880    0.00000    1.000
    O51      O        0.57880    0.05410    0.50000    1.000
    O52      O        0.42120    0.94590    0.50000    1.000
    O53      O        0.94590    0.42120    0.00000    1.000
    O54      O        0.05410    0.57880    0.00000    1.000
    O55      O        0.42120    0.05410    0.50000    1.000
    O56      O        0.57880    0.94590    0.50000    1.000
    O57      O        0.94830    0.50000    0.09050    1.000
    O58      O        0.05170    0.50000    0.09050    1.000
    O59      O        0.50000    0.94830    0.59050    1.000
    O60      O        0.50000    0.05170    0.59050    1.000
    O61      O        0.05170    0.50000    0.90950    1.000
    O62      O        0.94830    0.50000    0.90950    1.000
    O63      O        0.50000    0.94830    0.40950    1.000
    O64      O        0.50000    0.05170    0.40950    1.000
    C161     C        0.00000    0.50000    0.23300    1.000
    C162     C        0.00000    0.50000    0.31260    1.000
    C163     C        0.00000    0.50000    0.45990    1.000
    C164     C        0.50000    0.00000    0.73300    1.000
    C165     C        0.50000    0.00000    0.81260    1.000
    C166     C        0.50000    0.00000    0.95990    1.000
    C167     C        0.00000    0.50000    0.76700    1.000
    C168     C        0.00000    0.50000    0.68740    1.000
    C169     C        0.00000    0.50000    0.54010    1.000
    C170     C        0.50000    0.00000    0.26700    1.000
    C171     C        0.50000    0.00000    0.18740    1.000
    C172     C        0.50000    0.00000    0.04010    1.000
