# CIF file generated by openbabel 3.1.0, see https://openbabel.org
data_I
_chemical_name_common 'AVELOD_clean'
_cell_length_a 13.7561
_cell_length_b 13.7561
_cell_length_c 25.5306
_cell_angle_alpha 90
_cell_angle_beta 90
_cell_angle_gamma 90
_space_group_name_H-M_alt 'P 1'
_space_group_name_Hall 'P 1'
loop_
    _symmetry_equiv_pos_as_xyz
    x,y,z
loop_
    _atom_site_label
    _atom_site_type_symbol
    _atom_site_fract_x
    _atom_site_fract_y
    _atom_site_fract_z
    _atom_site_occupancy
    Cu1      Cu       0.90661    0.75074    0.52373    1.000
    Cu2      Cu       0.09339    0.24926    0.52373    1.000
    Cu3      Cu       0.25074    0.40661    0.97627    1.000
    Cu4      Cu       0.74926    0.59339    0.97627    1.000
    H1       H        0.80290    0.79730    0.44290    1.000
    H2       H        0.95390    0.74340    0.40030    1.000
    H3       H        0.91910    0.94370    0.39460    1.000
    H4       H        0.98230    0.88380    0.35500    1.000
    H5       H        0.86980    0.86660    0.35800    1.000
    H6       H        0.87860    0.75570    0.63790    1.000
    H7       H        0.94260    0.69320    0.71340    1.000
    H8       H        0.14850    0.56730    0.62730    1.000
    H9       H        0.07470    0.63270    0.55270    1.000
    H10      H        0.15400    0.53850    0.72000    1.000
    H11      H        0.69740    0.80020    0.54140    1.000
    H12      H        0.55500    0.73340    0.55420    1.000
    H13      H        0.69190    0.47320    0.56180    1.000
    H14      H        0.83510    0.55720    0.54710    1.000
    H15      H        0.45330    0.58610    0.57110    1.000
    H16      H        0.19710    0.20270    0.44290    1.000
    H17      H        0.04610    0.25660    0.40030    1.000
    H18      H        0.08090    0.05630    0.39460    1.000
    H19      H        0.01770    0.11620    0.35500    1.000
    H20      H        0.13020    0.13340    0.35800    1.000
    H21      H        0.12140    0.24430    0.63790    1.000
    H22      H        0.05740    0.30680    0.71340    1.000
    H23      H        0.85150    0.43270    0.62730    1.000
    H24      H        0.92530    0.36730    0.55270    1.000
    H25      H        0.84600    0.46150    0.72000    1.000
    H26      H        0.30260    0.19980    0.54140    1.000
    H27      H        0.44500    0.26660    0.55420    1.000
    H28      H        0.30810    0.52680    0.56180    1.000
    H29      H        0.16490    0.44280    0.54710    1.000
    H30      H        0.54670    0.41390    0.57110    1.000
    H31      H        0.29730    0.30290    0.05710    1.000
    H32      H        0.24340    0.45390    0.09970    1.000
    H33      H        0.44370    0.41910    0.10540    1.000
    H34      H        0.38380    0.48230    0.14500    1.000
    H35      H        0.36660    0.36980    0.14200    1.000
    H36      H        0.25570    0.37860    0.86210    1.000
    H37      H        0.19320    0.44260    0.78660    1.000
    H38      H        0.06730    0.64850    0.87270    1.000
    H39      H        0.13270    0.57470    0.94730    1.000
    H40      H        0.03850    0.65400    0.78000    1.000
    H41      H        0.30020    0.19740    0.95860    1.000
    H42      H        0.23340    0.05500    0.94580    1.000
    H43      H        0.97320    0.19190    0.93820    1.000
    H44      H        0.05720    0.33510    0.95290    1.000
    H45      H        0.08610    0.95330    0.92890    1.000
    H46      H        0.70270    0.69710    0.05710    1.000
    H47      H        0.75660    0.54610    0.09970    1.000
    H48      H        0.55630    0.58090    0.10540    1.000
    H49      H        0.61620    0.51770    0.14500    1.000
    H50      H        0.63340    0.63020    0.14200    1.000
    H51      H        0.74430    0.62140    0.86210    1.000
    H52      H        0.80680    0.55740    0.78660    1.000
    H53      H        0.93270    0.35150    0.87270    1.000
    H54      H        0.86730    0.42530    0.94730    1.000
    H55      H        0.96150    0.34600    0.78000    1.000
    H56      H        0.69980    0.80260    0.95860    1.000
    H57      H        0.76660    0.94500    0.94580    1.000
    H58      H        0.02680    0.80810    0.93820    1.000
    H59      H        0.94280    0.66490    0.95290    1.000
    H60      H        0.91390    0.04670    0.92890    1.000
    C1       C        0.03950    0.82890    0.45130    1.000
    C2       C        0.94250    0.80480    0.41880    1.000
    C3       C        0.92700    0.88160    0.37790    1.000
    C4       C        0.93340    0.71630    0.63570    1.000
    C5       C        0.97200    0.68010    0.68140    1.000
    C6       C        0.05680    0.62270    0.67900    1.000
    C7       C        0.09310    0.60550    0.63090    1.000
    C8       C        0.04800    0.64500    0.58560    1.000
    C9       C        0.10420    0.58300    0.72550    1.000
    C10      C        0.69580    0.73300    0.54490    1.000
    C11      C        0.61030    0.69450    0.55340    1.000
    C12      C        0.60310    0.59430    0.56150    1.000
    C13      C        0.69140    0.54040    0.55790    1.000
    C14      C        0.77710    0.59190    0.54820    1.000
    C15      C        0.50740    0.54620    0.56720    1.000
    C16      C        0.96050    0.17110    0.45130    1.000
    C17      C        0.05750    0.19520    0.41880    1.000
    C18      C        0.07300    0.11840    0.37790    1.000
    C19      C        0.06660    0.28370    0.63570    1.000
    C20      C        0.02800    0.31990    0.68140    1.000
    C21      C        0.94320    0.37730    0.67900    1.000
    C22      C        0.90690    0.39450    0.63090    1.000
    C23      C        0.95200    0.35500    0.58560    1.000
    C24      C        0.89580    0.41700    0.72550    1.000
    C25      C        0.30420    0.26700    0.54490    1.000
    C26      C        0.38970    0.30550    0.55340    1.000
    C27      C        0.39690    0.40570    0.56150    1.000
    C28      C        0.30860    0.45960    0.55790    1.000
    C29      C        0.22290    0.40810    0.54820    1.000
    C30      C        0.49260    0.45380    0.56720    1.000
    C31      C        0.32890    0.53950    0.04870    1.000
    C32      C        0.30480    0.44250    0.08120    1.000
    C33      C        0.38160    0.42700    0.12210    1.000
    C34      C        0.21630    0.43340    0.86430    1.000
    C35      C        0.18010    0.47200    0.81860    1.000
    C36      C        0.12270    0.55680    0.82100    1.000
    C37      C        0.10550    0.59310    0.86910    1.000
    C38      C        0.14500    0.54800    0.91440    1.000
    C39      C        0.08300    0.60420    0.77450    1.000
    C40      C        0.23300    0.19580    0.95510    1.000
    C41      C        0.19450    0.11030    0.94660    1.000
    C42      C        0.09430    0.10310    0.93850    1.000
    C43      C        0.04040    0.19140    0.94210    1.000
    C44      C        0.09190    0.27710    0.95180    1.000
    C45      C        0.04620    0.00740    0.93280    1.000
    C46      C        0.67110    0.46050    0.04870    1.000
    C47      C        0.69520    0.55750    0.08120    1.000
    C48      C        0.61840    0.57300    0.12210    1.000
    C49      C        0.78370    0.56660    0.86430    1.000
    C50      C        0.81990    0.52800    0.81860    1.000
    C51      C        0.87730    0.44320    0.82100    1.000
    C52      C        0.89450    0.40690    0.86910    1.000
    C53      C        0.85500    0.45200    0.91440    1.000
    C54      C        0.91700    0.39580    0.77450    1.000
    C55      C        0.76700    0.80420    0.95510    1.000
    C56      C        0.80550    0.88970    0.94660    1.000
    C57      C        0.90570    0.89690    0.93850    1.000
    C58      C        0.95960    0.80860    0.94210    1.000
    C59      C        0.90810    0.72290    0.95180    1.000
    C60      C        0.95380    0.99260    0.93280    1.000
    N1       N        0.96960    0.69840    0.58920    1.000
    N2       N        0.78090    0.68730    0.54050    1.000
    N3       N        0.86260    0.79020    0.45200    1.000
    N4       N        0.03040    0.30160    0.58920    1.000
    N5       N        0.21910    0.31270    0.54050    1.000
    N6       N        0.13740    0.20980    0.45200    1.000
    N7       N        0.19840    0.46960    0.91080    1.000
    N8       N        0.18730    0.28090    0.95950    1.000
    N9       N        0.29020    0.36260    0.04800    1.000
    N10      N        0.80160    0.53040    0.91080    1.000
    N11      N        0.81270    0.71910    0.95950    1.000
    N12      N        0.70980    0.63740    0.04800    1.000
    O1       O        0.03030    0.79830    0.49930    1.000
    O2       O        0.10940    0.86390    0.43180    1.000
    O3       O        0.96970    0.20170    0.49930    1.000
    O4       O        0.89060    0.13610    0.43180    1.000
    O5       O        0.29830    0.53030    0.00070    1.000
    O6       O        0.36390    0.60940    0.06820    1.000
    O7       O        0.70170    0.46970    0.00070    1.000
    O8       O        0.63610    0.39060    0.06820    1.000
    Cu5      Cu       0.75074    0.09339    0.47627    1.000
    Cu6      Cu       0.24926    0.90661    0.47627    1.000
    Cu7      Cu       0.40661    0.74926    0.02373    1.000
    Cu8      Cu       0.59339    0.25074    0.02373    1.000
    H61      H        0.79730    0.19710    0.55710    1.000
    H62      H        0.74340    0.04610    0.59970    1.000
    H63      H        0.94370    0.08090    0.60540    1.000
    H64      H        0.88380    0.01770    0.64500    1.000
    H65      H        0.86660    0.13020    0.64200    1.000
    H66      H        0.75570    0.12140    0.36210    1.000
    H67      H        0.69320    0.05740    0.28660    1.000
    H68      H        0.56730    0.85150    0.37270    1.000
    H69      H        0.63270    0.92530    0.44730    1.000
    H70      H        0.53850    0.84600    0.28000    1.000
    H71      H        0.80020    0.30260    0.45860    1.000
    H72      H        0.73340    0.44500    0.44580    1.000
    H73      H        0.47320    0.30810    0.43820    1.000
    H74      H        0.55720    0.16490    0.45290    1.000
    H75      H        0.58610    0.54670    0.42890    1.000
    H76      H        0.20270    0.80290    0.55710    1.000
    H77      H        0.25660    0.95390    0.59970    1.000
    H78      H        0.05630    0.91910    0.60540    1.000
    H79      H        0.11620    0.98230    0.64500    1.000
    H80      H        0.13340    0.86980    0.64200    1.000
    H81      H        0.24430    0.87860    0.36210    1.000
    H82      H        0.30680    0.94260    0.28660    1.000
    H83      H        0.43270    0.14850    0.37270    1.000
    H84      H        0.36730    0.07470    0.44730    1.000
    H85      H        0.46150    0.15400    0.28000    1.000
    H86      H        0.19980    0.69740    0.45860    1.000
    H87      H        0.26660    0.55500    0.44580    1.000
    H88      H        0.52680    0.69190    0.43820    1.000
    H89      H        0.44280    0.83510    0.45290    1.000
    H90      H        0.41390    0.45330    0.42890    1.000
    H91      H        0.30290    0.70270    0.94290    1.000
    H92      H        0.45390    0.75660    0.90030    1.000
    H93      H        0.41910    0.55630    0.89460    1.000
    H94      H        0.48230    0.61620    0.85500    1.000
    H95      H        0.36980    0.63340    0.85800    1.000
    H96      H        0.37860    0.74430    0.13790    1.000
    H97      H        0.44260    0.80680    0.21340    1.000
    H98      H        0.64850    0.93270    0.12730    1.000
    H99      H        0.57470    0.86730    0.05270    1.000
    H100     H        0.65400    0.96150    0.22000    1.000
    H101     H        0.19740    0.69980    0.04140    1.000
    H102     H        0.05500    0.76660    0.05420    1.000
    H103     H        0.19190    0.02680    0.06180    1.000
    H104     H        0.33510    0.94280    0.04710    1.000
    H105     H        0.95330    0.91390    0.07110    1.000
    H106     H        0.69710    0.29730    0.94290    1.000
    H107     H        0.54610    0.24340    0.90030    1.000
    H108     H        0.58090    0.44370    0.89460    1.000
    H109     H        0.51770    0.38380    0.85500    1.000
    H110     H        0.63020    0.36660    0.85800    1.000
    H111     H        0.62140    0.25570    0.13790    1.000
    H112     H        0.55740    0.19320    0.21340    1.000
    H113     H        0.35150    0.06730    0.12730    1.000
    H114     H        0.42530    0.13270    0.05270    1.000
    H115     H        0.34600    0.03850    0.22000    1.000
    H116     H        0.80260    0.30020    0.04140    1.000
    H117     H        0.94500    0.23340    0.05420    1.000
    H118     H        0.80810    0.97320    0.06180    1.000
    H119     H        0.66490    0.05720    0.04710    1.000
    H120     H        0.04670    0.08610    0.07110    1.000
    C61      C        0.82890    0.96050    0.54870    1.000
    C62      C        0.80480    0.05750    0.58120    1.000
    C63      C        0.88160    0.07300    0.62210    1.000
    C64      C        0.71630    0.06660    0.36430    1.000
    C65      C        0.68010    0.02800    0.31860    1.000
    C66      C        0.62270    0.94320    0.32100    1.000
    C67      C        0.60550    0.90690    0.36910    1.000
    C68      C        0.64500    0.95200    0.41440    1.000
    C69      C        0.58300    0.89580    0.27450    1.000
    C70      C        0.73300    0.30420    0.45510    1.000
    C71      C        0.69450    0.38970    0.44660    1.000
    C72      C        0.59430    0.39690    0.43850    1.000
    C73      C        0.54040    0.30860    0.44210    1.000
    C74      C        0.59190    0.22290    0.45180    1.000
    C75      C        0.54620    0.49260    0.43280    1.000
    C76      C        0.17110    0.03950    0.54870    1.000
    C77      C        0.19520    0.94250    0.58120    1.000
    C78      C        0.11840    0.92700    0.62210    1.000
    C79      C        0.28370    0.93340    0.36430    1.000
    C80      C        0.31990    0.97200    0.31860    1.000
    C81      C        0.37730    0.05680    0.32100    1.000
    C82      C        0.39450    0.09310    0.36910    1.000
    C83      C        0.35500    0.04800    0.41440    1.000
    C84      C        0.41700    0.10420    0.27450    1.000
    C85      C        0.26700    0.69580    0.45510    1.000
    C86      C        0.30550    0.61030    0.44660    1.000
    C87      C        0.40570    0.60310    0.43850    1.000
    C88      C        0.45960    0.69140    0.44210    1.000
    C89      C        0.40810    0.77710    0.45180    1.000
    C90      C        0.45380    0.50740    0.43280    1.000
    C91      C        0.53950    0.67110    0.95130    1.000
    C92      C        0.44250    0.69520    0.91880    1.000
    C93      C        0.42700    0.61840    0.87790    1.000
    C94      C        0.43340    0.78370    0.13570    1.000
    C95      C        0.47200    0.81990    0.18140    1.000
    C96      C        0.55680    0.87730    0.17900    1.000
    C97      C        0.59310    0.89450    0.13090    1.000
    C98      C        0.54800    0.85500    0.08560    1.000
    C99      C        0.60420    0.91700    0.22550    1.000
    C100     C        0.19580    0.76700    0.04490    1.000
    C101     C        0.11030    0.80550    0.05340    1.000
    C102     C        0.10310    0.90570    0.06150    1.000
    C103     C        0.19140    0.95960    0.05790    1.000
    C104     C        0.27710    0.90810    0.04820    1.000
    C105     C        0.00740    0.95380    0.06720    1.000
    C106     C        0.46050    0.32890    0.95130    1.000
    C107     C        0.55750    0.30480    0.91880    1.000
    C108     C        0.57300    0.38160    0.87790    1.000
    C109     C        0.56660    0.21630    0.13570    1.000
    C110     C        0.52800    0.18010    0.18140    1.000
    C111     C        0.44320    0.12270    0.17900    1.000
    C112     C        0.40690    0.10550    0.13090    1.000
    C113     C        0.45200    0.14500    0.08560    1.000
    C114     C        0.39580    0.08300    0.22550    1.000
    C115     C        0.80420    0.23300    0.04490    1.000
    C116     C        0.88970    0.19450    0.05340    1.000
    C117     C        0.89690    0.09430    0.06150    1.000
    C118     C        0.80860    0.04040    0.05790    1.000
    C119     C        0.72290    0.09190    0.04820    1.000
    C120     C        0.99260    0.04620    0.06720    1.000
    N13      N        0.69840    0.03040    0.41080    1.000
    N14      N        0.68730    0.21910    0.45950    1.000
    N15      N        0.79020    0.13740    0.54800    1.000
    N16      N        0.30160    0.96960    0.41080    1.000
    N17      N        0.31270    0.78090    0.45950    1.000
    N18      N        0.20980    0.86260    0.54800    1.000
    N19      N        0.46960    0.80160    0.08920    1.000
    N20      N        0.28090    0.81270    0.04050    1.000
    N21      N        0.36260    0.70980    0.95200    1.000
    N22      N        0.53040    0.19840    0.08920    1.000
    N23      N        0.71910    0.18730    0.04050    1.000
    N24      N        0.63740    0.29020    0.95200    1.000
    O9       O        0.79830    0.96970    0.50070    1.000
    O10      O        0.86390    0.89060    0.56820    1.000
    O11      O        0.20170    0.03030    0.50070    1.000
    O12      O        0.13610    0.10940    0.56820    1.000
    O13      O        0.53030    0.70170    0.99930    1.000
    O14      O        0.60940    0.63610    0.93180    1.000
    O15      O        0.46970    0.29830    0.99930    1.000
    O16      O        0.39060    0.36390    0.93180    1.000
