data_functionalizedCrystal
_audit_creation_method	'EQeq! by Chris Wilmer'
_symmetry_space_group_name_H-M	'P1'
_symmetry_Int_Tables_number	1
_symmetry_cell_setting	triclinic
loop_
_symmetry_equiv_pos_as_xyz
  x,y,z
_cell_length_a	35.1845
_cell_length_b	14.8561
_cell_length_c	31.0855
_cell_angle_alpha	90
_cell_angle_beta	101.739
_cell_angle_gamma	90
loop_
_atom_site_label
_atom_site_type_symbol
_atom_site_fract_x
_atom_site_fract_y
_atom_site_fract_z
_atom_site_charge
Mof_Zn	Zn	0.626	0.4029	0.3114	0.533
Mof_I 	I 	0.6479	0.4158	0.239	-0.236
Mof_I 	I 	0.6039	0.2631	0.3523	-0.304
Mof_Zn	Zn	0.3263	0.64	0.4762	0.578
Mof_I 	I 	0.2644	0.7225	0.4481	-0.23
Mof_I 	I 	0.37644	0.6572	0.55327	-0.46
Mof_Zn	Zn	0.4203	0.8722	0.6561	0.539
Mof_I 	I 	0.4788	0.855	0.6206	-0.226
Mof_I 	I 	0.3809	0.7621	0.6933	-0.162
Mof_Zn	Zn	0.3273	0.3573	0.9749	0.539
Mof_I 	I 	0.27042	0.2608	0.95749	-0.031
Mof_I 	I 	0.3712	0.332	0.0506	-0.094
Mof_Zn	Zn	0.4161	0.1141	0.1577	0.646
Mof_I 	I 	0.47582	0.149	0.12021	-0.231
Mof_I 	I 	0.38422	0.2392	0.1931	-0.138
Mof_Zn	Zn	0.1258	0.0862	0.8079	0.609
Mof_I 	I 	0.1439	0.1004	0.7428	-0.014
Mof_I 	I 	0.105	0.2382	0.8564	-0.441
Mof_N 	N 	0.58	0.4869	0.3088	-0.276
Mof_N 	N 	0.431	0.0116	0.2015	-0.295
Mof_N 	N 	0.3608	0.6555	0.4289	-0.305
Mof_N 	N 	0.4764	0.7258	0.2781	-0.145
Mof_N 	N 	0.4247	0.7724	0.3111	-0.143
Mof_N 	N 	0.4615	0.643	0.3374	-0.118
Mof_N 	N 	0.3151	0.5023	0.4737	-0.29
Mof_N 	N 	0.1673	0.9633	0.3585	-0.267
Mof_N 	N 	0.3801	0.9403	0.6082	-0.282
Mof_N 	N 	0.2652	0.1849	0.4413	-0.142
Mof_N 	N 	0.2786	0.0456	0.4788	-0.139
Mof_N 	N 	0.3179	0.1724	0.5014	-0.137
Mof_N 	N 	0.4323	0.9783	0.7013	-0.257
Mof_N 	N 	0.579	0.5071	0.8093	-0.277
Mof_N 	N 	0.3603	0.3403	0.9307	-0.28
Mof_N 	N 	0.4762	0.2711	0.7775	-0.149
Mof_N 	N 	0.4609	0.355	0.8364	-0.137
Mof_N 	N 	0.4251	0.2233	0.8111	-0.137
Mof_N 	N 	0.3164	0.4927	0.9727	-0.267
Mof_N 	N 	0.3776	0.0525	0.1095	-0.273
Mof_N 	N 	0.1684	0.0276	0.8577	-0.29
Mof_N 	N 	0.3184	0.8201	0.0012	-0.133
Mof_N 	N 	0.2795	0.9495	0.9783	-0.139
Mof_N 	N 	0.2648	0.8103	0.9404	-0.141
Mof_C 	C 	0.5637	0.4964	0.3429	0.104
Mof_H 	H 	0.5723	0.4584	0.3667	-0.009
Mof_C 	C 	0.5349	0.5579	0.3467	-0.145
Mof_H 	H 	0.5284	0.5716	0.3735	0.126
Mof_C 	C 	0.5159	0.5986	0.3066	0.079
Mof_C 	C 	0.5322	0.5866	0.27	-0.162
Mof_H 	H 	0.5224	0.6164	0.2438	0.094
Mof_C 	C 	0.5631	0.5294	0.2739	0.118
Mof_H 	H 	0.573	0.5201	0.2487	-0.021
Mof_C 	C 	0.4607	0.9608	0.2028	0.119
Mof_H 	H 	0.4777	0.9738	0.1843	-0.029
Mof_C 	C 	0.4682	0.8874	0.2306	-0.171
Mof_H 	H 	0.4914	0.856	0.2331	0.091
Mof_C 	C 	0.4422	0.8617	0.2536	0.086
Mof_C 	C 	0.4113	0.9211	0.2516	-0.191
Mof_H 	H 	0.3931	0.9099	0.2689	0.085
Mof_C 	C 	0.4069	0.9934	0.2258	0.128
Mof_H 	H 	0.3858	0.0314	0.2255	-0.05
Mof_C 	C 	0.393	0.607	0.4274	0.165
Mof_H 	H 	0.3977	0.5569	0.4454	-0.037
Mof_C 	C 	0.4174	0.624	0.4036	-0.219
Mof_H 	H 	0.4416	0.5964	0.4089	0.144
Mof_C 	C 	0.4076	0.6846	0.3698	0.132
Mof_C 	C 	0.3749	0.7341	0.3661	-0.2
Mof_H 	H 	0.3668	0.7755	0.3437	0.102
Mof_C 	C 	0.3538	0.7163	0.4006	0.137
Mof_H 	H 	0.3329	0.7539	0.4018	-0.043
Mof_C 	C 	0.4816	0.6583	0.3071	0.09
Mof_C 	C 	0.4477	0.7824	0.2828	0.067
Mof_C 	C 	0.4316	0.7018	0.3374	0.072
Mof_C 	C 	0.3409	0.4447	0.4957	0.097
Mof_H 	H 	0.364	0.4679	0.5118	-0.045
Mof_C 	C 	0.3357	0.3545	0.4962	-0.178
Mof_H 	H 	0.3539	0.3171	0.5134	0.096
Mof_C 	C 	0.3015	0.3192	0.4694	0.097
Mof_C 	C 	0.2774	0.3759	0.4455	-0.182
Mof_H 	H 	0.2548	0.3552	0.4272	0.098
Mof_C 	C 	0.2863	0.4683	0.448	0.128
Mof_H 	H 	0.2697	0.5071	0.4295	-0.033
Mof_C 	C 	0.1735	0.0484	0.3541	0.075
Mof_H 	H 	0.1575	0.0796	0.3315	-0.007
Mof_C 	C 	0.2045	0.0976	0.3832	-0.134
Mof_H 	H 	0.2087	0.1585	0.3791	0.084
Mof_C 	C 	0.2265	0.0512	0.4159	0.053
Mof_C 	C 	0.219	0.9613	0.4226	-0.13
Mof_H 	H 	0.2342	0.9294	0.4455	0.095
Mof_C 	C 	0.1879	0.9193	0.3938	0.063
Mof_H 	H 	0.1815	0.8602	0.3991	-0
Mof_C 	C 	0.3518	0.9005	0.5828	0.091
Mof_H 	H 	0.3477	0.8398	0.5874	-0.027
Mof_C 	C 	0.3268	0.9443	0.5482	-0.165
Mof_H 	H 	0.3066	0.9134	0.5302	0.092
Mof_C 	C 	0.333	0.0346	0.5417	0.088
Mof_C 	C 	0.3641	0.0743	0.5676	-0.183
Mof_H 	H 	0.3713	0.1329	0.5623	0.106
Mof_C 	C 	0.3844	0.0259	0.6017	0.105
Mof_H 	H 	0.4029	0.0565	0.6221	-0.024
Mof_C 	C 	0.2951	0.219	0.4714	0.081
Mof_C 	C 	0.2598	0.096	0.4477	0.08
Mof_C 	C 	0.3082	0.0869	0.5058	0.082
Mof_C 	C 	0.4043	0.0053	0.7251	0.04
Mof_H 	H 	0.3816	0.9719	0.7222	-0.004
Mof_C 	C 	0.409	0.081	0.7535	-0.108
Mof_H 	H 	0.3908	0.0963	0.7701	0.076
Mof_C 	C 	0.4424	0.1307	0.7548	0.046
Mof_C 	C 	0.4702	0.1091	0.7285	-0.128
Mof_H 	H 	0.4914	0.1462	0.7279	0.073
Mof_C 	C 	0.4641	0.0314	0.7041	0.064
Mof_H 	H 	0.483	0.0142	0.6886	-0.02
Mof_C 	C 	0.5642	0.461	0.7712	0.045
Mof_H 	H 	0.5751	0.4659	0.7464	0.015
Mof_C 	C 	0.5314	0.4055	0.7717	-0.115
Mof_H 	H 	0.5205	0.3738	0.7464	0.084
Mof_C 	C 	0.5155	0.397	0.8071	0.054
Mof_C 	C 	0.5316	0.4431	0.8444	-0.137
Mof_H 	H 	0.5197	0.4428	0.8685	0.091
Mof_C 	C 	0.5649	0.4891	0.8456	0.079
Mof_H 	H 	0.5787	0.5093	0.8726	-0.017
Mof_C 	C 	0.3481	0.2831	0.8945	0.049
Mof_H 	H 	0.324	0.2551	0.8901	-0.011
Mof_C 	C 	0.3717	0.2699	0.8668	-0.119
Mof_H 	H 	0.3637	0.2281	0.8446	0.079
Mof_C 	C 	0.4068	0.3118	0.8676	0.064
Mof_C 	C 	0.4139	0.3786	0.8987	-0.13
Mof_H 	H 	0.4342	0.4187	0.8988	0.088
Mof_C 	C 	0.3897	0.3874	0.932	0.097
Mof_H 	H 	0.3966	0.4293	0.9544	-0.031
Mof_C 	C 	0.4482	0.2147	0.7824	0.095
Mof_C 	C 	0.4829	0.3385	0.8069	0.088
Mof_C 	C 	0.4329	0.2979	0.8367	0.104
Mof_C 	C 	0.3405	0.5492	0.9978	0.069
Mof_H 	H 	0.3624	0.5269	0.0167	-0.016
Mof_C 	C 	0.3332	0.6431	0.9963	-0.134
Mof_H 	H 	0.3503	0.6814	0.0144	0.091
Mof_C 	C 	0.3024	0.6773	0.9696	0.066
Mof_C 	C 	0.2761	0.6175	0.9437	-0.13
Mof_H 	H 	0.2542	0.6389	0.9243	0.078
Mof_C 	C 	0.2838	0.5245	0.948	0.069
Mof_H 	H 	0.2655	0.4841	0.9332	-0.019
Mof_C 	C 	0.3854	0.9667	0.1027	0.071
Mof_H 	H 	0.4073	0.9399	0.1196	-0.007
Mof_C 	C 	0.361	0.9164	0.0705	-0.135
Mof_H 	H 	0.3636	0.8542	0.0698	0.102
Mof_C 	C 	0.3328	0.9598	0.0394	0.065
Mof_C 	C 	0.326	0.0481	0.0474	-0.142
Mof_H 	H 	0.306	0.0783	0.0288	0.08
Mof_C 	C 	0.3482	0.0935	0.0825	0.069
Mof_H 	H 	0.3426	0.1534	0.0875	-0.021
Mof_C 	C 	0.1771	0.9405	0.8522	0.097
Mof_H 	H 	0.1636	0.9102	0.8276	-0.015
Mof_C 	C 	0.2036	0.8969	0.8795	-0.155
Mof_H 	H 	0.2069	0.8356	0.8754	0.093
Mof_C 	C 	0.2275	0.9414	0.9157	0.066
Mof_C 	C 	0.2191	0.0322	0.9192	-0.165
Mof_H 	H 	0.2326	0.0655	0.9428	0.103
Mof_C 	C 	0.1921	0.0716	0.8894	0.103
Mof_H 	H 	0.1895	0.1338	0.8908	-0.027
Mof_C 	C 	0.294	0.7755	0.968	0.097
Mof_C 	C 	0.309	0.9069	0.0028	0.097
Mof_C 	C 	0.258	0.897	0.9457	0.074
Mof_Zn	Zn	0.627	0.3978	0.3149	0.533
Mof_I 	I 	0.6483	0.386	0.2434	-0.111
Mof_I 	I 	0.6163	0.2522	0.34	-0.056
Mof_Zn	Zn	0.3334	0.6351	0.4803	0.555
Mof_I 	I 	0.271	0.7378	0.4604	-0.11
Mof_I 	I 	0.3659	0.6741	0.5422	0.062
Mof_Zn	Zn	0.4169	0.8762	0.6582	0.534
Mof_I 	I 	0.4743	0.8418	0.6246	-0.126
Mof_I 	I 	0.3871	0.7522	0.6946	-0.161
Mof_Zn	Zn	0.3302	0.3543	0.9811	0.551
Mof_I 	I 	0.2591	0.2725	0.9439	-0.318
Mof_I 	I 	0.3809	0.3382	0.0532	-0.261
Mof_Zn	Zn	0.4208	0.132	0.1561	0.526
Mof_I 	I 	0.4763	0.1441	0.1286	-0.105
Mof_I 	I 	0.374	0.2223	0.1942	-0.223
Mof_Zn	Zn	0.1247	0.1004	0.8172	0.598
Mof_I 	I 	0.1506	0.0781	0.7372	-0.34
Mof_I 	I 	0.1107	0.2314	0.8417	0.051
Mof_Zn	Zn	0.126	0.9029	0.3114	0.532
Mof_I 	I 	0.1479	0.9158	0.239	-0.237
Mof_I 	I 	0.1039	0.7631	0.3523	-0.304
Mof_Zn	Zn	0.8263	0.14	0.4762	0.577
Mof_I 	I 	0.7644	0.2225	0.4481	-0.23
Mof_I 	I 	0.87644	0.1572	0.55327	-0.46
Mof_Zn	Zn	0.9203	0.3722	0.6561	0.539
Mof_I 	I 	0.9788	0.355	0.6206	-0.226
Mof_I 	I 	0.8809	0.2621	0.6933	-0.162
Mof_Zn	Zn	0.8273	0.8573	0.9749	0.539
Mof_I 	I 	0.77042	0.7608	0.95749	-0.031
Mof_I 	I 	0.8712	0.832	0.0506	-0.093
Mof_Zn	Zn	0.9161	0.6141	0.1577	0.646
Mof_I 	I 	0.97582	0.649	0.12021	-0.231
Mof_I 	I 	0.88422	0.7392	0.1931	-0.138
Mof_Zn	Zn	0.6258	0.5862	0.8079	0.609
Mof_I 	I 	0.6439	0.6004	0.7428	-0.013
Mof_I 	I 	0.605	0.7382	0.8564	-0.441
Mof_N 	N 	0.08	0.9869	0.3088	-0.276
Mof_N 	N 	0.931	0.5116	0.2015	-0.293
Mof_N 	N 	0.8608	0.1555	0.4289	-0.305
Mof_N 	N 	0.9764	0.2258	0.2781	-0.145
Mof_N 	N 	0.9247	0.2724	0.3111	-0.143
Mof_N 	N 	0.9615	0.143	0.3374	-0.118
Mof_N 	N 	0.8151	0.0023	0.4737	-0.292
Mof_N 	N 	0.6673	0.4633	0.3585	-0.268
Mof_N 	N 	0.8801	0.4403	0.6082	-0.283
Mof_N 	N 	0.7652	0.6849	0.4413	-0.142
Mof_N 	N 	0.7786	0.5456	0.4788	-0.138
Mof_N 	N 	0.8179	0.6724	0.5014	-0.137
Mof_N 	N 	0.9323	0.4783	0.7013	-0.258
Mof_N 	N 	0.079	0.0071	0.8093	-0.279
Mof_N 	N 	0.8603	0.8403	0.9307	-0.28
Mof_N 	N 	0.9762	0.7711	0.7775	-0.149
Mof_N 	N 	0.9609	0.855	0.8364	-0.137
Mof_N 	N 	0.9251	0.7233	0.8111	-0.136
Mof_N 	N 	0.8164	0.9927	0.9727	-0.266
Mof_N 	N 	0.8776	0.5525	0.1095	-0.272
Mof_N 	N 	0.6684	0.5276	0.8577	-0.289
Mof_N 	N 	0.8184	0.3201	0.0012	-0.134
Mof_N 	N 	0.7795	0.4495	0.9783	-0.14
Mof_N 	N 	0.7648	0.3103	0.9404	-0.141
Mof_C 	C 	0.0637	0.9964	0.3429	0.106
Mof_H 	H 	0.0723	0.9584	0.3667	-0.009
Mof_C 	C 	0.0349	0.0579	0.3467	-0.147
Mof_H 	H 	0.0284	0.0716	0.3735	0.127
Mof_C 	C 	0.0159	0.0986	0.3066	0.079
Mof_C 	C 	0.0322	0.0866	0.27	-0.162
Mof_H 	H 	0.0224	0.1164	0.2438	0.094
Mof_C 	C 	0.0631	0.0294	0.2739	0.116
Mof_H 	H 	0.073	0.0201	0.2487	-0.021
Mof_C 	C 	0.9607	0.4608	0.2028	0.117
Mof_H 	H 	0.9777	0.4738	0.1843	-0.028
Mof_C 	C 	0.9682	0.3874	0.2306	-0.17
Mof_H 	H 	0.9914	0.356	0.2331	0.09
Mof_C 	C 	0.9422	0.3617	0.2536	0.085
Mof_C 	C 	0.9113	0.4211	0.2516	-0.189
Mof_H 	H 	0.8931	0.4099	0.2689	0.085
Mof_C 	C 	0.9069	0.4934	0.2258	0.125
Mof_H 	H 	0.8858	0.5314	0.2255	-0.049
Mof_C 	C 	0.893	0.107	0.4274	0.165
Mof_H 	H 	0.8977	0.0569	0.4454	-0.037
Mof_C 	C 	0.9174	0.124	0.4036	-0.219
Mof_H 	H 	0.9416	0.0964	0.4089	0.144
Mof_C 	C 	0.9076	0.1846	0.3698	0.131
Mof_C 	C 	0.8749	0.2341	0.3661	-0.2
Mof_H 	H 	0.8668	0.2755	0.3437	0.102
Mof_C 	C 	0.8538	0.2163	0.4006	0.137
Mof_H 	H 	0.8329	0.2539	0.4018	-0.043
Mof_C 	C 	0.9816	0.1583	0.3071	0.09
Mof_C 	C 	0.9477	0.2824	0.2828	0.067
Mof_C 	C 	0.9316	0.2018	0.3374	0.072
Mof_C 	C 	0.8409	0.9447	0.4957	0.099
Mof_H 	H 	0.864	0.9679	0.5118	-0.045
Mof_C 	C 	0.8357	0.8545	0.4962	-0.179
Mof_H 	H 	0.8539	0.8171	0.5134	0.097
Mof_C 	C 	0.8015	0.8192	0.4694	0.098
Mof_C 	C 	0.7774	0.8759	0.4455	-0.184
Mof_H 	H 	0.7548	0.8552	0.4272	0.099
Mof_C 	C 	0.7863	0.9683	0.448	0.131
Mof_H 	H 	0.7697	0.0071	0.4295	-0.035
Mof_C 	C 	0.6735	0.5484	0.3541	0.076
Mof_H 	H 	0.6575	0.5796	0.3315	-0.008
Mof_C 	C 	0.7045	0.5976	0.3832	-0.136
Mof_H 	H 	0.7087	0.6585	0.3791	0.085
Mof_C 	C 	0.7265	0.5512	0.4159	0.055
Mof_C 	C 	0.719	0.4613	0.4226	-0.132
Mof_H 	H 	0.7342	0.4294	0.4455	0.095
Mof_C 	C 	0.6879	0.4193	0.3938	0.064
Mof_H 	H 	0.6815	0.3602	0.3991	-0.001
Mof_C 	C 	0.8518	0.4005	0.5828	0.092
Mof_H 	H 	0.8477	0.3398	0.5874	-0.027
Mof_C 	C 	0.8268	0.4443	0.5482	-0.167
Mof_H 	H 	0.8066	0.4134	0.5302	0.093
Mof_C 	C 	0.833	0.5346	0.5417	0.089
Mof_C 	C 	0.8641	0.5743	0.5676	-0.184
Mof_H 	H 	0.8713	0.6329	0.5623	0.107
Mof_C 	C 	0.8844	0.5259	0.6017	0.107
Mof_H 	H 	0.9029	0.5565	0.6221	-0.025
Mof_C 	C 	0.7951	0.719	0.4714	0.08
Mof_C 	C 	0.7598	0.596	0.4477	0.079
Mof_C 	C 	0.8082	0.5869	0.5058	0.082
Mof_C 	C 	0.9043	0.5053	0.7251	0.042
Mof_H 	H 	0.8816	0.4719	0.7222	-0.005
Mof_C 	C 	0.909	0.581	0.7535	-0.109
Mof_H 	H 	0.8908	0.5963	0.7701	0.077
Mof_C 	C 	0.9424	0.6307	0.7548	0.047
Mof_C 	C 	0.9702	0.6091	0.7285	-0.129
Mof_H 	H 	0.9914	0.6462	0.7279	0.074
Mof_C 	C 	0.9641	0.5314	0.7041	0.065
Mof_H 	H 	0.983	0.5142	0.6886	-0.02
Mof_C 	C 	0.0642	0.961	0.7712	0.047
Mof_H 	H 	0.0751	0.9659	0.7464	0.015
Mof_C 	C 	0.0314	0.9055	0.7717	-0.117
Mof_H 	H 	0.0205	0.8738	0.7464	0.084
Mof_C 	C 	0.0155	0.897	0.8071	0.056
Mof_C 	C 	0.0316	0.9431	0.8444	-0.14
Mof_H 	H 	0.0197	0.9428	0.8685	0.092
Mof_C 	C 	0.0649	0.9891	0.8456	0.083
Mof_H 	H 	0.0787	0.0093	0.8726	-0.019
Mof_C 	C 	0.8481	0.7831	0.8945	0.049
Mof_H 	H 	0.824	0.7551	0.8901	-0.011
Mof_C 	C 	0.8717	0.7699	0.8668	-0.119
Mof_H 	H 	0.8637	0.7281	0.8446	0.079
Mof_C 	C 	0.9068	0.8118	0.8676	0.064
Mof_C 	C 	0.9139	0.8786	0.8987	-0.13
Mof_H 	H 	0.9342	0.9187	0.8988	0.088
Mof_C 	C 	0.8897	0.8874	0.932	0.097
Mof_H 	H 	0.8966	0.9293	0.9544	-0.031
Mof_C 	C 	0.9482	0.7147	0.7824	0.095
Mof_C 	C 	0.9829	0.8385	0.8069	0.087
Mof_C 	C 	0.9329	0.7979	0.8367	0.104
Mof_C 	C 	0.8405	0.0492	0.9978	0.068
Mof_H 	H 	0.8624	0.0269	0.0167	-0.015
Mof_C 	C 	0.8332	0.1431	0.9963	-0.133
Mof_H 	H 	0.8503	0.1814	0.0144	0.091
Mof_C 	C 	0.8024	0.1773	0.9696	0.065
Mof_C 	C 	0.7761	0.1175	0.9437	-0.128
Mof_H 	H 	0.7542	0.1389	0.9243	0.077
Mof_C 	C 	0.7838	0.0245	0.948	0.066
Mof_H 	H 	0.7655	0.9841	0.9332	-0.017
Mof_C 	C 	0.8854	0.4667	0.1027	0.07
Mof_H 	H 	0.9073	0.4399	0.1196	-0.007
Mof_C 	C 	0.861	0.4164	0.0705	-0.134
Mof_H 	H 	0.8636	0.3542	0.0698	0.102
Mof_C 	C 	0.8328	0.4598	0.0394	0.063
Mof_C 	C 	0.826	0.5481	0.0474	-0.14
Mof_H 	H 	0.806	0.5783	0.0288	0.079
Mof_C 	C 	0.8482	0.5935	0.0825	0.068
Mof_H 	H 	0.8426	0.6534	0.0875	-0.02
Mof_C 	C 	0.6771	0.4405	0.8522	0.095
Mof_H 	H 	0.6636	0.4102	0.8276	-0.015
Mof_C 	C 	0.7036	0.3969	0.8795	-0.153
Mof_H 	H 	0.7069	0.3356	0.8754	0.093
Mof_C 	C 	0.7275	0.4414	0.9157	0.064
Mof_C 	C 	0.7191	0.5322	0.9192	-0.162
Mof_H 	H 	0.7326	0.5655	0.9428	0.102
Mof_C 	C 	0.6921	0.5716	0.8894	0.102
Mof_H 	H 	0.6895	0.6338	0.8908	-0.026
Mof_C 	C 	0.794	0.2755	0.968	0.097
Mof_C 	C 	0.809	0.4069	0.0028	0.098
Mof_C 	C 	0.758	0.397	0.9457	0.075
Mof_Zn	Zn	0.127	0.8978	0.3149	0.533
Mof_I 	I 	0.1483	0.886	0.2434	-0.111
Mof_I 	I 	0.1163	0.7522	0.34	-0.056
Mof_Zn	Zn	0.8334	0.1351	0.4803	0.555
Mof_I 	I 	0.771	0.2378	0.4604	-0.11
Mof_I 	I 	0.8659	0.1741	0.5422	0.062
Mof_Zn	Zn	0.9169	0.3762	0.6582	0.534
Mof_I 	I 	0.9743	0.3418	0.6246	-0.126
Mof_I 	I 	0.8871	0.2522	0.6946	-0.161
Mof_Zn	Zn	0.8302	0.8543	0.9811	0.551
Mof_I 	I 	0.7591	0.7725	0.9439	-0.318
Mof_I 	I 	0.8809	0.8382	0.0532	-0.26
Mof_Zn	Zn	0.9208	0.632	0.1561	0.526
Mof_I 	I 	0.9763	0.6441	0.1286	-0.105
Mof_I 	I 	0.874	0.7223	0.1942	-0.223
Mof_Zn	Zn	0.6247	0.6004	0.8172	0.598
Mof_I 	I 	0.6506	0.5781	0.7372	-0.34
Mof_I 	I 	0.6107	0.7314	0.8417	0.051
Mof_Zn	Zn	0.374	0.4029	0.6886	0.532
Mof_I 	I 	0.3521	0.4158	0.761	-0.237
Mof_I 	I 	0.3961	0.2631	0.6477	-0.304
Mof_Zn	Zn	0.6737	0.64	0.5238	0.578
Mof_I 	I 	0.7356	0.7225	0.5519	-0.23
Mof_I 	I 	0.62356	0.6572	0.44673	-0.46
Mof_Zn	Zn	0.5797	0.8722	0.3439	0.539
Mof_I 	I 	0.5212	0.855	0.3794	-0.226
Mof_I 	I 	0.6191	0.7621	0.3067	-0.162
Mof_Zn	Zn	0.6727	0.3573	0.0251	0.539
Mof_I 	I 	0.72958	0.2608	0.04251	-0.031
Mof_I 	I 	0.6288	0.332	0.9494	-0.094
Mof_Zn	Zn	0.5839	0.1141	0.8423	0.646
Mof_I 	I 	0.52418	0.149	0.87979	-0.231
Mof_I 	I 	0.61578	0.2392	0.8069	-0.138
Mof_Zn	Zn	0.8742	0.0862	0.1921	0.609
Mof_I 	I 	0.8561	0.1004	0.2572	-0.014
Mof_I 	I 	0.895	0.2382	0.1436	-0.441
Mof_N 	N 	0.42	0.4869	0.6912	-0.276
Mof_N 	N 	0.569	0.0116	0.7985	-0.295
Mof_N 	N 	0.6392	0.6555	0.5711	-0.305
Mof_N 	N 	0.5236	0.7258	0.7219	-0.145
Mof_N 	N 	0.5753	0.7724	0.6889	-0.143
Mof_N 	N 	0.5385	0.643	0.6626	-0.118
Mof_N 	N 	0.6849	0.5023	0.5263	-0.29
Mof_N 	N 	0.8327	0.9633	0.6415	-0.267
Mof_N 	N 	0.6199	0.9403	0.3918	-0.282
Mof_N 	N 	0.7348	0.1849	0.5587	-0.142
Mof_N 	N 	0.7214	0.0456	0.5212	-0.139
Mof_N 	N 	0.6821	0.1724	0.4986	-0.137
Mof_N 	N 	0.5677	0.9783	0.2987	-0.257
Mof_N 	N 	0.421	0.5071	0.1907	-0.277
Mof_N 	N 	0.6397	0.3403	0.0693	-0.28
Mof_N 	N 	0.5238	0.2711	0.2225	-0.149
Mof_N 	N 	0.5391	0.355	0.1636	-0.137
Mof_N 	N 	0.5749	0.2233	0.1889	-0.137
Mof_N 	N 	0.6836	0.4927	0.0273	-0.267
Mof_N 	N 	0.6224	0.0525	0.8905	-0.273
Mof_N 	N 	0.8316	0.0276	0.1423	-0.29
Mof_N 	N 	0.6816	0.8201	0.9988	-0.133
Mof_N 	N 	0.7205	0.9495	0.0217	-0.139
Mof_N 	N 	0.7352	0.8103	0.0596	-0.141
Mof_C 	C 	0.4363	0.4964	0.6571	0.104
Mof_H 	H 	0.4277	0.4584	0.6333	-0.009
Mof_C 	C 	0.4651	0.5579	0.6533	-0.145
Mof_H 	H 	0.4716	0.5716	0.6265	0.126
Mof_C 	C 	0.4841	0.5986	0.6934	0.079
Mof_C 	C 	0.4678	0.5866	0.73	-0.162
Mof_H 	H 	0.4776	0.6164	0.7562	0.094
Mof_C 	C 	0.4369	0.5294	0.7261	0.118
Mof_H 	H 	0.427	0.5201	0.7513	-0.021
Mof_C 	C 	0.5393	0.9608	0.7972	0.119
Mof_H 	H 	0.5223	0.9738	0.8157	-0.029
Mof_C 	C 	0.5318	0.8874	0.7694	-0.171
Mof_H 	H 	0.5086	0.856	0.7669	0.091
Mof_C 	C 	0.5578	0.8617	0.7464	0.086
Mof_C 	C 	0.5887	0.9211	0.7484	-0.191
Mof_H 	H 	0.6069	0.9099	0.7311	0.085
Mof_C 	C 	0.5931	0.9934	0.7742	0.128
Mof_H 	H 	0.6142	0.0314	0.7745	-0.05
Mof_C 	C 	0.607	0.607	0.5726	0.165
Mof_H 	H 	0.6023	0.5569	0.5546	-0.037
Mof_C 	C 	0.5826	0.624	0.5964	-0.219
Mof_H 	H 	0.5584	0.5964	0.5911	0.144
Mof_C 	C 	0.5924	0.6846	0.6302	0.132
Mof_C 	C 	0.6251	0.7341	0.6339	-0.2
Mof_H 	H 	0.6332	0.7755	0.6563	0.102
Mof_C 	C 	0.6462	0.7163	0.5994	0.137
Mof_H 	H 	0.6671	0.7539	0.5982	-0.043
Mof_C 	C 	0.5184	0.6583	0.6929	0.09
Mof_C 	C 	0.5523	0.7824	0.7172	0.067
Mof_C 	C 	0.5684	0.7018	0.6626	0.072
Mof_C 	C 	0.6591	0.4447	0.5043	0.097
Mof_H 	H 	0.636	0.4679	0.4882	-0.045
Mof_C 	C 	0.6643	0.3545	0.5038	-0.178
Mof_H 	H 	0.6461	0.3171	0.4866	0.096
Mof_C 	C 	0.6985	0.3192	0.5306	0.097
Mof_C 	C 	0.7226	0.3759	0.5545	-0.182
Mof_H 	H 	0.7452	0.3552	0.5728	0.098
Mof_C 	C 	0.7137	0.4683	0.552	0.128
Mof_H 	H 	0.7303	0.5071	0.5705	-0.033
Mof_C 	C 	0.8265	0.0484	0.6459	0.075
Mof_H 	H 	0.8425	0.0796	0.6685	-0.007
Mof_C 	C 	0.7955	0.0976	0.6168	-0.134
Mof_H 	H 	0.7913	0.1585	0.6209	0.084
Mof_C 	C 	0.7735	0.0512	0.5841	0.053
Mof_C 	C 	0.781	0.9613	0.5774	-0.13
Mof_H 	H 	0.7658	0.9294	0.5545	0.095
Mof_C 	C 	0.8121	0.9193	0.6062	0.063
Mof_H 	H 	0.8185	0.8602	0.6009	-0
Mof_C 	C 	0.6482	0.9005	0.4172	0.091
Mof_H 	H 	0.6523	0.8398	0.4126	-0.027
Mof_C 	C 	0.6732	0.9443	0.4518	-0.165
Mof_H 	H 	0.6934	0.9134	0.4698	0.092
Mof_C 	C 	0.667	0.0346	0.4583	0.088
Mof_C 	C 	0.6359	0.0743	0.4324	-0.183
Mof_H 	H 	0.6287	0.1329	0.4377	0.106
Mof_C 	C 	0.6156	0.0259	0.3983	0.105
Mof_H 	H 	0.5971	0.0565	0.3779	-0.024
Mof_C 	C 	0.7049	0.219	0.5286	0.081
Mof_C 	C 	0.7402	0.096	0.5523	0.08
Mof_C 	C 	0.6918	0.0869	0.4942	0.082
Mof_C 	C 	0.5957	0.0053	0.2749	0.04
Mof_H 	H 	0.6184	0.9719	0.2778	-0.004
Mof_C 	C 	0.591	0.081	0.2465	-0.108
Mof_H 	H 	0.6092	0.0963	0.2299	0.076
Mof_C 	C 	0.5576	0.1307	0.2452	0.046
Mof_C 	C 	0.5298	0.1091	0.2715	-0.128
Mof_H 	H 	0.5086	0.1462	0.2721	0.073
Mof_C 	C 	0.5359	0.0314	0.2959	0.064
Mof_H 	H 	0.517	0.0142	0.3114	-0.02
Mof_C 	C 	0.4358	0.461	0.2288	0.045
Mof_H 	H 	0.4249	0.4659	0.2536	0.015
Mof_C 	C 	0.4686	0.4055	0.2283	-0.115
Mof_H 	H 	0.4795	0.3738	0.2536	0.084
Mof_C 	C 	0.4845	0.397	0.1929	0.054
Mof_C 	C 	0.4684	0.4431	0.1556	-0.137
Mof_H 	H 	0.4803	0.4428	0.1315	0.091
Mof_C 	C 	0.4351	0.4891	0.1544	0.079
Mof_H 	H 	0.4213	0.5093	0.1274	-0.017
Mof_C 	C 	0.6519	0.2831	0.1055	0.049
Mof_H 	H 	0.676	0.2551	0.1099	-0.011
Mof_C 	C 	0.6283	0.2699	0.1332	-0.119
Mof_H 	H 	0.6363	0.2281	0.1554	0.079
Mof_C 	C 	0.5932	0.3118	0.1324	0.064
Mof_C 	C 	0.5861	0.3786	0.1013	-0.13
Mof_H 	H 	0.5658	0.4187	0.1012	0.088
Mof_C 	C 	0.6103	0.3874	0.068	0.097
Mof_H 	H 	0.6034	0.4293	0.0456	-0.031
Mof_C 	C 	0.5518	0.2147	0.2176	0.095
Mof_C 	C 	0.5171	0.3385	0.1931	0.088
Mof_C 	C 	0.5671	0.2979	0.1633	0.104
Mof_C 	C 	0.6595	0.5492	0.0022	0.069
Mof_H 	H 	0.6376	0.5269	0.9833	-0.016
Mof_C 	C 	0.6668	0.6431	0.0037	-0.134
Mof_H 	H 	0.6497	0.6814	0.9856	0.091
Mof_C 	C 	0.6976	0.6773	0.0304	0.066
Mof_C 	C 	0.7239	0.6175	0.0563	-0.13
Mof_H 	H 	0.7458	0.6389	0.0757	0.078
Mof_C 	C 	0.7162	0.5245	0.052	0.069
Mof_H 	H 	0.7345	0.4841	0.0668	-0.019
Mof_C 	C 	0.6146	0.9667	0.8973	0.071
Mof_H 	H 	0.5927	0.9399	0.8804	-0.007
Mof_C 	C 	0.639	0.9164	0.9295	-0.135
Mof_H 	H 	0.6364	0.8542	0.9302	0.102
Mof_C 	C 	0.6672	0.9598	0.9606	0.065
Mof_C 	C 	0.674	0.0481	0.9526	-0.142
Mof_H 	H 	0.694	0.0783	0.9712	0.08
Mof_C 	C 	0.6518	0.0935	0.9175	0.069
Mof_H 	H 	0.6574	0.1534	0.9125	-0.021
Mof_C 	C 	0.8229	0.9405	0.1478	0.097
Mof_H 	H 	0.8364	0.9102	0.1724	-0.015
Mof_C 	C 	0.7964	0.8969	0.1205	-0.155
Mof_H 	H 	0.7931	0.8356	0.1246	0.093
Mof_C 	C 	0.7725	0.9414	0.0843	0.066
Mof_C 	C 	0.7809	0.0322	0.0808	-0.165
Mof_H 	H 	0.7674	0.0655	0.0572	0.103
Mof_C 	C 	0.8079	0.0716	0.1106	0.103
Mof_H 	H 	0.8105	0.1338	0.1092	-0.027
Mof_C 	C 	0.706	0.7755	0.032	0.097
Mof_C 	C 	0.691	0.9069	0.9972	0.097
Mof_C 	C 	0.742	0.897	0.0543	0.074
Mof_Zn	Zn	0.373	0.3978	0.6851	0.533
Mof_I 	I 	0.3517	0.386	0.7566	-0.111
Mof_I 	I 	0.3837	0.2522	0.66	-0.056
Mof_Zn	Zn	0.6666	0.6351	0.5197	0.555
Mof_I 	I 	0.729	0.7378	0.5396	-0.11
Mof_I 	I 	0.6341	0.6741	0.4578	0.062
Mof_Zn	Zn	0.5831	0.8762	0.3418	0.534
Mof_I 	I 	0.5257	0.8418	0.3754	-0.126
Mof_I 	I 	0.6129	0.7522	0.3054	-0.161
Mof_Zn	Zn	0.6698	0.3543	0.0189	0.551
Mof_I 	I 	0.7409	0.2725	0.0561	-0.318
Mof_I 	I 	0.6191	0.3382	0.9468	-0.261
Mof_Zn	Zn	0.5792	0.132	0.8439	0.526
Mof_I 	I 	0.5237	0.1441	0.8714	-0.105
Mof_I 	I 	0.626	0.2223	0.8058	-0.223
Mof_Zn	Zn	0.8753	0.1004	0.1828	0.598
Mof_I 	I 	0.8494	0.0781	0.2628	-0.34
Mof_I 	I 	0.8893	0.2314	0.1583	0.051
Mof_Zn	Zn	0.874	0.9029	0.6886	0.532
Mof_I 	I 	0.8521	0.9158	0.761	-0.237
Mof_I 	I 	0.8961	0.7631	0.6477	-0.304
Mof_Zn	Zn	0.1737	0.14	0.5238	0.577
Mof_I 	I 	0.2356	0.2225	0.5519	-0.23
Mof_I 	I 	0.12356	0.1572	0.44673	-0.46
Mof_Zn	Zn	0.0797	0.3722	0.3439	0.539
Mof_I 	I 	0.0212	0.355	0.3794	-0.226
Mof_I 	I 	0.1191	0.2621	0.3067	-0.162
Mof_Zn	Zn	0.1727	0.8573	0.0251	0.539
Mof_I 	I 	0.22958	0.7608	0.04251	-0.031
Mof_I 	I 	0.1288	0.832	0.9494	-0.093
Mof_Zn	Zn	0.0839	0.6141	0.8423	0.646
Mof_I 	I 	0.02418	0.649	0.87979	-0.231
Mof_I 	I 	0.11578	0.7392	0.8069	-0.138
Mof_Zn	Zn	0.3742	0.5862	0.1921	0.609
Mof_I 	I 	0.3561	0.6004	0.2572	-0.013
Mof_I 	I 	0.395	0.7382	0.1436	-0.441
Mof_N 	N 	0.92	0.9869	0.6912	-0.276
Mof_N 	N 	0.069	0.5116	0.7985	-0.293
Mof_N 	N 	0.1392	0.1555	0.5711	-0.305
Mof_N 	N 	0.0236	0.2258	0.7219	-0.145
Mof_N 	N 	0.0753	0.2724	0.6889	-0.143
Mof_N 	N 	0.0385	0.143	0.6626	-0.118
Mof_N 	N 	0.1849	0.0023	0.5263	-0.292
Mof_N 	N 	0.3327	0.4633	0.6415	-0.268
Mof_N 	N 	0.1199	0.4403	0.3918	-0.283
Mof_N 	N 	0.2348	0.6849	0.5587	-0.142
Mof_N 	N 	0.2214	0.5456	0.5212	-0.138
Mof_N 	N 	0.1821	0.6724	0.4986	-0.137
Mof_N 	N 	0.0677	0.4783	0.2987	-0.258
Mof_N 	N 	0.921	0.0071	0.1907	-0.279
Mof_N 	N 	0.1397	0.8403	0.0693	-0.28
Mof_N 	N 	0.0238	0.7711	0.2225	-0.149
Mof_N 	N 	0.0391	0.855	0.1636	-0.137
Mof_N 	N 	0.0749	0.7233	0.1889	-0.136
Mof_N 	N 	0.1836	0.9927	0.0273	-0.266
Mof_N 	N 	0.1224	0.5525	0.8905	-0.272
Mof_N 	N 	0.3316	0.5276	0.1423	-0.289
Mof_N 	N 	0.1816	0.3201	0.9988	-0.134
Mof_N 	N 	0.2205	0.4495	0.0217	-0.14
Mof_N 	N 	0.2352	0.3103	0.0596	-0.141
Mof_C 	C 	0.9363	0.9964	0.6571	0.106
Mof_H 	H 	0.9277	0.9584	0.6333	-0.009
Mof_C 	C 	0.9651	0.0579	0.6533	-0.147
Mof_H 	H 	0.9716	0.0716	0.6265	0.127
Mof_C 	C 	0.9841	0.0986	0.6934	0.079
Mof_C 	C 	0.9678	0.0866	0.73	-0.162
Mof_H 	H 	0.9776	0.1164	0.7562	0.094
Mof_C 	C 	0.9369	0.0294	0.7261	0.116
Mof_H 	H 	0.927	0.0201	0.7513	-0.021
Mof_C 	C 	0.0393	0.4608	0.7972	0.117
Mof_H 	H 	0.0223	0.4738	0.8157	-0.028
Mof_C 	C 	0.0318	0.3874	0.7694	-0.17
Mof_H 	H 	0.0086	0.356	0.7669	0.09
Mof_C 	C 	0.0578	0.3617	0.7464	0.085
Mof_C 	C 	0.0887	0.4211	0.7484	-0.189
Mof_H 	H 	0.1069	0.4099	0.7311	0.085
Mof_C 	C 	0.0931	0.4934	0.7742	0.125
Mof_H 	H 	0.1142	0.5314	0.7745	-0.049
Mof_C 	C 	0.107	0.107	0.5726	0.165
Mof_H 	H 	0.1023	0.0569	0.5546	-0.037
Mof_C 	C 	0.0826	0.124	0.5964	-0.219
Mof_H 	H 	0.0584	0.0964	0.5911	0.144
Mof_C 	C 	0.0924	0.1846	0.6302	0.131
Mof_C 	C 	0.1251	0.2341	0.6339	-0.2
Mof_H 	H 	0.1332	0.2755	0.6563	0.102
Mof_C 	C 	0.1462	0.2163	0.5994	0.137
Mof_H 	H 	0.1671	0.2539	0.5982	-0.043
Mof_C 	C 	0.0184	0.1583	0.6929	0.09
Mof_C 	C 	0.0523	0.2824	0.7172	0.067
Mof_C 	C 	0.0684	0.2018	0.6626	0.072
Mof_C 	C 	0.1591	0.9447	0.5043	0.099
Mof_H 	H 	0.136	0.9679	0.4882	-0.045
Mof_C 	C 	0.1643	0.8545	0.5038	-0.179
Mof_H 	H 	0.1461	0.8171	0.4866	0.097
Mof_C 	C 	0.1985	0.8192	0.5306	0.098
Mof_C 	C 	0.2226	0.8759	0.5545	-0.184
Mof_H 	H 	0.2452	0.8552	0.5728	0.099
Mof_C 	C 	0.2137	0.9683	0.552	0.131
Mof_H 	H 	0.2303	0.0071	0.5705	-0.035
Mof_C 	C 	0.3265	0.5484	0.6459	0.076
Mof_H 	H 	0.3425	0.5796	0.6685	-0.008
Mof_C 	C 	0.2955	0.5976	0.6168	-0.136
Mof_H 	H 	0.2913	0.6585	0.6209	0.085
Mof_C 	C 	0.2735	0.5512	0.5841	0.055
Mof_C 	C 	0.281	0.4613	0.5774	-0.132
Mof_H 	H 	0.2658	0.4294	0.5545	0.095
Mof_C 	C 	0.3121	0.4193	0.6062	0.064
Mof_H 	H 	0.3185	0.3602	0.6009	-0.001
Mof_C 	C 	0.1482	0.4005	0.4172	0.092
Mof_H 	H 	0.1523	0.3398	0.4126	-0.027
Mof_C 	C 	0.1732	0.4443	0.4518	-0.167
Mof_H 	H 	0.1934	0.4134	0.4698	0.093
Mof_C 	C 	0.167	0.5346	0.4583	0.089
Mof_C 	C 	0.1359	0.5743	0.4324	-0.184
Mof_H 	H 	0.1287	0.6329	0.4377	0.107
Mof_C 	C 	0.1156	0.5259	0.3983	0.107
Mof_H 	H 	0.0971	0.5565	0.3779	-0.025
Mof_C 	C 	0.2049	0.719	0.5286	0.08
Mof_C 	C 	0.2402	0.596	0.5523	0.079
Mof_C 	C 	0.1918	0.5869	0.4942	0.082
Mof_C 	C 	0.0957	0.5053	0.2749	0.042
Mof_H 	H 	0.1184	0.4719	0.2778	-0.005
Mof_C 	C 	0.091	0.581	0.2465	-0.109
Mof_H 	H 	0.1092	0.5963	0.2299	0.077
Mof_C 	C 	0.0576	0.6307	0.2452	0.047
Mof_C 	C 	0.0298	0.6091	0.2715	-0.129
Mof_H 	H 	0.0086	0.6462	0.2721	0.074
Mof_C 	C 	0.0359	0.5314	0.2959	0.065
Mof_H 	H 	0.017	0.5142	0.3114	-0.02
Mof_C 	C 	0.9358	0.961	0.2288	0.047
Mof_H 	H 	0.9249	0.9659	0.2536	0.015
Mof_C 	C 	0.9686	0.9055	0.2283	-0.117
Mof_H 	H 	0.9795	0.8738	0.2536	0.084
Mof_C 	C 	0.9845	0.897	0.1929	0.056
Mof_C 	C 	0.9684	0.9431	0.1556	-0.14
Mof_H 	H 	0.9803	0.9428	0.1315	0.092
Mof_C 	C 	0.9351	0.9891	0.1544	0.083
Mof_H 	H 	0.9213	0.0093	0.1274	-0.019
Mof_C 	C 	0.1519	0.7831	0.1055	0.049
Mof_H 	H 	0.176	0.7551	0.1099	-0.011
Mof_C 	C 	0.1283	0.7699	0.1332	-0.119
Mof_H 	H 	0.1363	0.7281	0.1554	0.079
Mof_C 	C 	0.0932	0.8118	0.1324	0.064
Mof_C 	C 	0.0861	0.8786	0.1013	-0.13
Mof_H 	H 	0.0658	0.9187	0.1012	0.088
Mof_C 	C 	0.1103	0.8874	0.068	0.097
Mof_H 	H 	0.1034	0.9293	0.0456	-0.031
Mof_C 	C 	0.0518	0.7147	0.2176	0.095
Mof_C 	C 	0.0171	0.8385	0.1931	0.087
Mof_C 	C 	0.0671	0.7979	0.1633	0.104
Mof_C 	C 	0.1595	0.0492	0.0022	0.068
Mof_H 	H 	0.1376	0.0269	0.9833	-0.015
Mof_C 	C 	0.1668	0.1431	0.0037	-0.133
Mof_H 	H 	0.1497	0.1814	0.9856	0.091
Mof_C 	C 	0.1976	0.1773	0.0304	0.065
Mof_C 	C 	0.2239	0.1175	0.0563	-0.128
Mof_H 	H 	0.2458	0.1389	0.0757	0.077
Mof_C 	C 	0.2162	0.0245	0.052	0.066
Mof_H 	H 	0.2345	0.9841	0.0668	-0.017
Mof_C 	C 	0.1146	0.4667	0.8973	0.07
Mof_H 	H 	0.0927	0.4399	0.8804	-0.007
Mof_C 	C 	0.139	0.4164	0.9295	-0.134
Mof_H 	H 	0.1364	0.3542	0.9302	0.102
Mof_C 	C 	0.1672	0.4598	0.9606	0.063
Mof_C 	C 	0.174	0.5481	0.9526	-0.14
Mof_H 	H 	0.194	0.5783	0.9712	0.079
Mof_C 	C 	0.1518	0.5935	0.9175	0.068
Mof_H 	H 	0.1574	0.6534	0.9125	-0.02
Mof_C 	C 	0.3229	0.4405	0.1478	0.095
Mof_H 	H 	0.3364	0.4102	0.1724	-0.015
Mof_C 	C 	0.2964	0.3969	0.1205	-0.153
Mof_H 	H 	0.2931	0.3356	0.1246	0.093
Mof_C 	C 	0.2725	0.4414	0.0843	0.064
Mof_C 	C 	0.2809	0.5322	0.0808	-0.162
Mof_H 	H 	0.2674	0.5655	0.0572	0.102
Mof_C 	C 	0.3079	0.5716	0.1106	0.102
Mof_H 	H 	0.3105	0.6338	0.1092	-0.026
Mof_C 	C 	0.206	0.2755	0.032	0.097
Mof_C 	C 	0.191	0.4069	0.9972	0.098
Mof_C 	C 	0.242	0.397	0.0543	0.075
Mof_Zn	Zn	0.873	0.8978	0.6851	0.533
Mof_I 	I 	0.8517	0.886	0.7566	-0.111
Mof_I 	I 	0.8837	0.7522	0.66	-0.056
Mof_Zn	Zn	0.1666	0.1351	0.5197	0.555
Mof_I 	I 	0.229	0.2378	0.5396	-0.11
Mof_I 	I 	0.1341	0.1741	0.4578	0.062
Mof_Zn	Zn	0.0831	0.3762	0.3418	0.534
Mof_I 	I 	0.0257	0.3418	0.3754	-0.126
Mof_I 	I 	0.1129	0.2522	0.3054	-0.161
Mof_Zn	Zn	0.1698	0.8543	0.0189	0.551
Mof_I 	I 	0.2409	0.7725	0.0561	-0.318
Mof_I 	I 	0.1191	0.8382	0.9468	-0.26
Mof_Zn	Zn	0.0792	0.632	0.8439	0.526
Mof_I 	I 	0.0237	0.6441	0.8714	-0.105
Mof_I 	I 	0.126	0.7223	0.8058	-0.223
Mof_Zn	Zn	0.3753	0.6004	0.1828	0.598
Mof_I 	I 	0.3494	0.5781	0.2628	-0.34
Mof_I 	I 	0.3893	0.7314	0.1583	0.051
Mof_C 	C 	0.431	0.208	0.333	-0.403
Mof_H 	H 	0.4535	0.2214	0.3564	0.18
Mof_H 	H 	0.4311	0.251	0.3096	0.137
Mof_C 	C 	0.4365	0.112	0.3153	0.213
Mof_H 	H 	0.4175	0.1027	0.2884	-0.031
Mof_H 	H 	0.4621	0.1069	0.3085	-0.245
Mof_C 	C 	0.432	0.039	0.348	-0.715
Mof_H 	H 	0.4552	0.0359	0.3708	0.249
Mof_H 	H 	0.4283	0.9815	0.3333	0.236
Mof_C 	C 	0.397	0.056	0.37	0.921
Mof_H 	H 	0.3971	0.011	0.3926	-0.283
Mof_H 	H 	0.3733	0.0498	0.3483	-0.234
Mof_C 	C 	0.399	0.151	0.391	-0.537
Mof_H 	H 	0.4232	0.1607	0.411	0.195
Mof_H 	H 	0.3777	0.1586	0.4067	0.147
Mof_C 	C 	0.394	0.217	0.351	0.231
Mof_H 	H 	0.3714	0.2004	0.3284	-0.038
Mof_H 	H 	0.3905	0.2783	0.36	-0.028
Mof_C 	C 	0.247	0.721	0.184	-0.216
Mof_H 	H 	0.2411	0.6963	0.1546	0.1
Mof_H 	H 	0.2371	0.681	0.2038	0.099
Mof_C 	C 	0.2917	0.735	0.2	-0.065
Mof_H 	H 	0.2973	0.7612	0.2288	0.037
Mof_H 	H 	0.305	0.6773	0.2008	0.01
Mof_C 	C 	0.3052	0.797	0.167	-0.219
Mof_H 	H 	0.3332	0.8034	0.1748	0.059
Mof_H 	H 	0.2991	0.7694	0.1379	0.091
Mof_C 	C 	0.287	0.891	0.164	-0.085
Mof_H 	H 	0.2962	0.9269	0.1419	0.134
Mof_H 	H 	0.2935	0.9213	0.1918	0.284
Mof_C 	C 	0.2422	0.876	0.15	-0.152
Mof_H 	H 	0.2287	0.9334	0.1481	0.11
Mof_H 	H 	0.2357	0.8469	0.1215	0.012
Mof_C 	C 	0.23	0.817	0.185	-0.167
Mof_H 	H 	0.2019	0.8131	0.1799	0.079
Mof_H 	H 	0.2391	0.8432	0.2139	0.039
Mof_Cl	Cl	0.5437	0.4	0.6484	-0.347
Mof_C 	C 	0.504	0.372	0.606	-0.03
Mof_H 	H 	0.5047	0.3073	0.6021	0.024
Mof_H 	H 	0.4806	0.3848	0.6172	0.074
Mof_Cl	Cl	0.461	0.486	0.5356	-0.677
Mof_C 	C 	0.498	0.414	0.56	0.256
Mof_H 	H 	0.4975	0.3643	0.54	-0.007
Mof_H 	H 	0.522	0.4468	0.5596	0.01
Mof_H 	H 	0.4563	0.8919	0.4789	-0.497
Mof_C 	C 	0.3987	0.895	0.4856	-1.143
Mof_H 	H 	0.408	0.9365	0.5098	0.373
Mof_H 	H 	0.3884	0.8421	0.4971	0.4
Mof_C 	C 	0.3671	0.942	0.45	0.909
Mof_H 	H 	0.3645	0.9111	0.4219	-0.331
Mof_H 	H 	0.3421	0.9414	0.4586	-0.27
Mof_C 	C 	0.382	0.039	0.447	-1.163
Mof_H 	H 	0.3633	0.0764	0.428	0.379
Mof_H 	H 	0.389	0.0668	0.4759	0.386
Mof_C 	C 	0.418	0.021	0.427	1.318
Mof_H 	H 	0.4414	0.0397	0.4479	-0.383
Mof_H 	H 	0.4165	0.0554	0.4005	-0.538
Mof_C 	C 	0.42	0.919	0.418	-1.476
Mof_H 	H 	0.439	0.9077	0.3999	0.475
Mof_H 	H 	0.3948	0.8982	0.402	0.528
Mof_C 	C 	0.461	0.115	0.3798	-0.184
Mof_H 	H 	0.4514	0.1689	0.3917	0.061
Mof_H 	H 	0.4494	0.063	0.3908	0.073
Mof_C 	C 	0.5059	0.111	0.394	-0.065
Mof_H 	H 	0.5151	0.049	0.3942	0.027
Mof_H 	H 	0.5148	0.137	0.4227	0.022
Mof_C 	C 	0.5197	0.167	0.358	-0.131
Mof_H 	H 	0.5186	0.1303	0.3318	0.073
Mof_H 	H 	0.5464	0.1856	0.3683	0.073
Mof_C 	C 	0.493	0.251	0.347	-0.117
Mof_H 	H 	0.4861	0.275	0.3728	0.064
Mof_H 	H 	0.5063	0.2973	0.3332	0.083
Mof_C 	C 	0.457	0.217	0.314	-0.077
Mof_H 	H 	0.461	0.2178	0.284	0.046
Mof_H 	H 	0.4344	0.2535	0.3154	0.052
Mof_C 	C 	0.4505	0.117	0.3285	0.208
Mof_H 	H 	0.4237	0.0991	0.3181	-0.03
Mof_H 	H 	0.467	0.076	0.3164	0.136
Mof_C 	C 	0.2694	0.964	0.312	-0.33
Mof_H 	H 	0.2656	0.0282	0.3162	0.126
Mof_H 	H 	0.2449	0.9385	0.2972	0.125
Mof_C 	C 	0.285	0.917	0.356	0.166
Mof_H 	H 	0.2642	0.9164	0.373	-0.015
Mof_H 	H 	0.2912	0.8554	0.3509	-0.02
Mof_C 	C 	0.32	0.965	0.3829	-0.406
Mof_H 	H 	0.3322	0.9289	0.408	0.179
Mof_H 	H 	0.3131	0.0229	0.3935	0.144
Mof_C 	C 	0.349	0.978	0.352	0.315
Mof_H 	H 	0.37	0.0169	0.3662	-0.13
Mof_H 	H 	0.3602	0.9204	0.3471	-0.087
Mof_C 	C 	0.332	0.019	0.306	-0.377
Mof_H 	H 	0.3517	0.0283	0.2894	0.153
Mof_H 	H 	0.3195	0.0769	0.3095	0.143
Mof_C 	C 	0.301	0.95	0.283	0.215
Mof_H 	H 	0.3112	0.8888	0.286	-0.051
Mof_H 	H 	0.2914	0.9641	0.2527	-0.152
Mof_C 	C 	0.263	0.826	0.193	0.28
Mof_H 	H 	0.2702	0.7832	0.1724	0.045
Mof_H 	H 	0.251	0.7937	0.2135	-0.013
Mof_C 	C 	0.2348	0.896	0.168	-0.222
Mof_H 	H 	0.2126	0.9015	0.1819	0.097
Mof_H 	H 	0.2256	0.8759	0.138	0.136
Mof_C 	C 	0.2545	0.99	0.168	-0.04
Mof_H 	H 	0.2378	0.0279	0.1465	0.024
Mof_H 	H 	0.2568	0.017	0.1963	0.033
Mof_C 	C 	0.2946	0.986	0.1561	-0.296
Mof_H 	H 	0.292	0.9793	0.1246	0.075
Mof_H 	H 	0.3083	0.0423	0.1647	0.112
Mof_C 	C 	0.3178	0.908	0.18	-0.197
Mof_H 	H 	0.3444	0.9272	0.1904	0.082
Mof_H 	H 	0.318	0.8593	0.159	0.135
Mof_C 	C 	0.301	0.874	0.218	-0.554
Mof_H 	H 	0.2944	0.9236	0.2362	0.233
Mof_H 	H 	0.3179	0.8326	0.2368	0.202
Mof_C 	C 	0.427	0.389	0.512	-0.922
Mof_H 	H 	0.4379	0.4488	0.513	0.587
Mof_H 	H 	0.3994	0.3956	0.5125	0.312
Mof_C 	C 	0.446	0.338	0.552	0.677
Mof_H 	H 	0.4315	0.3455	0.5752	-0.166
Mof_H 	H 	0.472	0.3627	0.5631	-0.196
Mof_C 	C 	0.45	0.237	0.544	-0.682
Mof_H 	H 	0.4747	0.2255	0.535	0.228
Mof_H 	H 	0.4506	0.2036	0.571	0.236
Mof_C 	C 	0.417	0.204	0.508	0.459
Mof_H 	H 	0.3923	0.2176	0.5168	-0.113
Mof_H 	H 	0.4184	0.1388	0.5056	-0.15
Mof_C 	C 	0.417	0.247	0.464	-0.619
Mof_H 	H 	0.3915	0.2432	0.4454	0.209
Mof_H 	H 	0.4349	0.2139	0.4495	0.192
Mof_C 	C 	0.43	0.346	0.468	0.529
Mof_H 	H 	0.4564	0.3505	0.464	-0.127
Mof_H 	H 	0.4137	0.38	0.4441	-0.123
Mof_C 	C 	0.52	0.726	0.494	-0.797
Mof_H 	H 	0.545	0.6978	0.4982	-0.021
Mof_H 	H 	0.5099	0.7331	0.4627	0.174
Mof_C 	C 	0.492	0.665	0.513	0.515
Mof_H 	H 	0.505	0.6413	0.5416	-0.088
Mof_H 	H 	0.4831	0.6156	0.4938	-0.126
Mof_C 	C 	0.458	0.726	0.519	0.544
Mof_H 	H 	0.4339	0.6908	0.514	-0.104
Mof_H 	H 	0.4621	0.7498	0.5485	-0.137
Mof_C 	C 	0.453	0.804	0.486	0.342
Mof_H 	H 	0.455	0.7819	0.4568	0.136
Mof_H 	H 	0.428	0.8326	0.4834	-0.387
Mof_C 	C 	0.486	0.873	0.501	0.056
Mof_H 	H 	0.48	0.9079	0.526	0.022
Mof_H 	H 	0.4878	0.9147	0.4779	0.078
Mof_C 	C 	0.524	0.819	0.516	-0.047
Mof_H 	H 	0.5451	0.8515	0.5077	-0.063
Mof_H 	H 	0.5295	0.8122	0.5477	-0.063
Mof_C 	C 	0.4315	0.871	0.463	1.598
Mof_H 	H 	0.4328	0.806	0.4587	-0.479
Mof_C 	C 	0.569	0.208	0.667	-0.403
Mof_H 	H 	0.5465	0.2214	0.6436	0.18
Mof_H 	H 	0.5689	0.251	0.6904	0.137
Mof_C 	C 	0.5635	0.112	0.6847	0.213
Mof_H 	H 	0.5825	0.1027	0.7116	-0.031
Mof_H 	H 	0.5379	0.1069	0.6915	-0.245
Mof_C 	C 	0.568	0.039	0.652	-0.715
Mof_H 	H 	0.5448	0.0359	0.6292	0.249
Mof_H 	H 	0.5717	0.9815	0.6667	0.236
Mof_C 	C 	0.603	0.056	0.63	0.921
Mof_H 	H 	0.6029	0.011	0.6074	-0.283
Mof_H 	H 	0.6267	0.0498	0.6517	-0.234
Mof_C 	C 	0.601	0.151	0.609	-0.537
Mof_H 	H 	0.5768	0.1607	0.589	0.195
Mof_H 	H 	0.6223	0.1586	0.5933	0.147
Mof_C 	C 	0.606	0.217	0.649	0.231
Mof_H 	H 	0.6286	0.2004	0.6716	-0.038
Mof_H 	H 	0.6095	0.2783	0.64	-0.028
Mof_C 	C 	0.753	0.721	0.816	-0.216
Mof_H 	H 	0.7589	0.6963	0.8454	0.1
Mof_H 	H 	0.7629	0.681	0.7962	0.099
Mof_C 	C 	0.7083	0.735	0.8	-0.065
Mof_H 	H 	0.7027	0.7612	0.7712	0.037
Mof_H 	H 	0.695	0.6773	0.7992	0.01
Mof_C 	C 	0.6948	0.797	0.833	-0.219
Mof_H 	H 	0.6668	0.8034	0.8252	0.059
Mof_H 	H 	0.7009	0.7694	0.8621	0.091
Mof_C 	C 	0.713	0.891	0.836	-0.085
Mof_H 	H 	0.7038	0.9269	0.8581	0.134
Mof_H 	H 	0.7065	0.9213	0.8082	0.284
Mof_C 	C 	0.7578	0.876	0.85	-0.152
Mof_H 	H 	0.7713	0.9334	0.8519	0.11
Mof_H 	H 	0.7643	0.8469	0.8785	0.012
Mof_C 	C 	0.77	0.817	0.815	-0.167
Mof_H 	H 	0.7981	0.8131	0.8201	0.079
Mof_H 	H 	0.7609	0.8432	0.7861	0.039
Mof_Cl	Cl	0.4563	0.4	0.3516	-0.347
Mof_C 	C 	0.496	0.372	0.394	-0.03
Mof_H 	H 	0.4953	0.3073	0.3979	0.024
Mof_H 	H 	0.5194	0.3848	0.3828	0.074
Mof_Cl	Cl	0.539	0.486	0.4644	-0.677
Mof_C 	C 	0.502	0.414	0.44	0.256
Mof_H 	H 	0.5025	0.3643	0.46	-0.007
Mof_H 	H 	0.478	0.4468	0.4404	0.01
Mof_H 	H 	0.5437	0.8919	0.5211	-0.497
Mof_C 	C 	0.6013	0.895	0.5144	-1.143
Mof_H 	H 	0.592	0.9365	0.4902	0.373
Mof_H 	H 	0.6116	0.8421	0.5029	0.4
Mof_C 	C 	0.6329	0.942	0.55	0.909
Mof_H 	H 	0.6355	0.9111	0.5781	-0.331
Mof_H 	H 	0.6579	0.9414	0.5414	-0.27
Mof_C 	C 	0.618	0.039	0.553	-1.163
Mof_H 	H 	0.6367	0.0764	0.572	0.379
Mof_H 	H 	0.611	0.0668	0.5241	0.386
Mof_C 	C 	0.582	0.021	0.573	1.318
Mof_H 	H 	0.5586	0.0397	0.5521	-0.383
Mof_H 	H 	0.5835	0.0554	0.5995	-0.538
Mof_C 	C 	0.58	0.919	0.582	-1.476
Mof_H 	H 	0.561	0.9077	0.6001	0.475
Mof_H 	H 	0.6052	0.8982	0.598	0.528
Mof_C 	C 	0.539	0.115	0.6202	-0.184
Mof_H 	H 	0.5486	0.1689	0.6083	0.061
Mof_H 	H 	0.5506	0.063	0.6092	0.073
Mof_C 	C 	0.4941	0.111	0.606	-0.065
Mof_H 	H 	0.4849	0.049	0.6058	0.027
Mof_H 	H 	0.4852	0.137	0.5773	0.022
Mof_C 	C 	0.4803	0.167	0.642	-0.131
Mof_H 	H 	0.4814	0.1303	0.6682	0.073
Mof_H 	H 	0.4536	0.1856	0.6317	0.073
Mof_C 	C 	0.507	0.251	0.653	-0.117
Mof_H 	H 	0.5139	0.275	0.6272	0.064
Mof_H 	H 	0.4937	0.2973	0.6668	0.083
Mof_C 	C 	0.543	0.217	0.686	-0.077
Mof_H 	H 	0.539	0.2178	0.716	0.046
Mof_H 	H 	0.5656	0.2535	0.6846	0.052
Mof_C 	C 	0.5495	0.117	0.6715	0.208
Mof_H 	H 	0.5763	0.0991	0.6819	-0.03
Mof_H 	H 	0.533	0.076	0.6836	0.136
Mof_C 	C 	0.7306	0.964	0.688	-0.33
Mof_H 	H 	0.7344	0.0282	0.6838	0.126
Mof_H 	H 	0.7551	0.9385	0.7028	0.125
Mof_C 	C 	0.715	0.917	0.644	0.166
Mof_H 	H 	0.7358	0.9164	0.627	-0.015
Mof_H 	H 	0.7088	0.8554	0.6491	-0.02
Mof_C 	C 	0.68	0.965	0.6171	-0.406
Mof_H 	H 	0.6678	0.9289	0.592	0.179
Mof_H 	H 	0.6869	0.0229	0.6065	0.144
Mof_C 	C 	0.651	0.978	0.648	0.315
Mof_H 	H 	0.63	0.0169	0.6338	-0.13
Mof_H 	H 	0.6398	0.9204	0.6529	-0.087
Mof_C 	C 	0.668	0.019	0.694	-0.377
Mof_H 	H 	0.6483	0.0283	0.7106	0.153
Mof_H 	H 	0.6805	0.0769	0.6905	0.143
Mof_C 	C 	0.699	0.95	0.717	0.215
Mof_H 	H 	0.6888	0.8888	0.714	-0.051
Mof_H 	H 	0.7086	0.9641	0.7473	-0.152
Mof_C 	C 	0.737	0.826	0.807	0.28
Mof_H 	H 	0.7298	0.7832	0.8276	0.045
Mof_H 	H 	0.749	0.7937	0.7865	-0.013
Mof_C 	C 	0.7652	0.896	0.832	-0.222
Mof_H 	H 	0.7874	0.9015	0.8181	0.097
Mof_H 	H 	0.7744	0.8759	0.862	0.136
Mof_C 	C 	0.7455	0.99	0.832	-0.04
Mof_H 	H 	0.7622	0.0279	0.8535	0.024
Mof_H 	H 	0.7432	0.017	0.8037	0.033
Mof_C 	C 	0.7054	0.986	0.8439	-0.296
Mof_H 	H 	0.708	0.9793	0.8754	0.075
Mof_H 	H 	0.6917	0.0423	0.8353	0.112
Mof_C 	C 	0.6822	0.908	0.82	-0.197
Mof_H 	H 	0.6556	0.9272	0.8096	0.082
Mof_H 	H 	0.682	0.8593	0.841	0.135
Mof_C 	C 	0.699	0.874	0.782	-0.554
Mof_H 	H 	0.7056	0.9236	0.7638	0.233
Mof_H 	H 	0.6821	0.8326	0.7632	0.202
Mof_C 	C 	0.573	0.389	0.488	-0.922
Mof_H 	H 	0.5621	0.4488	0.487	0.587
Mof_H 	H 	0.6006	0.3956	0.4875	0.312
Mof_C 	C 	0.554	0.338	0.448	0.677
Mof_H 	H 	0.5685	0.3455	0.4248	-0.166
Mof_H 	H 	0.528	0.3627	0.4369	-0.196
Mof_C 	C 	0.55	0.237	0.456	-0.682
Mof_H 	H 	0.5253	0.2255	0.465	0.228
Mof_H 	H 	0.5494	0.2036	0.429	0.236
Mof_C 	C 	0.583	0.204	0.492	0.459
Mof_H 	H 	0.6077	0.2176	0.4832	-0.113
Mof_H 	H 	0.5816	0.1388	0.4944	-0.15
Mof_C 	C 	0.583	0.247	0.536	-0.619
Mof_H 	H 	0.6085	0.2432	0.5546	0.209
Mof_H 	H 	0.5651	0.2139	0.5505	0.192
Mof_C 	C 	0.57	0.346	0.532	0.529
Mof_H 	H 	0.5436	0.3505	0.536	-0.127
Mof_H 	H 	0.5863	0.38	0.5559	-0.123
Mof_C 	C 	0.48	0.726	0.506	-0.797
Mof_H 	H 	0.455	0.6978	0.5018	-0.021
Mof_H 	H 	0.4901	0.7331	0.5373	0.174
Mof_C 	C 	0.508	0.665	0.487	0.515
Mof_H 	H 	0.495	0.6413	0.4584	-0.088
Mof_H 	H 	0.5169	0.6156	0.5062	-0.126
Mof_C 	C 	0.542	0.726	0.481	0.544
Mof_H 	H 	0.5661	0.6908	0.486	-0.104
Mof_H 	H 	0.5379	0.7498	0.4515	-0.137
Mof_C 	C 	0.547	0.804	0.514	0.342
Mof_H 	H 	0.545	0.7819	0.5432	0.136
Mof_H 	H 	0.572	0.8326	0.5166	-0.387
Mof_C 	C 	0.514	0.873	0.499	0.056
Mof_H 	H 	0.52	0.9079	0.474	0.022
Mof_H 	H 	0.5122	0.9147	0.5221	0.078
Mof_C 	C 	0.476	0.819	0.484	-0.047
Mof_H 	H 	0.4549	0.8515	0.4923	-0.063
Mof_H 	H 	0.4705	0.8122	0.4523	-0.063
Mof_C 	C 	0.5685	0.871	0.537	1.598
Mof_H 	H 	0.5672	0.806	0.5413	-0.479
Mof_C 	C 	0.931	0.708	0.333	-0.404
Mof_H 	H 	0.9535	0.7214	0.3564	0.18
Mof_H 	H 	0.9311	0.751	0.3096	0.137
Mof_C 	C 	0.9365	0.612	0.3153	0.213
Mof_H 	H 	0.9175	0.6027	0.2884	-0.031
Mof_H 	H 	0.9621	0.6069	0.3085	-0.245
Mof_C 	C 	0.932	0.539	0.348	-0.715
Mof_H 	H 	0.9552	0.5359	0.3708	0.249
Mof_H 	H 	0.9283	0.4815	0.3333	0.235
Mof_C 	C 	0.897	0.556	0.37	0.924
Mof_H 	H 	0.8971	0.511	0.3926	-0.284
Mof_H 	H 	0.8733	0.5498	0.3483	-0.235
Mof_C 	C 	0.899	0.651	0.391	-0.539
Mof_H 	H 	0.9232	0.6607	0.411	0.196
Mof_H 	H 	0.8777	0.6586	0.4067	0.147
Mof_C 	C 	0.894	0.717	0.351	0.232
Mof_H 	H 	0.8714	0.7004	0.3284	-0.038
Mof_H 	H 	0.8905	0.7783	0.36	-0.028
Mof_C 	C 	0.747	0.221	0.184	-0.214
Mof_H 	H 	0.7411	0.1963	0.1546	0.1
Mof_H 	H 	0.7371	0.181	0.2038	0.098
Mof_C 	C 	0.7917	0.235	0.2	-0.066
Mof_H 	H 	0.7973	0.2612	0.2288	0.037
Mof_H 	H 	0.805	0.1773	0.2008	0.01
Mof_C 	C 	0.8052	0.297	0.167	-0.218
Mof_H 	H 	0.8332	0.3034	0.1748	0.059
Mof_H 	H 	0.7991	0.2694	0.1379	0.091
Mof_C 	C 	0.787	0.391	0.164	-0.085
Mof_H 	H 	0.7962	0.4269	0.1419	0.134
Mof_H 	H 	0.7935	0.4213	0.1918	0.284
Mof_C 	C 	0.7422	0.376	0.15	-0.15
Mof_H 	H 	0.7287	0.4334	0.1481	0.11
Mof_H 	H 	0.7357	0.3469	0.1215	0.012
Mof_C 	C 	0.73	0.317	0.185	-0.169
Mof_H 	H 	0.7019	0.3131	0.1799	0.079
Mof_H 	H 	0.7391	0.3432	0.2139	0.039
Mof_Cl	Cl	0.0437	0.9	0.6484	-0.347
Mof_C 	C 	0.004	0.872	0.606	-0.03
Mof_H 	H 	0.0047	0.8073	0.6021	0.024
Mof_H 	H 	0.9806	0.8848	0.6172	0.074
Mof_Cl	Cl	0.961	0.986	0.5356	-0.676
Mof_C 	C 	0.998	0.914	0.56	0.256
Mof_H 	H 	0.9975	0.8643	0.54	-0.007
Mof_H 	H 	0.022	0.9468	0.5596	0.011
Mof_H 	H 	0.9563	0.3919	0.4789	-0.5
Mof_C 	C 	0.8987	0.395	0.4856	-1.149
Mof_H 	H 	0.908	0.4365	0.5098	0.374
Mof_H 	H 	0.8884	0.3421	0.4971	0.402
Mof_C 	C 	0.8671	0.442	0.45	0.913
Mof_H 	H 	0.8645	0.4111	0.4219	-0.333
Mof_H 	H 	0.8421	0.4414	0.4586	-0.272
Mof_C 	C 	0.882	0.539	0.447	-1.168
Mof_H 	H 	0.8633	0.5764	0.428	0.38
Mof_H 	H 	0.889	0.5668	0.4759	0.388
Mof_C 	C 	0.918	0.521	0.427	1.325
Mof_H 	H 	0.9414	0.5397	0.4479	-0.386
Mof_H 	H 	0.9165	0.5554	0.4005	-0.541
Mof_C 	C 	0.92	0.419	0.418	-1.484
Mof_H 	H 	0.939	0.4077	0.3999	0.477
Mof_H 	H 	0.8948	0.3982	0.402	0.531
Mof_C 	C 	0.961	0.615	0.3798	-0.185
Mof_H 	H 	0.9514	0.6689	0.3917	0.061
Mof_H 	H 	0.9494	0.563	0.3908	0.073
Mof_C 	C 	0.0059	0.611	0.394	-0.064
Mof_H 	H 	0.0151	0.549	0.3942	0.027
Mof_H 	H 	0.0148	0.637	0.4227	0.021
Mof_C 	C 	0.0197	0.667	0.358	-0.132
Mof_H 	H 	0.0186	0.6303	0.3318	0.073
Mof_H 	H 	0.0464	0.6856	0.3683	0.073
Mof_C 	C 	0.993	0.751	0.347	-0.117
Mof_H 	H 	0.9861	0.775	0.3728	0.064
Mof_H 	H 	0.0063	0.7973	0.3332	0.083
Mof_C 	C 	0.957	0.717	0.314	-0.077
Mof_H 	H 	0.961	0.7178	0.284	0.046
Mof_H 	H 	0.9344	0.7535	0.3154	0.052
Mof_C 	C 	0.9505	0.617	0.3285	0.209
Mof_H 	H 	0.9237	0.5991	0.3181	-0.031
Mof_H 	H 	0.967	0.576	0.3164	0.136
Mof_C 	C 	0.7694	0.464	0.312	-0.331
Mof_H 	H 	0.7656	0.5282	0.3162	0.127
Mof_H 	H 	0.7449	0.4385	0.2972	0.126
Mof_C 	C 	0.785	0.417	0.356	0.167
Mof_H 	H 	0.7642	0.4164	0.373	-0.016
Mof_H 	H 	0.7912	0.3554	0.3509	-0.021
Mof_C 	C 	0.82	0.465	0.3829	-0.408
Mof_H 	H 	0.8322	0.4289	0.408	0.18
Mof_H 	H 	0.8131	0.5229	0.3935	0.144
Mof_C 	C 	0.849	0.478	0.352	0.313
Mof_H 	H 	0.87	0.5169	0.3662	-0.129
Mof_H 	H 	0.8602	0.4204	0.3471	-0.087
Mof_C 	C 	0.832	0.519	0.306	-0.374
Mof_H 	H 	0.8517	0.5283	0.2894	0.153
Mof_H 	H 	0.8195	0.5769	0.3095	0.143
Mof_C 	C 	0.801	0.45	0.283	0.214
Mof_H 	H 	0.8112	0.3888	0.286	-0.05
Mof_H 	H 	0.7914	0.4641	0.2527	-0.152
Mof_C 	C 	0.763	0.326	0.193	0.279
Mof_H 	H 	0.7702	0.2832	0.1724	0.046
Mof_H 	H 	0.751	0.2937	0.2135	-0.013
Mof_C 	C 	0.7348	0.396	0.168	-0.22
Mof_H 	H 	0.7126	0.4015	0.1819	0.097
Mof_H 	H 	0.7256	0.3759	0.138	0.135
Mof_C 	C 	0.7545	0.49	0.168	-0.045
Mof_H 	H 	0.7378	0.5279	0.1465	0.026
Mof_H 	H 	0.7568	0.517	0.1963	0.036
Mof_C 	C 	0.7946	0.486	0.1561	-0.294
Mof_H 	H 	0.792	0.4793	0.1246	0.074
Mof_H 	H 	0.8083	0.5423	0.1647	0.112
Mof_C 	C 	0.8178	0.408	0.18	-0.198
Mof_H 	H 	0.8444	0.4272	0.1904	0.082
Mof_H 	H 	0.818	0.3593	0.159	0.135
Mof_C 	C 	0.801	0.374	0.218	-0.553
Mof_H 	H 	0.7944	0.4236	0.2362	0.232
Mof_H 	H 	0.8179	0.3326	0.2368	0.202
Mof_C 	C 	0.927	0.889	0.512	-0.921
Mof_H 	H 	0.9379	0.9488	0.513	0.586
Mof_H 	H 	0.8994	0.8956	0.5125	0.312
Mof_C 	C 	0.946	0.838	0.552	0.676
Mof_H 	H 	0.9315	0.8455	0.5752	-0.165
Mof_H 	H 	0.972	0.8627	0.5631	-0.196
Mof_C 	C 	0.95	0.737	0.544	-0.681
Mof_H 	H 	0.9747	0.7255	0.535	0.228
Mof_H 	H 	0.9506	0.7036	0.571	0.236
Mof_C 	C 	0.917	0.704	0.508	0.459
Mof_H 	H 	0.8923	0.7176	0.5168	-0.113
Mof_H 	H 	0.9184	0.6388	0.5056	-0.15
Mof_C 	C 	0.917	0.747	0.464	-0.619
Mof_H 	H 	0.8915	0.7432	0.4454	0.209
Mof_H 	H 	0.9349	0.7139	0.4495	0.192
Mof_C 	C 	0.93	0.846	0.468	0.529
Mof_H 	H 	0.9564	0.8505	0.464	-0.127
Mof_H 	H 	0.9137	0.88	0.4441	-0.122
Mof_C 	C 	0.02	0.226	0.494	-0.797
Mof_H 	H 	0.045	0.1978	0.4982	-0.02
Mof_H 	H 	0.0099	0.2331	0.4627	0.174
Mof_C 	C 	0.992	0.165	0.513	0.515
Mof_H 	H 	0.005	0.1413	0.5416	-0.089
Mof_H 	H 	0.9831	0.1156	0.4938	-0.126
Mof_C 	C 	0.958	0.226	0.519	0.542
Mof_H 	H 	0.9339	0.1908	0.514	-0.104
Mof_H 	H 	0.9621	0.2498	0.5485	-0.136
Mof_C 	C 	0.953	0.304	0.486	0.342
Mof_H 	H 	0.955	0.2819	0.4568	0.137
Mof_H 	H 	0.928	0.3326	0.4834	-0.389
Mof_C 	C 	0.986	0.373	0.501	0.055
Mof_H 	H 	0.98	0.4079	0.526	0.022
Mof_H 	H 	0.9878	0.4147	0.4779	0.078
Mof_C 	C 	0.024	0.319	0.516	-0.045
Mof_H 	H 	0.0451	0.3515	0.5077	-0.062
Mof_H 	H 	0.0295	0.3122	0.5477	-0.064
Mof_C 	C 	0.9315	0.371	0.463	1.607
Mof_H 	H 	0.9328	0.306	0.4587	-0.481
Mof_C 	C 	0.069	0.708	0.667	-0.404
Mof_H 	H 	0.0465	0.7214	0.6436	0.18
Mof_H 	H 	0.0689	0.751	0.6904	0.137
Mof_C 	C 	0.0635	0.612	0.6847	0.213
Mof_H 	H 	0.0825	0.6027	0.7116	-0.031
Mof_H 	H 	0.0379	0.6069	0.6915	-0.245
Mof_C 	C 	0.068	0.539	0.652	-0.715
Mof_H 	H 	0.0448	0.5359	0.6292	0.249
Mof_H 	H 	0.0717	0.4815	0.6667	0.235
Mof_C 	C 	0.103	0.556	0.63	0.924
Mof_H 	H 	0.1029	0.511	0.6074	-0.284
Mof_H 	H 	0.1267	0.5498	0.6517	-0.235
Mof_C 	C 	0.101	0.651	0.609	-0.539
Mof_H 	H 	0.0768	0.6607	0.589	0.196
Mof_H 	H 	0.1223	0.6586	0.5933	0.147
Mof_C 	C 	0.106	0.717	0.649	0.232
Mof_H 	H 	0.1286	0.7004	0.6716	-0.038
Mof_H 	H 	0.1095	0.7783	0.64	-0.028
Mof_C 	C 	0.253	0.221	0.816	-0.214
Mof_H 	H 	0.2589	0.1963	0.8454	0.1
Mof_H 	H 	0.2629	0.181	0.7962	0.098
Mof_C 	C 	0.2083	0.235	0.8	-0.066
Mof_H 	H 	0.2027	0.2612	0.7712	0.037
Mof_H 	H 	0.195	0.1773	0.7992	0.01
Mof_C 	C 	0.1948	0.297	0.833	-0.218
Mof_H 	H 	0.1668	0.3034	0.8252	0.059
Mof_H 	H 	0.2009	0.2694	0.8621	0.091
Mof_C 	C 	0.213	0.391	0.836	-0.085
Mof_H 	H 	0.2038	0.4269	0.8581	0.134
Mof_H 	H 	0.2065	0.4213	0.8082	0.284
Mof_C 	C 	0.2578	0.376	0.85	-0.15
Mof_H 	H 	0.2713	0.4334	0.8519	0.11
Mof_H 	H 	0.2643	0.3469	0.8785	0.012
Mof_C 	C 	0.27	0.317	0.815	-0.169
Mof_H 	H 	0.2981	0.3131	0.8201	0.079
Mof_H 	H 	0.2609	0.3432	0.7861	0.039
Mof_Cl	Cl	0.9563	0.9	0.3516	-0.347
Mof_C 	C 	0.996	0.872	0.394	-0.03
Mof_H 	H 	0.9953	0.8073	0.3979	0.024
Mof_H 	H 	0.0194	0.8848	0.3828	0.074
Mof_Cl	Cl	0.039	0.986	0.4644	-0.676
Mof_C 	C 	0.002	0.914	0.44	0.256
Mof_H 	H 	0.0025	0.8643	0.46	-0.007
Mof_H 	H 	0.978	0.9468	0.4404	0.011
Mof_H 	H 	0.0437	0.3919	0.5211	-0.5
Mof_C 	C 	0.1013	0.395	0.5144	-1.149
Mof_H 	H 	0.092	0.4365	0.4902	0.374
Mof_H 	H 	0.1116	0.3421	0.5029	0.402
Mof_C 	C 	0.1329	0.442	0.55	0.913
Mof_H 	H 	0.1355	0.4111	0.5781	-0.333
Mof_H 	H 	0.1579	0.4414	0.5414	-0.272
Mof_C 	C 	0.118	0.539	0.553	-1.168
Mof_H 	H 	0.1367	0.5764	0.572	0.38
Mof_H 	H 	0.111	0.5668	0.5241	0.388
Mof_C 	C 	0.082	0.521	0.573	1.325
Mof_H 	H 	0.0586	0.5397	0.5521	-0.386
Mof_H 	H 	0.0835	0.5554	0.5995	-0.541
Mof_C 	C 	0.08	0.419	0.582	-1.484
Mof_H 	H 	0.061	0.4077	0.6001	0.477
Mof_H 	H 	0.1052	0.3982	0.598	0.531
Mof_C 	C 	0.039	0.615	0.6202	-0.185
Mof_H 	H 	0.0486	0.6689	0.6083	0.061
Mof_H 	H 	0.0506	0.563	0.6092	0.073
Mof_C 	C 	0.9941	0.611	0.606	-0.064
Mof_H 	H 	0.9849	0.549	0.6058	0.027
Mof_H 	H 	0.9852	0.637	0.5773	0.021
Mof_C 	C 	0.9803	0.667	0.642	-0.132
Mof_H 	H 	0.9814	0.6303	0.6682	0.073
Mof_H 	H 	0.9536	0.6856	0.6317	0.073
Mof_C 	C 	0.007	0.751	0.653	-0.117
Mof_H 	H 	0.0139	0.775	0.6272	0.064
Mof_H 	H 	0.9937	0.7973	0.6668	0.083
Mof_C 	C 	0.043	0.717	0.686	-0.077
Mof_H 	H 	0.039	0.7178	0.716	0.046
Mof_H 	H 	0.0656	0.7535	0.6846	0.052
Mof_C 	C 	0.0495	0.617	0.6715	0.209
Mof_H 	H 	0.0763	0.5991	0.6819	-0.031
Mof_H 	H 	0.033	0.576	0.6836	0.136
Mof_C 	C 	0.2306	0.464	0.688	-0.331
Mof_H 	H 	0.2344	0.5282	0.6838	0.127
Mof_H 	H 	0.2551	0.4385	0.7028	0.126
Mof_C 	C 	0.215	0.417	0.644	0.167
Mof_H 	H 	0.2358	0.4164	0.627	-0.016
Mof_H 	H 	0.2088	0.3554	0.6491	-0.021
Mof_C 	C 	0.18	0.465	0.6171	-0.408
Mof_H 	H 	0.1678	0.4289	0.592	0.18
Mof_H 	H 	0.1869	0.5229	0.6065	0.144
Mof_C 	C 	0.151	0.478	0.648	0.313
Mof_H 	H 	0.13	0.5169	0.6338	-0.129
Mof_H 	H 	0.1398	0.4204	0.6529	-0.087
Mof_C 	C 	0.168	0.519	0.694	-0.374
Mof_H 	H 	0.1483	0.5283	0.7106	0.153
Mof_H 	H 	0.1805	0.5769	0.6905	0.143
Mof_C 	C 	0.199	0.45	0.717	0.214
Mof_H 	H 	0.1888	0.3888	0.714	-0.05
Mof_H 	H 	0.2086	0.4641	0.7473	-0.152
Mof_C 	C 	0.237	0.326	0.807	0.279
Mof_H 	H 	0.2298	0.2832	0.8276	0.046
Mof_H 	H 	0.249	0.2937	0.7865	-0.013
Mof_C 	C 	0.2652	0.396	0.832	-0.22
Mof_H 	H 	0.2874	0.4015	0.8181	0.097
Mof_H 	H 	0.2744	0.3759	0.862	0.135
Mof_C 	C 	0.2455	0.49	0.832	-0.045
Mof_H 	H 	0.2622	0.5279	0.8535	0.026
Mof_H 	H 	0.2432	0.517	0.8037	0.036
Mof_C 	C 	0.2054	0.486	0.8439	-0.294
Mof_H 	H 	0.208	0.4793	0.8754	0.074
Mof_H 	H 	0.1917	0.5423	0.8353	0.112
Mof_C 	C 	0.1822	0.408	0.82	-0.198
Mof_H 	H 	0.1556	0.4272	0.8096	0.082
Mof_H 	H 	0.182	0.3593	0.841	0.135
Mof_C 	C 	0.199	0.374	0.782	-0.553
Mof_H 	H 	0.2056	0.4236	0.7638	0.232
Mof_H 	H 	0.1821	0.3326	0.7632	0.202
Mof_C 	C 	0.073	0.889	0.488	-0.921
Mof_H 	H 	0.0621	0.9488	0.487	0.586
Mof_H 	H 	0.1006	0.8956	0.4875	0.312
Mof_C 	C 	0.054	0.838	0.448	0.676
Mof_H 	H 	0.0685	0.8455	0.4248	-0.165
Mof_H 	H 	0.028	0.8627	0.4369	-0.196
Mof_C 	C 	0.05	0.737	0.456	-0.681
Mof_H 	H 	0.0253	0.7255	0.465	0.228
Mof_H 	H 	0.0494	0.7036	0.429	0.236
Mof_C 	C 	0.083	0.704	0.492	0.459
Mof_H 	H 	0.1077	0.7176	0.4832	-0.113
Mof_H 	H 	0.0816	0.6388	0.4944	-0.15
Mof_C 	C 	0.083	0.747	0.536	-0.619
Mof_H 	H 	0.1085	0.7432	0.5546	0.209
Mof_H 	H 	0.0651	0.7139	0.5505	0.192
Mof_C 	C 	0.07	0.846	0.532	0.529
Mof_H 	H 	0.0436	0.8505	0.536	-0.127
Mof_H 	H 	0.0863	0.88	0.5559	-0.122
Mof_C 	C 	0.98	0.226	0.506	-0.797
Mof_H 	H 	0.955	0.1978	0.5018	-0.02
Mof_H 	H 	0.9901	0.2331	0.5373	0.174
Mof_C 	C 	0.008	0.165	0.487	0.515
Mof_H 	H 	0.995	0.1413	0.4584	-0.089
Mof_H 	H 	0.0169	0.1156	0.5062	-0.126
Mof_C 	C 	0.042	0.226	0.481	0.542
Mof_H 	H 	0.0661	0.1908	0.486	-0.104
Mof_H 	H 	0.0379	0.2498	0.4515	-0.136
Mof_C 	C 	0.047	0.304	0.514	0.342
Mof_H 	H 	0.045	0.2819	0.5432	0.137
Mof_H 	H 	0.072	0.3326	0.5166	-0.389
Mof_C 	C 	0.014	0.373	0.499	0.055
Mof_H 	H 	0.02	0.4079	0.474	0.022
Mof_H 	H 	0.0122	0.4147	0.5221	0.078
Mof_C 	C 	0.976	0.319	0.484	-0.045
Mof_H 	H 	0.9549	0.3515	0.4923	-0.062
Mof_H 	H 	0.9705	0.3122	0.4523	-0.064
Mof_C 	C 	0.0685	0.371	0.537	1.607
Mof_H 	H 	0.0672	0.306	0.5413	-0.481
_end
