# CIF file generated by openbabel 3.1.0, see https://openbabel.org
data_I
_chemical_name_common 'image0'
_cell_length_a 13.8475
_cell_length_b 15.1719
_cell_length_c 16.477
_cell_angle_alpha 75.798
_cell_angle_beta 81.449
_cell_angle_gamma 63.074
_space_group_name_H-M_alt 'P 1'
_space_group_name_Hall 'P 1'
loop_
    _symmetry_equiv_pos_as_xyz
    x,y,z
loop_
    _atom_site_label
    _atom_site_type_symbol
    _atom_site_fract_x
    _atom_site_fract_y
    _atom_site_fract_z
    _atom_site_occupancy
    Ag1      Ag       0.76213    0.08711    0.26010    1.000
    Ag2      Ag       0.66980    0.53819    0.69512    1.000
    Ag3      Ag       0.42727    0.09333    0.59894    1.000
    Ag4      Ag       0.33509    0.53300    0.02744    1.000
    Ag5      Ag       0.91235    0.91373    0.07748    1.000
    Ag6      Ag       0.99994    0.46330    0.64286    1.000
    C1       C        0.72390    0.67530    0.46770    1.000
    C2       C        0.80930    0.58900    0.50630    1.000
    C3       C        0.78140    0.77370    0.51380    1.000
    H1       H        0.77530    0.83660    0.51630    1.000
    C4       C        0.86440    0.68740    0.55450    1.000
    H2       H        0.91110    0.69430    0.58500    1.000
    C5       C        0.83200    0.48080    0.50350    1.000
    C6       C        0.63980    0.67230    0.42000    1.000
    C7       C        0.83230    0.76060    0.27600    1.000
    C8       C        0.78950    0.86470    0.25400    1.000
    C9       C        0.91150    0.86440    0.33280    1.000
    H3       H        0.93960    0.89830    0.35490    1.000
    C10      C        0.95670    0.76030    0.35310    1.000
    H4       H        0.01610    0.72550    0.38690    1.000
    C11      C        0.78510    0.70190    0.24720    1.000
    C12      C        0.69440    0.92990    0.19560    1.000
    C13      C        0.51390    0.76260    0.62040    1.000
    C14      C        0.46350    0.86800    0.60070    1.000
    C15      C        0.63580    0.76950    0.69710    1.000
    H5       H        0.69580    0.73740    0.73040    1.000
    C16      C        0.58510    0.87280    0.67770    1.000
    H6       H        0.61140    0.90940    0.69820    1.000
    C17      C        0.47280    0.69940    0.59240    1.000
    C18      C        0.36400    0.93070    0.54600    1.000
    C19      C        0.86450    0.40710    0.81200    1.000
    C20      C        0.94600    0.31990    0.85680    1.000
    C21      C        0.80540    0.31080    0.76540    1.000
    H7       H        0.75730    0.30500    0.73550    1.000
    C22      C        0.88700    0.22440    0.80850    1.000
    H8       H        0.89360    0.16160    0.80510    1.000
    C23      C        0.84790    0.51420    0.81240    1.000
    C24      C        0.02260    0.32770    0.90870    1.000
    C25      C        0.83410    0.24390    0.04760    1.000
    C26      C        0.88770    0.13840    0.06550    1.000
    C27      C        0.71570    0.23690    0.96810    1.000
    H9       H        0.65640    0.26890    0.93410    1.000
    C28      C        0.76860    0.13400    0.98540    1.000
    H10      H        0.74460    0.09750    0.96250    1.000
    C29      C        0.86700    0.30980    0.08400    1.000
    C30      C        0.98670    0.07620    0.11940    1.000
    C31      C        0.53360    0.40700    0.15140    1.000
    C32      C        0.61650    0.31980    0.19410    1.000
    C33      C        0.47980    0.30790    0.10260    1.000
    H11      H        0.43480    0.30170    0.06990    1.000
    C34      C        0.55890    0.22260    0.14640    1.000
    H12      H        0.56340    0.15980    0.14560    1.000
    C35      C        0.51320    0.51500    0.15050    1.000
    C36      C        0.69890    0.32190    0.24330    1.000
    Gd1      Gd       0.75585    0.48131    0.32321    1.000
    Gd2      Gd       0.13212    0.20129    0.10366    1.000
    N1       N        0.87960    0.59530    0.55160    1.000
    N2       N        0.71040    0.76850    0.47140    1.000
    N3       N        0.91680    0.70890    0.32530    1.000
    N4       N        0.82860    0.91740    0.28220    1.000
    N5       N        0.62900    0.22750    0.18990    1.000
    N6       N        0.46710    0.39900    0.10630    1.000
    N7       N        0.49860    0.92250    0.62980    1.000
    N8       N        0.60070    0.71410    0.66910    1.000
    N9       N        0.79590    0.40160    0.76700    1.000
    N10      N        0.95550    0.22860    0.85410    1.000
    N11      N        0.74780    0.29250    0.99930    1.000
    N12      N        0.85420    0.08370    0.03440    1.000
    O1       O        0.87070    0.45260    0.43330    1.000
    O2       O        0.81890    0.42800    0.56890    1.000
    O3       O        0.64940    0.58440    0.42220    1.000
    O4       O        0.57520    0.75090    0.38070    1.000
    O5       O        0.80920    0.61350    0.28920    1.000
    O6       O        0.73070    0.74270    0.18510    1.000
    O7       O        0.60100    0.95190    0.22880    1.000
    O8       O        0.71880    0.96030    0.12200    1.000
    O9       O        0.06990    0.24990    0.96470    1.000
    O10      O        0.03130    0.40650    0.89290    1.000
    O11      O        0.78950    0.55050    0.87290    1.000
    O12      O        0.88530    0.55740    0.75160    1.000
    O13      O        0.94690    0.26320    0.13000    1.000
    O14      O        0.81240    0.40130    0.06800    1.000
    O15      O        0.07520    0.07660    0.08800    1.000
    O16      O        0.97040    0.02900    0.18840    1.000
    O17      O        0.77800    0.24120    0.26800    1.000
    O18      O        0.68180    0.40840    0.25330    1.000
    O19      O        0.45110    0.55590    0.20710    1.000
    O20      O        0.55610    0.55400    0.09020    1.000
    O21      O        0.53150    0.60710    0.60270    1.000
    O22      O        0.38100    0.74510    0.56250    1.000
    O23      O        0.27480    0.96540    0.58330    1.000
    O24      O        0.38260    0.94550    0.46860    1.000
    O25      O        0.69360    0.38470    0.43560    1.000
    H13      H        0.74830    0.32770    0.44590    1.000
    H14      H        0.69120    0.41880    0.47040    1.000
    Ag7      Ag       0.23787    0.91289    0.73990    1.000
    Ag8      Ag       0.33020    0.46181    0.30488    1.000
    Ag9      Ag       0.57273    0.90667    0.40106    1.000
    Ag10     Ag       0.66491    0.46700    0.97256    1.000
    Ag11     Ag       0.08765    0.08627    0.92252    1.000
    Ag12     Ag       0.00006    0.53670    0.35714    1.000
    C37      C        0.27610    0.32470    0.53230    1.000
    C38      C        0.19070    0.41100    0.49370    1.000
    C39      C        0.21860    0.22630    0.48620    1.000
    H15      H        0.22470    0.16340    0.48370    1.000
    C40      C        0.13560    0.31260    0.44550    1.000
    H16      H        0.08890    0.30570    0.41500    1.000
    C41      C        0.16800    0.51920    0.49650    1.000
    C42      C        0.36020    0.32770    0.58000    1.000
    C43      C        0.16770    0.23940    0.72400    1.000
    C44      C        0.21050    0.13530    0.74600    1.000
    C45      C        0.08850    0.13560    0.66720    1.000
    H17      H        0.06040    0.10170    0.64510    1.000
    C46      C        0.04330    0.23970    0.64690    1.000
    H18      H        0.98390    0.27450    0.61310    1.000
    C47      C        0.21490    0.29810    0.75280    1.000
    C48      C        0.30560    0.07010    0.80440    1.000
    C49      C        0.48610    0.23740    0.37960    1.000
    C50      C        0.53650    0.13200    0.39930    1.000
    C51      C        0.36420    0.23050    0.30290    1.000
    H19      H        0.30420    0.26260    0.26960    1.000
    C52      C        0.41490    0.12720    0.32230    1.000
    H20      H        0.38860    0.09060    0.30180    1.000
    C53      C        0.52720    0.30060    0.40760    1.000
    C54      C        0.63600    0.06930    0.45400    1.000
    C55      C        0.13550    0.59290    0.18800    1.000
    C56      C        0.05400    0.68010    0.14320    1.000
    C57      C        0.19460    0.68920    0.23460    1.000
    H21      H        0.24270    0.69500    0.26450    1.000
    C58      C        0.11300    0.77560    0.19150    1.000
    H22      H        0.10640    0.83840    0.19490    1.000
    C59      C        0.15210    0.48580    0.18760    1.000
    C60      C        0.97740    0.67230    0.09130    1.000
    C61      C        0.16590    0.75610    0.95240    1.000
    C62      C        0.11230    0.86160    0.93450    1.000
    C63      C        0.28430    0.76310    0.03190    1.000
    H23      H        0.34360    0.73110    0.06590    1.000
    C64      C        0.23140    0.86600    0.01460    1.000
    H24      H        0.25540    0.90250    0.03750    1.000
    C65      C        0.13300    0.69020    0.91600    1.000
    C66      C        0.01330    0.92380    0.88060    1.000
    C67      C        0.46640    0.59300    0.84860    1.000
    C68      C        0.38350    0.68020    0.80590    1.000
    C69      C        0.52020    0.69210    0.89740    1.000
    H25      H        0.56520    0.69830    0.93010    1.000
    C70      C        0.44110    0.77740    0.85360    1.000
    H26      H        0.43660    0.84020    0.85440    1.000
    C71      C        0.48680    0.48500    0.84950    1.000
    C72      C        0.30110    0.67810    0.75670    1.000
    Gd3      Gd       0.24415    0.51869    0.67679    1.000
    Gd4      Gd       0.86788    0.79871    0.89634    1.000
    N13      N        0.12040    0.40470    0.44840    1.000
    N14      N        0.28960    0.23150    0.52860    1.000
    N15      N        0.08320    0.29110    0.67470    1.000
    N16      N        0.17140    0.08260    0.71780    1.000
    N17      N        0.37100    0.77250    0.81010    1.000
    N18      N        0.53290    0.60100    0.89370    1.000
    N19      N        0.50140    0.07750    0.37020    1.000
    N20      N        0.39930    0.28590    0.33090    1.000
    N21      N        0.20410    0.59840    0.23300    1.000
    N22      N        0.04450    0.77140    0.14590    1.000
    N23      N        0.25220    0.70750    0.00070    1.000
    N24      N        0.14580    0.91630    0.96560    1.000
    O26      O        0.12930    0.54740    0.56670    1.000
    O27      O        0.18110    0.57200    0.43110    1.000
    O28      O        0.35060    0.41560    0.57780    1.000
    O29      O        0.42480    0.24910    0.61930    1.000
    O30      O        0.19080    0.38650    0.71080    1.000
    O31      O        0.26930    0.25730    0.81490    1.000
    O32      O        0.39900    0.04810    0.77120    1.000
    O33      O        0.28120    0.03970    0.87800    1.000
    O34      O        0.93010    0.75010    0.03530    1.000
    O35      O        0.96870    0.59350    0.10710    1.000
    O36      O        0.21050    0.44950    0.12710    1.000
    O37      O        0.11470    0.44260    0.24840    1.000
    O38      O        0.05310    0.73680    0.87000    1.000
    O39      O        0.18760    0.59870    0.93200    1.000
    O40      O        0.92480    0.92340    0.91200    1.000
    O41      O        0.02960    0.97100    0.81160    1.000
    O42      O        0.22200    0.75880    0.73200    1.000
    O43      O        0.31820    0.59160    0.74670    1.000
    O44      O        0.54890    0.44410    0.79290    1.000
    O45      O        0.44390    0.44600    0.90980    1.000
    O46      O        0.46850    0.39290    0.39730    1.000
    O47      O        0.61900    0.25490    0.43750    1.000
    O48      O        0.72520    0.03460    0.41670    1.000
    O49      O        0.61740    0.05450    0.53140    1.000
    O50      O        0.30640    0.61530    0.56440    1.000
    H27      H        0.25170    0.67230    0.55410    1.000
    H28      H        0.30880    0.58120    0.52960    1.000
