# CIF file generated by openbabel 3.1.0, see https://openbabel.org
data_I
_chemical_name_common 'WOPDEL_clean'
_cell_length_a 13.5583
_cell_length_b 13.9094
_cell_length_c 16.28
_cell_angle_alpha 107.802
_cell_angle_beta 90
_cell_angle_gamma 119.169
_space_group_name_H-M_alt 'P 1'
_space_group_name_Hall 'P 1'
loop_
    _symmetry_equiv_pos_as_xyz
    x,y,z
loop_
    _atom_site_label
    _atom_site_type_symbol
    _atom_site_fract_x
    _atom_site_fract_y
    _atom_site_fract_z
    _atom_site_occupancy
    Mn1      Mn       0.97022    0.41082    0.86424    1.000
    Mn2      Mn       0.55940    0.58918    0.63576    1.000
    Mn3      Mn       0.02978    0.58918    0.13576    1.000
    Mn4      Mn       0.44060    0.41082    0.36424    1.000
    H1       H        0.01370    0.37140    0.31170    1.000
    H2       H        0.01040    0.25220    0.29250    1.000
    H3       H        0.90810    0.25380    0.24940    1.000
    H4       H        0.79220    0.32000    0.43580    1.000
    H5       H        0.90060    0.42620    0.42300    1.000
    H6       H        0.80320    0.33000    0.34250    1.000
    H7       H        0.76100    0.11920    0.30690    1.000
    H8       H        0.85120    0.09760    0.34570    1.000
    H9       H        0.77750    0.13580    0.40660    1.000
    H10      H        0.19490    0.40500    0.66170    1.000
    H11      H        0.13320    0.34400    0.40550    1.000
    H12      H        0.88020    0.28940    0.54350    1.000
    H13      H        0.23000    0.51520    0.84200    1.000
    H14      H        0.39360    0.67940    0.84630    1.000
    H15      H        0.23180    0.85800    0.91900    1.000
    H16      H        0.07520    0.69120    0.91170    1.000
    H17      H        0.42410    0.96260    0.89920    1.000
    H18      H        0.54500    0.84920    0.85170    1.000
    H19      H        0.70290    0.28420    0.86810    1.000
    H20      H        0.55140    0.12000    0.87020    1.000
    H21      H        0.75120    0.98120    0.86220    1.000
    H22      H        0.90010    0.15500    0.86270    1.000
    H23      H        0.64230    0.62860    0.18830    1.000
    H24      H        0.75820    0.74780    0.20750    1.000
    H25      H        0.65430    0.74620    0.25060    1.000
    H26      H        0.47220    0.68000    0.06420    1.000
    H27      H        0.47440    0.57380    0.07700    1.000
    H28      H        0.47320    0.67000    0.15750    1.000
    H29      H        0.64180    0.88080    0.19310    1.000
    H30      H        0.75360    0.90240    0.15430    1.000
    H31      H        0.64170    0.86420    0.09340    1.000
    H32      H        0.78990    0.59500    0.83830    1.000
    H33      H        0.78920    0.65600    0.09450    1.000
    H34      H        0.59080    0.71060    0.95650    1.000
    H35      H        0.71480    0.48480    0.65800    1.000
    H36      H        0.71420    0.32060    0.65370    1.000
    H37      H        0.37380    0.14200    0.58100    1.000
    H38      H        0.38400    0.30880    0.58830    1.000
    H39      H        0.46150    0.03740    0.60080    1.000
    H40      H        0.69580    0.15080    0.64830    1.000
    H41      H        0.41870    0.71580    0.63190    1.000
    H42      H        0.43140    0.88000    0.62980    1.000
    H43      H        0.77000    0.01880    0.63780    1.000
    H44      H        0.74510    0.84500    0.63730    1.000
    H45      H        0.98630    0.62860    0.68830    1.000
    H46      H        0.98960    0.74780    0.70750    1.000
    H47      H        0.09190    0.74620    0.75060    1.000
    H48      H        0.20780    0.68000    0.56420    1.000
    H49      H        0.09940    0.57380    0.57700    1.000
    H50      H        0.19680    0.67000    0.65750    1.000
    H51      H        0.23900    0.88080    0.69310    1.000
    H52      H        0.14880    0.90240    0.65430    1.000
    H53      H        0.22250    0.86420    0.59340    1.000
    H54      H        0.80510    0.59500    0.33830    1.000
    H55      H        0.86680    0.65600    0.59450    1.000
    H56      H        0.11980    0.71060    0.45650    1.000
    H57      H        0.77000    0.48480    0.15800    1.000
    H58      H        0.60640    0.32060    0.15370    1.000
    H59      H        0.76820    0.14200    0.08100    1.000
    H60      H        0.92480    0.30880    0.08830    1.000
    H61      H        0.57590    0.03740    0.10080    1.000
    H62      H        0.45500    0.15080    0.14830    1.000
    H63      H        0.29710    0.71580    0.13190    1.000
    H64      H        0.44860    0.88000    0.12980    1.000
    H65      H        0.24880    0.01880    0.13780    1.000
    H66      H        0.09990    0.84500    0.13730    1.000
    H67      H        0.35770    0.37140    0.81170    1.000
    H68      H        0.24180    0.25220    0.79250    1.000
    H69      H        0.34570    0.25380    0.74940    1.000
    H70      H        0.52780    0.32000    0.93580    1.000
    H71      H        0.52560    0.42620    0.92300    1.000
    H72      H        0.52680    0.33000    0.84250    1.000
    H73      H        0.35820    0.11920    0.80690    1.000
    H74      H        0.24640    0.09760    0.84570    1.000
    H75      H        0.35830    0.13580    0.90660    1.000
    H76      H        0.21010    0.40500    0.16170    1.000
    H77      H        0.21080    0.34400    0.90550    1.000
    H78      H        0.40920    0.28940    0.04350    1.000
    H79      H        0.28520    0.51520    0.34200    1.000
    H80      H        0.28580    0.67940    0.34630    1.000
    H81      H        0.62620    0.85800    0.41900    1.000
    H82      H        0.61600    0.69120    0.41170    1.000
    H83      H        0.53850    0.96260    0.39920    1.000
    H84      H        0.30420    0.84920    0.35170    1.000
    H85      H        0.58130    0.28420    0.36810    1.000
    H86      H        0.56860    0.12000    0.37020    1.000
    H87      H        0.23000    0.98120    0.36220    1.000
    H88      H        0.25490    0.15500    0.36270    1.000
    C1       C        0.96500    0.28900    0.30100    1.000
    C2       C        0.84470    0.34400    0.39670    1.000
    C3       C        0.81580    0.14460    0.35750    1.000
    C4       C        0.03190    0.34740    0.61530    1.000
    C5       C        0.14480    0.38380    0.61190    1.000
    C6       C        0.18420    0.38900    0.53480    1.000
    C7       C        0.10740    0.34860    0.45870    1.000
    C8       C        0.99430    0.31580    0.46060    1.000
    C9       C        0.95680    0.31380    0.54050    1.000
    C10      C        0.98890    0.34360    0.70040    1.000
    C11      C        0.31010    0.43600    0.53170    1.000
    C12      C        0.90660    0.27220    0.37840    1.000
    C13      C        0.23030    0.58560    0.85760    1.000
    C14      C        0.32900    0.68400    0.85970    1.000
    C15      C        0.33420    0.78900    0.88120    1.000
    C16      C        0.23350    0.78880    0.90230    1.000
    C17      C        0.14070    0.68860    0.89830    1.000
    C18      C        0.43210    0.89700    0.88360    1.000
    C19      C        0.53410    0.91300    0.86570    1.000
    C20      C        0.71390    0.22320    0.86800    1.000
    C21      C        0.62200    0.12440    0.86870    1.000
    C22      C        0.63070    0.02760    0.86730    1.000
    C23      C        0.73900    0.04200    0.86430    1.000
    C24      C        0.82830    0.14780    0.86460    1.000
    C25      C        0.67600    0.71100    0.19900    1.000
    C26      C        0.50070    0.65600    0.10330    1.000
    C27      C        0.67120    0.85540    0.14250    1.000
    C28      C        0.68450    0.65260    0.88470    1.000
    C29      C        0.76100    0.61620    0.88810    1.000
    C30      C        0.79520    0.61100    0.96520    1.000
    C31      C        0.75880    0.65140    0.04130    1.000
    C32      C        0.67850    0.68420    0.03940    1.000
    C33      C        0.64300    0.68620    0.95950    1.000
    C34      C        0.64530    0.65640    0.79960    1.000
    C35      C        0.87410    0.56400    0.96830    1.000
    C36      C        0.63440    0.72780    0.12160    1.000
    C37      C        0.64470    0.41440    0.64240    1.000
    C38      C        0.64500    0.31600    0.64030    1.000
    C39      C        0.54520    0.21100    0.61880    1.000
    C40      C        0.44470    0.21120    0.59770    1.000
    C41      C        0.45210    0.31140    0.60170    1.000
    C42      C        0.53510    0.10300    0.61640    1.000
    C43      C        0.62110    0.08700    0.63430    1.000
    C44      C        0.49070    0.77680    0.63200    1.000
    C45      C        0.49760    0.87560    0.63130    1.000
    C46      C        0.60310    0.97240    0.63270    1.000
    C47      C        0.69700    0.95800    0.63570    1.000
    C48      C        0.68050    0.85220    0.63540    1.000
    C49      C        0.03500    0.71100    0.69900    1.000
    C50      C        0.15530    0.65600    0.60330    1.000
    C51      C        0.18420    0.85540    0.64250    1.000
    C52      C        0.96810    0.65260    0.38470    1.000
    C53      C        0.85520    0.61620    0.38810    1.000
    C54      C        0.81580    0.61100    0.46520    1.000
    C55      C        0.89260    0.65140    0.54130    1.000
    C56      C        0.00570    0.68420    0.53940    1.000
    C57      C        0.04320    0.68620    0.45950    1.000
    C58      C        0.01110    0.65640    0.29960    1.000
    C59      C        0.68990    0.56400    0.46830    1.000
    C60      C        0.09340    0.72780    0.62160    1.000
    C61      C        0.76970    0.41440    0.14240    1.000
    C62      C        0.67100    0.31600    0.14030    1.000
    C63      C        0.66580    0.21100    0.11880    1.000
    C64      C        0.76650    0.21120    0.09770    1.000
    C65      C        0.85930    0.31140    0.10170    1.000
    C66      C        0.56790    0.10300    0.11640    1.000
    C67      C        0.46590    0.08700    0.13430    1.000
    C68      C        0.28610    0.77680    0.13200    1.000
    C69      C        0.37800    0.87560    0.13130    1.000
    C70      C        0.36930    0.97240    0.13270    1.000
    C71      C        0.26100    0.95800    0.13570    1.000
    C72      C        0.17170    0.85220    0.13540    1.000
    C73      C        0.32400    0.28900    0.80100    1.000
    C74      C        0.49930    0.34400    0.89670    1.000
    C75      C        0.32880    0.14460    0.85750    1.000
    C76      C        0.31550    0.34740    0.11530    1.000
    C77      C        0.23900    0.38380    0.11190    1.000
    C78      C        0.20480    0.38900    0.03480    1.000
    C79      C        0.24120    0.34860    0.95870    1.000
    C80      C        0.32150    0.31580    0.96060    1.000
    C81      C        0.35700    0.31380    0.04050    1.000
    C82      C        0.35470    0.34360    0.20040    1.000
    C83      C        0.12590    0.43600    0.03170    1.000
    C84      C        0.36560    0.27220    0.87840    1.000
    C85      C        0.35530    0.58560    0.35760    1.000
    C86      C        0.35500    0.68400    0.35970    1.000
    C87      C        0.45480    0.78900    0.38120    1.000
    C88      C        0.55530    0.78880    0.40230    1.000
    C89      C        0.54790    0.68860    0.39830    1.000
    C90      C        0.46490    0.89700    0.38360    1.000
    C91      C        0.37890    0.91300    0.36570    1.000
    C92      C        0.50930    0.22320    0.36800    1.000
    C93      C        0.50240    0.12440    0.36870    1.000
    C94      C        0.39690    0.02760    0.36730    1.000
    C95      C        0.30300    0.04200    0.36430    1.000
    C96      C        0.31950    0.14780    0.36460    1.000
    N1       N        0.13370    0.58400    0.87650    1.000
    N2       N        0.82100    0.24200    0.86720    1.000
    N3       N        0.54970    0.41600    0.62350    1.000
    N4       N        0.57900    0.75800    0.63280    1.000
    N5       N        0.86630    0.41600    0.12350    1.000
    N6       N        0.17900    0.75800    0.13280    1.000
    N7       N        0.45030    0.58400    0.37650    1.000
    N8       N        0.42100    0.24200    0.36720    1.000
    O1       O        0.04100    0.33000    0.75670    1.000
    O2       O        0.90800    0.36080    0.71640    1.000
    O3       O        0.33510    0.40000    0.45780    1.000
    O4       O        0.38060    0.50420    0.60250    1.000
    O5       O        0.71100    0.67000    0.74330    1.000
    O6       O        0.54720    0.63920    0.78360    1.000
    O7       O        0.93510    0.60000    0.04220    1.000
    O8       O        0.87640    0.49580    0.89750    1.000
    O9       O        0.95900    0.67000    0.24330    1.000
    O10      O        0.09200    0.63920    0.28360    1.000
    O11      O        0.66490    0.60000    0.54220    1.000
    O12      O        0.61940    0.49580    0.39750    1.000
    O13      O        0.28900    0.33000    0.25670    1.000
    O14      O        0.45280    0.36080    0.21640    1.000
    O15      O        0.06490    0.40000    0.95780    1.000
    O16      O        0.12360    0.50420    0.10250    1.000
