data_functionalizedCrystal
_audit_creation_method	'EQeq! by Chris Wilmer'
_symmetry_space_group_name_H-M	'P1'
_symmetry_Int_Tables_number	1
_symmetry_cell_setting	triclinic
loop_
_symmetry_equiv_pos_as_xyz
  x,y,z
_cell_length_a	10.7435
_cell_length_b	21.4819
_cell_length_c	10.7721
_cell_angle_alpha	90
_cell_angle_beta	105.113
_cell_angle_gamma	90
loop_
_atom_site_label
_atom_site_type_symbol
_atom_site_fract_x
_atom_site_fract_y
_atom_site_fract_z
_atom_site_charge
Mof_In	In	0.32147	0.05807	0.18607	1.962
Mof_O 	O 	0.4391	0.99006	0.3013	-0.707
Mof_O 	O 	0.2006	0.9899	0.0764	-0.626
Mof_O 	O 	0.209	0.06516	0.3243	-0.656
Mof_O 	O 	0.3169	0.03503	0.522	-0.659
Mof_O 	O 	0.038	0.03902	0.8273	-0.519
Mof_O 	O 	0.8552	0.09424	0.7579	-0.288
Mof_O 	O 	0.9974	0.09392	0.0728	-0.484
Mof_O 	O 	0.1966	0.13321	0.096	-0.598
Mof_O 	O 	0.4426	0.13327	0.2869	-0.615
Mof_O 	O 	0.5632	0.09353	0.4726	-0.66
Mof_O 	O 	0.1038	0.06302	0.6082	-0.195
Mof_C 	C 	0.2178	0.0555	0.4411	0.536
Mof_C 	C 	0.1011	0.0697	0.4814	-0.185
Mof_C 	C 	0.983	0.0869	0.4136	0.175
Mof_H 	H 	0.9563	0.0932	0.3252	-0.02
Mof_C 	C 	0.907	0.0937	0.5015	-0.182
Mof_H 	H 	0.8215	0.1065	0.4835	0.085
Mof_C 	C 	0.983	0.0779	0.6153	0.103
Mof_C 	C 	0.9555	0.0709	0.7444	0.363
Mof_C 	C 	0.0768	0.1372	0.0756	0.405
Mof_C 	C 	0.0181	0.1991	0.0497	-0.197
Mof_C 	C 	0.9008	0.2176	0.9679	0.234
Mof_H 	H 	0.8354	0.1917	0.9222	-0.004
Mof_C 	C 	0.5221	0.1375	0.3952	0.493
Mof_C 	C 	0.5745	0.1994	0.4411	-0.039
Mof_C 	C 	0.663	0.2175	0.5475	-0.025
Mof_H 	H 	0.7145	0.1917	0.6094	0.059
Mof_C 	C 	0.8958	0.2173	0.066	-0.121
Mof_H 	H 	0.8295	0.1912	0.0744	0.046
Mof_In	In	0.67853	0.55807	0.81393	2.46
Mof_O 	O 	0.5609	0.49006	0.6987	-0.915
Mof_O 	O 	0.7994	0.4899	0.9236	-0.75
Mof_O 	O 	0.791	0.56516	0.6757	-0.669
Mof_O 	O 	0.6831	0.53503	0.478	-0.697
Mof_O 	O 	0.962	0.53902	0.1727	-0.495
Mof_O 	O 	0.1448	0.59424	0.2421	-0.314
Mof_O 	O 	0.0026	0.59392	0.9272	-0.599
Mof_O 	O 	0.8034	0.63321	0.904	-0.628
Mof_O 	O 	0.5574	0.63327	0.7131	-0.667
Mof_O 	O 	0.4368	0.59353	0.5274	-0.72
Mof_O 	O 	0.8962	0.56302	0.3918	-0.13
Mof_C 	C 	0.7822	0.5555	0.5589	0.522
Mof_C 	C 	0.8989	0.5697	0.5186	0.032
Mof_C 	C 	0.017	0.5869	0.5864	-0.123
Mof_H 	H 	0.0437	0.5932	0.6748	0.069
Mof_C 	C 	0.093	0.5937	0.4985	0.008
Mof_H 	H 	0.1785	0.6065	0.5165	0.028
Mof_C 	C 	0.017	0.5779	0.3847	-0.054
Mof_C 	C 	0.0445	0.5709	0.2556	0.28
Mof_C 	C 	0.9232	0.6372	0.9244	0.516
Mof_C 	C 	0.9819	0.6991	0.9503	0.131
Mof_C 	C 	0.0992	0.7176	0.0321	-0.295
Mof_H 	H 	0.1646	0.6917	0.0778	0.095
Mof_C 	C 	0.4779	0.6375	0.6048	0.544
Mof_C 	C 	0.4255	0.6994	0.5589	-0.058
Mof_C 	C 	0.337	0.7175	0.4525	-0.016
Mof_H 	H 	0.2855	0.6917	0.3906	0.042
Mof_C 	C 	0.1042	0.7173	0.934	0.125
Mof_H 	H 	0.1705	0.6912	0.9256	0.011
Mof_In	In	0.67853	0.94193	0.81393	2.797
Mof_O 	O 	0.5609	0.00994	0.6987	-0.959
Mof_O 	O 	0.7994	0.0101	0.9236	-0.794
Mof_O 	O 	0.791	0.93484	0.6757	-0.661
Mof_O 	O 	0.6831	0.96497	0.478	-0.576
Mof_O 	O 	0.962	0.96098	0.1727	-0.361
Mof_O 	O 	0.1448	0.90576	0.2421	-0.278
Mof_O 	O 	0.0026	0.90608	0.9272	-0.496
Mof_O 	O 	0.8034	0.86679	0.904	-0.648
Mof_O 	O 	0.5574	0.86673	0.7131	-0.684
Mof_O 	O 	0.4368	0.90647	0.5274	-0.611
Mof_O 	O 	0.8962	0.93698	0.3918	-0.114
Mof_C 	C 	0.7822	0.9445	0.5589	0.522
Mof_C 	C 	0.8989	0.9303	0.5186	0.054
Mof_C 	C 	0.017	0.9131	0.5864	-0.105
Mof_H 	H 	0.0437	0.9068	0.6748	0.085
Mof_C 	C 	0.093	0.9063	0.4985	0.013
Mof_H 	H 	0.1785	0.8935	0.5165	0.045
Mof_C 	C 	0.017	0.9221	0.3847	-0.02
Mof_C 	C 	0.0445	0.9291	0.2556	0.265
Mof_C 	C 	0.9232	0.8628	0.9244	0.497
Mof_C 	C 	0.9819	0.8009	0.9503	0.139
Mof_C 	C 	0.0992	0.7824	0.0321	-0.319
Mof_H 	H 	0.1646	0.8083	0.0778	0.107
Mof_C 	C 	0.4779	0.8625	0.6048	0.527
Mof_C 	C 	0.4255	0.8006	0.5589	-0.046
Mof_C 	C 	0.337	0.7825	0.4525	-0.028
Mof_H 	H 	0.2855	0.8083	0.3906	0.049
Mof_C 	C 	0.1042	0.7827	0.934	0.139
Mof_H 	H 	0.1705	0.8088	0.9256	0.01
Mof_In	In	0.32147	0.44193	0.18607	2.326
Mof_O 	O 	0.4391	0.50994	0.3013	-0.921
Mof_O 	O 	0.2006	0.5101	0.0764	-0.845
Mof_O 	O 	0.209	0.43484	0.3243	-0.694
Mof_O 	O 	0.3169	0.46497	0.522	-0.702
Mof_O 	O 	0.038	0.46098	0.8273	-0.547
Mof_O 	O 	0.8552	0.40576	0.7579	-0.291
Mof_O 	O 	0.9974	0.40608	0.0728	-0.546
Mof_O 	O 	0.1966	0.36679	0.096	-0.652
Mof_O 	O 	0.4426	0.36673	0.2869	-0.667
Mof_O 	O 	0.5632	0.40647	0.4726	-0.717
Mof_O 	O 	0.1038	0.43698	0.6082	-0.171
Mof_C 	C 	0.2178	0.4445	0.4411	0.592
Mof_C 	C 	0.1011	0.4303	0.4814	-0.184
Mof_C 	C 	0.983	0.4131	0.4136	0.195
Mof_H 	H 	0.9563	0.4068	0.3252	-0.014
Mof_C 	C 	0.907	0.4063	0.5015	-0.168
Mof_H 	H 	0.8215	0.3935	0.4835	0.092
Mof_C 	C 	0.983	0.4221	0.6153	0.112
Mof_C 	C 	0.9555	0.4291	0.7444	0.385
Mof_C 	C 	0.0768	0.3628	0.0756	0.445
Mof_C 	C 	0.0181	0.3009	0.0497	-0.211
Mof_C 	C 	0.9008	0.2824	0.9679	0.242
Mof_H 	H 	0.8354	0.3083	0.9222	-0.008
Mof_C 	C 	0.5221	0.3625	0.3952	0.538
Mof_C 	C 	0.5745	0.3006	0.4411	-0.057
Mof_C 	C 	0.663	0.2825	0.5475	-0.007
Mof_H 	H 	0.7145	0.3083	0.6094	0.053
Mof_C 	C 	0.8958	0.2827	0.066	-0.12
Mof_H 	H 	0.8295	0.3088	0.0744	0.048
Mof_In	In	-0	0	-0	1.646
Mof_In	In	-0	0.5	-0	2.159
Mof_In	In	0.5	2.62941e-33	0.5	2.385
Mof_In	In	0.5	0.5	0.5	2.887
Mof_O 	O 	0.0954	0.25	0.0801	-0.095
Mof_O 	O 	0.5175	0.25	0.3713	-0.141
Mof_O 	O 	0.9046	0.75	0.9199	-0.18
Mof_O 	O 	0.4825	0.75	0.6287	-0.13
_end
