# CIF file generated by openbabel 3.1.0, see https://openbabel.org
data_I
_chemical_name_common 'image0'
_cell_length_a 21.9124
_cell_length_b 36.701
_cell_length_c 38.7102
_cell_angle_alpha 90
_cell_angle_beta 100.599
_cell_angle_gamma 90
_space_group_name_H-M_alt 'P 1'
_space_group_name_Hall 'P 1'
loop_
    _symmetry_equiv_pos_as_xyz
    x,y,z
loop_
    _atom_site_label
    _atom_site_type_symbol
    _atom_site_fract_x
    _atom_site_fract_y
    _atom_site_fract_z
    _atom_site_occupancy
    Zn1      Zn       0.36950    0.03968    0.03160    1.000
    Zn2      Zn       0.37437    0.08812    0.11523    1.000
    Zn3      Zn       0.84229    0.58617    0.21153    1.000
    N1       N        0.32980    0.75021    0.16977    1.000
    N2       N        0.87630    0.20115    0.05644    1.000
    N3       N        0.38630    0.03916    0.98074    1.000
    N4       N        0.36770    0.93618    0.76101    1.000
    O1       O        0.79180    0.64060    0.23010    1.000
    O2       O        0.79680    0.48676    0.02735    1.000
    O3       O        0.75540    0.59970    0.19456    1.000
    O4       O        0.34120    0.03857    0.18788    1.000
    O5       O        0.89760    0.49129    0.04908    1.000
    O6       O        0.92336    0.61038    0.21186    1.000
    O7       O        0.39030    0.03807    0.14426    1.000
    O8       O        0.88700    0.61956    0.15558    1.000
    O9       O        0.31038    0.06235    0.08314    1.000
    O10      O        0.44746    0.06799    0.04830    1.000
    O11      O        0.45986    0.08332    0.10437    1.000
    O12      O        0.29644    0.07195    0.02585    1.000
    C1       C        0.67820    0.67800    0.21810    1.000
    H1       H        0.71370    0.68940    0.23020    1.000
    C2       C        0.39260    0.06890    0.92680    1.000
    H2       H        0.37830    0.08760    0.91110    1.000
    C3       C        0.58040    0.64910    0.17870    1.000
    H3       H        0.54910    0.63960    0.16160    1.000
    C4       C        0.30540    0.81050    0.18940    1.000
    H4       H        0.28300    0.79980    0.20490    1.000
    C5       C        0.43400    0.02750    0.85664    1.000
    H5       H        0.41480    0.03830    0.83570    1.000
    C6       C        0.46310    0.04970    0.88670    1.000
    H6       H        0.45970    0.07520    0.87990    1.000
    H7       H        0.50690    0.04380    0.89240    1.000
    C7       C        0.43490    0.04480    0.91970    1.000
    C8       C        0.43610    0.98820    0.86035    1.000
    H8       H        0.41180    0.98110    0.87780    1.000
    H9       H        0.47870    0.98080    0.86890    1.000
    C9       C        0.44780    0.96160    0.80320    1.000
    H10      H        0.48980    0.96730    0.80900    1.000
    C10      C        0.34190    0.92740    0.19500    1.000
    H11      H        0.33170    0.91610    0.21460    1.000
    C11      C        0.37400    0.84320    0.14630    1.000
    H12      H        0.39950    0.85360    0.13230    1.000
    C12      C        0.45200    0.01810    0.94290    1.000
    H13      H        0.48110    0.00090    0.93890    1.000
    C13      C        0.34630    0.96440    0.19490    1.000
    H14      H        0.33920    0.97770    0.21420    1.000
    C14      C        0.68400    0.64360    0.20435    1.000
    C15      C        0.63680    0.63180    0.18390    1.000
    H15      H        0.64030    0.61030    0.17170    1.000
    C16      C        0.92310    0.26064    0.06960    1.000
    H16      H        0.95950    0.24970    0.08100    1.000
    C17      C        0.49520    0.72790    0.20450    1.000
    H17      H        0.52740    0.73850    0.22030    1.000
    C18      C        0.42530    0.94670    0.77120    1.000
    H18      H        0.45260    0.94380    0.75560    1.000
    C19      C        0.39840    0.69830    0.16260    1.000
    H19      H        0.36520    0.68770    0.14750    1.000
    C20      C        0.38940    0.73090    0.17780    1.000
    C21      C        0.36550    0.80530    0.14560    1.000
    H20      H        0.38250    0.79110    0.12980    1.000
    C22      C        0.34510    0.86550    0.16751    1.000
    C23      C        0.37060    0.06524    0.95880    1.000
    H21      H        0.34310    0.08270    0.96420    1.000
    C24      C        0.84790    0.47312    0.04004    1.000
    C25      C        0.56700    0.67800    0.19583    1.000
    C26      C        0.03720    0.64312    0.20788    1.000
    H22      H        0.03330    0.63080    0.22830    1.000
    C27      C        0.09160    0.66019    0.20605    1.000
    H23      H        0.12450    0.65860    0.22500    1.000
    C28      C        0.62250    0.69630    0.21460    1.000
    H24      H        0.62030    0.71950    0.22400    1.000
    C29      C        0.74690    0.62650    0.20990    1.000
    C30      C        0.35280    0.95590    0.81660    1.000
    H25      H        0.32510    0.95860    0.83190    1.000
    C31      C        0.43890    0.74570    0.19810    1.000
    H26      H        0.43530    0.76850    0.20810    1.000
    C32      C        0.41150    0.96804    0.82607    1.000
    C33      C        0.16290    0.72984    0.15489    1.000
    H27      H        0.12620    0.73980    0.14270    1.000
    C34      C        0.21470    0.68340    0.19220    1.000
    H28      H        0.21410    0.66160    0.20440    1.000
    C35      C        0.33340    0.93960    0.78490    1.000
    H29      H        0.29320    0.93040    0.78010    1.000
    C36      C        0.27100    0.70180    0.19170    1.000
    H30      H        0.30720    0.69310    0.20560    1.000
    C37      C        0.50620    0.69660    0.18967    1.000
    C38      C        0.45250    0.68120    0.16840    1.000
    H31      H        0.45560    0.65840    0.15820    1.000
    C39      C        0.35210    0.90550    0.16709    1.000
    C40      C        0.21720    0.74647    0.15300    1.000
    H32      H        0.21740    0.76750    0.13970    1.000
    C41      C        0.86730    0.31553    0.05112    1.000
    C42      C        0.04840    0.68150    0.14912    1.000
    H33      H        0.05100    0.69550    0.12940    1.000
    C43      C        0.80150    0.41103    0.04363    1.000
    H34      H        0.76280    0.42220    0.04090    1.000
    C44      C        0.92030    0.29843    0.06740    1.000
    H35      H        0.95480    0.31220    0.07720    1.000
    C45      C        0.27420    0.73182    0.17133    1.000
    C46      C        0.13760    0.11088    0.08512    1.000
    H36      H        0.12040    0.11080    0.10540    1.000
    C47      C        0.99420    0.66289    0.15037    1.000
    H37      H        0.96190    0.66330    0.13110    1.000
    C48      C        0.42720    0.01600    0.97223    1.000
    H38      H        0.43990    0.99690    0.98760    1.000
    C49      C        0.81800    0.29483    0.03686    1.000
    H39      H        0.78150    0.30610    0.02610    1.000
    C50      C        0.37080    0.92450    0.13951    1.000
    H40      H        0.37980    0.91150    0.12040    1.000
    C51      C        0.31060    0.84820    0.18860    1.000
    H41      H        0.28990    0.86210    0.20290    1.000
    C52      C        0.91620    0.37787    0.05180    1.000
    H42      H        0.95540    0.36730    0.05460    1.000
    C53      C        0.86370    0.35590    0.05009    1.000
    C54      C        0.97140    0.19324    0.03340    1.000
    H43      H        0.96030    0.21280    0.01830    1.000
    C55      C        0.85270    0.43126    0.04486    1.000
    C56      C        0.75490    0.13032    0.04542    1.000
    H44      H        0.74500    0.10910    0.03260    1.000
    C57      C        0.82290    0.18181    0.06058    1.000
    C58      C        0.36120    0.98216    0.16639    1.000
    C59      C        0.09930    0.68003    0.17626    1.000
    C60      C        0.33200    0.78915    0.16820    1.000
    C61      C        0.80690    0.14980    0.04144    1.000
    H45      H        0.83150    0.14160    0.02590    1.000
    C62      C        0.00490    0.13476    0.07804    1.000
    H46      H        0.01510    0.11480    0.09280    1.000
    C63      C        0.15990    0.69880    0.17417    1.000
    C64      C        0.63700    0.12079    0.10284    1.000
    H47      H        0.66200    0.12900    0.12340    1.000
    C65      C        0.18360    0.10657    0.02490    1.000
    H48      H        0.19750    0.10400    0.00370    1.000
    C66      C        0.73300    0.17341    0.08739    1.000
    H49      H        0.70860    0.18130    0.10320    1.000
    C67      C        0.37630    0.96183    0.13978    1.000
    H50      H        0.39060    0.97340    0.12140    1.000
    C68      C        0.62130    0.10785    0.04100    1.000
    H51      H        0.63500    0.10810    0.01960    1.000
    C69      C        0.80620    0.37382    0.04633    1.000
    H52      H        0.77040    0.36010    0.04570    1.000
    C70      C        0.91010    0.41527    0.04927    1.000
    H53      H        0.94530    0.42970    0.05060    1.000
    C71      C        0.98760    0.64366    0.18015    1.000
    C72      C        0.87400    0.23913    0.05532    1.000
    C73      C        0.93290    0.18193    0.05560    1.000
    C74      C        0.82090    0.25646    0.03805    1.000
    H54      H        0.78700    0.24280    0.02720    1.000
    C75      C        0.02690    0.17505    0.03390    1.000
    H55      H        0.05270    0.18290    0.01890    1.000
    C76      C        0.78480    0.19356    0.08338    1.000
    H56      H        0.79410    0.21500    0.09600    1.000
    C77      C        0.65800    0.12338    0.07103    1.000
    C78      C        0.47810    0.07942    0.07566    1.000
    C79      C        0.19480    0.09468    0.08659    1.000
    H57      H        0.21710    0.08570    0.10760    1.000
    C80      C        0.04580    0.14551    0.05584    1.000
    C81      C        0.95100    0.15279    0.07849    1.000
    H58      H        0.92580    0.14570    0.09420    1.000
    C82      C        0.54260    0.09239    0.07465    1.000
    C83      C        0.92930    0.62293    0.18250    1.000
    C84      C        0.10420    0.12715    0.05541    1.000
    C85      C        0.36510    0.02270    0.16604    1.000
    C86      C        0.21820    0.09227    0.05525    1.000
    C87      C        0.71690    0.14204    0.06850    1.000
    C88      C        0.56430    0.09211    0.04338    1.000
    H59      H        0.54070    0.08130    0.02360    1.000
    C89      C        0.57980    0.10633    0.10414    1.000
    H60      H        0.56580    0.10590    0.12540    1.000
    C90      C        0.27990    0.07463    0.05480    1.000
    C91      C        0.12900    0.12447    0.02553    1.000
    H61      H        0.10800    0.13520    0.00500    1.000
    Zn4      Zn       0.38560    0.07550    0.11820    1.000
    Zn5      Zn       0.86950    0.53968    0.03160    1.000
    Zn6      Zn       0.87437    0.58812    0.11523    1.000
    Zn7      Zn       0.34229    0.08617    0.21153    1.000
    N5       N        0.82980    0.25021    0.16977    1.000
    N6       N        0.37630    0.70115    0.05644    1.000
    N7       N        0.88630    0.53916    0.98074    1.000
    N8       N        0.86770    0.43618    0.76101    1.000
    O13      O        0.29180    0.14060    0.23010    1.000
    O14      O        0.29680    0.98676    0.02735    1.000
    O15      O        0.25540    0.09970    0.19456    1.000
    O16      O        0.84120    0.53857    0.18788    1.000
    O17      O        0.39760    0.99129    0.04908    1.000
    O18      O        0.42336    0.11038    0.21186    1.000
    O19      O        0.89030    0.53807    0.14426    1.000
    O20      O        0.38700    0.11956    0.15558    1.000
    O21      O        0.81038    0.56235    0.08314    1.000
    O22      O        0.94746    0.56799    0.04830    1.000
    O23      O        0.95986    0.58332    0.10437    1.000
    O24      O        0.79644    0.57195    0.02585    1.000
    C92      C        0.17820    0.17800    0.21810    1.000
    H62      H        0.21370    0.18940    0.23020    1.000
    C93      C        0.89260    0.56890    0.92680    1.000
    H63      H        0.87830    0.58760    0.91110    1.000
    C94      C        0.08040    0.14910    0.17870    1.000
    H64      H        0.04910    0.13960    0.16160    1.000
    C95      C        0.80540    0.31050    0.18940    1.000
    H65      H        0.78300    0.29980    0.20490    1.000
    C96      C        0.93400    0.52750    0.85664    1.000
    H66      H        0.91480    0.53830    0.83570    1.000
    C97      C        0.96310    0.54970    0.88670    1.000
    H67      H        0.95970    0.57520    0.87990    1.000
    H68      H        0.00690    0.54380    0.89240    1.000
    C98      C        0.93490    0.54480    0.91970    1.000
    C99      C        0.93610    0.48820    0.86035    1.000
    H69      H        0.91180    0.48110    0.87780    1.000
    H70      H        0.97870    0.48080    0.86890    1.000
    C100     C        0.94780    0.46160    0.80320    1.000
    H71      H        0.98980    0.46730    0.80900    1.000
    C101     C        0.84190    0.42740    0.19500    1.000
    H72      H        0.83170    0.41610    0.21460    1.000
    C102     C        0.87400    0.34320    0.14630    1.000
    H73      H        0.89950    0.35360    0.13230    1.000
    C103     C        0.95200    0.51810    0.94290    1.000
    H74      H        0.98110    0.50090    0.93890    1.000
    C104     C        0.84630    0.46440    0.19490    1.000
    H75      H        0.83920    0.47770    0.21420    1.000
    C105     C        0.18400    0.14360    0.20435    1.000
    C106     C        0.13680    0.13180    0.18390    1.000
    H76      H        0.14030    0.11030    0.17170    1.000
    C107     C        0.42310    0.76064    0.06960    1.000
    H77      H        0.45950    0.74970    0.08100    1.000
    C108     C        0.99520    0.22790    0.20450    1.000
    H78      H        0.02740    0.23850    0.22030    1.000
    C109     C        0.92530    0.44670    0.77120    1.000
    H79      H        0.95260    0.44380    0.75560    1.000
    C110     C        0.89840    0.19830    0.16260    1.000
    H80      H        0.86520    0.18770    0.14750    1.000
    C111     C        0.88940    0.23090    0.17780    1.000
    C112     C        0.86550    0.30530    0.14560    1.000
    H81      H        0.88250    0.29110    0.12980    1.000
    C113     C        0.84510    0.36550    0.16751    1.000
    C114     C        0.87060    0.56524    0.95880    1.000
    H82      H        0.84310    0.58270    0.96420    1.000
    C115     C        0.34790    0.97312    0.04004    1.000
    C116     C        0.06700    0.17800    0.19583    1.000
    C117     C        0.53720    0.14312    0.20788    1.000
    H83      H        0.53330    0.13080    0.22830    1.000
    C118     C        0.59160    0.16019    0.20605    1.000
    H84      H        0.62450    0.15860    0.22500    1.000
    C119     C        0.12250    0.19630    0.21460    1.000
    H85      H        0.12030    0.21950    0.22400    1.000
    C120     C        0.24690    0.12650    0.20990    1.000
    C121     C        0.85280    0.45590    0.81660    1.000
    H86      H        0.82510    0.45860    0.83190    1.000
    C122     C        0.93890    0.24570    0.19810    1.000
    H87      H        0.93530    0.26850    0.20810    1.000
    C123     C        0.91150    0.46804    0.82607    1.000
    C124     C        0.66290    0.22984    0.15489    1.000
    H88      H        0.62620    0.23980    0.14270    1.000
    C125     C        0.71470    0.18340    0.19220    1.000
    H89      H        0.71410    0.16160    0.20440    1.000
    C126     C        0.83340    0.43960    0.78490    1.000
    H90      H        0.79320    0.43040    0.78010    1.000
    C127     C        0.77100    0.20180    0.19170    1.000
    H91      H        0.80720    0.19310    0.20560    1.000
    C128     C        0.00620    0.19660    0.18967    1.000
    C129     C        0.95250    0.18120    0.16840    1.000
    H92      H        0.95560    0.15840    0.15820    1.000
    C130     C        0.85210    0.40550    0.16709    1.000
    C131     C        0.71720    0.24647    0.15300    1.000
    H93      H        0.71740    0.26750    0.13970    1.000
    C132     C        0.36730    0.81553    0.05112    1.000
    C133     C        0.54840    0.18150    0.14912    1.000
    H94      H        0.55100    0.19550    0.12940    1.000
    C134     C        0.30150    0.91103    0.04363    1.000
    H95      H        0.26280    0.92220    0.04090    1.000
    C135     C        0.42030    0.79843    0.06740    1.000
    H96      H        0.45480    0.81220    0.07720    1.000
    C136     C        0.77420    0.23182    0.17133    1.000
    C137     C        0.63760    0.61088    0.08512    1.000
    H97      H        0.62040    0.61080    0.10540    1.000
    C138     C        0.49420    0.16289    0.15037    1.000
    H98      H        0.46190    0.16330    0.13110    1.000
    C139     C        0.92720    0.51600    0.97223    1.000
    H99      H        0.93990    0.49690    0.98760    1.000
    C140     C        0.31800    0.79483    0.03686    1.000
    H100     H        0.28150    0.80610    0.02610    1.000
    C141     C        0.87080    0.42450    0.13951    1.000
    H101     H        0.87980    0.41150    0.12040    1.000
    C142     C        0.81060    0.34820    0.18860    1.000
    H102     H        0.78990    0.36210    0.20290    1.000
    C143     C        0.41620    0.87787    0.05180    1.000
    H103     H        0.45540    0.86730    0.05460    1.000
    C144     C        0.36370    0.85590    0.05009    1.000
    C145     C        0.47140    0.69324    0.03340    1.000
    H104     H        0.46030    0.71280    0.01830    1.000
    C146     C        0.35270    0.93126    0.04486    1.000
    C147     C        0.25490    0.63032    0.04542    1.000
    H105     H        0.24500    0.60910    0.03260    1.000
    C148     C        0.32290    0.68181    0.06058    1.000
    C149     C        0.86120    0.48216    0.16639    1.000
    C150     C        0.59930    0.18003    0.17626    1.000
    C151     C        0.83200    0.28915    0.16820    1.000
    C152     C        0.30690    0.64980    0.04144    1.000
    H106     H        0.33150    0.64160    0.02590    1.000
    C153     C        0.50490    0.63476    0.07804    1.000
    H107     H        0.51510    0.61480    0.09280    1.000
    C154     C        0.65990    0.19880    0.17417    1.000
    C155     C        0.13700    0.62079    0.10284    1.000
    H108     H        0.16200    0.62900    0.12340    1.000
    C156     C        0.68360    0.60657    0.02490    1.000
    H109     H        0.69750    0.60400    0.00370    1.000
    C157     C        0.23300    0.67341    0.08739    1.000
    H110     H        0.20860    0.68130    0.10320    1.000
    C158     C        0.87630    0.46183    0.13978    1.000
    H111     H        0.89060    0.47340    0.12140    1.000
    C159     C        0.12130    0.60785    0.04100    1.000
    H112     H        0.13500    0.60810    0.01960    1.000
    C160     C        0.30620    0.87382    0.04633    1.000
    H113     H        0.27040    0.86010    0.04570    1.000
    C161     C        0.41010    0.91527    0.04927    1.000
    H114     H        0.44530    0.92970    0.05060    1.000
    C162     C        0.48760    0.14366    0.18015    1.000
    C163     C        0.37400    0.73913    0.05532    1.000
    C164     C        0.43290    0.68193    0.05560    1.000
    C165     C        0.32090    0.75646    0.03805    1.000
    H115     H        0.28700    0.74280    0.02720    1.000
    C166     C        0.52690    0.67505    0.03390    1.000
    H116     H        0.55270    0.68290    0.01890    1.000
    C167     C        0.28480    0.69356    0.08338    1.000
    H117     H        0.29410    0.71500    0.09600    1.000
    C168     C        0.15800    0.62338    0.07103    1.000
    C169     C        0.97810    0.57942    0.07566    1.000
    C170     C        0.69480    0.59468    0.08659    1.000
    H118     H        0.71710    0.58570    0.10760    1.000
    C171     C        0.54580    0.64551    0.05584    1.000
    C172     C        0.45100    0.65279    0.07849    1.000
    H119     H        0.42580    0.64570    0.09420    1.000
    C173     C        0.04260    0.59239    0.07465    1.000
    C174     C        0.42930    0.12293    0.18250    1.000
    C175     C        0.60420    0.62715    0.05541    1.000
    C176     C        0.86510    0.52270    0.16604    1.000
    C177     C        0.71820    0.59227    0.05525    1.000
    C178     C        0.21690    0.64204    0.06850    1.000
    C179     C        0.06430    0.59211    0.04338    1.000
    H120     H        0.04070    0.58130    0.02360    1.000
    C180     C        0.07980    0.60633    0.10414    1.000
    H121     H        0.06580    0.60590    0.12540    1.000
    C181     C        0.77990    0.57463    0.05480    1.000
    C182     C        0.62900    0.62447    0.02553    1.000
    H122     H        0.60800    0.63520    0.00500    1.000
    Zn8      Zn       0.88560    0.57550    0.11820    1.000
    Zn9      Zn       0.36950    0.96032    0.53160    1.000
    Zn10     Zn       0.37437    0.91188    0.61523    1.000
    Zn11     Zn       0.84229    0.41383    0.71153    1.000
    N9       N        0.32980    0.24979    0.66977    1.000
    N10      N        0.87630    0.79885    0.55644    1.000
    N11      N        0.38630    0.96084    0.48074    1.000
    N12      N        0.36770    0.06382    0.26101    1.000
    O25      O        0.79180    0.35940    0.73010    1.000
    O26      O        0.79680    0.51324    0.52735    1.000
    O27      O        0.75540    0.40030    0.69456    1.000
    O28      O        0.34120    0.96143    0.68788    1.000
    O29      O        0.89760    0.50871    0.54908    1.000
    O30      O        0.92336    0.38962    0.71186    1.000
    O31      O        0.39030    0.96193    0.64426    1.000
    O32      O        0.88700    0.38044    0.65558    1.000
    O33      O        0.31038    0.93765    0.58314    1.000
    O34      O        0.44746    0.93201    0.54830    1.000
    O35      O        0.45986    0.91668    0.60437    1.000
    O36      O        0.29644    0.92805    0.52585    1.000
    C183     C        0.67820    0.32200    0.71810    1.000
    H123     H        0.71370    0.31060    0.73020    1.000
    C184     C        0.39260    0.93110    0.42680    1.000
    H124     H        0.37830    0.91240    0.41110    1.000
    C185     C        0.58040    0.35090    0.67870    1.000
    H125     H        0.54910    0.36040    0.66160    1.000
    C186     C        0.30540    0.18950    0.68940    1.000
    H126     H        0.28300    0.20020    0.70490    1.000
    C187     C        0.43400    0.97250    0.35664    1.000
    H127     H        0.41480    0.96170    0.33570    1.000
    C188     C        0.46310    0.95030    0.38670    1.000
    H128     H        0.45970    0.92480    0.37990    1.000
    H129     H        0.50690    0.95620    0.39240    1.000
    C189     C        0.43490    0.95520    0.41970    1.000
    C190     C        0.43610    0.01180    0.36035    1.000
    H130     H        0.41180    0.01890    0.37780    1.000
    H131     H        0.47870    0.01920    0.36890    1.000
    C191     C        0.44780    0.03840    0.30320    1.000
    H132     H        0.48980    0.03270    0.30900    1.000
    C192     C        0.34190    0.07260    0.69500    1.000
    H133     H        0.33170    0.08390    0.71460    1.000
    C193     C        0.37400    0.15680    0.64630    1.000
    H134     H        0.39950    0.14640    0.63230    1.000
    C194     C        0.45200    0.98190    0.44290    1.000
    H135     H        0.48110    0.99910    0.43890    1.000
    C195     C        0.34630    0.03560    0.69490    1.000
    H136     H        0.33920    0.02230    0.71420    1.000
    C196     C        0.68400    0.35640    0.70435    1.000
    C197     C        0.63680    0.36820    0.68390    1.000
    H137     H        0.64030    0.38970    0.67170    1.000
    C198     C        0.92310    0.73936    0.56960    1.000
    H138     H        0.95950    0.75030    0.58100    1.000
    C199     C        0.49520    0.27210    0.70450    1.000
    H139     H        0.52740    0.26150    0.72030    1.000
    C200     C        0.42530    0.05330    0.27120    1.000
    H140     H        0.45260    0.05620    0.25560    1.000
    C201     C        0.39840    0.30170    0.66260    1.000
    H141     H        0.36520    0.31230    0.64750    1.000
    C202     C        0.38940    0.26910    0.67780    1.000
    C203     C        0.36550    0.19470    0.64560    1.000
    H142     H        0.38250    0.20890    0.62980    1.000
    C204     C        0.34510    0.13450    0.66751    1.000
    C205     C        0.37060    0.93476    0.45880    1.000
    H143     H        0.34310    0.91730    0.46420    1.000
    C206     C        0.84790    0.52688    0.54004    1.000
    C207     C        0.56700    0.32200    0.69583    1.000
    C208     C        0.03720    0.35688    0.70788    1.000
    H144     H        0.03330    0.36920    0.72830    1.000
    C209     C        0.09160    0.33981    0.70605    1.000
    H145     H        0.12450    0.34140    0.72500    1.000
    C210     C        0.62250    0.30370    0.71460    1.000
    H146     H        0.62030    0.28050    0.72400    1.000
    C211     C        0.74690    0.37350    0.70990    1.000
    C212     C        0.35280    0.04410    0.31660    1.000
    H147     H        0.32510    0.04140    0.33190    1.000
    C213     C        0.43890    0.25430    0.69810    1.000
    H148     H        0.43530    0.23150    0.70810    1.000
    C214     C        0.41150    0.03196    0.32607    1.000
    C215     C        0.16290    0.27016    0.65489    1.000
    H149     H        0.12620    0.26020    0.64270    1.000
    C216     C        0.21470    0.31660    0.69220    1.000
    H150     H        0.21410    0.33840    0.70440    1.000
    C217     C        0.33340    0.06040    0.28490    1.000
    H151     H        0.29320    0.06960    0.28010    1.000
    C218     C        0.27100    0.29820    0.69170    1.000
    H152     H        0.30720    0.30690    0.70560    1.000
    C219     C        0.50620    0.30340    0.68967    1.000
    C220     C        0.45250    0.31880    0.66840    1.000
    H153     H        0.45560    0.34160    0.65820    1.000
    C221     C        0.35210    0.09450    0.66709    1.000
    C222     C        0.21720    0.25353    0.65300    1.000
    H154     H        0.21740    0.23250    0.63970    1.000
    C223     C        0.86730    0.68447    0.55112    1.000
    C224     C        0.04840    0.31850    0.64912    1.000
    H155     H        0.05100    0.30450    0.62940    1.000
    C225     C        0.80150    0.58897    0.54363    1.000
    H156     H        0.76280    0.57780    0.54090    1.000
    C226     C        0.92030    0.70157    0.56740    1.000
    H157     H        0.95480    0.68780    0.57720    1.000
    C227     C        0.27420    0.26818    0.67133    1.000
    C228     C        0.13760    0.88912    0.58512    1.000
    H158     H        0.12040    0.88920    0.60540    1.000
    C229     C        0.99420    0.33711    0.65037    1.000
    H159     H        0.96190    0.33670    0.63110    1.000
    C230     C        0.42720    0.98400    0.47223    1.000
    H160     H        0.43990    0.00310    0.48760    1.000
    C231     C        0.81800    0.70517    0.53686    1.000
    H161     H        0.78150    0.69390    0.52610    1.000
    C232     C        0.37080    0.07550    0.63951    1.000
    H162     H        0.37980    0.08850    0.62040    1.000
    C233     C        0.31060    0.15180    0.68860    1.000
    H163     H        0.28990    0.13790    0.70290    1.000
    C234     C        0.91620    0.62213    0.55180    1.000
    H164     H        0.95540    0.63270    0.55460    1.000
    C235     C        0.86370    0.64410    0.55009    1.000
    C236     C        0.97140    0.80676    0.53340    1.000
    H165     H        0.96030    0.78720    0.51830    1.000
    C237     C        0.85270    0.56874    0.54486    1.000
    C238     C        0.75490    0.86968    0.54542    1.000
    H166     H        0.74500    0.89090    0.53260    1.000
    C239     C        0.82290    0.81819    0.56058    1.000
    C240     C        0.36120    0.01784    0.66639    1.000
    C241     C        0.09930    0.31997    0.67626    1.000
    C242     C        0.33200    0.21085    0.66820    1.000
    C243     C        0.80690    0.85020    0.54144    1.000
    H167     H        0.83150    0.85840    0.52590    1.000
    C244     C        0.00490    0.86524    0.57804    1.000
    H168     H        0.01510    0.88520    0.59280    1.000
    C245     C        0.15990    0.30120    0.67417    1.000
    C246     C        0.63700    0.87921    0.60284    1.000
    H169     H        0.66200    0.87100    0.62340    1.000
    C247     C        0.18360    0.89343    0.52490    1.000
    H170     H        0.19750    0.89600    0.50370    1.000
    C248     C        0.73300    0.82659    0.58739    1.000
    H171     H        0.70860    0.81870    0.60320    1.000
    C249     C        0.37630    0.03817    0.63978    1.000
    H172     H        0.39060    0.02660    0.62140    1.000
    C250     C        0.62130    0.89215    0.54100    1.000
    H173     H        0.63500    0.89190    0.51960    1.000
    C251     C        0.80620    0.62618    0.54633    1.000
    H174     H        0.77040    0.63990    0.54570    1.000
    C252     C        0.91010    0.58473    0.54927    1.000
    H175     H        0.94530    0.57030    0.55060    1.000
    C253     C        0.98760    0.35634    0.68015    1.000
    C254     C        0.87400    0.76087    0.55532    1.000
    C255     C        0.93290    0.81807    0.55560    1.000
    C256     C        0.82090    0.74354    0.53805    1.000
    H176     H        0.78700    0.75720    0.52720    1.000
    C257     C        0.02690    0.82495    0.53390    1.000
    H177     H        0.05270    0.81710    0.51890    1.000
    C258     C        0.78480    0.80644    0.58338    1.000
    H178     H        0.79410    0.78500    0.59600    1.000
    C259     C        0.65800    0.87662    0.57103    1.000
    C260     C        0.47810    0.92058    0.57566    1.000
    C261     C        0.19480    0.90532    0.58659    1.000
    H179     H        0.21710    0.91430    0.60760    1.000
    C262     C        0.04580    0.85449    0.55584    1.000
    C263     C        0.95100    0.84721    0.57849    1.000
    H180     H        0.92580    0.85430    0.59420    1.000
    C264     C        0.54260    0.90761    0.57465    1.000
    C265     C        0.92930    0.37707    0.68250    1.000
    C266     C        0.10420    0.87285    0.55541    1.000
    C267     C        0.36510    0.97730    0.66604    1.000
    C268     C        0.21820    0.90773    0.55525    1.000
    C269     C        0.71690    0.85796    0.56850    1.000
    C270     C        0.56430    0.90789    0.54338    1.000
    H181     H        0.54070    0.91870    0.52360    1.000
    C271     C        0.57980    0.89367    0.60414    1.000
    H182     H        0.56580    0.89410    0.62540    1.000
    C272     C        0.27990    0.92537    0.55480    1.000
    C273     C        0.12900    0.87553    0.52553    1.000
    H183     H        0.10800    0.86480    0.50500    1.000
    Zn12     Zn       0.38560    0.92450    0.61820    1.000
    Zn13     Zn       0.86950    0.46032    0.53160    1.000
    Zn14     Zn       0.87437    0.41188    0.61523    1.000
    Zn15     Zn       0.34229    0.91383    0.71153    1.000
    N13      N        0.82980    0.74979    0.66977    1.000
    N14      N        0.37630    0.29885    0.55644    1.000
    N15      N        0.88630    0.46084    0.48074    1.000
    N16      N        0.86770    0.56382    0.26101    1.000
    O37      O        0.29180    0.85940    0.73010    1.000
    O38      O        0.29680    0.01324    0.52735    1.000
    O39      O        0.25540    0.90030    0.69456    1.000
    O40      O        0.84120    0.46143    0.68788    1.000
    O41      O        0.39760    0.00871    0.54908    1.000
    O42      O        0.42336    0.88962    0.71186    1.000
    O43      O        0.89030    0.46193    0.64426    1.000
    O44      O        0.38700    0.88044    0.65558    1.000
    O45      O        0.81038    0.43765    0.58314    1.000
    O46      O        0.94746    0.43201    0.54830    1.000
    O47      O        0.95986    0.41668    0.60437    1.000
    O48      O        0.79644    0.42805    0.52585    1.000
    C274     C        0.17820    0.82200    0.71810    1.000
    H184     H        0.21370    0.81060    0.73020    1.000
    C275     C        0.89260    0.43110    0.42680    1.000
    H185     H        0.87830    0.41240    0.41110    1.000
    C276     C        0.08040    0.85090    0.67870    1.000
    H186     H        0.04910    0.86040    0.66160    1.000
    C277     C        0.80540    0.68950    0.68940    1.000
    H187     H        0.78300    0.70020    0.70490    1.000
    C278     C        0.93400    0.47250    0.35664    1.000
    H188     H        0.91480    0.46170    0.33570    1.000
    C279     C        0.96310    0.45030    0.38670    1.000
    H189     H        0.95970    0.42480    0.37990    1.000
    H190     H        0.00690    0.45620    0.39240    1.000
    C280     C        0.93490    0.45520    0.41970    1.000
    C281     C        0.93610    0.51180    0.36035    1.000
    H191     H        0.91180    0.51890    0.37780    1.000
    H192     H        0.97870    0.51920    0.36890    1.000
    C282     C        0.94780    0.53840    0.30320    1.000
    H193     H        0.98980    0.53270    0.30900    1.000
    C283     C        0.84190    0.57260    0.69500    1.000
    H194     H        0.83170    0.58390    0.71460    1.000
    C284     C        0.87400    0.65680    0.64630    1.000
    H195     H        0.89950    0.64640    0.63230    1.000
    C285     C        0.95200    0.48190    0.44290    1.000
    H196     H        0.98110    0.49910    0.43890    1.000
    C286     C        0.84630    0.53560    0.69490    1.000
    H197     H        0.83920    0.52230    0.71420    1.000
    C287     C        0.18400    0.85640    0.70435    1.000
    C288     C        0.13680    0.86820    0.68390    1.000
    H198     H        0.14030    0.88970    0.67170    1.000
    C289     C        0.42310    0.23936    0.56960    1.000
    H199     H        0.45950    0.25030    0.58100    1.000
    C290     C        0.99520    0.77210    0.70450    1.000
    H200     H        0.02740    0.76150    0.72030    1.000
    C291     C        0.92530    0.55330    0.27120    1.000
    H201     H        0.95260    0.55620    0.25560    1.000
    C292     C        0.89840    0.80170    0.66260    1.000
    H202     H        0.86520    0.81230    0.64750    1.000
    C293     C        0.88940    0.76910    0.67780    1.000
    C294     C        0.86550    0.69470    0.64560    1.000
    H203     H        0.88250    0.70890    0.62980    1.000
    C295     C        0.84510    0.63450    0.66751    1.000
    C296     C        0.87060    0.43476    0.45880    1.000
    H204     H        0.84310    0.41730    0.46420    1.000
    C297     C        0.34790    0.02688    0.54004    1.000
    C298     C        0.06700    0.82200    0.69583    1.000
    C299     C        0.53720    0.85688    0.70788    1.000
    H205     H        0.53330    0.86920    0.72830    1.000
    C300     C        0.59160    0.83981    0.70605    1.000
    H206     H        0.62450    0.84140    0.72500    1.000
    C301     C        0.12250    0.80370    0.71460    1.000
    H207     H        0.12030    0.78050    0.72400    1.000
    C302     C        0.24690    0.87350    0.70990    1.000
    C303     C        0.85280    0.54410    0.31660    1.000
    H208     H        0.82510    0.54140    0.33190    1.000
    C304     C        0.93890    0.75430    0.69810    1.000
    H209     H        0.93530    0.73150    0.70810    1.000
    C305     C        0.91150    0.53196    0.32607    1.000
    C306     C        0.66290    0.77016    0.65489    1.000
    H210     H        0.62620    0.76020    0.64270    1.000
    C307     C        0.71470    0.81660    0.69220    1.000
    H211     H        0.71410    0.83840    0.70440    1.000
    C308     C        0.83340    0.56040    0.28490    1.000
    H212     H        0.79320    0.56960    0.28010    1.000
    C309     C        0.77100    0.79820    0.69170    1.000
    H213     H        0.80720    0.80690    0.70560    1.000
    C310     C        0.00620    0.80340    0.68967    1.000
    C311     C        0.95250    0.81880    0.66840    1.000
    H214     H        0.95560    0.84160    0.65820    1.000
    C312     C        0.85210    0.59450    0.66709    1.000
    C313     C        0.71720    0.75353    0.65300    1.000
    H215     H        0.71740    0.73250    0.63970    1.000
    C314     C        0.36730    0.18447    0.55112    1.000
    C315     C        0.54840    0.81850    0.64912    1.000
    H216     H        0.55100    0.80450    0.62940    1.000
    C316     C        0.30150    0.08897    0.54363    1.000
    H217     H        0.26280    0.07780    0.54090    1.000
    C317     C        0.42030    0.20157    0.56740    1.000
    H218     H        0.45480    0.18780    0.57720    1.000
    C318     C        0.77420    0.76818    0.67133    1.000
    C319     C        0.63760    0.38912    0.58512    1.000
    H219     H        0.62040    0.38920    0.60540    1.000
    C320     C        0.49420    0.83711    0.65037    1.000
    H220     H        0.46190    0.83670    0.63110    1.000
    C321     C        0.92720    0.48400    0.47223    1.000
    H221     H        0.93990    0.50310    0.48760    1.000
    C322     C        0.31800    0.20517    0.53686    1.000
    H222     H        0.28150    0.19390    0.52610    1.000
    C323     C        0.87080    0.57550    0.63951    1.000
    H223     H        0.87980    0.58850    0.62040    1.000
    C324     C        0.81060    0.65180    0.68860    1.000
    H224     H        0.78990    0.63790    0.70290    1.000
    C325     C        0.41620    0.12213    0.55180    1.000
    H225     H        0.45540    0.13270    0.55460    1.000
    C326     C        0.36370    0.14410    0.55009    1.000
    C327     C        0.47140    0.30676    0.53340    1.000
    H226     H        0.46030    0.28720    0.51830    1.000
    C328     C        0.35270    0.06874    0.54486    1.000
    C329     C        0.25490    0.36968    0.54542    1.000
    H227     H        0.24500    0.39090    0.53260    1.000
    C330     C        0.32290    0.31819    0.56058    1.000
    C331     C        0.86120    0.51784    0.66639    1.000
    C332     C        0.59930    0.81997    0.67626    1.000
    C333     C        0.83200    0.71085    0.66820    1.000
    C334     C        0.30690    0.35020    0.54144    1.000
    H228     H        0.33150    0.35840    0.52590    1.000
    C335     C        0.50490    0.36524    0.57804    1.000
    H229     H        0.51510    0.38520    0.59280    1.000
    C336     C        0.65990    0.80120    0.67417    1.000
    C337     C        0.13700    0.37921    0.60284    1.000
    H230     H        0.16200    0.37100    0.62340    1.000
    C338     C        0.68360    0.39343    0.52490    1.000
    H231     H        0.69750    0.39600    0.50370    1.000
    C339     C        0.23300    0.32659    0.58739    1.000
    H232     H        0.20860    0.31870    0.60320    1.000
    C340     C        0.87630    0.53817    0.63978    1.000
    H233     H        0.89060    0.52660    0.62140    1.000
    C341     C        0.12130    0.39215    0.54100    1.000
    H234     H        0.13500    0.39190    0.51960    1.000
    C342     C        0.30620    0.12618    0.54633    1.000
    H235     H        0.27040    0.13990    0.54570    1.000
    C343     C        0.41010    0.08473    0.54927    1.000
    H236     H        0.44530    0.07030    0.55060    1.000
    C344     C        0.48760    0.85634    0.68015    1.000
    C345     C        0.37400    0.26087    0.55532    1.000
    C346     C        0.43290    0.31807    0.55560    1.000
    C347     C        0.32090    0.24354    0.53805    1.000
    H237     H        0.28700    0.25720    0.52720    1.000
    C348     C        0.52690    0.32495    0.53390    1.000
    H238     H        0.55270    0.31710    0.51890    1.000
    C349     C        0.28480    0.30644    0.58338    1.000
    H239     H        0.29410    0.28500    0.59600    1.000
    C350     C        0.15800    0.37662    0.57103    1.000
    C351     C        0.97810    0.42058    0.57566    1.000
    C352     C        0.69480    0.40532    0.58659    1.000
    H240     H        0.71710    0.41430    0.60760    1.000
    C353     C        0.54580    0.35449    0.55584    1.000
    C354     C        0.45100    0.34721    0.57849    1.000
    H241     H        0.42580    0.35430    0.59420    1.000
    C355     C        0.04260    0.40761    0.57465    1.000
    C356     C        0.42930    0.87707    0.68250    1.000
    C357     C        0.60420    0.37285    0.55541    1.000
    C358     C        0.86510    0.47730    0.66604    1.000
    C359     C        0.71820    0.40773    0.55525    1.000
    C360     C        0.21690    0.35796    0.56850    1.000
    C361     C        0.06430    0.40789    0.54338    1.000
    H242     H        0.04070    0.41870    0.52360    1.000
    C362     C        0.07980    0.39367    0.60414    1.000
    H243     H        0.06580    0.39410    0.62540    1.000
    C363     C        0.77990    0.42537    0.55480    1.000
    C364     C        0.62900    0.37553    0.52553    1.000
    H244     H        0.60800    0.36480    0.50500    1.000
    Zn16     Zn       0.88560    0.42450    0.61820    1.000
    Zn17     Zn       0.63050    0.03968    0.46840    1.000
    Zn18     Zn       0.62563    0.08812    0.38477    1.000
    Zn19     Zn       0.15771    0.58617    0.28847    1.000
    N17      N        0.67020    0.75021    0.33023    1.000
    N18      N        0.12370    0.20115    0.44356    1.000
    N19      N        0.61370    0.03916    0.51926    1.000
    N20      N        0.63230    0.93618    0.73899    1.000
    O49      O        0.20820    0.64060    0.26990    1.000
    O50      O        0.20320    0.48676    0.47265    1.000
    O51      O        0.24460    0.59970    0.30544    1.000
    O52      O        0.65880    0.03857    0.31212    1.000
    O53      O        0.10240    0.49129    0.45092    1.000
    O54      O        0.07664    0.61038    0.28814    1.000
    O55      O        0.60970    0.03807    0.35574    1.000
    O56      O        0.11300    0.61956    0.34442    1.000
    O57      O        0.68962    0.06235    0.41686    1.000
    O58      O        0.55254    0.06799    0.45170    1.000
    O59      O        0.54014    0.08332    0.39563    1.000
    O60      O        0.70356    0.07195    0.47415    1.000
    C365     C        0.32180    0.67800    0.28190    1.000
    H245     H        0.28630    0.68940    0.26980    1.000
    C366     C        0.60740    0.06890    0.57320    1.000
    H246     H        0.62170    0.08760    0.58890    1.000
    C367     C        0.41960    0.64910    0.32130    1.000
    H247     H        0.45090    0.63960    0.33840    1.000
    C368     C        0.69460    0.81050    0.31060    1.000
    H248     H        0.71700    0.79980    0.29510    1.000
    C369     C        0.56600    0.02750    0.64336    1.000
    H249     H        0.58520    0.03830    0.66430    1.000
    C370     C        0.53690    0.04970    0.61330    1.000
    H250     H        0.54030    0.07520    0.62010    1.000
    H251     H        0.49310    0.04380    0.60760    1.000
    C371     C        0.56510    0.04480    0.58030    1.000
    C372     C        0.56390    0.98820    0.63965    1.000
    H252     H        0.58820    0.98110    0.62220    1.000
    H253     H        0.52130    0.98080    0.63110    1.000
    C373     C        0.55220    0.96160    0.69680    1.000
    H254     H        0.51020    0.96730    0.69100    1.000
    C374     C        0.65810    0.92740    0.30500    1.000
    H255     H        0.66830    0.91610    0.28540    1.000
    C375     C        0.62600    0.84320    0.35370    1.000
    H256     H        0.60050    0.85360    0.36770    1.000
    C376     C        0.54800    0.01810    0.55710    1.000
    H257     H        0.51890    0.00090    0.56110    1.000
    C377     C        0.65370    0.96440    0.30510    1.000
    H258     H        0.66080    0.97770    0.28580    1.000
    C378     C        0.31600    0.64360    0.29565    1.000
    C379     C        0.36320    0.63180    0.31610    1.000
    H259     H        0.35970    0.61030    0.32830    1.000
    C380     C        0.07690    0.26064    0.43040    1.000
    H260     H        0.04050    0.24970    0.41900    1.000
    C381     C        0.50480    0.72790    0.29550    1.000
    H261     H        0.47260    0.73850    0.27970    1.000
    C382     C        0.57470    0.94670    0.72880    1.000
    H262     H        0.54740    0.94380    0.74440    1.000
    C383     C        0.60160    0.69830    0.33740    1.000
    H263     H        0.63480    0.68770    0.35250    1.000
    C384     C        0.61060    0.73090    0.32220    1.000
    C385     C        0.63450    0.80530    0.35440    1.000
    H264     H        0.61750    0.79110    0.37020    1.000
    C386     C        0.65490    0.86550    0.33249    1.000
    C387     C        0.62940    0.06524    0.54120    1.000
    H265     H        0.65690    0.08270    0.53580    1.000
    C388     C        0.15210    0.47312    0.45996    1.000
    C389     C        0.43300    0.67800    0.30417    1.000
    C390     C        0.96280    0.64312    0.29212    1.000
    H266     H        0.96670    0.63080    0.27170    1.000
    C391     C        0.90840    0.66019    0.29395    1.000
    H267     H        0.87550    0.65860    0.27500    1.000
    C392     C        0.37750    0.69630    0.28540    1.000
    H268     H        0.37970    0.71950    0.27600    1.000
    C393     C        0.25310    0.62650    0.29010    1.000
    C394     C        0.64720    0.95590    0.68340    1.000
    H269     H        0.67490    0.95860    0.66810    1.000
    C395     C        0.56110    0.74570    0.30190    1.000
    H270     H        0.56470    0.76850    0.29190    1.000
    C396     C        0.58850    0.96804    0.67393    1.000
    C397     C        0.83710    0.72984    0.34511    1.000
    H271     H        0.87380    0.73980    0.35730    1.000
    C398     C        0.78530    0.68340    0.30780    1.000
    H272     H        0.78590    0.66160    0.29560    1.000
    C399     C        0.66660    0.93960    0.71510    1.000
    H273     H        0.70680    0.93040    0.71990    1.000
    C400     C        0.72900    0.70180    0.30830    1.000
    H274     H        0.69280    0.69310    0.29440    1.000
    C401     C        0.49380    0.69660    0.31033    1.000
    C402     C        0.54750    0.68120    0.33160    1.000
    H275     H        0.54440    0.65840    0.34180    1.000
    C403     C        0.64790    0.90550    0.33291    1.000
    C404     C        0.78280    0.74647    0.34700    1.000
    H276     H        0.78260    0.76750    0.36030    1.000
    C405     C        0.13270    0.31553    0.44888    1.000
    C406     C        0.95160    0.68150    0.35088    1.000
    H277     H        0.94900    0.69550    0.37060    1.000
    C407     C        0.19850    0.41103    0.45637    1.000
    H278     H        0.23720    0.42220    0.45910    1.000
    C408     C        0.07970    0.29843    0.43260    1.000
    H279     H        0.04520    0.31220    0.42280    1.000
    C409     C        0.72580    0.73182    0.32867    1.000
    C410     C        0.86240    0.11088    0.41488    1.000
    H280     H        0.87960    0.11080    0.39460    1.000
    C411     C        0.00580    0.66289    0.34963    1.000
    H281     H        0.03810    0.66330    0.36890    1.000
    C412     C        0.57280    0.01600    0.52777    1.000
    H282     H        0.56010    0.99690    0.51240    1.000
    C413     C        0.18200    0.29483    0.46314    1.000
    H283     H        0.21850    0.30610    0.47390    1.000
    C414     C        0.62920    0.92450    0.36049    1.000
    H284     H        0.62020    0.91150    0.37960    1.000
    C415     C        0.68940    0.84820    0.31140    1.000
    H285     H        0.71010    0.86210    0.29710    1.000
    C416     C        0.08380    0.37787    0.44820    1.000
    H286     H        0.04460    0.36730    0.44540    1.000
    C417     C        0.13630    0.35590    0.44991    1.000
    C418     C        0.02860    0.19324    0.46660    1.000
    H287     H        0.03970    0.21280    0.48170    1.000
    C419     C        0.14730    0.43126    0.45514    1.000
    C420     C        0.24510    0.13032    0.45458    1.000
    H288     H        0.25500    0.10910    0.46740    1.000
    C421     C        0.17710    0.18181    0.43942    1.000
    C422     C        0.63880    0.98216    0.33361    1.000
    C423     C        0.90070    0.68003    0.32374    1.000
    C424     C        0.66800    0.78915    0.33180    1.000
    C425     C        0.19310    0.14980    0.45856    1.000
    H289     H        0.16850    0.14160    0.47410    1.000
    C426     C        0.99510    0.13476    0.42196    1.000
    H290     H        0.98490    0.11480    0.40720    1.000
    C427     C        0.84010    0.69880    0.32583    1.000
    C428     C        0.36300    0.12079    0.39716    1.000
    H291     H        0.33800    0.12900    0.37660    1.000
    C429     C        0.81640    0.10657    0.47510    1.000
    H292     H        0.80250    0.10400    0.49630    1.000
    C430     C        0.26700    0.17341    0.41261    1.000
    H293     H        0.29140    0.18130    0.39680    1.000
    C431     C        0.62370    0.96183    0.36022    1.000
    H294     H        0.60940    0.97340    0.37860    1.000
    C432     C        0.37870    0.10785    0.45900    1.000
    H295     H        0.36500    0.10810    0.48040    1.000
    C433     C        0.19380    0.37382    0.45367    1.000
    H296     H        0.22960    0.36010    0.45430    1.000
    C434     C        0.08990    0.41527    0.45073    1.000
    H297     H        0.05470    0.42970    0.44940    1.000
    C435     C        0.01240    0.64366    0.31985    1.000
    C436     C        0.12600    0.23913    0.44468    1.000
    C437     C        0.06710    0.18193    0.44440    1.000
    C438     C        0.17910    0.25646    0.46195    1.000
    H298     H        0.21300    0.24280    0.47280    1.000
    C439     C        0.97310    0.17505    0.46610    1.000
    H299     H        0.94730    0.18290    0.48110    1.000
    C440     C        0.21520    0.19356    0.41662    1.000
    H300     H        0.20590    0.21500    0.40400    1.000
    C441     C        0.34200    0.12338    0.42897    1.000
    C442     C        0.52190    0.07942    0.42434    1.000
    C443     C        0.80520    0.09468    0.41341    1.000
    H301     H        0.78290    0.08570    0.39240    1.000
    C444     C        0.95420    0.14551    0.44416    1.000
    C445     C        0.04900    0.15279    0.42151    1.000
    H302     H        0.07420    0.14570    0.40580    1.000
    C446     C        0.45740    0.09239    0.42535    1.000
    C447     C        0.07070    0.62293    0.31750    1.000
    C448     C        0.89580    0.12715    0.44459    1.000
    C449     C        0.63490    0.02270    0.33396    1.000
    C450     C        0.78180    0.09227    0.44475    1.000
    C451     C        0.28310    0.14204    0.43150    1.000
    C452     C        0.43570    0.09211    0.45662    1.000
    H303     H        0.45930    0.08130    0.47640    1.000
    C453     C        0.42020    0.10633    0.39586    1.000
    H304     H        0.43420    0.10590    0.37460    1.000
    C454     C        0.72010    0.07463    0.44520    1.000
    C455     C        0.87100    0.12447    0.47447    1.000
    H305     H        0.89200    0.13520    0.49500    1.000
    Zn20     Zn       0.61440    0.07550    0.38180    1.000
    Zn21     Zn       0.13050    0.53968    0.46840    1.000
    Zn22     Zn       0.12563    0.58812    0.38477    1.000
    Zn23     Zn       0.65771    0.08617    0.28847    1.000
    N21      N        0.17020    0.25021    0.33023    1.000
    N22      N        0.62370    0.70115    0.44356    1.000
    N23      N        0.11370    0.53916    0.51926    1.000
    N24      N        0.13230    0.43618    0.73899    1.000
    O61      O        0.70820    0.14060    0.26990    1.000
    O62      O        0.70320    0.98676    0.47265    1.000
    O63      O        0.74460    0.09970    0.30544    1.000
    O64      O        0.15880    0.53857    0.31212    1.000
    O65      O        0.60240    0.99129    0.45092    1.000
    O66      O        0.57664    0.11038    0.28814    1.000
    O67      O        0.10970    0.53807    0.35574    1.000
    O68      O        0.61300    0.11956    0.34442    1.000
    O69      O        0.18962    0.56235    0.41686    1.000
    O70      O        0.05254    0.56799    0.45170    1.000
    O71      O        0.04014    0.58332    0.39563    1.000
    O72      O        0.20356    0.57195    0.47415    1.000
    C456     C        0.82180    0.17800    0.28190    1.000
    H306     H        0.78630    0.18940    0.26980    1.000
    C457     C        0.10740    0.56890    0.57320    1.000
    H307     H        0.12170    0.58760    0.58890    1.000
    C458     C        0.91960    0.14910    0.32130    1.000
    H308     H        0.95090    0.13960    0.33840    1.000
    C459     C        0.19460    0.31050    0.31060    1.000
    H309     H        0.21700    0.29980    0.29510    1.000
    C460     C        0.06600    0.52750    0.64336    1.000
    H310     H        0.08520    0.53830    0.66430    1.000
    C461     C        0.03690    0.54970    0.61330    1.000
    H311     H        0.04030    0.57520    0.62010    1.000
    H312     H        0.99310    0.54380    0.60760    1.000
    C462     C        0.06510    0.54480    0.58030    1.000
    C463     C        0.06390    0.48820    0.63965    1.000
    H313     H        0.08820    0.48110    0.62220    1.000
    H314     H        0.02130    0.48080    0.63110    1.000
    C464     C        0.05220    0.46160    0.69680    1.000
    H315     H        0.01020    0.46730    0.69100    1.000
    C465     C        0.15810    0.42740    0.30500    1.000
    H316     H        0.16830    0.41610    0.28540    1.000
    C466     C        0.12600    0.34320    0.35370    1.000
    H317     H        0.10050    0.35360    0.36770    1.000
    C467     C        0.04800    0.51810    0.55710    1.000
    H318     H        0.01890    0.50090    0.56110    1.000
    C468     C        0.15370    0.46440    0.30510    1.000
    H319     H        0.16080    0.47770    0.28580    1.000
    C469     C        0.81600    0.14360    0.29565    1.000
    C470     C        0.86320    0.13180    0.31610    1.000
    H320     H        0.85970    0.11030    0.32830    1.000
    C471     C        0.57690    0.76064    0.43040    1.000
    H321     H        0.54050    0.74970    0.41900    1.000
    C472     C        0.00480    0.22790    0.29550    1.000
    H322     H        0.97260    0.23850    0.27970    1.000
    C473     C        0.07470    0.44670    0.72880    1.000
    H323     H        0.04740    0.44380    0.74440    1.000
    C474     C        0.10160    0.19830    0.33740    1.000
    H324     H        0.13480    0.18770    0.35250    1.000
    C475     C        0.11060    0.23090    0.32220    1.000
    C476     C        0.13450    0.30530    0.35440    1.000
    H325     H        0.11750    0.29110    0.37020    1.000
    C477     C        0.15490    0.36550    0.33249    1.000
    C478     C        0.12940    0.56524    0.54120    1.000
    H326     H        0.15690    0.58270    0.53580    1.000
    C479     C        0.65210    0.97312    0.45996    1.000
    C480     C        0.93300    0.17800    0.30417    1.000
    C481     C        0.46280    0.14312    0.29212    1.000
    H327     H        0.46670    0.13080    0.27170    1.000
    C482     C        0.40840    0.16019    0.29395    1.000
    H328     H        0.37550    0.15860    0.27500    1.000
    C483     C        0.87750    0.19630    0.28540    1.000
    H329     H        0.87970    0.21950    0.27600    1.000
    C484     C        0.75310    0.12650    0.29010    1.000
    C485     C        0.14720    0.45590    0.68340    1.000
    H330     H        0.17490    0.45860    0.66810    1.000
    C486     C        0.06110    0.24570    0.30190    1.000
    H331     H        0.06470    0.26850    0.29190    1.000
    C487     C        0.08850    0.46804    0.67393    1.000
    C488     C        0.33710    0.22984    0.34511    1.000
    H332     H        0.37380    0.23980    0.35730    1.000
    C489     C        0.28530    0.18340    0.30780    1.000
    H333     H        0.28590    0.16160    0.29560    1.000
    C490     C        0.16660    0.43960    0.71510    1.000
    H334     H        0.20680    0.43040    0.71990    1.000
    C491     C        0.22900    0.20180    0.30830    1.000
    H335     H        0.19280    0.19310    0.29440    1.000
    C492     C        0.99380    0.19660    0.31033    1.000
    C493     C        0.04750    0.18120    0.33160    1.000
    H336     H        0.04440    0.15840    0.34180    1.000
    C494     C        0.14790    0.40550    0.33291    1.000
    C495     C        0.28280    0.24647    0.34700    1.000
    H337     H        0.28260    0.26750    0.36030    1.000
    C496     C        0.63270    0.81553    0.44888    1.000
    C497     C        0.45160    0.18150    0.35088    1.000
    H338     H        0.44900    0.19550    0.37060    1.000
    C498     C        0.69850    0.91103    0.45637    1.000
    H339     H        0.73720    0.92220    0.45910    1.000
    C499     C        0.57970    0.79843    0.43260    1.000
    H340     H        0.54520    0.81220    0.42280    1.000
    C500     C        0.22580    0.23182    0.32867    1.000
    C501     C        0.36240    0.61088    0.41488    1.000
    H341     H        0.37960    0.61080    0.39460    1.000
    C502     C        0.50580    0.16289    0.34963    1.000
    H342     H        0.53810    0.16330    0.36890    1.000
    C503     C        0.07280    0.51600    0.52777    1.000
    H343     H        0.06010    0.49690    0.51240    1.000
    C504     C        0.68200    0.79483    0.46314    1.000
    H344     H        0.71850    0.80610    0.47390    1.000
    C505     C        0.12920    0.42450    0.36049    1.000
    H345     H        0.12020    0.41150    0.37960    1.000
    C506     C        0.18940    0.34820    0.31140    1.000
    H346     H        0.21010    0.36210    0.29710    1.000
    C507     C        0.58380    0.87787    0.44820    1.000
    H347     H        0.54460    0.86730    0.44540    1.000
    C508     C        0.63630    0.85590    0.44991    1.000
    C509     C        0.52860    0.69324    0.46660    1.000
    H348     H        0.53970    0.71280    0.48170    1.000
    C510     C        0.64730    0.93126    0.45514    1.000
    C511     C        0.74510    0.63032    0.45458    1.000
    H349     H        0.75500    0.60910    0.46740    1.000
    C512     C        0.67710    0.68181    0.43942    1.000
    C513     C        0.13880    0.48216    0.33361    1.000
    C514     C        0.40070    0.18003    0.32374    1.000
    C515     C        0.16800    0.28915    0.33180    1.000
    C516     C        0.69310    0.64980    0.45856    1.000
    H350     H        0.66850    0.64160    0.47410    1.000
    C517     C        0.49510    0.63476    0.42196    1.000
    H351     H        0.48490    0.61480    0.40720    1.000
    C518     C        0.34010    0.19880    0.32583    1.000
    C519     C        0.86300    0.62079    0.39716    1.000
    H352     H        0.83800    0.62900    0.37660    1.000
    C520     C        0.31640    0.60657    0.47510    1.000
    H353     H        0.30250    0.60400    0.49630    1.000
    C521     C        0.76700    0.67341    0.41261    1.000
    H354     H        0.79140    0.68130    0.39680    1.000
    C522     C        0.12370    0.46183    0.36022    1.000
    H355     H        0.10940    0.47340    0.37860    1.000
    C523     C        0.87870    0.60785    0.45900    1.000
    H356     H        0.86500    0.60810    0.48040    1.000
    C524     C        0.69380    0.87382    0.45367    1.000
    H357     H        0.72960    0.86010    0.45430    1.000
    C525     C        0.58990    0.91527    0.45073    1.000
    H358     H        0.55470    0.92970    0.44940    1.000
    C526     C        0.51240    0.14366    0.31985    1.000
    C527     C        0.62600    0.73913    0.44468    1.000
    C528     C        0.56710    0.68193    0.44440    1.000
    C529     C        0.67910    0.75646    0.46195    1.000
    H359     H        0.71300    0.74280    0.47280    1.000
    C530     C        0.47310    0.67505    0.46610    1.000
    H360     H        0.44730    0.68290    0.48110    1.000
    C531     C        0.71520    0.69356    0.41662    1.000
    H361     H        0.70590    0.71500    0.40400    1.000
    C532     C        0.84200    0.62338    0.42897    1.000
    C533     C        0.02190    0.57942    0.42434    1.000
    C534     C        0.30520    0.59468    0.41341    1.000
    H362     H        0.28290    0.58570    0.39240    1.000
    C535     C        0.45420    0.64551    0.44416    1.000
    C536     C        0.54900    0.65279    0.42151    1.000
    H363     H        0.57420    0.64570    0.40580    1.000
    C537     C        0.95740    0.59239    0.42535    1.000
    C538     C        0.57070    0.12293    0.31750    1.000
    C539     C        0.39580    0.62715    0.44459    1.000
    C540     C        0.13490    0.52270    0.33396    1.000
    C541     C        0.28180    0.59227    0.44475    1.000
    C542     C        0.78310    0.64204    0.43150    1.000
    C543     C        0.93570    0.59211    0.45662    1.000
    H364     H        0.95930    0.58130    0.47640    1.000
    C544     C        0.92020    0.60633    0.39586    1.000
    H365     H        0.93420    0.60590    0.37460    1.000
    C545     C        0.22010    0.57463    0.44520    1.000
    C546     C        0.37100    0.62447    0.47447    1.000
    H366     H        0.39200    0.63520    0.49500    1.000
    Zn24     Zn       0.11440    0.57550    0.38180    1.000
    Zn25     Zn       0.63050    0.96032    0.96840    1.000
    Zn26     Zn       0.62563    0.91188    0.88477    1.000
    Zn27     Zn       0.15771    0.41383    0.78847    1.000
    N25      N        0.67020    0.24979    0.83023    1.000
    N26      N        0.12370    0.79885    0.94356    1.000
    N27      N        0.61370    0.96084    0.01926    1.000
    N28      N        0.63230    0.06382    0.23899    1.000
    O73      O        0.20820    0.35940    0.76990    1.000
    O74      O        0.20320    0.51324    0.97265    1.000
    O75      O        0.24460    0.40030    0.80544    1.000
    O76      O        0.65880    0.96143    0.81212    1.000
    O77      O        0.10240    0.50871    0.95092    1.000
    O78      O        0.07664    0.38962    0.78814    1.000
    O79      O        0.60970    0.96193    0.85574    1.000
    O80      O        0.11300    0.38044    0.84442    1.000
    O81      O        0.68962    0.93765    0.91686    1.000
    O82      O        0.55254    0.93201    0.95170    1.000
    O83      O        0.54014    0.91668    0.89563    1.000
    O84      O        0.70356    0.92805    0.97415    1.000
    C547     C        0.32180    0.32200    0.78190    1.000
    H367     H        0.28630    0.31060    0.76980    1.000
    C548     C        0.60740    0.93110    0.07320    1.000
    H368     H        0.62170    0.91240    0.08890    1.000
    C549     C        0.41960    0.35090    0.82130    1.000
    H369     H        0.45090    0.36040    0.83840    1.000
    C550     C        0.69460    0.18950    0.81060    1.000
    H370     H        0.71700    0.20020    0.79510    1.000
    C551     C        0.56600    0.97250    0.14336    1.000
    H371     H        0.58520    0.96170    0.16430    1.000
    C552     C        0.53690    0.95030    0.11330    1.000
    H372     H        0.54030    0.92480    0.12010    1.000
    H373     H        0.49310    0.95620    0.10760    1.000
    C553     C        0.56510    0.95520    0.08030    1.000
    C554     C        0.56390    0.01180    0.13965    1.000
    H374     H        0.58820    0.01890    0.12220    1.000
    H375     H        0.52130    0.01920    0.13110    1.000
    C555     C        0.55220    0.03840    0.19680    1.000
    H376     H        0.51020    0.03270    0.19100    1.000
    C556     C        0.65810    0.07260    0.80500    1.000
    H377     H        0.66830    0.08390    0.78540    1.000
    C557     C        0.62600    0.15680    0.85370    1.000
    H378     H        0.60050    0.14640    0.86770    1.000
    C558     C        0.54800    0.98190    0.05710    1.000
    H379     H        0.51890    0.99910    0.06110    1.000
    C559     C        0.65370    0.03560    0.80510    1.000
    H380     H        0.66080    0.02230    0.78580    1.000
    C560     C        0.31600    0.35640    0.79565    1.000
    C561     C        0.36320    0.36820    0.81610    1.000
    H381     H        0.35970    0.38970    0.82830    1.000
    C562     C        0.07690    0.73936    0.93040    1.000
    H382     H        0.04050    0.75030    0.91900    1.000
    C563     C        0.50480    0.27210    0.79550    1.000
    H383     H        0.47260    0.26150    0.77970    1.000
    C564     C        0.57470    0.05330    0.22880    1.000
    H384     H        0.54740    0.05620    0.24440    1.000
    C565     C        0.60160    0.30170    0.83740    1.000
    H385     H        0.63480    0.31230    0.85250    1.000
    C566     C        0.61060    0.26910    0.82220    1.000
    C567     C        0.63450    0.19470    0.85440    1.000
    H386     H        0.61750    0.20890    0.87020    1.000
    C568     C        0.65490    0.13450    0.83249    1.000
    C569     C        0.62940    0.93476    0.04120    1.000
    H387     H        0.65690    0.91730    0.03580    1.000
    C570     C        0.15210    0.52688    0.95996    1.000
    C571     C        0.43300    0.32200    0.80417    1.000
    C572     C        0.96280    0.35688    0.79212    1.000
    H388     H        0.96670    0.36920    0.77170    1.000
    C573     C        0.90840    0.33981    0.79395    1.000
    H389     H        0.87550    0.34140    0.77500    1.000
    C574     C        0.37750    0.30370    0.78540    1.000
    H390     H        0.37970    0.28050    0.77600    1.000
    C575     C        0.25310    0.37350    0.79010    1.000
    C576     C        0.64720    0.04410    0.18340    1.000
    H391     H        0.67490    0.04140    0.16810    1.000
    C577     C        0.56110    0.25430    0.80190    1.000
    H392     H        0.56470    0.23150    0.79190    1.000
    C578     C        0.58850    0.03196    0.17393    1.000
    C579     C        0.83710    0.27016    0.84511    1.000
    H393     H        0.87380    0.26020    0.85730    1.000
    C580     C        0.78530    0.31660    0.80780    1.000
    H394     H        0.78590    0.33840    0.79560    1.000
    C581     C        0.66660    0.06040    0.21510    1.000
    H395     H        0.70680    0.06960    0.21990    1.000
    C582     C        0.72900    0.29820    0.80830    1.000
    H396     H        0.69280    0.30690    0.79440    1.000
    C583     C        0.49380    0.30340    0.81033    1.000
    C584     C        0.54750    0.31880    0.83160    1.000
    H397     H        0.54440    0.34160    0.84180    1.000
    C585     C        0.64790    0.09450    0.83291    1.000
    C586     C        0.78280    0.25353    0.84700    1.000
    H398     H        0.78260    0.23250    0.86030    1.000
    C587     C        0.13270    0.68447    0.94888    1.000
    C588     C        0.95160    0.31850    0.85088    1.000
    H399     H        0.94900    0.30450    0.87060    1.000
    C589     C        0.19850    0.58897    0.95637    1.000
    H400     H        0.23720    0.57780    0.95910    1.000
    C590     C        0.07970    0.70157    0.93260    1.000
    H401     H        0.04520    0.68780    0.92280    1.000
    C591     C        0.72580    0.26818    0.82867    1.000
    C592     C        0.86240    0.88912    0.91488    1.000
    H402     H        0.87960    0.88920    0.89460    1.000
    C593     C        0.00580    0.33711    0.84963    1.000
    H403     H        0.03810    0.33670    0.86890    1.000
    C594     C        0.57280    0.98400    0.02777    1.000
    H404     H        0.56010    0.00310    0.01240    1.000
    C595     C        0.18200    0.70517    0.96314    1.000
    H405     H        0.21850    0.69390    0.97390    1.000
    C596     C        0.62920    0.07550    0.86049    1.000
    H406     H        0.62020    0.08850    0.87960    1.000
    C597     C        0.68940    0.15180    0.81140    1.000
    H407     H        0.71010    0.13790    0.79710    1.000
    C598     C        0.08380    0.62213    0.94820    1.000
    H408     H        0.04460    0.63270    0.94540    1.000
    C599     C        0.13630    0.64410    0.94991    1.000
    C600     C        0.02860    0.80676    0.96660    1.000
    H409     H        0.03970    0.78720    0.98170    1.000
    C601     C        0.14730    0.56874    0.95514    1.000
    C602     C        0.24510    0.86968    0.95458    1.000
    H410     H        0.25500    0.89090    0.96740    1.000
    C603     C        0.17710    0.81819    0.93942    1.000
    C604     C        0.63880    0.01784    0.83361    1.000
    C605     C        0.90070    0.31997    0.82374    1.000
    C606     C        0.66800    0.21085    0.83180    1.000
    C607     C        0.19310    0.85020    0.95856    1.000
    H411     H        0.16850    0.85840    0.97410    1.000
    C608     C        0.99510    0.86524    0.92196    1.000
    H412     H        0.98490    0.88520    0.90720    1.000
    C609     C        0.84010    0.30120    0.82583    1.000
    C610     C        0.36300    0.87921    0.89716    1.000
    H413     H        0.33800    0.87100    0.87660    1.000
    C611     C        0.81640    0.89343    0.97510    1.000
    H414     H        0.80250    0.89600    0.99630    1.000
    C612     C        0.26700    0.82659    0.91261    1.000
    H415     H        0.29140    0.81870    0.89680    1.000
    C613     C        0.62370    0.03817    0.86022    1.000
    H416     H        0.60940    0.02660    0.87860    1.000
    C614     C        0.37870    0.89215    0.95900    1.000
    H417     H        0.36500    0.89190    0.98040    1.000
    C615     C        0.19380    0.62618    0.95367    1.000
    H418     H        0.22960    0.63990    0.95430    1.000
    C616     C        0.08990    0.58473    0.95073    1.000
    H419     H        0.05470    0.57030    0.94940    1.000
    C617     C        0.01240    0.35634    0.81985    1.000
    C618     C        0.12600    0.76087    0.94468    1.000
    C619     C        0.06710    0.81807    0.94440    1.000
    C620     C        0.17910    0.74354    0.96195    1.000
    H420     H        0.21300    0.75720    0.97280    1.000
    C621     C        0.97310    0.82495    0.96610    1.000
    H421     H        0.94730    0.81710    0.98110    1.000
    C622     C        0.21520    0.80644    0.91662    1.000
    H422     H        0.20590    0.78500    0.90400    1.000
    C623     C        0.34200    0.87662    0.92897    1.000
    C624     C        0.52190    0.92058    0.92434    1.000
    C625     C        0.80520    0.90532    0.91341    1.000
    H423     H        0.78290    0.91430    0.89240    1.000
    C626     C        0.95420    0.85449    0.94416    1.000
    C627     C        0.04900    0.84721    0.92151    1.000
    H424     H        0.07420    0.85430    0.90580    1.000
    C628     C        0.45740    0.90761    0.92535    1.000
    C629     C        0.07070    0.37707    0.81750    1.000
    C630     C        0.89580    0.87285    0.94459    1.000
    C631     C        0.63490    0.97730    0.83396    1.000
    C632     C        0.78180    0.90773    0.94475    1.000
    C633     C        0.28310    0.85796    0.93150    1.000
    C634     C        0.43570    0.90789    0.95662    1.000
    H425     H        0.45930    0.91870    0.97640    1.000
    C635     C        0.42020    0.89367    0.89586    1.000
    H426     H        0.43420    0.89410    0.87460    1.000
    C636     C        0.72010    0.92537    0.94520    1.000
    C637     C        0.87100    0.87553    0.97447    1.000
    H427     H        0.89200    0.86480    0.99500    1.000
    Zn28     Zn       0.61440    0.92450    0.88180    1.000
    Zn29     Zn       0.13050    0.46032    0.96840    1.000
    Zn30     Zn       0.12563    0.41188    0.88477    1.000
    Zn31     Zn       0.65771    0.91383    0.78847    1.000
    N29      N        0.17020    0.74979    0.83023    1.000
    N30      N        0.62370    0.29885    0.94356    1.000
    N31      N        0.11370    0.46084    0.01926    1.000
    N32      N        0.13230    0.56382    0.23899    1.000
    O85      O        0.70820    0.85940    0.76990    1.000
    O86      O        0.70320    0.01324    0.97265    1.000
    O87      O        0.74460    0.90030    0.80544    1.000
    O88      O        0.15880    0.46143    0.81212    1.000
    O89      O        0.60240    0.00871    0.95092    1.000
    O90      O        0.57664    0.88962    0.78814    1.000
    O91      O        0.10970    0.46193    0.85574    1.000
    O92      O        0.61300    0.88044    0.84442    1.000
    O93      O        0.18962    0.43765    0.91686    1.000
    O94      O        0.05254    0.43201    0.95170    1.000
    O95      O        0.04014    0.41668    0.89563    1.000
    O96      O        0.20356    0.42805    0.97415    1.000
    C638     C        0.82180    0.82200    0.78190    1.000
    H428     H        0.78630    0.81060    0.76980    1.000
    C639     C        0.10740    0.43110    0.07320    1.000
    H429     H        0.12170    0.41240    0.08890    1.000
    C640     C        0.91960    0.85090    0.82130    1.000
    H430     H        0.95090    0.86040    0.83840    1.000
    C641     C        0.19460    0.68950    0.81060    1.000
    H431     H        0.21700    0.70020    0.79510    1.000
    C642     C        0.06600    0.47250    0.14336    1.000
    H432     H        0.08520    0.46170    0.16430    1.000
    C643     C        0.03690    0.45030    0.11330    1.000
    H433     H        0.04030    0.42480    0.12010    1.000
    H434     H        0.99310    0.45620    0.10760    1.000
    C644     C        0.06510    0.45520    0.08030    1.000
    C645     C        0.06390    0.51180    0.13965    1.000
    H435     H        0.08820    0.51890    0.12220    1.000
    H436     H        0.02130    0.51920    0.13110    1.000
    C646     C        0.05220    0.53840    0.19680    1.000
    H437     H        0.01020    0.53270    0.19100    1.000
    C647     C        0.15810    0.57260    0.80500    1.000
    H438     H        0.16830    0.58390    0.78540    1.000
    C648     C        0.12600    0.65680    0.85370    1.000
    H439     H        0.10050    0.64640    0.86770    1.000
    C649     C        0.04800    0.48190    0.05710    1.000
    H440     H        0.01890    0.49910    0.06110    1.000
    C650     C        0.15370    0.53560    0.80510    1.000
    H441     H        0.16080    0.52230    0.78580    1.000
    C651     C        0.81600    0.85640    0.79565    1.000
    C652     C        0.86320    0.86820    0.81610    1.000
    H442     H        0.85970    0.88970    0.82830    1.000
    C653     C        0.57690    0.23936    0.93040    1.000
    H443     H        0.54050    0.25030    0.91900    1.000
    C654     C        0.00480    0.77210    0.79550    1.000
    H444     H        0.97260    0.76150    0.77970    1.000
    C655     C        0.07470    0.55330    0.22880    1.000
    H445     H        0.04740    0.55620    0.24440    1.000
    C656     C        0.10160    0.80170    0.83740    1.000
    H446     H        0.13480    0.81230    0.85250    1.000
    C657     C        0.11060    0.76910    0.82220    1.000
    C658     C        0.13450    0.69470    0.85440    1.000
    H447     H        0.11750    0.70890    0.87020    1.000
    C659     C        0.15490    0.63450    0.83249    1.000
    C660     C        0.12940    0.43476    0.04120    1.000
    H448     H        0.15690    0.41730    0.03580    1.000
    C661     C        0.65210    0.02688    0.95996    1.000
    C662     C        0.93300    0.82200    0.80417    1.000
    C663     C        0.46280    0.85688    0.79212    1.000
    H449     H        0.46670    0.86920    0.77170    1.000
    C664     C        0.40840    0.83981    0.79395    1.000
    H450     H        0.37550    0.84140    0.77500    1.000
    C665     C        0.87750    0.80370    0.78540    1.000
    H451     H        0.87970    0.78050    0.77600    1.000
    C666     C        0.75310    0.87350    0.79010    1.000
    C667     C        0.14720    0.54410    0.18340    1.000
    H452     H        0.17490    0.54140    0.16810    1.000
    C668     C        0.06110    0.75430    0.80190    1.000
    H453     H        0.06470    0.73150    0.79190    1.000
    C669     C        0.08850    0.53196    0.17393    1.000
    C670     C        0.33710    0.77016    0.84511    1.000
    H454     H        0.37380    0.76020    0.85730    1.000
    C671     C        0.28530    0.81660    0.80780    1.000
    H455     H        0.28590    0.83840    0.79560    1.000
    C672     C        0.16660    0.56040    0.21510    1.000
    H456     H        0.20680    0.56960    0.21990    1.000
    C673     C        0.22900    0.79820    0.80830    1.000
    H457     H        0.19280    0.80690    0.79440    1.000
    C674     C        0.99380    0.80340    0.81033    1.000
    C675     C        0.04750    0.81880    0.83160    1.000
    H458     H        0.04440    0.84160    0.84180    1.000
    C676     C        0.14790    0.59450    0.83291    1.000
    C677     C        0.28280    0.75353    0.84700    1.000
    H459     H        0.28260    0.73250    0.86030    1.000
    C678     C        0.63270    0.18447    0.94888    1.000
    C679     C        0.45160    0.81850    0.85088    1.000
    H460     H        0.44900    0.80450    0.87060    1.000
    C680     C        0.69850    0.08897    0.95637    1.000
    H461     H        0.73720    0.07780    0.95910    1.000
    C681     C        0.57970    0.20157    0.93260    1.000
    H462     H        0.54520    0.18780    0.92280    1.000
    C682     C        0.22580    0.76818    0.82867    1.000
    C683     C        0.36240    0.38912    0.91488    1.000
    H463     H        0.37960    0.38920    0.89460    1.000
    C684     C        0.50580    0.83711    0.84963    1.000
    H464     H        0.53810    0.83670    0.86890    1.000
    C685     C        0.07280    0.48400    0.02777    1.000
    H465     H        0.06010    0.50310    0.01240    1.000
    C686     C        0.68200    0.20517    0.96314    1.000
    H466     H        0.71850    0.19390    0.97390    1.000
    C687     C        0.12920    0.57550    0.86049    1.000
    H467     H        0.12020    0.58850    0.87960    1.000
    C688     C        0.18940    0.65180    0.81140    1.000
    H468     H        0.21010    0.63790    0.79710    1.000
    C689     C        0.58380    0.12213    0.94820    1.000
    H469     H        0.54460    0.13270    0.94540    1.000
    C690     C        0.63630    0.14410    0.94991    1.000
    C691     C        0.52860    0.30676    0.96660    1.000
    H470     H        0.53970    0.28720    0.98170    1.000
    C692     C        0.64730    0.06874    0.95514    1.000
    C693     C        0.74510    0.36968    0.95458    1.000
    H471     H        0.75500    0.39090    0.96740    1.000
    C694     C        0.67710    0.31819    0.93942    1.000
    C695     C        0.13880    0.51784    0.83361    1.000
    C696     C        0.40070    0.81997    0.82374    1.000
    C697     C        0.16800    0.71085    0.83180    1.000
    C698     C        0.69310    0.35020    0.95856    1.000
    H472     H        0.66850    0.35840    0.97410    1.000
    C699     C        0.49510    0.36524    0.92196    1.000
    H473     H        0.48490    0.38520    0.90720    1.000
    C700     C        0.34010    0.80120    0.82583    1.000
    C701     C        0.86300    0.37921    0.89716    1.000
    H474     H        0.83800    0.37100    0.87660    1.000
    C702     C        0.31640    0.39343    0.97510    1.000
    H475     H        0.30250    0.39600    0.99630    1.000
    C703     C        0.76700    0.32659    0.91261    1.000
    H476     H        0.79140    0.31870    0.89680    1.000
    C704     C        0.12370    0.53817    0.86022    1.000
    H477     H        0.10940    0.52660    0.87860    1.000
    C705     C        0.87870    0.39215    0.95900    1.000
    H478     H        0.86500    0.39190    0.98040    1.000
    C706     C        0.69380    0.12618    0.95367    1.000
    H479     H        0.72960    0.13990    0.95430    1.000
    C707     C        0.58990    0.08473    0.95073    1.000
    H480     H        0.55470    0.07030    0.94940    1.000
    C708     C        0.51240    0.85634    0.81985    1.000
    C709     C        0.62600    0.26087    0.94468    1.000
    C710     C        0.56710    0.31807    0.94440    1.000
    C711     C        0.67910    0.24354    0.96195    1.000
    H481     H        0.71300    0.25720    0.97280    1.000
    C712     C        0.47310    0.32495    0.96610    1.000
    H482     H        0.44730    0.31710    0.98110    1.000
    C713     C        0.71520    0.30644    0.91662    1.000
    H483     H        0.70590    0.28500    0.90400    1.000
    C714     C        0.84200    0.37662    0.92897    1.000
    C715     C        0.02190    0.42058    0.92434    1.000
    C716     C        0.30520    0.40532    0.91341    1.000
    H484     H        0.28290    0.41430    0.89240    1.000
    C717     C        0.45420    0.35449    0.94416    1.000
    C718     C        0.54900    0.34721    0.92151    1.000
    H485     H        0.57420    0.35430    0.90580    1.000
    C719     C        0.95740    0.40761    0.92535    1.000
    C720     C        0.57070    0.87707    0.81750    1.000
    C721     C        0.39580    0.37285    0.94459    1.000
    C722     C        0.13490    0.47730    0.83396    1.000
    C723     C        0.28180    0.40773    0.94475    1.000
    C724     C        0.78310    0.35796    0.93150    1.000
    C725     C        0.93570    0.40789    0.95662    1.000
    H486     H        0.95930    0.41870    0.97640    1.000
    C726     C        0.92020    0.39367    0.89586    1.000
    H487     H        0.93420    0.39410    0.87460    1.000
    C727     C        0.22010    0.42537    0.94520    1.000
    C728     C        0.37100    0.37553    0.97447    1.000
    H488     H        0.39200    0.36480    0.99500    1.000
    Zn32     Zn       0.11440    0.42450    0.88180    1.000
