# CIF file generated by openbabel 3.1.0, see https://openbabel.org
data_I
_chemical_name_common 'XOQXOR_clean'
_cell_length_a 27.0818
_cell_length_b 12.0891
_cell_length_c 36.3156
_cell_angle_alpha 90
_cell_angle_beta 130.03
_cell_angle_gamma 90
_space_group_name_H-M_alt 'P 1'
_space_group_name_Hall 'P 1'
loop_
    _symmetry_equiv_pos_as_xyz
    x,y,z
loop_
    _atom_site_label
    _atom_site_type_symbol
    _atom_site_fract_x
    _atom_site_fract_y
    _atom_site_fract_z
    _atom_site_occupancy
    Zn1      Zn       0.29686    0.46232    0.25795    1.000
    Zn2      Zn       0.20632    0.68683    0.23521    1.000
    Si3      Si       0.08127    0.52562    0.95115    1.000
    H4       H        0.20510    0.46690    0.04420    1.000
    H5       H        0.25200    0.48660    0.12410    1.000
    H6       H        0.10470    0.67570    0.08610    1.000
    H7       H        0.05650    0.65480    0.00630    1.000
    H8       H        0.08830    0.34390    0.00820    1.000
    H9       H        0.04100    0.17780    0.99690    1.000
    H10      H        0.94390    0.20150    0.85680    1.000
    H11      H        0.98620    0.37660    0.86690    1.000
    H12      H        0.90420    0.06780    0.88940    1.000
    H13      H        0.96790    0.00410    0.91060    1.000
    H14      H        0.95420    0.04160    0.94460    1.000
    H15      H        0.94470    0.53570    0.90570    1.000
    H16      H        0.85790    0.65130    0.85250    1.000
    H17      H        0.97450    0.85950    0.85400    1.000
    H18      H        0.06070    0.74190    0.90630    1.000
    H19      H        0.07920    0.48440    0.87120    1.000
    H20      H        0.64140    0.02210    0.85080    1.000
    H21      H        0.77220    0.16340    0.97770    1.000
    H22      H        0.20780    0.62720    0.99700    1.000
    H23      H        0.73070    0.15750    0.86760    1.000
    H24      H        0.78620    0.18880    0.92160    1.000
    H25      H        0.78160    0.06830    0.90370    1.000
    H26      H        0.13680    0.15080    0.29210    1.000
    H27      H        0.20440    0.26650    0.29210    1.000
    H28      H        0.05980    0.48230    0.21040    1.000
    H29      H        0.99210    0.36480    0.20970    1.000
    H30      H        0.38480    0.68220    0.14960    1.000
    H31      H        0.83430    0.09020    0.07810    1.000
    H32      H        0.96570    0.85590    0.14590    1.000
    H33      H        0.01680    0.94600    0.21800    1.000
    H34      H        0.84940    0.96370    0.03310    1.000
    H35      H        0.89460    0.86070    0.05940    1.000
    H36      H        0.82660    0.86210    0.04560    1.000
    C37      C        0.12535    0.55930    0.01586    1.000
    C38      C        0.18441    0.50860    0.05227    1.000
    C39      C        0.21255    0.52000    0.10033    1.000
    C40      C        0.18215    0.58070    0.11289    1.000
    C41      C        0.12446    0.63260    0.07762    1.000
    C42      C        0.09601    0.62100    0.02975    1.000
    C43      C        0.21024    0.58680    0.16425    1.000
    C44      C        0.04651    0.38280    0.94021    1.000
    C45      C        0.05850    0.31780    0.97690    1.000
    C46      C        0.02900    0.21630    0.97000    1.000
    C47      C        0.98330    0.17140    0.92550    1.000
    C48      C        0.97140    0.23180    0.88760    1.000
    C49      C        0.99920    0.33700    0.89380    1.000
    C50      C        0.94920    0.06090    0.91670    1.000
    C51      C        0.01199    0.62460    0.91116    1.000
    C52      C        0.95092    0.60000    0.89508    1.000
    C53      C        0.89873    0.66960    0.86337    1.000
    C54      C        0.90805    0.76610    0.84818    1.000
    C55      C        0.96846    0.79410    0.86413    1.000
    C56      C        0.02001    0.72320    0.89550    1.000
    C57      C        0.85118    0.83820    0.81169    1.000
    C58      C        0.13740    0.54470    0.93750    1.000
    C59      C        0.11870    0.51930    0.89360    1.000
    C60      C        0.65600    0.04310    0.88100    1.000
    C61      C        0.71450    0.09760    0.91220    1.000
    C62      C        0.73310    0.12690    0.95560    1.000
    C63      C        0.19450    0.60290    0.96750    1.000
    C64      C        0.75720    0.13120    0.90010    1.000
    C65      C        0.05713    0.24590    0.25174    1.000
    C66      C        0.12106    0.21790    0.27579    1.000
    C67      C        0.16193    0.28750    0.27611    1.000
    C68      C        0.13956    0.38890    0.25260    1.000
    C69      C        0.07573    0.41610    0.22731    1.000
    C70      C        0.03503    0.34520    0.22694    1.000
    C71      C        0.18368    0.46500    0.25332    1.000
    C72      C        0.95439    0.06950    0.19347    1.000
    C73      C        0.90071    0.11380    0.14975    1.000
    C74      C        0.87030    0.05880    0.10650    1.000
    C75      C        0.89280    0.95890    0.10510    1.000
    C76      C        0.94770    0.92070    0.14650    1.000
    C77      C        0.97870    0.97510    0.19030    1.000
    C78      C        0.86300    0.90640    0.05620    1.000
    O79      O        0.25037    0.51200    0.19213    1.000
    O80      O        0.19233    0.66440    0.17606    1.000
    O81      O        0.86218    0.92880    0.80151    1.000
    O82      O        0.79637    0.80230    0.79403    1.000
    O83      O        0.23768    0.42750    0.26979    1.000
    O84      O        0.16308    0.56080    0.23720    1.000
    O85      O        0.33245    0.31986    0.26536    1.000
    H86      H        0.38067    0.31986    0.28849    1.000
    Zn87     Zn       0.79686    0.96232    0.25795    1.000
    Zn88     Zn       0.70632    0.18683    0.23521    1.000
    Si89     Si       0.58127    0.02562    0.95115    1.000
    H90      H        0.70510    0.96690    0.04420    1.000
    H91      H        0.75200    0.98660    0.12410    1.000
    H92      H        0.60470    0.17570    0.08610    1.000
    H93      H        0.55650    0.15480    0.00630    1.000
    H94      H        0.58830    0.84390    0.00820    1.000
    H95      H        0.54100    0.67780    0.99690    1.000
    H96      H        0.44390    0.70150    0.85680    1.000
    H97      H        0.48620    0.87660    0.86690    1.000
    H98      H        0.40420    0.56780    0.88940    1.000
    H99      H        0.46790    0.50410    0.91060    1.000
    H100     H        0.45420    0.54160    0.94460    1.000
    H101     H        0.44470    0.03570    0.90570    1.000
    H102     H        0.35790    0.15130    0.85250    1.000
    H103     H        0.47450    0.35950    0.85400    1.000
    H104     H        0.56070    0.24190    0.90630    1.000
    H105     H        0.57920    0.98440    0.87120    1.000
    H106     H        0.14140    0.52210    0.85080    1.000
    H107     H        0.27220    0.66340    0.97770    1.000
    H108     H        0.70780    0.12720    0.99700    1.000
    H109     H        0.23070    0.65750    0.86760    1.000
    H110     H        0.28620    0.68880    0.92160    1.000
    H111     H        0.28160    0.56830    0.90370    1.000
    H112     H        0.63680    0.65080    0.29210    1.000
    H113     H        0.70440    0.76650    0.29210    1.000
    H114     H        0.55980    0.98230    0.21040    1.000
    H115     H        0.49210    0.86480    0.20970    1.000
    H116     H        0.88480    0.18220    0.14960    1.000
    H117     H        0.33430    0.59020    0.07810    1.000
    H118     H        0.46570    0.35590    0.14590    1.000
    H119     H        0.51680    0.44600    0.21800    1.000
    H120     H        0.34940    0.46370    0.03310    1.000
    H121     H        0.39460    0.36070    0.05940    1.000
    H122     H        0.32660    0.36210    0.04560    1.000
    C123     C        0.62535    0.05930    0.01586    1.000
    C124     C        0.68441    0.00860    0.05227    1.000
    C125     C        0.71255    0.02000    0.10033    1.000
    C126     C        0.68215    0.08070    0.11289    1.000
    C127     C        0.62446    0.13260    0.07762    1.000
    C128     C        0.59601    0.12100    0.02975    1.000
    C129     C        0.71024    0.08680    0.16425    1.000
    C130     C        0.54651    0.88280    0.94021    1.000
    C131     C        0.55850    0.81780    0.97690    1.000
    C132     C        0.52900    0.71630    0.97000    1.000
    C133     C        0.48330    0.67140    0.92550    1.000
    C134     C        0.47140    0.73180    0.88760    1.000
    C135     C        0.49920    0.83700    0.89380    1.000
    C136     C        0.44920    0.56090    0.91670    1.000
    C137     C        0.51199    0.12460    0.91116    1.000
    C138     C        0.45092    0.10000    0.89508    1.000
    C139     C        0.39873    0.16960    0.86337    1.000
    C140     C        0.40805    0.26610    0.84818    1.000
    C141     C        0.46846    0.29410    0.86413    1.000
    C142     C        0.52001    0.22320    0.89550    1.000
    C143     C        0.35118    0.33820    0.81169    1.000
    C144     C        0.63740    0.04470    0.93750    1.000
    C145     C        0.61870    0.01930    0.89360    1.000
    C146     C        0.15600    0.54310    0.88100    1.000
    C147     C        0.21450    0.59760    0.91220    1.000
    C148     C        0.23310    0.62690    0.95560    1.000
    C149     C        0.69450    0.10290    0.96750    1.000
    C150     C        0.25720    0.63120    0.90010    1.000
    C151     C        0.55713    0.74590    0.25174    1.000
    C152     C        0.62106    0.71790    0.27579    1.000
    C153     C        0.66193    0.78750    0.27611    1.000
    C154     C        0.63956    0.88890    0.25260    1.000
    C155     C        0.57573    0.91610    0.22731    1.000
    C156     C        0.53503    0.84520    0.22694    1.000
    C157     C        0.68368    0.96500    0.25332    1.000
    C158     C        0.45439    0.56950    0.19347    1.000
    C159     C        0.40071    0.61380    0.14975    1.000
    C160     C        0.37030    0.55880    0.10650    1.000
    C161     C        0.39280    0.45890    0.10510    1.000
    C162     C        0.44770    0.42070    0.14650    1.000
    C163     C        0.47870    0.47510    0.19030    1.000
    C164     C        0.36300    0.40640    0.05620    1.000
    O165     O        0.75037    0.01200    0.19213    1.000
    O166     O        0.69233    0.16440    0.17606    1.000
    O167     O        0.36218    0.42880    0.80151    1.000
    O168     O        0.29637    0.30230    0.79403    1.000
    O169     O        0.73768    0.92750    0.26979    1.000
    O170     O        0.66308    0.06080    0.23720    1.000
    O171     O        0.83245    0.81986    0.26536    1.000
    H172     H        0.88067    0.81986    0.28849    1.000
    Zn173    Zn       0.70314    0.46232    0.24205    1.000
    Zn174    Zn       0.79368    0.68683    0.26479    1.000
    Si175    Si       0.91873    0.52562    0.54885    1.000
    H176     H        0.79490    0.46690    0.45580    1.000
    H177     H        0.74800    0.48660    0.37590    1.000
    H178     H        0.89530    0.67570    0.41390    1.000
    H179     H        0.94350    0.65480    0.49370    1.000
    H180     H        0.91170    0.34390    0.49180    1.000
    H181     H        0.95900    0.17780    0.50310    1.000
    H182     H        0.05610    0.20150    0.64320    1.000
    H183     H        0.01380    0.37660    0.63310    1.000
    H184     H        0.09580    0.06780    0.61060    1.000
    H185     H        0.03210    0.00410    0.58940    1.000
    H186     H        0.04580    0.04160    0.55540    1.000
    H187     H        0.05530    0.53570    0.59430    1.000
    H188     H        0.14210    0.65130    0.64750    1.000
    H189     H        0.02550    0.85950    0.64600    1.000
    H190     H        0.93930    0.74190    0.59370    1.000
    H191     H        0.92080    0.48440    0.62880    1.000
    H192     H        0.35860    0.02210    0.64920    1.000
    H193     H        0.22780    0.16340    0.52230    1.000
    H194     H        0.79220    0.62720    0.50300    1.000
    H195     H        0.26930    0.15750    0.63240    1.000
    H196     H        0.21380    0.18880    0.57840    1.000
    H197     H        0.21840    0.06830    0.59630    1.000
    H198     H        0.86320    0.15080    0.20790    1.000
    H199     H        0.79560    0.26650    0.20790    1.000
    H200     H        0.94020    0.48230    0.28960    1.000
    H201     H        0.00790    0.36480    0.29030    1.000
    H202     H        0.61520    0.68220    0.35040    1.000
    H203     H        0.16570    0.09020    0.42190    1.000
    H204     H        0.03430    0.85590    0.35410    1.000
    H205     H        0.98320    0.94600    0.28200    1.000
    H206     H        0.15060    0.96370    0.46690    1.000
    H207     H        0.10540    0.86070    0.44060    1.000
    H208     H        0.17340    0.86210    0.45440    1.000
    C209     C        0.87465    0.55930    0.48414    1.000
    C210     C        0.81559    0.50860    0.44773    1.000
    C211     C        0.78745    0.52000    0.39967    1.000
    C212     C        0.81785    0.58070    0.38711    1.000
    C213     C        0.87554    0.63260    0.42238    1.000
    C214     C        0.90399    0.62100    0.47025    1.000
    C215     C        0.78976    0.58680    0.33575    1.000
    C216     C        0.95349    0.38280    0.55979    1.000
    C217     C        0.94150    0.31780    0.52310    1.000
    C218     C        0.97100    0.21630    0.53000    1.000
    C219     C        0.01670    0.17140    0.57450    1.000
    C220     C        0.02860    0.23180    0.61240    1.000
    C221     C        0.00080    0.33700    0.60620    1.000
    C222     C        0.05080    0.06090    0.58330    1.000
    C223     C        0.98801    0.62460    0.58884    1.000
    C224     C        0.04908    0.60000    0.60492    1.000
    C225     C        0.10127    0.66960    0.63663    1.000
    C226     C        0.09195    0.76610    0.65182    1.000
    C227     C        0.03154    0.79410    0.63587    1.000
    C228     C        0.97999    0.72320    0.60450    1.000
    C229     C        0.14882    0.83820    0.68831    1.000
    C230     C        0.86260    0.54470    0.56250    1.000
    C231     C        0.88130    0.51930    0.60640    1.000
    C232     C        0.34400    0.04310    0.61900    1.000
    C233     C        0.28550    0.09760    0.58780    1.000
    C234     C        0.26690    0.12690    0.54440    1.000
    C235     C        0.80550    0.60290    0.53250    1.000
    C236     C        0.24280    0.13120    0.59990    1.000
    C237     C        0.94287    0.24590    0.24826    1.000
    C238     C        0.87894    0.21790    0.22421    1.000
    C239     C        0.83807    0.28750    0.22389    1.000
    C240     C        0.86044    0.38890    0.24740    1.000
    C241     C        0.92427    0.41610    0.27269    1.000
    C242     C        0.96497    0.34520    0.27306    1.000
    C243     C        0.81632    0.46500    0.24668    1.000
    C244     C        0.04561    0.06950    0.30653    1.000
    C245     C        0.09929    0.11380    0.35025    1.000
    C246     C        0.12970    0.05880    0.39350    1.000
    C247     C        0.10720    0.95890    0.39490    1.000
    C248     C        0.05230    0.92070    0.35350    1.000
    C249     C        0.02130    0.97510    0.30970    1.000
    C250     C        0.13700    0.90640    0.44380    1.000
    O251     O        0.74963    0.51200    0.30787    1.000
    O252     O        0.80767    0.66440    0.32394    1.000
    O253     O        0.13782    0.92880    0.69849    1.000
    O254     O        0.20363    0.80230    0.70597    1.000
    O255     O        0.76232    0.42750    0.23021    1.000
    O256     O        0.83692    0.56080    0.26280    1.000
    O257     O        0.66755    0.31986    0.23464    1.000
    H258     H        0.61933    0.31986    0.21151    1.000
    Zn259    Zn       0.20314    0.96232    0.24205    1.000
    Zn260    Zn       0.29368    0.18683    0.26479    1.000
    Si261    Si       0.41873    0.02562    0.54885    1.000
    H262     H        0.29490    0.96690    0.45580    1.000
    H263     H        0.24800    0.98660    0.37590    1.000
    H264     H        0.39530    0.17570    0.41390    1.000
    H265     H        0.44350    0.15480    0.49370    1.000
    H266     H        0.41170    0.84390    0.49180    1.000
    H267     H        0.45900    0.67780    0.50310    1.000
    H268     H        0.55610    0.70150    0.64320    1.000
    H269     H        0.51380    0.87660    0.63310    1.000
    H270     H        0.59580    0.56780    0.61060    1.000
    H271     H        0.53210    0.50410    0.58940    1.000
    H272     H        0.54580    0.54160    0.55540    1.000
    H273     H        0.55530    0.03570    0.59430    1.000
    H274     H        0.64210    0.15130    0.64750    1.000
    H275     H        0.52550    0.35950    0.64600    1.000
    H276     H        0.43930    0.24190    0.59370    1.000
    H277     H        0.42080    0.98440    0.62880    1.000
    H278     H        0.85860    0.52210    0.64920    1.000
    H279     H        0.72780    0.66340    0.52230    1.000
    H280     H        0.29220    0.12720    0.50300    1.000
    H281     H        0.76930    0.65750    0.63240    1.000
    H282     H        0.71380    0.68880    0.57840    1.000
    H283     H        0.71840    0.56830    0.59630    1.000
    H284     H        0.36320    0.65080    0.20790    1.000
    H285     H        0.29560    0.76650    0.20790    1.000
    H286     H        0.44020    0.98230    0.28960    1.000
    H287     H        0.50790    0.86480    0.29030    1.000
    H288     H        0.11520    0.18220    0.35040    1.000
    H289     H        0.66570    0.59020    0.42190    1.000
    H290     H        0.53430    0.35590    0.35410    1.000
    H291     H        0.48320    0.44600    0.28200    1.000
    H292     H        0.65060    0.46370    0.46690    1.000
    H293     H        0.60540    0.36070    0.44060    1.000
    H294     H        0.67340    0.36210    0.45440    1.000
    C295     C        0.37465    0.05930    0.48414    1.000
    C296     C        0.31559    0.00860    0.44773    1.000
    C297     C        0.28745    0.02000    0.39967    1.000
    C298     C        0.31785    0.08070    0.38711    1.000
    C299     C        0.37554    0.13260    0.42238    1.000
    C300     C        0.40399    0.12100    0.47025    1.000
    C301     C        0.28976    0.08680    0.33575    1.000
    C302     C        0.45349    0.88280    0.55979    1.000
    C303     C        0.44150    0.81780    0.52310    1.000
    C304     C        0.47100    0.71630    0.53000    1.000
    C305     C        0.51670    0.67140    0.57450    1.000
    C306     C        0.52860    0.73180    0.61240    1.000
    C307     C        0.50080    0.83700    0.60620    1.000
    C308     C        0.55080    0.56090    0.58330    1.000
    C309     C        0.48801    0.12460    0.58884    1.000
    C310     C        0.54908    0.10000    0.60492    1.000
    C311     C        0.60127    0.16960    0.63663    1.000
    C312     C        0.59195    0.26610    0.65182    1.000
    C313     C        0.53154    0.29410    0.63587    1.000
    C314     C        0.47999    0.22320    0.60450    1.000
    C315     C        0.64882    0.33820    0.68831    1.000
    C316     C        0.36260    0.04470    0.56250    1.000
    C317     C        0.38130    0.01930    0.60640    1.000
    C318     C        0.84400    0.54310    0.61900    1.000
    C319     C        0.78550    0.59760    0.58780    1.000
    C320     C        0.76690    0.62690    0.54440    1.000
    C321     C        0.30550    0.10290    0.53250    1.000
    C322     C        0.74280    0.63120    0.59990    1.000
    C323     C        0.44287    0.74590    0.24826    1.000
    C324     C        0.37894    0.71790    0.22421    1.000
    C325     C        0.33807    0.78750    0.22389    1.000
    C326     C        0.36044    0.88890    0.24740    1.000
    C327     C        0.42427    0.91610    0.27269    1.000
    C328     C        0.46497    0.84520    0.27306    1.000
    C329     C        0.31632    0.96500    0.24668    1.000
    C330     C        0.54561    0.56950    0.30653    1.000
    C331     C        0.59929    0.61380    0.35025    1.000
    C332     C        0.62970    0.55880    0.39350    1.000
    C333     C        0.60720    0.45890    0.39490    1.000
    C334     C        0.55230    0.42070    0.35350    1.000
    C335     C        0.52130    0.47510    0.30970    1.000
    C336     C        0.63700    0.40640    0.44380    1.000
    O337     O        0.24963    0.01200    0.30787    1.000
    O338     O        0.30767    0.16440    0.32394    1.000
    O339     O        0.63782    0.42880    0.69849    1.000
    O340     O        0.70363    0.30230    0.70597    1.000
    O341     O        0.26232    0.92750    0.23021    1.000
    O342     O        0.33692    0.06080    0.26280    1.000
    O343     O        0.16755    0.81986    0.23464    1.000
    H344     H        0.11933    0.81986    0.21151    1.000
    Zn345    Zn       0.70314    0.53768    0.74205    1.000
    Zn346    Zn       0.79368    0.31317    0.76479    1.000
    Si347    Si       0.91873    0.47438    0.04885    1.000
    H348     H        0.79490    0.53310    0.95580    1.000
    H349     H        0.74800    0.51340    0.87590    1.000
    H350     H        0.89530    0.32430    0.91390    1.000
    H351     H        0.94350    0.34520    0.99370    1.000
    H352     H        0.91170    0.65610    0.99180    1.000
    H353     H        0.95900    0.82220    0.00310    1.000
    H354     H        0.05610    0.79850    0.14320    1.000
    H355     H        0.01380    0.62340    0.13310    1.000
    H356     H        0.09580    0.93220    0.11060    1.000
    H357     H        0.03210    0.99590    0.08940    1.000
    H358     H        0.04580    0.95840    0.05540    1.000
    H359     H        0.05530    0.46430    0.09430    1.000
    H360     H        0.14210    0.34870    0.14750    1.000
    H361     H        0.02550    0.14050    0.14600    1.000
    H362     H        0.93930    0.25810    0.09370    1.000
    H363     H        0.92080    0.51560    0.12880    1.000
    H364     H        0.35860    0.97790    0.14920    1.000
    H365     H        0.22780    0.83660    0.02230    1.000
    H366     H        0.79220    0.37280    0.00300    1.000
    H367     H        0.26930    0.84250    0.13240    1.000
    H368     H        0.21380    0.81120    0.07840    1.000
    H369     H        0.21840    0.93170    0.09630    1.000
    H370     H        0.86320    0.84920    0.70790    1.000
    H371     H        0.79560    0.73350    0.70790    1.000
    H372     H        0.94020    0.51770    0.78960    1.000
    H373     H        0.00790    0.63520    0.79030    1.000
    H374     H        0.61520    0.31780    0.85040    1.000
    H375     H        0.16570    0.90980    0.92190    1.000
    H376     H        0.03430    0.14410    0.85410    1.000
    H377     H        0.98320    0.05400    0.78200    1.000
    H378     H        0.15060    0.03630    0.96690    1.000
    H379     H        0.10540    0.13930    0.94060    1.000
    H380     H        0.17340    0.13790    0.95440    1.000
    C381     C        0.87465    0.44070    0.98414    1.000
    C382     C        0.81559    0.49140    0.94773    1.000
    C383     C        0.78745    0.48000    0.89967    1.000
    C384     C        0.81785    0.41930    0.88711    1.000
    C385     C        0.87554    0.36740    0.92238    1.000
    C386     C        0.90399    0.37900    0.97025    1.000
    C387     C        0.78976    0.41320    0.83575    1.000
    C388     C        0.95349    0.61720    0.05979    1.000
    C389     C        0.94150    0.68220    0.02310    1.000
    C390     C        0.97100    0.78370    0.03000    1.000
    C391     C        0.01670    0.82860    0.07450    1.000
    C392     C        0.02860    0.76820    0.11240    1.000
    C393     C        0.00080    0.66300    0.10620    1.000
    C394     C        0.05080    0.93910    0.08330    1.000
    C395     C        0.98801    0.37540    0.08884    1.000
    C396     C        0.04908    0.40000    0.10492    1.000
    C397     C        0.10127    0.33040    0.13663    1.000
    C398     C        0.09195    0.23390    0.15182    1.000
    C399     C        0.03154    0.20590    0.13587    1.000
    C400     C        0.97999    0.27680    0.10450    1.000
    C401     C        0.14882    0.16180    0.18831    1.000
    C402     C        0.86260    0.45530    0.06250    1.000
    C403     C        0.88130    0.48070    0.10640    1.000
    C404     C        0.34400    0.95690    0.11900    1.000
    C405     C        0.28550    0.90240    0.08780    1.000
    C406     C        0.26690    0.87310    0.04440    1.000
    C407     C        0.80550    0.39710    0.03250    1.000
    C408     C        0.24280    0.86880    0.09990    1.000
    C409     C        0.94287    0.75410    0.74826    1.000
    C410     C        0.87894    0.78210    0.72421    1.000
    C411     C        0.83807    0.71250    0.72389    1.000
    C412     C        0.86044    0.61110    0.74740    1.000
    C413     C        0.92427    0.58390    0.77269    1.000
    C414     C        0.96497    0.65480    0.77306    1.000
    C415     C        0.81632    0.53500    0.74668    1.000
    C416     C        0.04561    0.93050    0.80653    1.000
    C417     C        0.09929    0.88620    0.85025    1.000
    C418     C        0.12970    0.94120    0.89350    1.000
    C419     C        0.10720    0.04110    0.89490    1.000
    C420     C        0.05230    0.07930    0.85350    1.000
    C421     C        0.02130    0.02490    0.80970    1.000
    C422     C        0.13700    0.09360    0.94380    1.000
    O423     O        0.74963    0.48800    0.80787    1.000
    O424     O        0.80767    0.33560    0.82394    1.000
    O425     O        0.13782    0.07120    0.19849    1.000
    O426     O        0.20363    0.19770    0.20597    1.000
    O427     O        0.76232    0.57250    0.73021    1.000
    O428     O        0.83692    0.43920    0.76280    1.000
    O429     O        0.66755    0.68014    0.73464    1.000
    H430     H        0.61933    0.68014    0.71151    1.000
    Zn431    Zn       0.20314    0.03768    0.74205    1.000
    Zn432    Zn       0.29368    0.81317    0.76479    1.000
    Si433    Si       0.41873    0.97438    0.04885    1.000
    H434     H        0.29490    0.03310    0.95580    1.000
    H435     H        0.24800    0.01340    0.87590    1.000
    H436     H        0.39530    0.82430    0.91390    1.000
    H437     H        0.44350    0.84520    0.99370    1.000
    H438     H        0.41170    0.15610    0.99180    1.000
    H439     H        0.45900    0.32220    0.00310    1.000
    H440     H        0.55610    0.29850    0.14320    1.000
    H441     H        0.51380    0.12340    0.13310    1.000
    H442     H        0.59580    0.43220    0.11060    1.000
    H443     H        0.53210    0.49590    0.08940    1.000
    H444     H        0.54580    0.45840    0.05540    1.000
    H445     H        0.55530    0.96430    0.09430    1.000
    H446     H        0.64210    0.84870    0.14750    1.000
    H447     H        0.52550    0.64050    0.14600    1.000
    H448     H        0.43930    0.75810    0.09370    1.000
    H449     H        0.42080    0.01560    0.12880    1.000
    H450     H        0.85860    0.47790    0.14920    1.000
    H451     H        0.72780    0.33660    0.02230    1.000
    H452     H        0.29220    0.87280    0.00300    1.000
    H453     H        0.76930    0.34250    0.13240    1.000
    H454     H        0.71380    0.31120    0.07840    1.000
    H455     H        0.71840    0.43170    0.09630    1.000
    H456     H        0.36320    0.34920    0.70790    1.000
    H457     H        0.29560    0.23350    0.70790    1.000
    H458     H        0.44020    0.01770    0.78960    1.000
    H459     H        0.50790    0.13520    0.79030    1.000
    H460     H        0.11520    0.81780    0.85040    1.000
    H461     H        0.66570    0.40980    0.92190    1.000
    H462     H        0.53430    0.64410    0.85410    1.000
    H463     H        0.48320    0.55400    0.78200    1.000
    H464     H        0.65060    0.53630    0.96690    1.000
    H465     H        0.60540    0.63930    0.94060    1.000
    H466     H        0.67340    0.63790    0.95440    1.000
    C467     C        0.37465    0.94070    0.98414    1.000
    C468     C        0.31559    0.99140    0.94773    1.000
    C469     C        0.28745    0.98000    0.89967    1.000
    C470     C        0.31785    0.91930    0.88711    1.000
    C471     C        0.37554    0.86740    0.92238    1.000
    C472     C        0.40399    0.87900    0.97025    1.000
    C473     C        0.28976    0.91320    0.83575    1.000
    C474     C        0.45349    0.11720    0.05979    1.000
    C475     C        0.44150    0.18220    0.02310    1.000
    C476     C        0.47100    0.28370    0.03000    1.000
    C477     C        0.51670    0.32860    0.07450    1.000
    C478     C        0.52860    0.26820    0.11240    1.000
    C479     C        0.50080    0.16300    0.10620    1.000
    C480     C        0.55080    0.43910    0.08330    1.000
    C481     C        0.48801    0.87540    0.08884    1.000
    C482     C        0.54908    0.90000    0.10492    1.000
    C483     C        0.60127    0.83040    0.13663    1.000
    C484     C        0.59195    0.73390    0.15182    1.000
    C485     C        0.53154    0.70590    0.13587    1.000
    C486     C        0.47999    0.77680    0.10450    1.000
    C487     C        0.64882    0.66180    0.18831    1.000
    C488     C        0.36260    0.95530    0.06250    1.000
    C489     C        0.38130    0.98070    0.10640    1.000
    C490     C        0.84400    0.45690    0.11900    1.000
    C491     C        0.78550    0.40240    0.08780    1.000
    C492     C        0.76690    0.37310    0.04440    1.000
    C493     C        0.30550    0.89710    0.03250    1.000
    C494     C        0.74280    0.36880    0.09990    1.000
    C495     C        0.44287    0.25410    0.74826    1.000
    C496     C        0.37894    0.28210    0.72421    1.000
    C497     C        0.33807    0.21250    0.72389    1.000
    C498     C        0.36044    0.11110    0.74740    1.000
    C499     C        0.42427    0.08390    0.77269    1.000
    C500     C        0.46497    0.15480    0.77306    1.000
    C501     C        0.31632    0.03500    0.74668    1.000
    C502     C        0.54561    0.43050    0.80653    1.000
    C503     C        0.59929    0.38620    0.85025    1.000
    C504     C        0.62970    0.44120    0.89350    1.000
    C505     C        0.60720    0.54110    0.89490    1.000
    C506     C        0.55230    0.57930    0.85350    1.000
    C507     C        0.52130    0.52490    0.80970    1.000
    C508     C        0.63700    0.59360    0.94380    1.000
    O509     O        0.24963    0.98800    0.80787    1.000
    O510     O        0.30767    0.83560    0.82394    1.000
    O511     O        0.63782    0.57120    0.19849    1.000
    O512     O        0.70363    0.69770    0.20597    1.000
    O513     O        0.26232    0.07250    0.73021    1.000
    O514     O        0.33692    0.93920    0.76280    1.000
    O515     O        0.16755    0.18014    0.73464    1.000
    H516     H        0.11933    0.18014    0.71151    1.000
    Zn517    Zn       0.29686    0.53768    0.75795    1.000
    Zn518    Zn       0.20632    0.31317    0.73521    1.000
    Si519    Si       0.08127    0.47438    0.45115    1.000
    H520     H        0.20510    0.53310    0.54420    1.000
    H521     H        0.25200    0.51340    0.62410    1.000
    H522     H        0.10470    0.32430    0.58610    1.000
    H523     H        0.05650    0.34520    0.50630    1.000
    H524     H        0.08830    0.65610    0.50820    1.000
    H525     H        0.04100    0.82220    0.49690    1.000
    H526     H        0.94390    0.79850    0.35680    1.000
    H527     H        0.98620    0.62340    0.36690    1.000
    H528     H        0.90420    0.93220    0.38940    1.000
    H529     H        0.96790    0.99590    0.41060    1.000
    H530     H        0.95420    0.95840    0.44460    1.000
    H531     H        0.94470    0.46430    0.40570    1.000
    H532     H        0.85790    0.34870    0.35250    1.000
    H533     H        0.97450    0.14050    0.35400    1.000
    H534     H        0.06070    0.25810    0.40630    1.000
    H535     H        0.07920    0.51560    0.37120    1.000
    H536     H        0.64140    0.97790    0.35080    1.000
    H537     H        0.77220    0.83660    0.47770    1.000
    H538     H        0.20780    0.37280    0.49700    1.000
    H539     H        0.73070    0.84250    0.36760    1.000
    H540     H        0.78620    0.81120    0.42160    1.000
    H541     H        0.78160    0.93170    0.40370    1.000
    H542     H        0.13680    0.84920    0.79210    1.000
    H543     H        0.20440    0.73350    0.79210    1.000
    H544     H        0.05980    0.51770    0.71040    1.000
    H545     H        0.99210    0.63520    0.70970    1.000
    H546     H        0.38480    0.31780    0.64960    1.000
    H547     H        0.83430    0.90980    0.57810    1.000
    H548     H        0.96570    0.14410    0.64590    1.000
    H549     H        0.01680    0.05400    0.71800    1.000
    H550     H        0.84940    0.03630    0.53310    1.000
    H551     H        0.89460    0.13930    0.55940    1.000
    H552     H        0.82660    0.13790    0.54560    1.000
    C553     C        0.12535    0.44070    0.51586    1.000
    C554     C        0.18441    0.49140    0.55227    1.000
    C555     C        0.21255    0.48000    0.60033    1.000
    C556     C        0.18215    0.41930    0.61289    1.000
    C557     C        0.12446    0.36740    0.57762    1.000
    C558     C        0.09601    0.37900    0.52975    1.000
    C559     C        0.21024    0.41320    0.66425    1.000
    C560     C        0.04651    0.61720    0.44021    1.000
    C561     C        0.05850    0.68220    0.47690    1.000
    C562     C        0.02900    0.78370    0.47000    1.000
    C563     C        0.98330    0.82860    0.42550    1.000
    C564     C        0.97140    0.76820    0.38760    1.000
    C565     C        0.99920    0.66300    0.39380    1.000
    C566     C        0.94920    0.93910    0.41670    1.000
    C567     C        0.01199    0.37540    0.41116    1.000
    C568     C        0.95092    0.40000    0.39508    1.000
    C569     C        0.89873    0.33040    0.36337    1.000
    C570     C        0.90805    0.23390    0.34818    1.000
    C571     C        0.96846    0.20590    0.36413    1.000
    C572     C        0.02001    0.27680    0.39550    1.000
    C573     C        0.85118    0.16180    0.31169    1.000
    C574     C        0.13740    0.45530    0.43750    1.000
    C575     C        0.11870    0.48070    0.39360    1.000
    C576     C        0.65600    0.95690    0.38100    1.000
    C577     C        0.71450    0.90240    0.41220    1.000
    C578     C        0.73310    0.87310    0.45560    1.000
    C579     C        0.19450    0.39710    0.46750    1.000
    C580     C        0.75720    0.86880    0.40010    1.000
    C581     C        0.05713    0.75410    0.75174    1.000
    C582     C        0.12106    0.78210    0.77579    1.000
    C583     C        0.16193    0.71250    0.77611    1.000
    C584     C        0.13956    0.61110    0.75260    1.000
    C585     C        0.07573    0.58390    0.72731    1.000
    C586     C        0.03503    0.65480    0.72694    1.000
    C587     C        0.18368    0.53500    0.75332    1.000
    C588     C        0.95439    0.93050    0.69347    1.000
    C589     C        0.90071    0.88620    0.64975    1.000
    C590     C        0.87030    0.94120    0.60650    1.000
    C591     C        0.89280    0.04110    0.60510    1.000
    C592     C        0.94770    0.07930    0.64650    1.000
    C593     C        0.97870    0.02490    0.69030    1.000
    C594     C        0.86300    0.09360    0.55620    1.000
    O595     O        0.25037    0.48800    0.69213    1.000
    O596     O        0.19233    0.33560    0.67606    1.000
    O597     O        0.86218    0.07120    0.30151    1.000
    O598     O        0.79637    0.19770    0.29403    1.000
    O599     O        0.23768    0.57250    0.76979    1.000
    O600     O        0.16308    0.43920    0.73720    1.000
    O601     O        0.33245    0.68014    0.76536    1.000
    H602     H        0.38067    0.68014    0.78849    1.000
    Zn603    Zn       0.79686    0.03768    0.75795    1.000
    Zn604    Zn       0.70632    0.81317    0.73521    1.000
    Si605    Si       0.58127    0.97438    0.45115    1.000
    H606     H        0.70510    0.03310    0.54420    1.000
    H607     H        0.75200    0.01340    0.62410    1.000
    H608     H        0.60470    0.82430    0.58610    1.000
    H609     H        0.55650    0.84520    0.50630    1.000
    H610     H        0.58830    0.15610    0.50820    1.000
    H611     H        0.54100    0.32220    0.49690    1.000
    H612     H        0.44390    0.29850    0.35680    1.000
    H613     H        0.48620    0.12340    0.36690    1.000
    H614     H        0.40420    0.43220    0.38940    1.000
    H615     H        0.46790    0.49590    0.41060    1.000
    H616     H        0.45420    0.45840    0.44460    1.000
    H617     H        0.44470    0.96430    0.40570    1.000
    H618     H        0.35790    0.84870    0.35250    1.000
    H619     H        0.47450    0.64050    0.35400    1.000
    H620     H        0.56070    0.75810    0.40630    1.000
    H621     H        0.57920    0.01560    0.37120    1.000
    H622     H        0.14140    0.47790    0.35080    1.000
    H623     H        0.27220    0.33660    0.47770    1.000
    H624     H        0.70780    0.87280    0.49700    1.000
    H625     H        0.23070    0.34250    0.36760    1.000
    H626     H        0.28620    0.31120    0.42160    1.000
    H627     H        0.28160    0.43170    0.40370    1.000
    H628     H        0.63680    0.34920    0.79210    1.000
    H629     H        0.70440    0.23350    0.79210    1.000
    H630     H        0.55980    0.01770    0.71040    1.000
    H631     H        0.49210    0.13520    0.70970    1.000
    H632     H        0.88480    0.81780    0.64960    1.000
    H633     H        0.33430    0.40980    0.57810    1.000
    H634     H        0.46570    0.64410    0.64590    1.000
    H635     H        0.51680    0.55400    0.71800    1.000
    H636     H        0.34940    0.53630    0.53310    1.000
    H637     H        0.39460    0.63930    0.55940    1.000
    H638     H        0.32660    0.63790    0.54560    1.000
    C639     C        0.62535    0.94070    0.51586    1.000
    C640     C        0.68441    0.99140    0.55227    1.000
    C641     C        0.71255    0.98000    0.60033    1.000
    C642     C        0.68215    0.91930    0.61289    1.000
    C643     C        0.62446    0.86740    0.57762    1.000
    C644     C        0.59601    0.87900    0.52975    1.000
    C645     C        0.71024    0.91320    0.66425    1.000
    C646     C        0.54651    0.11720    0.44021    1.000
    C647     C        0.55850    0.18220    0.47690    1.000
    C648     C        0.52900    0.28370    0.47000    1.000
    C649     C        0.48330    0.32860    0.42550    1.000
    C650     C        0.47140    0.26820    0.38760    1.000
    C651     C        0.49920    0.16300    0.39380    1.000
    C652     C        0.44920    0.43910    0.41670    1.000
    C653     C        0.51199    0.87540    0.41116    1.000
    C654     C        0.45092    0.90000    0.39508    1.000
    C655     C        0.39873    0.83040    0.36337    1.000
    C656     C        0.40805    0.73390    0.34818    1.000
    C657     C        0.46846    0.70590    0.36413    1.000
    C658     C        0.52001    0.77680    0.39550    1.000
    C659     C        0.35118    0.66180    0.31169    1.000
    C660     C        0.63740    0.95530    0.43750    1.000
    C661     C        0.61870    0.98070    0.39360    1.000
    C662     C        0.15600    0.45690    0.38100    1.000
    C663     C        0.21450    0.40240    0.41220    1.000
    C664     C        0.23310    0.37310    0.45560    1.000
    C665     C        0.69450    0.89710    0.46750    1.000
    C666     C        0.25720    0.36880    0.40010    1.000
    C667     C        0.55713    0.25410    0.75174    1.000
    C668     C        0.62106    0.28210    0.77579    1.000
    C669     C        0.66193    0.21250    0.77611    1.000
    C670     C        0.63956    0.11110    0.75260    1.000
    C671     C        0.57573    0.08390    0.72731    1.000
    C672     C        0.53503    0.15480    0.72694    1.000
    C673     C        0.68368    0.03500    0.75332    1.000
    C674     C        0.45439    0.43050    0.69347    1.000
    C675     C        0.40071    0.38620    0.64975    1.000
    C676     C        0.37030    0.44120    0.60650    1.000
    C677     C        0.39280    0.54110    0.60510    1.000
    C678     C        0.44770    0.57930    0.64650    1.000
    C679     C        0.47870    0.52490    0.69030    1.000
    C680     C        0.36300    0.59360    0.55620    1.000
    O681     O        0.75037    0.98800    0.69213    1.000
    O682     O        0.69233    0.83560    0.67606    1.000
    O683     O        0.36218    0.57120    0.30151    1.000
    O684     O        0.29637    0.69770    0.29403    1.000
    O685     O        0.73768    0.07250    0.76979    1.000
    O686     O        0.66308    0.93920    0.73720    1.000
    O687     O        0.83245    0.18014    0.76536    1.000
    H688     H        0.88067    0.18014    0.78849    1.000
    Si689    Si       0.00000    0.15289    0.25000    1.000
    Si690    Si       0.50000    0.65289    0.25000    1.000
    Si691    Si       0.00000    0.84711    0.75000    1.000
    Si692    Si       0.50000    0.34711    0.75000    1.000
