data_functionalizedCrystal
_audit_creation_method	'EQeq! by Chris Wilmer'
_symmetry_space_group_name_H-M	'P1'
_symmetry_Int_Tables_number	1
_symmetry_cell_setting	triclinic
loop_
_symmetry_equiv_pos_as_xyz
  x,y,z
_cell_length_a	9.9493
_cell_length_b	14.0796
_cell_length_c	19.906
_cell_angle_alpha	90
_cell_angle_beta	101.585
_cell_angle_gamma	90
loop_
_atom_site_label
_atom_site_type_symbol
_atom_site_fract_x
_atom_site_fract_y
_atom_site_fract_z
_atom_site_charge
Mof_Ag	Ag	0.61117	0.02239	0.45144	0.429
Mof_Ag	Ag	0.61242	0.14922	0.27907	0.455
Mof_Ag	Ag	0.93291	0.12975	0.63471	0.43
Mof_S 	S 	0.7802	0.0164	0.5602	-0.322
Mof_S 	S 	0.7642	0.0187	0.3527	-0.267
Mof_N 	N 	0.5848	0.9313	0.6175	-0.185
Mof_N 	N 	0.5792	0.8688	0.6696	-0.122
Mof_N 	N 	0.6982	0.8418	0.696	-0.085
Mof_N 	N 	0.7855	0.8859	0.6629	-0.078
Mof_N 	N 	0.8527	0.8521	0.3062	-0.173
Mof_N 	N 	0.7988	0.7783	0.2666	-0.125
Mof_N 	N 	0.6683	0.7896	0.2458	-0.085
Mof_N 	N 	0.6369	0.8736	0.272	-0.087
Mof_C 	C 	0.7092	0.9427	0.614	0.118
Mof_C 	C 	0.931	0.8673	0.6838	-0.304
Mof_H 	H 	0.9464	0.8224	0.7208	0.114
Mof_H 	H 	0.9784	0.9255	0.6986	0.097
Mof_H 	H 	0.9653	0.8418	0.6457	0.106
Mof_C 	C 	0.7505	0.9101	0.3108	0.109
Mof_C 	C 	0.4966	0.908	0.261	-0.259
Mof_H 	H 	0.438	0.8662	0.23	0.091
Mof_H 	H 	0.4669	0.91	0.3039	0.078
Mof_H 	H 	0.4921	0.9707	0.2416	0.07
Mof_Ag	Ag	0.88883	0.52239	0.04856	0.426
Mof_Ag	Ag	0.88758	0.64922	0.22093	0.454
Mof_Ag	Ag	0.56709	0.62975	0.86529	0.428
Mof_S 	S 	0.7198	0.5164	0.9398	-0.321
Mof_S 	S 	0.7358	0.5187	0.1473	-0.267
Mof_N 	N 	0.9152	0.4313	0.8825	-0.185
Mof_N 	N 	0.9208	0.3688	0.8304	-0.121
Mof_N 	N 	0.8018	0.3418	0.804	-0.085
Mof_N 	N 	0.7145	0.3859	0.8371	-0.078
Mof_N 	N 	0.6473	0.3521	0.1938	-0.172
Mof_N 	N 	0.7012	0.2783	0.2334	-0.125
Mof_N 	N 	0.8317	0.2896	0.2542	-0.085
Mof_N 	N 	0.8631	0.3736	0.228	-0.088
Mof_C 	C 	0.7908	0.4427	0.886	0.118
Mof_C 	C 	0.569	0.3673	0.8162	-0.304
Mof_H 	H 	0.5536	0.3224	0.7792	0.113
Mof_H 	H 	0.5216	0.4255	0.8014	0.096
Mof_H 	H 	0.5347	0.3418	0.8543	0.105
Mof_C 	C 	0.7495	0.4101	0.1892	0.109
Mof_C 	C 	0.0034	0.408	0.239	-0.258
Mof_H 	H 	0.062	0.3662	0.27	0.09
Mof_H 	H 	0.0331	0.41	0.1961	0.078
Mof_H 	H 	0.0079	0.4707	0.2584	0.07
Mof_Ag	Ag	0.38883	0.97761	0.54856	0.428
Mof_Ag	Ag	0.38758	0.85078	0.72093	0.454
Mof_Ag	Ag	0.06709	0.87025	0.36529	0.429
Mof_S 	S 	0.2198	0.9836	0.4398	-0.323
Mof_S 	S 	0.2358	0.9813	0.6473	-0.268
Mof_N 	N 	0.4152	0.0687	0.3825	-0.186
Mof_N 	N 	0.4208	0.1312	0.3304	-0.122
Mof_N 	N 	0.3018	0.1582	0.304	-0.085
Mof_N 	N 	0.2145	0.1141	0.3371	-0.078
Mof_N 	N 	0.1473	0.1479	0.6938	-0.173
Mof_N 	N 	0.2012	0.2217	0.7334	-0.125
Mof_N 	N 	0.3317	0.2104	0.7542	-0.085
Mof_N 	N 	0.3631	0.1264	0.728	-0.087
Mof_C 	C 	0.2908	0.0573	0.386	0.118
Mof_C 	C 	0.069	0.1327	0.3162	-0.304
Mof_H 	H 	0.0536	0.1776	0.2792	0.114
Mof_H 	H 	0.0216	0.0745	0.3014	0.097
Mof_H 	H 	0.0347	0.1582	0.3543	0.106
Mof_C 	C 	0.2495	0.0899	0.6892	0.109
Mof_C 	C 	0.5034	0.092	0.739	-0.259
Mof_H 	H 	0.562	0.1338	0.77	0.091
Mof_H 	H 	0.5331	0.09	0.6961	0.078
Mof_H 	H 	0.5079	0.0293	0.7584	0.07
Mof_Ag	Ag	0.11117	0.47761	0.95144	0.426
Mof_Ag	Ag	0.11242	0.35078	0.77907	0.454
Mof_Ag	Ag	0.43291	0.37025	0.13471	0.428
Mof_S 	S 	0.2802	0.4836	0.0602	-0.321
Mof_S 	S 	0.2642	0.4813	0.8527	-0.267
Mof_N 	N 	0.0848	0.5687	0.1175	-0.185
Mof_N 	N 	0.0792	0.6312	0.1696	-0.121
Mof_N 	N 	0.1982	0.6582	0.196	-0.085
Mof_N 	N 	0.2855	0.6141	0.1629	-0.078
Mof_N 	N 	0.3527	0.6479	0.8062	-0.172
Mof_N 	N 	0.2988	0.7217	0.7666	-0.125
Mof_N 	N 	0.1683	0.7104	0.7458	-0.085
Mof_N 	N 	0.1369	0.6264	0.772	-0.088
Mof_C 	C 	0.2092	0.5573	0.114	0.118
Mof_C 	C 	0.431	0.6327	0.1838	-0.304
Mof_H 	H 	0.4464	0.6776	0.2208	0.113
Mof_H 	H 	0.4784	0.5745	0.1986	0.096
Mof_H 	H 	0.4653	0.6582	0.1457	0.105
Mof_C 	C 	0.2505	0.5899	0.8108	0.109
Mof_C 	C 	0.9966	0.592	0.761	-0.258
Mof_H 	H 	0.938	0.6338	0.73	0.09
Mof_H 	H 	0.9669	0.59	0.8039	0.078
Mof_H 	H 	0.9921	0.5293	0.7416	0.07
_end
