data_functionalizedCrystal
_audit_creation_method	'EQeq! by Chris Wilmer'
_symmetry_space_group_name_H-M	'P1'
_symmetry_Int_Tables_number	1
_symmetry_cell_setting	triclinic
loop_
_symmetry_equiv_pos_as_xyz
  x,y,z
_cell_length_a	14.809
_cell_length_b	19.3008
_cell_length_c	31.842
_cell_angle_alpha	101.76
_cell_angle_beta	90
_cell_angle_gamma	112.559
loop_
_atom_site_label
_atom_site_type_symbol
_atom_site_fract_x
_atom_site_fract_y
_atom_site_fract_z
_atom_site_charge
Mof_Zn	Zn	0.2159	0.252	0.56284	1.163
Mof_Zn	Zn	0.70745	0.67294	0.73189	1.162
Mof_Zn	Zn	0.2825	0.82084	0.41934	1.161
Mof_Zn	Zn	0.0361	0.252	0.06284	1.163
Mof_Zn	Zn	0.96549	0.67294	0.23189	1.161
Mof_Zn	Zn	0.53834	0.82084	0.91934	1.161
Mof_H 	H 	0.6319	0.9716	0.4836	0.069
Mof_H 	H 	0.5936	0.741	0.6034	0.085
Mof_H 	H 	0.5858	0.6718	0.6557	-0.01
Mof_H 	H 	0.3488	0.7596	0.4862	-0.012
Mof_H 	H 	0.4892	0.779	0.5279	0.079
Mof_H 	H 	0.8763	0.8704	0.6465	0.085
Mof_H 	H 	0.4873	0.9474	0.4445	-0.007
Mof_H 	H 	0.5116	0.6828	0.8446	-0.015
Mof_H 	H 	0.4002	0.607	0.7856	0.083
Mof_H 	H 	0.3337	0.782	0.8886	-0.003
Mof_H 	H 	0.9115	0.735	0.7728	-0.014
Mof_H 	H 	0.3149	0.4704	0.6943	0.093
Mof_H 	H 	0.3289	0.3708	0.644	-0.003
Mof_H 	H 	0.0728	0.3248	0.5844	-0.002
Mof_H 	H 	0.0502	0.7074	0.7731	0.084
Mof_H 	H 	0.773	0.5478	0.6837	-0.013
Mof_H 	H 	0.0489	0.42	0.6347	0.08
Mof_H 	H 	0.2182	0.7094	0.8313	0.095
Mof_H 	H 	0.9084	0.517	0.6805	0.081
Mof_H 	H 	0.8945	0.038	0.4969	0.078
Mof_H 	H 	0.963	0.0488	0.6207	0.09
Mof_H 	H 	0.1011	0.1574	0.6209	-0.013
Mof_H 	H 	0.0367	0.1472	0.4998	-0.003
Mof_H 	H 	0.8596	0.7972	0.6976	-0.02
Mof_H 	H 	0.3397	0.9716	0.9836	0.071
Mof_H 	H 	0.1474	0.741	0.1034	0.084
Mof_H 	H 	0.086	0.6718	0.1557	-0.01
Mof_H 	H 	0.4108	0.7596	0.9862	-0.012
Mof_H 	H 	0.2898	0.779	0.0279	0.079
Mof_H 	H 	0.9941	0.8704	0.1465	0.078
Mof_H 	H 	0.4601	0.9474	0.9445	-0.007
Mof_H 	H 	0.1712	0.6828	0.3446	-0.015
Mof_H 	H 	0.2068	0.607	0.2856	0.083
Mof_H 	H 	0.4483	0.782	0.3886	-0.003
Mof_H 	H 	0.8235	0.735	0.2728	-0.014
Mof_H 	H 	0.1555	0.4704	0.1943	0.093
Mof_H 	H 	0.0419	0.3708	0.144	-0.003
Mof_H 	H 	0.252	0.3248	0.0844	-0.002
Mof_H 	H 	0.6572	0.7074	0.2731	0.084
Mof_H 	H 	0.7748	0.5478	0.1837	-0.013
Mof_H 	H 	0.3711	0.42	0.1347	0.08
Mof_H 	H 	0.4912	0.7094	0.3313	0.095
Mof_H 	H 	0.6086	0.517	0.1805	0.081
Mof_H 	H 	0.1435	0.038	0.9969	0.078
Mof_H 	H 	0.0858	0.0488	0.1207	0.09
Mof_H 	H 	0.0563	0.1574	0.1209	-0.014
Mof_H 	H 	0.1105	0.1472	0.9998	-0.004
Mof_H 	H 	0.9376	0.7972	0.1976	-0.017
Mof_C 	C 	0.91521	0.03042	0.55801	0.055
Mof_C 	C 	0.667	0.8898	0.53604	0.099
Mof_C 	C 	0.57635	0.8767	0.50985	0.05
Mof_C 	C 	0.73921	0.86402	0.58906	0.109
Mof_C 	C 	0.82529	0.96158	0.5581	0.095
Mof_C 	C 	0.73409	0.81558	0.62053	0.066
Mof_C 	C 	0.5746	0.9274	0.48468	-0.112
Mof_C 	C 	0.64926	0.75472	0.62291	-0.119
Mof_C 	C 	0.64555	0.7135	0.65411	0.073
Mof_C 	C 	0.40732	0.80304	0.4857	0.065
Mof_C 	C 	0.49096	0.81412	0.51059	-0.113
Mof_C 	C 	0.81493	0.83046	0.6483	-0.122
Mof_C 	C 	0.48838	0.91236	0.46135	0.068
Mof_C 	C 	0.4512	0.6886	0.84154	0.075
Mof_C 	C 	0.38506	0.64312	0.80632	-0.13
Mof_C 	C 	0.34785	0.7463	0.86715	0.073
Mof_C 	C 	0.9108	0.6896	0.75406	0.066
Mof_C 	C 	0.2636	0.4406	0.67225	-0.12
Mof_C 	C 	0.22498	0.60856	0.76429	0.099
Mof_C 	C 	0.16719	0.51738	0.7031	0.093
Mof_C 	C 	0.27183	0.38146	0.64192	0.063
Mof_C 	C 	0.17972	0.45604	0.67021	0.044
Mof_C 	C 	0.12212	0.35424	0.60737	0.065
Mof_C 	C 	0.99384	0.60788	0.72723	0.06
Mof_C 	C 	0.99361	0.67362	0.75441	-0.12
Mof_C 	C 	0.08164	0.58908	0.72834	0.106
Mof_C 	C 	0.83041	0.58082	0.70205	0.076
Mof_C 	C 	0.29728	0.65116	0.80176	0.062
Mof_C 	C 	0.10748	0.41136	0.63701	-0.117
Mof_C 	C 	0.2786	0.7032	0.83312	-0.124
Mof_C 	C 	0.91038	0.56176	0.70025	-0.123
Mof_C 	C 	0.93681	0.06102	0.52263	-0.123
Mof_C 	C 	0.9773	0.0678	0.59518	-0.119
Mof_C 	C 	0.05932	0.13224	0.59501	0.073
Mof_C 	C 	0.02169	0.12638	0.52471	0.067
Mof_C 	C 	0.8044	0.7862	0.6785	0.081
Mof_C 	C 	0.11521	0.03042	0.05801	0.053
Mof_C 	C 	0.2228	0.8898	0.03604	0.099
Mof_C 	C 	0.30035	0.8767	0.00985	0.05
Mof_C 	C 	0.12481	0.86402	0.08906	0.112
Mof_C 	C 	0.13629	0.96158	0.0581	0.099
Mof_C 	C 	0.08149	0.81558	0.12053	0.06
Mof_C 	C 	0.3528	0.9274	0.98468	-0.112
Mof_C 	C 	0.10546	0.75472	0.12291	-0.115
Mof_C 	C 	0.06795	0.7135	0.15411	0.071
Mof_C 	C 	0.39572	0.80304	0.9857	0.064
Mof_C 	C 	0.32316	0.81412	0.01059	-0.113
Mof_C 	C 	0.01553	0.83046	0.1483	-0.107
Mof_C 	C 	0.42398	0.91236	0.96135	0.068
Mof_C 	C 	0.2374	0.6886	0.34154	0.075
Mof_C 	C 	0.25806	0.64312	0.30632	-0.129
Mof_C 	C 	0.39845	0.7463	0.36715	0.073
Mof_C 	C 	0.7788	0.6896	0.25406	0.066
Mof_C 	C 	0.177	0.4406	0.17225	-0.12
Mof_C 	C 	0.38358	0.60856	0.26429	0.099
Mof_C 	C 	0.35019	0.51738	0.2031	0.093
Mof_C 	C 	0.10963	0.38146	0.14192	0.063
Mof_C 	C 	0.27632	0.45604	0.17021	0.044
Mof_C 	C 	0.23212	0.35424	0.10737	0.065
Mof_C 	C 	0.61404	0.60788	0.22723	0.059
Mof_C 	C 	0.68001	0.67362	0.25441	-0.12
Mof_C 	C 	0.50744	0.58908	0.22834	0.106
Mof_C 	C 	0.75041	0.58082	0.20205	0.076
Mof_C 	C 	0.35388	0.65116	0.30176	0.062
Mof_C 	C 	0.30388	0.41136	0.13701	-0.117
Mof_C 	C 	0.4246	0.7032	0.33312	-0.124
Mof_C 	C 	0.65138	0.56176	0.20025	-0.123
Mof_C 	C 	0.12421	0.06102	0.02263	-0.127
Mof_C 	C 	0.0905	0.0678	0.09518	-0.124
Mof_C 	C 	0.07292	0.13224	0.09501	0.078
Mof_C 	C 	0.10469	0.12638	0.02471	0.071
Mof_C 	C 	0.9818	0.7862	0.1785	0.07
Mof_I 	I 	0.54822	0.55366	0.71115	-0.377
Mof_I 	I 	0.33644	0.20996	0.59701	-0.382
Mof_I 	I 	0.23051	0.29126	0.49103	-0.366
Mof_I 	I 	0.13416	0.74972	0.45638	-0.382
Mof_I 	I 	0.73088	0.76878	0.80285	-0.398
Mof_I 	I 	0.31154	0.93432	0.38463	-0.348
Mof_I 	I 	0.00544	0.55366	0.21115	-0.375
Mof_I 	I 	0.87352	0.20996	0.09701	-0.381
Mof_I 	I 	0.06075	0.29126	0.99103	-0.367
Mof_I 	I 	0.61556	0.74972	0.95638	-0.384
Mof_I 	I 	0.0379	0.76878	0.30285	-0.395
Mof_I 	I 	0.62278	0.93432	0.88463	-0.35
Mof_N 	N 	0.40633	0.85106	0.46122	-0.27
Mof_N 	N 	0.75024	0.94588	0.52985	-0.145
Mof_N 	N 	0.65717	0.84774	0.56521	-0.137
Mof_N 	N 	0.82467	0.92174	0.58822	-0.135
Mof_N 	N 	0.08318	0.16116	0.56033	-0.273
Mof_N 	N 	0.7213	0.7292	0.68198	-0.277
Mof_N 	N 	0.82933	0.64386	0.72845	-0.273
Mof_N 	N 	0.08831	0.53342	0.69754	-0.138
Mof_N 	N 	0.23733	0.55206	0.73583	-0.139
Mof_N 	N 	0.20174	0.33828	0.60942	-0.271
Mof_N 	N 	0.43341	0.74022	0.87132	-0.271
Mof_N 	N 	0.14819	0.62878	0.76187	-0.134
Mof_N 	N 	0.44473	0.85106	0.96122	-0.27
Mof_N 	N 	0.19564	0.94588	0.02985	-0.145
Mof_N 	N 	0.19057	0.84774	0.06521	-0.137
Mof_N 	N 	0.09707	0.92174	0.08822	-0.135
Mof_N 	N 	0.07798	0.16116	0.06033	-0.275
Mof_N 	N 	0.0079	0.7292	0.18198	-0.273
Mof_N 	N 	0.81453	0.64386	0.22845	-0.273
Mof_N 	N 	0.44511	0.53342	0.19754	-0.138
Mof_N 	N 	0.31473	0.55206	0.23583	-0.139
Mof_N 	N 	0.13654	0.33828	0.10942	-0.271
Mof_N 	N 	0.30681	0.74022	0.37132	-0.271
Mof_N 	N 	0.48059	0.62878	0.26187	-0.134
Mof_Zn	Zn	0.9639	0.748	0.93716	1.164
Mof_Zn	Zn	0.03451	0.32706	0.76811	1.162
Mof_Zn	Zn	0.46166	0.17916	0.08066	1.162
Mof_Zn	Zn	0.7841	0.748	0.43716	1.164
Mof_Zn	Zn	0.29255	0.32706	0.26811	1.163
Mof_Zn	Zn	0.7175	0.17916	0.58066	1.162
Mof_H 	H 	0.6603	0.0284	0.0164	0.071
Mof_H 	H 	0.8526	0.259	0.8966	0.084
Mof_H 	H 	0.914	0.3282	0.8443	-0.01
Mof_H 	H 	0.5892	0.2404	0.0138	-0.012
Mof_H 	H 	0.7102	0.221	0.9721	0.079
Mof_H 	H 	0.0059	0.1296	0.8535	0.078
Mof_H 	H 	0.5399	0.0526	0.0555	-0.007
Mof_H 	H 	0.8288	0.3172	0.6554	-0.015
Mof_H 	H 	0.7932	0.393	0.7144	0.083
Mof_H 	H 	0.5517	0.218	0.6114	-0.003
Mof_H 	H 	0.1765	0.265	0.7272	-0.014
Mof_H 	H 	0.8445	0.5296	0.8057	0.093
Mof_H 	H 	0.9581	0.6292	0.856	-0.003
Mof_H 	H 	0.748	0.6752	0.9156	-0.002
Mof_H 	H 	0.3428	0.2926	0.7269	0.084
Mof_H 	H 	0.2252	0.4522	0.8163	-0.013
Mof_H 	H 	0.6289	0.58	0.8653	0.08
Mof_H 	H 	0.5088	0.2906	0.6687	0.095
Mof_H 	H 	0.3914	0.483	0.8195	0.081
Mof_H 	H 	0.8565	0.962	0.0031	0.078
Mof_H 	H 	0.9142	0.9512	0.8793	0.09
Mof_H 	H 	0.9437	0.8426	0.8791	-0.014
Mof_H 	H 	0.8895	0.8528	0.0002	-0.004
Mof_H 	H 	0.0624	0.2028	0.8024	-0.017
Mof_H 	H 	0.3681	0.0284	0.5164	0.07
Mof_H 	H 	0.4064	0.259	0.3966	0.085
Mof_H 	H 	0.4142	0.3282	0.3443	-0.01
Mof_H 	H 	0.6512	0.2404	0.5138	-0.012
Mof_H 	H 	0.5108	0.221	0.4721	0.079
Mof_H 	H 	0.1237	0.1296	0.3535	0.085
Mof_H 	H 	0.5127	0.0526	0.5555	-0.007
Mof_H 	H 	0.4884	0.3172	0.1554	-0.015
Mof_H 	H 	0.5998	0.393	0.2144	0.083
Mof_H 	H 	0.6663	0.218	0.1114	-0.003
Mof_H 	H 	0.0885	0.265	0.2272	-0.014
Mof_H 	H 	0.6851	0.5296	0.3057	0.093
Mof_H 	H 	0.6711	0.6292	0.356	-0.003
Mof_H 	H 	0.9272	0.6752	0.4156	-0.002
Mof_H 	H 	0.9498	0.2926	0.2269	0.084
Mof_H 	H 	0.227	0.4522	0.3163	-0.013
Mof_H 	H 	0.9511	0.58	0.3653	0.08
Mof_H 	H 	0.7818	0.2906	0.1687	0.095
Mof_H 	H 	0.0916	0.483	0.3195	0.081
Mof_H 	H 	0.1055	0.962	0.5031	0.078
Mof_H 	H 	0.037	0.9512	0.3793	0.09
Mof_H 	H 	0.8989	0.8426	0.3791	-0.013
Mof_H 	H 	0.9633	0.8528	0.5002	-0.003
Mof_H 	H 	0.1404	0.2028	0.3024	-0.02
Mof_C 	C 	0.88479	0.96958	0.94199	0.053
Mof_C 	C 	0.7772	0.1102	0.96396	0.099
Mof_C 	C 	0.69965	0.1233	0.99015	0.05
Mof_C 	C 	0.87519	0.13598	0.91094	0.112
Mof_C 	C 	0.86371	0.03842	0.9419	0.099
Mof_C 	C 	0.91851	0.18442	0.87947	0.06
Mof_C 	C 	0.6472	0.0726	0.01532	-0.112
Mof_C 	C 	0.89454	0.24528	0.87709	-0.115
Mof_C 	C 	0.93205	0.2865	0.84589	0.071
Mof_C 	C 	0.60428	0.19696	0.0143	0.064
Mof_C 	C 	0.67684	0.18588	0.98941	-0.113
Mof_C 	C 	0.98447	0.16954	0.8517	-0.107
Mof_C 	C 	0.57602	0.08764	0.03865	0.068
Mof_C 	C 	0.7626	0.3114	0.65846	0.075
Mof_C 	C 	0.74194	0.35688	0.69368	-0.129
Mof_C 	C 	0.60155	0.2537	0.63285	0.073
Mof_C 	C 	0.2212	0.3104	0.74594	0.066
Mof_C 	C 	0.823	0.5594	0.82775	-0.12
Mof_C 	C 	0.61642	0.39144	0.73571	0.099
Mof_C 	C 	0.64981	0.48262	0.7969	0.093
Mof_C 	C 	0.89037	0.61854	0.85808	0.063
Mof_C 	C 	0.72368	0.54396	0.82979	0.044
Mof_C 	C 	0.76788	0.64576	0.89263	0.065
Mof_C 	C 	0.38596	0.39212	0.77277	0.059
Mof_C 	C 	0.31999	0.32638	0.74559	-0.12
Mof_C 	C 	0.49256	0.41092	0.77166	0.106
Mof_C 	C 	0.24959	0.41918	0.79795	0.076
Mof_C 	C 	0.64612	0.34884	0.69824	0.062
Mof_C 	C 	0.69612	0.58864	0.86299	-0.117
Mof_C 	C 	0.5754	0.2968	0.66688	-0.124
Mof_C 	C 	0.34862	0.43824	0.79975	-0.123
Mof_C 	C 	0.87579	0.93898	0.97737	-0.127
Mof_C 	C 	0.9095	0.9322	0.90482	-0.124
Mof_C 	C 	0.92708	0.86776	0.90499	0.078
Mof_C 	C 	0.89531	0.87362	0.97529	0.071
Mof_C 	C 	0.0182	0.2138	0.8215	0.07
Mof_C 	C 	0.08479	0.96958	0.44199	0.055
Mof_C 	C 	0.333	0.1102	0.46396	0.099
Mof_C 	C 	0.42365	0.1233	0.49015	0.05
Mof_C 	C 	0.26079	0.13598	0.41094	0.109
Mof_C 	C 	0.17471	0.03842	0.4419	0.095
Mof_C 	C 	0.26591	0.18442	0.37947	0.066
Mof_C 	C 	0.4254	0.0726	0.51532	-0.112
Mof_C 	C 	0.35074	0.24528	0.37709	-0.119
Mof_C 	C 	0.35445	0.2865	0.34589	0.073
Mof_C 	C 	0.59268	0.19696	0.5143	0.065
Mof_C 	C 	0.50904	0.18588	0.48941	-0.113
Mof_C 	C 	0.18507	0.16954	0.3517	-0.122
Mof_C 	C 	0.51162	0.08764	0.53865	0.068
Mof_C 	C 	0.5488	0.3114	0.15846	0.075
Mof_C 	C 	0.61494	0.35688	0.19368	-0.13
Mof_C 	C 	0.65215	0.2537	0.13285	0.073
Mof_C 	C 	0.0892	0.3104	0.24594	0.066
Mof_C 	C 	0.7364	0.5594	0.32775	-0.12
Mof_C 	C 	0.77502	0.39144	0.23571	0.099
Mof_C 	C 	0.83281	0.48262	0.2969	0.093
Mof_C 	C 	0.72817	0.61854	0.35808	0.063
Mof_C 	C 	0.82028	0.54396	0.32979	0.044
Mof_C 	C 	0.87788	0.64576	0.39263	0.065
Mof_C 	C 	0.00616	0.39212	0.27277	0.06
Mof_C 	C 	0.00639	0.32638	0.24559	-0.12
Mof_C 	C 	0.91836	0.41092	0.27166	0.106
Mof_C 	C 	0.16959	0.41918	0.29795	0.076
Mof_C 	C 	0.70272	0.34884	0.19824	0.062
Mof_C 	C 	0.89252	0.58864	0.36299	-0.117
Mof_C 	C 	0.7214	0.2968	0.16688	-0.124
Mof_C 	C 	0.08962	0.43824	0.29975	-0.123
Mof_C 	C 	0.06319	0.93898	0.47737	-0.123
Mof_C 	C 	0.0227	0.9322	0.40482	-0.119
Mof_C 	C 	0.94068	0.86776	0.40499	0.073
Mof_C 	C 	0.97831	0.87362	0.47529	0.067
Mof_C 	C 	0.1956	0.2138	0.3215	0.081
Mof_I 	I 	0.99456	0.44634	0.78885	-0.375
Mof_I 	I 	0.12648	0.79004	0.903	-0.381
Mof_I 	I 	0.93925	0.70874	0.00897	-0.367
Mof_I 	I 	0.38444	0.25028	0.04362	-0.384
Mof_I 	I 	0.9621	0.23122	0.69715	-0.395
Mof_I 	I 	0.37722	0.06568	0.11537	-0.35
Mof_I 	I 	0.45178	0.44634	0.28885	-0.377
Mof_I 	I 	0.66356	0.79004	0.403	-0.382
Mof_I 	I 	0.76949	0.70874	0.50897	-0.366
Mof_I 	I 	0.86584	0.25028	0.54362	-0.382
Mof_I 	I 	0.26912	0.23122	0.19715	-0.398
Mof_I 	I 	0.68846	0.06568	0.61537	-0.349
Mof_N 	N 	0.55527	0.14894	0.03878	-0.27
Mof_N 	N 	0.80436	0.05412	0.97015	-0.145
Mof_N 	N 	0.80943	0.15226	0.93479	-0.137
Mof_N 	N 	0.90293	0.07826	0.91178	-0.135
Mof_N 	N 	0.92202	0.83884	0.93967	-0.275
Mof_N 	N 	0.9921	0.2708	0.81802	-0.273
Mof_N 	N 	0.18547	0.35614	0.77155	-0.273
Mof_N 	N 	0.55489	0.46658	0.80246	-0.138
Mof_N 	N 	0.68527	0.44794	0.76417	-0.139
Mof_N 	N 	0.86346	0.66172	0.89058	-0.271
Mof_N 	N 	0.69319	0.25978	0.62868	-0.271
Mof_N 	N 	0.51941	0.37122	0.73813	-0.134
Mof_N 	N 	0.59367	0.14894	0.53878	-0.27
Mof_N 	N 	0.24976	0.05412	0.47015	-0.145
Mof_N 	N 	0.34283	0.15226	0.43479	-0.137
Mof_N 	N 	0.17533	0.07826	0.41178	-0.135
Mof_N 	N 	0.91682	0.83884	0.43967	-0.273
Mof_N 	N 	0.2787	0.2708	0.31802	-0.277
Mof_N 	N 	0.17067	0.35614	0.27155	-0.273
Mof_N 	N 	0.91169	0.46658	0.30246	-0.138
Mof_N 	N 	0.76267	0.44794	0.26417	-0.139
Mof_N 	N 	0.79826	0.66172	0.39058	-0.271
Mof_N 	N 	0.56659	0.25978	0.12868	-0.271
Mof_N 	N 	0.85181	0.37122	0.23813	-0.134
_end
