# CIF file generated by openbabel 3.1.0, see https://openbabel.org
data_I
_chemical_name_common 'image0'
_cell_length_a 8.5211
_cell_length_b 11.9779
_cell_length_c 9.0593
_cell_angle_alpha 90
_cell_angle_beta 90
_cell_angle_gamma 90
_space_group_name_H-M_alt 'P 1'
_space_group_name_Hall 'P 1'
loop_
    _symmetry_equiv_pos_as_xyz
    x,y,z
loop_
    _atom_site_label
    _atom_site_type_symbol
    _atom_site_fract_x
    _atom_site_fract_y
    _atom_site_fract_z
    _atom_site_occupancy
    O1       O        0.25685    0.40746    0.37153    1.000
    O2       O        0.40434    0.17949    0.41632    1.000
    O3       O        0.55742    0.19135    0.61227    1.000
    C1       C        0.51980    0.21654    0.48493    1.000
    H1       H        0.58330    0.26770    0.43590    1.000
    O4       O        0.24315    0.59254    0.37153    1.000
    O5       O        0.09566    0.82051    0.41632    1.000
    O6       O        0.94258    0.80865    0.61227    1.000
    C2       C        0.98020    0.78346    0.48493    1.000
    H2       H        0.91670    0.73230    0.43590    1.000
    O7       O        0.24315    0.90746    0.12847    1.000
    O8       O        0.09566    0.67949    0.08368    1.000
    O9       O        0.94258    0.69135    0.88773    1.000
    C3       C        0.98020    0.71654    0.01507    1.000
    H3       H        0.91670    0.76770    0.06410    1.000
    O10      O        0.25685    0.09254    0.12847    1.000
    O11      O        0.40434    0.32051    0.08368    1.000
    O12      O        0.55742    0.30865    0.88773    1.000
    C4       C        0.51980    0.28346    0.01507    1.000
    H4       H        0.58330    0.23230    0.06410    1.000
    O13      O        0.74315    0.59254    0.62847    1.000
    O14      O        0.59566    0.82051    0.58368    1.000
    O15      O        0.44258    0.80865    0.38773    1.000
    C5       C        0.48020    0.78346    0.51507    1.000
    H5       H        0.41670    0.73230    0.56410    1.000
    O16      O        0.75685    0.40746    0.62847    1.000
    O17      O        0.90434    0.17949    0.58368    1.000
    O18      O        0.05742    0.19135    0.38773    1.000
    C6       C        0.01980    0.21654    0.51507    1.000
    H6       H        0.08330    0.26770    0.56410    1.000
    O19      O        0.75685    0.09254    0.87153    1.000
    O20      O        0.90434    0.32051    0.91632    1.000
    O21      O        0.05742    0.30865    0.11227    1.000
    C7       C        0.01980    0.28346    0.98493    1.000
    H7       H        0.08330    0.23230    0.93590    1.000
    O22      O        0.74315    0.90746    0.87153    1.000
    O23      O        0.59566    0.67949    0.91632    1.000
    O24      O        0.44258    0.69135    0.11227    1.000
    C8       C        0.48020    0.71654    0.98493    1.000
    H8       H        0.41670    0.76770    0.93590    1.000
    Mn1      Mn       0.25192    0.25000    0.25000    1.000
    Mn2      Mn       0.24808    0.75000    0.25000    1.000
    Mn3      Mn       0.74808    0.75000    0.75000    1.000
    Mn4      Mn       0.75192    0.25000    0.75000    1.000
    C9       C        0.25000    0.50000    0.31080    1.000
    H9       H        0.25000    0.50000    0.20820    1.000
    C10      C        0.25000    0.00000    0.18920    1.000
    H10      H        0.25000    0.00000    0.29180    1.000
    C11      C        0.75000    0.50000    0.68920    1.000
    H11      H        0.75000    0.50000    0.79180    1.000
    C12      C        0.75000    0.00000    0.81080    1.000
    H12      H        0.75000    0.00000    0.70820    1.000
