data_functionalizedCrystal
_audit_creation_method	'EQeq! by Chris Wilmer'
_symmetry_space_group_name_H-M	'P1'
_symmetry_Int_Tables_number	1
_symmetry_cell_setting	triclinic
loop_
_symmetry_equiv_pos_as_xyz
  x,y,z
_cell_length_a	13.5895
_cell_length_b	8.8351
_cell_length_c	9.2294
_cell_angle_alpha	90
_cell_angle_beta	100.79
_cell_angle_gamma	90
loop_
_atom_site_label
_atom_site_type_symbol
_atom_site_fract_x
_atom_site_fract_y
_atom_site_fract_z
_atom_site_charge
Mof_P 	P 	0.1294	0.1174	0.4295	0.609
Mof_O 	O 	0.1537	0.1527	0.2769	-0.685
Mof_O 	O 	0.066	0.44	0.1698	-0.758
Mof_O 	O 	0.0652	0.3485	0.8669	-0.701
Mof_O 	O 	0.1517	0.9483	0.4789	-0.65
Mof_O 	O 	0.0209	0.1488	0.4384	-0.82
Mof_C 	C 	0.1943	0.254	0.5564	-0.105
Mof_F 	F 	0.2509	0.3339	0.0814	-0.741
Mof_C 	C 	0.2238	0.211	0.717	0.073
Mof_N 	N 	0.3347	0.1658	0.7232	-0.118
Mof_C 	C 	0.3491	0.0064	0.7177	0.063
Mof_C 	C 	0.4003	0.9481	0.6169	0.008
Mof_C 	C 	0.4552	0.0271	0.534	0.015
Mof_C 	C 	0.4266	0.183	0.5291	0.005
Mof_C 	C 	0.3966	0.2463	0.6549	0.093
Mof_Zr	Zr	0.1099	0.2533	0.0705	3.215
Mof_P 	P 	0.8706	0.1174	0.0705	0.605
Mof_O 	O 	0.8463	0.1527	0.2231	-0.652
Mof_O 	O 	0.934	0.44	0.3302	-0.669
Mof_O 	O 	0.9348	0.3485	0.6331	-0.635
Mof_O 	O 	0.8483	0.9483	0.0211	-0.61
Mof_O 	O 	0.9791	0.1488	0.0616	-0.71
Mof_C 	C 	0.8057	0.254	0.9436	-0.092
Mof_F 	F 	0.7491	0.3339	0.4186	-0.734
Mof_C 	C 	0.7762	0.211	0.783	0.077
Mof_N 	N 	0.6653	0.1658	0.7768	-0.121
Mof_C 	C 	0.6509	0.0064	0.7823	0.068
Mof_C 	C 	0.5997	0.9481	0.8831	-0.007
Mof_C 	C 	0.5448	0.0271	0.966	0.027
Mof_C 	C 	0.5734	0.183	0.9709	0.006
Mof_C 	C 	0.6034	0.2463	0.8451	0.093
Mof_Zr	Zr	0.8901	0.2533	0.4295	3.225
Mof_P 	P 	0.8706	0.8826	0.5705	0.611
Mof_O 	O 	0.8463	0.8473	0.7231	-0.657
Mof_O 	O 	0.934	0.56	0.8302	-0.683
Mof_O 	O 	0.9348	0.6515	0.1331	-0.619
Mof_O 	O 	0.8483	0.0517	0.5211	-0.623
Mof_O 	O 	0.9791	0.8512	0.5616	-0.714
Mof_C 	C 	0.8057	0.746	0.4436	-0.091
Mof_F 	F 	0.7491	0.6661	0.9186	-0.737
Mof_C 	C 	0.7762	0.789	0.283	0.081
Mof_N 	N 	0.6653	0.8342	0.2768	-0.12
Mof_C 	C 	0.6509	0.9936	0.2823	0.063
Mof_C 	C 	0.5997	0.0519	0.3831	0.006
Mof_C 	C 	0.5448	0.9729	0.466	0.016
Mof_C 	C 	0.5734	0.817	0.4709	0.004
Mof_C 	C 	0.6034	0.7537	0.3451	0.092
Mof_Zr	Zr	0.8901	0.7467	0.9295	3.223
Mof_P 	P 	0.1294	0.8826	0.9295	0.607
Mof_O 	O 	0.1537	0.8473	0.7769	-0.678
Mof_O 	O 	0.066	0.56	0.6698	-0.753
Mof_O 	O 	0.0652	0.6515	0.3669	-0.709
Mof_O 	O 	0.1517	0.0517	0.9789	-0.634
Mof_O 	O 	0.0209	0.8512	0.9384	-0.813
Mof_C 	C 	0.1943	0.746	0.0564	-0.11
Mof_F 	F 	0.2509	0.6661	0.5814	-0.736
Mof_C 	C 	0.2238	0.789	0.217	0.069
Mof_N 	N 	0.3347	0.8342	0.2232	-0.12
Mof_C 	C 	0.3491	0.9936	0.2177	0.068
Mof_C 	C 	0.4003	0.0519	0.1169	-0.007
Mof_C 	C 	0.4552	0.9729	0.034	0.023
Mof_C 	C 	0.4266	0.817	0.0291	0.005
Mof_C 	C 	0.3966	0.7537	0.1549	0.093
Mof_Zr	Zr	0.1099	0.7467	0.5705	3.217
Mof_P 	P 	7.55787e-34	0.5423	0.25	0.615
Mof_P 	P 	2.26736e-33	0.4577	0.75	0.637
_end
