# CIF file generated by openbabel 3.1.0, see https://openbabel.org
data_I
_chemical_name_common 'image0'
_cell_length_a 9.973
_cell_length_b 48.485
_cell_length_c 54.892
_cell_angle_alpha 90
_cell_angle_beta 90
_cell_angle_gamma 90
_space_group_name_H-M_alt 'P 1'
_space_group_name_Hall 'P 1'
loop_
    _symmetry_equiv_pos_as_xyz
    x,y,z
loop_
    _atom_site_label
    _atom_site_type_symbol
    _atom_site_fract_x
    _atom_site_fract_y
    _atom_site_fract_z
    _atom_site_occupancy
    Ga1      Ga       0.87680    0.27688    0.02277    1.000
    Zn1      Zn       0.66822    0.43248    0.22027    1.000
    Zn2      Zn       0.70450    0.36244    0.13334    1.000
    Zn3      Zn       0.54780    0.34979    0.06815    1.000
    Zn4      Zn       0.04570    0.39679    0.10715    1.000
    Zn5      Zn       0.99064    0.46610    0.19435    1.000
    Zn6      Zn       0.20235    0.32449    0.08812    1.000
    Zn7      Zn       0.35163    0.41471    0.16529    1.000
    P1       P        0.16070    0.28135    0.04628    1.000
    P2       P        0.71320    0.49257    0.20537    1.000
    P3       P        0.06530    0.44212    0.14576    1.000
    P4       P        0.93990    0.44463    0.24480    1.000
    P5       P        0.76480    0.39191    0.08367    1.000
    P6       P        0.64140    0.38678    0.18372    1.000
    P7       P        0.27700    0.38398    0.07192    1.000
    P8       P        0.59440    0.30480    0.02833    1.000
    P9       P        0.98540    0.33646    0.12633    1.000
    P10      P        0.47100    0.32494    0.11837    1.000
    O1       O        0.17370    0.25020    0.04679    1.000
    O2       O        0.01560    0.29121    0.04445    1.000
    O3       O        0.23120    0.29278    0.06835    1.000
    O4       O        0.65500    0.46466    0.19842    1.000
    O5       O        0.66170    0.51596    0.18981    1.000
    O6       O        0.86400    0.49309    0.20537    1.000
    O7       O        0.00640    0.43137    0.12290    1.000
    O8       O        0.95160    0.45022    0.16304    1.000
    O9       O        0.16020    0.42240    0.15805    1.000
    O10      O        0.99630    0.42638    0.26458    1.000
    O11      O        0.79150    0.44367    0.24555    1.000
    O12      O        0.99940    0.43819    0.21985    1.000
    O13      O        0.70810    0.39231    0.10956    1.000
    O14      O        0.91530    0.39450    0.08188    1.000
    O15      O        0.72390    0.36690    0.06962    1.000
    O16      O        0.71530    0.39800    0.20529    1.000
    O17      O        0.74320    0.37760    0.16522    1.000
    O18      O        0.54260    0.40679    0.17315    1.000
    O19      O        0.42560    0.37997    0.07339    1.000
    O20      O        0.22560    0.39942    0.09399    1.000
    O21      O        0.19920    0.35759    0.06753    1.000
    O22      O        0.74160    0.30171    0.03612    1.000
    O23      O        0.57390    0.30371    0.00119    1.000
    O24      O        0.53340    0.33120    0.03787    1.000
    O25      O        0.83490    0.33440    0.12835    1.000
    O26      O        0.04180    0.36557    0.12976    1.000
    O27      O        0.02880    0.32222    0.10318    1.000
    O28      O        0.52140    0.34750    0.13491    1.000
    O29      O        0.54870    0.32300    0.09479    1.000
    O30      O        0.32220    0.32715    0.11564    1.000
    H1       H        0.23280    0.29090    0.02600    1.000
    H2       H        0.66220    0.49690    0.22800    1.000
    H3       H        0.12660    0.46380    0.14250    1.000
    H4       H        0.97610    0.46700    0.24840    1.000
    H5       H        0.71100    0.41790    0.07290    1.000
    H6       H        0.59960    0.35830    0.18660    1.000
    H7       H        0.22190    0.39670    0.05290    1.000
    H8       H        0.59860    0.28460    0.03320    1.000
    H9       H        0.98460    0.32760    0.14280    1.000
    H10      H        0.48630    0.30670    0.13370    1.000
    Ga2      Ga       0.37680    0.77688    0.52277    1.000
    Zn8      Zn       0.16822    0.93248    0.72027    1.000
    Zn9      Zn       0.20450    0.86244    0.63334    1.000
    Zn10     Zn       0.04780    0.84979    0.56815    1.000
    Zn11     Zn       0.54570    0.89679    0.60715    1.000
    Zn12     Zn       0.49064    0.96610    0.69435    1.000
    Zn13     Zn       0.70235    0.82449    0.58812    1.000
    Zn14     Zn       0.85163    0.91471    0.66529    1.000
    P11      P        0.66070    0.78135    0.54628    1.000
    P12      P        0.21320    0.99257    0.70537    1.000
    P13      P        0.56530    0.94212    0.64576    1.000
    P14      P        0.43990    0.94463    0.74480    1.000
    P15      P        0.26480    0.89191    0.58367    1.000
    P16      P        0.14140    0.88678    0.68372    1.000
    P17      P        0.77700    0.88398    0.57192    1.000
    P18      P        0.09440    0.80480    0.52833    1.000
    P19      P        0.48540    0.83646    0.62633    1.000
    P20      P        0.97100    0.82494    0.61837    1.000
    O31      O        0.67370    0.75020    0.54679    1.000
    O32      O        0.51560    0.79121    0.54445    1.000
    O33      O        0.73120    0.79278    0.56835    1.000
    O34      O        0.15500    0.96466    0.69842    1.000
    O35      O        0.16170    0.01596    0.68981    1.000
    O36      O        0.36400    0.99309    0.70537    1.000
    O37      O        0.50640    0.93137    0.62290    1.000
    O38      O        0.45160    0.95022    0.66304    1.000
    O39      O        0.66020    0.92240    0.65805    1.000
    O40      O        0.49630    0.92638    0.76458    1.000
    O41      O        0.29150    0.94367    0.74555    1.000
    O42      O        0.49940    0.93819    0.71985    1.000
    O43      O        0.20810    0.89231    0.60956    1.000
    O44      O        0.41530    0.89450    0.58188    1.000
    O45      O        0.22390    0.86690    0.56962    1.000
    O46      O        0.21530    0.89800    0.70529    1.000
    O47      O        0.24320    0.87760    0.66522    1.000
    O48      O        0.04260    0.90679    0.67315    1.000
    O49      O        0.92560    0.87997    0.57339    1.000
    O50      O        0.72560    0.89942    0.59399    1.000
    O51      O        0.69920    0.85759    0.56753    1.000
    O52      O        0.24160    0.80171    0.53612    1.000
    O53      O        0.07390    0.80371    0.50119    1.000
    O54      O        0.03340    0.83120    0.53787    1.000
    O55      O        0.33490    0.83440    0.62835    1.000
    O56      O        0.54180    0.86557    0.62976    1.000
    O57      O        0.52880    0.82222    0.60318    1.000
    O58      O        0.02140    0.84750    0.63491    1.000
    O59      O        0.04870    0.82300    0.59479    1.000
    O60      O        0.82220    0.82715    0.61564    1.000
    H11      H        0.73280    0.79090    0.52600    1.000
    H12      H        0.16220    0.99690    0.72800    1.000
    H13      H        0.62660    0.96380    0.64250    1.000
    H14      H        0.47610    0.96700    0.74840    1.000
    H15      H        0.21100    0.91790    0.57290    1.000
    H16      H        0.09960    0.85830    0.68660    1.000
    H17      H        0.72190    0.89670    0.55290    1.000
    H18      H        0.09860    0.78460    0.53320    1.000
    H19      H        0.48460    0.82760    0.64280    1.000
    H20      H        0.98630    0.80670    0.63370    1.000
    Ga3      Ga       0.62320    0.72312    0.52277    1.000
    Zn15     Zn       0.83178    0.56752    0.72027    1.000
    Zn16     Zn       0.79550    0.63756    0.63334    1.000
    Zn17     Zn       0.95220    0.65021    0.56815    1.000
    Zn18     Zn       0.45430    0.60321    0.60715    1.000
    Zn19     Zn       0.50936    0.53390    0.69435    1.000
    Zn20     Zn       0.29765    0.67551    0.58812    1.000
    Zn21     Zn       0.14837    0.58529    0.66529    1.000
    P21      P        0.33930    0.71865    0.54628    1.000
    P22      P        0.78680    0.50743    0.70537    1.000
    P23      P        0.43470    0.55788    0.64576    1.000
    P24      P        0.56010    0.55537    0.74480    1.000
    P25      P        0.73520    0.60809    0.58367    1.000
    P26      P        0.85860    0.61322    0.68372    1.000
    P27      P        0.22300    0.61602    0.57192    1.000
    P28      P        0.90560    0.69520    0.52833    1.000
    P29      P        0.51460    0.66354    0.62633    1.000
    P30      P        0.02900    0.67506    0.61837    1.000
    O61      O        0.32630    0.74980    0.54679    1.000
    O62      O        0.48440    0.70879    0.54445    1.000
    O63      O        0.26880    0.70722    0.56835    1.000
    O64      O        0.84500    0.53534    0.69842    1.000
    O65      O        0.83830    0.48404    0.68981    1.000
    O66      O        0.63600    0.50691    0.70537    1.000
    O67      O        0.49360    0.56863    0.62290    1.000
    O68      O        0.54840    0.54978    0.66304    1.000
    O69      O        0.33980    0.57760    0.65805    1.000
    O70      O        0.50370    0.57362    0.76458    1.000
    O71      O        0.70850    0.55633    0.74555    1.000
    O72      O        0.50060    0.56181    0.71985    1.000
    O73      O        0.79190    0.60769    0.60956    1.000
    O74      O        0.58470    0.60550    0.58188    1.000
    O75      O        0.77610    0.63310    0.56962    1.000
    O76      O        0.78470    0.60200    0.70529    1.000
    O77      O        0.75680    0.62240    0.66522    1.000
    O78      O        0.95740    0.59321    0.67315    1.000
    O79      O        0.07440    0.62003    0.57339    1.000
    O80      O        0.27440    0.60058    0.59399    1.000
    O81      O        0.30080    0.64241    0.56753    1.000
    O82      O        0.75840    0.69829    0.53612    1.000
    O83      O        0.92610    0.69629    0.50119    1.000
    O84      O        0.96660    0.66880    0.53787    1.000
    O85      O        0.66510    0.66560    0.62835    1.000
    O86      O        0.45820    0.63443    0.62976    1.000
    O87      O        0.47120    0.67778    0.60318    1.000
    O88      O        0.97860    0.65250    0.63491    1.000
    O89      O        0.95130    0.67700    0.59479    1.000
    O90      O        0.17780    0.67285    0.61564    1.000
    H21      H        0.26720    0.70910    0.52600    1.000
    H22      H        0.83780    0.50310    0.72800    1.000
    H23      H        0.37340    0.53620    0.64250    1.000
    H24      H        0.52390    0.53300    0.74840    1.000
    H25      H        0.78900    0.58210    0.57290    1.000
    H26      H        0.90040    0.64170    0.68660    1.000
    H27      H        0.27810    0.60330    0.55290    1.000
    H28      H        0.90140    0.71540    0.53320    1.000
    H29      H        0.51540    0.67240    0.64280    1.000
    H30      H        0.01370    0.69330    0.63370    1.000
    Ga4      Ga       0.12320    0.22312    0.02277    1.000
    Zn22     Zn       0.33178    0.06752    0.22027    1.000
    Zn23     Zn       0.29550    0.13756    0.13334    1.000
    Zn24     Zn       0.45220    0.15021    0.06815    1.000
    Zn25     Zn       0.95430    0.10321    0.10715    1.000
    Zn26     Zn       0.00936    0.03390    0.19435    1.000
    Zn27     Zn       0.79765    0.17551    0.08812    1.000
    Zn28     Zn       0.64837    0.08529    0.16529    1.000
    P31      P        0.83930    0.21865    0.04628    1.000
    P32      P        0.28680    0.00743    0.20537    1.000
    P33      P        0.93470    0.05788    0.14576    1.000
    P34      P        0.06010    0.05537    0.24480    1.000
    P35      P        0.23520    0.10809    0.08367    1.000
    P36      P        0.35860    0.11322    0.18372    1.000
    P37      P        0.72300    0.11602    0.07192    1.000
    P38      P        0.40560    0.19520    0.02833    1.000
    P39      P        0.01460    0.16354    0.12633    1.000
    P40      P        0.52900    0.17506    0.11837    1.000
    O91      O        0.82630    0.24980    0.04679    1.000
    O92      O        0.98440    0.20879    0.04445    1.000
    O93      O        0.76880    0.20722    0.06835    1.000
    O94      O        0.34500    0.03534    0.19842    1.000
    O95      O        0.33830    0.98404    0.18981    1.000
    O96      O        0.13600    0.00691    0.20537    1.000
    O97      O        0.99360    0.06863    0.12290    1.000
    O98      O        0.04840    0.04978    0.16304    1.000
    O99      O        0.83980    0.07760    0.15805    1.000
    O100     O        0.00370    0.07362    0.26458    1.000
    O101     O        0.20850    0.05633    0.24555    1.000
    O102     O        0.00060    0.06181    0.21985    1.000
    O103     O        0.29190    0.10769    0.10956    1.000
    O104     O        0.08470    0.10550    0.08188    1.000
    O105     O        0.27610    0.13310    0.06962    1.000
    O106     O        0.28470    0.10200    0.20529    1.000
    O107     O        0.25680    0.12240    0.16522    1.000
    O108     O        0.45740    0.09321    0.17315    1.000
    O109     O        0.57440    0.12003    0.07339    1.000
    O110     O        0.77440    0.10058    0.09399    1.000
    O111     O        0.80080    0.14241    0.06753    1.000
    O112     O        0.25840    0.19829    0.03612    1.000
    O113     O        0.42610    0.19629    0.00119    1.000
    O114     O        0.46660    0.16880    0.03787    1.000
    O115     O        0.16510    0.16560    0.12835    1.000
    O116     O        0.95820    0.13443    0.12976    1.000
    O117     O        0.97120    0.17778    0.10318    1.000
    O118     O        0.47860    0.15250    0.13491    1.000
    O119     O        0.45130    0.17700    0.09479    1.000
    O120     O        0.67780    0.17285    0.11564    1.000
    H31      H        0.76720    0.20910    0.02600    1.000
    H32      H        0.33780    0.00310    0.22800    1.000
    H33      H        0.87340    0.03620    0.14250    1.000
    H34      H        0.02390    0.03300    0.24840    1.000
    H35      H        0.28900    0.08210    0.07290    1.000
    H36      H        0.40040    0.14170    0.18660    1.000
    H37      H        0.77810    0.10330    0.05290    1.000
    H38      H        0.40140    0.21540    0.03320    1.000
    H39      H        0.01540    0.17240    0.14280    1.000
    H40      H        0.51370    0.19330    0.13370    1.000
    Ga5      Ga       0.12320    0.77688    0.47723    1.000
    Zn29     Zn       0.33178    0.93248    0.27973    1.000
    Zn30     Zn       0.29550    0.86244    0.36666    1.000
    Zn31     Zn       0.45220    0.84979    0.43185    1.000
    Zn32     Zn       0.95430    0.89679    0.39285    1.000
    Zn33     Zn       0.00936    0.96610    0.30565    1.000
    Zn34     Zn       0.79765    0.82449    0.41188    1.000
    Zn35     Zn       0.64837    0.91471    0.33471    1.000
    P41      P        0.83930    0.78135    0.45372    1.000
    P42      P        0.28680    0.99257    0.29463    1.000
    P43      P        0.93470    0.94212    0.35424    1.000
    P44      P        0.06010    0.94463    0.25520    1.000
    P45      P        0.23520    0.89191    0.41633    1.000
    P46      P        0.35860    0.88678    0.31628    1.000
    P47      P        0.72300    0.88398    0.42808    1.000
    P48      P        0.40560    0.80480    0.47167    1.000
    P49      P        0.01460    0.83646    0.37367    1.000
    P50      P        0.52900    0.82494    0.38163    1.000
    O121     O        0.82630    0.75020    0.45321    1.000
    O122     O        0.98440    0.79121    0.45555    1.000
    O123     O        0.76880    0.79278    0.43165    1.000
    O124     O        0.34500    0.96466    0.30158    1.000
    O125     O        0.33830    0.01596    0.31019    1.000
    O126     O        0.13600    0.99309    0.29463    1.000
    O127     O        0.99360    0.93137    0.37710    1.000
    O128     O        0.04840    0.95022    0.33696    1.000
    O129     O        0.83980    0.92240    0.34195    1.000
    O130     O        0.00370    0.92638    0.23542    1.000
    O131     O        0.20850    0.94367    0.25445    1.000
    O132     O        0.00060    0.93819    0.28015    1.000
    O133     O        0.29190    0.89231    0.39044    1.000
    O134     O        0.08470    0.89450    0.41812    1.000
    O135     O        0.27610    0.86690    0.43038    1.000
    O136     O        0.28470    0.89800    0.29471    1.000
    O137     O        0.25680    0.87760    0.33478    1.000
    O138     O        0.45740    0.90679    0.32685    1.000
    O139     O        0.57440    0.87997    0.42661    1.000
    O140     O        0.77440    0.89942    0.40601    1.000
    O141     O        0.80080    0.85759    0.43247    1.000
    O142     O        0.25840    0.80171    0.46388    1.000
    O143     O        0.42610    0.80371    0.49881    1.000
    O144     O        0.46660    0.83120    0.46213    1.000
    O145     O        0.16510    0.83440    0.37165    1.000
    O146     O        0.95820    0.86557    0.37024    1.000
    O147     O        0.97120    0.82222    0.39682    1.000
    O148     O        0.47860    0.84750    0.36509    1.000
    O149     O        0.45130    0.82300    0.40521    1.000
    O150     O        0.67780    0.82715    0.38436    1.000
    H41      H        0.76720    0.79090    0.47400    1.000
    H42      H        0.33780    0.99690    0.27200    1.000
    H43      H        0.87340    0.96380    0.35750    1.000
    H44      H        0.02390    0.96700    0.25160    1.000
    H45      H        0.28900    0.91790    0.42710    1.000
    H46      H        0.40040    0.85830    0.31340    1.000
    H47      H        0.77810    0.89670    0.44710    1.000
    H48      H        0.40140    0.78460    0.46680    1.000
    H49      H        0.01540    0.82760    0.35720    1.000
    H50      H        0.51370    0.80670    0.36630    1.000
    Ga6      Ga       0.62320    0.27688    0.97723    1.000
    Zn36     Zn       0.83178    0.43248    0.77973    1.000
    Zn37     Zn       0.79550    0.36244    0.86666    1.000
    Zn38     Zn       0.95220    0.34979    0.93185    1.000
    Zn39     Zn       0.45430    0.39679    0.89285    1.000
    Zn40     Zn       0.50936    0.46610    0.80565    1.000
    Zn41     Zn       0.29765    0.32449    0.91188    1.000
    Zn42     Zn       0.14837    0.41471    0.83471    1.000
    P51      P        0.33930    0.28135    0.95372    1.000
    P52      P        0.78680    0.49257    0.79463    1.000
    P53      P        0.43470    0.44212    0.85424    1.000
    P54      P        0.56010    0.44463    0.75520    1.000
    P55      P        0.73520    0.39191    0.91633    1.000
    P56      P        0.85860    0.38678    0.81628    1.000
    P57      P        0.22300    0.38398    0.92808    1.000
    P58      P        0.90560    0.30480    0.97167    1.000
    P59      P        0.51460    0.33646    0.87367    1.000
    P60      P        0.02900    0.32494    0.88163    1.000
    O151     O        0.32630    0.25020    0.95321    1.000
    O152     O        0.48440    0.29121    0.95555    1.000
    O153     O        0.26880    0.29278    0.93165    1.000
    O154     O        0.84500    0.46466    0.80158    1.000
    O155     O        0.83830    0.51596    0.81019    1.000
    O156     O        0.63600    0.49309    0.79463    1.000
    O157     O        0.49360    0.43137    0.87710    1.000
    O158     O        0.54840    0.45022    0.83696    1.000
    O159     O        0.33980    0.42240    0.84195    1.000
    O160     O        0.50370    0.42638    0.73542    1.000
    O161     O        0.70850    0.44367    0.75445    1.000
    O162     O        0.50060    0.43819    0.78015    1.000
    O163     O        0.79190    0.39231    0.89044    1.000
    O164     O        0.58470    0.39450    0.91812    1.000
    O165     O        0.77610    0.36690    0.93038    1.000
    O166     O        0.78470    0.39800    0.79471    1.000
    O167     O        0.75680    0.37760    0.83478    1.000
    O168     O        0.95740    0.40679    0.82685    1.000
    O169     O        0.07440    0.37997    0.92661    1.000
    O170     O        0.27440    0.39942    0.90601    1.000
    O171     O        0.30080    0.35759    0.93247    1.000
    O172     O        0.75840    0.30171    0.96388    1.000
    O173     O        0.92610    0.30371    0.99881    1.000
    O174     O        0.96660    0.33120    0.96213    1.000
    O175     O        0.66510    0.33440    0.87165    1.000
    O176     O        0.45820    0.36557    0.87024    1.000
    O177     O        0.47120    0.32222    0.89682    1.000
    O178     O        0.97860    0.34750    0.86509    1.000
    O179     O        0.95130    0.32300    0.90521    1.000
    O180     O        0.17780    0.32715    0.88436    1.000
    H51      H        0.26720    0.29090    0.97400    1.000
    H52      H        0.83780    0.49690    0.77200    1.000
    H53      H        0.37340    0.46380    0.85750    1.000
    H54      H        0.52390    0.46700    0.75160    1.000
    H55      H        0.78900    0.41790    0.92710    1.000
    H56      H        0.90040    0.35830    0.81340    1.000
    H57      H        0.27810    0.39670    0.94710    1.000
    H58      H        0.90140    0.28460    0.96680    1.000
    H59      H        0.51540    0.32760    0.85720    1.000
    H60      H        0.01370    0.30670    0.86630    1.000
    Ga7      Ga       0.37680    0.22312    0.97723    1.000
    Zn43     Zn       0.16822    0.06752    0.77973    1.000
    Zn44     Zn       0.20450    0.13756    0.86666    1.000
    Zn45     Zn       0.04780    0.15021    0.93185    1.000
    Zn46     Zn       0.54570    0.10321    0.89285    1.000
    Zn47     Zn       0.49064    0.03390    0.80565    1.000
    Zn48     Zn       0.70235    0.17551    0.91188    1.000
    Zn49     Zn       0.85163    0.08529    0.83471    1.000
    P61      P        0.66070    0.21865    0.95372    1.000
    P62      P        0.21320    0.00743    0.79463    1.000
    P63      P        0.56530    0.05788    0.85424    1.000
    P64      P        0.43990    0.05537    0.75520    1.000
    P65      P        0.26480    0.10809    0.91633    1.000
    P66      P        0.14140    0.11322    0.81628    1.000
    P67      P        0.77700    0.11602    0.92808    1.000
    P68      P        0.09440    0.19520    0.97167    1.000
    P69      P        0.48540    0.16354    0.87367    1.000
    P70      P        0.97100    0.17506    0.88163    1.000
    O181     O        0.67370    0.24980    0.95321    1.000
    O182     O        0.51560    0.20879    0.95555    1.000
    O183     O        0.73120    0.20722    0.93165    1.000
    O184     O        0.15500    0.03534    0.80158    1.000
    O185     O        0.16170    0.98404    0.81019    1.000
    O186     O        0.36400    0.00691    0.79463    1.000
    O187     O        0.50640    0.06863    0.87710    1.000
    O188     O        0.45160    0.04978    0.83696    1.000
    O189     O        0.66020    0.07760    0.84195    1.000
    O190     O        0.49630    0.07362    0.73542    1.000
    O191     O        0.29150    0.05633    0.75445    1.000
    O192     O        0.49940    0.06181    0.78015    1.000
    O193     O        0.20810    0.10769    0.89044    1.000
    O194     O        0.41530    0.10550    0.91812    1.000
    O195     O        0.22390    0.13310    0.93038    1.000
    O196     O        0.21530    0.10200    0.79471    1.000
    O197     O        0.24320    0.12240    0.83478    1.000
    O198     O        0.04260    0.09321    0.82685    1.000
    O199     O        0.92560    0.12003    0.92661    1.000
    O200     O        0.72560    0.10058    0.90601    1.000
    O201     O        0.69920    0.14241    0.93247    1.000
    O202     O        0.24160    0.19829    0.96388    1.000
    O203     O        0.07390    0.19629    0.99881    1.000
    O204     O        0.03340    0.16880    0.96213    1.000
    O205     O        0.33490    0.16560    0.87165    1.000
    O206     O        0.54180    0.13443    0.87024    1.000
    O207     O        0.52880    0.17778    0.89682    1.000
    O208     O        0.02140    0.15250    0.86509    1.000
    O209     O        0.04870    0.17700    0.90521    1.000
    O210     O        0.82220    0.17285    0.88436    1.000
    H61      H        0.73280    0.20910    0.97400    1.000
    H62      H        0.16220    0.00310    0.77200    1.000
    H63      H        0.62660    0.03620    0.85750    1.000
    H64      H        0.47610    0.03300    0.75160    1.000
    H65      H        0.21100    0.08210    0.92710    1.000
    H66      H        0.09960    0.14170    0.81340    1.000
    H67      H        0.72190    0.10330    0.94710    1.000
    H68      H        0.09860    0.21540    0.96680    1.000
    H69      H        0.48460    0.17240    0.85720    1.000
    H70      H        0.98630    0.19330    0.86630    1.000
    Ga8      Ga       0.87680    0.72312    0.47723    1.000
    Zn50     Zn       0.66822    0.56752    0.27973    1.000
    Zn51     Zn       0.70450    0.63756    0.36666    1.000
    Zn52     Zn       0.54780    0.65021    0.43185    1.000
    Zn53     Zn       0.04570    0.60321    0.39285    1.000
    Zn54     Zn       0.99064    0.53390    0.30565    1.000
    Zn55     Zn       0.20235    0.67551    0.41188    1.000
    Zn56     Zn       0.35163    0.58529    0.33471    1.000
    P71      P        0.16070    0.71865    0.45372    1.000
    P72      P        0.71320    0.50743    0.29463    1.000
    P73      P        0.06530    0.55788    0.35424    1.000
    P74      P        0.93990    0.55537    0.25520    1.000
    P75      P        0.76480    0.60809    0.41633    1.000
    P76      P        0.64140    0.61322    0.31628    1.000
    P77      P        0.27700    0.61602    0.42808    1.000
    P78      P        0.59440    0.69520    0.47167    1.000
    P79      P        0.98540    0.66354    0.37367    1.000
    P80      P        0.47100    0.67506    0.38163    1.000
    O211     O        0.17370    0.74980    0.45321    1.000
    O212     O        0.01560    0.70879    0.45555    1.000
    O213     O        0.23120    0.70722    0.43165    1.000
    O214     O        0.65500    0.53534    0.30158    1.000
    O215     O        0.66170    0.48404    0.31019    1.000
    O216     O        0.86400    0.50691    0.29463    1.000
    O217     O        0.00640    0.56863    0.37710    1.000
    O218     O        0.95160    0.54978    0.33696    1.000
    O219     O        0.16020    0.57760    0.34195    1.000
    O220     O        0.99630    0.57362    0.23542    1.000
    O221     O        0.79150    0.55633    0.25445    1.000
    O222     O        0.99940    0.56181    0.28015    1.000
    O223     O        0.70810    0.60769    0.39044    1.000
    O224     O        0.91530    0.60550    0.41812    1.000
    O225     O        0.72390    0.63310    0.43038    1.000
    O226     O        0.71530    0.60200    0.29471    1.000
    O227     O        0.74320    0.62240    0.33478    1.000
    O228     O        0.54260    0.59321    0.32685    1.000
    O229     O        0.42560    0.62003    0.42661    1.000
    O230     O        0.22560    0.60058    0.40601    1.000
    O231     O        0.19920    0.64241    0.43247    1.000
    O232     O        0.74160    0.69829    0.46388    1.000
    O233     O        0.57390    0.69629    0.49881    1.000
    O234     O        0.53340    0.66880    0.46213    1.000
    O235     O        0.83490    0.66560    0.37165    1.000
    O236     O        0.04180    0.63443    0.37024    1.000
    O237     O        0.02880    0.67778    0.39682    1.000
    O238     O        0.52140    0.65250    0.36509    1.000
    O239     O        0.54870    0.67700    0.40521    1.000
    O240     O        0.32220    0.67285    0.38436    1.000
    H71      H        0.23280    0.70910    0.47400    1.000
    H72      H        0.66220    0.50310    0.27200    1.000
    H73      H        0.12660    0.53620    0.35750    1.000
    H74      H        0.97610    0.53300    0.25160    1.000
    H75      H        0.71100    0.58210    0.42710    1.000
    H76      H        0.59960    0.64170    0.31340    1.000
    H77      H        0.22190    0.60330    0.44710    1.000
    H78      H        0.59860    0.71540    0.46680    1.000
    H79      H        0.98460    0.67240    0.35720    1.000
    H80      H        0.48630    0.69330    0.36630    1.000
    Ga9      Ga       0.12320    0.72312    0.97723    1.000
    Zn57     Zn       0.33178    0.56752    0.77973    1.000
    Zn58     Zn       0.29550    0.63756    0.86666    1.000
    Zn59     Zn       0.45220    0.65021    0.93185    1.000
    Zn60     Zn       0.95430    0.60321    0.89285    1.000
    Zn61     Zn       0.00936    0.53390    0.80565    1.000
    Zn62     Zn       0.79765    0.67551    0.91188    1.000
    Zn63     Zn       0.64837    0.58529    0.83471    1.000
    P81      P        0.83930    0.71865    0.95372    1.000
    P82      P        0.28680    0.50743    0.79463    1.000
    P83      P        0.93470    0.55788    0.85424    1.000
    P84      P        0.06010    0.55537    0.75520    1.000
    P85      P        0.23520    0.60809    0.91633    1.000
    P86      P        0.35860    0.61322    0.81628    1.000
    P87      P        0.72300    0.61602    0.92808    1.000
    P88      P        0.40560    0.69520    0.97167    1.000
    P89      P        0.01460    0.66354    0.87367    1.000
    P90      P        0.52900    0.67506    0.88163    1.000
    O241     O        0.82630    0.74980    0.95321    1.000
    O242     O        0.98440    0.70879    0.95555    1.000
    O243     O        0.76880    0.70722    0.93165    1.000
    O244     O        0.34500    0.53534    0.80158    1.000
    O245     O        0.33830    0.48404    0.81019    1.000
    O246     O        0.13600    0.50691    0.79463    1.000
    O247     O        0.99360    0.56863    0.87710    1.000
    O248     O        0.04840    0.54978    0.83696    1.000
    O249     O        0.83980    0.57760    0.84195    1.000
    O250     O        0.00370    0.57362    0.73542    1.000
    O251     O        0.20850    0.55633    0.75445    1.000
    O252     O        0.00060    0.56181    0.78015    1.000
    O253     O        0.29190    0.60769    0.89044    1.000
    O254     O        0.08470    0.60550    0.91812    1.000
    O255     O        0.27610    0.63310    0.93038    1.000
    O256     O        0.28470    0.60200    0.79471    1.000
    O257     O        0.25680    0.62240    0.83478    1.000
    O258     O        0.45740    0.59321    0.82685    1.000
    O259     O        0.57440    0.62003    0.92661    1.000
    O260     O        0.77440    0.60058    0.90601    1.000
    O261     O        0.80080    0.64241    0.93247    1.000
    O262     O        0.25840    0.69829    0.96388    1.000
    O263     O        0.42610    0.69629    0.99881    1.000
    O264     O        0.46660    0.66880    0.96213    1.000
    O265     O        0.16510    0.66560    0.87165    1.000
    O266     O        0.95820    0.63443    0.87024    1.000
    O267     O        0.97120    0.67778    0.89682    1.000
    O268     O        0.47860    0.65250    0.86509    1.000
    O269     O        0.45130    0.67700    0.90521    1.000
    O270     O        0.67780    0.67285    0.88436    1.000
    H81      H        0.76720    0.70910    0.97400    1.000
    H82      H        0.33780    0.50310    0.77200    1.000
    H83      H        0.87340    0.53620    0.85750    1.000
    H84      H        0.02390    0.53300    0.75160    1.000
    H85      H        0.28900    0.58210    0.92710    1.000
    H86      H        0.40040    0.64170    0.81340    1.000
    H87      H        0.77810    0.60330    0.94710    1.000
    H88      H        0.40140    0.71540    0.96680    1.000
    H89      H        0.01540    0.67240    0.85720    1.000
    H90      H        0.51370    0.69330    0.86630    1.000
    Ga10     Ga       0.62320    0.22312    0.47723    1.000
    Zn64     Zn       0.83178    0.06752    0.27973    1.000
    Zn65     Zn       0.79550    0.13756    0.36666    1.000
    Zn66     Zn       0.95220    0.15021    0.43185    1.000
    Zn67     Zn       0.45430    0.10321    0.39285    1.000
    Zn68     Zn       0.50936    0.03390    0.30565    1.000
    Zn69     Zn       0.29765    0.17551    0.41188    1.000
    Zn70     Zn       0.14837    0.08529    0.33471    1.000
    P91      P        0.33930    0.21865    0.45372    1.000
    P92      P        0.78680    0.00743    0.29463    1.000
    P93      P        0.43470    0.05788    0.35424    1.000
    P94      P        0.56010    0.05537    0.25520    1.000
    P95      P        0.73520    0.10809    0.41633    1.000
    P96      P        0.85860    0.11322    0.31628    1.000
    P97      P        0.22300    0.11602    0.42808    1.000
    P98      P        0.90560    0.19520    0.47167    1.000
    P99      P        0.51460    0.16354    0.37367    1.000
    P100     P        0.02900    0.17506    0.38163    1.000
    O271     O        0.32630    0.24980    0.45321    1.000
    O272     O        0.48440    0.20879    0.45555    1.000
    O273     O        0.26880    0.20722    0.43165    1.000
    O274     O        0.84500    0.03534    0.30158    1.000
    O275     O        0.83830    0.98404    0.31019    1.000
    O276     O        0.63600    0.00691    0.29463    1.000
    O277     O        0.49360    0.06863    0.37710    1.000
    O278     O        0.54840    0.04978    0.33696    1.000
    O279     O        0.33980    0.07760    0.34195    1.000
    O280     O        0.50370    0.07362    0.23542    1.000
    O281     O        0.70850    0.05633    0.25445    1.000
    O282     O        0.50060    0.06181    0.28015    1.000
    O283     O        0.79190    0.10769    0.39044    1.000
    O284     O        0.58470    0.10550    0.41812    1.000
    O285     O        0.77610    0.13310    0.43038    1.000
    O286     O        0.78470    0.10200    0.29471    1.000
    O287     O        0.75680    0.12240    0.33478    1.000
    O288     O        0.95740    0.09321    0.32685    1.000
    O289     O        0.07440    0.12003    0.42661    1.000
    O290     O        0.27440    0.10058    0.40601    1.000
    O291     O        0.30080    0.14241    0.43247    1.000
    O292     O        0.75840    0.19829    0.46388    1.000
    O293     O        0.92610    0.19629    0.49881    1.000
    O294     O        0.96660    0.16880    0.46213    1.000
    O295     O        0.66510    0.16560    0.37165    1.000
    O296     O        0.45820    0.13443    0.37024    1.000
    O297     O        0.47120    0.17778    0.39682    1.000
    O298     O        0.97860    0.15250    0.36509    1.000
    O299     O        0.95130    0.17700    0.40521    1.000
    O300     O        0.17780    0.17285    0.38436    1.000
    H91      H        0.26720    0.20910    0.47400    1.000
    H92      H        0.83780    0.00310    0.27200    1.000
    H93      H        0.37340    0.03620    0.35750    1.000
    H94      H        0.52390    0.03300    0.25160    1.000
    H95      H        0.78900    0.08210    0.42710    1.000
    H96      H        0.90040    0.14170    0.31340    1.000
    H97      H        0.27810    0.10330    0.44710    1.000
    H98      H        0.90140    0.21540    0.46680    1.000
    H99      H        0.51540    0.17240    0.35720    1.000
    H100     H        0.01370    0.19330    0.36630    1.000
    Ga11     Ga       0.37680    0.27688    0.47723    1.000
    Zn71     Zn       0.16822    0.43248    0.27973    1.000
    Zn72     Zn       0.20450    0.36244    0.36666    1.000
    Zn73     Zn       0.04780    0.34979    0.43185    1.000
    Zn74     Zn       0.54570    0.39679    0.39285    1.000
    Zn75     Zn       0.49064    0.46610    0.30565    1.000
    Zn76     Zn       0.70235    0.32449    0.41188    1.000
    Zn77     Zn       0.85163    0.41471    0.33471    1.000
    P101     P        0.66070    0.28135    0.45372    1.000
    P102     P        0.21320    0.49257    0.29463    1.000
    P103     P        0.56530    0.44212    0.35424    1.000
    P104     P        0.43990    0.44463    0.25520    1.000
    P105     P        0.26480    0.39191    0.41633    1.000
    P106     P        0.14140    0.38678    0.31628    1.000
    P107     P        0.77700    0.38398    0.42808    1.000
    P108     P        0.09440    0.30480    0.47167    1.000
    P109     P        0.48540    0.33646    0.37367    1.000
    P110     P        0.97100    0.32494    0.38163    1.000
    O301     O        0.67370    0.25020    0.45321    1.000
    O302     O        0.51560    0.29121    0.45555    1.000
    O303     O        0.73120    0.29278    0.43165    1.000
    O304     O        0.15500    0.46466    0.30158    1.000
    O305     O        0.16170    0.51596    0.31019    1.000
    O306     O        0.36400    0.49309    0.29463    1.000
    O307     O        0.50640    0.43137    0.37710    1.000
    O308     O        0.45160    0.45022    0.33696    1.000
    O309     O        0.66020    0.42240    0.34195    1.000
    O310     O        0.49630    0.42638    0.23542    1.000
    O311     O        0.29150    0.44367    0.25445    1.000
    O312     O        0.49940    0.43819    0.28015    1.000
    O313     O        0.20810    0.39231    0.39044    1.000
    O314     O        0.41530    0.39450    0.41812    1.000
    O315     O        0.22390    0.36690    0.43038    1.000
    O316     O        0.21530    0.39800    0.29471    1.000
    O317     O        0.24320    0.37760    0.33478    1.000
    O318     O        0.04260    0.40679    0.32685    1.000
    O319     O        0.92560    0.37997    0.42661    1.000
    O320     O        0.72560    0.39942    0.40601    1.000
    O321     O        0.69920    0.35759    0.43247    1.000
    O322     O        0.24160    0.30171    0.46388    1.000
    O323     O        0.07390    0.30371    0.49881    1.000
    O324     O        0.03340    0.33120    0.46213    1.000
    O325     O        0.33490    0.33440    0.37165    1.000
    O326     O        0.54180    0.36557    0.37024    1.000
    O327     O        0.52880    0.32222    0.39682    1.000
    O328     O        0.02140    0.34750    0.36509    1.000
    O329     O        0.04870    0.32300    0.40521    1.000
    O330     O        0.82220    0.32715    0.38436    1.000
    H101     H        0.73280    0.29090    0.47400    1.000
    H102     H        0.16220    0.49690    0.27200    1.000
    H103     H        0.62660    0.46380    0.35750    1.000
    H104     H        0.47610    0.46700    0.25160    1.000
    H105     H        0.21100    0.41790    0.42710    1.000
    H106     H        0.09960    0.35830    0.31340    1.000
    H107     H        0.72190    0.39670    0.44710    1.000
    H108     H        0.09860    0.28460    0.46680    1.000
    H109     H        0.48460    0.32760    0.35720    1.000
    H110     H        0.98630    0.30670    0.36630    1.000
    Ga12     Ga       0.87680    0.77688    0.97723    1.000
    Zn78     Zn       0.66822    0.93248    0.77973    1.000
    Zn79     Zn       0.70450    0.86244    0.86666    1.000
    Zn80     Zn       0.54780    0.84979    0.93185    1.000
    Zn81     Zn       0.04570    0.89679    0.89285    1.000
    Zn82     Zn       0.99064    0.96610    0.80565    1.000
    Zn83     Zn       0.20235    0.82449    0.91188    1.000
    Zn84     Zn       0.35163    0.91471    0.83471    1.000
    P111     P        0.16070    0.78135    0.95372    1.000
    P112     P        0.71320    0.99257    0.79463    1.000
    P113     P        0.06530    0.94212    0.85424    1.000
    P114     P        0.93990    0.94463    0.75520    1.000
    P115     P        0.76480    0.89191    0.91633    1.000
    P116     P        0.64140    0.88678    0.81628    1.000
    P117     P        0.27700    0.88398    0.92808    1.000
    P118     P        0.59440    0.80480    0.97167    1.000
    P119     P        0.98540    0.83646    0.87367    1.000
    P120     P        0.47100    0.82494    0.88163    1.000
    O331     O        0.17370    0.75020    0.95321    1.000
    O332     O        0.01560    0.79121    0.95555    1.000
    O333     O        0.23120    0.79278    0.93165    1.000
    O334     O        0.65500    0.96466    0.80158    1.000
    O335     O        0.66170    0.01596    0.81019    1.000
    O336     O        0.86400    0.99309    0.79463    1.000
    O337     O        0.00640    0.93137    0.87710    1.000
    O338     O        0.95160    0.95022    0.83696    1.000
    O339     O        0.16020    0.92240    0.84195    1.000
    O340     O        0.99630    0.92638    0.73542    1.000
    O341     O        0.79150    0.94367    0.75445    1.000
    O342     O        0.99940    0.93819    0.78015    1.000
    O343     O        0.70810    0.89231    0.89044    1.000
    O344     O        0.91530    0.89450    0.91812    1.000
    O345     O        0.72390    0.86690    0.93038    1.000
    O346     O        0.71530    0.89800    0.79471    1.000
    O347     O        0.74320    0.87760    0.83478    1.000
    O348     O        0.54260    0.90679    0.82685    1.000
    O349     O        0.42560    0.87997    0.92661    1.000
    O350     O        0.22560    0.89942    0.90601    1.000
    O351     O        0.19920    0.85759    0.93247    1.000
    O352     O        0.74160    0.80171    0.96388    1.000
    O353     O        0.57390    0.80371    0.99881    1.000
    O354     O        0.53340    0.83120    0.96213    1.000
    O355     O        0.83490    0.83440    0.87165    1.000
    O356     O        0.04180    0.86557    0.87024    1.000
    O357     O        0.02880    0.82222    0.89682    1.000
    O358     O        0.52140    0.84750    0.86509    1.000
    O359     O        0.54870    0.82300    0.90521    1.000
    O360     O        0.32220    0.82715    0.88436    1.000
    H111     H        0.23280    0.79090    0.97400    1.000
    H112     H        0.66220    0.99690    0.77200    1.000
    H113     H        0.12660    0.96380    0.85750    1.000
    H114     H        0.97610    0.96700    0.75160    1.000
    H115     H        0.71100    0.91790    0.92710    1.000
    H116     H        0.59960    0.85830    0.81340    1.000
    H117     H        0.22190    0.89670    0.94710    1.000
    H118     H        0.59860    0.78460    0.96680    1.000
    H119     H        0.98460    0.82760    0.85720    1.000
    H120     H        0.48630    0.80670    0.86630    1.000
    Ga13     Ga       0.87680    0.22312    0.52277    1.000
    Zn85     Zn       0.66822    0.06752    0.72027    1.000
    Zn86     Zn       0.70450    0.13756    0.63334    1.000
    Zn87     Zn       0.54780    0.15021    0.56815    1.000
    Zn88     Zn       0.04570    0.10321    0.60715    1.000
    Zn89     Zn       0.99064    0.03390    0.69435    1.000
    Zn90     Zn       0.20235    0.17551    0.58812    1.000
    Zn91     Zn       0.35163    0.08529    0.66529    1.000
    P121     P        0.16070    0.21865    0.54628    1.000
    P122     P        0.71320    0.00743    0.70537    1.000
    P123     P        0.06530    0.05788    0.64576    1.000
    P124     P        0.93990    0.05537    0.74480    1.000
    P125     P        0.76480    0.10809    0.58367    1.000
    P126     P        0.64140    0.11322    0.68372    1.000
    P127     P        0.27700    0.11602    0.57192    1.000
    P128     P        0.59440    0.19520    0.52833    1.000
    P129     P        0.98540    0.16354    0.62633    1.000
    P130     P        0.47100    0.17506    0.61837    1.000
    O361     O        0.17370    0.24980    0.54679    1.000
    O362     O        0.01560    0.20879    0.54445    1.000
    O363     O        0.23120    0.20722    0.56835    1.000
    O364     O        0.65500    0.03534    0.69842    1.000
    O365     O        0.66170    0.98404    0.68981    1.000
    O366     O        0.86400    0.00691    0.70537    1.000
    O367     O        0.00640    0.06863    0.62290    1.000
    O368     O        0.95160    0.04978    0.66304    1.000
    O369     O        0.16020    0.07760    0.65805    1.000
    O370     O        0.99630    0.07362    0.76458    1.000
    O371     O        0.79150    0.05633    0.74555    1.000
    O372     O        0.99940    0.06181    0.71985    1.000
    O373     O        0.70810    0.10769    0.60956    1.000
    O374     O        0.91530    0.10550    0.58188    1.000
    O375     O        0.72390    0.13310    0.56962    1.000
    O376     O        0.71530    0.10200    0.70529    1.000
    O377     O        0.74320    0.12240    0.66522    1.000
    O378     O        0.54260    0.09321    0.67315    1.000
    O379     O        0.42560    0.12003    0.57339    1.000
    O380     O        0.22560    0.10058    0.59399    1.000
    O381     O        0.19920    0.14241    0.56753    1.000
    O382     O        0.74160    0.19829    0.53612    1.000
    O383     O        0.57390    0.19629    0.50119    1.000
    O384     O        0.53340    0.16880    0.53787    1.000
    O385     O        0.83490    0.16560    0.62835    1.000
    O386     O        0.04180    0.13443    0.62976    1.000
    O387     O        0.02880    0.17778    0.60318    1.000
    O388     O        0.52140    0.15250    0.63491    1.000
    O389     O        0.54870    0.17700    0.59479    1.000
    O390     O        0.32220    0.17285    0.61564    1.000
    H121     H        0.23280    0.20910    0.52600    1.000
    H122     H        0.66220    0.00310    0.72800    1.000
    H123     H        0.12660    0.03620    0.64250    1.000
    H124     H        0.97610    0.03300    0.74840    1.000
    H125     H        0.71100    0.08210    0.57290    1.000
    H126     H        0.59960    0.14170    0.68660    1.000
    H127     H        0.22190    0.10330    0.55290    1.000
    H128     H        0.59860    0.21540    0.53320    1.000
    H129     H        0.98460    0.17240    0.64280    1.000
    H130     H        0.48630    0.19330    0.63370    1.000
    Ga14     Ga       0.37680    0.72312    0.02277    1.000
    Zn92     Zn       0.16822    0.56752    0.22027    1.000
    Zn93     Zn       0.20450    0.63756    0.13334    1.000
    Zn94     Zn       0.04780    0.65021    0.06815    1.000
    Zn95     Zn       0.54570    0.60321    0.10715    1.000
    Zn96     Zn       0.49064    0.53390    0.19435    1.000
    Zn97     Zn       0.70235    0.67551    0.08812    1.000
    Zn98     Zn       0.85163    0.58529    0.16529    1.000
    P131     P        0.66070    0.71865    0.04628    1.000
    P132     P        0.21320    0.50743    0.20537    1.000
    P133     P        0.56530    0.55788    0.14576    1.000
    P134     P        0.43990    0.55537    0.24480    1.000
    P135     P        0.26480    0.60809    0.08367    1.000
    P136     P        0.14140    0.61322    0.18372    1.000
    P137     P        0.77700    0.61602    0.07192    1.000
    P138     P        0.09440    0.69520    0.02833    1.000
    P139     P        0.48540    0.66354    0.12633    1.000
    P140     P        0.97100    0.67506    0.11837    1.000
    O391     O        0.67370    0.74980    0.04679    1.000
    O392     O        0.51560    0.70879    0.04445    1.000
    O393     O        0.73120    0.70722    0.06835    1.000
    O394     O        0.15500    0.53534    0.19842    1.000
    O395     O        0.16170    0.48404    0.18981    1.000
    O396     O        0.36400    0.50691    0.20537    1.000
    O397     O        0.50640    0.56863    0.12290    1.000
    O398     O        0.45160    0.54978    0.16304    1.000
    O399     O        0.66020    0.57760    0.15805    1.000
    O400     O        0.49630    0.57362    0.26458    1.000
    O401     O        0.29150    0.55633    0.24555    1.000
    O402     O        0.49940    0.56181    0.21985    1.000
    O403     O        0.20810    0.60769    0.10956    1.000
    O404     O        0.41530    0.60550    0.08188    1.000
    O405     O        0.22390    0.63310    0.06962    1.000
    O406     O        0.21530    0.60200    0.20529    1.000
    O407     O        0.24320    0.62240    0.16522    1.000
    O408     O        0.04260    0.59321    0.17315    1.000
    O409     O        0.92560    0.62003    0.07339    1.000
    O410     O        0.72560    0.60058    0.09399    1.000
    O411     O        0.69920    0.64241    0.06753    1.000
    O412     O        0.24160    0.69829    0.03612    1.000
    O413     O        0.07390    0.69629    0.00119    1.000
    O414     O        0.03340    0.66880    0.03787    1.000
    O415     O        0.33490    0.66560    0.12835    1.000
    O416     O        0.54180    0.63443    0.12976    1.000
    O417     O        0.52880    0.67778    0.10318    1.000
    O418     O        0.02140    0.65250    0.13491    1.000
    O419     O        0.04870    0.67700    0.09479    1.000
    O420     O        0.82220    0.67285    0.11564    1.000
    H131     H        0.73280    0.70910    0.02600    1.000
    H132     H        0.16220    0.50310    0.22800    1.000
    H133     H        0.62660    0.53620    0.14250    1.000
    H134     H        0.47610    0.53300    0.24840    1.000
    H135     H        0.21100    0.58210    0.07290    1.000
    H136     H        0.09960    0.64170    0.18660    1.000
    H137     H        0.72190    0.60330    0.05290    1.000
    H138     H        0.09860    0.71540    0.03320    1.000
    H139     H        0.48460    0.67240    0.14280    1.000
    H140     H        0.98630    0.69330    0.13370    1.000
    Ga15     Ga       0.62320    0.77688    0.02277    1.000
    Zn99     Zn       0.83178    0.93248    0.22027    1.000
    Zn100    Zn       0.79550    0.86244    0.13334    1.000
    Zn101    Zn       0.95220    0.84979    0.06815    1.000
    Zn102    Zn       0.45430    0.89679    0.10715    1.000
    Zn103    Zn       0.50936    0.96610    0.19435    1.000
    Zn104    Zn       0.29765    0.82449    0.08812    1.000
    Zn105    Zn       0.14837    0.91471    0.16529    1.000
    P141     P        0.33930    0.78135    0.04628    1.000
    P142     P        0.78680    0.99257    0.20537    1.000
    P143     P        0.43470    0.94212    0.14576    1.000
    P144     P        0.56010    0.94463    0.24480    1.000
    P145     P        0.73520    0.89191    0.08367    1.000
    P146     P        0.85860    0.88678    0.18372    1.000
    P147     P        0.22300    0.88398    0.07192    1.000
    P148     P        0.90560    0.80480    0.02833    1.000
    P149     P        0.51460    0.83646    0.12633    1.000
    P150     P        0.02900    0.82494    0.11837    1.000
    O421     O        0.32630    0.75020    0.04679    1.000
    O422     O        0.48440    0.79121    0.04445    1.000
    O423     O        0.26880    0.79278    0.06835    1.000
    O424     O        0.84500    0.96466    0.19842    1.000
    O425     O        0.83830    0.01596    0.18981    1.000
    O426     O        0.63600    0.99309    0.20537    1.000
    O427     O        0.49360    0.93137    0.12290    1.000
    O428     O        0.54840    0.95022    0.16304    1.000
    O429     O        0.33980    0.92240    0.15805    1.000
    O430     O        0.50370    0.92638    0.26458    1.000
    O431     O        0.70850    0.94367    0.24555    1.000
    O432     O        0.50060    0.93819    0.21985    1.000
    O433     O        0.79190    0.89231    0.10956    1.000
    O434     O        0.58470    0.89450    0.08188    1.000
    O435     O        0.77610    0.86690    0.06962    1.000
    O436     O        0.78470    0.89800    0.20529    1.000
    O437     O        0.75680    0.87760    0.16522    1.000
    O438     O        0.95740    0.90679    0.17315    1.000
    O439     O        0.07440    0.87997    0.07339    1.000
    O440     O        0.27440    0.89942    0.09399    1.000
    O441     O        0.30080    0.85759    0.06753    1.000
    O442     O        0.75840    0.80171    0.03612    1.000
    O443     O        0.92610    0.80371    0.00119    1.000
    O444     O        0.96660    0.83120    0.03787    1.000
    O445     O        0.66510    0.83440    0.12835    1.000
    O446     O        0.45820    0.86557    0.12976    1.000
    O447     O        0.47120    0.82222    0.10318    1.000
    O448     O        0.97860    0.84750    0.13491    1.000
    O449     O        0.95130    0.82300    0.09479    1.000
    O450     O        0.17780    0.82715    0.11564    1.000
    H141     H        0.26720    0.79090    0.02600    1.000
    H142     H        0.83780    0.99690    0.22800    1.000
    H143     H        0.37340    0.96380    0.14250    1.000
    H144     H        0.52390    0.96700    0.24840    1.000
    H145     H        0.78900    0.91790    0.07290    1.000
    H146     H        0.90040    0.85830    0.18660    1.000
    H147     H        0.27810    0.89670    0.05290    1.000
    H148     H        0.90140    0.78460    0.03320    1.000
    H149     H        0.51540    0.82760    0.14280    1.000
    H150     H        0.01370    0.80670    0.13370    1.000
    Ga16     Ga       0.12320    0.27688    0.52277    1.000
    Zn106    Zn       0.33178    0.43248    0.72027    1.000
    Zn107    Zn       0.29550    0.36244    0.63334    1.000
    Zn108    Zn       0.45220    0.34979    0.56815    1.000
    Zn109    Zn       0.95430    0.39679    0.60715    1.000
    Zn110    Zn       0.00936    0.46610    0.69435    1.000
    Zn111    Zn       0.79765    0.32449    0.58812    1.000
    Zn112    Zn       0.64837    0.41471    0.66529    1.000
    P151     P        0.83930    0.28135    0.54628    1.000
    P152     P        0.28680    0.49257    0.70537    1.000
    P153     P        0.93470    0.44212    0.64576    1.000
    P154     P        0.06010    0.44463    0.74480    1.000
    P155     P        0.23520    0.39191    0.58367    1.000
    P156     P        0.35860    0.38678    0.68372    1.000
    P157     P        0.72300    0.38398    0.57192    1.000
    P158     P        0.40560    0.30480    0.52833    1.000
    P159     P        0.01460    0.33646    0.62633    1.000
    P160     P        0.52900    0.32494    0.61837    1.000
    O451     O        0.82630    0.25020    0.54679    1.000
    O452     O        0.98440    0.29121    0.54445    1.000
    O453     O        0.76880    0.29278    0.56835    1.000
    O454     O        0.34500    0.46466    0.69842    1.000
    O455     O        0.33830    0.51596    0.68981    1.000
    O456     O        0.13600    0.49309    0.70537    1.000
    O457     O        0.99360    0.43137    0.62290    1.000
    O458     O        0.04840    0.45022    0.66304    1.000
    O459     O        0.83980    0.42240    0.65805    1.000
    O460     O        0.00370    0.42638    0.76458    1.000
    O461     O        0.20850    0.44367    0.74555    1.000
    O462     O        0.00060    0.43819    0.71985    1.000
    O463     O        0.29190    0.39231    0.60956    1.000
    O464     O        0.08470    0.39450    0.58188    1.000
    O465     O        0.27610    0.36690    0.56962    1.000
    O466     O        0.28470    0.39800    0.70529    1.000
    O467     O        0.25680    0.37760    0.66522    1.000
    O468     O        0.45740    0.40679    0.67315    1.000
    O469     O        0.57440    0.37997    0.57339    1.000
    O470     O        0.77440    0.39942    0.59399    1.000
    O471     O        0.80080    0.35759    0.56753    1.000
    O472     O        0.25840    0.30171    0.53612    1.000
    O473     O        0.42610    0.30371    0.50119    1.000
    O474     O        0.46660    0.33120    0.53787    1.000
    O475     O        0.16510    0.33440    0.62835    1.000
    O476     O        0.95820    0.36557    0.62976    1.000
    O477     O        0.97120    0.32222    0.60318    1.000
    O478     O        0.47860    0.34750    0.63491    1.000
    O479     O        0.45130    0.32300    0.59479    1.000
    O480     O        0.67780    0.32715    0.61564    1.000
    H151     H        0.76720    0.29090    0.52600    1.000
    H152     H        0.33780    0.49690    0.72800    1.000
    H153     H        0.87340    0.46380    0.64250    1.000
    H154     H        0.02390    0.46700    0.74840    1.000
    H155     H        0.28900    0.41790    0.57290    1.000
    H156     H        0.40040    0.35830    0.68660    1.000
    H157     H        0.77810    0.39670    0.55290    1.000
    H158     H        0.40140    0.28460    0.53320    1.000
    H159     H        0.01540    0.32760    0.64280    1.000
    H160     H        0.51370    0.30670    0.63370    1.000
    F1       F        0.75000    0.26105    0.00000    1.000
    F2       F        0.75000    0.73895    0.50000    1.000
    F3       F        0.25000    0.76105    0.50000    1.000
    F4       F        0.25000    0.23895    0.00000    1.000
    F5       F        0.25000    0.73895    0.00000    1.000
    F6       F        0.25000    0.26105    0.50000    1.000
    F7       F        0.75000    0.23895    0.50000    1.000
    F8       F        0.75000    0.76105    0.00000    1.000
    F9       F        0.00000    0.25000    0.00884    1.000
    F10      F        0.50000    0.75000    0.50884    1.000
    F11      F        0.00000    0.75000    0.49116    1.000
    F12      F        0.50000    0.25000    0.99116    1.000
    F13      F        0.00000    0.75000    0.99116    1.000
    F14      F        0.50000    0.25000    0.49116    1.000
    F15      F        0.00000    0.25000    0.50884    1.000
    F16      F        0.50000    0.75000    0.00884    1.000
