data_functionalizedCrystal
_audit_creation_method	'EQeq! by Chris Wilmer'
_symmetry_space_group_name_H-M	'P1'
_symmetry_Int_Tables_number	1
_symmetry_cell_setting	triclinic
loop_
_symmetry_equiv_pos_as_xyz
  x,y,z
_cell_length_a	24.6493
_cell_length_b	24.0029
_cell_length_c	17.2267
_cell_angle_alpha	90
_cell_angle_beta	91.311
_cell_angle_gamma	90
loop_
_atom_site_label
_atom_site_type_symbol
_atom_site_fract_x
_atom_site_fract_y
_atom_site_fract_z
_atom_site_charge
Mof_Zn	Zn	0.353	0.43412	0.1899	1.217
Mof_O 	O 	0.3537	0.4541	0.0812	-0.508
Mof_O 	O 	0.2937	0.3813	0.1997	-0.502
Mof_O 	O 	0.2562	0.4321	0.296	-0.57
Mof_O 	O 	0.9184	0.1084	0.2071	-0.538
Mof_O 	O 	0.9668	0.0638	0.2974	-0.515
Mof_C 	C 	0.3539	0.4511	0.843	-0.239
Mof_H 	H 	0.3601	0.4174	0.8178	0.118
Mof_C 	C 	0.3497	0.4534	0.922	0.216
Mof_H 	H 	0.345	0.4207	0.95	-0.029
Mof_C 	C 	0.262	0.392	0.252	0.4
Mof_C 	C 	0.1268	0.315	0.294	-0.099
Mof_H 	H 	0.097	0.3194	0.326	0.064
Mof_C 	C 	0.17	0.3522	0.299	0.021
Mof_H 	H 	0.1687	0.3819	0.3335	0.029
Mof_C 	C 	0.2142	0.3453	0.252	-0.091
Mof_C 	C 	0.2157	0.301	0.2	0.022
Mof_H 	H 	0.2455	0.2963	0.1684	0.039
Mof_C 	C 	0.173	0.2635	0.1955	-0.1
Mof_H 	H 	0.1738	0.2338	0.1608	0.066
Mof_C 	C 	0.1283	0.2704	0.243	0.034
Mof_C 	C 	0.0052	0.1876	0.1912	0.034
Mof_H 	H 	0.977	0.1899	0.1545	0.031
Mof_C 	C 	0.0068	0.1439	0.244	-0.106
Mof_C 	C 	0.0489	0.1404	0.2989	0.029
Mof_H 	H 	0.05	0.1112	0.3343	0.036
Mof_C 	C 	0.0895	0.1806	0.3007	-0.109
Mof_H 	H 	0.1177	0.1783	0.3374	0.069
Mof_C 	C 	0.088	0.2243	0.248	0.043
Mof_C 	C 	0.0458	0.2278	0.193	-0.111
Mof_H 	H 	0.0448	0.257	0.1576	0.07
Mof_C 	C 	0.956	0.102	0.252	0.43
Mof_Zn	Zn	0.853	0.93412	0.1899	1.221
Mof_O 	O 	0.8537	0.9541	0.0812	-0.482
Mof_O 	O 	0.7937	0.8813	0.1997	-0.497
Mof_O 	O 	0.7562	0.9321	0.296	-0.553
Mof_O 	O 	0.4184	0.6084	0.2071	-0.537
Mof_O 	O 	0.4668	0.5638	0.2974	-0.511
Mof_C 	C 	0.8539	0.9511	0.843	-0.224
Mof_H 	H 	0.8601	0.9174	0.8178	0.119
Mof_C 	C 	0.8497	0.9534	0.922	0.277
Mof_H 	H 	0.845	0.9207	0.95	-0.045
Mof_C 	C 	0.762	0.892	0.252	0.398
Mof_C 	C 	0.6268	0.815	0.294	-0.096
Mof_H 	H 	0.597	0.8194	0.326	0.067
Mof_C 	C 	0.67	0.8522	0.299	0.019
Mof_H 	H 	0.6687	0.8819	0.3335	0.035
Mof_C 	C 	0.7142	0.8453	0.252	-0.086
Mof_C 	C 	0.7157	0.801	0.2	0.02
Mof_H 	H 	0.7455	0.7963	0.1684	0.041
Mof_C 	C 	0.673	0.7635	0.1955	-0.097
Mof_H 	H 	0.6738	0.7338	0.1608	0.066
Mof_C 	C 	0.6283	0.7704	0.243	0.034
Mof_C 	C 	0.5052	0.6876	0.1912	0.034
Mof_H 	H 	0.477	0.6899	0.1545	0.032
Mof_C 	C 	0.5068	0.6439	0.244	-0.105
Mof_C 	C 	0.5489	0.6404	0.2989	0.03
Mof_H 	H 	0.55	0.6112	0.3343	0.036
Mof_C 	C 	0.5895	0.6806	0.3007	-0.11
Mof_H 	H 	0.6177	0.6783	0.3374	0.07
Mof_C 	C 	0.588	0.7243	0.248	0.045
Mof_C 	C 	0.5458	0.7278	0.193	-0.111
Mof_H 	H 	0.5448	0.757	0.1576	0.073
Mof_C 	C 	0.456	0.602	0.252	0.43
Mof_Zn	Zn	0.353	0.56588	0.1899	1.216
Mof_O 	O 	0.3537	0.5459	0.0812	-0.509
Mof_O 	O 	0.2937	0.6187	0.1997	-0.502
Mof_O 	O 	0.2562	0.5679	0.296	-0.571
Mof_O 	O 	0.9184	0.8916	0.2071	-0.53
Mof_O 	O 	0.9668	0.9362	0.2974	-0.492
Mof_C 	C 	0.3539	0.5489	0.843	-0.239
Mof_H 	H 	0.3601	0.5826	0.8178	0.117
Mof_C 	C 	0.3497	0.5466	0.922	0.214
Mof_H 	H 	0.345	0.5793	0.95	-0.029
Mof_C 	C 	0.262	0.608	0.252	0.4
Mof_C 	C 	0.1268	0.685	0.294	-0.101
Mof_H 	H 	0.097	0.6806	0.326	0.065
Mof_C 	C 	0.17	0.6478	0.299	0.022
Mof_H 	H 	0.1687	0.6181	0.3335	0.029
Mof_C 	C 	0.2142	0.6547	0.252	-0.091
Mof_C 	C 	0.2157	0.699	0.2	0.023
Mof_H 	H 	0.2455	0.7037	0.1684	0.04
Mof_C 	C 	0.173	0.7365	0.1955	-0.1
Mof_H 	H 	0.1738	0.7662	0.1608	0.068
Mof_C 	C 	0.1283	0.7296	0.243	0.036
Mof_C 	C 	0.0052	0.8124	0.1912	0.03
Mof_H 	H 	0.977	0.8101	0.1545	0.034
Mof_C 	C 	0.0068	0.8561	0.244	-0.098
Mof_C 	C 	0.0489	0.8596	0.2989	0.026
Mof_H 	H 	0.05	0.8888	0.3343	0.046
Mof_C 	C 	0.0895	0.8194	0.3007	-0.104
Mof_H 	H 	0.1177	0.8217	0.3374	0.072
Mof_C 	C 	0.088	0.7757	0.248	0.041
Mof_C 	C 	0.0458	0.7722	0.193	-0.107
Mof_H 	H 	0.0448	0.743	0.1576	0.069
Mof_C 	C 	0.956	0.898	0.252	0.427
Mof_Zn	Zn	0.853	0.06588	0.1899	1.214
Mof_O 	O 	0.8537	0.0459	0.0812	-0.51
Mof_O 	O 	0.7937	0.1187	0.1997	-0.505
Mof_O 	O 	0.7562	0.0679	0.296	-0.576
Mof_O 	O 	0.4184	0.3916	0.2071	-0.538
Mof_O 	O 	0.4668	0.4362	0.2974	-0.512
Mof_C 	C 	0.8539	0.0489	0.843	-0.253
Mof_H 	H 	0.8601	0.0826	0.8178	0.121
Mof_C 	C 	0.8497	0.0466	0.922	0.245
Mof_H 	H 	0.845	0.0793	0.95	-0.041
Mof_C 	C 	0.762	0.108	0.252	0.399
Mof_C 	C 	0.6268	0.185	0.294	-0.102
Mof_H 	H 	0.597	0.1806	0.326	0.063
Mof_C 	C 	0.67	0.1478	0.299	0.021
Mof_H 	H 	0.6687	0.1181	0.3335	0.025
Mof_C 	C 	0.7142	0.1547	0.252	-0.094
Mof_C 	C 	0.7157	0.199	0.2	0.022
Mof_H 	H 	0.7455	0.2037	0.1684	0.039
Mof_C 	C 	0.673	0.2365	0.1955	-0.102
Mof_H 	H 	0.6738	0.2662	0.1608	0.066
Mof_C 	C 	0.6283	0.2296	0.243	0.034
Mof_C 	C 	0.5052	0.3124	0.1912	0.032
Mof_H 	H 	0.477	0.3101	0.1545	0.031
Mof_C 	C 	0.5068	0.3561	0.244	-0.104
Mof_C 	C 	0.5489	0.3596	0.2989	0.028
Mof_H 	H 	0.55	0.3888	0.3343	0.036
Mof_C 	C 	0.5895	0.3194	0.3007	-0.109
Mof_H 	H 	0.6177	0.3217	0.3374	0.069
Mof_C 	C 	0.588	0.2757	0.248	0.041
Mof_C 	C 	0.5458	0.2722	0.193	-0.11
Mof_H 	H 	0.5448	0.243	0.1576	0.068
Mof_C 	C 	0.456	0.398	0.252	0.429
Mof_Zn	Zn	0.4177	0.5	0.3198	1.207
Mof_Zn	Zn	0.2869	0.5	0.3196	1.224
Mof_O 	O 	0.3535	0.5	0.2543	-0.95
Mof_O 	O 	0.4102	0.5	0.4327	-0.497
Mof_O 	O 	0.319	0.5	0.423	-0.536
Mof_C 	C 	0.3636	0.5	0.458	0.392
Mof_C 	C 	0.314	0.5	0.583	0.008
Mof_H 	H 	0.2825	0.5	0.5513	0.035
Mof_C 	C 	0.31	0.5	0.664	-0.083
Mof_H 	H 	0.2766	0.5	0.687	0.058
Mof_C 	C 	0.358	0.5	0.709	0.003
Mof_C 	C 	0.408	0.5	0.674	-0.078
Mof_H 	H 	0.4395	0.5	0.7058	0.07
Mof_C 	C 	0.413	0.5	0.594	0.014
Mof_H 	H 	0.4468	0.5	0.5708	0.043
Mof_C 	C 	0.365	0.5	0.551	-0.088
Mof_C 	C 	0.349	0.5	0.801	0.136
Mof_C 	C 	0.352	0.5	0.957	-0.29
Mof_C 	C 	0.35	0.5	0.044	0.439
Mof_Zn	Zn	0.9177	2.47739e-33	0.3198	1.202
Mof_Zn	Zn	0.7869	2.47739e-33	0.3196	1.218
Mof_O 	O 	0.8535	0	0.2543	-0.965
Mof_O 	O 	0.9102	0	0.4327	-0.504
Mof_O 	O 	0.819	0	0.423	-0.544
Mof_C 	C 	0.8636	2.47739e-33	0.458	0.392
Mof_C 	C 	0.814	0	0.583	0.008
Mof_H 	H 	0.7825	0	0.5513	0.03
Mof_C 	C 	0.81	0	0.664	-0.088
Mof_H 	H 	0.7766	-4.95477e-33	0.687	0.054
Mof_C 	C 	0.858	0	0.709	0.003
Mof_C 	C 	0.908	4.95477e-33	0.674	-0.085
Mof_H 	H 	0.9395	0	0.7058	0.064
Mof_C 	C 	0.913	0	0.594	0.013
Mof_H 	H 	0.9468	-4.95477e-33	0.5708	0.039
Mof_C 	C 	0.865	0	0.551	-0.094
Mof_C 	C 	0.849	0	0.801	0.113
Mof_C 	C 	0.852	4.95477e-33	0.957	-0.349
Mof_C 	C 	0.85	3.09673e-34	0.044	0.419
Mof_Zn	Zn	0.647	0.43412	0.8101	1.216
Mof_O 	O 	0.6463	0.4541	0.9188	-0.509
Mof_O 	O 	0.7063	0.3813	0.8003	-0.503
Mof_O 	O 	0.7438	0.4321	0.704	-0.571
Mof_O 	O 	0.0816	0.1084	0.7929	-0.539
Mof_O 	O 	0.0332	0.0638	0.7026	-0.516
Mof_C 	C 	0.6461	0.4511	0.157	-0.24
Mof_H 	H 	0.6399	0.4174	0.1822	0.117
Mof_C 	C 	0.6503	0.4534	0.078	0.215
Mof_H 	H 	0.655	0.4207	0.05	-0.03
Mof_C 	C 	0.738	0.392	0.748	0.399
Mof_C 	C 	0.8732	0.315	0.706	-0.1
Mof_H 	H 	0.903	0.3194	0.674	0.064
Mof_C 	C 	0.83	0.3522	0.701	0.021
Mof_H 	H 	0.8313	0.3819	0.6665	0.029
Mof_C 	C 	0.7858	0.3453	0.748	-0.091
Mof_C 	C 	0.7843	0.301	0.8	0.022
Mof_H 	H 	0.7545	0.2963	0.8316	0.039
Mof_C 	C 	0.827	0.2635	0.8045	-0.1
Mof_H 	H 	0.8262	0.2338	0.8392	0.066
Mof_C 	C 	0.8717	0.2704	0.757	0.034
Mof_C 	C 	0.9948	0.1876	0.8088	0.034
Mof_H 	H 	0.023	0.1899	0.8455	0.031
Mof_C 	C 	0.9932	0.1439	0.756	-0.106
Mof_C 	C 	0.9511	0.1404	0.7011	0.029
Mof_H 	H 	0.95	0.1112	0.6657	0.036
Mof_C 	C 	0.9105	0.1806	0.6993	-0.109
Mof_H 	H 	0.8823	0.1783	0.6626	0.069
Mof_C 	C 	0.912	0.2243	0.752	0.043
Mof_C 	C 	0.9542	0.2278	0.807	-0.111
Mof_H 	H 	0.9552	0.257	0.8424	0.07
Mof_C 	C 	0.044	0.102	0.748	0.43
Mof_Zn	Zn	0.147	0.93412	0.8101	1.221
Mof_O 	O 	0.1463	0.9541	0.9188	-0.482
Mof_O 	O 	0.2063	0.8813	0.8003	-0.497
Mof_O 	O 	0.2438	0.9321	0.704	-0.553
Mof_O 	O 	0.5816	0.6084	0.7929	-0.537
Mof_O 	O 	0.5332	0.5638	0.7026	-0.511
Mof_C 	C 	0.1461	0.9511	0.157	-0.224
Mof_H 	H 	0.1399	0.9174	0.1822	0.119
Mof_C 	C 	0.1503	0.9534	0.078	0.277
Mof_H 	H 	0.155	0.9207	0.05	-0.045
Mof_C 	C 	0.238	0.892	0.748	0.398
Mof_C 	C 	0.3732	0.815	0.706	-0.096
Mof_H 	H 	0.403	0.8194	0.674	0.067
Mof_C 	C 	0.33	0.8522	0.701	0.019
Mof_H 	H 	0.3313	0.8819	0.6665	0.035
Mof_C 	C 	0.2858	0.8453	0.748	-0.086
Mof_C 	C 	0.2843	0.801	0.8	0.02
Mof_H 	H 	0.2545	0.7963	0.8316	0.041
Mof_C 	C 	0.327	0.7635	0.8045	-0.097
Mof_H 	H 	0.3262	0.7338	0.8392	0.066
Mof_C 	C 	0.3717	0.7704	0.757	0.034
Mof_C 	C 	0.4948	0.6876	0.8088	0.034
Mof_H 	H 	0.523	0.6899	0.8455	0.032
Mof_C 	C 	0.4932	0.6439	0.756	-0.105
Mof_C 	C 	0.4511	0.6404	0.7011	0.03
Mof_H 	H 	0.45	0.6112	0.6657	0.036
Mof_C 	C 	0.4105	0.6806	0.6993	-0.11
Mof_H 	H 	0.3823	0.6783	0.6626	0.07
Mof_C 	C 	0.412	0.7243	0.752	0.045
Mof_C 	C 	0.4542	0.7278	0.807	-0.111
Mof_H 	H 	0.4552	0.757	0.8424	0.073
Mof_C 	C 	0.544	0.602	0.748	0.43
Mof_Zn	Zn	0.647	0.56588	0.8101	1.216
Mof_O 	O 	0.6463	0.5459	0.9188	-0.509
Mof_O 	O 	0.7063	0.6187	0.8003	-0.502
Mof_O 	O 	0.7438	0.5679	0.704	-0.571
Mof_O 	O 	0.0816	0.8916	0.7929	-0.53
Mof_O 	O 	0.0332	0.9362	0.7026	-0.492
Mof_C 	C 	0.6461	0.5489	0.157	-0.239
Mof_H 	H 	0.6399	0.5826	0.1822	0.117
Mof_C 	C 	0.6503	0.5466	0.078	0.214
Mof_H 	H 	0.655	0.5793	0.05	-0.029
Mof_C 	C 	0.738	0.608	0.748	0.4
Mof_C 	C 	0.8732	0.685	0.706	-0.101
Mof_H 	H 	0.903	0.6806	0.674	0.065
Mof_C 	C 	0.83	0.6478	0.701	0.022
Mof_H 	H 	0.8313	0.6181	0.6665	0.029
Mof_C 	C 	0.7858	0.6547	0.748	-0.091
Mof_C 	C 	0.7843	0.699	0.8	0.023
Mof_H 	H 	0.7545	0.7037	0.8316	0.04
Mof_C 	C 	0.827	0.7365	0.8045	-0.1
Mof_H 	H 	0.8262	0.7662	0.8392	0.068
Mof_C 	C 	0.8717	0.7296	0.757	0.036
Mof_C 	C 	0.9948	0.8124	0.8088	0.03
Mof_H 	H 	0.023	0.8101	0.8455	0.034
Mof_C 	C 	0.9932	0.8561	0.756	-0.098
Mof_C 	C 	0.9511	0.8596	0.7011	0.026
Mof_H 	H 	0.95	0.8888	0.6657	0.046
Mof_C 	C 	0.9105	0.8194	0.6993	-0.104
Mof_H 	H 	0.8823	0.8217	0.6626	0.072
Mof_C 	C 	0.912	0.7757	0.752	0.041
Mof_C 	C 	0.9542	0.7722	0.807	-0.107
Mof_H 	H 	0.9552	0.743	0.8424	0.069
Mof_C 	C 	0.044	0.898	0.748	0.427
Mof_Zn	Zn	0.147	0.06588	0.8101	1.214
Mof_O 	O 	0.1463	0.0459	0.9188	-0.51
Mof_O 	O 	0.2063	0.1187	0.8003	-0.505
Mof_O 	O 	0.2438	0.0679	0.704	-0.576
Mof_O 	O 	0.5816	0.3916	0.7929	-0.538
Mof_O 	O 	0.5332	0.4362	0.7026	-0.512
Mof_C 	C 	0.1461	0.0489	0.157	-0.253
Mof_H 	H 	0.1399	0.0826	0.1822	0.121
Mof_C 	C 	0.1503	0.0466	0.078	0.245
Mof_H 	H 	0.155	0.0793	0.05	-0.041
Mof_C 	C 	0.238	0.108	0.748	0.399
Mof_C 	C 	0.3732	0.185	0.706	-0.102
Mof_H 	H 	0.403	0.1806	0.674	0.063
Mof_C 	C 	0.33	0.1478	0.701	0.021
Mof_H 	H 	0.3313	0.1181	0.6665	0.025
Mof_C 	C 	0.2858	0.1547	0.748	-0.094
Mof_C 	C 	0.2843	0.199	0.8	0.022
Mof_H 	H 	0.2545	0.2037	0.8316	0.039
Mof_C 	C 	0.327	0.2365	0.8045	-0.102
Mof_H 	H 	0.3262	0.2662	0.8392	0.066
Mof_C 	C 	0.3717	0.2296	0.757	0.034
Mof_C 	C 	0.4948	0.3124	0.8088	0.032
Mof_H 	H 	0.523	0.3101	0.8455	0.031
Mof_C 	C 	0.4932	0.3561	0.756	-0.104
Mof_C 	C 	0.4511	0.3596	0.7011	0.028
Mof_H 	H 	0.45	0.3888	0.6657	0.036
Mof_C 	C 	0.4105	0.3194	0.6993	-0.109
Mof_H 	H 	0.3823	0.3217	0.6626	0.069
Mof_C 	C 	0.412	0.2757	0.752	0.041
Mof_C 	C 	0.4542	0.2722	0.807	-0.11
Mof_H 	H 	0.4552	0.243	0.8424	0.068
Mof_C 	C 	0.544	0.398	0.748	0.429
Mof_Zn	Zn	0.5823	0.5	0.6802	1.207
Mof_Zn	Zn	0.7131	0.5	0.6804	1.224
Mof_O 	O 	0.6465	0.5	0.7457	-0.95
Mof_O 	O 	0.5898	0.5	0.5673	-0.497
Mof_O 	O 	0.681	0.5	0.577	-0.536
Mof_C 	C 	0.6364	0.5	0.542	0.392
Mof_C 	C 	0.686	0.5	0.417	0.008
Mof_H 	H 	0.7175	0.5	0.4487	0.035
Mof_C 	C 	0.69	0.5	0.336	-0.083
Mof_H 	H 	0.7234	0.5	0.313	0.058
Mof_C 	C 	0.642	0.5	0.291	0.003
Mof_C 	C 	0.592	0.5	0.326	-0.078
Mof_H 	H 	0.5605	0.5	0.2942	0.07
Mof_C 	C 	0.587	0.5	0.406	0.014
Mof_H 	H 	0.5532	0.5	0.4292	0.043
Mof_C 	C 	0.635	0.5	0.449	-0.088
Mof_C 	C 	0.651	0.5	0.199	0.136
Mof_C 	C 	0.648	0.5	0.043	-0.29
Mof_C 	C 	0.65	0.5	0.956	0.439
Mof_Zn	Zn	0.0823	4.95477e-33	0.6802	1.202
Mof_Zn	Zn	0.2131	0	0.6804	1.218
Mof_O 	O 	0.1465	0	0.7457	-0.965
Mof_O 	O 	0.0898	0	0.5673	-0.504
Mof_O 	O 	0.181	-4.95477e-33	0.577	-0.544
Mof_C 	C 	0.1364	0	0.542	0.392
Mof_C 	C 	0.186	0	0.417	0.008
Mof_H 	H 	0.2175	0	0.4487	0.03
Mof_C 	C 	0.19	2.47739e-33	0.336	-0.088
Mof_H 	H 	0.2234	0	0.313	0.054
Mof_C 	C 	0.142	0	0.291	0.003
Mof_C 	C 	0.092	0	0.326	-0.085
Mof_H 	H 	0.0605	0	0.2942	0.064
Mof_C 	C 	0.087	0	0.406	0.013
Mof_H 	H 	0.0532	2.47739e-33	0.4292	0.039
Mof_C 	C 	0.135	0	0.449	-0.094
Mof_C 	C 	0.151	-1.23869e-33	0.199	0.113
Mof_C 	C 	0.148	0	0.043	-0.349
Mof_C 	C 	0.15	0	0.956	0.419
_end
