data_functionalizedCrystal
_audit_creation_method	'EQeq! by Chris Wilmer'
_symmetry_space_group_name_H-M	'P1'
_symmetry_Int_Tables_number	1
_symmetry_cell_setting	triclinic
loop_
_symmetry_equiv_pos_as_xyz
  x,y,z
_cell_length_a	11.3594
_cell_length_b	9.8177
_cell_length_c	18.3724
_cell_angle_alpha	90
_cell_angle_beta	126.931
_cell_angle_gamma	90
loop_
_atom_site_label
_atom_site_type_symbol
_atom_site_fract_x
_atom_site_fract_y
_atom_site_fract_z
_atom_site_charge
Mof_Fe	Fe	0.37769	0.08495	0.13311	0.873
Mof_Fe	Fe	0.42585	0.10227	0.68692	0.876
Mof_O 	O 	0.4347	0.2072	0.24557	-0.48
Mof_O 	O 	0.5507	0.0703	0.36766	-0.428
Mof_O 	O 	0.5921	0.0032	0.22	-0.551
Mof_O 	O 	0.6794	0.003	0.13866	-0.45
Mof_O 	O 	0.4544	0.263	0.10685	-0.445
Mof_O 	O 	0.4813	0.2112	0.99907	-0.31
Mof_O 	O 	0.3461	0.9213	0.19641	-0.44
Mof_O 	O 	0.1022	0.8985	0.12094	-0.384
Mof_O 	O 	0.3373	0.9754	0.02366	-0.458
Mof_O 	O 	0.1149	0.8902	0.96761	-0.379
Mof_O 	O 	0.1589	0.1578	0.05939	-0.474
Mof_O 	O 	0.1996	0.3817	0.09078	-0.41
Mof_C 	C 	0.4949	0.1798	0.3288	0.504
Mof_H 	H 	0.497	0.2509	0.3646	-0.112
Mof_C 	C 	0.6952	0.9911	0.2113	0.646
Mof_H 	H 	0.7913	0.9714	0.2646	-0.122
Mof_C 	C 	0.4731	0.2929	0.0468	0.392
Mof_H 	H 	0.4814	0.3868	0.0381	-0.08
Mof_C 	C 	0.2326	0.8743	0.1864	0.476
Mof_H 	H 	0.2487	0.8157	0.2327	-0.113
Mof_C 	C 	0.2251	0.8976	0.9701	0.543
Mof_H 	H 	0.2283	0.8413	0.9293	-0.105
Mof_C 	C 	0.1168	0.2831	0.0495	0.468
Mof_H 	H 	0.0144	0.3011	0.0073	-0.135
Mof_Fe	Fe	0.62231	0.58495	0.36689	0.932
Mof_Fe	Fe	0.57415	0.60227	0.81308	0.939
Mof_O 	O 	0.5653	0.7072	0.25443	-0.478
Mof_O 	O 	0.4493	0.5703	0.13234	-0.409
Mof_O 	O 	0.4079	0.5032	0.28	-0.476
Mof_O 	O 	0.3206	0.503	0.36134	-0.401
Mof_O 	O 	0.5456	0.763	0.39315	-0.469
Mof_O 	O 	0.5187	0.7112	0.50093	-0.387
Mof_O 	O 	0.6539	0.4213	0.30359	-0.456
Mof_O 	O 	0.8978	0.3985	0.37906	-0.34
Mof_O 	O 	0.6627	0.4754	0.47634	-0.459
Mof_O 	O 	0.8851	0.3902	0.53239	-0.352
Mof_O 	O 	0.8411	0.6578	0.44061	-0.421
Mof_O 	O 	0.8004	0.8817	0.40922	-0.355
Mof_C 	C 	0.5051	0.6798	0.1712	0.503
Mof_H 	H 	0.503	0.7509	0.1354	-0.106
Mof_C 	C 	0.3048	0.4911	0.2887	0.494
Mof_H 	H 	0.2087	0.4714	0.2354	-0.12
Mof_C 	C 	0.5269	0.7929	0.4532	0.497
Mof_H 	H 	0.5186	0.8868	0.4619	-0.084
Mof_C 	C 	0.7674	0.3743	0.3136	0.473
Mof_H 	H 	0.7513	0.3157	0.2673	-0.1
Mof_C 	C 	0.7749	0.3976	0.5299	0.485
Mof_H 	H 	0.7717	0.3413	0.5707	-0.084
Mof_C 	C 	0.8832	0.7831	0.4505	0.458
Mof_H 	H 	0.9856	0.8011	0.4927	-0.039
Mof_Fe	Fe	0.62231	0.91505	0.86689	0.977
Mof_Fe	Fe	0.57415	0.89773	0.31308	0.989
Mof_O 	O 	0.5653	0.7928	0.75443	-0.471
Mof_O 	O 	0.4493	0.9297	0.63234	-0.368
Mof_O 	O 	0.4079	0.9968	0.78	-0.382
Mof_O 	O 	0.3206	0.997	0.86134	-0.279
Mof_O 	O 	0.5456	0.737	0.89315	-0.479
Mof_O 	O 	0.5187	0.7888	0.00093	-0.419
Mof_O 	O 	0.6539	0.0787	0.80359	-0.468
Mof_O 	O 	0.8978	0.1015	0.87906	-0.309
Mof_O 	O 	0.6627	0.0246	0.97634	-0.406
Mof_O 	O 	0.8851	0.1098	0.03239	-0.334
Mof_O 	O 	0.8411	0.8422	0.94061	-0.375
Mof_O 	O 	0.8004	0.6183	0.90922	-0.352
Mof_C 	C 	0.5051	0.8202	0.6712	0.496
Mof_H 	H 	0.503	0.7491	0.6354	-0.102
Mof_C 	C 	0.3048	0.0089	0.7887	0.315
Mof_H 	H 	0.2087	0.0286	0.7354	-0.073
Mof_C 	C 	0.5269	0.7071	0.9532	0.567
Mof_H 	H 	0.5186	0.6132	0.9619	-0.105
Mof_C 	C 	0.7674	0.1257	0.8136	0.463
Mof_H 	H 	0.7513	0.1843	0.7673	-0.092
Mof_C 	C 	0.7749	0.1024	0.0299	0.385
Mof_H 	H 	0.7717	0.1587	0.0707	-0.06
Mof_C 	C 	0.8832	0.7169	0.9505	0.445
Mof_H 	H 	0.9856	0.6989	0.9927	-0.023
Mof_Fe	Fe	0.37769	0.41505	0.63311	0.929
Mof_Fe	Fe	0.42585	0.39773	0.18692	0.926
Mof_O 	O 	0.4347	0.2928	0.74557	-0.471
Mof_O 	O 	0.5507	0.4297	0.86766	-0.384
Mof_O 	O 	0.5921	0.4968	0.72	-0.466
Mof_O 	O 	0.6794	0.497	0.63866	-0.377
Mof_O 	O 	0.4544	0.237	0.60685	-0.469
Mof_O 	O 	0.4813	0.2888	0.49907	-0.399
Mof_O 	O 	0.3461	0.5787	0.69641	-0.468
Mof_O 	O 	0.1022	0.6015	0.62094	-0.416
Mof_O 	O 	0.3373	0.5246	0.52366	-0.473
Mof_O 	O 	0.1149	0.6098	0.46761	-0.429
Mof_O 	O 	0.1589	0.3422	0.55939	-0.471
Mof_O 	O 	0.1996	0.1183	0.59078	-0.415
Mof_C 	C 	0.4949	0.3202	0.8288	0.496
Mof_H 	H 	0.497	0.2491	0.8646	-0.103
Mof_C 	C 	0.6952	0.5089	0.7113	0.485
Mof_H 	H 	0.7913	0.5286	0.7646	-0.08
Mof_C 	C 	0.4731	0.2071	0.5468	0.495
Mof_H 	H 	0.4814	0.1132	0.5381	-0.112
Mof_C 	C 	0.2326	0.6257	0.6864	0.493
Mof_H 	H 	0.2487	0.6843	0.7327	-0.114
Mof_C 	C 	0.2251	0.6024	0.4701	0.504
Mof_H 	H 	0.2283	0.6587	0.4293	-0.108
Mof_C 	C 	0.1168	0.2169	0.5495	0.475
Mof_H 	H 	0.0144	0.1989	0.5073	-0.131
Mof_Fe	Fe	0.5	0	-0	0.815
Mof_Fe	Fe	0.5	0.5	0.5	0.965
Mof_Fe	Fe	-0	0	-0	0.729
Mof_Fe	Fe	-6.94124e-17	0.5	0.5	0.887
_end
