data_functionalizedCrystal
_audit_creation_method	'EQeq! by Chris Wilmer'
_symmetry_space_group_name_H-M	'P1'
_symmetry_Int_Tables_number	1
_symmetry_cell_setting	triclinic
loop_
_symmetry_equiv_pos_as_xyz
  x,y,z
_cell_length_a	11.609
_cell_length_b	12.227
_cell_length_c	13.554
_cell_angle_alpha	65
_cell_angle_beta	69.14
_cell_angle_gamma	87.75
loop_
_atom_site_label
_atom_site_type_symbol
_atom_site_fract_x
_atom_site_fract_y
_atom_site_fract_z
_atom_site_charge
Mof_O 	O 	0.5619	0.1299	0.8694	-0.447
Mof_O 	O 	0.4986	0.3006	0.7756	-0.413
Mof_C 	C 	0.5238	0.2287	0.8637	0.322
Mof_O 	O 	0.2908	0.8067	0.5155	-0.522
Mof_O 	O 	0.2891	0.9537	0.5705	-0.485
Mof_C 	C 	0.2362	0.8728	0.5605	0.5
Mof_C 	C 	0.0264	0.7785	0.5953	0.03
Mof_H 	H 	0.0657	0.7211	0.5717	0.045
Mof_C 	C 	0.0958	0.8626	0.6043	-0.18
Mof_C 	C 	0.0375	0.9487	0.64	0.225
Mof_H 	H 	0.0836	0.0045	0.646	-0.084
Mof_O 	O 	0.7388	0.0552	0.7088	-0.472
Mof_O 	O 	0.9202	0.1299	0.6919	-0.24
Mof_C 	C 	0.8496	0.0521	0.6926	0.333
Mof_C 	C 	0.9113	0.9511	0.6665	-0.074
Mof_C 	C 	0.8427	0.8671	0.6576	0.009
Mof_H 	H 	0.7576	0.8688	0.6763	0.053
Mof_C 	C 	0.899	0.78	0.6211	-0.008
Mof_O 	O 	0.7331	0.322	0.6035	-0.466
Mof_C 	C 	0.7892	0.3777	0.6344	0.394
Mof_C 	C 	0.7714	0.5072	0.6086	-0.102
Mof_C 	C 	0.6826	0.5559	0.5606	0.053
Mof_H 	H 	0.6341	0.5074	0.5488	0.046
Mof_C 	C 	0.6668	0.6786	0.5304	-0.109
Mof_Tb	Tb	0.42632	0.83031	0.3269	2.236
Mof_O 	O 	0.5637	0.8453	0.4441	-0.575
Mof_O 	O 	0.4681	0.0297	0.3129	-0.693
Mof_O 	O 	0.5213	0.6715	0.4452	-0.458
Mof_O 	O 	0.5339	0.1856	0.3233	-0.471
Mof_O 	O 	0.8595	0.3283	0.691	-0.24
Mof_C 	C 	0.5023	0.1412	0.2667	0.458
Mof_C 	C 	0.5774	0.733	0.4714	0.415
Mof_C 	C 	0.8254	0.7006	0.6021	0.007
Mof_C 	C 	0.5039	0.2257	0.1487	-0.182
Mof_C 	C 	0.8418	0.5791	0.629	-0.009
Mof_H 	H 	0.9008	0.5456	0.661	0.058
Mof_C 	C 	0.5078	0.1854	0.0663	0.086
Mof_H 	H 	0.5078	0.1031	0.0844	-0.031
Mof_C 	C 	0.738	0.7491	0.5514	0.004
Mof_H 	H 	0.7272	0.8305	0.5311	0.047
Mof_C 	C 	0.5013	0.3476	0.122	0.041
Mof_H 	H 	0.4995	0.3733	0.178	0.034
Mof_C 	C 	0.5011	0.4337	0.0143	-0.049
Mof_C 	C 	0.5118	0.2686	0.9568	-0.108
Mof_C 	C 	0.5087	0.3905	0.9319	0.019
Mof_H 	H 	0.5117	0.4455	0.858	0.044
Mof_O 	O 	0.4381	0.8701	0.1306	-0.408
Mof_O 	O 	0.5014	0.6994	0.2244	-0.414
Mof_C 	C 	0.4762	0.7713	0.1363	0.309
Mof_O 	O 	0.7092	0.1933	0.4845	-0.508
Mof_O 	O 	0.7109	0.0463	0.4295	-0.568
Mof_C 	C 	0.7638	0.1272	0.4395	0.445
Mof_C 	C 	0.9736	0.2215	0.4047	-0.016
Mof_H 	H 	0.9343	0.2789	0.4283	0.063
Mof_C 	C 	0.9042	0.1374	0.3957	-0.084
Mof_C 	C 	0.9625	0.0513	0.36	-0.103
Mof_H 	H 	0.9164	0.9955	0.354	0.156
Mof_O 	O 	0.2612	0.9448	0.2912	-0.454
Mof_O 	O 	0.0798	0.8701	0.3081	-0.248
Mof_C 	C 	0.1504	0.9479	0.3074	0.47
Mof_C 	C 	0.0887	0.0489	0.3335	-0.159
Mof_C 	C 	0.1573	0.1329	0.3424	0.001
Mof_H 	H 	0.2424	0.1312	0.3237	0.02
Mof_C 	C 	0.101	0.22	0.3789	-0.008
Mof_O 	O 	0.2669	0.678	0.3965	-0.49
Mof_C 	C 	0.2108	0.6223	0.3656	0.405
Mof_C 	C 	0.2286	0.4928	0.3914	-0.119
Mof_C 	C 	0.3174	0.4441	0.4394	0.069
Mof_H 	H 	0.3659	0.4926	0.4512	0.037
Mof_C 	C 	0.3332	0.3214	0.4696	-0.137
Mof_Tb	Tb	0.57368	0.16969	0.6731	2.044
Mof_O 	O 	0.4363	0.1547	0.5559	-0.624
Mof_O 	O 	0.5319	0.9703	0.6871	-0.559
Mof_O 	O 	0.4787	0.3285	0.5548	-0.452
Mof_O 	O 	0.4661	0.8144	0.6767	-0.439
Mof_O 	O 	0.1405	0.6717	0.309	-0.239
Mof_C 	C 	0.4977	0.8588	0.7333	0.42
Mof_C 	C 	0.4226	0.267	0.5286	0.428
Mof_C 	C 	0.1746	0.2994	0.3979	-0.017
Mof_C 	C 	0.4961	0.7743	0.8513	-0.116
Mof_C 	C 	0.1582	0.4209	0.371	0.005
Mof_H 	H 	0.0992	0.4544	0.339	0.05
Mof_C 	C 	0.4922	0.8146	0.9337	0.057
Mof_H 	H 	0.4922	0.8969	0.9156	0.033
Mof_C 	C 	0.262	0.2509	0.4486	0.029
Mof_H 	H 	0.2728	0.1695	0.4689	0.01
Mof_C 	C 	0.4987	0.6524	0.878	-0.02
Mof_H 	H 	0.5005	0.6267	0.822	0.058
Mof_C 	C 	0.4989	0.5663	0.9857	0.04
Mof_C 	C 	0.4882	0.7314	0.0432	-0.066
Mof_C 	C 	0.4913	0.6095	0.0681	-0.052
Mof_H 	H 	0.4883	0.5545	0.142	0.07
Mof_Tb	Tb	0.5	0	0.5	2.04
_end
