# CIF file generated by openbabel 3.1.0, see https://openbabel.org
data_I
_chemical_name_common 'image0'
_cell_length_a 15.414
_cell_length_b 6.718
_cell_length_c 14.322
_cell_angle_alpha 90
_cell_angle_beta 90
_cell_angle_gamma 90
_space_group_name_H-M_alt 'P 1'
_space_group_name_Hall 'P 1'
loop_
    _symmetry_equiv_pos_as_xyz
    x,y,z
loop_
    _atom_site_label
    _atom_site_type_symbol
    _atom_site_fract_x
    _atom_site_fract_y
    _atom_site_fract_z
    _atom_site_occupancy
    O1       O        0.14470    0.58680    0.35850    1.000
    O2       O        0.20690    0.91510    0.75220    1.000
    O3       O        0.70450    0.97800    0.54450    1.000
    H1       H        0.69090    0.03360    0.59520    1.000
    H2       H        0.67000    0.88510    0.53350    1.000
    O4       O        0.35530    0.41320    0.85850    1.000
    O5       O        0.29310    0.08490    0.25220    1.000
    O6       O        0.79550    0.02200    0.04450    1.000
    H3       H        0.80910    0.96640    0.09520    1.000
    H4       H        0.83000    0.11490    0.03350    1.000
    O7       O        0.85530    0.08680    0.64150    1.000
    O8       O        0.79310    0.41510    0.24780    1.000
    O9       O        0.29550    0.47800    0.45550    1.000
    H5       H        0.30910    0.53360    0.40480    1.000
    H6       H        0.33000    0.38510    0.46650    1.000
    O10      O        0.64470    0.91320    0.14150    1.000
    O11      O        0.70690    0.58490    0.74780    1.000
    O12      O        0.20450    0.52200    0.95550    1.000
    H7       H        0.19090    0.46640    0.90480    1.000
    H8       H        0.17000    0.61490    0.96650    1.000
    O13      O        0.85530    0.41320    0.64150    1.000
    O14      O        0.79310    0.08490    0.24780    1.000
    O15      O        0.29550    0.02200    0.45550    1.000
    H9       H        0.30910    0.96640    0.40480    1.000
    H10      H        0.33000    0.11490    0.46650    1.000
    O16      O        0.64470    0.58680    0.14150    1.000
    O17      O        0.70690    0.91510    0.74780    1.000
    O18      O        0.20450    0.97800    0.95550    1.000
    H11      H        0.19090    0.03360    0.90480    1.000
    H12      H        0.17000    0.88510    0.96650    1.000
    O19      O        0.14470    0.91320    0.35850    1.000
    O20      O        0.20690    0.58490    0.75220    1.000
    O21      O        0.70450    0.52200    0.54450    1.000
    H13      H        0.69090    0.46640    0.59520    1.000
    H14      H        0.67000    0.61490    0.53350    1.000
    O22      O        0.35530    0.08680    0.85850    1.000
    O23      O        0.29310    0.41510    0.25220    1.000
    O24      O        0.79550    0.47800    0.04450    1.000
    H15      H        0.80910    0.53360    0.09520    1.000
    H16      H        0.83000    0.38510    0.03350    1.000
    Ce1      Ce       0.80334    0.75000    0.62343    1.000
    O25      O        0.84970    0.75000    0.46220    1.000
    O26      O        0.94980    0.75000    0.34980    1.000
    O27      O        0.02730    0.75000    0.82860    1.000
    O28      O        0.89720    0.75000    0.75980    1.000
    N1       N        0.96660    0.75000    0.59480    1.000
    N2       N        0.14250    0.75000    0.56200    1.000
    C1       C        0.99710    0.75000    0.50700    1.000
    C2       C        0.08520    0.75000    0.49030    1.000
    C3       C        0.11130    0.75000    0.64810    1.000
    C4       C        0.02140    0.75000    0.66510    1.000
    C5       C        0.92730    0.75000    0.43070    1.000
    C6       C        0.12560    0.75000    0.39200    1.000
    C7       C        0.17800    0.75000    0.72250    1.000
    C8       C        0.97910    0.75000    0.75960    1.000
    Ce2      Ce       0.69666    0.25000    0.12343    1.000
    O29      O        0.65030    0.25000    0.96220    1.000
    O30      O        0.55020    0.25000    0.84980    1.000
    O31      O        0.47270    0.25000    0.32860    1.000
    O32      O        0.60280    0.25000    0.25980    1.000
    N3       N        0.53340    0.25000    0.09480    1.000
    N4       N        0.35750    0.25000    0.06200    1.000
    C9       C        0.50290    0.25000    0.00700    1.000
    C10      C        0.41480    0.25000    0.99030    1.000
    C11      C        0.38870    0.25000    0.14810    1.000
    C12      C        0.47860    0.25000    0.16510    1.000
    C13      C        0.57270    0.25000    0.93070    1.000
    C14      C        0.37440    0.25000    0.89200    1.000
    C15      C        0.32200    0.25000    0.22250    1.000
    C16      C        0.52090    0.25000    0.25960    1.000
    Ce3      Ce       0.19666    0.25000    0.37657    1.000
    O33      O        0.15030    0.25000    0.53780    1.000
    O34      O        0.05020    0.25000    0.65020    1.000
    O35      O        0.97270    0.25000    0.17140    1.000
    O36      O        0.10280    0.25000    0.24020    1.000
    N5       N        0.03340    0.25000    0.40520    1.000
    N6       N        0.85750    0.25000    0.43800    1.000
    C17      C        0.00290    0.25000    0.49300    1.000
    C18      C        0.91480    0.25000    0.50970    1.000
    C19      C        0.88870    0.25000    0.35190    1.000
    C20      C        0.97860    0.25000    0.33490    1.000
    C21      C        0.07270    0.25000    0.56930    1.000
    C22      C        0.87440    0.25000    0.60800    1.000
    C23      C        0.82200    0.25000    0.27750    1.000
    C24      C        0.02090    0.25000    0.24040    1.000
    Ce4      Ce       0.30334    0.75000    0.87657    1.000
    O37      O        0.34970    0.75000    0.03780    1.000
    O38      O        0.44980    0.75000    0.15020    1.000
    O39      O        0.52730    0.75000    0.67140    1.000
    O40      O        0.39720    0.75000    0.74020    1.000
    N7       N        0.46660    0.75000    0.90520    1.000
    N8       N        0.64250    0.75000    0.93800    1.000
    C25      C        0.49710    0.75000    0.99300    1.000
    C26      C        0.58520    0.75000    0.00970    1.000
    C27      C        0.61130    0.75000    0.85190    1.000
    C28      C        0.52140    0.75000    0.83490    1.000
    C29      C        0.42730    0.75000    0.06930    1.000
    C30      C        0.62560    0.75000    0.10800    1.000
    C31      C        0.67800    0.75000    0.77750    1.000
    C32      C        0.47910    0.75000    0.74040    1.000
    Na1      Na       0.25860    0.25000    0.69090    1.000
    Na2      Na       0.24140    0.75000    0.19090    1.000
    Na3      Na       0.74140    0.75000    0.30910    1.000
    Na4      Na       0.75860    0.25000    0.80910    1.000
