data_functionalizedCrystal
_audit_creation_method	'EQeq! by Chris Wilmer'
_symmetry_space_group_name_H-M	'P1'
_symmetry_Int_Tables_number	1
_symmetry_cell_setting	triclinic
loop_
_symmetry_equiv_pos_as_xyz
  x,y,z
_cell_length_a	60.91
_cell_length_b	60.91
_cell_length_c	60.91
_cell_angle_alpha	90
_cell_angle_beta	90
_cell_angle_gamma	90
loop_
_atom_site_label
_atom_site_type_symbol
_atom_site_fract_x
_atom_site_fract_y
_atom_site_fract_z
_atom_site_charge
Mof_O 	O 	0.01716	0.74529	0.22161	-0.412
Mof_O 	O 	0.02485	0.71933	0.25032	-0.359
Mof_C 	C 	0.02813	0.7301	0.23223	0.273
Mof_C 	C 	0.04703	0.71661	0.21935	-0.04
Mof_C 	C 	0.05543	0.72485	0.1998	0.002
Mof_H 	H 	0.0493	0.7374	0.1935	0.045
Mof_C 	C 	0.07294	0.71437	0.18958	-0.097
Mof_H 	H 	0.0786	0.7199	0.1765	0.066
Mof_C 	C 	0.08205	0.69564	0.19892	0.059
Mof_C 	C 	0.07365	0.6874	0.21847	-0.098
Mof_H 	H 	0.0797	0.6749	0.2247	0.068
Mof_C 	C 	0.05614	0.69788	0.22869	0.004
Mof_H 	H 	0.0505	0.6924	0.2418	0.051
Mof_C 	C 	0.10055	0.68335	0.18791	-0.033
Mof_C 	C 	0.11512	0.69676	0.17656	0.003
Mof_H 	H 	0.1132	0.7119	0.1766	0.03
Mof_C 	C 	0.13254	0.68752	0.16507	-0.13
Mof_H 	H 	0.1423	0.6965	0.1575	0.082
Mof_C 	C 	0.1354	0.66488	0.16495	0.119
Mof_C 	C 	0.12083	0.65148	0.1763	-0.13
Mof_H 	H 	0.1227	0.6363	0.1762	0.081
Mof_C 	C 	0.10341	0.66071	0.18779	0.003
Mof_H 	H 	0.0937	0.6517	0.1954	0.031
Mof_O 	O 	0.01716	0.24529	0.72161	-0.412
Mof_O 	O 	0.02485	0.21933	0.75032	-0.359
Mof_C 	C 	0.02813	0.2301	0.73223	0.273
Mof_C 	C 	0.04703	0.21661	0.71935	-0.04
Mof_C 	C 	0.05543	0.22485	0.6998	0.002
Mof_H 	H 	0.0493	0.2374	0.6935	0.045
Mof_C 	C 	0.07294	0.21437	0.68958	-0.097
Mof_H 	H 	0.0786	0.2199	0.6765	0.066
Mof_C 	C 	0.08205	0.19564	0.69892	0.059
Mof_C 	C 	0.07365	0.1874	0.71847	-0.098
Mof_H 	H 	0.0797	0.1749	0.7247	0.068
Mof_C 	C 	0.05614	0.19788	0.72869	0.004
Mof_H 	H 	0.0505	0.1924	0.7418	0.051
Mof_C 	C 	0.10055	0.18335	0.68791	-0.033
Mof_C 	C 	0.11512	0.19676	0.67656	0.003
Mof_H 	H 	0.1132	0.2119	0.6766	0.03
Mof_C 	C 	0.13254	0.18752	0.66507	-0.13
Mof_H 	H 	0.1423	0.1965	0.6575	0.082
Mof_C 	C 	0.1354	0.16488	0.66495	0.119
Mof_C 	C 	0.12083	0.15148	0.6763	-0.13
Mof_H 	H 	0.1227	0.1363	0.6762	0.081
Mof_C 	C 	0.10341	0.16071	0.68779	0.003
Mof_H 	H 	0.0937	0.1517	0.6954	0.031
Mof_O 	O 	0.51716	0.74529	0.72161	-0.412
Mof_O 	O 	0.52485	0.71933	0.75032	-0.359
Mof_C 	C 	0.52813	0.7301	0.73223	0.272
Mof_C 	C 	0.54703	0.71661	0.71935	-0.041
Mof_C 	C 	0.55543	0.72485	0.6998	0.001
Mof_H 	H 	0.5493	0.7374	0.6935	0.044
Mof_C 	C 	0.57294	0.71437	0.68958	-0.098
Mof_H 	H 	0.5786	0.7199	0.6765	0.065
Mof_C 	C 	0.58205	0.69564	0.69892	0.058
Mof_C 	C 	0.57365	0.6874	0.71847	-0.099
Mof_H 	H 	0.5797	0.6749	0.7247	0.067
Mof_C 	C 	0.55614	0.69788	0.72869	0.003
Mof_H 	H 	0.5505	0.6924	0.7418	0.05
Mof_C 	C 	0.60055	0.68335	0.68791	-0.034
Mof_C 	C 	0.61512	0.69676	0.67656	0.002
Mof_H 	H 	0.6132	0.7119	0.6766	0.029
Mof_C 	C 	0.63254	0.68752	0.66507	-0.131
Mof_H 	H 	0.6423	0.6965	0.6575	0.081
Mof_C 	C 	0.6354	0.66488	0.66495	0.118
Mof_C 	C 	0.62083	0.65148	0.6763	-0.131
Mof_H 	H 	0.6227	0.6363	0.6762	0.08
Mof_C 	C 	0.60341	0.66071	0.68779	0.002
Mof_H 	H 	0.5937	0.6517	0.6954	0.03
Mof_O 	O 	0.51716	0.24529	0.22161	-0.413
Mof_O 	O 	0.52485	0.21933	0.25032	-0.36
Mof_C 	C 	0.52813	0.2301	0.23223	0.272
Mof_C 	C 	0.54703	0.21661	0.21935	-0.041
Mof_C 	C 	0.55543	0.22485	0.1998	0.001
Mof_H 	H 	0.5493	0.2374	0.1935	0.044
Mof_C 	C 	0.57294	0.21437	0.18958	-0.098
Mof_H 	H 	0.5786	0.2199	0.1765	0.065
Mof_C 	C 	0.58205	0.19564	0.19892	0.058
Mof_C 	C 	0.57365	0.1874	0.21847	-0.099
Mof_H 	H 	0.5797	0.1749	0.2247	0.067
Mof_C 	C 	0.55614	0.19788	0.22869	0.003
Mof_H 	H 	0.5505	0.1924	0.2418	0.05
Mof_C 	C 	0.60055	0.18335	0.18791	-0.034
Mof_C 	C 	0.61512	0.19676	0.17656	0.002
Mof_H 	H 	0.6132	0.2119	0.1766	0.029
Mof_C 	C 	0.63254	0.18752	0.16507	-0.131
Mof_H 	H 	0.6423	0.1965	0.1575	0.081
Mof_C 	C 	0.6354	0.16488	0.16495	0.118
Mof_C 	C 	0.62083	0.15148	0.1763	-0.131
Mof_H 	H 	0.6227	0.1363	0.1762	0.08
Mof_C 	C 	0.60341	0.16071	0.18779	0.002
Mof_H 	H 	0.5937	0.1517	0.1954	0.03
Mof_O 	O 	0.98284	0.25471	0.22161	-0.413
Mof_O 	O 	0.97515	0.28067	0.25032	-0.36
Mof_C 	C 	0.97187	0.2699	0.23223	0.272
Mof_C 	C 	0.95297	0.28339	0.21935	-0.041
Mof_C 	C 	0.94457	0.27515	0.1998	0.001
Mof_H 	H 	0.9507	0.2626	0.1935	0.044
Mof_C 	C 	0.92706	0.28563	0.18958	-0.098
Mof_H 	H 	0.9214	0.2801	0.1765	0.065
Mof_C 	C 	0.91795	0.30436	0.19892	0.058
Mof_C 	C 	0.92635	0.3126	0.21847	-0.099
Mof_H 	H 	0.9203	0.3251	0.2247	0.067
Mof_C 	C 	0.94386	0.30212	0.22869	0.003
Mof_H 	H 	0.9495	0.3076	0.2418	0.05
Mof_C 	C 	0.89945	0.31665	0.18791	-0.034
Mof_C 	C 	0.88488	0.30324	0.17656	0.002
Mof_H 	H 	0.8868	0.2881	0.1766	0.029
Mof_C 	C 	0.86746	0.31248	0.16507	-0.131
Mof_H 	H 	0.8577	0.3035	0.1575	0.081
Mof_C 	C 	0.8646	0.33512	0.16495	0.118
Mof_C 	C 	0.87917	0.34852	0.1763	-0.131
Mof_H 	H 	0.8773	0.3637	0.1762	0.08
Mof_C 	C 	0.89659	0.33929	0.18779	0.002
Mof_H 	H 	0.9063	0.3483	0.1954	0.03
Mof_O 	O 	0.98284	0.75471	0.72161	-0.413
Mof_O 	O 	0.97515	0.78067	0.75032	-0.36
Mof_C 	C 	0.97187	0.7699	0.73223	0.272
Mof_C 	C 	0.95297	0.78339	0.71935	-0.041
Mof_C 	C 	0.94457	0.77515	0.6998	0.001
Mof_H 	H 	0.9507	0.7626	0.6935	0.044
Mof_C 	C 	0.92706	0.78563	0.68958	-0.098
Mof_H 	H 	0.9214	0.7801	0.6765	0.065
Mof_C 	C 	0.91795	0.80436	0.69892	0.058
Mof_C 	C 	0.92635	0.8126	0.71847	-0.099
Mof_H 	H 	0.9203	0.8251	0.7247	0.067
Mof_C 	C 	0.94386	0.80212	0.72869	0.003
Mof_H 	H 	0.9495	0.8076	0.7418	0.05
Mof_C 	C 	0.89945	0.81665	0.68791	-0.034
Mof_C 	C 	0.88488	0.80324	0.67656	0.002
Mof_H 	H 	0.8868	0.7881	0.6766	0.029
Mof_C 	C 	0.86746	0.81248	0.66507	-0.131
Mof_H 	H 	0.8577	0.8035	0.6575	0.081
Mof_C 	C 	0.8646	0.83512	0.66495	0.118
Mof_C 	C 	0.87917	0.84852	0.6763	-0.131
Mof_H 	H 	0.8773	0.8637	0.6762	0.08
Mof_C 	C 	0.89659	0.83929	0.68779	0.002
Mof_H 	H 	0.9063	0.8483	0.6954	0.03
Mof_O 	O 	0.48284	0.25471	0.72161	-0.413
Mof_O 	O 	0.47515	0.28067	0.75032	-0.36
Mof_C 	C 	0.47187	0.2699	0.73223	0.272
Mof_C 	C 	0.45297	0.28339	0.71935	-0.041
Mof_C 	C 	0.44457	0.27515	0.6998	0.001
Mof_H 	H 	0.4507	0.2626	0.6935	0.044
Mof_C 	C 	0.42706	0.28563	0.68958	-0.098
Mof_H 	H 	0.4214	0.2801	0.6765	0.065
Mof_C 	C 	0.41795	0.30436	0.69892	0.058
Mof_C 	C 	0.42635	0.3126	0.71847	-0.099
Mof_H 	H 	0.4203	0.3251	0.7247	0.067
Mof_C 	C 	0.44386	0.30212	0.72869	0.003
Mof_H 	H 	0.4495	0.3076	0.7418	0.05
Mof_C 	C 	0.39945	0.31665	0.68791	-0.034
Mof_C 	C 	0.38488	0.30324	0.67656	0.002
Mof_H 	H 	0.3868	0.2881	0.6766	0.029
Mof_C 	C 	0.36746	0.31248	0.66507	-0.131
Mof_H 	H 	0.3577	0.3035	0.6575	0.081
Mof_C 	C 	0.3646	0.33512	0.66495	0.118
Mof_C 	C 	0.37917	0.34852	0.6763	-0.131
Mof_H 	H 	0.3773	0.3637	0.6762	0.08
Mof_C 	C 	0.39659	0.33929	0.68779	0.002
Mof_H 	H 	0.4063	0.3483	0.6954	0.03
Mof_O 	O 	0.48284	0.75471	0.22161	-0.413
Mof_O 	O 	0.47515	0.78067	0.25032	-0.36
Mof_C 	C 	0.47187	0.7699	0.23223	0.272
Mof_C 	C 	0.45297	0.78339	0.21935	-0.041
Mof_C 	C 	0.44457	0.77515	0.1998	0.001
Mof_H 	H 	0.4507	0.7626	0.1935	0.044
Mof_C 	C 	0.42706	0.78563	0.18958	-0.098
Mof_H 	H 	0.4214	0.7801	0.1765	0.065
Mof_C 	C 	0.41795	0.80436	0.19892	0.058
Mof_C 	C 	0.42635	0.8126	0.21847	-0.099
Mof_H 	H 	0.4203	0.8251	0.2247	0.067
Mof_C 	C 	0.44386	0.80212	0.22869	0.003
Mof_H 	H 	0.4495	0.8076	0.2418	0.05
Mof_C 	C 	0.39945	0.81665	0.18791	-0.034
Mof_C 	C 	0.38488	0.80324	0.17656	0.002
Mof_H 	H 	0.3868	0.7881	0.1766	0.029
Mof_C 	C 	0.36746	0.81248	0.16507	-0.131
Mof_H 	H 	0.3577	0.8035	0.1575	0.081
Mof_C 	C 	0.3646	0.83512	0.16495	0.118
Mof_C 	C 	0.37917	0.84852	0.1763	-0.131
Mof_H 	H 	0.3773	0.8637	0.1762	0.08
Mof_C 	C 	0.39659	0.83929	0.18779	0.002
Mof_H 	H 	0.4063	0.8483	0.1954	0.03
Mof_O 	O 	0.98284	0.74529	0.77839	-0.413
Mof_O 	O 	0.97515	0.71933	0.74968	-0.36
Mof_C 	C 	0.97187	0.7301	0.76777	0.272
Mof_C 	C 	0.95297	0.71661	0.78065	-0.041
Mof_C 	C 	0.94457	0.72485	0.8002	0.001
Mof_H 	H 	0.9507	0.7374	0.8065	0.044
Mof_C 	C 	0.92706	0.71437	0.81042	-0.098
Mof_H 	H 	0.9214	0.7199	0.8235	0.065
Mof_C 	C 	0.91795	0.69564	0.80108	0.058
Mof_C 	C 	0.92635	0.6874	0.78153	-0.099
Mof_H 	H 	0.9203	0.6749	0.7753	0.067
Mof_C 	C 	0.94386	0.69788	0.77131	0.003
Mof_H 	H 	0.9495	0.6924	0.7582	0.05
Mof_C 	C 	0.89945	0.68335	0.81209	-0.034
Mof_C 	C 	0.88488	0.69676	0.82344	0.002
Mof_H 	H 	0.8868	0.7119	0.8234	0.029
Mof_C 	C 	0.86746	0.68752	0.83493	-0.131
Mof_H 	H 	0.8577	0.6965	0.8425	0.081
Mof_C 	C 	0.8646	0.66488	0.83505	0.118
Mof_C 	C 	0.87917	0.65148	0.8237	-0.131
Mof_H 	H 	0.8773	0.6363	0.8238	0.08
Mof_C 	C 	0.89659	0.66071	0.81221	0.002
Mof_H 	H 	0.9063	0.6517	0.8046	0.03
Mof_O 	O 	0.98284	0.24529	0.27839	-0.413
Mof_O 	O 	0.97515	0.21933	0.24968	-0.36
Mof_C 	C 	0.97187	0.2301	0.26777	0.272
Mof_C 	C 	0.95297	0.21661	0.28065	-0.041
Mof_C 	C 	0.94457	0.22485	0.3002	0.001
Mof_H 	H 	0.9507	0.2374	0.3065	0.044
Mof_C 	C 	0.92706	0.21437	0.31042	-0.098
Mof_H 	H 	0.9214	0.2199	0.3235	0.065
Mof_C 	C 	0.91795	0.19564	0.30108	0.058
Mof_C 	C 	0.92635	0.1874	0.28153	-0.099
Mof_H 	H 	0.9203	0.1749	0.2753	0.067
Mof_C 	C 	0.94386	0.19788	0.27131	0.003
Mof_H 	H 	0.9495	0.1924	0.2582	0.05
Mof_C 	C 	0.89945	0.18335	0.31209	-0.034
Mof_C 	C 	0.88488	0.19676	0.32344	0.002
Mof_H 	H 	0.8868	0.2119	0.3234	0.029
Mof_C 	C 	0.86746	0.18752	0.33493	-0.131
Mof_H 	H 	0.8577	0.1965	0.3425	0.081
Mof_C 	C 	0.8646	0.16488	0.33505	0.118
Mof_C 	C 	0.87917	0.15148	0.3237	-0.131
Mof_H 	H 	0.8773	0.1363	0.3238	0.08
Mof_C 	C 	0.89659	0.16071	0.31221	0.002
Mof_H 	H 	0.9063	0.1517	0.3046	0.03
Mof_O 	O 	0.48284	0.74529	0.27839	-0.413
Mof_O 	O 	0.47515	0.71933	0.24968	-0.36
Mof_C 	C 	0.47187	0.7301	0.26777	0.272
Mof_C 	C 	0.45297	0.71661	0.28065	-0.041
Mof_C 	C 	0.44457	0.72485	0.3002	0.001
Mof_H 	H 	0.4507	0.7374	0.3065	0.044
Mof_C 	C 	0.42706	0.71437	0.31042	-0.098
Mof_H 	H 	0.4214	0.7199	0.3235	0.065
Mof_C 	C 	0.41795	0.69564	0.30108	0.058
Mof_C 	C 	0.42635	0.6874	0.28153	-0.099
Mof_H 	H 	0.4203	0.6749	0.2753	0.067
Mof_C 	C 	0.44386	0.69788	0.27131	0.003
Mof_H 	H 	0.4495	0.6924	0.2582	0.05
Mof_C 	C 	0.39945	0.68335	0.31209	-0.034
Mof_C 	C 	0.38488	0.69676	0.32344	0.002
Mof_H 	H 	0.3868	0.7119	0.3234	0.029
Mof_C 	C 	0.36746	0.68752	0.33493	-0.131
Mof_H 	H 	0.3577	0.6965	0.3425	0.081
Mof_C 	C 	0.3646	0.66488	0.33505	0.118
Mof_C 	C 	0.37917	0.65148	0.3237	-0.131
Mof_H 	H 	0.3773	0.6363	0.3238	0.08
Mof_C 	C 	0.39659	0.66071	0.31221	0.002
Mof_H 	H 	0.4063	0.6517	0.3046	0.03
Mof_O 	O 	0.48284	0.24529	0.77839	-0.413
Mof_O 	O 	0.47515	0.21933	0.74968	-0.36
Mof_C 	C 	0.47187	0.2301	0.76777	0.272
Mof_C 	C 	0.45297	0.21661	0.78065	-0.041
Mof_C 	C 	0.44457	0.22485	0.8002	0.001
Mof_H 	H 	0.4507	0.2374	0.8065	0.044
Mof_C 	C 	0.42706	0.21437	0.81042	-0.098
Mof_H 	H 	0.4214	0.2199	0.8235	0.065
Mof_C 	C 	0.41795	0.19564	0.80108	0.058
Mof_C 	C 	0.42635	0.1874	0.78153	-0.099
Mof_H 	H 	0.4203	0.1749	0.7753	0.067
Mof_C 	C 	0.44386	0.19788	0.77131	0.003
Mof_H 	H 	0.4495	0.1924	0.7582	0.05
Mof_C 	C 	0.39945	0.18335	0.81209	-0.034
Mof_C 	C 	0.38488	0.19676	0.82344	0.002
Mof_H 	H 	0.3868	0.2119	0.8234	0.029
Mof_C 	C 	0.36746	0.18752	0.83493	-0.131
Mof_H 	H 	0.3577	0.1965	0.8425	0.081
Mof_C 	C 	0.3646	0.16488	0.83505	0.118
Mof_C 	C 	0.37917	0.15148	0.8237	-0.131
Mof_H 	H 	0.3773	0.1363	0.8238	0.08
Mof_C 	C 	0.39659	0.16071	0.81221	0.002
Mof_H 	H 	0.4063	0.1517	0.8046	0.03
Mof_O 	O 	0.01716	0.25471	0.77839	-0.413
Mof_O 	O 	0.02485	0.28067	0.74968	-0.36
Mof_C 	C 	0.02813	0.2699	0.76777	0.272
Mof_C 	C 	0.04703	0.28339	0.78065	-0.041
Mof_C 	C 	0.05543	0.27515	0.8002	0.001
Mof_H 	H 	0.0493	0.2626	0.8065	0.044
Mof_C 	C 	0.07294	0.28563	0.81042	-0.098
Mof_H 	H 	0.0786	0.2801	0.8235	0.065
Mof_C 	C 	0.08205	0.30436	0.80108	0.058
Mof_C 	C 	0.07365	0.3126	0.78153	-0.099
Mof_H 	H 	0.0797	0.3251	0.7753	0.067
Mof_C 	C 	0.05614	0.30212	0.77131	0.003
Mof_H 	H 	0.0505	0.3076	0.7582	0.05
Mof_C 	C 	0.10055	0.31665	0.81209	-0.034
Mof_C 	C 	0.11512	0.30324	0.82344	0.002
Mof_H 	H 	0.1132	0.2881	0.8234	0.029
Mof_C 	C 	0.13254	0.31248	0.83493	-0.131
Mof_H 	H 	0.1423	0.3035	0.8425	0.081
Mof_C 	C 	0.1354	0.33512	0.83505	0.118
Mof_C 	C 	0.12083	0.34852	0.8237	-0.131
Mof_H 	H 	0.1227	0.3637	0.8238	0.08
Mof_C 	C 	0.10341	0.33929	0.81221	0.002
Mof_H 	H 	0.0937	0.3483	0.8046	0.03
Mof_O 	O 	0.01716	0.75471	0.27839	-0.413
Mof_O 	O 	0.02485	0.78067	0.24968	-0.36
Mof_C 	C 	0.02813	0.7699	0.26777	0.272
Mof_C 	C 	0.04703	0.78339	0.28065	-0.041
Mof_C 	C 	0.05543	0.77515	0.3002	0.001
Mof_H 	H 	0.0493	0.7626	0.3065	0.044
Mof_C 	C 	0.07294	0.78563	0.31042	-0.098
Mof_H 	H 	0.0786	0.7801	0.3235	0.065
Mof_C 	C 	0.08205	0.80436	0.30108	0.058
Mof_C 	C 	0.07365	0.8126	0.28153	-0.099
Mof_H 	H 	0.0797	0.8251	0.2753	0.067
Mof_C 	C 	0.05614	0.80212	0.27131	0.003
Mof_H 	H 	0.0505	0.8076	0.2582	0.05
Mof_C 	C 	0.10055	0.81665	0.31209	-0.034
Mof_C 	C 	0.11512	0.80324	0.32344	0.002
Mof_H 	H 	0.1132	0.7881	0.3234	0.029
Mof_C 	C 	0.13254	0.81248	0.33493	-0.131
Mof_H 	H 	0.1423	0.8035	0.3425	0.081
Mof_C 	C 	0.1354	0.83512	0.33505	0.118
Mof_C 	C 	0.12083	0.84852	0.3237	-0.131
Mof_H 	H 	0.1227	0.8637	0.3238	0.08
Mof_C 	C 	0.10341	0.83929	0.31221	0.002
Mof_H 	H 	0.0937	0.8483	0.3046	0.03
Mof_O 	O 	0.51716	0.25471	0.27839	-0.413
Mof_O 	O 	0.52485	0.28067	0.24968	-0.36
Mof_C 	C 	0.52813	0.2699	0.26777	0.272
Mof_C 	C 	0.54703	0.28339	0.28065	-0.041
Mof_C 	C 	0.55543	0.27515	0.3002	0.001
Mof_H 	H 	0.5493	0.2626	0.3065	0.044
Mof_C 	C 	0.57294	0.28563	0.31042	-0.098
Mof_H 	H 	0.5786	0.2801	0.3235	0.065
Mof_C 	C 	0.58205	0.30436	0.30108	0.058
Mof_C 	C 	0.57365	0.3126	0.28153	-0.099
Mof_H 	H 	0.5797	0.3251	0.2753	0.067
Mof_C 	C 	0.55614	0.30212	0.27131	0.003
Mof_H 	H 	0.5505	0.3076	0.2582	0.05
Mof_C 	C 	0.60055	0.31665	0.31209	-0.034
Mof_C 	C 	0.61512	0.30324	0.32344	0.002
Mof_H 	H 	0.6132	0.2881	0.3234	0.029
Mof_C 	C 	0.63254	0.31248	0.33493	-0.131
Mof_H 	H 	0.6423	0.3035	0.3425	0.081
Mof_C 	C 	0.6354	0.33512	0.33505	0.118
Mof_C 	C 	0.62083	0.34852	0.3237	-0.131
Mof_H 	H 	0.6227	0.3637	0.3238	0.08
Mof_C 	C 	0.60341	0.33929	0.31221	0.002
Mof_H 	H 	0.5937	0.3483	0.3046	0.03
Mof_O 	O 	0.51716	0.75471	0.77839	-0.413
Mof_O 	O 	0.52485	0.78067	0.74968	-0.36
Mof_C 	C 	0.52813	0.7699	0.76777	0.272
Mof_C 	C 	0.54703	0.78339	0.78065	-0.041
Mof_C 	C 	0.55543	0.77515	0.8002	0.001
Mof_H 	H 	0.5493	0.7626	0.8065	0.044
Mof_C 	C 	0.57294	0.78563	0.81042	-0.098
Mof_H 	H 	0.5786	0.7801	0.8235	0.065
Mof_C 	C 	0.58205	0.80436	0.80108	0.058
Mof_C 	C 	0.57365	0.8126	0.78153	-0.099
Mof_H 	H 	0.5797	0.8251	0.7753	0.067
Mof_C 	C 	0.55614	0.80212	0.77131	0.003
Mof_H 	H 	0.5505	0.8076	0.7582	0.05
Mof_C 	C 	0.60055	0.81665	0.81209	-0.034
Mof_C 	C 	0.61512	0.80324	0.82344	0.002
Mof_H 	H 	0.6132	0.7881	0.8234	0.029
Mof_C 	C 	0.63254	0.81248	0.83493	-0.131
Mof_H 	H 	0.6423	0.8035	0.8425	0.081
Mof_C 	C 	0.6354	0.83512	0.83505	0.118
Mof_C 	C 	0.62083	0.84852	0.8237	-0.131
Mof_H 	H 	0.6227	0.8637	0.8238	0.08
Mof_C 	C 	0.60341	0.83929	0.81221	0.002
Mof_H 	H 	0.5937	0.8483	0.8046	0.03
Mof_O 	O 	0.22161	0.01716	0.74529	-0.413
Mof_O 	O 	0.25032	0.02485	0.71933	-0.36
Mof_C 	C 	0.23223	0.02813	0.7301	0.272
Mof_C 	C 	0.21935	0.04703	0.71661	-0.041
Mof_C 	C 	0.1998	0.05543	0.72485	0.001
Mof_H 	H 	0.1935	0.0493	0.7374	0.044
Mof_C 	C 	0.18958	0.07294	0.71437	-0.098
Mof_H 	H 	0.1765	0.0786	0.7199	0.065
Mof_C 	C 	0.19892	0.08205	0.69564	0.058
Mof_C 	C 	0.21847	0.07365	0.6874	-0.099
Mof_H 	H 	0.2247	0.0797	0.6749	0.067
Mof_C 	C 	0.22869	0.05614	0.69788	0.003
Mof_H 	H 	0.2418	0.0505	0.6924	0.05
Mof_C 	C 	0.18791	0.10055	0.68335	-0.034
Mof_C 	C 	0.17656	0.11512	0.69676	0.002
Mof_H 	H 	0.1766	0.1132	0.7119	0.029
Mof_C 	C 	0.16507	0.13254	0.68752	-0.131
Mof_H 	H 	0.1575	0.1423	0.6965	0.081
Mof_C 	C 	0.16495	0.1354	0.66488	0.118
Mof_C 	C 	0.1763	0.12083	0.65148	-0.131
Mof_H 	H 	0.1762	0.1227	0.6363	0.08
Mof_C 	C 	0.18779	0.10341	0.66071	0.002
Mof_H 	H 	0.1954	0.0937	0.6517	0.03
Mof_O 	O 	0.22161	0.51716	0.24529	-0.413
Mof_O 	O 	0.25032	0.52485	0.21933	-0.36
Mof_C 	C 	0.23223	0.52813	0.2301	0.272
Mof_C 	C 	0.21935	0.54703	0.21661	-0.041
Mof_C 	C 	0.1998	0.55543	0.22485	0.001
Mof_H 	H 	0.1935	0.5493	0.2374	0.044
Mof_C 	C 	0.18958	0.57294	0.21437	-0.098
Mof_H 	H 	0.1765	0.5786	0.2199	0.065
Mof_C 	C 	0.19892	0.58205	0.19564	0.058
Mof_C 	C 	0.21847	0.57365	0.1874	-0.099
Mof_H 	H 	0.2247	0.5797	0.1749	0.067
Mof_C 	C 	0.22869	0.55614	0.19788	0.003
Mof_H 	H 	0.2418	0.5505	0.1924	0.05
Mof_C 	C 	0.18791	0.60055	0.18335	-0.034
Mof_C 	C 	0.17656	0.61512	0.19676	0.002
Mof_H 	H 	0.1766	0.6132	0.2119	0.029
Mof_C 	C 	0.16507	0.63254	0.18752	-0.131
Mof_H 	H 	0.1575	0.6423	0.1965	0.081
Mof_C 	C 	0.16495	0.6354	0.16488	0.118
Mof_C 	C 	0.1763	0.62083	0.15148	-0.131
Mof_H 	H 	0.1762	0.6227	0.1363	0.08
Mof_C 	C 	0.18779	0.60341	0.16071	0.002
Mof_H 	H 	0.1954	0.5937	0.1517	0.03
Mof_O 	O 	0.72161	0.01716	0.24529	-0.413
Mof_O 	O 	0.75032	0.02485	0.21933	-0.36
Mof_C 	C 	0.73223	0.02813	0.2301	0.272
Mof_C 	C 	0.71935	0.04703	0.21661	-0.041
Mof_C 	C 	0.6998	0.05543	0.22485	0.001
Mof_H 	H 	0.6935	0.0493	0.2374	0.044
Mof_C 	C 	0.68958	0.07294	0.21437	-0.098
Mof_H 	H 	0.6765	0.0786	0.2199	0.065
Mof_C 	C 	0.69892	0.08205	0.19564	0.058
Mof_C 	C 	0.71847	0.07365	0.1874	-0.099
Mof_H 	H 	0.7247	0.0797	0.1749	0.067
Mof_C 	C 	0.72869	0.05614	0.19788	0.003
Mof_H 	H 	0.7418	0.0505	0.1924	0.05
Mof_C 	C 	0.68791	0.10055	0.18335	-0.034
Mof_C 	C 	0.67656	0.11512	0.19676	0.002
Mof_H 	H 	0.6766	0.1132	0.2119	0.029
Mof_C 	C 	0.66507	0.13254	0.18752	-0.131
Mof_H 	H 	0.6575	0.1423	0.1965	0.081
Mof_C 	C 	0.66495	0.1354	0.16488	0.118
Mof_C 	C 	0.6763	0.12083	0.15148	-0.131
Mof_H 	H 	0.6762	0.1227	0.1363	0.08
Mof_C 	C 	0.68779	0.10341	0.16071	0.002
Mof_H 	H 	0.6954	0.0937	0.1517	0.03
Mof_O 	O 	0.72161	0.51716	0.74529	-0.413
Mof_O 	O 	0.75032	0.52485	0.71933	-0.36
Mof_C 	C 	0.73223	0.52813	0.7301	0.272
Mof_C 	C 	0.71935	0.54703	0.71661	-0.041
Mof_C 	C 	0.6998	0.55543	0.72485	0.001
Mof_H 	H 	0.6935	0.5493	0.7374	0.044
Mof_C 	C 	0.68958	0.57294	0.71437	-0.098
Mof_H 	H 	0.6765	0.5786	0.7199	0.065
Mof_C 	C 	0.69892	0.58205	0.69564	0.058
Mof_C 	C 	0.71847	0.57365	0.6874	-0.099
Mof_H 	H 	0.7247	0.5797	0.6749	0.067
Mof_C 	C 	0.72869	0.55614	0.69788	0.003
Mof_H 	H 	0.7418	0.5505	0.6924	0.05
Mof_C 	C 	0.68791	0.60055	0.68335	-0.034
Mof_C 	C 	0.67656	0.61512	0.69676	0.002
Mof_H 	H 	0.6766	0.6132	0.7119	0.029
Mof_C 	C 	0.66507	0.63254	0.68752	-0.131
Mof_H 	H 	0.6575	0.6423	0.6965	0.081
Mof_C 	C 	0.66495	0.6354	0.66488	0.118
Mof_C 	C 	0.6763	0.62083	0.65148	-0.131
Mof_H 	H 	0.6762	0.6227	0.6363	0.08
Mof_C 	C 	0.68779	0.60341	0.66071	0.002
Mof_H 	H 	0.6954	0.5937	0.6517	0.03
Mof_O 	O 	0.22161	0.98284	0.25471	-0.413
Mof_O 	O 	0.25032	0.97515	0.28067	-0.36
Mof_C 	C 	0.23223	0.97187	0.2699	0.272
Mof_C 	C 	0.21935	0.95297	0.28339	-0.041
Mof_C 	C 	0.1998	0.94457	0.27515	0.001
Mof_H 	H 	0.1935	0.9507	0.2626	0.044
Mof_C 	C 	0.18958	0.92706	0.28563	-0.098
Mof_H 	H 	0.1765	0.9214	0.2801	0.065
Mof_C 	C 	0.19892	0.91795	0.30436	0.058
Mof_C 	C 	0.21847	0.92635	0.3126	-0.099
Mof_H 	H 	0.2247	0.9203	0.3251	0.067
Mof_C 	C 	0.22869	0.94386	0.30212	0.003
Mof_H 	H 	0.2418	0.9495	0.3076	0.05
Mof_C 	C 	0.18791	0.89945	0.31665	-0.034
Mof_C 	C 	0.17656	0.88488	0.30324	0.002
Mof_H 	H 	0.1766	0.8868	0.2881	0.029
Mof_C 	C 	0.16507	0.86746	0.31248	-0.131
Mof_H 	H 	0.1575	0.8577	0.3035	0.081
Mof_C 	C 	0.16495	0.8646	0.33512	0.118
Mof_C 	C 	0.1763	0.87917	0.34852	-0.131
Mof_H 	H 	0.1762	0.8773	0.3637	0.08
Mof_C 	C 	0.18779	0.89659	0.33929	0.002
Mof_H 	H 	0.1954	0.9063	0.3483	0.03
Mof_O 	O 	0.22161	0.48284	0.75471	-0.413
Mof_O 	O 	0.25032	0.47515	0.78067	-0.36
Mof_C 	C 	0.23223	0.47187	0.7699	0.272
Mof_C 	C 	0.21935	0.45297	0.78339	-0.041
Mof_C 	C 	0.1998	0.44457	0.77515	0.001
Mof_H 	H 	0.1935	0.4507	0.7626	0.044
Mof_C 	C 	0.18958	0.42706	0.78563	-0.098
Mof_H 	H 	0.1765	0.4214	0.7801	0.065
Mof_C 	C 	0.19892	0.41795	0.80436	0.058
Mof_C 	C 	0.21847	0.42635	0.8126	-0.099
Mof_H 	H 	0.2247	0.4203	0.8251	0.067
Mof_C 	C 	0.22869	0.44386	0.80212	0.003
Mof_H 	H 	0.2418	0.4495	0.8076	0.05
Mof_C 	C 	0.18791	0.39945	0.81665	-0.034
Mof_C 	C 	0.17656	0.38488	0.80324	0.002
Mof_H 	H 	0.1766	0.3868	0.7881	0.029
Mof_C 	C 	0.16507	0.36746	0.81248	-0.131
Mof_H 	H 	0.1575	0.3577	0.8035	0.081
Mof_C 	C 	0.16495	0.3646	0.83512	0.118
Mof_C 	C 	0.1763	0.37917	0.84852	-0.131
Mof_H 	H 	0.1762	0.3773	0.8637	0.08
Mof_C 	C 	0.18779	0.39659	0.83929	0.002
Mof_H 	H 	0.1954	0.4063	0.8483	0.03
Mof_O 	O 	0.72161	0.98284	0.75471	-0.413
Mof_O 	O 	0.75032	0.97515	0.78067	-0.36
Mof_C 	C 	0.73223	0.97187	0.7699	0.272
Mof_C 	C 	0.71935	0.95297	0.78339	-0.041
Mof_C 	C 	0.6998	0.94457	0.77515	0.001
Mof_H 	H 	0.6935	0.9507	0.7626	0.044
Mof_C 	C 	0.68958	0.92706	0.78563	-0.098
Mof_H 	H 	0.6765	0.9214	0.7801	0.065
Mof_C 	C 	0.69892	0.91795	0.80436	0.058
Mof_C 	C 	0.71847	0.92635	0.8126	-0.099
Mof_H 	H 	0.7247	0.9203	0.8251	0.067
Mof_C 	C 	0.72869	0.94386	0.80212	0.003
Mof_H 	H 	0.7418	0.9495	0.8076	0.05
Mof_C 	C 	0.68791	0.89945	0.81665	-0.034
Mof_C 	C 	0.67656	0.88488	0.80324	0.002
Mof_H 	H 	0.6766	0.8868	0.7881	0.029
Mof_C 	C 	0.66507	0.86746	0.81248	-0.131
Mof_H 	H 	0.6575	0.8577	0.8035	0.081
Mof_C 	C 	0.66495	0.8646	0.83512	0.118
Mof_C 	C 	0.6763	0.87917	0.84852	-0.131
Mof_H 	H 	0.6762	0.8773	0.8637	0.08
Mof_C 	C 	0.68779	0.89659	0.83929	0.002
Mof_H 	H 	0.6954	0.9063	0.8483	0.03
Mof_O 	O 	0.72161	0.48284	0.25471	-0.413
Mof_O 	O 	0.75032	0.47515	0.28067	-0.36
Mof_C 	C 	0.73223	0.47187	0.2699	0.272
Mof_C 	C 	0.71935	0.45297	0.28339	-0.041
Mof_C 	C 	0.6998	0.44457	0.27515	0.001
Mof_H 	H 	0.6935	0.4507	0.2626	0.044
Mof_C 	C 	0.68958	0.42706	0.28563	-0.098
Mof_H 	H 	0.6765	0.4214	0.2801	0.065
Mof_C 	C 	0.69892	0.41795	0.30436	0.058
Mof_C 	C 	0.71847	0.42635	0.3126	-0.099
Mof_H 	H 	0.7247	0.4203	0.3251	0.067
Mof_C 	C 	0.72869	0.44386	0.30212	0.003
Mof_H 	H 	0.7418	0.4495	0.3076	0.05
Mof_C 	C 	0.68791	0.39945	0.31665	-0.034
Mof_C 	C 	0.67656	0.38488	0.30324	0.002
Mof_H 	H 	0.6766	0.3868	0.2881	0.029
Mof_C 	C 	0.66507	0.36746	0.31248	-0.131
Mof_H 	H 	0.6575	0.3577	0.3035	0.081
Mof_C 	C 	0.66495	0.3646	0.33512	0.118
Mof_C 	C 	0.6763	0.37917	0.34852	-0.131
Mof_H 	H 	0.6762	0.3773	0.3637	0.08
Mof_C 	C 	0.68779	0.39659	0.33929	0.002
Mof_H 	H 	0.6954	0.4063	0.3483	0.03
Mof_O 	O 	0.77839	0.98284	0.74529	-0.413
Mof_O 	O 	0.74968	0.97515	0.71933	-0.36
Mof_C 	C 	0.76777	0.97187	0.7301	0.272
Mof_C 	C 	0.78065	0.95297	0.71661	-0.041
Mof_C 	C 	0.8002	0.94457	0.72485	0.001
Mof_H 	H 	0.8065	0.9507	0.7374	0.044
Mof_C 	C 	0.81042	0.92706	0.71437	-0.098
Mof_H 	H 	0.8235	0.9214	0.7199	0.065
Mof_C 	C 	0.80108	0.91795	0.69564	0.058
Mof_C 	C 	0.78153	0.92635	0.6874	-0.099
Mof_H 	H 	0.7753	0.9203	0.6749	0.067
Mof_C 	C 	0.77131	0.94386	0.69788	0.003
Mof_H 	H 	0.7582	0.9495	0.6924	0.05
Mof_C 	C 	0.81209	0.89945	0.68335	-0.034
Mof_C 	C 	0.82344	0.88488	0.69676	0.002
Mof_H 	H 	0.8234	0.8868	0.7119	0.029
Mof_C 	C 	0.83493	0.86746	0.68752	-0.131
Mof_H 	H 	0.8425	0.8577	0.6965	0.081
Mof_C 	C 	0.83505	0.8646	0.66488	0.118
Mof_C 	C 	0.8237	0.87917	0.65148	-0.131
Mof_H 	H 	0.8238	0.8773	0.6363	0.08
Mof_C 	C 	0.81221	0.89659	0.66071	0.002
Mof_H 	H 	0.8046	0.9063	0.6517	0.03
Mof_O 	O 	0.77839	0.48284	0.24529	-0.413
Mof_O 	O 	0.74968	0.47515	0.21933	-0.36
Mof_C 	C 	0.76777	0.47187	0.2301	0.272
Mof_C 	C 	0.78065	0.45297	0.21661	-0.041
Mof_C 	C 	0.8002	0.44457	0.22485	0.001
Mof_H 	H 	0.8065	0.4507	0.2374	0.044
Mof_C 	C 	0.81042	0.42706	0.21437	-0.098
Mof_H 	H 	0.8235	0.4214	0.2199	0.065
Mof_C 	C 	0.80108	0.41795	0.19564	0.058
Mof_C 	C 	0.78153	0.42635	0.1874	-0.099
Mof_H 	H 	0.7753	0.4203	0.1749	0.067
Mof_C 	C 	0.77131	0.44386	0.19788	0.003
Mof_H 	H 	0.7582	0.4495	0.1924	0.05
Mof_C 	C 	0.81209	0.39945	0.18335	-0.034
Mof_C 	C 	0.82344	0.38488	0.19676	0.002
Mof_H 	H 	0.8234	0.3868	0.2119	0.029
Mof_C 	C 	0.83493	0.36746	0.18752	-0.131
Mof_H 	H 	0.8425	0.3577	0.1965	0.081
Mof_C 	C 	0.83505	0.3646	0.16488	0.118
Mof_C 	C 	0.8237	0.37917	0.15148	-0.131
Mof_H 	H 	0.8238	0.3773	0.1363	0.08
Mof_C 	C 	0.81221	0.39659	0.16071	0.002
Mof_H 	H 	0.8046	0.4063	0.1517	0.03
Mof_O 	O 	0.27839	0.98284	0.24529	-0.413
Mof_O 	O 	0.24968	0.97515	0.21933	-0.36
Mof_C 	C 	0.26777	0.97187	0.2301	0.272
Mof_C 	C 	0.28065	0.95297	0.21661	-0.041
Mof_C 	C 	0.3002	0.94457	0.22485	0.001
Mof_H 	H 	0.3065	0.9507	0.2374	0.044
Mof_C 	C 	0.31042	0.92706	0.21437	-0.098
Mof_H 	H 	0.3235	0.9214	0.2199	0.065
Mof_C 	C 	0.30108	0.91795	0.19564	0.058
Mof_C 	C 	0.28153	0.92635	0.1874	-0.099
Mof_H 	H 	0.2753	0.9203	0.1749	0.067
Mof_C 	C 	0.27131	0.94386	0.19788	0.003
Mof_H 	H 	0.2582	0.9495	0.1924	0.05
Mof_C 	C 	0.31209	0.89945	0.18335	-0.034
Mof_C 	C 	0.32344	0.88488	0.19676	0.002
Mof_H 	H 	0.3234	0.8868	0.2119	0.029
Mof_C 	C 	0.33493	0.86746	0.18752	-0.131
Mof_H 	H 	0.3425	0.8577	0.1965	0.081
Mof_C 	C 	0.33505	0.8646	0.16488	0.118
Mof_C 	C 	0.3237	0.87917	0.15148	-0.131
Mof_H 	H 	0.3238	0.8773	0.1363	0.08
Mof_C 	C 	0.31221	0.89659	0.16071	0.002
Mof_H 	H 	0.3046	0.9063	0.1517	0.03
Mof_O 	O 	0.27839	0.48284	0.74529	-0.413
Mof_O 	O 	0.24968	0.47515	0.71933	-0.36
Mof_C 	C 	0.26777	0.47187	0.7301	0.272
Mof_C 	C 	0.28065	0.45297	0.71661	-0.041
Mof_C 	C 	0.3002	0.44457	0.72485	0.001
Mof_H 	H 	0.3065	0.4507	0.7374	0.044
Mof_C 	C 	0.31042	0.42706	0.71437	-0.098
Mof_H 	H 	0.3235	0.4214	0.7199	0.065
Mof_C 	C 	0.30108	0.41795	0.69564	0.058
Mof_C 	C 	0.28153	0.42635	0.6874	-0.099
Mof_H 	H 	0.2753	0.4203	0.6749	0.067
Mof_C 	C 	0.27131	0.44386	0.69788	0.003
Mof_H 	H 	0.2582	0.4495	0.6924	0.05
Mof_C 	C 	0.31209	0.39945	0.68335	-0.034
Mof_C 	C 	0.32344	0.38488	0.69676	0.002
Mof_H 	H 	0.3234	0.3868	0.7119	0.029
Mof_C 	C 	0.33493	0.36746	0.68752	-0.131
Mof_H 	H 	0.3425	0.3577	0.6965	0.081
Mof_C 	C 	0.33505	0.3646	0.66488	0.118
Mof_C 	C 	0.3237	0.37917	0.65148	-0.131
Mof_H 	H 	0.3238	0.3773	0.6363	0.08
Mof_C 	C 	0.31221	0.39659	0.66071	0.002
Mof_H 	H 	0.3046	0.4063	0.6517	0.03
Mof_O 	O 	0.77839	0.01716	0.25471	-0.413
Mof_O 	O 	0.74968	0.02485	0.28067	-0.36
Mof_C 	C 	0.76777	0.02813	0.2699	0.272
Mof_C 	C 	0.78065	0.04703	0.28339	-0.041
Mof_C 	C 	0.8002	0.05543	0.27515	0.001
Mof_H 	H 	0.8065	0.0493	0.2626	0.044
Mof_C 	C 	0.81042	0.07294	0.28563	-0.098
Mof_H 	H 	0.8235	0.0786	0.2801	0.065
Mof_C 	C 	0.80108	0.08205	0.30436	0.058
Mof_C 	C 	0.78153	0.07365	0.3126	-0.099
Mof_H 	H 	0.7753	0.0797	0.3251	0.067
Mof_C 	C 	0.77131	0.05614	0.30212	0.003
Mof_H 	H 	0.7582	0.0505	0.3076	0.05
Mof_C 	C 	0.81209	0.10055	0.31665	-0.034
Mof_C 	C 	0.82344	0.11512	0.30324	0.002
Mof_H 	H 	0.8234	0.1132	0.2881	0.029
Mof_C 	C 	0.83493	0.13254	0.31248	-0.131
Mof_H 	H 	0.8425	0.1423	0.3035	0.081
Mof_C 	C 	0.83505	0.1354	0.33512	0.118
Mof_C 	C 	0.8237	0.12083	0.34852	-0.131
Mof_H 	H 	0.8238	0.1227	0.3637	0.08
Mof_C 	C 	0.81221	0.10341	0.33929	0.002
Mof_H 	H 	0.8046	0.0937	0.3483	0.03
Mof_O 	O 	0.77839	0.51716	0.75471	-0.413
Mof_O 	O 	0.74968	0.52485	0.78067	-0.36
Mof_C 	C 	0.76777	0.52813	0.7699	0.272
Mof_C 	C 	0.78065	0.54703	0.78339	-0.041
Mof_C 	C 	0.8002	0.55543	0.77515	0.001
Mof_H 	H 	0.8065	0.5493	0.7626	0.044
Mof_C 	C 	0.81042	0.57294	0.78563	-0.098
Mof_H 	H 	0.8235	0.5786	0.7801	0.065
Mof_C 	C 	0.80108	0.58205	0.80436	0.058
Mof_C 	C 	0.78153	0.57365	0.8126	-0.099
Mof_H 	H 	0.7753	0.5797	0.8251	0.067
Mof_C 	C 	0.77131	0.55614	0.80212	0.003
Mof_H 	H 	0.7582	0.5505	0.8076	0.05
Mof_C 	C 	0.81209	0.60055	0.81665	-0.034
Mof_C 	C 	0.82344	0.61512	0.80324	0.002
Mof_H 	H 	0.8234	0.6132	0.7881	0.029
Mof_C 	C 	0.83493	0.63254	0.81248	-0.131
Mof_H 	H 	0.8425	0.6423	0.8035	0.081
Mof_C 	C 	0.83505	0.6354	0.83512	0.118
Mof_C 	C 	0.8237	0.62083	0.84852	-0.131
Mof_H 	H 	0.8238	0.6227	0.8637	0.08
Mof_C 	C 	0.81221	0.60341	0.83929	0.002
Mof_H 	H 	0.8046	0.5937	0.8483	0.03
Mof_O 	O 	0.27839	0.01716	0.75471	-0.413
Mof_O 	O 	0.24968	0.02485	0.78067	-0.36
Mof_C 	C 	0.26777	0.02813	0.7699	0.272
Mof_C 	C 	0.28065	0.04703	0.78339	-0.041
Mof_C 	C 	0.3002	0.05543	0.77515	0.001
Mof_H 	H 	0.3065	0.0493	0.7626	0.044
Mof_C 	C 	0.31042	0.07294	0.78563	-0.098
Mof_H 	H 	0.3235	0.0786	0.7801	0.065
Mof_C 	C 	0.30108	0.08205	0.80436	0.058
Mof_C 	C 	0.28153	0.07365	0.8126	-0.099
Mof_H 	H 	0.2753	0.0797	0.8251	0.067
Mof_C 	C 	0.27131	0.05614	0.80212	0.003
Mof_H 	H 	0.2582	0.0505	0.8076	0.05
Mof_C 	C 	0.31209	0.10055	0.81665	-0.034
Mof_C 	C 	0.32344	0.11512	0.80324	0.002
Mof_H 	H 	0.3234	0.1132	0.7881	0.029
Mof_C 	C 	0.33493	0.13254	0.81248	-0.131
Mof_H 	H 	0.3425	0.1423	0.8035	0.081
Mof_C 	C 	0.33505	0.1354	0.83512	0.118
Mof_C 	C 	0.3237	0.12083	0.84852	-0.131
Mof_H 	H 	0.3238	0.1227	0.8637	0.08
Mof_C 	C 	0.31221	0.10341	0.83929	0.002
Mof_H 	H 	0.3046	0.0937	0.8483	0.03
Mof_O 	O 	0.27839	0.51716	0.25471	-0.413
Mof_O 	O 	0.24968	0.52485	0.28067	-0.36
Mof_C 	C 	0.26777	0.52813	0.2699	0.272
Mof_C 	C 	0.28065	0.54703	0.28339	-0.041
Mof_C 	C 	0.3002	0.55543	0.27515	0.001
Mof_H 	H 	0.3065	0.5493	0.2626	0.044
Mof_C 	C 	0.31042	0.57294	0.28563	-0.098
Mof_H 	H 	0.3235	0.5786	0.2801	0.065
Mof_C 	C 	0.30108	0.58205	0.30436	0.058
Mof_C 	C 	0.28153	0.57365	0.3126	-0.099
Mof_H 	H 	0.2753	0.5797	0.3251	0.067
Mof_C 	C 	0.27131	0.55614	0.30212	0.003
Mof_H 	H 	0.2582	0.5505	0.3076	0.05
Mof_C 	C 	0.31209	0.60055	0.31665	-0.034
Mof_C 	C 	0.32344	0.61512	0.30324	0.002
Mof_H 	H 	0.3234	0.6132	0.2881	0.029
Mof_C 	C 	0.33493	0.63254	0.31248	-0.131
Mof_H 	H 	0.3425	0.6423	0.3035	0.081
Mof_C 	C 	0.33505	0.6354	0.33512	0.118
Mof_C 	C 	0.3237	0.62083	0.34852	-0.131
Mof_H 	H 	0.3238	0.6227	0.3637	0.08
Mof_C 	C 	0.31221	0.60341	0.33929	0.002
Mof_H 	H 	0.3046	0.5937	0.3483	0.03
Mof_O 	O 	0.74529	0.22161	0.01716	-0.413
Mof_O 	O 	0.71933	0.25032	0.02485	-0.36
Mof_C 	C 	0.7301	0.23223	0.02813	0.272
Mof_C 	C 	0.71661	0.21935	0.04703	-0.041
Mof_C 	C 	0.72485	0.1998	0.05543	0.001
Mof_H 	H 	0.7374	0.1935	0.0493	0.044
Mof_C 	C 	0.71437	0.18958	0.07294	-0.098
Mof_H 	H 	0.7199	0.1765	0.0786	0.065
Mof_C 	C 	0.69564	0.19892	0.08205	0.058
Mof_C 	C 	0.6874	0.21847	0.07365	-0.099
Mof_H 	H 	0.6749	0.2247	0.0797	0.067
Mof_C 	C 	0.69788	0.22869	0.05614	0.003
Mof_H 	H 	0.6924	0.2418	0.0505	0.05
Mof_C 	C 	0.68335	0.18791	0.10055	-0.034
Mof_C 	C 	0.69676	0.17656	0.11512	0.002
Mof_H 	H 	0.7119	0.1766	0.1132	0.029
Mof_C 	C 	0.68752	0.16507	0.13254	-0.131
Mof_H 	H 	0.6965	0.1575	0.1423	0.081
Mof_C 	C 	0.66488	0.16495	0.1354	0.118
Mof_C 	C 	0.65148	0.1763	0.12083	-0.131
Mof_H 	H 	0.6363	0.1762	0.1227	0.08
Mof_C 	C 	0.66071	0.18779	0.10341	0.002
Mof_H 	H 	0.6517	0.1954	0.0937	0.03
Mof_O 	O 	0.74529	0.72161	0.51716	-0.413
Mof_O 	O 	0.71933	0.75032	0.52485	-0.36
Mof_C 	C 	0.7301	0.73223	0.52813	0.272
Mof_C 	C 	0.71661	0.71935	0.54703	-0.041
Mof_C 	C 	0.72485	0.6998	0.55543	0.001
Mof_H 	H 	0.7374	0.6935	0.5493	0.044
Mof_C 	C 	0.71437	0.68958	0.57294	-0.098
Mof_H 	H 	0.7199	0.6765	0.5786	0.065
Mof_C 	C 	0.69564	0.69892	0.58205	0.058
Mof_C 	C 	0.6874	0.71847	0.57365	-0.099
Mof_H 	H 	0.6749	0.7247	0.5797	0.067
Mof_C 	C 	0.69788	0.72869	0.55614	0.003
Mof_H 	H 	0.6924	0.7418	0.5505	0.05
Mof_C 	C 	0.68335	0.68791	0.60055	-0.034
Mof_C 	C 	0.69676	0.67656	0.61512	0.002
Mof_H 	H 	0.7119	0.6766	0.6132	0.029
Mof_C 	C 	0.68752	0.66507	0.63254	-0.131
Mof_H 	H 	0.6965	0.6575	0.6423	0.081
Mof_C 	C 	0.66488	0.66495	0.6354	0.118
Mof_C 	C 	0.65148	0.6763	0.62083	-0.131
Mof_H 	H 	0.6363	0.6762	0.6227	0.08
Mof_C 	C 	0.66071	0.68779	0.60341	0.002
Mof_H 	H 	0.6517	0.6954	0.5937	0.03
Mof_O 	O 	0.24529	0.22161	0.51716	-0.413
Mof_O 	O 	0.21933	0.25032	0.52485	-0.36
Mof_C 	C 	0.2301	0.23223	0.52813	0.272
Mof_C 	C 	0.21661	0.21935	0.54703	-0.041
Mof_C 	C 	0.22485	0.1998	0.55543	0.001
Mof_H 	H 	0.2374	0.1935	0.5493	0.044
Mof_C 	C 	0.21437	0.18958	0.57294	-0.098
Mof_H 	H 	0.2199	0.1765	0.5786	0.065
Mof_C 	C 	0.19564	0.19892	0.58205	0.058
Mof_C 	C 	0.1874	0.21847	0.57365	-0.099
Mof_H 	H 	0.1749	0.2247	0.5797	0.067
Mof_C 	C 	0.19788	0.22869	0.55614	0.003
Mof_H 	H 	0.1924	0.2418	0.5505	0.05
Mof_C 	C 	0.18335	0.18791	0.60055	-0.034
Mof_C 	C 	0.19676	0.17656	0.61512	0.002
Mof_H 	H 	0.2119	0.1766	0.6132	0.029
Mof_C 	C 	0.18752	0.16507	0.63254	-0.131
Mof_H 	H 	0.1965	0.1575	0.6423	0.081
Mof_C 	C 	0.16488	0.16495	0.6354	0.118
Mof_C 	C 	0.15148	0.1763	0.62083	-0.131
Mof_H 	H 	0.1363	0.1762	0.6227	0.08
Mof_C 	C 	0.16071	0.18779	0.60341	0.002
Mof_H 	H 	0.1517	0.1954	0.5937	0.03
Mof_O 	O 	0.24529	0.72161	0.01716	-0.413
Mof_O 	O 	0.21933	0.75032	0.02485	-0.36
Mof_C 	C 	0.2301	0.73223	0.02813	0.272
Mof_C 	C 	0.21661	0.71935	0.04703	-0.041
Mof_C 	C 	0.22485	0.6998	0.05543	0.001
Mof_H 	H 	0.2374	0.6935	0.0493	0.044
Mof_C 	C 	0.21437	0.68958	0.07294	-0.098
Mof_H 	H 	0.2199	0.6765	0.0786	0.065
Mof_C 	C 	0.19564	0.69892	0.08205	0.058
Mof_C 	C 	0.1874	0.71847	0.07365	-0.099
Mof_H 	H 	0.1749	0.7247	0.0797	0.067
Mof_C 	C 	0.19788	0.72869	0.05614	0.003
Mof_H 	H 	0.1924	0.7418	0.0505	0.05
Mof_C 	C 	0.18335	0.68791	0.10055	-0.034
Mof_C 	C 	0.19676	0.67656	0.11512	0.002
Mof_H 	H 	0.2119	0.6766	0.1132	0.029
Mof_C 	C 	0.18752	0.66507	0.13254	-0.131
Mof_H 	H 	0.1965	0.6575	0.1423	0.081
Mof_C 	C 	0.16488	0.66495	0.1354	0.118
Mof_C 	C 	0.15148	0.6763	0.12083	-0.131
Mof_H 	H 	0.1363	0.6762	0.1227	0.08
Mof_C 	C 	0.16071	0.68779	0.10341	0.002
Mof_H 	H 	0.1517	0.6954	0.0937	0.03
Mof_O 	O 	0.25471	0.22161	0.98284	-0.413
Mof_O 	O 	0.28067	0.25032	0.97515	-0.36
Mof_C 	C 	0.2699	0.23223	0.97187	0.272
Mof_C 	C 	0.28339	0.21935	0.95297	-0.041
Mof_C 	C 	0.27515	0.1998	0.94457	0.001
Mof_H 	H 	0.2626	0.1935	0.9507	0.044
Mof_C 	C 	0.28563	0.18958	0.92706	-0.098
Mof_H 	H 	0.2801	0.1765	0.9214	0.065
Mof_C 	C 	0.30436	0.19892	0.91795	0.058
Mof_C 	C 	0.3126	0.21847	0.92635	-0.099
Mof_H 	H 	0.3251	0.2247	0.9203	0.067
Mof_C 	C 	0.30212	0.22869	0.94386	0.003
Mof_H 	H 	0.3076	0.2418	0.9495	0.05
Mof_C 	C 	0.31665	0.18791	0.89945	-0.034
Mof_C 	C 	0.30324	0.17656	0.88488	0.002
Mof_H 	H 	0.2881	0.1766	0.8868	0.029
Mof_C 	C 	0.31248	0.16507	0.86746	-0.131
Mof_H 	H 	0.3035	0.1575	0.8577	0.081
Mof_C 	C 	0.33512	0.16495	0.8646	0.118
Mof_C 	C 	0.34852	0.1763	0.87917	-0.131
Mof_H 	H 	0.3637	0.1762	0.8773	0.08
Mof_C 	C 	0.33929	0.18779	0.89659	0.002
Mof_H 	H 	0.3483	0.1954	0.9063	0.03
Mof_O 	O 	0.25471	0.72161	0.48284	-0.413
Mof_O 	O 	0.28067	0.75032	0.47515	-0.36
Mof_C 	C 	0.2699	0.73223	0.47187	0.272
Mof_C 	C 	0.28339	0.71935	0.45297	-0.041
Mof_C 	C 	0.27515	0.6998	0.44457	0.001
Mof_H 	H 	0.2626	0.6935	0.4507	0.044
Mof_C 	C 	0.28563	0.68958	0.42706	-0.098
Mof_H 	H 	0.2801	0.6765	0.4214	0.065
Mof_C 	C 	0.30436	0.69892	0.41795	0.058
Mof_C 	C 	0.3126	0.71847	0.42635	-0.099
Mof_H 	H 	0.3251	0.7247	0.4203	0.067
Mof_C 	C 	0.30212	0.72869	0.44386	0.003
Mof_H 	H 	0.3076	0.7418	0.4495	0.05
Mof_C 	C 	0.31665	0.68791	0.39945	-0.034
Mof_C 	C 	0.30324	0.67656	0.38488	0.002
Mof_H 	H 	0.2881	0.6766	0.3868	0.029
Mof_C 	C 	0.31248	0.66507	0.36746	-0.131
Mof_H 	H 	0.3035	0.6575	0.3577	0.081
Mof_C 	C 	0.33512	0.66495	0.3646	0.118
Mof_C 	C 	0.34852	0.6763	0.37917	-0.131
Mof_H 	H 	0.3637	0.6762	0.3773	0.08
Mof_C 	C 	0.33929	0.68779	0.39659	0.002
Mof_H 	H 	0.3483	0.6954	0.4063	0.03
Mof_O 	O 	0.75471	0.22161	0.48284	-0.413
Mof_O 	O 	0.78067	0.25032	0.47515	-0.36
Mof_C 	C 	0.7699	0.23223	0.47187	0.272
Mof_C 	C 	0.78339	0.21935	0.45297	-0.041
Mof_C 	C 	0.77515	0.1998	0.44457	0.001
Mof_H 	H 	0.7626	0.1935	0.4507	0.044
Mof_C 	C 	0.78563	0.18958	0.42706	-0.098
Mof_H 	H 	0.7801	0.1765	0.4214	0.065
Mof_C 	C 	0.80436	0.19892	0.41795	0.058
Mof_C 	C 	0.8126	0.21847	0.42635	-0.099
Mof_H 	H 	0.8251	0.2247	0.4203	0.067
Mof_C 	C 	0.80212	0.22869	0.44386	0.003
Mof_H 	H 	0.8076	0.2418	0.4495	0.05
Mof_C 	C 	0.81665	0.18791	0.39945	-0.034
Mof_C 	C 	0.80324	0.17656	0.38488	0.002
Mof_H 	H 	0.7881	0.1766	0.3868	0.029
Mof_C 	C 	0.81248	0.16507	0.36746	-0.131
Mof_H 	H 	0.8035	0.1575	0.3577	0.081
Mof_C 	C 	0.83512	0.16495	0.3646	0.118
Mof_C 	C 	0.84852	0.1763	0.37917	-0.131
Mof_H 	H 	0.8637	0.1762	0.3773	0.08
Mof_C 	C 	0.83929	0.18779	0.39659	0.002
Mof_H 	H 	0.8483	0.1954	0.4063	0.03
Mof_O 	O 	0.75471	0.72161	0.98284	-0.413
Mof_O 	O 	0.78067	0.75032	0.97515	-0.36
Mof_C 	C 	0.7699	0.73223	0.97187	0.272
Mof_C 	C 	0.78339	0.71935	0.95297	-0.041
Mof_C 	C 	0.77515	0.6998	0.94457	0.001
Mof_H 	H 	0.7626	0.6935	0.9507	0.044
Mof_C 	C 	0.78563	0.68958	0.92706	-0.098
Mof_H 	H 	0.7801	0.6765	0.9214	0.065
Mof_C 	C 	0.80436	0.69892	0.91795	0.058
Mof_C 	C 	0.8126	0.71847	0.92635	-0.099
Mof_H 	H 	0.8251	0.7247	0.9203	0.067
Mof_C 	C 	0.80212	0.72869	0.94386	0.003
Mof_H 	H 	0.8076	0.7418	0.9495	0.05
Mof_C 	C 	0.81665	0.68791	0.89945	-0.034
Mof_C 	C 	0.80324	0.67656	0.88488	0.002
Mof_H 	H 	0.7881	0.6766	0.8868	0.029
Mof_C 	C 	0.81248	0.66507	0.86746	-0.131
Mof_H 	H 	0.8035	0.6575	0.8577	0.081
Mof_C 	C 	0.83512	0.66495	0.8646	0.118
Mof_C 	C 	0.84852	0.6763	0.87917	-0.131
Mof_H 	H 	0.8637	0.6762	0.8773	0.08
Mof_C 	C 	0.83929	0.68779	0.89659	0.002
Mof_H 	H 	0.8483	0.6954	0.9063	0.03
Mof_O 	O 	0.74529	0.77839	0.98284	-0.413
Mof_O 	O 	0.71933	0.74968	0.97515	-0.36
Mof_C 	C 	0.7301	0.76777	0.97187	0.272
Mof_C 	C 	0.71661	0.78065	0.95297	-0.041
Mof_C 	C 	0.72485	0.8002	0.94457	0.001
Mof_H 	H 	0.7374	0.8065	0.9507	0.044
Mof_C 	C 	0.71437	0.81042	0.92706	-0.098
Mof_H 	H 	0.7199	0.8235	0.9214	0.065
Mof_C 	C 	0.69564	0.80108	0.91795	0.058
Mof_C 	C 	0.6874	0.78153	0.92635	-0.099
Mof_H 	H 	0.6749	0.7753	0.9203	0.067
Mof_C 	C 	0.69788	0.77131	0.94386	0.003
Mof_H 	H 	0.6924	0.7582	0.9495	0.05
Mof_C 	C 	0.68335	0.81209	0.89945	-0.034
Mof_C 	C 	0.69676	0.82344	0.88488	0.002
Mof_H 	H 	0.7119	0.8234	0.8868	0.029
Mof_C 	C 	0.68752	0.83493	0.86746	-0.131
Mof_H 	H 	0.6965	0.8425	0.8577	0.081
Mof_C 	C 	0.66488	0.83505	0.8646	0.118
Mof_C 	C 	0.65148	0.8237	0.87917	-0.131
Mof_H 	H 	0.6363	0.8238	0.8773	0.08
Mof_C 	C 	0.66071	0.81221	0.89659	0.002
Mof_H 	H 	0.6517	0.8046	0.9063	0.03
Mof_O 	O 	0.74529	0.27839	0.48284	-0.413
Mof_O 	O 	0.71933	0.24968	0.47515	-0.36
Mof_C 	C 	0.7301	0.26777	0.47187	0.272
Mof_C 	C 	0.71661	0.28065	0.45297	-0.041
Mof_C 	C 	0.72485	0.3002	0.44457	0.001
Mof_H 	H 	0.7374	0.3065	0.4507	0.044
Mof_C 	C 	0.71437	0.31042	0.42706	-0.098
Mof_H 	H 	0.7199	0.3235	0.4214	0.065
Mof_C 	C 	0.69564	0.30108	0.41795	0.058
Mof_C 	C 	0.6874	0.28153	0.42635	-0.099
Mof_H 	H 	0.6749	0.2753	0.4203	0.067
Mof_C 	C 	0.69788	0.27131	0.44386	0.003
Mof_H 	H 	0.6924	0.2582	0.4495	0.05
Mof_C 	C 	0.68335	0.31209	0.39945	-0.034
Mof_C 	C 	0.69676	0.32344	0.38488	0.002
Mof_H 	H 	0.7119	0.3234	0.3868	0.029
Mof_C 	C 	0.68752	0.33493	0.36746	-0.131
Mof_H 	H 	0.6965	0.3425	0.3577	0.081
Mof_C 	C 	0.66488	0.33505	0.3646	0.118
Mof_C 	C 	0.65148	0.3237	0.37917	-0.131
Mof_H 	H 	0.6363	0.3238	0.3773	0.08
Mof_C 	C 	0.66071	0.31221	0.39659	0.002
Mof_H 	H 	0.6517	0.3046	0.4063	0.03
Mof_O 	O 	0.24529	0.77839	0.48284	-0.413
Mof_O 	O 	0.21933	0.74968	0.47515	-0.36
Mof_C 	C 	0.2301	0.76777	0.47187	0.272
Mof_C 	C 	0.21661	0.78065	0.45297	-0.041
Mof_C 	C 	0.22485	0.8002	0.44457	0.001
Mof_H 	H 	0.2374	0.8065	0.4507	0.044
Mof_C 	C 	0.21437	0.81042	0.42706	-0.098
Mof_H 	H 	0.2199	0.8235	0.4214	0.065
Mof_C 	C 	0.19564	0.80108	0.41795	0.058
Mof_C 	C 	0.1874	0.78153	0.42635	-0.099
Mof_H 	H 	0.1749	0.7753	0.4203	0.067
Mof_C 	C 	0.19788	0.77131	0.44386	0.003
Mof_H 	H 	0.1924	0.7582	0.4495	0.05
Mof_C 	C 	0.18335	0.81209	0.39945	-0.034
Mof_C 	C 	0.19676	0.82344	0.38488	0.002
Mof_H 	H 	0.2119	0.8234	0.3868	0.029
Mof_C 	C 	0.18752	0.83493	0.36746	-0.131
Mof_H 	H 	0.1965	0.8425	0.3577	0.081
Mof_C 	C 	0.16488	0.83505	0.3646	0.118
Mof_C 	C 	0.15148	0.8237	0.37917	-0.131
Mof_H 	H 	0.1363	0.8238	0.3773	0.08
Mof_C 	C 	0.16071	0.81221	0.39659	0.002
Mof_H 	H 	0.1517	0.8046	0.4063	0.03
Mof_O 	O 	0.24529	0.27839	0.98284	-0.413
Mof_O 	O 	0.21933	0.24968	0.97515	-0.36
Mof_C 	C 	0.2301	0.26777	0.97187	0.272
Mof_C 	C 	0.21661	0.28065	0.95297	-0.041
Mof_C 	C 	0.22485	0.3002	0.94457	0.001
Mof_H 	H 	0.2374	0.3065	0.9507	0.044
Mof_C 	C 	0.21437	0.31042	0.92706	-0.098
Mof_H 	H 	0.2199	0.3235	0.9214	0.065
Mof_C 	C 	0.19564	0.30108	0.91795	0.058
Mof_C 	C 	0.1874	0.28153	0.92635	-0.099
Mof_H 	H 	0.1749	0.2753	0.9203	0.067
Mof_C 	C 	0.19788	0.27131	0.94386	0.003
Mof_H 	H 	0.1924	0.2582	0.9495	0.05
Mof_C 	C 	0.18335	0.31209	0.89945	-0.034
Mof_C 	C 	0.19676	0.32344	0.88488	0.002
Mof_H 	H 	0.2119	0.3234	0.8868	0.029
Mof_C 	C 	0.18752	0.33493	0.86746	-0.131
Mof_H 	H 	0.1965	0.3425	0.8577	0.081
Mof_C 	C 	0.16488	0.33505	0.8646	0.118
Mof_C 	C 	0.15148	0.3237	0.87917	-0.131
Mof_H 	H 	0.1363	0.3238	0.8773	0.08
Mof_C 	C 	0.16071	0.31221	0.89659	0.002
Mof_H 	H 	0.1517	0.3046	0.9063	0.03
Mof_O 	O 	0.25471	0.77839	0.01716	-0.413
Mof_O 	O 	0.28067	0.74968	0.02485	-0.36
Mof_C 	C 	0.2699	0.76777	0.02813	0.272
Mof_C 	C 	0.28339	0.78065	0.04703	-0.041
Mof_C 	C 	0.27515	0.8002	0.05543	0.001
Mof_H 	H 	0.2626	0.8065	0.0493	0.044
Mof_C 	C 	0.28563	0.81042	0.07294	-0.098
Mof_H 	H 	0.2801	0.8235	0.0786	0.065
Mof_C 	C 	0.30436	0.80108	0.08205	0.058
Mof_C 	C 	0.3126	0.78153	0.07365	-0.099
Mof_H 	H 	0.3251	0.7753	0.0797	0.067
Mof_C 	C 	0.30212	0.77131	0.05614	0.003
Mof_H 	H 	0.3076	0.7582	0.0505	0.05
Mof_C 	C 	0.31665	0.81209	0.10055	-0.034
Mof_C 	C 	0.30324	0.82344	0.11512	0.002
Mof_H 	H 	0.2881	0.8234	0.1132	0.029
Mof_C 	C 	0.31248	0.83493	0.13254	-0.131
Mof_H 	H 	0.3035	0.8425	0.1423	0.081
Mof_C 	C 	0.33512	0.83505	0.1354	0.118
Mof_C 	C 	0.34852	0.8237	0.12083	-0.131
Mof_H 	H 	0.3637	0.8238	0.1227	0.08
Mof_C 	C 	0.33929	0.81221	0.10341	0.002
Mof_H 	H 	0.3483	0.8046	0.0937	0.03
Mof_O 	O 	0.25471	0.27839	0.51716	-0.413
Mof_O 	O 	0.28067	0.24968	0.52485	-0.36
Mof_C 	C 	0.2699	0.26777	0.52813	0.272
Mof_C 	C 	0.28339	0.28065	0.54703	-0.041
Mof_C 	C 	0.27515	0.3002	0.55543	0.001
Mof_H 	H 	0.2626	0.3065	0.5493	0.044
Mof_C 	C 	0.28563	0.31042	0.57294	-0.098
Mof_H 	H 	0.2801	0.3235	0.5786	0.065
Mof_C 	C 	0.30436	0.30108	0.58205	0.058
Mof_C 	C 	0.3126	0.28153	0.57365	-0.099
Mof_H 	H 	0.3251	0.2753	0.5797	0.067
Mof_C 	C 	0.30212	0.27131	0.55614	0.003
Mof_H 	H 	0.3076	0.2582	0.5505	0.05
Mof_C 	C 	0.31665	0.31209	0.60055	-0.034
Mof_C 	C 	0.30324	0.32344	0.61512	0.002
Mof_H 	H 	0.2881	0.3234	0.6132	0.029
Mof_C 	C 	0.31248	0.33493	0.63254	-0.131
Mof_H 	H 	0.3035	0.3425	0.6423	0.081
Mof_C 	C 	0.33512	0.33505	0.6354	0.118
Mof_C 	C 	0.34852	0.3237	0.62083	-0.131
Mof_H 	H 	0.3637	0.3238	0.6227	0.08
Mof_C 	C 	0.33929	0.31221	0.60341	0.002
Mof_H 	H 	0.3483	0.3046	0.5937	0.03
Mof_O 	O 	0.75471	0.77839	0.51716	-0.413
Mof_O 	O 	0.78067	0.74968	0.52485	-0.36
Mof_C 	C 	0.7699	0.76777	0.52813	0.272
Mof_C 	C 	0.78339	0.78065	0.54703	-0.041
Mof_C 	C 	0.77515	0.8002	0.55543	0.001
Mof_H 	H 	0.7626	0.8065	0.5493	0.044
Mof_C 	C 	0.78563	0.81042	0.57294	-0.098
Mof_H 	H 	0.7801	0.8235	0.5786	0.065
Mof_C 	C 	0.80436	0.80108	0.58205	0.058
Mof_C 	C 	0.8126	0.78153	0.57365	-0.099
Mof_H 	H 	0.8251	0.7753	0.5797	0.067
Mof_C 	C 	0.80212	0.77131	0.55614	0.003
Mof_H 	H 	0.8076	0.7582	0.5505	0.05
Mof_C 	C 	0.81665	0.81209	0.60055	-0.034
Mof_C 	C 	0.80324	0.82344	0.61512	0.002
Mof_H 	H 	0.7881	0.8234	0.6132	0.029
Mof_C 	C 	0.81248	0.83493	0.63254	-0.131
Mof_H 	H 	0.8035	0.8425	0.6423	0.081
Mof_C 	C 	0.83512	0.83505	0.6354	0.118
Mof_C 	C 	0.84852	0.8237	0.62083	-0.131
Mof_H 	H 	0.8637	0.8238	0.6227	0.08
Mof_C 	C 	0.83929	0.81221	0.60341	0.002
Mof_H 	H 	0.8483	0.8046	0.5937	0.03
Mof_O 	O 	0.75471	0.27839	0.01716	-0.413
Mof_O 	O 	0.78067	0.24968	0.02485	-0.36
Mof_C 	C 	0.7699	0.26777	0.02813	0.272
Mof_C 	C 	0.78339	0.28065	0.04703	-0.041
Mof_C 	C 	0.77515	0.3002	0.05543	0.001
Mof_H 	H 	0.7626	0.3065	0.0493	0.044
Mof_C 	C 	0.78563	0.31042	0.07294	-0.098
Mof_H 	H 	0.7801	0.3235	0.0786	0.065
Mof_C 	C 	0.80436	0.30108	0.08205	0.058
Mof_C 	C 	0.8126	0.28153	0.07365	-0.099
Mof_H 	H 	0.8251	0.2753	0.0797	0.067
Mof_C 	C 	0.80212	0.27131	0.05614	0.003
Mof_H 	H 	0.8076	0.2582	0.0505	0.05
Mof_C 	C 	0.81665	0.31209	0.10055	-0.034
Mof_C 	C 	0.80324	0.32344	0.11512	0.002
Mof_H 	H 	0.7881	0.3234	0.1132	0.029
Mof_C 	C 	0.81248	0.33493	0.13254	-0.131
Mof_H 	H 	0.8035	0.3425	0.1423	0.081
Mof_C 	C 	0.83512	0.33505	0.1354	0.118
Mof_C 	C 	0.84852	0.3237	0.12083	-0.131
Mof_H 	H 	0.8637	0.3238	0.1227	0.08
Mof_C 	C 	0.83929	0.31221	0.10341	0.002
Mof_H 	H 	0.8483	0.3046	0.0937	0.03
Mof_O 	O 	0.74529	0.01716	0.77839	-0.413
Mof_O 	O 	0.71933	0.02485	0.74968	-0.36
Mof_C 	C 	0.7301	0.02813	0.76777	0.272
Mof_C 	C 	0.71661	0.04703	0.78065	-0.041
Mof_C 	C 	0.72485	0.05543	0.8002	0.001
Mof_H 	H 	0.7374	0.0493	0.8065	0.044
Mof_C 	C 	0.71437	0.07294	0.81042	-0.098
Mof_H 	H 	0.7199	0.0786	0.8235	0.065
Mof_C 	C 	0.69564	0.08205	0.80108	0.058
Mof_C 	C 	0.6874	0.07365	0.78153	-0.099
Mof_H 	H 	0.6749	0.0797	0.7753	0.067
Mof_C 	C 	0.69788	0.05614	0.77131	0.003
Mof_H 	H 	0.6924	0.0505	0.7582	0.05
Mof_C 	C 	0.68335	0.10055	0.81209	-0.034
Mof_C 	C 	0.69676	0.11512	0.82344	0.002
Mof_H 	H 	0.7119	0.1132	0.8234	0.029
Mof_C 	C 	0.68752	0.13254	0.83493	-0.131
Mof_H 	H 	0.6965	0.1423	0.8425	0.081
Mof_C 	C 	0.66488	0.1354	0.83505	0.118
Mof_C 	C 	0.65148	0.12083	0.8237	-0.131
Mof_H 	H 	0.6363	0.1227	0.8238	0.08
Mof_C 	C 	0.66071	0.10341	0.81221	0.002
Mof_H 	H 	0.6517	0.0937	0.8046	0.03
Mof_O 	O 	0.74529	0.51716	0.27839	-0.413
Mof_O 	O 	0.71933	0.52485	0.24968	-0.36
Mof_C 	C 	0.7301	0.52813	0.26777	0.272
Mof_C 	C 	0.71661	0.54703	0.28065	-0.041
Mof_C 	C 	0.72485	0.55543	0.3002	0.001
Mof_H 	H 	0.7374	0.5493	0.3065	0.044
Mof_C 	C 	0.71437	0.57294	0.31042	-0.098
Mof_H 	H 	0.7199	0.5786	0.3235	0.065
Mof_C 	C 	0.69564	0.58205	0.30108	0.058
Mof_C 	C 	0.6874	0.57365	0.28153	-0.099
Mof_H 	H 	0.6749	0.5797	0.2753	0.067
Mof_C 	C 	0.69788	0.55614	0.27131	0.003
Mof_H 	H 	0.6924	0.5505	0.2582	0.05
Mof_C 	C 	0.68335	0.60055	0.31209	-0.034
Mof_C 	C 	0.69676	0.61512	0.32344	0.002
Mof_H 	H 	0.7119	0.6132	0.3234	0.029
Mof_C 	C 	0.68752	0.63254	0.33493	-0.131
Mof_H 	H 	0.6965	0.6423	0.3425	0.081
Mof_C 	C 	0.66488	0.6354	0.33505	0.118
Mof_C 	C 	0.65148	0.62083	0.3237	-0.131
Mof_H 	H 	0.6363	0.6227	0.3238	0.08
Mof_C 	C 	0.66071	0.60341	0.31221	0.002
Mof_H 	H 	0.6517	0.5937	0.3046	0.03
Mof_O 	O 	0.24529	0.01716	0.27839	-0.413
Mof_O 	O 	0.21933	0.02485	0.24968	-0.36
Mof_C 	C 	0.2301	0.02813	0.26777	0.272
Mof_C 	C 	0.21661	0.04703	0.28065	-0.041
Mof_C 	C 	0.22485	0.05543	0.3002	0.001
Mof_H 	H 	0.2374	0.0493	0.3065	0.044
Mof_C 	C 	0.21437	0.07294	0.31042	-0.098
Mof_H 	H 	0.2199	0.0786	0.3235	0.065
Mof_C 	C 	0.19564	0.08205	0.30108	0.058
Mof_C 	C 	0.1874	0.07365	0.28153	-0.099
Mof_H 	H 	0.1749	0.0797	0.2753	0.067
Mof_C 	C 	0.19788	0.05614	0.27131	0.003
Mof_H 	H 	0.1924	0.0505	0.2582	0.05
Mof_C 	C 	0.18335	0.10055	0.31209	-0.034
Mof_C 	C 	0.19676	0.11512	0.32344	0.002
Mof_H 	H 	0.2119	0.1132	0.3234	0.029
Mof_C 	C 	0.18752	0.13254	0.33493	-0.131
Mof_H 	H 	0.1965	0.1423	0.3425	0.081
Mof_C 	C 	0.16488	0.1354	0.33505	0.118
Mof_C 	C 	0.15148	0.12083	0.3237	-0.131
Mof_H 	H 	0.1363	0.1227	0.3238	0.08
Mof_C 	C 	0.16071	0.10341	0.31221	0.002
Mof_H 	H 	0.1517	0.0937	0.3046	0.03
Mof_O 	O 	0.24529	0.51716	0.77839	-0.413
Mof_O 	O 	0.21933	0.52485	0.74968	-0.36
Mof_C 	C 	0.2301	0.52813	0.76777	0.272
Mof_C 	C 	0.21661	0.54703	0.78065	-0.041
Mof_C 	C 	0.22485	0.55543	0.8002	0.001
Mof_H 	H 	0.2374	0.5493	0.8065	0.044
Mof_C 	C 	0.21437	0.57294	0.81042	-0.098
Mof_H 	H 	0.2199	0.5786	0.8235	0.065
Mof_C 	C 	0.19564	0.58205	0.80108	0.058
Mof_C 	C 	0.1874	0.57365	0.78153	-0.099
Mof_H 	H 	0.1749	0.5797	0.7753	0.067
Mof_C 	C 	0.19788	0.55614	0.77131	0.003
Mof_H 	H 	0.1924	0.5505	0.7582	0.05
Mof_C 	C 	0.18335	0.60055	0.81209	-0.034
Mof_C 	C 	0.19676	0.61512	0.82344	0.002
Mof_H 	H 	0.2119	0.6132	0.8234	0.029
Mof_C 	C 	0.18752	0.63254	0.83493	-0.131
Mof_H 	H 	0.1965	0.6423	0.8425	0.081
Mof_C 	C 	0.16488	0.6354	0.83505	0.118
Mof_C 	C 	0.15148	0.62083	0.8237	-0.131
Mof_H 	H 	0.1363	0.6227	0.8238	0.08
Mof_C 	C 	0.16071	0.60341	0.81221	0.002
Mof_H 	H 	0.1517	0.5937	0.8046	0.03
Mof_O 	O 	0.25471	0.98284	0.77839	-0.413
Mof_O 	O 	0.28067	0.97515	0.74968	-0.36
Mof_C 	C 	0.2699	0.97187	0.76777	0.272
Mof_C 	C 	0.28339	0.95297	0.78065	-0.041
Mof_C 	C 	0.27515	0.94457	0.8002	0.001
Mof_H 	H 	0.2626	0.9507	0.8065	0.044
Mof_C 	C 	0.28563	0.92706	0.81042	-0.098
Mof_H 	H 	0.2801	0.9214	0.8235	0.065
Mof_C 	C 	0.30436	0.91795	0.80108	0.058
Mof_C 	C 	0.3126	0.92635	0.78153	-0.099
Mof_H 	H 	0.3251	0.9203	0.7753	0.067
Mof_C 	C 	0.30212	0.94386	0.77131	0.003
Mof_H 	H 	0.3076	0.9495	0.7582	0.05
Mof_C 	C 	0.31665	0.89945	0.81209	-0.034
Mof_C 	C 	0.30324	0.88488	0.82344	0.002
Mof_H 	H 	0.2881	0.8868	0.8234	0.029
Mof_C 	C 	0.31248	0.86746	0.83493	-0.131
Mof_H 	H 	0.3035	0.8577	0.8425	0.081
Mof_C 	C 	0.33512	0.8646	0.83505	0.118
Mof_C 	C 	0.34852	0.87917	0.8237	-0.131
Mof_H 	H 	0.3637	0.8773	0.8238	0.08
Mof_C 	C 	0.33929	0.89659	0.81221	0.002
Mof_H 	H 	0.3483	0.9063	0.8046	0.03
Mof_O 	O 	0.25471	0.48284	0.27839	-0.413
Mof_O 	O 	0.28067	0.47515	0.24968	-0.36
Mof_C 	C 	0.2699	0.47187	0.26777	0.272
Mof_C 	C 	0.28339	0.45297	0.28065	-0.041
Mof_C 	C 	0.27515	0.44457	0.3002	0.001
Mof_H 	H 	0.2626	0.4507	0.3065	0.044
Mof_C 	C 	0.28563	0.42706	0.31042	-0.098
Mof_H 	H 	0.2801	0.4214	0.3235	0.065
Mof_C 	C 	0.30436	0.41795	0.30108	0.058
Mof_C 	C 	0.3126	0.42635	0.28153	-0.099
Mof_H 	H 	0.3251	0.4203	0.2753	0.067
Mof_C 	C 	0.30212	0.44386	0.27131	0.003
Mof_H 	H 	0.3076	0.4495	0.2582	0.05
Mof_C 	C 	0.31665	0.39945	0.31209	-0.034
Mof_C 	C 	0.30324	0.38488	0.32344	0.002
Mof_H 	H 	0.2881	0.3868	0.3234	0.029
Mof_C 	C 	0.31248	0.36746	0.33493	-0.131
Mof_H 	H 	0.3035	0.3577	0.3425	0.081
Mof_C 	C 	0.33512	0.3646	0.33505	0.118
Mof_C 	C 	0.34852	0.37917	0.3237	-0.131
Mof_H 	H 	0.3637	0.3773	0.3238	0.08
Mof_C 	C 	0.33929	0.39659	0.31221	0.002
Mof_H 	H 	0.3483	0.4063	0.3046	0.03
Mof_O 	O 	0.75471	0.98284	0.27839	-0.413
Mof_O 	O 	0.78067	0.97515	0.24968	-0.36
Mof_C 	C 	0.7699	0.97187	0.26777	0.272
Mof_C 	C 	0.78339	0.95297	0.28065	-0.041
Mof_C 	C 	0.77515	0.94457	0.3002	0.001
Mof_H 	H 	0.7626	0.9507	0.3065	0.044
Mof_C 	C 	0.78563	0.92706	0.31042	-0.098
Mof_H 	H 	0.7801	0.9214	0.3235	0.065
Mof_C 	C 	0.80436	0.91795	0.30108	0.058
Mof_C 	C 	0.8126	0.92635	0.28153	-0.099
Mof_H 	H 	0.8251	0.9203	0.2753	0.067
Mof_C 	C 	0.80212	0.94386	0.27131	0.003
Mof_H 	H 	0.8076	0.9495	0.2582	0.05
Mof_C 	C 	0.81665	0.89945	0.31209	-0.034
Mof_C 	C 	0.80324	0.88488	0.32344	0.002
Mof_H 	H 	0.7881	0.8868	0.3234	0.029
Mof_C 	C 	0.81248	0.86746	0.33493	-0.131
Mof_H 	H 	0.8035	0.8577	0.3425	0.081
Mof_C 	C 	0.83512	0.8646	0.33505	0.118
Mof_C 	C 	0.84852	0.87917	0.3237	-0.131
Mof_H 	H 	0.8637	0.8773	0.3238	0.08
Mof_C 	C 	0.83929	0.89659	0.31221	0.002
Mof_H 	H 	0.8483	0.9063	0.3046	0.03
Mof_O 	O 	0.75471	0.48284	0.77839	-0.413
Mof_O 	O 	0.78067	0.47515	0.74968	-0.36
Mof_C 	C 	0.7699	0.47187	0.76777	0.272
Mof_C 	C 	0.78339	0.45297	0.78065	-0.041
Mof_C 	C 	0.77515	0.44457	0.8002	0.001
Mof_H 	H 	0.7626	0.4507	0.8065	0.044
Mof_C 	C 	0.78563	0.42706	0.81042	-0.098
Mof_H 	H 	0.7801	0.4214	0.8235	0.065
Mof_C 	C 	0.80436	0.41795	0.80108	0.058
Mof_C 	C 	0.8126	0.42635	0.78153	-0.099
Mof_H 	H 	0.8251	0.4203	0.7753	0.067
Mof_C 	C 	0.80212	0.44386	0.77131	0.003
Mof_H 	H 	0.8076	0.4495	0.7582	0.05
Mof_C 	C 	0.81665	0.39945	0.81209	-0.034
Mof_C 	C 	0.80324	0.38488	0.82344	0.002
Mof_H 	H 	0.7881	0.3868	0.8234	0.029
Mof_C 	C 	0.81248	0.36746	0.83493	-0.131
Mof_H 	H 	0.8035	0.3577	0.8425	0.081
Mof_C 	C 	0.83512	0.3646	0.83505	0.118
Mof_C 	C 	0.84852	0.37917	0.8237	-0.131
Mof_H 	H 	0.8637	0.3773	0.8238	0.08
Mof_C 	C 	0.83929	0.39659	0.81221	0.002
Mof_H 	H 	0.8483	0.4063	0.8046	0.03
Mof_O 	O 	0.74529	0.98284	0.22161	-0.413
Mof_O 	O 	0.71933	0.97515	0.25032	-0.36
Mof_C 	C 	0.7301	0.97187	0.23223	0.272
Mof_C 	C 	0.71661	0.95297	0.21935	-0.041
Mof_C 	C 	0.72485	0.94457	0.1998	0.001
Mof_H 	H 	0.7374	0.9507	0.1935	0.044
Mof_C 	C 	0.71437	0.92706	0.18958	-0.098
Mof_H 	H 	0.7199	0.9214	0.1765	0.065
Mof_C 	C 	0.69564	0.91795	0.19892	0.058
Mof_C 	C 	0.6874	0.92635	0.21847	-0.099
Mof_H 	H 	0.6749	0.9203	0.2247	0.067
Mof_C 	C 	0.69788	0.94386	0.22869	0.003
Mof_H 	H 	0.6924	0.9495	0.2418	0.05
Mof_C 	C 	0.68335	0.89945	0.18791	-0.034
Mof_C 	C 	0.69676	0.88488	0.17656	0.002
Mof_H 	H 	0.7119	0.8868	0.1766	0.029
Mof_C 	C 	0.68752	0.86746	0.16507	-0.131
Mof_H 	H 	0.6965	0.8577	0.1575	0.081
Mof_C 	C 	0.66488	0.8646	0.16495	0.118
Mof_C 	C 	0.65148	0.87917	0.1763	-0.131
Mof_H 	H 	0.6363	0.8773	0.1762	0.08
Mof_C 	C 	0.66071	0.89659	0.18779	0.002
Mof_H 	H 	0.6517	0.9063	0.1954	0.03
Mof_O 	O 	0.74529	0.48284	0.72161	-0.413
Mof_O 	O 	0.71933	0.47515	0.75032	-0.36
Mof_C 	C 	0.7301	0.47187	0.73223	0.272
Mof_C 	C 	0.71661	0.45297	0.71935	-0.041
Mof_C 	C 	0.72485	0.44457	0.6998	0.001
Mof_H 	H 	0.7374	0.4507	0.6935	0.044
Mof_C 	C 	0.71437	0.42706	0.68958	-0.098
Mof_H 	H 	0.7199	0.4214	0.6765	0.065
Mof_C 	C 	0.69564	0.41795	0.69892	0.058
Mof_C 	C 	0.6874	0.42635	0.71847	-0.099
Mof_H 	H 	0.6749	0.4203	0.7247	0.067
Mof_C 	C 	0.69788	0.44386	0.72869	0.003
Mof_H 	H 	0.6924	0.4495	0.7418	0.05
Mof_C 	C 	0.68335	0.39945	0.68791	-0.034
Mof_C 	C 	0.69676	0.38488	0.67656	0.002
Mof_H 	H 	0.7119	0.3868	0.6766	0.029
Mof_C 	C 	0.68752	0.36746	0.66507	-0.131
Mof_H 	H 	0.6965	0.3577	0.6575	0.081
Mof_C 	C 	0.66488	0.3646	0.66495	0.118
Mof_C 	C 	0.65148	0.37917	0.6763	-0.131
Mof_H 	H 	0.6363	0.3773	0.6762	0.08
Mof_C 	C 	0.66071	0.39659	0.68779	0.002
Mof_H 	H 	0.6517	0.4063	0.6954	0.03
Mof_O 	O 	0.24529	0.98284	0.72161	-0.413
Mof_O 	O 	0.21933	0.97515	0.75032	-0.36
Mof_C 	C 	0.2301	0.97187	0.73223	0.272
Mof_C 	C 	0.21661	0.95297	0.71935	-0.041
Mof_C 	C 	0.22485	0.94457	0.6998	0.001
Mof_H 	H 	0.2374	0.9507	0.6935	0.044
Mof_C 	C 	0.21437	0.92706	0.68958	-0.098
Mof_H 	H 	0.2199	0.9214	0.6765	0.065
Mof_C 	C 	0.19564	0.91795	0.69892	0.058
Mof_C 	C 	0.1874	0.92635	0.71847	-0.099
Mof_H 	H 	0.1749	0.9203	0.7247	0.067
Mof_C 	C 	0.19788	0.94386	0.72869	0.003
Mof_H 	H 	0.1924	0.9495	0.7418	0.05
Mof_C 	C 	0.18335	0.89945	0.68791	-0.034
Mof_C 	C 	0.19676	0.88488	0.67656	0.002
Mof_H 	H 	0.2119	0.8868	0.6766	0.029
Mof_C 	C 	0.18752	0.86746	0.66507	-0.131
Mof_H 	H 	0.1965	0.8577	0.6575	0.081
Mof_C 	C 	0.16488	0.8646	0.66495	0.118
Mof_C 	C 	0.15148	0.87917	0.6763	-0.131
Mof_H 	H 	0.1363	0.8773	0.6762	0.08
Mof_C 	C 	0.16071	0.89659	0.68779	0.002
Mof_H 	H 	0.1517	0.9063	0.6954	0.03
Mof_O 	O 	0.24529	0.48284	0.22161	-0.413
Mof_O 	O 	0.21933	0.47515	0.25032	-0.36
Mof_C 	C 	0.2301	0.47187	0.23223	0.272
Mof_C 	C 	0.21661	0.45297	0.21935	-0.041
Mof_C 	C 	0.22485	0.44457	0.1998	0.001
Mof_H 	H 	0.2374	0.4507	0.1935	0.044
Mof_C 	C 	0.21437	0.42706	0.18958	-0.098
Mof_H 	H 	0.2199	0.4214	0.1765	0.065
Mof_C 	C 	0.19564	0.41795	0.19892	0.058
Mof_C 	C 	0.1874	0.42635	0.21847	-0.099
Mof_H 	H 	0.1749	0.4203	0.2247	0.067
Mof_C 	C 	0.19788	0.44386	0.22869	0.003
Mof_H 	H 	0.1924	0.4495	0.2418	0.05
Mof_C 	C 	0.18335	0.39945	0.18791	-0.034
Mof_C 	C 	0.19676	0.38488	0.17656	0.002
Mof_H 	H 	0.2119	0.3868	0.1766	0.029
Mof_C 	C 	0.18752	0.36746	0.16507	-0.131
Mof_H 	H 	0.1965	0.3577	0.1575	0.081
Mof_C 	C 	0.16488	0.3646	0.16495	0.118
Mof_C 	C 	0.15148	0.37917	0.1763	-0.131
Mof_H 	H 	0.1363	0.3773	0.1762	0.08
Mof_C 	C 	0.16071	0.39659	0.18779	0.002
Mof_H 	H 	0.1517	0.4063	0.1954	0.03
Mof_O 	O 	0.25471	0.01716	0.22161	-0.413
Mof_O 	O 	0.28067	0.02485	0.25032	-0.36
Mof_C 	C 	0.2699	0.02813	0.23223	0.272
Mof_C 	C 	0.28339	0.04703	0.21935	-0.041
Mof_C 	C 	0.27515	0.05543	0.1998	0.001
Mof_H 	H 	0.2626	0.0493	0.1935	0.044
Mof_C 	C 	0.28563	0.07294	0.18958	-0.098
Mof_H 	H 	0.2801	0.0786	0.1765	0.065
Mof_C 	C 	0.30436	0.08205	0.19892	0.058
Mof_C 	C 	0.3126	0.07365	0.21847	-0.099
Mof_H 	H 	0.3251	0.0797	0.2247	0.067
Mof_C 	C 	0.30212	0.05614	0.22869	0.003
Mof_H 	H 	0.3076	0.0505	0.2418	0.05
Mof_C 	C 	0.31665	0.10055	0.18791	-0.034
Mof_C 	C 	0.30324	0.11512	0.17656	0.002
Mof_H 	H 	0.2881	0.1132	0.1766	0.029
Mof_C 	C 	0.31248	0.13254	0.16507	-0.131
Mof_H 	H 	0.3035	0.1423	0.1575	0.081
Mof_C 	C 	0.33512	0.1354	0.16495	0.118
Mof_C 	C 	0.34852	0.12083	0.1763	-0.131
Mof_H 	H 	0.3637	0.1227	0.1762	0.08
Mof_C 	C 	0.33929	0.10341	0.18779	0.002
Mof_H 	H 	0.3483	0.0937	0.1954	0.03
Mof_O 	O 	0.25471	0.51716	0.72161	-0.413
Mof_O 	O 	0.28067	0.52485	0.75032	-0.36
Mof_C 	C 	0.2699	0.52813	0.73223	0.272
Mof_C 	C 	0.28339	0.54703	0.71935	-0.041
Mof_C 	C 	0.27515	0.55543	0.6998	0.001
Mof_H 	H 	0.2626	0.5493	0.6935	0.044
Mof_C 	C 	0.28563	0.57294	0.68958	-0.098
Mof_H 	H 	0.2801	0.5786	0.6765	0.065
Mof_C 	C 	0.30436	0.58205	0.69892	0.058
Mof_C 	C 	0.3126	0.57365	0.71847	-0.099
Mof_H 	H 	0.3251	0.5797	0.7247	0.067
Mof_C 	C 	0.30212	0.55614	0.72869	0.003
Mof_H 	H 	0.3076	0.5505	0.7418	0.05
Mof_C 	C 	0.31665	0.60055	0.68791	-0.034
Mof_C 	C 	0.30324	0.61512	0.67656	0.002
Mof_H 	H 	0.2881	0.6132	0.6766	0.029
Mof_C 	C 	0.31248	0.63254	0.66507	-0.131
Mof_H 	H 	0.3035	0.6423	0.6575	0.081
Mof_C 	C 	0.33512	0.6354	0.66495	0.118
Mof_C 	C 	0.34852	0.62083	0.6763	-0.131
Mof_H 	H 	0.3637	0.6227	0.6762	0.08
Mof_C 	C 	0.33929	0.60341	0.68779	0.002
Mof_H 	H 	0.3483	0.5937	0.6954	0.03
Mof_O 	O 	0.75471	0.01716	0.72161	-0.413
Mof_O 	O 	0.78067	0.02485	0.75032	-0.36
Mof_C 	C 	0.7699	0.02813	0.73223	0.272
Mof_C 	C 	0.78339	0.04703	0.71935	-0.041
Mof_C 	C 	0.77515	0.05543	0.6998	0.001
Mof_H 	H 	0.7626	0.0493	0.6935	0.044
Mof_C 	C 	0.78563	0.07294	0.68958	-0.098
Mof_H 	H 	0.7801	0.0786	0.6765	0.065
Mof_C 	C 	0.80436	0.08205	0.69892	0.058
Mof_C 	C 	0.8126	0.07365	0.71847	-0.099
Mof_H 	H 	0.8251	0.0797	0.7247	0.067
Mof_C 	C 	0.80212	0.05614	0.72869	0.003
Mof_H 	H 	0.8076	0.0505	0.7418	0.05
Mof_C 	C 	0.81665	0.10055	0.68791	-0.034
Mof_C 	C 	0.80324	0.11512	0.67656	0.002
Mof_H 	H 	0.7881	0.1132	0.6766	0.029
Mof_C 	C 	0.81248	0.13254	0.66507	-0.131
Mof_H 	H 	0.8035	0.1423	0.6575	0.081
Mof_C 	C 	0.83512	0.1354	0.66495	0.118
Mof_C 	C 	0.84852	0.12083	0.6763	-0.131
Mof_H 	H 	0.8637	0.1227	0.6762	0.08
Mof_C 	C 	0.83929	0.10341	0.68779	0.002
Mof_H 	H 	0.8483	0.0937	0.6954	0.03
Mof_O 	O 	0.75471	0.51716	0.22161	-0.413
Mof_O 	O 	0.78067	0.52485	0.25032	-0.36
Mof_C 	C 	0.7699	0.52813	0.23223	0.272
Mof_C 	C 	0.78339	0.54703	0.21935	-0.041
Mof_C 	C 	0.77515	0.55543	0.1998	0.001
Mof_H 	H 	0.7626	0.5493	0.1935	0.044
Mof_C 	C 	0.78563	0.57294	0.18958	-0.098
Mof_H 	H 	0.7801	0.5786	0.1765	0.065
Mof_C 	C 	0.80436	0.58205	0.19892	0.058
Mof_C 	C 	0.8126	0.57365	0.21847	-0.099
Mof_H 	H 	0.8251	0.5797	0.2247	0.067
Mof_C 	C 	0.80212	0.55614	0.22869	0.003
Mof_H 	H 	0.8076	0.5505	0.2418	0.05
Mof_C 	C 	0.81665	0.60055	0.18791	-0.034
Mof_C 	C 	0.80324	0.61512	0.17656	0.002
Mof_H 	H 	0.7881	0.6132	0.1766	0.029
Mof_C 	C 	0.81248	0.63254	0.16507	-0.131
Mof_H 	H 	0.8035	0.6423	0.1575	0.081
Mof_C 	C 	0.83512	0.6354	0.16495	0.118
Mof_C 	C 	0.84852	0.62083	0.1763	-0.131
Mof_H 	H 	0.8637	0.6227	0.1762	0.08
Mof_C 	C 	0.83929	0.60341	0.18779	0.002
Mof_H 	H 	0.8483	0.5937	0.1954	0.03
Mof_O 	O 	0.01716	0.22161	0.25471	-0.413
Mof_O 	O 	0.02485	0.25032	0.28067	-0.36
Mof_C 	C 	0.02813	0.23223	0.2699	0.272
Mof_C 	C 	0.04703	0.21935	0.28339	-0.041
Mof_C 	C 	0.05543	0.1998	0.27515	0.001
Mof_H 	H 	0.0493	0.1935	0.2626	0.044
Mof_C 	C 	0.07294	0.18958	0.28563	-0.098
Mof_H 	H 	0.0786	0.1765	0.2801	0.065
Mof_C 	C 	0.08205	0.19892	0.30436	0.058
Mof_C 	C 	0.07365	0.21847	0.3126	-0.099
Mof_H 	H 	0.0797	0.2247	0.3251	0.067
Mof_C 	C 	0.05614	0.22869	0.30212	0.003
Mof_H 	H 	0.0505	0.2418	0.3076	0.05
Mof_C 	C 	0.10055	0.18791	0.31665	-0.034
Mof_C 	C 	0.11512	0.17656	0.30324	0.002
Mof_H 	H 	0.1132	0.1766	0.2881	0.029
Mof_C 	C 	0.13254	0.16507	0.31248	-0.131
Mof_H 	H 	0.1423	0.1575	0.3035	0.081
Mof_C 	C 	0.1354	0.16495	0.33512	0.118
Mof_C 	C 	0.12083	0.1763	0.34852	-0.131
Mof_H 	H 	0.1227	0.1762	0.3637	0.08
Mof_C 	C 	0.10341	0.18779	0.33929	0.002
Mof_H 	H 	0.0937	0.1954	0.3483	0.03
Mof_O 	O 	0.01716	0.72161	0.75471	-0.413
Mof_O 	O 	0.02485	0.75032	0.78067	-0.36
Mof_C 	C 	0.02813	0.73223	0.7699	0.272
Mof_C 	C 	0.04703	0.71935	0.78339	-0.041
Mof_C 	C 	0.05543	0.6998	0.77515	0.001
Mof_H 	H 	0.0493	0.6935	0.7626	0.044
Mof_C 	C 	0.07294	0.68958	0.78563	-0.098
Mof_H 	H 	0.0786	0.6765	0.7801	0.065
Mof_C 	C 	0.08205	0.69892	0.80436	0.058
Mof_C 	C 	0.07365	0.71847	0.8126	-0.099
Mof_H 	H 	0.0797	0.7247	0.8251	0.067
Mof_C 	C 	0.05614	0.72869	0.80212	0.003
Mof_H 	H 	0.0505	0.7418	0.8076	0.05
Mof_C 	C 	0.10055	0.68791	0.81665	-0.034
Mof_C 	C 	0.11512	0.67656	0.80324	0.002
Mof_H 	H 	0.1132	0.6766	0.7881	0.029
Mof_C 	C 	0.13254	0.66507	0.81248	-0.131
Mof_H 	H 	0.1423	0.6575	0.8035	0.081
Mof_C 	C 	0.1354	0.66495	0.83512	0.118
Mof_C 	C 	0.12083	0.6763	0.84852	-0.131
Mof_H 	H 	0.1227	0.6762	0.8637	0.08
Mof_C 	C 	0.10341	0.68779	0.83929	0.002
Mof_H 	H 	0.0937	0.6954	0.8483	0.03
Mof_O 	O 	0.51716	0.22161	0.75471	-0.413
Mof_O 	O 	0.52485	0.25032	0.78067	-0.36
Mof_C 	C 	0.52813	0.23223	0.7699	0.272
Mof_C 	C 	0.54703	0.21935	0.78339	-0.041
Mof_C 	C 	0.55543	0.1998	0.77515	0.001
Mof_H 	H 	0.5493	0.1935	0.7626	0.044
Mof_C 	C 	0.57294	0.18958	0.78563	-0.098
Mof_H 	H 	0.5786	0.1765	0.7801	0.065
Mof_C 	C 	0.58205	0.19892	0.80436	0.058
Mof_C 	C 	0.57365	0.21847	0.8126	-0.099
Mof_H 	H 	0.5797	0.2247	0.8251	0.067
Mof_C 	C 	0.55614	0.22869	0.80212	0.003
Mof_H 	H 	0.5505	0.2418	0.8076	0.05
Mof_C 	C 	0.60055	0.18791	0.81665	-0.034
Mof_C 	C 	0.61512	0.17656	0.80324	0.002
Mof_H 	H 	0.6132	0.1766	0.7881	0.029
Mof_C 	C 	0.63254	0.16507	0.81248	-0.131
Mof_H 	H 	0.6423	0.1575	0.8035	0.081
Mof_C 	C 	0.6354	0.16495	0.83512	0.118
Mof_C 	C 	0.62083	0.1763	0.84852	-0.131
Mof_H 	H 	0.6227	0.1762	0.8637	0.08
Mof_C 	C 	0.60341	0.18779	0.83929	0.002
Mof_H 	H 	0.5937	0.1954	0.8483	0.03
Mof_O 	O 	0.51716	0.72161	0.25471	-0.413
Mof_O 	O 	0.52485	0.75032	0.28067	-0.36
Mof_C 	C 	0.52813	0.73223	0.2699	0.272
Mof_C 	C 	0.54703	0.71935	0.28339	-0.041
Mof_C 	C 	0.55543	0.6998	0.27515	0.001
Mof_H 	H 	0.5493	0.6935	0.2626	0.044
Mof_C 	C 	0.57294	0.68958	0.28563	-0.098
Mof_H 	H 	0.5786	0.6765	0.2801	0.065
Mof_C 	C 	0.58205	0.69892	0.30436	0.058
Mof_C 	C 	0.57365	0.71847	0.3126	-0.099
Mof_H 	H 	0.5797	0.7247	0.3251	0.067
Mof_C 	C 	0.55614	0.72869	0.30212	0.003
Mof_H 	H 	0.5505	0.7418	0.3076	0.05
Mof_C 	C 	0.60055	0.68791	0.31665	-0.034
Mof_C 	C 	0.61512	0.67656	0.30324	0.002
Mof_H 	H 	0.6132	0.6766	0.2881	0.029
Mof_C 	C 	0.63254	0.66507	0.31248	-0.131
Mof_H 	H 	0.6423	0.6575	0.3035	0.081
Mof_C 	C 	0.6354	0.66495	0.33512	0.118
Mof_C 	C 	0.62083	0.6763	0.34852	-0.131
Mof_H 	H 	0.6227	0.6762	0.3637	0.08
Mof_C 	C 	0.60341	0.68779	0.33929	0.002
Mof_H 	H 	0.5937	0.6954	0.3483	0.03
Mof_O 	O 	0.98284	0.22161	0.74529	-0.413
Mof_O 	O 	0.97515	0.25032	0.71933	-0.36
Mof_C 	C 	0.97187	0.23223	0.7301	0.272
Mof_C 	C 	0.95297	0.21935	0.71661	-0.041
Mof_C 	C 	0.94457	0.1998	0.72485	0.001
Mof_H 	H 	0.9507	0.1935	0.7374	0.044
Mof_C 	C 	0.92706	0.18958	0.71437	-0.098
Mof_H 	H 	0.9214	0.1765	0.7199	0.065
Mof_C 	C 	0.91795	0.19892	0.69564	0.058
Mof_C 	C 	0.92635	0.21847	0.6874	-0.099
Mof_H 	H 	0.9203	0.2247	0.6749	0.067
Mof_C 	C 	0.94386	0.22869	0.69788	0.003
Mof_H 	H 	0.9495	0.2418	0.6924	0.05
Mof_C 	C 	0.89945	0.18791	0.68335	-0.034
Mof_C 	C 	0.88488	0.17656	0.69676	0.002
Mof_H 	H 	0.8868	0.1766	0.7119	0.029
Mof_C 	C 	0.86746	0.16507	0.68752	-0.131
Mof_H 	H 	0.8577	0.1575	0.6965	0.081
Mof_C 	C 	0.8646	0.16495	0.66488	0.118
Mof_C 	C 	0.87917	0.1763	0.65148	-0.131
Mof_H 	H 	0.8773	0.1762	0.6363	0.08
Mof_C 	C 	0.89659	0.18779	0.66071	0.002
Mof_H 	H 	0.9063	0.1954	0.6517	0.03
Mof_O 	O 	0.98284	0.72161	0.24529	-0.413
Mof_O 	O 	0.97515	0.75032	0.21933	-0.36
Mof_C 	C 	0.97187	0.73223	0.2301	0.272
Mof_C 	C 	0.95297	0.71935	0.21661	-0.041
Mof_C 	C 	0.94457	0.6998	0.22485	0.001
Mof_H 	H 	0.9507	0.6935	0.2374	0.044
Mof_C 	C 	0.92706	0.68958	0.21437	-0.098
Mof_H 	H 	0.9214	0.6765	0.2199	0.065
Mof_C 	C 	0.91795	0.69892	0.19564	0.058
Mof_C 	C 	0.92635	0.71847	0.1874	-0.099
Mof_H 	H 	0.9203	0.7247	0.1749	0.067
Mof_C 	C 	0.94386	0.72869	0.19788	0.003
Mof_H 	H 	0.9495	0.7418	0.1924	0.05
Mof_C 	C 	0.89945	0.68791	0.18335	-0.034
Mof_C 	C 	0.88488	0.67656	0.19676	0.002
Mof_H 	H 	0.8868	0.6766	0.2119	0.029
Mof_C 	C 	0.86746	0.66507	0.18752	-0.131
Mof_H 	H 	0.8577	0.6575	0.1965	0.081
Mof_C 	C 	0.8646	0.66495	0.16488	0.118
Mof_C 	C 	0.87917	0.6763	0.15148	-0.131
Mof_H 	H 	0.8773	0.6762	0.1363	0.08
Mof_C 	C 	0.89659	0.68779	0.16071	0.002
Mof_H 	H 	0.9063	0.6954	0.1517	0.03
Mof_O 	O 	0.48284	0.22161	0.24529	-0.413
Mof_O 	O 	0.47515	0.25032	0.21933	-0.36
Mof_C 	C 	0.47187	0.23223	0.2301	0.272
Mof_C 	C 	0.45297	0.21935	0.21661	-0.041
Mof_C 	C 	0.44457	0.1998	0.22485	0.001
Mof_H 	H 	0.4507	0.1935	0.2374	0.044
Mof_C 	C 	0.42706	0.18958	0.21437	-0.098
Mof_H 	H 	0.4214	0.1765	0.2199	0.065
Mof_C 	C 	0.41795	0.19892	0.19564	0.058
Mof_C 	C 	0.42635	0.21847	0.1874	-0.099
Mof_H 	H 	0.4203	0.2247	0.1749	0.067
Mof_C 	C 	0.44386	0.22869	0.19788	0.003
Mof_H 	H 	0.4495	0.2418	0.1924	0.05
Mof_C 	C 	0.39945	0.18791	0.18335	-0.034
Mof_C 	C 	0.38488	0.17656	0.19676	0.002
Mof_H 	H 	0.3868	0.1766	0.2119	0.029
Mof_C 	C 	0.36746	0.16507	0.18752	-0.131
Mof_H 	H 	0.3577	0.1575	0.1965	0.081
Mof_C 	C 	0.3646	0.16495	0.16488	0.118
Mof_C 	C 	0.37917	0.1763	0.15148	-0.131
Mof_H 	H 	0.3773	0.1762	0.1363	0.08
Mof_C 	C 	0.39659	0.18779	0.16071	0.002
Mof_H 	H 	0.4063	0.1954	0.1517	0.03
Mof_O 	O 	0.48284	0.72161	0.74529	-0.413
Mof_O 	O 	0.47515	0.75032	0.71933	-0.36
Mof_C 	C 	0.47187	0.73223	0.7301	0.272
Mof_C 	C 	0.45297	0.71935	0.71661	-0.041
Mof_C 	C 	0.44457	0.6998	0.72485	0.001
Mof_H 	H 	0.4507	0.6935	0.7374	0.044
Mof_C 	C 	0.42706	0.68958	0.71437	-0.098
Mof_H 	H 	0.4214	0.6765	0.7199	0.065
Mof_C 	C 	0.41795	0.69892	0.69564	0.058
Mof_C 	C 	0.42635	0.71847	0.6874	-0.099
Mof_H 	H 	0.4203	0.7247	0.6749	0.067
Mof_C 	C 	0.44386	0.72869	0.69788	0.003
Mof_H 	H 	0.4495	0.7418	0.6924	0.05
Mof_C 	C 	0.39945	0.68791	0.68335	-0.034
Mof_C 	C 	0.38488	0.67656	0.69676	0.002
Mof_H 	H 	0.3868	0.6766	0.7119	0.029
Mof_C 	C 	0.36746	0.66507	0.68752	-0.131
Mof_H 	H 	0.3577	0.6575	0.6965	0.081
Mof_C 	C 	0.3646	0.66495	0.66488	0.118
Mof_C 	C 	0.37917	0.6763	0.65148	-0.131
Mof_H 	H 	0.3773	0.6762	0.6363	0.08
Mof_C 	C 	0.39659	0.68779	0.66071	0.002
Mof_H 	H 	0.4063	0.6954	0.6517	0.03
Mof_O 	O 	0.98284	0.77839	0.25471	-0.413
Mof_O 	O 	0.97515	0.74968	0.28067	-0.36
Mof_C 	C 	0.97187	0.76777	0.2699	0.272
Mof_C 	C 	0.95297	0.78065	0.28339	-0.041
Mof_C 	C 	0.94457	0.8002	0.27515	0.001
Mof_H 	H 	0.9507	0.8065	0.2626	0.044
Mof_C 	C 	0.92706	0.81042	0.28563	-0.098
Mof_H 	H 	0.9214	0.8235	0.2801	0.065
Mof_C 	C 	0.91795	0.80108	0.30436	0.058
Mof_C 	C 	0.92635	0.78153	0.3126	-0.099
Mof_H 	H 	0.9203	0.7753	0.3251	0.067
Mof_C 	C 	0.94386	0.77131	0.30212	0.003
Mof_H 	H 	0.9495	0.7582	0.3076	0.05
Mof_C 	C 	0.89945	0.81209	0.31665	-0.034
Mof_C 	C 	0.88488	0.82344	0.30324	0.002
Mof_H 	H 	0.8868	0.8234	0.2881	0.029
Mof_C 	C 	0.86746	0.83493	0.31248	-0.131
Mof_H 	H 	0.8577	0.8425	0.3035	0.081
Mof_C 	C 	0.8646	0.83505	0.33512	0.118
Mof_C 	C 	0.87917	0.8237	0.34852	-0.131
Mof_H 	H 	0.8773	0.8238	0.3637	0.08
Mof_C 	C 	0.89659	0.81221	0.33929	0.002
Mof_H 	H 	0.9063	0.8046	0.3483	0.03
Mof_O 	O 	0.98284	0.27839	0.75471	-0.413
Mof_O 	O 	0.97515	0.24968	0.78067	-0.36
Mof_C 	C 	0.97187	0.26777	0.7699	0.272
Mof_C 	C 	0.95297	0.28065	0.78339	-0.041
Mof_C 	C 	0.94457	0.3002	0.77515	0.001
Mof_H 	H 	0.9507	0.3065	0.7626	0.044
Mof_C 	C 	0.92706	0.31042	0.78563	-0.098
Mof_H 	H 	0.9214	0.3235	0.7801	0.065
Mof_C 	C 	0.91795	0.30108	0.80436	0.058
Mof_C 	C 	0.92635	0.28153	0.8126	-0.099
Mof_H 	H 	0.9203	0.2753	0.8251	0.067
Mof_C 	C 	0.94386	0.27131	0.80212	0.003
Mof_H 	H 	0.9495	0.2582	0.8076	0.05
Mof_C 	C 	0.89945	0.31209	0.81665	-0.034
Mof_C 	C 	0.88488	0.32344	0.80324	0.002
Mof_H 	H 	0.8868	0.3234	0.7881	0.029
Mof_C 	C 	0.86746	0.33493	0.81248	-0.131
Mof_H 	H 	0.8577	0.3425	0.8035	0.081
Mof_C 	C 	0.8646	0.33505	0.83512	0.118
Mof_C 	C 	0.87917	0.3237	0.84852	-0.131
Mof_H 	H 	0.8773	0.3238	0.8637	0.08
Mof_C 	C 	0.89659	0.31221	0.83929	0.002
Mof_H 	H 	0.9063	0.3046	0.8483	0.03
Mof_O 	O 	0.48284	0.77839	0.75471	-0.413
Mof_O 	O 	0.47515	0.74968	0.78067	-0.36
Mof_C 	C 	0.47187	0.76777	0.7699	0.272
Mof_C 	C 	0.45297	0.78065	0.78339	-0.041
Mof_C 	C 	0.44457	0.8002	0.77515	0.001
Mof_H 	H 	0.4507	0.8065	0.7626	0.044
Mof_C 	C 	0.42706	0.81042	0.78563	-0.098
Mof_H 	H 	0.4214	0.8235	0.7801	0.065
Mof_C 	C 	0.41795	0.80108	0.80436	0.058
Mof_C 	C 	0.42635	0.78153	0.8126	-0.099
Mof_H 	H 	0.4203	0.7753	0.8251	0.067
Mof_C 	C 	0.44386	0.77131	0.80212	0.003
Mof_H 	H 	0.4495	0.7582	0.8076	0.05
Mof_C 	C 	0.39945	0.81209	0.81665	-0.034
Mof_C 	C 	0.38488	0.82344	0.80324	0.002
Mof_H 	H 	0.3868	0.8234	0.7881	0.029
Mof_C 	C 	0.36746	0.83493	0.81248	-0.131
Mof_H 	H 	0.3577	0.8425	0.8035	0.081
Mof_C 	C 	0.3646	0.83505	0.83512	0.118
Mof_C 	C 	0.37917	0.8237	0.84852	-0.131
Mof_H 	H 	0.3773	0.8238	0.8637	0.08
Mof_C 	C 	0.39659	0.81221	0.83929	0.002
Mof_H 	H 	0.4063	0.8046	0.8483	0.03
Mof_O 	O 	0.48284	0.27839	0.25471	-0.413
Mof_O 	O 	0.47515	0.24968	0.28067	-0.36
Mof_C 	C 	0.47187	0.26777	0.2699	0.272
Mof_C 	C 	0.45297	0.28065	0.28339	-0.041
Mof_C 	C 	0.44457	0.3002	0.27515	0.001
Mof_H 	H 	0.4507	0.3065	0.2626	0.044
Mof_C 	C 	0.42706	0.31042	0.28563	-0.098
Mof_H 	H 	0.4214	0.3235	0.2801	0.065
Mof_C 	C 	0.41795	0.30108	0.30436	0.058
Mof_C 	C 	0.42635	0.28153	0.3126	-0.099
Mof_H 	H 	0.4203	0.2753	0.3251	0.067
Mof_C 	C 	0.44386	0.27131	0.30212	0.003
Mof_H 	H 	0.4495	0.2582	0.3076	0.05
Mof_C 	C 	0.39945	0.31209	0.31665	-0.034
Mof_C 	C 	0.38488	0.32344	0.30324	0.002
Mof_H 	H 	0.3868	0.3234	0.2881	0.029
Mof_C 	C 	0.36746	0.33493	0.31248	-0.131
Mof_H 	H 	0.3577	0.3425	0.3035	0.081
Mof_C 	C 	0.3646	0.33505	0.33512	0.118
Mof_C 	C 	0.37917	0.3237	0.34852	-0.131
Mof_H 	H 	0.3773	0.3238	0.3637	0.08
Mof_C 	C 	0.39659	0.31221	0.33929	0.002
Mof_H 	H 	0.4063	0.3046	0.3483	0.03
Mof_O 	O 	0.01716	0.77839	0.74529	-0.413
Mof_O 	O 	0.02485	0.74968	0.71933	-0.36
Mof_C 	C 	0.02813	0.76777	0.7301	0.272
Mof_C 	C 	0.04703	0.78065	0.71661	-0.041
Mof_C 	C 	0.05543	0.8002	0.72485	0.001
Mof_H 	H 	0.0493	0.8065	0.7374	0.044
Mof_C 	C 	0.07294	0.81042	0.71437	-0.098
Mof_H 	H 	0.0786	0.8235	0.7199	0.065
Mof_C 	C 	0.08205	0.80108	0.69564	0.058
Mof_C 	C 	0.07365	0.78153	0.6874	-0.099
Mof_H 	H 	0.0797	0.7753	0.6749	0.067
Mof_C 	C 	0.05614	0.77131	0.69788	0.003
Mof_H 	H 	0.0505	0.7582	0.6924	0.05
Mof_C 	C 	0.10055	0.81209	0.68335	-0.034
Mof_C 	C 	0.11512	0.82344	0.69676	0.002
Mof_H 	H 	0.1132	0.8234	0.7119	0.029
Mof_C 	C 	0.13254	0.83493	0.68752	-0.131
Mof_H 	H 	0.1423	0.8425	0.6965	0.081
Mof_C 	C 	0.1354	0.83505	0.66488	0.118
Mof_C 	C 	0.12083	0.8237	0.65148	-0.131
Mof_H 	H 	0.1227	0.8238	0.6363	0.08
Mof_C 	C 	0.10341	0.81221	0.66071	0.002
Mof_H 	H 	0.0937	0.8046	0.6517	0.03
Mof_O 	O 	0.01716	0.27839	0.24529	-0.413
Mof_O 	O 	0.02485	0.24968	0.21933	-0.36
Mof_C 	C 	0.02813	0.26777	0.2301	0.272
Mof_C 	C 	0.04703	0.28065	0.21661	-0.041
Mof_C 	C 	0.05543	0.3002	0.22485	0.001
Mof_H 	H 	0.0493	0.3065	0.2374	0.044
Mof_C 	C 	0.07294	0.31042	0.21437	-0.098
Mof_H 	H 	0.0786	0.3235	0.2199	0.065
Mof_C 	C 	0.08205	0.30108	0.19564	0.058
Mof_C 	C 	0.07365	0.28153	0.1874	-0.099
Mof_H 	H 	0.0797	0.2753	0.1749	0.067
Mof_C 	C 	0.05614	0.27131	0.19788	0.003
Mof_H 	H 	0.0505	0.2582	0.1924	0.05
Mof_C 	C 	0.10055	0.31209	0.18335	-0.034
Mof_C 	C 	0.11512	0.32344	0.19676	0.002
Mof_H 	H 	0.1132	0.3234	0.2119	0.029
Mof_C 	C 	0.13254	0.33493	0.18752	-0.131
Mof_H 	H 	0.1423	0.3425	0.1965	0.081
Mof_C 	C 	0.1354	0.33505	0.16488	0.118
Mof_C 	C 	0.12083	0.3237	0.15148	-0.131
Mof_H 	H 	0.1227	0.3238	0.1363	0.08
Mof_C 	C 	0.10341	0.31221	0.16071	0.002
Mof_H 	H 	0.0937	0.3046	0.1517	0.03
Mof_O 	O 	0.51716	0.77839	0.24529	-0.413
Mof_O 	O 	0.52485	0.74968	0.21933	-0.36
Mof_C 	C 	0.52813	0.76777	0.2301	0.272
Mof_C 	C 	0.54703	0.78065	0.21661	-0.041
Mof_C 	C 	0.55543	0.8002	0.22485	0.001
Mof_H 	H 	0.5493	0.8065	0.2374	0.044
Mof_C 	C 	0.57294	0.81042	0.21437	-0.098
Mof_H 	H 	0.5786	0.8235	0.2199	0.065
Mof_C 	C 	0.58205	0.80108	0.19564	0.058
Mof_C 	C 	0.57365	0.78153	0.1874	-0.099
Mof_H 	H 	0.5797	0.7753	0.1749	0.067
Mof_C 	C 	0.55614	0.77131	0.19788	0.003
Mof_H 	H 	0.5505	0.7582	0.1924	0.05
Mof_C 	C 	0.60055	0.81209	0.18335	-0.034
Mof_C 	C 	0.61512	0.82344	0.19676	0.002
Mof_H 	H 	0.6132	0.8234	0.2119	0.029
Mof_C 	C 	0.63254	0.83493	0.18752	-0.131
Mof_H 	H 	0.6423	0.8425	0.1965	0.081
Mof_C 	C 	0.6354	0.83505	0.16488	0.118
Mof_C 	C 	0.62083	0.8237	0.15148	-0.131
Mof_H 	H 	0.6227	0.8238	0.1363	0.08
Mof_C 	C 	0.60341	0.81221	0.16071	0.002
Mof_H 	H 	0.5937	0.8046	0.1517	0.03
Mof_O 	O 	0.51716	0.27839	0.74529	-0.413
Mof_O 	O 	0.52485	0.24968	0.71933	-0.36
Mof_C 	C 	0.52813	0.26777	0.7301	0.272
Mof_C 	C 	0.54703	0.28065	0.71661	-0.041
Mof_C 	C 	0.55543	0.3002	0.72485	0.001
Mof_H 	H 	0.5493	0.3065	0.7374	0.044
Mof_C 	C 	0.57294	0.31042	0.71437	-0.098
Mof_H 	H 	0.5786	0.3235	0.7199	0.065
Mof_C 	C 	0.58205	0.30108	0.69564	0.058
Mof_C 	C 	0.57365	0.28153	0.6874	-0.099
Mof_H 	H 	0.5797	0.2753	0.6749	0.067
Mof_C 	C 	0.55614	0.27131	0.69788	0.003
Mof_H 	H 	0.5505	0.2582	0.6924	0.05
Mof_C 	C 	0.60055	0.31209	0.68335	-0.034
Mof_C 	C 	0.61512	0.32344	0.69676	0.002
Mof_H 	H 	0.6132	0.3234	0.7119	0.029
Mof_C 	C 	0.63254	0.33493	0.68752	-0.131
Mof_H 	H 	0.6423	0.3425	0.6965	0.081
Mof_C 	C 	0.6354	0.33505	0.66488	0.118
Mof_C 	C 	0.62083	0.3237	0.65148	-0.131
Mof_H 	H 	0.6227	0.3238	0.6363	0.08
Mof_C 	C 	0.60341	0.31221	0.66071	0.002
Mof_H 	H 	0.5937	0.3046	0.6517	0.03
Mof_O 	O 	0.22161	0.74529	0.98284	-0.413
Mof_O 	O 	0.25032	0.71933	0.97515	-0.36
Mof_C 	C 	0.23223	0.7301	0.97187	0.272
Mof_C 	C 	0.21935	0.71661	0.95297	-0.041
Mof_C 	C 	0.1998	0.72485	0.94457	0.001
Mof_H 	H 	0.1935	0.7374	0.9507	0.044
Mof_C 	C 	0.18958	0.71437	0.92706	-0.098
Mof_H 	H 	0.1765	0.7199	0.9214	0.065
Mof_C 	C 	0.19892	0.69564	0.91795	0.058
Mof_C 	C 	0.21847	0.6874	0.92635	-0.099
Mof_H 	H 	0.2247	0.6749	0.9203	0.067
Mof_C 	C 	0.22869	0.69788	0.94386	0.003
Mof_H 	H 	0.2418	0.6924	0.9495	0.05
Mof_C 	C 	0.18791	0.68335	0.89945	-0.034
Mof_C 	C 	0.17656	0.69676	0.88488	0.002
Mof_H 	H 	0.1766	0.7119	0.8868	0.029
Mof_C 	C 	0.16507	0.68752	0.86746	-0.131
Mof_H 	H 	0.1575	0.6965	0.8577	0.081
Mof_C 	C 	0.16495	0.66488	0.8646	0.118
Mof_C 	C 	0.1763	0.65148	0.87917	-0.131
Mof_H 	H 	0.1762	0.6363	0.8773	0.08
Mof_C 	C 	0.18779	0.66071	0.89659	0.002
Mof_H 	H 	0.1954	0.6517	0.9063	0.03
Mof_O 	O 	0.22161	0.24529	0.48284	-0.413
Mof_O 	O 	0.25032	0.21933	0.47515	-0.36
Mof_C 	C 	0.23223	0.2301	0.47187	0.272
Mof_C 	C 	0.21935	0.21661	0.45297	-0.041
Mof_C 	C 	0.1998	0.22485	0.44457	0.001
Mof_H 	H 	0.1935	0.2374	0.4507	0.044
Mof_C 	C 	0.18958	0.21437	0.42706	-0.098
Mof_H 	H 	0.1765	0.2199	0.4214	0.065
Mof_C 	C 	0.19892	0.19564	0.41795	0.058
Mof_C 	C 	0.21847	0.1874	0.42635	-0.099
Mof_H 	H 	0.2247	0.1749	0.4203	0.067
Mof_C 	C 	0.22869	0.19788	0.44386	0.003
Mof_H 	H 	0.2418	0.1924	0.4495	0.05
Mof_C 	C 	0.18791	0.18335	0.39945	-0.034
Mof_C 	C 	0.17656	0.19676	0.38488	0.002
Mof_H 	H 	0.1766	0.2119	0.3868	0.029
Mof_C 	C 	0.16507	0.18752	0.36746	-0.131
Mof_H 	H 	0.1575	0.1965	0.3577	0.081
Mof_C 	C 	0.16495	0.16488	0.3646	0.118
Mof_C 	C 	0.1763	0.15148	0.37917	-0.131
Mof_H 	H 	0.1762	0.1363	0.3773	0.08
Mof_C 	C 	0.18779	0.16071	0.39659	0.002
Mof_H 	H 	0.1954	0.1517	0.4063	0.03
Mof_O 	O 	0.72161	0.74529	0.48284	-0.413
Mof_O 	O 	0.75032	0.71933	0.47515	-0.36
Mof_C 	C 	0.73223	0.7301	0.47187	0.272
Mof_C 	C 	0.71935	0.71661	0.45297	-0.041
Mof_C 	C 	0.6998	0.72485	0.44457	0.001
Mof_H 	H 	0.6935	0.7374	0.4507	0.044
Mof_C 	C 	0.68958	0.71437	0.42706	-0.098
Mof_H 	H 	0.6765	0.7199	0.4214	0.065
Mof_C 	C 	0.69892	0.69564	0.41795	0.058
Mof_C 	C 	0.71847	0.6874	0.42635	-0.099
Mof_H 	H 	0.7247	0.6749	0.4203	0.067
Mof_C 	C 	0.72869	0.69788	0.44386	0.003
Mof_H 	H 	0.7418	0.6924	0.4495	0.05
Mof_C 	C 	0.68791	0.68335	0.39945	-0.034
Mof_C 	C 	0.67656	0.69676	0.38488	0.002
Mof_H 	H 	0.6766	0.7119	0.3868	0.029
Mof_C 	C 	0.66507	0.68752	0.36746	-0.131
Mof_H 	H 	0.6575	0.6965	0.3577	0.081
Mof_C 	C 	0.66495	0.66488	0.3646	0.118
Mof_C 	C 	0.6763	0.65148	0.37917	-0.131
Mof_H 	H 	0.6762	0.6363	0.3773	0.08
Mof_C 	C 	0.68779	0.66071	0.39659	0.002
Mof_H 	H 	0.6954	0.6517	0.4063	0.03
Mof_O 	O 	0.72161	0.24529	0.98284	-0.413
Mof_O 	O 	0.75032	0.21933	0.97515	-0.36
Mof_C 	C 	0.73223	0.2301	0.97187	0.272
Mof_C 	C 	0.71935	0.21661	0.95297	-0.041
Mof_C 	C 	0.6998	0.22485	0.94457	0.001
Mof_H 	H 	0.6935	0.2374	0.9507	0.044
Mof_C 	C 	0.68958	0.21437	0.92706	-0.098
Mof_H 	H 	0.6765	0.2199	0.9214	0.065
Mof_C 	C 	0.69892	0.19564	0.91795	0.058
Mof_C 	C 	0.71847	0.1874	0.92635	-0.099
Mof_H 	H 	0.7247	0.1749	0.9203	0.067
Mof_C 	C 	0.72869	0.19788	0.94386	0.003
Mof_H 	H 	0.7418	0.1924	0.9495	0.05
Mof_C 	C 	0.68791	0.18335	0.89945	-0.034
Mof_C 	C 	0.67656	0.19676	0.88488	0.002
Mof_H 	H 	0.6766	0.2119	0.8868	0.029
Mof_C 	C 	0.66507	0.18752	0.86746	-0.131
Mof_H 	H 	0.6575	0.1965	0.8577	0.081
Mof_C 	C 	0.66495	0.16488	0.8646	0.118
Mof_C 	C 	0.6763	0.15148	0.87917	-0.131
Mof_H 	H 	0.6762	0.1363	0.8773	0.08
Mof_C 	C 	0.68779	0.16071	0.89659	0.002
Mof_H 	H 	0.6954	0.1517	0.9063	0.03
Mof_O 	O 	0.22161	0.25471	0.01716	-0.413
Mof_O 	O 	0.25032	0.28067	0.02485	-0.36
Mof_C 	C 	0.23223	0.2699	0.02813	0.272
Mof_C 	C 	0.21935	0.28339	0.04703	-0.041
Mof_C 	C 	0.1998	0.27515	0.05543	0.001
Mof_H 	H 	0.1935	0.2626	0.0493	0.044
Mof_C 	C 	0.18958	0.28563	0.07294	-0.098
Mof_H 	H 	0.1765	0.2801	0.0786	0.065
Mof_C 	C 	0.19892	0.30436	0.08205	0.058
Mof_C 	C 	0.21847	0.3126	0.07365	-0.099
Mof_H 	H 	0.2247	0.3251	0.0797	0.067
Mof_C 	C 	0.22869	0.30212	0.05614	0.003
Mof_H 	H 	0.2418	0.3076	0.0505	0.05
Mof_C 	C 	0.18791	0.31665	0.10055	-0.034
Mof_C 	C 	0.17656	0.30324	0.11512	0.002
Mof_H 	H 	0.1766	0.2881	0.1132	0.029
Mof_C 	C 	0.16507	0.31248	0.13254	-0.131
Mof_H 	H 	0.1575	0.3035	0.1423	0.081
Mof_C 	C 	0.16495	0.33512	0.1354	0.118
Mof_C 	C 	0.1763	0.34852	0.12083	-0.131
Mof_H 	H 	0.1762	0.3637	0.1227	0.08
Mof_C 	C 	0.18779	0.33929	0.10341	0.002
Mof_H 	H 	0.1954	0.3483	0.0937	0.03
Mof_O 	O 	0.22161	0.75471	0.51716	-0.413
Mof_O 	O 	0.25032	0.78067	0.52485	-0.36
Mof_C 	C 	0.23223	0.7699	0.52813	0.272
Mof_C 	C 	0.21935	0.78339	0.54703	-0.041
Mof_C 	C 	0.1998	0.77515	0.55543	0.001
Mof_H 	H 	0.1935	0.7626	0.5493	0.044
Mof_C 	C 	0.18958	0.78563	0.57294	-0.098
Mof_H 	H 	0.1765	0.7801	0.5786	0.065
Mof_C 	C 	0.19892	0.80436	0.58205	0.058
Mof_C 	C 	0.21847	0.8126	0.57365	-0.099
Mof_H 	H 	0.2247	0.8251	0.5797	0.067
Mof_C 	C 	0.22869	0.80212	0.55614	0.003
Mof_H 	H 	0.2418	0.8076	0.5505	0.05
Mof_C 	C 	0.18791	0.81665	0.60055	-0.034
Mof_C 	C 	0.17656	0.80324	0.61512	0.002
Mof_H 	H 	0.1766	0.7881	0.6132	0.029
Mof_C 	C 	0.16507	0.81248	0.63254	-0.131
Mof_H 	H 	0.1575	0.8035	0.6423	0.081
Mof_C 	C 	0.16495	0.83512	0.6354	0.118
Mof_C 	C 	0.1763	0.84852	0.62083	-0.131
Mof_H 	H 	0.1762	0.8637	0.6227	0.08
Mof_C 	C 	0.18779	0.83929	0.60341	0.002
Mof_H 	H 	0.1954	0.8483	0.5937	0.03
Mof_O 	O 	0.72161	0.25471	0.51716	-0.413
Mof_O 	O 	0.75032	0.28067	0.52485	-0.36
Mof_C 	C 	0.73223	0.2699	0.52813	0.272
Mof_C 	C 	0.71935	0.28339	0.54703	-0.041
Mof_C 	C 	0.6998	0.27515	0.55543	0.001
Mof_H 	H 	0.6935	0.2626	0.5493	0.044
Mof_C 	C 	0.68958	0.28563	0.57294	-0.098
Mof_H 	H 	0.6765	0.2801	0.5786	0.065
Mof_C 	C 	0.69892	0.30436	0.58205	0.058
Mof_C 	C 	0.71847	0.3126	0.57365	-0.099
Mof_H 	H 	0.7247	0.3251	0.5797	0.067
Mof_C 	C 	0.72869	0.30212	0.55614	0.003
Mof_H 	H 	0.7418	0.3076	0.5505	0.05
Mof_C 	C 	0.68791	0.31665	0.60055	-0.034
Mof_C 	C 	0.67656	0.30324	0.61512	0.002
Mof_H 	H 	0.6766	0.2881	0.6132	0.029
Mof_C 	C 	0.66507	0.31248	0.63254	-0.131
Mof_H 	H 	0.6575	0.3035	0.6423	0.081
Mof_C 	C 	0.66495	0.33512	0.6354	0.118
Mof_C 	C 	0.6763	0.34852	0.62083	-0.131
Mof_H 	H 	0.6762	0.3637	0.6227	0.08
Mof_C 	C 	0.68779	0.33929	0.60341	0.002
Mof_H 	H 	0.6954	0.3483	0.5937	0.03
Mof_O 	O 	0.72161	0.75471	0.01716	-0.413
Mof_O 	O 	0.75032	0.78067	0.02485	-0.36
Mof_C 	C 	0.73223	0.7699	0.02813	0.272
Mof_C 	C 	0.71935	0.78339	0.04703	-0.041
Mof_C 	C 	0.6998	0.77515	0.05543	0.001
Mof_H 	H 	0.6935	0.7626	0.0493	0.044
Mof_C 	C 	0.68958	0.78563	0.07294	-0.098
Mof_H 	H 	0.6765	0.7801	0.0786	0.065
Mof_C 	C 	0.69892	0.80436	0.08205	0.058
Mof_C 	C 	0.71847	0.8126	0.07365	-0.099
Mof_H 	H 	0.7247	0.8251	0.0797	0.067
Mof_C 	C 	0.72869	0.80212	0.05614	0.003
Mof_H 	H 	0.7418	0.8076	0.0505	0.05
Mof_C 	C 	0.68791	0.81665	0.10055	-0.034
Mof_C 	C 	0.67656	0.80324	0.11512	0.002
Mof_H 	H 	0.6766	0.7881	0.1132	0.029
Mof_C 	C 	0.66507	0.81248	0.13254	-0.131
Mof_H 	H 	0.6575	0.8035	0.1423	0.081
Mof_C 	C 	0.66495	0.83512	0.1354	0.118
Mof_C 	C 	0.6763	0.84852	0.12083	-0.131
Mof_H 	H 	0.6762	0.8637	0.1227	0.08
Mof_C 	C 	0.68779	0.83929	0.10341	0.002
Mof_H 	H 	0.6954	0.8483	0.0937	0.03
Mof_O 	O 	0.77839	0.74529	0.01716	-0.413
Mof_O 	O 	0.74968	0.71933	0.02485	-0.36
Mof_C 	C 	0.76777	0.7301	0.02813	0.272
Mof_C 	C 	0.78065	0.71661	0.04703	-0.041
Mof_C 	C 	0.8002	0.72485	0.05543	0.001
Mof_H 	H 	0.8065	0.7374	0.0493	0.044
Mof_C 	C 	0.81042	0.71437	0.07294	-0.098
Mof_H 	H 	0.8235	0.7199	0.0786	0.065
Mof_C 	C 	0.80108	0.69564	0.08205	0.058
Mof_C 	C 	0.78153	0.6874	0.07365	-0.099
Mof_H 	H 	0.7753	0.6749	0.0797	0.067
Mof_C 	C 	0.77131	0.69788	0.05614	0.003
Mof_H 	H 	0.7582	0.6924	0.0505	0.05
Mof_C 	C 	0.81209	0.68335	0.10055	-0.034
Mof_C 	C 	0.82344	0.69676	0.11512	0.002
Mof_H 	H 	0.8234	0.7119	0.1132	0.029
Mof_C 	C 	0.83493	0.68752	0.13254	-0.131
Mof_H 	H 	0.8425	0.6965	0.1423	0.081
Mof_C 	C 	0.83505	0.66488	0.1354	0.118
Mof_C 	C 	0.8237	0.65148	0.12083	-0.131
Mof_H 	H 	0.8238	0.6363	0.1227	0.08
Mof_C 	C 	0.81221	0.66071	0.10341	0.002
Mof_H 	H 	0.8046	0.6517	0.0937	0.03
Mof_O 	O 	0.77839	0.24529	0.51716	-0.413
Mof_O 	O 	0.74968	0.21933	0.52485	-0.36
Mof_C 	C 	0.76777	0.2301	0.52813	0.272
Mof_C 	C 	0.78065	0.21661	0.54703	-0.041
Mof_C 	C 	0.8002	0.22485	0.55543	0.001
Mof_H 	H 	0.8065	0.2374	0.5493	0.044
Mof_C 	C 	0.81042	0.21437	0.57294	-0.098
Mof_H 	H 	0.8235	0.2199	0.5786	0.065
Mof_C 	C 	0.80108	0.19564	0.58205	0.058
Mof_C 	C 	0.78153	0.1874	0.57365	-0.099
Mof_H 	H 	0.7753	0.1749	0.5797	0.067
Mof_C 	C 	0.77131	0.19788	0.55614	0.003
Mof_H 	H 	0.7582	0.1924	0.5505	0.05
Mof_C 	C 	0.81209	0.18335	0.60055	-0.034
Mof_C 	C 	0.82344	0.19676	0.61512	0.002
Mof_H 	H 	0.8234	0.2119	0.6132	0.029
Mof_C 	C 	0.83493	0.18752	0.63254	-0.131
Mof_H 	H 	0.8425	0.1965	0.6423	0.081
Mof_C 	C 	0.83505	0.16488	0.6354	0.118
Mof_C 	C 	0.8237	0.15148	0.62083	-0.131
Mof_H 	H 	0.8238	0.1363	0.6227	0.08
Mof_C 	C 	0.81221	0.16071	0.60341	0.002
Mof_H 	H 	0.8046	0.1517	0.5937	0.03
Mof_O 	O 	0.27839	0.74529	0.51716	-0.413
Mof_O 	O 	0.24968	0.71933	0.52485	-0.36
Mof_C 	C 	0.26777	0.7301	0.52813	0.272
Mof_C 	C 	0.28065	0.71661	0.54703	-0.041
Mof_C 	C 	0.3002	0.72485	0.55543	0.001
Mof_H 	H 	0.3065	0.7374	0.5493	0.044
Mof_C 	C 	0.31042	0.71437	0.57294	-0.098
Mof_H 	H 	0.3235	0.7199	0.5786	0.065
Mof_C 	C 	0.30108	0.69564	0.58205	0.058
Mof_C 	C 	0.28153	0.6874	0.57365	-0.099
Mof_H 	H 	0.2753	0.6749	0.5797	0.067
Mof_C 	C 	0.27131	0.69788	0.55614	0.003
Mof_H 	H 	0.2582	0.6924	0.5505	0.05
Mof_C 	C 	0.31209	0.68335	0.60055	-0.034
Mof_C 	C 	0.32344	0.69676	0.61512	0.002
Mof_H 	H 	0.3234	0.7119	0.6132	0.029
Mof_C 	C 	0.33493	0.68752	0.63254	-0.131
Mof_H 	H 	0.3425	0.6965	0.6423	0.081
Mof_C 	C 	0.33505	0.66488	0.6354	0.118
Mof_C 	C 	0.3237	0.65148	0.62083	-0.131
Mof_H 	H 	0.3238	0.6363	0.6227	0.08
Mof_C 	C 	0.31221	0.66071	0.60341	0.002
Mof_H 	H 	0.3046	0.6517	0.5937	0.03
Mof_O 	O 	0.27839	0.24529	0.01716	-0.413
Mof_O 	O 	0.24968	0.21933	0.02485	-0.36
Mof_C 	C 	0.26777	0.2301	0.02813	0.272
Mof_C 	C 	0.28065	0.21661	0.04703	-0.041
Mof_C 	C 	0.3002	0.22485	0.05543	0.001
Mof_H 	H 	0.3065	0.2374	0.0493	0.044
Mof_C 	C 	0.31042	0.21437	0.07294	-0.098
Mof_H 	H 	0.3235	0.2199	0.0786	0.065
Mof_C 	C 	0.30108	0.19564	0.08205	0.058
Mof_C 	C 	0.28153	0.1874	0.07365	-0.099
Mof_H 	H 	0.2753	0.1749	0.0797	0.067
Mof_C 	C 	0.27131	0.19788	0.05614	0.003
Mof_H 	H 	0.2582	0.1924	0.0505	0.05
Mof_C 	C 	0.31209	0.18335	0.10055	-0.034
Mof_C 	C 	0.32344	0.19676	0.11512	0.002
Mof_H 	H 	0.3234	0.2119	0.1132	0.029
Mof_C 	C 	0.33493	0.18752	0.13254	-0.131
Mof_H 	H 	0.3425	0.1965	0.1423	0.081
Mof_C 	C 	0.33505	0.16488	0.1354	0.118
Mof_C 	C 	0.3237	0.15148	0.12083	-0.131
Mof_H 	H 	0.3238	0.1363	0.1227	0.08
Mof_C 	C 	0.31221	0.16071	0.10341	0.002
Mof_H 	H 	0.3046	0.1517	0.0937	0.03
Mof_O 	O 	0.77839	0.25471	0.98284	-0.413
Mof_O 	O 	0.74968	0.28067	0.97515	-0.36
Mof_C 	C 	0.76777	0.2699	0.97187	0.272
Mof_C 	C 	0.78065	0.28339	0.95297	-0.041
Mof_C 	C 	0.8002	0.27515	0.94457	0.001
Mof_H 	H 	0.8065	0.2626	0.9507	0.044
Mof_C 	C 	0.81042	0.28563	0.92706	-0.098
Mof_H 	H 	0.8235	0.2801	0.9214	0.065
Mof_C 	C 	0.80108	0.30436	0.91795	0.058
Mof_C 	C 	0.78153	0.3126	0.92635	-0.099
Mof_H 	H 	0.7753	0.3251	0.9203	0.067
Mof_C 	C 	0.77131	0.30212	0.94386	0.003
Mof_H 	H 	0.7582	0.3076	0.9495	0.05
Mof_C 	C 	0.81209	0.31665	0.89945	-0.034
Mof_C 	C 	0.82344	0.30324	0.88488	0.002
Mof_H 	H 	0.8234	0.2881	0.8868	0.029
Mof_C 	C 	0.83493	0.31248	0.86746	-0.131
Mof_H 	H 	0.8425	0.3035	0.8577	0.081
Mof_C 	C 	0.83505	0.33512	0.8646	0.118
Mof_C 	C 	0.8237	0.34852	0.87917	-0.131
Mof_H 	H 	0.8238	0.3637	0.8773	0.08
Mof_C 	C 	0.81221	0.33929	0.89659	0.002
Mof_H 	H 	0.8046	0.3483	0.9063	0.03
Mof_O 	O 	0.77839	0.75471	0.48284	-0.413
Mof_O 	O 	0.74968	0.78067	0.47515	-0.36
Mof_C 	C 	0.76777	0.7699	0.47187	0.272
Mof_C 	C 	0.78065	0.78339	0.45297	-0.041
Mof_C 	C 	0.8002	0.77515	0.44457	0.001
Mof_H 	H 	0.8065	0.7626	0.4507	0.044
Mof_C 	C 	0.81042	0.78563	0.42706	-0.098
Mof_H 	H 	0.8235	0.7801	0.4214	0.065
Mof_C 	C 	0.80108	0.80436	0.41795	0.058
Mof_C 	C 	0.78153	0.8126	0.42635	-0.099
Mof_H 	H 	0.7753	0.8251	0.4203	0.067
Mof_C 	C 	0.77131	0.80212	0.44386	0.003
Mof_H 	H 	0.7582	0.8076	0.4495	0.05
Mof_C 	C 	0.81209	0.81665	0.39945	-0.034
Mof_C 	C 	0.82344	0.80324	0.38488	0.002
Mof_H 	H 	0.8234	0.7881	0.3868	0.029
Mof_C 	C 	0.83493	0.81248	0.36746	-0.131
Mof_H 	H 	0.8425	0.8035	0.3577	0.081
Mof_C 	C 	0.83505	0.83512	0.3646	0.118
Mof_C 	C 	0.8237	0.84852	0.37917	-0.131
Mof_H 	H 	0.8238	0.8637	0.3773	0.08
Mof_C 	C 	0.81221	0.83929	0.39659	0.002
Mof_H 	H 	0.8046	0.8483	0.4063	0.03
Mof_O 	O 	0.27839	0.25471	0.48284	-0.413
Mof_O 	O 	0.24968	0.28067	0.47515	-0.36
Mof_C 	C 	0.26777	0.2699	0.47187	0.272
Mof_C 	C 	0.28065	0.28339	0.45297	-0.041
Mof_C 	C 	0.3002	0.27515	0.44457	0.001
Mof_H 	H 	0.3065	0.2626	0.4507	0.044
Mof_C 	C 	0.31042	0.28563	0.42706	-0.098
Mof_H 	H 	0.3235	0.2801	0.4214	0.065
Mof_C 	C 	0.30108	0.30436	0.41795	0.058
Mof_C 	C 	0.28153	0.3126	0.42635	-0.099
Mof_H 	H 	0.2753	0.3251	0.4203	0.067
Mof_C 	C 	0.27131	0.30212	0.44386	0.003
Mof_H 	H 	0.2582	0.3076	0.4495	0.05
Mof_C 	C 	0.31209	0.31665	0.39945	-0.034
Mof_C 	C 	0.32344	0.30324	0.38488	0.002
Mof_H 	H 	0.3234	0.2881	0.3868	0.029
Mof_C 	C 	0.33493	0.31248	0.36746	-0.131
Mof_H 	H 	0.3425	0.3035	0.3577	0.081
Mof_C 	C 	0.33505	0.33512	0.3646	0.118
Mof_C 	C 	0.3237	0.34852	0.37917	-0.131
Mof_H 	H 	0.3238	0.3637	0.3773	0.08
Mof_C 	C 	0.31221	0.33929	0.39659	0.002
Mof_H 	H 	0.3046	0.3483	0.4063	0.03
Mof_O 	O 	0.27839	0.75471	0.98284	-0.413
Mof_O 	O 	0.24968	0.78067	0.97515	-0.36
Mof_C 	C 	0.26777	0.7699	0.97187	0.272
Mof_C 	C 	0.28065	0.78339	0.95297	-0.041
Mof_C 	C 	0.3002	0.77515	0.94457	0.001
Mof_H 	H 	0.3065	0.7626	0.9507	0.044
Mof_C 	C 	0.31042	0.78563	0.92706	-0.098
Mof_H 	H 	0.3235	0.7801	0.9214	0.065
Mof_C 	C 	0.30108	0.80436	0.91795	0.058
Mof_C 	C 	0.28153	0.8126	0.92635	-0.099
Mof_H 	H 	0.2753	0.8251	0.9203	0.067
Mof_C 	C 	0.27131	0.80212	0.94386	0.003
Mof_H 	H 	0.2582	0.8076	0.9495	0.05
Mof_C 	C 	0.31209	0.81665	0.89945	-0.034
Mof_C 	C 	0.32344	0.80324	0.88488	0.002
Mof_H 	H 	0.3234	0.7881	0.8868	0.029
Mof_C 	C 	0.33493	0.81248	0.86746	-0.131
Mof_H 	H 	0.3425	0.8035	0.8577	0.081
Mof_C 	C 	0.33505	0.83512	0.8646	0.118
Mof_C 	C 	0.3237	0.84852	0.87917	-0.131
Mof_H 	H 	0.3238	0.8637	0.8773	0.08
Mof_C 	C 	0.31221	0.83929	0.89659	0.002
Mof_H 	H 	0.3046	0.8483	0.9063	0.03
Mof_Cu	Cu	-9.0712e-34	0.76524	0.23476	0.915
Mof_Cu	Cu	2.75491e-33	0.26524	0.73476	0.915
Mof_Cu	Cu	0.5	0.76524	0.73476	0.915
Mof_Cu	Cu	0.5	0.26524	0.23476	0.915
Mof_Cu	Cu	8.80209e-34	0.23476	0.23476	0.915
Mof_Cu	Cu	2.75491e-33	0.73476	0.73476	0.915
Mof_Cu	Cu	0.5	0.23476	0.73476	0.915
Mof_Cu	Cu	0.5	0.73476	0.23476	0.915
Mof_Cu	Cu	2.86919e-33	0.76524	0.76524	0.915
Mof_Cu	Cu	8.14381e-33	0.26524	0.26524	0.915
Mof_Cu	Cu	0.5	0.76524	0.26524	0.915
Mof_Cu	Cu	0.5	0.26524	0.76524	0.915
Mof_Cu	Cu	-4.28013e-33	0.23476	0.76524	0.915
Mof_Cu	Cu	4.56915e-33	0.73476	0.26524	0.915
Mof_Cu	Cu	0.5	0.23476	0.26524	0.915
Mof_Cu	Cu	0.5	0.73476	0.76524	0.915
Mof_Cu	Cu	0.23476	7.14932e-33	0.76524	0.915
Mof_Cu	Cu	0.23476	0.5	0.26524	0.915
Mof_Cu	Cu	0.73476	3.57466e-33	0.26524	0.915
Mof_Cu	Cu	0.73476	0.5	0.76524	0.915
Mof_Cu	Cu	0.23476	0	0.23476	0.915
Mof_Cu	Cu	0.23476	0.5	0.73476	0.915
Mof_Cu	Cu	0.73476	0	0.73476	0.915
Mof_Cu	Cu	0.73476	0.5	0.23476	0.915
Mof_Cu	Cu	0.76524	7.14932e-33	0.76524	0.915
Mof_Cu	Cu	0.76524	0.5	0.26524	0.915
Mof_Cu	Cu	0.26524	3.57466e-33	0.26524	0.915
Mof_Cu	Cu	0.26524	0.5	0.76524	0.915
Mof_Cu	Cu	0.76524	0	0.23476	0.915
Mof_Cu	Cu	0.76524	0.5	0.73476	0.915
Mof_Cu	Cu	0.26524	0	0.73476	0.915
Mof_Cu	Cu	0.26524	0.5	0.23476	0.915
Mof_Cu	Cu	0.76524	0.23476	-0	0.915
Mof_Cu	Cu	0.76524	0.73476	0.5	0.915
Mof_Cu	Cu	0.26524	0.23476	0.5	0.915
Mof_Cu	Cu	0.26524	0.73476	-0	0.915
Mof_Cu	Cu	0.23476	0.23476	-0	0.915
Mof_Cu	Cu	0.23476	0.73476	0.5	0.915
Mof_Cu	Cu	0.73476	0.23476	0.5	0.915
Mof_Cu	Cu	0.73476	0.73476	-0	0.915
Mof_Cu	Cu	0.76524	0.76524	-0	0.915
Mof_Cu	Cu	0.76524	0.26524	0.5	0.915
Mof_Cu	Cu	0.26524	0.76524	0.5	0.915
Mof_Cu	Cu	0.26524	0.26524	-0	0.915
Mof_Cu	Cu	0.23476	0.76524	-0	0.915
Mof_Cu	Cu	0.23476	0.26524	0.5	0.915
Mof_Cu	Cu	0.73476	0.76524	0.5	0.915
Mof_Cu	Cu	0.73476	0.26524	-0	0.915
Mof_N 	N 	0.15502	0.65502	0.15502	-0.159
Mof_N 	N 	0.65502	0.65502	0.65502	-0.159
Mof_N 	N 	0.84498	0.34498	0.15502	-0.159
Mof_N 	N 	0.84498	0.84498	0.65502	-0.159
Mof_N 	N 	0.84498	0.65502	0.84498	-0.159
Mof_N 	N 	0.15502	0.34498	0.84498	-0.159
Mof_N 	N 	0.65502	0.84498	0.84498	-0.159
Mof_N 	N 	0.15502	0.15502	0.65502	-0.159
Mof_N 	N 	0.15502	0.84498	0.34498	-0.159
Mof_N 	N 	0.84498	0.15502	0.34498	-0.159
Mof_N 	N 	0.65502	0.15502	0.15502	-0.159
Mof_N 	N 	0.34498	0.15502	0.84498	-0.159
Mof_N 	N 	0.34498	0.65502	0.34498	-0.159
Mof_N 	N 	0.65502	0.34498	0.34498	-0.159
Mof_N 	N 	0.34498	0.84498	0.15502	-0.159
Mof_N 	N 	0.34498	0.34498	0.65502	-0.159
Mof_N 	N 	0.65502	0.15502	0.84498	-0.159
Mof_N 	N 	0.65502	0.65502	0.34498	-0.159
Mof_N 	N 	0.34498	0.84498	0.84498	-0.159
Mof_N 	N 	0.34498	0.34498	0.34498	-0.159
Mof_N 	N 	0.65502	0.84498	0.15502	-0.159
Mof_N 	N 	0.65502	0.34498	0.65502	-0.159
Mof_N 	N 	0.34498	0.15502	0.15502	-0.159
Mof_N 	N 	0.34498	0.65502	0.65502	-0.159
Mof_N 	N 	0.84498	0.15502	0.65502	-0.159
Mof_N 	N 	0.84498	0.65502	0.15502	-0.159
Mof_N 	N 	0.15502	0.15502	0.34498	-0.159
Mof_N 	N 	0.15502	0.65502	0.84498	-0.159
Mof_N 	N 	0.84498	0.84498	0.34498	-0.159
Mof_N 	N 	0.15502	0.84498	0.65502	-0.159
Mof_N 	N 	0.15502	0.34498	0.15502	-0.159
Mof_N 	N 	0.84498	0.34498	0.84498	-0.159
_end
