data_functionalizedCrystal
_audit_creation_method	'EQeq! by Chris Wilmer'
_symmetry_space_group_name_H-M	'P1'
_symmetry_Int_Tables_number	1
_symmetry_cell_setting	triclinic
loop_
_symmetry_equiv_pos_as_xyz
  x,y,z
_cell_length_a	33.2277
_cell_length_b	9.7252
_cell_length_c	18.2913
_cell_angle_alpha	90
_cell_angle_beta	93.676
_cell_angle_gamma	90
loop_
_atom_site_label
_atom_site_type_symbol
_atom_site_fract_x
_atom_site_fract_y
_atom_site_fract_z
_atom_site_charge
Mof_Co	Co	0.3478	0.19901	0.51686	1.193
Mof_Co	Co	0.2522	0.254	0.5053	0.554
Mof_O 	O 	0.34052	0.3214	0.60029	-0.43
Mof_O 	O 	0.34657	0.6904	0.9256	-0.42
Mof_O 	O 	0.2732	0.3153	0.60004	-0.418
Mof_O 	O 	0.29733	0.0912	0.4947	-0.487
Mof_O 	O 	0.28456	0.6179	0.94386	-0.421
Mof_C 	C 	0.27326	0.8637	0.5193	-0.087
Mof_C 	C 	0.31459	0.627	0.9063	0.386
Mof_C 	C 	0.30707	0.3472	0.6272	0.39
Mof_C 	C 	0.29953	0.9857	0.5398	0.325
Mof_O 	O 	0.32245	0.9852	0.5947	-0.295
Mof_C 	C 	0.25144	0.8598	0.4522	0.037
Mof_C 	C 	0.27654	0.4991	0.8057	0.045
Mof_C 	C 	0.34513	0.4781	0.7269	0.049
Mof_C 	C 	0.31284	0.556	0.8339	-0.106
Mof_O 	O 	0.4048	0.156	0.5392	-0.448
Mof_C 	C 	0.34685	0.5463	0.7945	0.051
Mof_C 	C 	0.30917	0.4219	0.6992	-0.105
Mof_C 	C 	0.27472	0.4329	0.7382	0.046
Mof_C 	C 	0.27168	0.7531	0.5669	0.041
Mof_C 	C 	0.4601	0.0383	0.4985	-0.101
Mof_O 	O 	0.391	0.029	0.4471	-0.304
Mof_C 	C 	0.4151	0.0791	0.4974	0.4
Mof_C 	C 	0.4876	0.1041	0.5441	0.051
Mof_C 	C 	0.472	0.9385	0.4513	0.045
Mof_Co	Co	0.8478	0.69901	0.51686	1.194
Mof_Co	Co	0.7522	0.754	0.5053	0.555
Mof_O 	O 	0.84052	0.8214	0.60029	-0.429
Mof_O 	O 	0.84657	0.1904	0.9256	-0.419
Mof_O 	O 	0.7732	0.8153	0.60004	-0.417
Mof_O 	O 	0.79733	0.5912	0.4947	-0.486
Mof_O 	O 	0.78456	0.1179	0.94386	-0.421
Mof_C 	C 	0.77326	0.3637	0.5193	-0.086
Mof_C 	C 	0.81459	0.127	0.9063	0.387
Mof_C 	C 	0.80707	0.8472	0.6272	0.391
Mof_C 	C 	0.79953	0.4857	0.5398	0.325
Mof_O 	O 	0.82245	0.4852	0.5947	-0.295
Mof_C 	C 	0.75144	0.3598	0.4522	0.037
Mof_C 	C 	0.77654	0.9991	0.8057	0.046
Mof_C 	C 	0.84513	0.9781	0.7269	0.05
Mof_C 	C 	0.81284	0.056	0.8339	-0.107
Mof_O 	O 	0.9048	0.656	0.5392	-0.448
Mof_C 	C 	0.84685	0.0463	0.7945	0.05
Mof_C 	C 	0.80917	0.9219	0.6992	-0.105
Mof_C 	C 	0.77472	0.9329	0.7382	0.046
Mof_C 	C 	0.77168	0.2531	0.5669	0.041
Mof_C 	C 	0.9601	0.5383	0.4985	-0.101
Mof_O 	O 	0.891	0.529	0.4471	-0.304
Mof_C 	C 	0.9151	0.5791	0.4974	0.4
Mof_C 	C 	0.9876	0.6041	0.5441	0.051
Mof_C 	C 	0.972	0.4385	0.4513	0.045
Mof_Co	Co	0.6522	0.19901	0.98314	1.194
Mof_Co	Co	0.7478	0.254	0.9947	0.556
Mof_O 	O 	0.65948	0.3214	0.89971	-0.429
Mof_O 	O 	0.65343	0.6904	0.5744	-0.419
Mof_O 	O 	0.7268	0.3153	0.89996	-0.417
Mof_O 	O 	0.70267	0.0912	0.0053	-0.486
Mof_O 	O 	0.71544	0.6179	0.55614	-0.421
Mof_C 	C 	0.72674	0.8637	0.9807	-0.085
Mof_C 	C 	0.68541	0.627	0.5937	0.387
Mof_C 	C 	0.69293	0.3472	0.8728	0.391
Mof_C 	C 	0.70047	0.9857	0.9602	0.325
Mof_O 	O 	0.67755	0.9852	0.9053	-0.295
Mof_C 	C 	0.74856	0.8598	0.0478	0.036
Mof_C 	C 	0.72346	0.4991	0.6943	0.045
Mof_C 	C 	0.65487	0.4781	0.7731	0.049
Mof_C 	C 	0.68716	0.556	0.6661	-0.106
Mof_O 	O 	0.5952	0.156	0.9608	-0.448
Mof_C 	C 	0.65315	0.5463	0.7055	0.051
Mof_C 	C 	0.69083	0.4219	0.8008	-0.105
Mof_C 	C 	0.72528	0.4329	0.7618	0.046
Mof_C 	C 	0.72832	0.7531	0.9331	0.041
Mof_C 	C 	0.5399	0.0383	0.0015	-0.1
Mof_O 	O 	0.609	0.029	0.0529	-0.304
Mof_C 	C 	0.5849	0.0791	0.0026	0.401
Mof_C 	C 	0.5124	0.1041	0.9559	0.05
Mof_C 	C 	0.528	0.9385	0.0487	0.045
Mof_Co	Co	0.1522	0.69901	0.98314	1.194
Mof_Co	Co	0.2478	0.754	0.9947	0.554
Mof_O 	O 	0.15948	0.8214	0.89971	-0.429
Mof_O 	O 	0.15343	0.1904	0.5744	-0.419
Mof_O 	O 	0.2268	0.8153	0.89996	-0.417
Mof_O 	O 	0.20267	0.5912	0.0053	-0.486
Mof_O 	O 	0.21544	0.1179	0.55614	-0.421
Mof_C 	C 	0.22674	0.3637	0.9807	-0.086
Mof_C 	C 	0.18541	0.127	0.5937	0.387
Mof_C 	C 	0.19293	0.8472	0.8728	0.392
Mof_C 	C 	0.20047	0.4857	0.9602	0.325
Mof_O 	O 	0.17755	0.4852	0.9053	-0.295
Mof_C 	C 	0.24856	0.3598	0.0478	0.038
Mof_C 	C 	0.22346	0.9991	0.6943	0.045
Mof_C 	C 	0.15487	0.9781	0.7731	0.05
Mof_C 	C 	0.18716	0.056	0.6661	-0.107
Mof_O 	O 	0.0952	0.656	0.9608	-0.448
Mof_C 	C 	0.15315	0.0463	0.7055	0.05
Mof_C 	C 	0.19083	0.9219	0.8008	-0.105
Mof_C 	C 	0.22528	0.9329	0.7618	0.046
Mof_C 	C 	0.22832	0.2531	0.9331	0.041
Mof_C 	C 	0.0399	0.5383	0.0015	-0.101
Mof_O 	O 	0.109	0.529	0.0529	-0.304
Mof_C 	C 	0.0849	0.5791	0.0026	0.401
Mof_C 	C 	0.0124	0.6041	0.9559	0.051
Mof_C 	C 	0.028	0.4385	0.0487	0.046
Mof_Co	Co	0.6522	0.80099	0.48314	1.194
Mof_Co	Co	0.7478	0.746	0.4947	0.555
Mof_O 	O 	0.65948	0.6786	0.39971	-0.429
Mof_O 	O 	0.65343	0.3096	0.0744	-0.419
Mof_O 	O 	0.7268	0.6847	0.39996	-0.417
Mof_O 	O 	0.70267	0.9088	0.5053	-0.486
Mof_O 	O 	0.71544	0.3821	0.05614	-0.42
Mof_C 	C 	0.72674	0.1363	0.4807	-0.086
Mof_C 	C 	0.68541	0.373	0.0937	0.387
Mof_C 	C 	0.69293	0.6528	0.3728	0.391
Mof_C 	C 	0.70047	0.0143	0.4602	0.325
Mof_O 	O 	0.67755	0.0148	0.4053	-0.295
Mof_C 	C 	0.74856	0.1402	0.5478	0.037
Mof_C 	C 	0.72346	0.5009	0.1943	0.045
Mof_C 	C 	0.65487	0.5219	0.2731	0.049
Mof_C 	C 	0.68716	0.444	0.1661	-0.106
Mof_O 	O 	0.5952	0.844	0.4608	-0.448
Mof_C 	C 	0.65315	0.4537	0.2055	0.051
Mof_C 	C 	0.69083	0.5781	0.3008	-0.105
Mof_C 	C 	0.72528	0.5671	0.2618	0.046
Mof_C 	C 	0.72832	0.2469	0.4331	0.041
Mof_C 	C 	0.5399	0.9617	0.5015	-0.101
Mof_O 	O 	0.609	0.971	0.5529	-0.304
Mof_C 	C 	0.5849	0.9209	0.5026	0.4
Mof_C 	C 	0.5124	0.8959	0.4559	0.051
Mof_C 	C 	0.528	0.0615	0.5487	0.045
Mof_Co	Co	0.1522	0.30099	0.48314	1.194
Mof_Co	Co	0.2478	0.246	0.4947	0.555
Mof_O 	O 	0.15948	0.1786	0.39971	-0.429
Mof_O 	O 	0.15343	0.8096	0.0744	-0.419
Mof_O 	O 	0.2268	0.1847	0.39996	-0.417
Mof_O 	O 	0.20267	0.4088	0.5053	-0.486
Mof_O 	O 	0.21544	0.8821	0.05614	-0.421
Mof_C 	C 	0.22674	0.6363	0.4807	-0.086
Mof_C 	C 	0.18541	0.873	0.0937	0.387
Mof_C 	C 	0.19293	0.1528	0.3728	0.391
Mof_C 	C 	0.20047	0.5143	0.4602	0.325
Mof_O 	O 	0.17755	0.5148	0.4053	-0.295
Mof_C 	C 	0.24856	0.6402	0.5478	0.037
Mof_C 	C 	0.22346	0.0009	0.1943	0.046
Mof_C 	C 	0.15487	0.0219	0.2731	0.05
Mof_C 	C 	0.18716	0.944	0.1661	-0.107
Mof_O 	O 	0.0952	0.344	0.4608	-0.448
Mof_C 	C 	0.15315	0.9537	0.2055	0.05
Mof_C 	C 	0.19083	0.0781	0.3008	-0.105
Mof_C 	C 	0.22528	0.0671	0.2618	0.046
Mof_C 	C 	0.22832	0.7469	0.4331	0.041
Mof_C 	C 	0.0399	0.4617	0.5015	-0.101
Mof_O 	O 	0.109	0.471	0.5529	-0.304
Mof_C 	C 	0.0849	0.4209	0.5026	0.4
Mof_C 	C 	0.0124	0.3959	0.4559	0.051
Mof_C 	C 	0.028	0.5615	0.5487	0.045
Mof_Co	Co	0.3478	0.80099	0.01686	1.194
Mof_Co	Co	0.2522	0.746	0.0053	0.556
Mof_O 	O 	0.34052	0.6786	0.10029	-0.429
Mof_O 	O 	0.34657	0.3096	0.4256	-0.419
Mof_O 	O 	0.2732	0.6847	0.10004	-0.417
Mof_O 	O 	0.29733	0.9088	0.9947	-0.486
Mof_O 	O 	0.28456	0.3821	0.44386	-0.421
Mof_C 	C 	0.27326	0.1363	0.0193	-0.085
Mof_C 	C 	0.31459	0.373	0.4063	0.387
Mof_C 	C 	0.30707	0.6528	0.1272	0.391
Mof_C 	C 	0.29953	0.0143	0.0398	0.325
Mof_O 	O 	0.32245	0.0148	0.0947	-0.295
Mof_C 	C 	0.25144	0.1402	0.9522	0.036
Mof_C 	C 	0.27654	0.5009	0.3057	0.045
Mof_C 	C 	0.34513	0.5219	0.2269	0.049
Mof_C 	C 	0.31284	0.444	0.3339	-0.106
Mof_O 	O 	0.4048	0.844	0.0392	-0.448
Mof_C 	C 	0.34685	0.4537	0.2945	0.051
Mof_C 	C 	0.30917	0.5781	0.1992	-0.105
Mof_C 	C 	0.27472	0.5671	0.2382	0.046
Mof_C 	C 	0.27168	0.2469	0.0669	0.041
Mof_C 	C 	0.4601	0.9617	0.9985	-0.1
Mof_O 	O 	0.391	0.971	0.9471	-0.304
Mof_C 	C 	0.4151	0.9209	0.9974	0.401
Mof_C 	C 	0.4876	0.8959	0.0441	0.05
Mof_C 	C 	0.472	0.0615	0.9513	0.045
Mof_Co	Co	0.8478	0.30099	0.01686	1.194
Mof_Co	Co	0.7522	0.246	0.0053	0.554
Mof_O 	O 	0.84052	0.1786	0.10029	-0.429
Mof_O 	O 	0.84657	0.8096	0.4256	-0.419
Mof_O 	O 	0.7732	0.1847	0.10004	-0.417
Mof_O 	O 	0.79733	0.4088	0.9947	-0.486
Mof_O 	O 	0.78456	0.8821	0.44386	-0.421
Mof_C 	C 	0.77326	0.6363	0.0193	-0.086
Mof_C 	C 	0.81459	0.873	0.4063	0.387
Mof_C 	C 	0.80707	0.1528	0.1272	0.392
Mof_C 	C 	0.79953	0.5143	0.0398	0.325
Mof_O 	O 	0.82245	0.5148	0.0947	-0.295
Mof_C 	C 	0.75144	0.6402	0.9522	0.038
Mof_C 	C 	0.77654	0.0009	0.3057	0.045
Mof_C 	C 	0.84513	0.0219	0.2269	0.05
Mof_C 	C 	0.81284	0.944	0.3339	-0.107
Mof_O 	O 	0.9048	0.344	0.0392	-0.448
Mof_C 	C 	0.84685	0.9537	0.2945	0.05
Mof_C 	C 	0.80917	0.0781	0.1992	-0.105
Mof_C 	C 	0.77472	0.0671	0.2382	0.046
Mof_C 	C 	0.77168	0.7469	0.0669	0.041
Mof_C 	C 	0.9601	0.4617	0.9985	-0.101
Mof_O 	O 	0.891	0.471	0.9471	-0.304
Mof_C 	C 	0.9151	0.4209	0.9974	0.401
Mof_C 	C 	0.9876	0.3959	0.0441	0.051
Mof_C 	C 	0.972	0.5615	0.9513	0.046
_end
