data_functionalizedCrystal
_audit_creation_method	'EQeq! by Chris Wilmer'
_symmetry_space_group_name_H-M	'P1'
_symmetry_Int_Tables_number	1
_symmetry_cell_setting	triclinic
loop_
_symmetry_equiv_pos_as_xyz
  x,y,z
_cell_length_a	11.908
_cell_length_b	16.3176
_cell_length_c	16.3176
_cell_angle_alpha	65.7172
_cell_angle_beta	75.9213
_cell_angle_gamma	104.079
loop_
_atom_site_label
_atom_site_type_symbol
_atom_site_fract_x
_atom_site_fract_y
_atom_site_fract_z
_atom_site_charge
Mof_Ni	Ni	0.52021	0.95226	0.59798	1.065
Mof_Ni	Ni	0.89681	0.64744	0.39237	1.098
Mof_Ni	Ni	0.11819	0.59798	0.44976	1.065
Mof_Ni	Ni	0.28918	0.39237	0.96019	1.098
Mof_Ni	Ni	0.56795	0.44976	0.95226	1.065
Mof_Ni	Ni	0.24937	0.96019	0.64744	1.098
Mof_Ni	Ni	0.47979	0.04774	0.40202	1.066
Mof_Ni	Ni	0.10319	0.35256	0.60763	1.099
Mof_Ni	Ni	0.88181	0.40202	0.55024	1.066
Mof_Ni	Ni	0.71082	0.60763	0.03981	1.099
Mof_Ni	Ni	0.43205	0.55024	0.04774	1.066
Mof_Ni	Ni	0.75063	0.03981	0.35256	1.099
Mof_H 	H 	0.4461	0.5266	0.615	0.099
Mof_H 	H 	0.8174	0.7939	0.4353	0.025
Mof_H 	H 	0.6223	0.522	0.5249	0.001
Mof_H 	H 	0.4557	0.6703	0.6171	0.037
Mof_H 	H 	0.658	0.8491	0.7083	0.018
Mof_H 	H 	0.696	0.1217	0.5921	0.019
Mof_H 	H 	0.9403	0.0442	0.7048	0.02
Mof_H 	H 	0.8268	0.8837	0.7519	0.09
Mof_H 	H 	0.9215	0.7634	0.1969	0.218
Mof_H 	H 	0.8993	0.8004	0.2261	0.211
Mof_H 	H 	0.0611	0.615	0.8584	0.098
Mof_H 	H 	0.2527	0.4353	0.7708	0.025
Mof_H 	H 	0.1472	0.5249	0.9531	0.001
Mof_H 	H 	0.0728	0.6171	0.7126	0.037
Mof_H 	H 	0.3663	0.7083	0.4426	0.018
Mof_H 	H 	0.2881	0.5921	0.2862	0.019
Mof_H 	H 	0.6451	0.7048	0.251	0.019
Mof_H 	H 	0.5787	0.7519	0.3644	0.09
Mof_H 	H 	0.1184	0.1969	0.0397	0.22
Mof_H 	H 	0.1254	0.2261	0.9735	0.211
Mof_H 	H 	0.9195	0.8584	0.5266	0.098
Mof_H 	H 	0.0235	0.7708	0.7939	0.025
Mof_H 	H 	0.1003	0.9531	0.522	0.002
Mof_H 	H 	0.7854	0.7126	0.6703	0.038
Mof_H 	H 	0.8089	0.4426	0.8491	0.019
Mof_H 	H 	0.5743	0.2862	0.1217	0.019
Mof_H 	H 	0.8961	0.251	0.0442	0.021
Mof_H 	H 	0.9431	0.3644	0.8837	0.089
Mof_H 	H 	0.1581	0.0397	0.7634	0.218
Mof_H 	H 	0.0989	0.9735	0.8004	0.211
Mof_H 	H 	0.5539	0.4734	0.385	0.099
Mof_H 	H 	0.1826	0.2061	0.5647	0.025
Mof_H 	H 	0.3777	0.478	0.4751	0.001
Mof_H 	H 	0.5443	0.3297	0.3829	0.037
Mof_H 	H 	0.342	0.1509	0.2917	0.018
Mof_H 	H 	0.304	0.8783	0.4079	0.019
Mof_H 	H 	0.0597	0.9558	0.2952	0.02
Mof_H 	H 	0.1732	0.1163	0.2481	0.09
Mof_H 	H 	0.0785	0.2366	0.8031	0.218
Mof_H 	H 	0.1007	0.1996	0.7739	0.211
Mof_H 	H 	0.9389	0.385	0.1416	0.098
Mof_H 	H 	0.7473	0.5647	0.2292	0.025
Mof_H 	H 	0.8528	0.4751	0.0469	0.001
Mof_H 	H 	0.9272	0.3829	0.2874	0.037
Mof_H 	H 	0.6337	0.2917	0.5574	0.018
Mof_H 	H 	0.7119	0.4079	0.7138	0.019
Mof_H 	H 	0.3549	0.2952	0.749	0.019
Mof_H 	H 	0.4213	0.2481	0.6356	0.09
Mof_H 	H 	0.8816	0.8031	0.9603	0.22
Mof_H 	H 	0.8746	0.7739	0.0265	0.211
Mof_H 	H 	0.0805	0.1416	0.4734	0.098
Mof_H 	H 	0.9765	0.2292	0.2061	0.025
Mof_H 	H 	0.8997	0.0469	0.478	0.002
Mof_H 	H 	0.2146	0.2874	0.3297	0.038
Mof_H 	H 	0.1911	0.5574	0.1509	0.019
Mof_H 	H 	0.4257	0.7138	0.8783	0.019
Mof_H 	H 	0.1039	0.749	0.9558	0.021
Mof_H 	H 	0.0569	0.6356	0.1163	0.089
Mof_H 	H 	0.8419	0.9603	0.2366	0.218
Mof_H 	H 	0.9011	0.0265	0.1996	0.211
Mof_C 	C 	0.52051	0.58161	0.57938	-0.139
Mof_C 	C 	0.74166	0.73971	0.47213	0.078
Mof_C 	C 	0.6392	0.74884	0.52494	-0.13
Mof_C 	C 	0.6268	0.57958	0.52488	0.087
Mof_C 	C 	0.52605	0.66726	0.58031	0.07
Mof_C 	C 	0.70118	0.91307	0.69163	0.09
Mof_C 	C 	0.7249	0.07387	0.62227	0.09
Mof_C 	C 	0.82917	0.10039	0.64258	-0.137
Mof_C 	C 	0.86969	0.02856	0.69069	0.076
Mof_C 	C 	0.80348	0.93356	0.71722	-0.136
Mof_C 	C 	0.65051	0.84522	0.51929	0.367
Mof_C 	C 	0.89535	0.20592	0.61107	0.393
Mof_C 	C 	0.09989	0.57938	0.83901	-0.14
Mof_C 	C 	0.21379	0.47213	0.78816	0.078
Mof_C 	C 	0.16414	0.52494	0.72622	-0.13
Mof_C 	C 	0.15168	0.52488	0.89554	0.087
Mof_C 	C 	0.10636	0.58031	0.75243	0.07
Mof_C 	C 	0.39281	0.69163	0.3953	0.09
Mof_C 	C 	0.34717	0.62227	0.30386	0.09
Mof_C 	C 	0.47175	0.64258	0.25703	-0.136
Mof_C 	C 	0.56038	0.69069	0.28075	0.075
Mof_C 	C 	0.5207	0.71722	0.34922	-0.135
Mof_C 	C 	0.1698	0.51929	0.63549	0.367
Mof_C 	C 	0.50642	0.61107	0.18301	0.392
Mof_C 	C 	0.9389	0.83901	0.58161	-0.138
Mof_C 	C 	0.00195	0.78816	0.73971	0.076
Mof_C 	C 	0.89036	0.72622	0.74884	-0.128
Mof_C 	C 	0.04722	0.89554	0.57958	0.086
Mof_C 	C 	0.85879	0.75243	0.66726	0.069
Mof_C 	C 	0.78811	0.3953	0.91307	0.088
Mof_C 	C 	0.65103	0.30386	0.07387	0.087
Mof_C 	C 	0.72878	0.25703	0.10039	-0.134
Mof_C 	C 	0.84113	0.28075	0.02856	0.07
Mof_C 	C 	0.86992	0.34922	0.93356	-0.13
Mof_C 	C 	0.80529	0.63549	0.84522	0.367
Mof_C 	C 	0.68943	0.18301	0.20592	0.392
Mof_C 	C 	0.47949	0.41839	0.42062	-0.139
Mof_C 	C 	0.25834	0.26029	0.52787	0.078
Mof_C 	C 	0.3608	0.25116	0.47506	-0.13
Mof_C 	C 	0.3732	0.42042	0.47512	0.087
Mof_C 	C 	0.47395	0.33274	0.41969	0.07
Mof_C 	C 	0.29882	0.08693	0.30837	0.09
Mof_C 	C 	0.2751	0.92613	0.37773	0.09
Mof_C 	C 	0.17083	0.89961	0.35742	-0.137
Mof_C 	C 	0.13031	0.97144	0.30931	0.076
Mof_C 	C 	0.19652	0.06644	0.28278	-0.136
Mof_C 	C 	0.34949	0.15478	0.48071	0.367
Mof_C 	C 	0.10465	0.79408	0.38893	0.393
Mof_C 	C 	0.90011	0.42062	0.16099	-0.14
Mof_C 	C 	0.78621	0.52787	0.21184	0.078
Mof_C 	C 	0.83586	0.47506	0.27378	-0.13
Mof_C 	C 	0.84832	0.47512	0.10446	0.087
Mof_C 	C 	0.89364	0.41969	0.24757	0.07
Mof_C 	C 	0.60719	0.30837	0.6047	0.09
Mof_C 	C 	0.65283	0.37773	0.69614	0.09
Mof_C 	C 	0.52825	0.35742	0.74297	-0.136
Mof_C 	C 	0.43962	0.30931	0.71925	0.075
Mof_C 	C 	0.4793	0.28278	0.65078	-0.135
Mof_C 	C 	0.8302	0.48071	0.36451	0.367
Mof_C 	C 	0.49358	0.38893	0.81699	0.392
Mof_C 	C 	0.0611	0.16099	0.41839	-0.138
Mof_C 	C 	0.99805	0.21184	0.26029	0.076
Mof_C 	C 	0.10964	0.27378	0.25116	-0.128
Mof_C 	C 	0.95278	0.10446	0.42042	0.086
Mof_C 	C 	0.14121	0.24757	0.33274	0.069
Mof_C 	C 	0.21189	0.6047	0.08693	0.088
Mof_C 	C 	0.34897	0.69614	0.92613	0.087
Mof_C 	C 	0.27122	0.74297	0.89961	-0.134
Mof_C 	C 	0.15887	0.71925	0.97144	0.07
Mof_C 	C 	0.13008	0.65078	0.06644	-0.13
Mof_C 	C 	0.19471	0.36451	0.15478	0.367
Mof_C 	C 	0.31057	0.81699	0.79408	0.392
Mof_N 	N 	0.32887	0.84767	0.56566	-0.067
Mof_N 	N 	0.7369	0.65674	0.47154	-0.219
Mof_N 	N 	0.66275	0.98225	0.6439	-0.234
Mof_N 	N 	0.43944	0.04511	0.70499	-0.044
Mof_N 	N 	0.29261	0.77007	0.57944	-0.063
Mof_N 	N 	0.43456	0.0418	0.63502	-0.258
Mof_N 	N 	0.44488	0.04868	0.77324	-0.066
Mof_N 	N 	0.36941	0.93293	0.5506	-0.368
Mof_N 	N 	0.89453	0.56566	0.58667	-0.067
Mof_N 	N 	0.20844	0.47154	0.87172	-0.219
Mof_N 	N 	0.30665	0.6439	0.37385	-0.234
Mof_N 	N 	0.14443	0.70499	0.2499	-0.044
Mof_N 	N 	0.87205	0.57944	0.65049	-0.063
Mof_N 	N 	0.06958	0.63502	0.32318	-0.257
Mof_N 	N 	0.21812	0.77324	0.17808	-0.065
Mof_N 	N 	0.92001	0.5506	0.51647	-0.368
Mof_N 	N 	0.4812	0.58667	0.84767	-0.067
Mof_N 	N 	0.08016	0.87172	0.65674	-0.218
Mof_N 	N 	0.6805	0.37385	0.98225	-0.233
Mof_N 	N 	0.39433	0.2499	0.04511	-0.044
Mof_N 	N 	0.52254	0.65049	0.77007	-0.063
Mof_N 	N 	0.39276	0.32318	0.0418	-0.257
Mof_N 	N 	0.3962	0.17808	0.04868	-0.066
Mof_N 	N 	0.43648	0.51647	0.93293	-0.368
Mof_N 	N 	0.67113	0.15233	0.43434	-0.067
Mof_N 	N 	0.2631	0.34326	0.52846	-0.219
Mof_N 	N 	0.33725	0.01775	0.3561	-0.234
Mof_N 	N 	0.56056	0.95489	0.29501	-0.044
Mof_N 	N 	0.70739	0.22993	0.42056	-0.063
Mof_N 	N 	0.56544	0.9582	0.36498	-0.258
Mof_N 	N 	0.55512	0.95132	0.22676	-0.066
Mof_N 	N 	0.63059	0.06707	0.4494	-0.368
Mof_N 	N 	0.10547	0.43434	0.41333	-0.067
Mof_N 	N 	0.79156	0.52846	0.12828	-0.219
Mof_N 	N 	0.69335	0.3561	0.62615	-0.234
Mof_N 	N 	0.85557	0.29501	0.7501	-0.044
Mof_N 	N 	0.12795	0.42056	0.34951	-0.063
Mof_N 	N 	0.93042	0.36498	0.67682	-0.257
Mof_N 	N 	0.78188	0.22676	0.82192	-0.065
Mof_N 	N 	0.07999	0.4494	0.48353	-0.368
Mof_N 	N 	0.5188	0.41333	0.15233	-0.067
Mof_N 	N 	0.91984	0.12828	0.34326	-0.218
Mof_N 	N 	0.3195	0.62615	0.01775	-0.233
Mof_N 	N 	0.60567	0.7501	0.95489	-0.044
Mof_N 	N 	0.47746	0.34951	0.22993	-0.063
Mof_N 	N 	0.60724	0.67682	0.9582	-0.257
Mof_N 	N 	0.6038	0.82192	0.95132	-0.066
Mof_N 	N 	0.56352	0.48353	0.06707	-0.368
Mof_O 	O 	0.55824	0.84612	0.575	-0.419
Mof_O 	O 	0.75185	0.91758	0.45803	-0.425
Mof_O 	O 	0.84209	0.26184	0.57897	-0.415
Mof_O 	O 	0.99937	0.2279	0.61919	-0.429
Mof_O 	O 	0.89685	0.74311	0.25776	-0.605
Mof_O 	O 	0.13324	0.575	0.57888	-0.419
Mof_O 	O 	0.20988	0.45803	0.62439	-0.425
Mof_O 	O 	0.42106	0.57897	0.15919	-0.415
Mof_O 	O 	0.61856	0.61919	0.15291	-0.429
Mof_O 	O 	0.15461	0.25776	0.99913	-0.607
Mof_O 	O 	0.71212	0.57888	0.84612	-0.419
Mof_O 	O 	0.83427	0.62439	0.91758	-0.423
Mof_O 	O 	0.58025	0.15919	0.26184	-0.414
Mof_O 	O 	0.77147	0.15291	0.2279	-0.429
Mof_O 	O 	0.15374	0.99913	0.74311	-0.605
Mof_O 	O 	0.44176	0.15388	0.425	-0.419
Mof_O 	O 	0.24815	0.08242	0.54197	-0.425
Mof_O 	O 	0.15791	0.73816	0.42103	-0.415
Mof_O 	O 	0.00063	0.7721	0.38081	-0.429
Mof_O 	O 	0.10315	0.25689	0.74224	-0.605
Mof_O 	O 	0.86676	0.425	0.42112	-0.419
Mof_O 	O 	0.79012	0.54197	0.37561	-0.425
Mof_O 	O 	0.57894	0.42103	0.84081	-0.415
Mof_O 	O 	0.38144	0.38081	0.84709	-0.429
Mof_O 	O 	0.84539	0.74224	0.00087	-0.607
Mof_O 	O 	0.28788	0.42112	0.15388	-0.419
Mof_O 	O 	0.16573	0.37561	0.08242	-0.423
Mof_O 	O 	0.41975	0.84081	0.73816	-0.414
Mof_O 	O 	0.22853	0.84709	0.7721	-0.429
Mof_O 	O 	0.84626	0.00087	0.25689	-0.605
_end
