data_functionalizedCrystal
_audit_creation_method	'EQeq! by Chris Wilmer'
_symmetry_space_group_name_H-M	'P1'
_symmetry_Int_Tables_number	1
_symmetry_cell_setting	triclinic
loop_
_symmetry_equiv_pos_as_xyz
  x,y,z
_cell_length_a	15.0412
_cell_length_b	15.8919
_cell_length_c	28.221
_cell_angle_alpha	90
_cell_angle_beta	90
_cell_angle_gamma	90
loop_
_atom_site_label
_atom_site_type_symbol
_atom_site_fract_x
_atom_site_fract_y
_atom_site_fract_z
_atom_site_charge
Mof_C 	C 	0.818	0.2232	0.03052	-0.026
Mof_C 	C 	0.8884	0.1936	0.06385	0.275
Mof_C 	C 	0.7695	0.2957	0.04093	-0.023
Mof_H 	H 	0.7825	0.3266	0.0681	0.08
Mof_C 	C 	0.7984	0.178	0.98936	-0.023
Mof_H 	H 	0.8309	0.1299	0.9821	0.084
Mof_O 	O 	0.9422	0.1366	0.05	-0.225
Mof_O 	O 	0.8915	0.2243	0.10476	-0.229
Mof_C 	C 	0.818	0.7232	0.53052	-0.027
Mof_C 	C 	0.8884	0.6936	0.56385	0.275
Mof_C 	C 	0.7695	0.7957	0.54093	-0.023
Mof_H 	H 	0.7825	0.8266	0.5681	0.079
Mof_C 	C 	0.7984	0.678	0.48936	-0.023
Mof_H 	H 	0.8309	0.6299	0.4821	0.083
Mof_O 	O 	0.9422	0.6366	0.55	-0.227
Mof_O 	O 	0.8915	0.7243	0.60476	-0.231
Mof_C 	C 	0.318	0.2232	0.53052	-0.028
Mof_C 	C 	0.3884	0.1936	0.56385	0.274
Mof_C 	C 	0.2695	0.2957	0.54093	-0.023
Mof_H 	H 	0.2825	0.3266	0.5681	0.079
Mof_C 	C 	0.2984	0.178	0.48936	-0.023
Mof_H 	H 	0.3309	0.1299	0.4821	0.083
Mof_O 	O 	0.4422	0.1366	0.55	-0.227
Mof_O 	O 	0.3915	0.2243	0.60476	-0.231
Mof_C 	C 	0.318	0.7232	0.03052	-0.029
Mof_C 	C 	0.3884	0.6936	0.06385	0.274
Mof_C 	C 	0.2695	0.7957	0.04093	-0.022
Mof_H 	H 	0.2825	0.8266	0.0681	0.078
Mof_C 	C 	0.2984	0.678	0.98936	-0.021
Mof_H 	H 	0.3309	0.6299	0.9821	0.082
Mof_O 	O 	0.4422	0.6366	0.05	-0.227
Mof_O 	O 	0.3915	0.7243	0.10476	-0.231
Mof_C 	C 	0.932	0.5268	0.03052	-0.028
Mof_C 	C 	0.8616	0.5564	0.06385	0.274
Mof_C 	C 	0.9805	0.4543	0.04093	-0.022
Mof_H 	H 	0.9675	0.4234	0.0681	0.079
Mof_C 	C 	0.9516	0.572	0.98936	-0.024
Mof_H 	H 	0.9191	0.6201	0.9821	0.083
Mof_O 	O 	0.8078	0.6134	0.05	-0.227
Mof_O 	O 	0.8585	0.5257	0.10476	-0.23
Mof_C 	C 	0.932	0.0268	0.53052	-0.027
Mof_C 	C 	0.8616	0.0564	0.56385	0.274
Mof_C 	C 	0.9805	0.9543	0.54093	-0.025
Mof_H 	H 	0.9675	0.9234	0.5681	0.079
Mof_C 	C 	0.9516	0.072	0.48936	-0.021
Mof_H 	H 	0.9191	0.1201	0.4821	0.083
Mof_O 	O 	0.8078	0.1134	0.55	-0.227
Mof_O 	O 	0.8585	0.0257	0.60476	-0.23
Mof_C 	C 	0.432	0.5268	0.53052	-0.028
Mof_C 	C 	0.3616	0.5564	0.56385	0.274
Mof_C 	C 	0.4805	0.4543	0.54093	-0.023
Mof_H 	H 	0.4675	0.4234	0.5681	0.079
Mof_C 	C 	0.4516	0.572	0.48936	-0.022
Mof_H 	H 	0.4191	0.6201	0.4821	0.083
Mof_O 	O 	0.3078	0.6134	0.55	-0.227
Mof_O 	O 	0.3585	0.5257	0.60476	-0.231
Mof_C 	C 	0.432	0.0268	0.03052	-0.028
Mof_C 	C 	0.3616	0.0564	0.06385	0.274
Mof_C 	C 	0.4805	0.9543	0.04093	-0.023
Mof_H 	H 	0.4675	0.9234	0.0681	0.079
Mof_C 	C 	0.4516	0.072	0.98936	-0.023
Mof_H 	H 	0.4191	0.1201	0.9821	0.083
Mof_O 	O 	0.3078	0.1134	0.05	-0.227
Mof_O 	O 	0.3585	0.0257	0.10476	-0.231
Mof_C 	C 	0.932	0.2232	0.71948	-0.028
Mof_C 	C 	0.8616	0.1936	0.68615	0.274
Mof_C 	C 	0.9805	0.2957	0.70907	-0.022
Mof_H 	H 	0.9675	0.3266	0.6819	0.079
Mof_C 	C 	0.9516	0.178	0.76064	-0.022
Mof_H 	H 	0.9191	0.1299	0.7679	0.083
Mof_O 	O 	0.8078	0.1366	0.7	-0.227
Mof_O 	O 	0.8585	0.2243	0.64524	-0.231
Mof_C 	C 	0.932	0.7232	0.21948	-0.027
Mof_C 	C 	0.8616	0.6936	0.18615	0.274
Mof_C 	C 	0.9805	0.7957	0.20907	-0.024
Mof_H 	H 	0.9675	0.8266	0.1819	0.079
Mof_C 	C 	0.9516	0.678	0.26064	-0.023
Mof_H 	H 	0.9191	0.6299	0.2679	0.083
Mof_O 	O 	0.8078	0.6366	0.2	-0.227
Mof_O 	O 	0.8585	0.7243	0.14524	-0.231
Mof_C 	C 	0.432	0.2232	0.21948	-0.028
Mof_C 	C 	0.3616	0.1936	0.18615	0.274
Mof_C 	C 	0.4805	0.2957	0.20907	-0.023
Mof_H 	H 	0.4675	0.3266	0.1819	0.079
Mof_C 	C 	0.4516	0.178	0.26064	-0.022
Mof_H 	H 	0.4191	0.1299	0.2679	0.083
Mof_O 	O 	0.3078	0.1366	0.2	-0.227
Mof_O 	O 	0.3585	0.2243	0.14524	-0.231
Mof_C 	C 	0.432	0.7232	0.71948	-0.028
Mof_C 	C 	0.3616	0.6936	0.68615	0.274
Mof_C 	C 	0.4805	0.7957	0.70907	-0.023
Mof_H 	H 	0.4675	0.8266	0.6819	0.079
Mof_C 	C 	0.4516	0.678	0.76064	-0.023
Mof_H 	H 	0.4191	0.6299	0.7679	0.083
Mof_O 	O 	0.3078	0.6366	0.7	-0.227
Mof_O 	O 	0.3585	0.7243	0.64524	-0.231
Mof_C 	C 	0.818	0.5268	0.71948	-0.028
Mof_C 	C 	0.8884	0.5564	0.68615	0.274
Mof_C 	C 	0.7695	0.4543	0.70907	-0.023
Mof_H 	H 	0.7825	0.4234	0.6819	0.079
Mof_C 	C 	0.7984	0.572	0.76064	-0.022
Mof_H 	H 	0.8309	0.6201	0.7679	0.083
Mof_O 	O 	0.9422	0.6134	0.7	-0.227
Mof_O 	O 	0.8915	0.5257	0.64524	-0.231
Mof_C 	C 	0.818	0.0268	0.21948	-0.026
Mof_C 	C 	0.8884	0.0564	0.18615	0.273
Mof_C 	C 	0.7695	0.9543	0.20907	-0.025
Mof_H 	H 	0.7825	0.9234	0.1819	0.079
Mof_C 	C 	0.7984	0.072	0.26064	-0.024
Mof_H 	H 	0.8309	0.1201	0.2679	0.083
Mof_O 	O 	0.9422	0.1134	0.2	-0.226
Mof_O 	O 	0.8915	0.0257	0.14524	-0.23
Mof_C 	C 	0.318	0.5268	0.21948	-0.028
Mof_C 	C 	0.3884	0.5564	0.18615	0.274
Mof_C 	C 	0.2695	0.4543	0.20907	-0.023
Mof_H 	H 	0.2825	0.4234	0.1819	0.079
Mof_C 	C 	0.2984	0.572	0.26064	-0.022
Mof_H 	H 	0.3309	0.6201	0.2679	0.083
Mof_O 	O 	0.4422	0.6134	0.2	-0.227
Mof_O 	O 	0.3915	0.5257	0.14524	-0.231
Mof_C 	C 	0.318	0.0268	0.71948	-0.03
Mof_C 	C 	0.3884	0.0564	0.68615	0.274
Mof_C 	C 	0.2695	0.9543	0.70907	-0.021
Mof_H 	H 	0.2825	0.9234	0.6819	0.078
Mof_C 	C 	0.2984	0.072	0.76064	-0.021
Mof_H 	H 	0.3309	0.1201	0.7679	0.082
Mof_O 	O 	0.4422	0.1134	0.7	-0.227
Mof_O 	O 	0.3915	0.0257	0.64524	-0.231
Mof_C 	C 	0.182	0.7768	0.96948	-0.027
Mof_C 	C 	0.1116	0.8064	0.93615	0.274
Mof_C 	C 	0.2305	0.7043	0.95907	-0.024
Mof_H 	H 	0.2175	0.6734	0.9319	0.079
Mof_C 	C 	0.2016	0.822	0.01064	-0.024
Mof_H 	H 	0.1691	0.8701	0.0179	0.083
Mof_O 	O 	0.0578	0.8634	0.95	-0.226
Mof_O 	O 	0.1085	0.7757	0.89524	-0.23
Mof_C 	C 	0.182	0.2768	0.46948	-0.028
Mof_C 	C 	0.1116	0.3064	0.43615	0.274
Mof_C 	C 	0.2305	0.2043	0.45907	-0.023
Mof_H 	H 	0.2175	0.1734	0.4319	0.079
Mof_C 	C 	0.2016	0.322	0.51064	-0.023
Mof_H 	H 	0.1691	0.3701	0.5179	0.083
Mof_O 	O 	0.0578	0.3634	0.45	-0.227
Mof_O 	O 	0.1085	0.2757	0.39524	-0.231
Mof_C 	C 	0.682	0.7768	0.46948	-0.028
Mof_C 	C 	0.6116	0.8064	0.43615	0.274
Mof_C 	C 	0.7305	0.7043	0.45907	-0.023
Mof_H 	H 	0.7175	0.6734	0.4319	0.079
Mof_C 	C 	0.7016	0.822	0.51064	-0.023
Mof_H 	H 	0.6691	0.8701	0.5179	0.083
Mof_O 	O 	0.5578	0.8634	0.45	-0.227
Mof_O 	O 	0.6085	0.7757	0.39524	-0.231
Mof_C 	C 	0.682	0.2768	0.96948	-0.029
Mof_C 	C 	0.6116	0.3064	0.93615	0.274
Mof_C 	C 	0.7305	0.2043	0.95907	-0.022
Mof_H 	H 	0.7175	0.1734	0.9319	0.078
Mof_C 	C 	0.7016	0.322	0.01064	-0.021
Mof_H 	H 	0.6691	0.3701	0.0179	0.082
Mof_O 	O 	0.5578	0.3634	0.95	-0.227
Mof_O 	O 	0.6085	0.2757	0.89524	-0.231
Mof_C 	C 	0.068	0.4732	0.96948	-0.028
Mof_C 	C 	0.1384	0.4436	0.93615	0.274
Mof_C 	C 	0.0195	0.5457	0.95907	-0.022
Mof_H 	H 	0.0325	0.5766	0.9319	0.079
Mof_C 	C 	0.0484	0.428	0.01064	-0.024
Mof_H 	H 	0.0809	0.3799	0.0179	0.083
Mof_O 	O 	0.1922	0.3866	0.95	-0.227
Mof_O 	O 	0.1415	0.4743	0.89524	-0.23
Mof_C 	C 	0.068	0.9732	0.46948	-0.027
Mof_C 	C 	0.1384	0.9436	0.43615	0.274
Mof_C 	C 	0.0195	0.0457	0.45907	-0.025
Mof_H 	H 	0.0325	0.0766	0.4319	0.079
Mof_C 	C 	0.0484	0.928	0.51064	-0.021
Mof_H 	H 	0.0809	0.8799	0.5179	0.083
Mof_O 	O 	0.1922	0.8866	0.45	-0.227
Mof_O 	O 	0.1415	0.9743	0.39524	-0.23
Mof_C 	C 	0.568	0.4732	0.46948	-0.028
Mof_C 	C 	0.6384	0.4436	0.43615	0.274
Mof_C 	C 	0.5195	0.5457	0.45907	-0.023
Mof_H 	H 	0.5325	0.5766	0.4319	0.079
Mof_C 	C 	0.5484	0.428	0.51064	-0.022
Mof_H 	H 	0.5809	0.3799	0.5179	0.083
Mof_O 	O 	0.6922	0.3866	0.45	-0.227
Mof_O 	O 	0.6415	0.4743	0.39524	-0.231
Mof_C 	C 	0.568	0.9732	0.96948	-0.028
Mof_C 	C 	0.6384	0.9436	0.93615	0.274
Mof_C 	C 	0.5195	0.0457	0.95907	-0.023
Mof_H 	H 	0.5325	0.0766	0.9319	0.079
Mof_C 	C 	0.5484	0.928	0.01064	-0.023
Mof_H 	H 	0.5809	0.8799	0.0179	0.083
Mof_O 	O 	0.6922	0.8866	0.95	-0.227
Mof_O 	O 	0.6415	0.9743	0.89524	-0.231
Mof_C 	C 	0.068	0.7768	0.28052	-0.028
Mof_C 	C 	0.1384	0.8064	0.31385	0.274
Mof_C 	C 	0.0195	0.7043	0.29093	-0.022
Mof_H 	H 	0.0325	0.6734	0.3181	0.079
Mof_C 	C 	0.0484	0.822	0.23936	-0.022
Mof_H 	H 	0.0809	0.8701	0.2321	0.083
Mof_O 	O 	0.1922	0.8634	0.3	-0.227
Mof_O 	O 	0.1415	0.7757	0.35476	-0.231
Mof_C 	C 	0.068	0.2768	0.78052	-0.027
Mof_C 	C 	0.1384	0.3064	0.81385	0.274
Mof_C 	C 	0.0195	0.2043	0.79093	-0.024
Mof_H 	H 	0.0325	0.1734	0.8181	0.079
Mof_C 	C 	0.0484	0.322	0.73936	-0.023
Mof_H 	H 	0.0809	0.3701	0.7321	0.083
Mof_O 	O 	0.1922	0.3634	0.8	-0.227
Mof_O 	O 	0.1415	0.2757	0.85476	-0.231
Mof_C 	C 	0.568	0.7768	0.78052	-0.028
Mof_C 	C 	0.6384	0.8064	0.81385	0.274
Mof_C 	C 	0.5195	0.7043	0.79093	-0.023
Mof_H 	H 	0.5325	0.6734	0.8181	0.079
Mof_C 	C 	0.5484	0.822	0.73936	-0.022
Mof_H 	H 	0.5809	0.8701	0.7321	0.083
Mof_O 	O 	0.6922	0.8634	0.8	-0.227
Mof_O 	O 	0.6415	0.7757	0.85476	-0.231
Mof_C 	C 	0.568	0.2768	0.28052	-0.028
Mof_C 	C 	0.6384	0.3064	0.31385	0.274
Mof_C 	C 	0.5195	0.2043	0.29093	-0.023
Mof_H 	H 	0.5325	0.1734	0.3181	0.079
Mof_C 	C 	0.5484	0.322	0.23936	-0.023
Mof_H 	H 	0.5809	0.3701	0.2321	0.083
Mof_O 	O 	0.6922	0.3634	0.3	-0.227
Mof_O 	O 	0.6415	0.2757	0.35476	-0.231
Mof_C 	C 	0.182	0.4732	0.28052	-0.028
Mof_C 	C 	0.1116	0.4436	0.31385	0.274
Mof_C 	C 	0.2305	0.5457	0.29093	-0.023
Mof_H 	H 	0.2175	0.5766	0.3181	0.079
Mof_C 	C 	0.2016	0.428	0.23936	-0.022
Mof_H 	H 	0.1691	0.3799	0.2321	0.083
Mof_O 	O 	0.0578	0.3866	0.3	-0.227
Mof_O 	O 	0.1085	0.4743	0.35476	-0.231
Mof_C 	C 	0.182	0.9732	0.78052	-0.026
Mof_C 	C 	0.1116	0.9436	0.81385	0.273
Mof_C 	C 	0.2305	0.0457	0.79093	-0.025
Mof_H 	H 	0.2175	0.0766	0.8181	0.079
Mof_C 	C 	0.2016	0.928	0.73936	-0.024
Mof_H 	H 	0.1691	0.8799	0.7321	0.083
Mof_O 	O 	0.0578	0.8866	0.8	-0.226
Mof_O 	O 	0.1085	0.9743	0.85476	-0.23
Mof_C 	C 	0.682	0.4732	0.78052	-0.028
Mof_C 	C 	0.6116	0.4436	0.81385	0.274
Mof_C 	C 	0.7305	0.5457	0.79093	-0.023
Mof_H 	H 	0.7175	0.5766	0.8181	0.079
Mof_C 	C 	0.7016	0.428	0.73936	-0.022
Mof_H 	H 	0.6691	0.3799	0.7321	0.083
Mof_O 	O 	0.5578	0.3866	0.8	-0.227
Mof_O 	O 	0.6085	0.4743	0.85476	-0.231
Mof_C 	C 	0.682	0.9732	0.28052	-0.03
Mof_C 	C 	0.6116	0.9436	0.31385	0.274
Mof_C 	C 	0.7305	0.0457	0.29093	-0.021
Mof_H 	H 	0.7175	0.0766	0.3181	0.078
Mof_C 	C 	0.7016	0.928	0.23936	-0.021
Mof_H 	H 	0.6691	0.8799	0.2321	0.082
Mof_O 	O 	0.5578	0.8866	0.3	-0.227
Mof_O 	O 	0.6085	0.9743	0.35476	-0.231
Mof_Cd	Cd	0.0031	0.125	0.125	0.528
Mof_Cd	Cd	0.0031	0.625	0.625	0.529
Mof_Cd	Cd	0.5031	0.125	0.625	0.528
Mof_Cd	Cd	0.7469	0.625	0.125	0.528
Mof_Cd	Cd	0.2469	0.625	0.625	0.528
Mof_Cd	Cd	0.7469	0.125	0.625	0.528
Mof_Cd	Cd	0.2469	0.125	0.125	0.528
Mof_Cd	Cd	0.5031	0.625	0.125	0.528
Mof_Cd	Cd	0.9969	0.875	0.875	0.528
Mof_Cd	Cd	0.9969	0.375	0.375	0.529
Mof_Cd	Cd	0.4969	0.875	0.375	0.528
Mof_Cd	Cd	0.2531	0.375	0.875	0.528
Mof_Cd	Cd	0.7531	0.375	0.375	0.528
Mof_Cd	Cd	0.2531	0.875	0.375	0.528
Mof_Cd	Cd	0.7531	0.875	0.875	0.528
Mof_Cd	Cd	0.4969	0.375	0.875	0.528
Mof_Cl	Cl	0.125	0.01262	0.125	-0.338
Mof_Cl	Cl	0.125	0.51262	0.625	-0.338
Mof_Cl	Cl	0.625	0.01262	0.625	-0.338
Mof_Cl	Cl	0.625	0.73738	0.125	-0.338
Mof_Cl	Cl	0.625	0.23738	0.625	-0.338
Mof_Cl	Cl	0.625	0.51262	0.125	-0.338
Mof_Cl	Cl	0.125	0.73738	0.625	-0.338
Mof_Cl	Cl	0.125	0.23738	0.125	-0.338
Mof_Cl	Cl	0.875	0.98738	0.875	-0.338
Mof_Cl	Cl	0.875	0.48738	0.375	-0.338
Mof_Cl	Cl	0.375	0.98738	0.375	-0.338
Mof_Cl	Cl	0.375	0.26262	0.875	-0.338
Mof_Cl	Cl	0.375	0.76262	0.375	-0.338
Mof_Cl	Cl	0.375	0.48738	0.875	-0.338
Mof_Cl	Cl	0.875	0.26262	0.375	-0.338
Mof_Cl	Cl	0.875	0.76262	0.875	-0.338
_end
