# CIF file generated by openbabel 3.1.0, see https://openbabel.org
data_I
_chemical_name_common 'EJEFOP_clean'
_cell_length_a 12.148
_cell_length_b 13.123
_cell_length_c 13.98
_cell_angle_alpha 75.633
_cell_angle_beta 64.45
_cell_angle_gamma 67.616
_space_group_name_H-M_alt 'P 1'
_space_group_name_Hall 'P 1'
loop_
    _symmetry_equiv_pos_as_xyz
    x,y,z
loop_
    _atom_site_label
    _atom_site_type_symbol
    _atom_site_fract_x
    _atom_site_fract_y
    _atom_site_fract_z
    _atom_site_occupancy
    Cd1      Cd       0.15062    0.55385    0.44913    1.000
    Cd2      Cd       0.24978    0.49186    0.72287    1.000
    Cd3      Cd       0.84938    0.44615    0.55087    1.000
    Cd4      Cd       0.75022    0.50814    0.27713    1.000
    H1       H        0.44920    0.80770    0.31590    1.000
    H2       H        0.38220    0.65860    0.44640    1.000
    H3       H        0.09640    0.91510    0.18930    1.000
    H4       H        0.91820    0.92110    0.16840    1.000
    H5       H        0.83230    0.77950    0.24040    1.000
    H6       H        0.92680    0.63400    0.34400    1.000
    H7       H        0.41280    0.89150    0.13800    1.000
    H8       H        0.29120    0.88700    0.12790    1.000
    H9       H        0.28280    0.04080    0.24370    1.000
    H10      H        0.16160    0.03680    0.23200    1.000
    H11      H        0.37380    0.07660    0.05340    1.000
    H12      H        0.24170    0.08800    0.05110    1.000
    H13      H        0.26320    0.22990    0.16140    1.000
    H14      H        0.13970    0.24560    0.14180    1.000
    H15      H        0.45300    0.27900    0.01340    1.000
    H16      H        0.48180    0.38680    0.84020    1.000
    H17      H        0.02880    0.26150    0.07110    1.000
    H18      H        0.82830    0.31170    0.06670    1.000
    H19      H        0.77430    0.44660    0.93630    1.000
    H20      H        0.93380    0.51920    0.80740    1.000
    H21      H        0.76360    0.85750    0.52100    1.000
    H22      H        0.82900    0.01040    0.46680    1.000
    H23      H        0.09990    0.85530    0.59110    1.000
    H24      H        0.37700    0.14810    0.58860    1.000
    H25      H        0.67810    0.99240    0.35280    1.000
    H26      H        0.72020    0.15480    0.27480    1.000
    H27      H        0.55080    0.19230    0.68410    1.000
    H28      H        0.61780    0.34140    0.55360    1.000
    H29      H        0.90360    0.08490    0.81070    1.000
    H30      H        0.08180    0.07890    0.83160    1.000
    H31      H        0.16770    0.22050    0.75960    1.000
    H32      H        0.07320    0.36600    0.65600    1.000
    H33      H        0.58720    0.10850    0.86200    1.000
    H34      H        0.70880    0.11300    0.87210    1.000
    H35      H        0.71720    0.95920    0.75630    1.000
    H36      H        0.83840    0.96320    0.76800    1.000
    H37      H        0.62620    0.92340    0.94660    1.000
    H38      H        0.75830    0.91200    0.94890    1.000
    H39      H        0.73680    0.77010    0.83860    1.000
    H40      H        0.86030    0.75440    0.85820    1.000
    H41      H        0.54700    0.72100    0.98660    1.000
    H42      H        0.51820    0.61320    0.15980    1.000
    H43      H        0.97120    0.73850    0.92890    1.000
    H44      H        0.17170    0.68830    0.93330    1.000
    H45      H        0.22570    0.55340    0.06370    1.000
    H46      H        0.06620    0.48080    0.19260    1.000
    H47      H        0.23640    0.14250    0.47900    1.000
    H48      H        0.17100    0.98960    0.53320    1.000
    H49      H        0.90010    0.14470    0.40890    1.000
    H50      H        0.62300    0.85190    0.41140    1.000
    H51      H        0.32190    0.00760    0.64720    1.000
    H52      H        0.27980    0.84520    0.72520    1.000
    C1       C        0.38240    0.78290    0.32600    1.000
    C2       C        0.34620    0.70010    0.39670    1.000
    C3       C        0.21680    0.76250    0.31170    1.000
    C4       C        0.10850    0.77070    0.28340    1.000
    C5       C        0.05920    0.85880    0.22130    1.000
    C6       C        0.95520    0.86080    0.20830    1.000
    C7       C        0.90310    0.77890    0.25090    1.000
    C8       C        0.96130    0.69190    0.31240    1.000
    C9       C        0.32130    0.90280    0.17490    1.000
    C10      C        0.25350    0.02380    0.19680    1.000
    C11      C        0.28180    0.09820    0.09340    1.000
    C12      C        0.23290    0.22110    0.11110    1.000
    C13      C        0.39560    0.30470    0.97880    1.000
    C14      C        0.40960    0.36520    0.88400    1.000
    C15      C        0.22190    0.34420    0.94060    1.000
    C16      C        0.09850    0.36280    0.94160    1.000
    C17      C        0.00790    0.31430    0.01830    1.000
    C18      C        0.88840    0.34450    0.01570    1.000
    C19      C        0.85610    0.42360    0.93790    1.000
    C20      C        0.95200    0.46720    0.86170    1.000
    C21      C        0.06960    0.66720    0.65870    1.000
    C22      C        0.99550    0.76490    0.60480    1.000
    C23      C        0.89690    0.76270    0.58240    1.000
    C24      C        0.83370    0.85680    0.53280    1.000
    C25      C        0.87250    0.94850    0.50090    1.000
    C26      C        0.97670    0.95160    0.51820    1.000
    C27      C        0.03350    0.85570    0.57440    1.000
    C28      C        0.85030    0.66050    0.61660    1.000
    C29      C        0.37070    0.35250    0.52990    1.000
    C30      C        0.46390    0.24920    0.47870    1.000
    C31      C        0.44380    0.15020    0.52290    1.000
    C32      C        0.51530    0.05370    0.47680    1.000
    C33      C        0.62290    0.05750    0.38370    1.000
    C34      C        0.64860    0.15460    0.33720    1.000
    C35      C        0.56840    0.25380    0.38240    1.000
    C36      C        0.60440    0.36080    0.33090    1.000
    C37      C        0.61760    0.21710    0.67400    1.000
    C38      C        0.65380    0.29990    0.60330    1.000
    C39      C        0.78320    0.23750    0.68830    1.000
    C40      C        0.89150    0.22930    0.71660    1.000
    C41      C        0.94080    0.14120    0.77870    1.000
    C42      C        0.04480    0.13920    0.79170    1.000
    C43      C        0.09690    0.22110    0.74910    1.000
    C44      C        0.03870    0.30810    0.68760    1.000
    C45      C        0.67870    0.09720    0.82510    1.000
    C46      C        0.74650    0.97620    0.80320    1.000
    C47      C        0.71820    0.90180    0.90660    1.000
    C48      C        0.76710    0.77890    0.88890    1.000
    C49      C        0.60440    0.69530    0.02120    1.000
    C50      C        0.59040    0.63480    0.11600    1.000
    C51      C        0.77810    0.65580    0.05940    1.000
    C52      C        0.90150    0.63720    0.05840    1.000
    C53      C        0.99210    0.68570    0.98170    1.000
    C54      C        0.11160    0.65550    0.98430    1.000
    C55      C        0.14390    0.57640    0.06210    1.000
    C56      C        0.04800    0.53280    0.13830    1.000
    C57      C        0.93040    0.33280    0.34130    1.000
    C58      C        0.00450    0.23510    0.39520    1.000
    C59      C        0.10310    0.23730    0.41760    1.000
    C60      C        0.16630    0.14320    0.46720    1.000
    C61      C        0.12750    0.05150    0.49910    1.000
    C62      C        0.02330    0.04840    0.48180    1.000
    C63      C        0.96650    0.14430    0.42560    1.000
    C64      C        0.14970    0.33950    0.38340    1.000
    C65      C        0.62930    0.64750    0.47010    1.000
    C66      C        0.53610    0.75080    0.52130    1.000
    C67      C        0.55620    0.84980    0.47710    1.000
    C68      C        0.48470    0.94630    0.52320    1.000
    C69      C        0.37710    0.94250    0.61630    1.000
    C70      C        0.35140    0.84540    0.66280    1.000
    C71      C        0.43160    0.74620    0.61760    1.000
    C72      C        0.39560    0.63920    0.66910    1.000
    N1       N        0.06370    0.68830    0.32760    1.000
    N2       N        0.24750    0.68720    0.38320    1.000
    N3       N        0.30080    0.82340    0.27170    1.000
    N4       N        0.07060    0.43640    0.86440    1.000
    N5       N        0.30310    0.39080    0.86070    1.000
    N6       N        0.27500    0.28860    0.01460    1.000
    N7       N        0.93630    0.31170    0.67240    1.000
    N8       N        0.75250    0.31280    0.61680    1.000
    N9       N        0.69920    0.17660    0.72830    1.000
    N10      N        0.92940    0.56360    0.13560    1.000
    N11      N        0.69690    0.60920    0.13930    1.000
    N12      N        0.72500    0.71140    0.98540    1.000
    O1       O        0.09510    0.67750    0.73120    1.000
    O2       O        0.10550    0.57190    0.62390    1.000
    O3       O        0.90640    0.59080    0.55030    1.000
    O4       O        0.76700    0.65180    0.70360    1.000
    O5       O        0.33340    0.34570    0.62870    1.000
    O6       O        0.33240    0.43580    0.46740    1.000
    O7       O        0.62140    0.41100    0.38170    1.000
    O8       O        0.62190    0.38350    0.23410    1.000
    O9       O        0.90490    0.32250    0.26880    1.000
    O10      O        0.89450    0.42810    0.37610    1.000
    O11      O        0.09360    0.40920    0.44970    1.000
    O12      O        0.23300    0.34820    0.29640    1.000
    O13      O        0.66660    0.65430    0.37130    1.000
    O14      O        0.66760    0.56420    0.53260    1.000
    O15      O        0.37860    0.58900    0.61830    1.000
    O16      O        0.37810    0.61650    0.76590    1.000
