# CIF file generated by openbabel 3.1.0, see https://openbabel.org
data_I
_chemical_name_common 'image0'
_cell_length_a 9.7563
_cell_length_b 11.2413
_cell_length_c 21.5957
_cell_angle_alpha 90
_cell_angle_beta 90
_cell_angle_gamma 90
_space_group_name_H-M_alt 'P 1'
_space_group_name_Hall 'P 1'
loop_
    _symmetry_equiv_pos_as_xyz
    x,y,z
loop_
    _atom_site_label
    _atom_site_type_symbol
    _atom_site_fract_x
    _atom_site_fract_y
    _atom_site_fract_z
    _atom_site_occupancy
    C1       C        0.10570    0.94070    0.33258    1.000
    C2       C        0.02560    0.01990    0.36700    1.000
    C3       C        0.95240    0.10400    0.33329    1.000
    C4       C        0.01200    0.00930    0.43475    1.000
    C5       C        0.08410    0.92310    0.46788    1.000
    H1       H        0.14110    0.87060    0.44670    1.000
    C6       C        0.92750    0.08610    0.46823    1.000
    H2       H        0.87810    0.14440    0.44740    1.000
    N1       N        0.16930    0.87530    0.30336    1.000
    N2       N        0.89100    0.17240    0.30458    1.000
    C7       C        0.39430    0.55930    0.33258    1.000
    C8       C        0.47440    0.48010    0.36700    1.000
    C9       C        0.54760    0.39600    0.33329    1.000
    C10      C        0.48800    0.49070    0.43475    1.000
    C11      C        0.41590    0.57690    0.46788    1.000
    H3       H        0.35890    0.62940    0.44670    1.000
    C12      C        0.57250    0.41390    0.46823    1.000
    H4       H        0.62190    0.35560    0.44740    1.000
    N3       N        0.33070    0.62470    0.30336    1.000
    N4       N        0.60900    0.32760    0.30458    1.000
    C13      C        0.89430    0.44070    0.16742    1.000
    C14      C        0.97440    0.51990    0.13300    1.000
    C15      C        0.04760    0.60400    0.16671    1.000
    C16      C        0.98800    0.50930    0.06525    1.000
    C17      C        0.91590    0.42310    0.03212    1.000
    H5       H        0.85890    0.37060    0.05330    1.000
    C18      C        0.07250    0.58610    0.03177    1.000
    H6       H        0.12190    0.64440    0.05260    1.000
    N5       N        0.83070    0.37530    0.19664    1.000
    N6       N        0.10900    0.67240    0.19542    1.000
    C19      C        0.60570    0.05930    0.16742    1.000
    C20      C        0.52560    0.98010    0.13300    1.000
    C21      C        0.45240    0.89600    0.16671    1.000
    C22      C        0.51200    0.99070    0.06525    1.000
    C23      C        0.58410    0.07690    0.03212    1.000
    H7       H        0.64110    0.12940    0.05330    1.000
    C24      C        0.42750    0.91390    0.03177    1.000
    H8       H        0.37810    0.85560    0.05260    1.000
    N7       N        0.66930    0.12470    0.19664    1.000
    N8       N        0.39100    0.82760    0.19542    1.000
    C25      C        0.89430    0.05930    0.66742    1.000
    C26      C        0.97440    0.98010    0.63300    1.000
    C27      C        0.04760    0.89600    0.66671    1.000
    C28      C        0.98800    0.99070    0.56525    1.000
    C29      C        0.91590    0.07690    0.53212    1.000
    H9       H        0.85890    0.12940    0.55330    1.000
    C30      C        0.07250    0.91390    0.53177    1.000
    H10      H        0.12190    0.85560    0.55260    1.000
    N9       N        0.83070    0.12470    0.69664    1.000
    N10      N        0.10900    0.82760    0.69542    1.000
    C31      C        0.60570    0.44070    0.66742    1.000
    C32      C        0.52560    0.51990    0.63300    1.000
    C33      C        0.45240    0.60400    0.66671    1.000
    C34      C        0.51200    0.50930    0.56525    1.000
    C35      C        0.58410    0.42310    0.53212    1.000
    H11      H        0.64110    0.37060    0.55330    1.000
    C36      C        0.42750    0.58610    0.53177    1.000
    H12      H        0.37810    0.64440    0.55260    1.000
    N11      N        0.66930    0.37530    0.69664    1.000
    N12      N        0.39100    0.67240    0.69542    1.000
    C37      C        0.10570    0.55930    0.83258    1.000
    C38      C        0.02560    0.48010    0.86700    1.000
    C39      C        0.95240    0.39600    0.83329    1.000
    C40      C        0.01200    0.49070    0.93475    1.000
    C41      C        0.08410    0.57690    0.96788    1.000
    H13      H        0.14110    0.62940    0.94670    1.000
    C42      C        0.92750    0.41390    0.96823    1.000
    H14      H        0.87810    0.35560    0.94740    1.000
    N13      N        0.16930    0.62470    0.80336    1.000
    N14      N        0.89100    0.32760    0.80458    1.000
    C43      C        0.39430    0.94070    0.83258    1.000
    C44      C        0.47440    0.01990    0.86700    1.000
    C45      C        0.54760    0.10400    0.83329    1.000
    C46      C        0.48800    0.00930    0.93475    1.000
    C47      C        0.41590    0.92310    0.96788    1.000
    H15      H        0.35890    0.87060    0.94670    1.000
    C48      C        0.57250    0.08610    0.96823    1.000
    H16      H        0.62190    0.14440    0.94740    1.000
    N15      N        0.33070    0.87530    0.80336    1.000
    N16      N        0.60900    0.17240    0.80458    1.000
    Cu1      Cu       0.25000    0.75000    0.24919    1.000
    Cu2      Cu       0.75000    0.25000    0.25081    1.000
    Cu3      Cu       0.75000    0.25000    0.75081    1.000
    Cu4      Cu       0.25000    0.75000    0.74919    1.000
