# CIF file generated by openbabel 3.1.0, see https://openbabel.org
data_I
_chemical_name_common 'image0'
_cell_length_a 46.108
_cell_length_b 10.6758
_cell_length_c 23.633
_cell_angle_alpha 90
_cell_angle_beta 95.274
_cell_angle_gamma 90
_space_group_name_H-M_alt 'P 1'
_space_group_name_Hall 'P 1'
loop_
    _symmetry_equiv_pos_as_xyz
    x,y,z
loop_
    _atom_site_label
    _atom_site_type_symbol
    _atom_site_fract_x
    _atom_site_fract_y
    _atom_site_fract_z
    _atom_site_occupancy
    C1       C        0.18885    0.10030    0.04983    1.000
    C2       C        0.17083    0.20310    0.06756    1.000
    C3       C        0.15268    0.18840    0.10967    1.000
    H1       H        0.15180    0.11070    0.12720    1.000
    C4       C        0.13534    0.28670    0.12736    1.000
    H2       H        0.12270    0.27490    0.15540    1.000
    C5       C        0.13783    0.39960    0.10173    1.000
    C6       C        0.15587    0.41620    0.06074    1.000
    H3       H        0.15770    0.49520    0.04490    1.000
    C7       C        0.17157    0.31750    0.04211    1.000
    H4       H        0.18280    0.32880    0.01180    1.000
    C8       C        0.10316    0.56310    0.08621    1.000
    C9       C        0.08891    0.50670    0.04055    1.000
    H5       H        0.09380    0.42550    0.03070    1.000
    C10      C        0.06724    0.57010    0.00904    1.000
    H6       H        0.05720    0.53120    0.97790    1.000
    C11      C        0.06007    0.69050    0.02290    1.000
    C12      C        0.07514    0.74810    0.06745    1.000
    H7       H        0.07090    0.83070    0.07620    1.000
    C13      C        0.09687    0.68380    0.10000    1.000
    H8       H        0.10710    0.72250    0.13100    1.000
    C14      C        0.03459    0.75040    0.99050    1.000
    C15      C        0.28812    0.71310    0.15057    1.000
    C16      C        0.30343    0.77700    0.19379    1.000
    H9       H        0.29710    0.85610    0.20370    1.000
    C17      C        0.32853    0.72630    0.22358    1.000
    H10      H        0.33860    0.77080    0.25300    1.000
    C18      C        0.33811    0.60820    0.20831    1.000
    C19      C        0.32362    0.54530    0.16506    1.000
    H11      H        0.33020    0.46760    0.15400    1.000
    C20      C        0.29854    0.59830    0.13697    1.000
    H12      H        0.28850    0.55330    0.10770    1.000
    C21      C        0.38735    0.55040    0.21460    1.000
    C22      C        0.39313    0.61360    0.16710    1.000
    H13      H        0.37850    0.66090    0.14770    1.000
    C23      C        0.42019    0.60900    0.14714    1.000
    H14      H        0.42360    0.65490    0.11500    1.000
    C24      C        0.44241    0.53750    0.17389    1.000
    C25      C        0.43600    0.46970    0.22118    1.000
    H15      H        0.45020    0.41780    0.23910    1.000
    C26      C        0.40873    0.47700    0.24275    1.000
    H16      H        0.40510    0.43320    0.27540    1.000
    C27      C        0.47215    0.53660    0.15191    1.000
    C28      C        0.17751    0.83320    0.17179    1.000
    H17      H        0.17630    0.91920    0.16570    1.000
    C29      C        0.16138    0.78370    0.21267    1.000
    H18      H        0.14950    0.83450    0.23270    1.000
    C30      C        0.16329    0.65590    0.22305    1.000
    C31      C        0.18150    0.58800    0.19142    1.000
    H19      H        0.18340    0.50210    0.19690    1.000
    C32      C        0.19666    0.64640    0.15207    1.000
    H20      H        0.20920    0.59820    0.13230    1.000
    C33      C        0.19328    0.33000    0.48396    1.000
    H21      H        0.21280    0.35350    0.48820    1.000
    C34      C        0.17517    0.39620    0.44475    1.000
    H22      H        0.18220    0.46170    0.42400    1.000
    C35      C        0.14653    0.36180    0.43760    1.000
    C36      C        0.13742    0.26620    0.47008    1.000
    H23      H        0.11810    0.24050    0.46640    1.000
    C37      C        0.15721    0.20960    0.50779    1.000
    H24      H        0.15050    0.14590    0.53000    1.000
    C38      C        0.05023    0.22760    0.17153    1.000
    H25      H        0.05040    0.14110    0.17600    1.000
    C39      C        0.06683    0.29580    0.21100    1.000
    H26      H        0.07810    0.25590    0.24040    1.000
    C40      C        0.06683    0.42190    0.20707    1.000
    C41      C        0.04952    0.47410    0.16191    1.000
    H27      H        0.04830    0.56060    0.15770    1.000
    C42      C        0.03413    0.39640    0.12337    1.000
    H28      H        0.02330    0.43310    0.09260    1.000
    C43      C        0.06451    0.84280    0.51117    1.000
    H29      H        0.07070    0.89200    0.54240    1.000
    C44      C        0.08421    0.81470    0.47370    1.000
    H30      H        0.10340    0.84220    0.47980    1.000
    C45      C        0.07516    0.74520    0.42709    1.000
    C46      C        0.04661    0.70720    0.41849    1.000
    H31      H        0.03970    0.66070    0.38680    1.000
    C47      C        0.02898    0.74170    0.45932    1.000
    H32      H        0.00950    0.71850    0.45370    1.000
    C48      C        0.08675    0.61400    0.35034    1.000
    H33      H        0.07300    0.64980    0.32130    1.000
    H34      H        0.07710    0.54690    0.36890    1.000
    C49      C        0.10101    0.45330    0.28668    1.000
    H35      H        0.11680    0.40860    0.27130    1.000
    H36      H        0.09080    0.39540    0.30940    1.000
    C50      C        0.13629    0.51670    0.36709    1.000
    H37      H        0.15300    0.48910    0.34840    1.000
    H38      H        0.14250    0.58560    0.39220    1.000
    C51      C        0.12692    0.65760    0.28808    1.000
    H39      H        0.11250    0.69590    0.26100    1.000
    H40      H        0.13600    0.72270    0.31230    1.000
    C52      C        0.26162    0.76610    0.12141    1.000
    C53      C        0.11294    0.56190    0.32303    1.000
    N1       N        0.19466    0.76780    0.14023    1.000
    N2       N        0.03389    0.27360    0.12743    1.000
    N3       N        0.18558    0.23750    0.51574    1.000
    N4       N        0.03723    0.80530    0.50616    1.000
    Ni1      Ni       0.21495    0.84612    0.07397    1.000
    Ni2      Ni       0.99150    0.83131    0.93003    1.000
    O1       O        0.19148    0.00490    0.08052    1.000
    O2       O        0.20131    0.11240    0.00568    1.000
    O3       O        0.25277    0.87380    0.13389    1.000
    O4       O        0.24714    0.70350    0.08168    1.000
    O5       O        0.47798    0.63420    0.12478    1.000
    O6       O        0.48837    0.44550    0.16262    1.000
    O7       O        0.02870    0.86500    0.99685    1.000
    O8       O        0.01844    0.68370    0.95622    1.000
    O9       O        0.36198    0.55890    0.24019    1.000
    O10      O        0.12309    0.50070    0.12378    1.000
    O11      O        0.09626    0.70940    0.39164    1.000
    O12      O        0.08155    0.50220    0.24166    1.000
    O13      O        0.12617    0.41540    0.40013    1.000
    O14      O        0.14829    0.59310    0.25915    1.000
    C54      C        0.68885    0.60030    0.04983    1.000
    C55      C        0.67083    0.70310    0.06756    1.000
    C56      C        0.65268    0.68840    0.10967    1.000
    H41      H        0.65180    0.61070    0.12720    1.000
    C57      C        0.63534    0.78670    0.12736    1.000
    H42      H        0.62270    0.77490    0.15540    1.000
    C58      C        0.63783    0.89960    0.10173    1.000
    C59      C        0.65587    0.91620    0.06074    1.000
    H43      H        0.65770    0.99520    0.04490    1.000
    C60      C        0.67157    0.81750    0.04211    1.000
    H44      H        0.68280    0.82880    0.01180    1.000
    C61      C        0.60316    0.06310    0.08621    1.000
    C62      C        0.58891    0.00670    0.04055    1.000
    H45      H        0.59380    0.92550    0.03070    1.000
    C63      C        0.56724    0.07010    0.00904    1.000
    H46      H        0.55720    0.03120    0.97790    1.000
    C64      C        0.56007    0.19050    0.02290    1.000
    C65      C        0.57514    0.24810    0.06745    1.000
    H47      H        0.57090    0.33070    0.07620    1.000
    C66      C        0.59687    0.18380    0.10000    1.000
    H48      H        0.60710    0.22250    0.13100    1.000
    C67      C        0.53459    0.25040    0.99050    1.000
    C68      C        0.78812    0.21310    0.15057    1.000
    C69      C        0.80343    0.27700    0.19379    1.000
    H49      H        0.79710    0.35610    0.20370    1.000
    C70      C        0.82853    0.22630    0.22358    1.000
    H50      H        0.83860    0.27080    0.25300    1.000
    C71      C        0.83811    0.10820    0.20831    1.000
    C72      C        0.82362    0.04530    0.16506    1.000
    H51      H        0.83020    0.96760    0.15400    1.000
    C73      C        0.79854    0.09830    0.13697    1.000
    H52      H        0.78850    0.05330    0.10770    1.000
    C74      C        0.88735    0.05040    0.21460    1.000
    C75      C        0.89313    0.11360    0.16710    1.000
    H53      H        0.87850    0.16090    0.14770    1.000
    C76      C        0.92019    0.10900    0.14714    1.000
    H54      H        0.92360    0.15490    0.11500    1.000
    C77      C        0.94241    0.03750    0.17389    1.000
    C78      C        0.93600    0.96970    0.22118    1.000
    H55      H        0.95020    0.91780    0.23910    1.000
    C79      C        0.90873    0.97700    0.24275    1.000
    H56      H        0.90510    0.93320    0.27540    1.000
    C80      C        0.97215    0.03660    0.15191    1.000
    C81      C        0.67751    0.33320    0.17179    1.000
    H57      H        0.67630    0.41920    0.16570    1.000
    C82      C        0.66138    0.28370    0.21267    1.000
    H58      H        0.64950    0.33450    0.23270    1.000
    C83      C        0.66329    0.15590    0.22305    1.000
    C84      C        0.68150    0.08800    0.19142    1.000
    H59      H        0.68340    0.00210    0.19690    1.000
    C85      C        0.69666    0.14640    0.15207    1.000
    H60      H        0.70920    0.09820    0.13230    1.000
    C86      C        0.69328    0.83000    0.48396    1.000
    H61      H        0.71280    0.85350    0.48820    1.000
    C87      C        0.67517    0.89620    0.44475    1.000
    H62      H        0.68220    0.96170    0.42400    1.000
    C88      C        0.64653    0.86180    0.43760    1.000
    C89      C        0.63742    0.76620    0.47008    1.000
    H63      H        0.61810    0.74050    0.46640    1.000
    C90      C        0.65721    0.70960    0.50779    1.000
    H64      H        0.65050    0.64590    0.53000    1.000
    C91      C        0.55023    0.72760    0.17153    1.000
    H65      H        0.55040    0.64110    0.17600    1.000
    C92      C        0.56683    0.79580    0.21100    1.000
    H66      H        0.57810    0.75590    0.24040    1.000
    C93      C        0.56683    0.92190    0.20707    1.000
    C94      C        0.54952    0.97410    0.16191    1.000
    H67      H        0.54830    0.06060    0.15770    1.000
    C95      C        0.53413    0.89640    0.12337    1.000
    H68      H        0.52330    0.93310    0.09260    1.000
    C96      C        0.56451    0.34280    0.51117    1.000
    H69      H        0.57070    0.39200    0.54240    1.000
    C97      C        0.58421    0.31470    0.47370    1.000
    H70      H        0.60340    0.34220    0.47980    1.000
    C98      C        0.57516    0.24520    0.42709    1.000
    C99      C        0.54661    0.20720    0.41849    1.000
    H71      H        0.53970    0.16070    0.38680    1.000
    C100     C        0.52898    0.24170    0.45932    1.000
    H72      H        0.50950    0.21850    0.45370    1.000
    C101     C        0.58675    0.11400    0.35034    1.000
    H73      H        0.57300    0.14980    0.32130    1.000
    H74      H        0.57710    0.04690    0.36890    1.000
    C102     C        0.60101    0.95330    0.28668    1.000
    H75      H        0.61680    0.90860    0.27130    1.000
    H76      H        0.59080    0.89540    0.30940    1.000
    C103     C        0.63629    0.01670    0.36709    1.000
    H77      H        0.65300    0.98910    0.34840    1.000
    H78      H        0.64250    0.08560    0.39220    1.000
    C104     C        0.62692    0.15760    0.28808    1.000
    H79      H        0.61250    0.19590    0.26100    1.000
    H80      H        0.63600    0.22270    0.31230    1.000
    C105     C        0.76162    0.26610    0.12141    1.000
    C106     C        0.61294    0.06190    0.32303    1.000
    N5       N        0.69466    0.26780    0.14023    1.000
    N6       N        0.53389    0.77360    0.12743    1.000
    N7       N        0.68558    0.73750    0.51574    1.000
    N8       N        0.53723    0.30530    0.50616    1.000
    Ni3      Ni       0.71495    0.34612    0.07397    1.000
    Ni4      Ni       0.49150    0.33131    0.93003    1.000
    O15      O        0.69148    0.50490    0.08052    1.000
    O16      O        0.70131    0.61240    0.00568    1.000
    O17      O        0.75277    0.37380    0.13389    1.000
    O18      O        0.74714    0.20350    0.08168    1.000
    O19      O        0.97798    0.13420    0.12478    1.000
    O20      O        0.98837    0.94550    0.16262    1.000
    O21      O        0.52870    0.36500    0.99685    1.000
    O22      O        0.51844    0.18370    0.95622    1.000
    O23      O        0.86198    0.05890    0.24019    1.000
    O24      O        0.62309    0.00070    0.12378    1.000
    O25      O        0.59626    0.20940    0.39164    1.000
    O26      O        0.58155    0.00220    0.24166    1.000
    O27      O        0.62617    0.91540    0.40013    1.000
    O28      O        0.64829    0.09310    0.25915    1.000
    C107     C        0.81115    0.10030    0.45017    1.000
    C108     C        0.82917    0.20310    0.43244    1.000
    C109     C        0.84732    0.18840    0.39033    1.000
    H81      H        0.84820    0.11070    0.37280    1.000
    C110     C        0.86466    0.28670    0.37264    1.000
    H82      H        0.87730    0.27490    0.34460    1.000
    C111     C        0.86217    0.39960    0.39827    1.000
    C112     C        0.84413    0.41620    0.43926    1.000
    H83      H        0.84230    0.49520    0.45510    1.000
    C113     C        0.82843    0.31750    0.45789    1.000
    H84      H        0.81720    0.32880    0.48820    1.000
    C114     C        0.89684    0.56310    0.41379    1.000
    C115     C        0.91109    0.50670    0.45945    1.000
    H85      H        0.90620    0.42550    0.46930    1.000
    C116     C        0.93276    0.57010    0.49096    1.000
    H86      H        0.94280    0.53120    0.52210    1.000
    C117     C        0.93993    0.69050    0.47710    1.000
    C118     C        0.92486    0.74810    0.43255    1.000
    H87      H        0.92910    0.83070    0.42380    1.000
    C119     C        0.90313    0.68380    0.40000    1.000
    H88      H        0.89290    0.72250    0.36900    1.000
    C120     C        0.96541    0.75040    0.50950    1.000
    C121     C        0.71188    0.71310    0.34943    1.000
    C122     C        0.69657    0.77700    0.30621    1.000
    H89      H        0.70290    0.85610    0.29630    1.000
    C123     C        0.67147    0.72630    0.27642    1.000
    H90      H        0.66140    0.77080    0.24700    1.000
    C124     C        0.66189    0.60820    0.29169    1.000
    C125     C        0.67638    0.54530    0.33494    1.000
    H91      H        0.66980    0.46760    0.34600    1.000
    C126     C        0.70146    0.59830    0.36303    1.000
    H92      H        0.71150    0.55330    0.39230    1.000
    C127     C        0.61265    0.55040    0.28540    1.000
    C128     C        0.60687    0.61360    0.33290    1.000
    H93      H        0.62150    0.66090    0.35230    1.000
    C129     C        0.57981    0.60900    0.35286    1.000
    H94      H        0.57640    0.65490    0.38500    1.000
    C130     C        0.55759    0.53750    0.32611    1.000
    C131     C        0.56400    0.46970    0.27882    1.000
    H95      H        0.54980    0.41780    0.26090    1.000
    C132     C        0.59127    0.47700    0.25725    1.000
    H96      H        0.59490    0.43320    0.22460    1.000
    C133     C        0.52785    0.53660    0.34809    1.000
    C134     C        0.82249    0.83320    0.32821    1.000
    H97      H        0.82370    0.91920    0.33430    1.000
    C135     C        0.83862    0.78370    0.28733    1.000
    H98      H        0.85050    0.83450    0.26730    1.000
    C136     C        0.83671    0.65590    0.27695    1.000
    C137     C        0.81850    0.58800    0.30858    1.000
    H99      H        0.81660    0.50210    0.30310    1.000
    C138     C        0.80334    0.64640    0.34793    1.000
    H100     H        0.79080    0.59820    0.36770    1.000
    C139     C        0.80672    0.33000    0.01604    1.000
    H101     H        0.78720    0.35350    0.01180    1.000
    C140     C        0.82483    0.39620    0.05525    1.000
    H102     H        0.81780    0.46170    0.07600    1.000
    C141     C        0.85347    0.36180    0.06240    1.000
    C142     C        0.86258    0.26620    0.02992    1.000
    H103     H        0.88190    0.24050    0.03360    1.000
    C143     C        0.84279    0.20960    0.99221    1.000
    H104     H        0.84950    0.14590    0.97000    1.000
    C144     C        0.94977    0.22760    0.32847    1.000
    H105     H        0.94960    0.14110    0.32400    1.000
    C145     C        0.93317    0.29580    0.28900    1.000
    H106     H        0.92190    0.25590    0.25960    1.000
    C146     C        0.93317    0.42190    0.29293    1.000
    C147     C        0.95048    0.47410    0.33809    1.000
    H107     H        0.95170    0.56060    0.34230    1.000
    C148     C        0.96587    0.39640    0.37663    1.000
    H108     H        0.97670    0.43310    0.40740    1.000
    C149     C        0.93549    0.84280    0.98883    1.000
    H109     H        0.92930    0.89200    0.95760    1.000
    C150     C        0.91579    0.81470    0.02630    1.000
    H110     H        0.89660    0.84220    0.02020    1.000
    C151     C        0.92484    0.74520    0.07291    1.000
    C152     C        0.95339    0.70720    0.08151    1.000
    H111     H        0.96030    0.66070    0.11320    1.000
    C153     C        0.97102    0.74170    0.04068    1.000
    H112     H        0.99050    0.71850    0.04630    1.000
    C154     C        0.91325    0.61400    0.14966    1.000
    H113     H        0.92700    0.64980    0.17870    1.000
    H114     H        0.92290    0.54690    0.13110    1.000
    C155     C        0.89899    0.45330    0.21332    1.000
    H115     H        0.88320    0.40860    0.22870    1.000
    H116     H        0.90920    0.39540    0.19060    1.000
    C156     C        0.86371    0.51670    0.13291    1.000
    H117     H        0.84700    0.48910    0.15160    1.000
    H118     H        0.85750    0.58560    0.10780    1.000
    C157     C        0.87308    0.65760    0.21192    1.000
    H119     H        0.88750    0.69590    0.23900    1.000
    H120     H        0.86400    0.72270    0.18770    1.000
    C158     C        0.73838    0.76610    0.37859    1.000
    C159     C        0.88706    0.56190    0.17697    1.000
    N9       N        0.80534    0.76780    0.35977    1.000
    N10      N        0.96611    0.27360    0.37257    1.000
    N11      N        0.81442    0.23750    0.98426    1.000
    N12      N        0.96277    0.80530    0.99384    1.000
    Ni5      Ni       0.78505    0.84612    0.42603    1.000
    Ni6      Ni       0.00850    0.83131    0.56997    1.000
    O29      O        0.80852    0.00490    0.41948    1.000
    O30      O        0.79869    0.11240    0.49432    1.000
    O31      O        0.74723    0.87380    0.36611    1.000
    O32      O        0.75286    0.70350    0.41832    1.000
    O33      O        0.52202    0.63420    0.37522    1.000
    O34      O        0.51163    0.44550    0.33738    1.000
    O35      O        0.97130    0.86500    0.50315    1.000
    O36      O        0.98156    0.68370    0.54378    1.000
    O37      O        0.63802    0.55890    0.25981    1.000
    O38      O        0.87691    0.50070    0.37622    1.000
    O39      O        0.90374    0.70940    0.10836    1.000
    O40      O        0.91845    0.50220    0.25834    1.000
    O41      O        0.87383    0.41540    0.09987    1.000
    O42      O        0.85171    0.59310    0.24085    1.000
    C160     C        0.31115    0.60030    0.45017    1.000
    C161     C        0.32917    0.70310    0.43244    1.000
    C162     C        0.34732    0.68840    0.39033    1.000
    H121     H        0.34820    0.61070    0.37280    1.000
    C163     C        0.36466    0.78670    0.37264    1.000
    H122     H        0.37730    0.77490    0.34460    1.000
    C164     C        0.36217    0.89960    0.39827    1.000
    C165     C        0.34413    0.91620    0.43926    1.000
    H123     H        0.34230    0.99520    0.45510    1.000
    C166     C        0.32843    0.81750    0.45789    1.000
    H124     H        0.31720    0.82880    0.48820    1.000
    C167     C        0.39684    0.06310    0.41379    1.000
    C168     C        0.41109    0.00670    0.45945    1.000
    H125     H        0.40620    0.92550    0.46930    1.000
    C169     C        0.43276    0.07010    0.49096    1.000
    H126     H        0.44280    0.03120    0.52210    1.000
    C170     C        0.43993    0.19050    0.47710    1.000
    C171     C        0.42486    0.24810    0.43255    1.000
    H127     H        0.42910    0.33070    0.42380    1.000
    C172     C        0.40313    0.18380    0.40000    1.000
    H128     H        0.39290    0.22250    0.36900    1.000
    C173     C        0.46541    0.25040    0.50950    1.000
    C174     C        0.21188    0.21310    0.34943    1.000
    C175     C        0.19657    0.27700    0.30621    1.000
    H129     H        0.20290    0.35610    0.29630    1.000
    C176     C        0.17147    0.22630    0.27642    1.000
    H130     H        0.16140    0.27080    0.24700    1.000
    C177     C        0.16189    0.10820    0.29169    1.000
    C178     C        0.17638    0.04530    0.33494    1.000
    H131     H        0.16980    0.96760    0.34600    1.000
    C179     C        0.20146    0.09830    0.36303    1.000
    H132     H        0.21150    0.05330    0.39230    1.000
    C180     C        0.11265    0.05040    0.28540    1.000
    C181     C        0.10687    0.11360    0.33290    1.000
    H133     H        0.12150    0.16090    0.35230    1.000
    C182     C        0.07981    0.10900    0.35286    1.000
    H134     H        0.07640    0.15490    0.38500    1.000
    C183     C        0.05759    0.03750    0.32611    1.000
    C184     C        0.06400    0.96970    0.27882    1.000
    H135     H        0.04980    0.91780    0.26090    1.000
    C185     C        0.09127    0.97700    0.25725    1.000
    H136     H        0.09490    0.93320    0.22460    1.000
    C186     C        0.02785    0.03660    0.34809    1.000
    C187     C        0.32249    0.33320    0.32821    1.000
    H137     H        0.32370    0.41920    0.33430    1.000
    C188     C        0.33862    0.28370    0.28733    1.000
    H138     H        0.35050    0.33450    0.26730    1.000
    C189     C        0.33671    0.15590    0.27695    1.000
    C190     C        0.31850    0.08800    0.30858    1.000
    H139     H        0.31660    0.00210    0.30310    1.000
    C191     C        0.30334    0.14640    0.34793    1.000
    H140     H        0.29080    0.09820    0.36770    1.000
    C192     C        0.30672    0.83000    0.01604    1.000
    H141     H        0.28720    0.85350    0.01180    1.000
    C193     C        0.32483    0.89620    0.05525    1.000
    H142     H        0.31780    0.96170    0.07600    1.000
    C194     C        0.35347    0.86180    0.06240    1.000
    C195     C        0.36258    0.76620    0.02992    1.000
    H143     H        0.38190    0.74050    0.03360    1.000
    C196     C        0.34279    0.70960    0.99221    1.000
    H144     H        0.34950    0.64590    0.97000    1.000
    C197     C        0.44977    0.72760    0.32847    1.000
    H145     H        0.44960    0.64110    0.32400    1.000
    C198     C        0.43317    0.79580    0.28900    1.000
    H146     H        0.42190    0.75590    0.25960    1.000
    C199     C        0.43317    0.92190    0.29293    1.000
    C200     C        0.45048    0.97410    0.33809    1.000
    H147     H        0.45170    0.06060    0.34230    1.000
    C201     C        0.46587    0.89640    0.37663    1.000
    H148     H        0.47670    0.93310    0.40740    1.000
    C202     C        0.43549    0.34280    0.98883    1.000
    H149     H        0.42930    0.39200    0.95760    1.000
    C203     C        0.41579    0.31470    0.02630    1.000
    H150     H        0.39660    0.34220    0.02020    1.000
    C204     C        0.42484    0.24520    0.07291    1.000
    C205     C        0.45339    0.20720    0.08151    1.000
    H151     H        0.46030    0.16070    0.11320    1.000
    C206     C        0.47102    0.24170    0.04068    1.000
    H152     H        0.49050    0.21850    0.04630    1.000
    C207     C        0.41325    0.11400    0.14966    1.000
    H153     H        0.42700    0.14980    0.17870    1.000
    H154     H        0.42290    0.04690    0.13110    1.000
    C208     C        0.39899    0.95330    0.21332    1.000
    H155     H        0.38320    0.90860    0.22870    1.000
    H156     H        0.40920    0.89540    0.19060    1.000
    C209     C        0.36371    0.01670    0.13291    1.000
    H157     H        0.34700    0.98910    0.15160    1.000
    H158     H        0.35750    0.08560    0.10780    1.000
    C210     C        0.37308    0.15760    0.21192    1.000
    H159     H        0.38750    0.19590    0.23900    1.000
    H160     H        0.36400    0.22270    0.18770    1.000
    C211     C        0.23838    0.26610    0.37859    1.000
    C212     C        0.38706    0.06190    0.17697    1.000
    N13      N        0.30534    0.26780    0.35977    1.000
    N14      N        0.46611    0.77360    0.37257    1.000
    N15      N        0.31442    0.73750    0.98426    1.000
    N16      N        0.46277    0.30530    0.99384    1.000
    Ni7      Ni       0.28505    0.34612    0.42603    1.000
    Ni8      Ni       0.50850    0.33131    0.56997    1.000
    O43      O        0.30852    0.50490    0.41948    1.000
    O44      O        0.29869    0.61240    0.49432    1.000
    O45      O        0.24723    0.37380    0.36611    1.000
    O46      O        0.25286    0.20350    0.41832    1.000
    O47      O        0.02202    0.13420    0.37522    1.000
    O48      O        0.01163    0.94550    0.33738    1.000
    O49      O        0.47130    0.36500    0.50315    1.000
    O50      O        0.48156    0.18370    0.54378    1.000
    O51      O        0.13802    0.05890    0.25981    1.000
    O52      O        0.37691    0.00070    0.37622    1.000
    O53      O        0.40374    0.20940    0.10836    1.000
    O54      O        0.41845    0.00220    0.25834    1.000
    O55      O        0.37383    0.91540    0.09987    1.000
    O56      O        0.35171    0.09310    0.24085    1.000
    C213     C        0.81115    0.89970    0.95017    1.000
    C214     C        0.82917    0.79690    0.93244    1.000
    C215     C        0.84732    0.81160    0.89033    1.000
    H161     H        0.84820    0.88930    0.87280    1.000
    C216     C        0.86466    0.71330    0.87264    1.000
    H162     H        0.87730    0.72510    0.84460    1.000
    C217     C        0.86217    0.60040    0.89827    1.000
    C218     C        0.84413    0.58380    0.93926    1.000
    H163     H        0.84230    0.50480    0.95510    1.000
    C219     C        0.82843    0.68250    0.95789    1.000
    H164     H        0.81720    0.67120    0.98820    1.000
    C220     C        0.89684    0.43690    0.91379    1.000
    C221     C        0.91109    0.49330    0.95945    1.000
    H165     H        0.90620    0.57450    0.96930    1.000
    C222     C        0.93276    0.42990    0.99096    1.000
    H166     H        0.94280    0.46880    0.02210    1.000
    C223     C        0.93993    0.30950    0.97710    1.000
    C224     C        0.92486    0.25190    0.93255    1.000
    H167     H        0.92910    0.16930    0.92380    1.000
    C225     C        0.90313    0.31620    0.90000    1.000
    H168     H        0.89290    0.27750    0.86900    1.000
    C226     C        0.96541    0.24960    0.00950    1.000
    C227     C        0.71188    0.28690    0.84943    1.000
    C228     C        0.69657    0.22300    0.80621    1.000
    H169     H        0.70290    0.14390    0.79630    1.000
    C229     C        0.67147    0.27370    0.77642    1.000
    H170     H        0.66140    0.22920    0.74700    1.000
    C230     C        0.66189    0.39180    0.79169    1.000
    C231     C        0.67638    0.45470    0.83494    1.000
    H171     H        0.66980    0.53240    0.84600    1.000
    C232     C        0.70146    0.40170    0.86303    1.000
    H172     H        0.71150    0.44670    0.89230    1.000
    C233     C        0.61265    0.44960    0.78540    1.000
    C234     C        0.60687    0.38640    0.83290    1.000
    H173     H        0.62150    0.33910    0.85230    1.000
    C235     C        0.57981    0.39100    0.85286    1.000
    H174     H        0.57640    0.34510    0.88500    1.000
    C236     C        0.55759    0.46250    0.82611    1.000
    C237     C        0.56400    0.53030    0.77882    1.000
    H175     H        0.54980    0.58220    0.76090    1.000
    C238     C        0.59127    0.52300    0.75725    1.000
    H176     H        0.59490    0.56680    0.72460    1.000
    C239     C        0.52785    0.46340    0.84809    1.000
    C240     C        0.82249    0.16680    0.82821    1.000
    H177     H        0.82370    0.08080    0.83430    1.000
    C241     C        0.83862    0.21630    0.78733    1.000
    H178     H        0.85050    0.16550    0.76730    1.000
    C242     C        0.83671    0.34410    0.77695    1.000
    C243     C        0.81850    0.41200    0.80858    1.000
    H179     H        0.81660    0.49790    0.80310    1.000
    C244     C        0.80334    0.35360    0.84793    1.000
    H180     H        0.79080    0.40180    0.86770    1.000
    C245     C        0.80672    0.67000    0.51604    1.000
    H181     H        0.78720    0.64650    0.51180    1.000
    C246     C        0.82483    0.60380    0.55525    1.000
    H182     H        0.81780    0.53830    0.57600    1.000
    C247     C        0.85347    0.63820    0.56240    1.000
    C248     C        0.86258    0.73380    0.52992    1.000
    H183     H        0.88190    0.75950    0.53360    1.000
    C249     C        0.84279    0.79040    0.49221    1.000
    H184     H        0.84950    0.85410    0.47000    1.000
    C250     C        0.94977    0.77240    0.82847    1.000
    H185     H        0.94960    0.85890    0.82400    1.000
    C251     C        0.93317    0.70420    0.78900    1.000
    H186     H        0.92190    0.74410    0.75960    1.000
    C252     C        0.93317    0.57810    0.79293    1.000
    C253     C        0.95048    0.52590    0.83809    1.000
    H187     H        0.95170    0.43940    0.84230    1.000
    C254     C        0.96587    0.60360    0.87663    1.000
    H188     H        0.97670    0.56690    0.90740    1.000
    C255     C        0.93549    0.15720    0.48883    1.000
    H189     H        0.92930    0.10800    0.45760    1.000
    C256     C        0.91579    0.18530    0.52630    1.000
    H190     H        0.89660    0.15780    0.52020    1.000
    C257     C        0.92484    0.25480    0.57291    1.000
    C258     C        0.95339    0.29280    0.58151    1.000
    H191     H        0.96030    0.33930    0.61320    1.000
    C259     C        0.97102    0.25830    0.54068    1.000
    H192     H        0.99050    0.28150    0.54630    1.000
    C260     C        0.91325    0.38600    0.64966    1.000
    H193     H        0.92700    0.35020    0.67870    1.000
    H194     H        0.92290    0.45310    0.63110    1.000
    C261     C        0.89899    0.54670    0.71332    1.000
    H195     H        0.88320    0.59140    0.72870    1.000
    H196     H        0.90920    0.60460    0.69060    1.000
    C262     C        0.86371    0.48330    0.63291    1.000
    H197     H        0.84700    0.51090    0.65160    1.000
    H198     H        0.85750    0.41440    0.60780    1.000
    C263     C        0.87308    0.34240    0.71192    1.000
    H199     H        0.88750    0.30410    0.73900    1.000
    H200     H        0.86400    0.27730    0.68770    1.000
    C264     C        0.73838    0.23390    0.87859    1.000
    C265     C        0.88706    0.43810    0.67697    1.000
    N17      N        0.80534    0.23220    0.85977    1.000
    N18      N        0.96611    0.72640    0.87257    1.000
    N19      N        0.81442    0.76250    0.48426    1.000
    N20      N        0.96277    0.19470    0.49384    1.000
    Ni9      Ni       0.78505    0.15388    0.92603    1.000
    Ni10     Ni       0.00850    0.16869    0.06997    1.000
    O57      O        0.80852    0.99510    0.91948    1.000
    O58      O        0.79869    0.88760    0.99432    1.000
    O59      O        0.74723    0.12620    0.86611    1.000
    O60      O        0.75286    0.29650    0.91832    1.000
    O61      O        0.52202    0.36580    0.87522    1.000
    O62      O        0.51163    0.55450    0.83738    1.000
    O63      O        0.97130    0.13500    0.00315    1.000
    O64      O        0.98156    0.31630    0.04378    1.000
    O65      O        0.63802    0.44110    0.75981    1.000
    O66      O        0.87691    0.49930    0.87622    1.000
    O67      O        0.90374    0.29060    0.60836    1.000
    O68      O        0.91845    0.49780    0.75834    1.000
    O69      O        0.87383    0.58460    0.59987    1.000
    O70      O        0.85171    0.40690    0.74085    1.000
    C266     C        0.31115    0.39970    0.95017    1.000
    C267     C        0.32917    0.29690    0.93244    1.000
    C268     C        0.34732    0.31160    0.89033    1.000
    H201     H        0.34820    0.38930    0.87280    1.000
    C269     C        0.36466    0.21330    0.87264    1.000
    H202     H        0.37730    0.22510    0.84460    1.000
    C270     C        0.36217    0.10040    0.89827    1.000
    C271     C        0.34413    0.08380    0.93926    1.000
    H203     H        0.34230    0.00480    0.95510    1.000
    C272     C        0.32843    0.18250    0.95789    1.000
    H204     H        0.31720    0.17120    0.98820    1.000
    C273     C        0.39684    0.93690    0.91379    1.000
    C274     C        0.41109    0.99330    0.95945    1.000
    H205     H        0.40620    0.07450    0.96930    1.000
    C275     C        0.43276    0.92990    0.99096    1.000
    H206     H        0.44280    0.96880    0.02210    1.000
    C276     C        0.43993    0.80950    0.97710    1.000
    C277     C        0.42486    0.75190    0.93255    1.000
    H207     H        0.42910    0.66930    0.92380    1.000
    C278     C        0.40313    0.81620    0.90000    1.000
    H208     H        0.39290    0.77750    0.86900    1.000
    C279     C        0.46541    0.74960    0.00950    1.000
    C280     C        0.21188    0.78690    0.84943    1.000
    C281     C        0.19657    0.72300    0.80621    1.000
    H209     H        0.20290    0.64390    0.79630    1.000
    C282     C        0.17147    0.77370    0.77642    1.000
    H210     H        0.16140    0.72920    0.74700    1.000
    C283     C        0.16189    0.89180    0.79169    1.000
    C284     C        0.17638    0.95470    0.83494    1.000
    H211     H        0.16980    0.03240    0.84600    1.000
    C285     C        0.20146    0.90170    0.86303    1.000
    H212     H        0.21150    0.94670    0.89230    1.000
    C286     C        0.11265    0.94960    0.78540    1.000
    C287     C        0.10687    0.88640    0.83290    1.000
    H213     H        0.12150    0.83910    0.85230    1.000
    C288     C        0.07981    0.89100    0.85286    1.000
    H214     H        0.07640    0.84510    0.88500    1.000
    C289     C        0.05759    0.96250    0.82611    1.000
    C290     C        0.06400    0.03030    0.77882    1.000
    H215     H        0.04980    0.08220    0.76090    1.000
    C291     C        0.09127    0.02300    0.75725    1.000
    H216     H        0.09490    0.06680    0.72460    1.000
    C292     C        0.02785    0.96340    0.84809    1.000
    C293     C        0.32249    0.66680    0.82821    1.000
    H217     H        0.32370    0.58080    0.83430    1.000
    C294     C        0.33862    0.71630    0.78733    1.000
    H218     H        0.35050    0.66550    0.76730    1.000
    C295     C        0.33671    0.84410    0.77695    1.000
    C296     C        0.31850    0.91200    0.80858    1.000
    H219     H        0.31660    0.99790    0.80310    1.000
    C297     C        0.30334    0.85360    0.84793    1.000
    H220     H        0.29080    0.90180    0.86770    1.000
    C298     C        0.30672    0.17000    0.51604    1.000
    H221     H        0.28720    0.14650    0.51180    1.000
    C299     C        0.32483    0.10380    0.55525    1.000
    H222     H        0.31780    0.03830    0.57600    1.000
    C300     C        0.35347    0.13820    0.56240    1.000
    C301     C        0.36258    0.23380    0.52992    1.000
    H223     H        0.38190    0.25950    0.53360    1.000
    C302     C        0.34279    0.29040    0.49221    1.000
    H224     H        0.34950    0.35410    0.47000    1.000
    C303     C        0.44977    0.27240    0.82847    1.000
    H225     H        0.44960    0.35890    0.82400    1.000
    C304     C        0.43317    0.20420    0.78900    1.000
    H226     H        0.42190    0.24410    0.75960    1.000
    C305     C        0.43317    0.07810    0.79293    1.000
    C306     C        0.45048    0.02590    0.83809    1.000
    H227     H        0.45170    0.93940    0.84230    1.000
    C307     C        0.46587    0.10360    0.87663    1.000
    H228     H        0.47670    0.06690    0.90740    1.000
    C308     C        0.43549    0.65720    0.48883    1.000
    H229     H        0.42930    0.60800    0.45760    1.000
    C309     C        0.41579    0.68530    0.52630    1.000
    H230     H        0.39660    0.65780    0.52020    1.000
    C310     C        0.42484    0.75480    0.57291    1.000
    C311     C        0.45339    0.79280    0.58151    1.000
    H231     H        0.46030    0.83930    0.61320    1.000
    C312     C        0.47102    0.75830    0.54068    1.000
    H232     H        0.49050    0.78150    0.54630    1.000
    C313     C        0.41325    0.88600    0.64966    1.000
    H233     H        0.42700    0.85020    0.67870    1.000
    H234     H        0.42290    0.95310    0.63110    1.000
    C314     C        0.39899    0.04670    0.71332    1.000
    H235     H        0.38320    0.09140    0.72870    1.000
    H236     H        0.40920    0.10460    0.69060    1.000
    C315     C        0.36371    0.98330    0.63291    1.000
    H237     H        0.34700    0.01090    0.65160    1.000
    H238     H        0.35750    0.91440    0.60780    1.000
    C316     C        0.37308    0.84240    0.71192    1.000
    H239     H        0.38750    0.80410    0.73900    1.000
    H240     H        0.36400    0.77730    0.68770    1.000
    C317     C        0.23838    0.73390    0.87859    1.000
    C318     C        0.38706    0.93810    0.67697    1.000
    N21      N        0.30534    0.73220    0.85977    1.000
    N22      N        0.46611    0.22640    0.87257    1.000
    N23      N        0.31442    0.26250    0.48426    1.000
    N24      N        0.46277    0.69470    0.49384    1.000
    Ni11     Ni       0.28505    0.65388    0.92603    1.000
    Ni12     Ni       0.50850    0.66869    0.06997    1.000
    O71      O        0.30852    0.49510    0.91948    1.000
    O72      O        0.29869    0.38760    0.99432    1.000
    O73      O        0.24723    0.62620    0.86611    1.000
    O74      O        0.25286    0.79650    0.91832    1.000
    O75      O        0.02202    0.86580    0.87522    1.000
    O76      O        0.01163    0.05450    0.83738    1.000
    O77      O        0.47130    0.63500    0.00315    1.000
    O78      O        0.48156    0.81630    0.04378    1.000
    O79      O        0.13802    0.94110    0.75981    1.000
    O80      O        0.37691    0.99930    0.87622    1.000
    O81      O        0.40374    0.79060    0.60836    1.000
    O82      O        0.41845    0.99780    0.75834    1.000
    O83      O        0.37383    0.08460    0.59987    1.000
    O84      O        0.35171    0.90690    0.74085    1.000
    C319     C        0.18885    0.89970    0.54983    1.000
    C320     C        0.17083    0.79690    0.56756    1.000
    C321     C        0.15268    0.81160    0.60967    1.000
    H241     H        0.15180    0.88930    0.62720    1.000
    C322     C        0.13534    0.71330    0.62736    1.000
    H242     H        0.12270    0.72510    0.65540    1.000
    C323     C        0.13783    0.60040    0.60173    1.000
    C324     C        0.15587    0.58380    0.56074    1.000
    H243     H        0.15770    0.50480    0.54490    1.000
    C325     C        0.17157    0.68250    0.54211    1.000
    H244     H        0.18280    0.67120    0.51180    1.000
    C326     C        0.10316    0.43690    0.58621    1.000
    C327     C        0.08891    0.49330    0.54055    1.000
    H245     H        0.09380    0.57450    0.53070    1.000
    C328     C        0.06724    0.42990    0.50904    1.000
    H246     H        0.05720    0.46880    0.47790    1.000
    C329     C        0.06007    0.30950    0.52290    1.000
    C330     C        0.07514    0.25190    0.56745    1.000
    H247     H        0.07090    0.16930    0.57620    1.000
    C331     C        0.09687    0.31620    0.60000    1.000
    H248     H        0.10710    0.27750    0.63100    1.000
    C332     C        0.03459    0.24960    0.49050    1.000
    C333     C        0.28812    0.28690    0.65057    1.000
    C334     C        0.30343    0.22300    0.69379    1.000
    H249     H        0.29710    0.14390    0.70370    1.000
    C335     C        0.32853    0.27370    0.72358    1.000
    H250     H        0.33860    0.22920    0.75300    1.000
    C336     C        0.33811    0.39180    0.70831    1.000
    C337     C        0.32362    0.45470    0.66506    1.000
    H251     H        0.33020    0.53240    0.65400    1.000
    C338     C        0.29854    0.40170    0.63697    1.000
    H252     H        0.28850    0.44670    0.60770    1.000
    C339     C        0.38735    0.44960    0.71460    1.000
    C340     C        0.39313    0.38640    0.66710    1.000
    H253     H        0.37850    0.33910    0.64770    1.000
    C341     C        0.42019    0.39100    0.64714    1.000
    H254     H        0.42360    0.34510    0.61500    1.000
    C342     C        0.44241    0.46250    0.67389    1.000
    C343     C        0.43600    0.53030    0.72118    1.000
    H255     H        0.45020    0.58220    0.73910    1.000
    C344     C        0.40873    0.52300    0.74275    1.000
    H256     H        0.40510    0.56680    0.77540    1.000
    C345     C        0.47215    0.46340    0.65191    1.000
    C346     C        0.17751    0.16680    0.67179    1.000
    H257     H        0.17630    0.08080    0.66570    1.000
    C347     C        0.16138    0.21630    0.71267    1.000
    H258     H        0.14950    0.16550    0.73270    1.000
    C348     C        0.16329    0.34410    0.72305    1.000
    C349     C        0.18150    0.41200    0.69142    1.000
    H259     H        0.18340    0.49790    0.69690    1.000
    C350     C        0.19666    0.35360    0.65207    1.000
    H260     H        0.20920    0.40180    0.63230    1.000
    C351     C        0.19328    0.67000    0.98396    1.000
    H261     H        0.21280    0.64650    0.98820    1.000
    C352     C        0.17517    0.60380    0.94475    1.000
    H262     H        0.18220    0.53830    0.92400    1.000
    C353     C        0.14653    0.63820    0.93760    1.000
    C354     C        0.13742    0.73380    0.97008    1.000
    H263     H        0.11810    0.75950    0.96640    1.000
    C355     C        0.15721    0.79040    0.00779    1.000
    H264     H        0.15050    0.85410    0.03000    1.000
    C356     C        0.05023    0.77240    0.67153    1.000
    H265     H        0.05040    0.85890    0.67600    1.000
    C357     C        0.06683    0.70420    0.71100    1.000
    H266     H        0.07810    0.74410    0.74040    1.000
    C358     C        0.06683    0.57810    0.70707    1.000
    C359     C        0.04952    0.52590    0.66191    1.000
    H267     H        0.04830    0.43940    0.65770    1.000
    C360     C        0.03413    0.60360    0.62337    1.000
    H268     H        0.02330    0.56690    0.59260    1.000
    C361     C        0.06451    0.15720    0.01117    1.000
    H269     H        0.07070    0.10800    0.04240    1.000
    C362     C        0.08421    0.18530    0.97370    1.000
    H270     H        0.10340    0.15780    0.97980    1.000
    C363     C        0.07516    0.25480    0.92709    1.000
    C364     C        0.04661    0.29280    0.91849    1.000
    H271     H        0.03970    0.33930    0.88680    1.000
    C365     C        0.02898    0.25830    0.95932    1.000
    H272     H        0.00950    0.28150    0.95370    1.000
    C366     C        0.08675    0.38600    0.85034    1.000
    H273     H        0.07300    0.35020    0.82130    1.000
    H274     H        0.07710    0.45310    0.86890    1.000
    C367     C        0.10101    0.54670    0.78668    1.000
    H275     H        0.11680    0.59140    0.77130    1.000
    H276     H        0.09080    0.60460    0.80940    1.000
    C368     C        0.13629    0.48330    0.86709    1.000
    H277     H        0.15300    0.51090    0.84840    1.000
    H278     H        0.14250    0.41440    0.89220    1.000
    C369     C        0.12692    0.34240    0.78808    1.000
    H279     H        0.11250    0.30410    0.76100    1.000
    H280     H        0.13600    0.27730    0.81230    1.000
    C370     C        0.26162    0.23390    0.62141    1.000
    C371     C        0.11294    0.43810    0.82303    1.000
    N25      N        0.19466    0.23220    0.64023    1.000
    N26      N        0.03389    0.72640    0.62743    1.000
    N27      N        0.18558    0.76250    0.01574    1.000
    N28      N        0.03723    0.19470    0.00616    1.000
    Ni13     Ni       0.21495    0.15388    0.57397    1.000
    Ni14     Ni       0.99150    0.16869    0.43003    1.000
    O85      O        0.19148    0.99510    0.58052    1.000
    O86      O        0.20131    0.88760    0.50568    1.000
    O87      O        0.25277    0.12620    0.63389    1.000
    O88      O        0.24714    0.29650    0.58168    1.000
    O89      O        0.47798    0.36580    0.62478    1.000
    O90      O        0.48837    0.55450    0.66262    1.000
    O91      O        0.02870    0.13500    0.49685    1.000
    O92      O        0.01844    0.31630    0.45622    1.000
    O93      O        0.36198    0.44110    0.74019    1.000
    O94      O        0.12309    0.49930    0.62378    1.000
    O95      O        0.09626    0.29060    0.89164    1.000
    O96      O        0.08155    0.49780    0.74166    1.000
    O97      O        0.12617    0.58460    0.90013    1.000
    O98      O        0.14829    0.40690    0.75915    1.000
    C372     C        0.68885    0.39970    0.54983    1.000
    C373     C        0.67083    0.29690    0.56756    1.000
    C374     C        0.65268    0.31160    0.60967    1.000
    H281     H        0.65180    0.38930    0.62720    1.000
    C375     C        0.63534    0.21330    0.62736    1.000
    H282     H        0.62270    0.22510    0.65540    1.000
    C376     C        0.63783    0.10040    0.60173    1.000
    C377     C        0.65587    0.08380    0.56074    1.000
    H283     H        0.65770    0.00480    0.54490    1.000
    C378     C        0.67157    0.18250    0.54211    1.000
    H284     H        0.68280    0.17120    0.51180    1.000
    C379     C        0.60316    0.93690    0.58621    1.000
    C380     C        0.58891    0.99330    0.54055    1.000
    H285     H        0.59380    0.07450    0.53070    1.000
    C381     C        0.56724    0.92990    0.50904    1.000
    H286     H        0.55720    0.96880    0.47790    1.000
    C382     C        0.56007    0.80950    0.52290    1.000
    C383     C        0.57514    0.75190    0.56745    1.000
    H287     H        0.57090    0.66930    0.57620    1.000
    C384     C        0.59687    0.81620    0.60000    1.000
    H288     H        0.60710    0.77750    0.63100    1.000
    C385     C        0.53459    0.74960    0.49050    1.000
    C386     C        0.78812    0.78690    0.65057    1.000
    C387     C        0.80343    0.72300    0.69379    1.000
    H289     H        0.79710    0.64390    0.70370    1.000
    C388     C        0.82853    0.77370    0.72358    1.000
    H290     H        0.83860    0.72920    0.75300    1.000
    C389     C        0.83811    0.89180    0.70831    1.000
    C390     C        0.82362    0.95470    0.66506    1.000
    H291     H        0.83020    0.03240    0.65400    1.000
    C391     C        0.79854    0.90170    0.63697    1.000
    H292     H        0.78850    0.94670    0.60770    1.000
    C392     C        0.88735    0.94960    0.71460    1.000
    C393     C        0.89313    0.88640    0.66710    1.000
    H293     H        0.87850    0.83910    0.64770    1.000
    C394     C        0.92019    0.89100    0.64714    1.000
    H294     H        0.92360    0.84510    0.61500    1.000
    C395     C        0.94241    0.96250    0.67389    1.000
    C396     C        0.93600    0.03030    0.72118    1.000
    H295     H        0.95020    0.08220    0.73910    1.000
    C397     C        0.90873    0.02300    0.74275    1.000
    H296     H        0.90510    0.06680    0.77540    1.000
    C398     C        0.97215    0.96340    0.65191    1.000
    C399     C        0.67751    0.66680    0.67179    1.000
    H297     H        0.67630    0.58080    0.66570    1.000
    C400     C        0.66138    0.71630    0.71267    1.000
    H298     H        0.64950    0.66550    0.73270    1.000
    C401     C        0.66329    0.84410    0.72305    1.000
    C402     C        0.68150    0.91200    0.69142    1.000
    H299     H        0.68340    0.99790    0.69690    1.000
    C403     C        0.69666    0.85360    0.65207    1.000
    H300     H        0.70920    0.90180    0.63230    1.000
    C404     C        0.69328    0.17000    0.98396    1.000
    H301     H        0.71280    0.14650    0.98820    1.000
    C405     C        0.67517    0.10380    0.94475    1.000
    H302     H        0.68220    0.03830    0.92400    1.000
    C406     C        0.64653    0.13820    0.93760    1.000
    C407     C        0.63742    0.23380    0.97008    1.000
    H303     H        0.61810    0.25950    0.96640    1.000
    C408     C        0.65721    0.29040    0.00779    1.000
    H304     H        0.65050    0.35410    0.03000    1.000
    C409     C        0.55023    0.27240    0.67153    1.000
    H305     H        0.55040    0.35890    0.67600    1.000
    C410     C        0.56683    0.20420    0.71100    1.000
    H306     H        0.57810    0.24410    0.74040    1.000
    C411     C        0.56683    0.07810    0.70707    1.000
    C412     C        0.54952    0.02590    0.66191    1.000
    H307     H        0.54830    0.93940    0.65770    1.000
    C413     C        0.53413    0.10360    0.62337    1.000
    H308     H        0.52330    0.06690    0.59260    1.000
    C414     C        0.56451    0.65720    0.01117    1.000
    H309     H        0.57070    0.60800    0.04240    1.000
    C415     C        0.58421    0.68530    0.97370    1.000
    H310     H        0.60340    0.65780    0.97980    1.000
    C416     C        0.57516    0.75480    0.92709    1.000
    C417     C        0.54661    0.79280    0.91849    1.000
    H311     H        0.53970    0.83930    0.88680    1.000
    C418     C        0.52898    0.75830    0.95932    1.000
    H312     H        0.50950    0.78150    0.95370    1.000
    C419     C        0.58675    0.88600    0.85034    1.000
    H313     H        0.57300    0.85020    0.82130    1.000
    H314     H        0.57710    0.95310    0.86890    1.000
    C420     C        0.60101    0.04670    0.78668    1.000
    H315     H        0.61680    0.09140    0.77130    1.000
    H316     H        0.59080    0.10460    0.80940    1.000
    C421     C        0.63629    0.98330    0.86709    1.000
    H317     H        0.65300    0.01090    0.84840    1.000
    H318     H        0.64250    0.91440    0.89220    1.000
    C422     C        0.62692    0.84240    0.78808    1.000
    H319     H        0.61250    0.80410    0.76100    1.000
    H320     H        0.63600    0.77730    0.81230    1.000
    C423     C        0.76162    0.73390    0.62141    1.000
    C424     C        0.61294    0.93810    0.82303    1.000
    N29      N        0.69466    0.73220    0.64023    1.000
    N30      N        0.53389    0.22640    0.62743    1.000
    N31      N        0.68558    0.26250    0.01574    1.000
    N32      N        0.53723    0.69470    0.00616    1.000
    Ni15     Ni       0.71495    0.65388    0.57397    1.000
    Ni16     Ni       0.49150    0.66869    0.43003    1.000
    O99      O        0.69148    0.49510    0.58052    1.000
    O100     O        0.70131    0.38760    0.50568    1.000
    O101     O        0.75277    0.62620    0.63389    1.000
    O102     O        0.74714    0.79650    0.58168    1.000
    O103     O        0.97798    0.86580    0.62478    1.000
    O104     O        0.98837    0.05450    0.66262    1.000
    O105     O        0.52870    0.63500    0.49685    1.000
    O106     O        0.51844    0.81630    0.45622    1.000
    O107     O        0.86198    0.94110    0.74019    1.000
    O108     O        0.62309    0.99930    0.62378    1.000
    O109     O        0.59626    0.79060    0.89164    1.000
    O110     O        0.58155    0.99780    0.74166    1.000
    O111     O        0.62617    0.08460    0.90013    1.000
    O112     O        0.64829    0.90690    0.75915    1.000
