data_functionalizedCrystal
_audit_creation_method	'EQeq! by Chris Wilmer'
_symmetry_space_group_name_H-M	'P1'
_symmetry_Int_Tables_number	1
_symmetry_cell_setting	triclinic
loop_
_symmetry_equiv_pos_as_xyz
  x,y,z
_cell_length_a	8.2983
_cell_length_b	17.3652
_cell_length_c	7.8347
_cell_angle_alpha	90
_cell_angle_beta	108.51
_cell_angle_gamma	90
loop_
_atom_site_label
_atom_site_type_symbol
_atom_site_fract_x
_atom_site_fract_y
_atom_site_fract_z
_atom_site_charge
Mof_Dy	Dy	0.22284	0.47759	0.2484	2.017
Mof_N 	N 	0.5294	0.2348	0.391	-0.129
Mof_H 	H 	0.4268	0.2397	0.3202	0.114
Mof_N 	N 	0.6183	0.1698	0.4218	-0.077
Mof_O 	O 	0.4115	0.3822	0.378	-0.564
Mof_O 	O 	0.6541	0.4209	0.5727	-0.584
Mof_O 	O 	0.0265	0.1272	0.7275	-0.479
Mof_O 	O 	0.8723	0.0617	0.4918	-0.581
Mof_O 	O 	0.9831	0.5418	0.2937	-0.435
Mof_O 	O 	0.803	0.5458	0.4539	-0.407
Mof_C 	C 	0.5616	0.3716	0.4822	0.53
Mof_C 	C 	0.6256	0.2915	0.4882	-0.095
Mof_C 	C 	0.7818	0.2613	0.5865	0.063
Mof_H 	H 	0.873	0.2877	0.6649	0.019
Mof_C 	C 	0.7743	0.1838	0.5443	-0.099
Mof_C 	C 	0.899	0.1212	0.59	0.44
Mof_C 	C 	0.9382	0.5259	0.4281	0.274
Mof_Dy	Dy	0.77716	0.97759	0.2516	2.001
Mof_N 	N 	0.4706	0.7348	0.109	-0.13
Mof_H 	H 	0.5732	0.7397	0.1798	0.113
Mof_N 	N 	0.3817	0.6698	0.0782	-0.079
Mof_O 	O 	0.5885	0.8822	0.122	-0.563
Mof_O 	O 	0.3459	0.9209	0.9273	-0.577
Mof_O 	O 	0.9735	0.6272	0.7725	-0.473
Mof_O 	O 	0.1277	0.5617	0.0082	-0.583
Mof_O 	O 	0.0169	0.0418	0.2063	-0.431
Mof_O 	O 	0.197	0.0458	0.0461	-0.402
Mof_C 	C 	0.4384	0.8716	0.0178	0.522
Mof_C 	C 	0.3744	0.7915	0.0118	-0.095
Mof_C 	C 	0.2182	0.7613	0.9135	0.063
Mof_H 	H 	0.127	0.7877	0.8351	0.019
Mof_C 	C 	0.2257	0.6838	0.9557	-0.097
Mof_C 	C 	0.101	0.6212	0.91	0.433
Mof_C 	C 	0.0618	0.0259	0.0719	0.275
Mof_Dy	Dy	0.77716	0.52241	0.7516	2.016
Mof_N 	N 	0.4706	0.7652	0.609	-0.13
Mof_H 	H 	0.5732	0.7603	0.6798	0.113
Mof_N 	N 	0.3817	0.8302	0.5782	-0.078
Mof_O 	O 	0.5885	0.6178	0.622	-0.565
Mof_O 	O 	0.3459	0.5791	0.4273	-0.585
Mof_O 	O 	0.9735	0.8728	0.2725	-0.479
Mof_O 	O 	0.1277	0.9383	0.5082	-0.581
Mof_O 	O 	0.0169	0.4582	0.7063	-0.435
Mof_O 	O 	0.197	0.4542	0.5461	-0.407
Mof_C 	C 	0.4384	0.6284	0.5178	0.53
Mof_C 	C 	0.3744	0.7085	0.5118	-0.095
Mof_C 	C 	0.2182	0.7387	0.4135	0.063
Mof_H 	H 	0.127	0.7123	0.3351	0.019
Mof_C 	C 	0.2257	0.8162	0.4557	-0.099
Mof_C 	C 	0.101	0.8788	0.41	0.44
Mof_C 	C 	0.0618	0.4741	0.5719	0.274
Mof_Dy	Dy	0.22284	0.02241	0.7484	2.001
Mof_N 	N 	0.5294	0.2652	0.891	-0.13
Mof_H 	H 	0.4268	0.2603	0.8202	0.113
Mof_N 	N 	0.6183	0.3302	0.9218	-0.079
Mof_O 	O 	0.4115	0.1178	0.878	-0.563
Mof_O 	O 	0.6541	0.0791	0.0727	-0.577
Mof_O 	O 	0.0265	0.3728	0.2275	-0.473
Mof_O 	O 	0.8723	0.4383	0.9918	-0.583
Mof_O 	O 	0.9831	0.9582	0.7937	-0.431
Mof_O 	O 	0.803	0.9542	0.9539	-0.402
Mof_C 	C 	0.5616	0.1284	0.9822	0.522
Mof_C 	C 	0.6256	0.2085	0.9882	-0.095
Mof_C 	C 	0.7818	0.2387	0.0865	0.063
Mof_H 	H 	0.873	0.2123	0.1649	0.019
Mof_C 	C 	0.7743	0.3162	0.0443	-0.097
Mof_C 	C 	0.899	0.3788	0.09	0.433
Mof_C 	C 	0.9382	0.9741	0.9281	0.275
_end
