data_functionalizedCrystal
_audit_creation_method	'EQeq! by Chris Wilmer'
_symmetry_space_group_name_H-M	'P1'
_symmetry_Int_Tables_number	1
_symmetry_cell_setting	triclinic
loop_
_symmetry_equiv_pos_as_xyz
  x,y,z
_cell_length_a	14.344
_cell_length_b	14.344
_cell_length_c	15.47
_cell_angle_alpha	90
_cell_angle_beta	90
_cell_angle_gamma	120
loop_
_atom_site_label
_atom_site_type_symbol
_atom_site_fract_x
_atom_site_fract_y
_atom_site_fract_z
_atom_site_charge
Mof_Yb	Yb	0.33333	0.66666	0.75	1.935
Mof_Yb	Yb	0.66667	0.33334	0.75	1.936
Mof_Yb	Yb	0.66667	0.33334	0.25	1.923
Mof_Yb	Yb	0.33333	0.66666	0.25	1.923
Mof_Cu	Cu	0.5	0.5	0.5	0.952
Mof_Cu	Cu	1.64466e-17	0.5	0.5	0.916
Mof_Cu	Cu	0.5	0	0.5	0.916
Mof_Cu	Cu	-0	0.5	-0	0.857
Mof_Cu	Cu	0.5	0.5	-0	0.893
Mof_Cu	Cu	0.5	0	-0	0.857
Mof_C 	C 	0.261	0.409	0.691	0.004
Mof_C 	C 	0.352	0.487	0.637	0.405
Mof_C 	C 	0.148	0.739	0.691	0.018
Mof_C 	C 	0.135	0.648	0.637	0.405
Mof_C 	C 	0.591	0.852	0.691	0.064
Mof_C 	C 	0.513	0.865	0.637	0.39
Mof_C 	C 	0.739	0.591	0.691	0.053
Mof_C 	C 	0.648	0.513	0.637	0.397
Mof_C 	C 	0.852	0.261	0.691	0.04
Mof_C 	C 	0.865	0.352	0.637	0.394
Mof_C 	C 	0.409	0.148	0.691	-0.006
Mof_C 	C 	0.487	0.135	0.637	0.408
Mof_C 	C 	0.852	0.591	0.809	0.082
Mof_C 	C 	0.865	0.513	0.863	0.382
Mof_C 	C 	0.409	0.261	0.809	0.023
Mof_C 	C 	0.487	0.352	0.863	0.397
Mof_C 	C 	0.739	0.148	0.809	0.035
Mof_C 	C 	0.648	0.135	0.863	0.397
Mof_C 	C 	0.148	0.409	0.809	0.012
Mof_C 	C 	0.135	0.487	0.863	0.4
Mof_C 	C 	0.591	0.739	0.809	0.07
Mof_C 	C 	0.513	0.648	0.863	0.389
Mof_C 	C 	0.261	0.852	0.809	0.058
Mof_C 	C 	0.352	0.865	0.863	0.386
Mof_C 	C 	0.739	0.591	0.309	0.042
Mof_C 	C 	0.648	0.513	0.363	0.4
Mof_C 	C 	0.852	0.261	0.309	0.03
Mof_C 	C 	0.865	0.352	0.363	0.396
Mof_C 	C 	0.409	0.148	0.309	-0.018
Mof_C 	C 	0.487	0.135	0.363	0.411
Mof_C 	C 	0.261	0.409	0.309	-0.007
Mof_C 	C 	0.352	0.487	0.363	0.407
Mof_C 	C 	0.148	0.739	0.309	0.007
Mof_C 	C 	0.135	0.648	0.363	0.407
Mof_C 	C 	0.591	0.852	0.309	0.054
Mof_C 	C 	0.513	0.865	0.363	0.392
Mof_C 	C 	0.148	0.409	0.191	-0.033
Mof_C 	C 	0.135	0.487	0.137	0.412
Mof_C 	C 	0.591	0.739	0.191	0.027
Mof_C 	C 	0.513	0.648	0.137	0.401
Mof_C 	C 	0.261	0.852	0.191	0.015
Mof_C 	C 	0.352	0.865	0.137	0.397
Mof_C 	C 	0.852	0.591	0.191	0.039
Mof_C 	C 	0.865	0.513	0.137	0.393
Mof_C 	C 	0.409	0.261	0.191	-0.022
Mof_C 	C 	0.487	0.352	0.137	0.409
Mof_C 	C 	0.739	0.148	0.191	-0.008
Mof_C 	C 	0.648	0.135	0.137	0.408
Mof_O 	O 	0.386	0.5823	0.6457	-0.447
Mof_O 	O 	0.389	0.4434	0.589	-0.394
Mof_O 	O 	0.1963	0.614	0.6457	-0.455
Mof_O 	O 	0.0544	0.611	0.589	-0.412
Mof_O 	O 	0.4177	0.8037	0.6457	-0.43
Mof_O 	O 	0.5566	0.9456	0.589	-0.338
Mof_O 	O 	0.614	0.4177	0.6457	-0.444
Mof_O 	O 	0.611	0.5566	0.589	-0.378
Mof_O 	O 	0.8037	0.386	0.6457	-0.432
Mof_O 	O 	0.9456	0.389	0.589	-0.346
Mof_O 	O 	0.5823	0.1963	0.6457	-0.457
Mof_O 	O 	0.4434	0.0544	0.589	-0.42
Mof_O 	O 	0.8037	0.4177	0.8543	-0.404
Mof_O 	O 	0.9456	0.5566	0.911	-0.279
Mof_O 	O 	0.5823	0.386	0.8543	-0.421
Mof_O 	O 	0.4434	0.389	0.911	-0.333
Mof_O 	O 	0.614	0.1963	0.8543	-0.429
Mof_O 	O 	0.611	0.0544	0.911	-0.352
Mof_O 	O 	0.1963	0.5823	0.8543	-0.431
Mof_O 	O 	0.0544	0.4434	0.911	-0.359
Mof_O 	O 	0.4177	0.614	0.8543	-0.417
Mof_O 	O 	0.5566	0.611	0.911	-0.318
Mof_O 	O 	0.386	0.8037	0.8543	-0.406
Mof_O 	O 	0.389	0.9456	0.911	-0.287
Mof_O 	O 	0.614	0.4177	0.3543	-0.443
Mof_O 	O 	0.611	0.5566	0.411	-0.379
Mof_O 	O 	0.8037	0.386	0.3543	-0.431
Mof_O 	O 	0.9456	0.389	0.411	-0.347
Mof_O 	O 	0.5823	0.1963	0.3543	-0.456
Mof_O 	O 	0.4434	0.0544	0.411	-0.422
Mof_O 	O 	0.386	0.5823	0.3543	-0.447
Mof_O 	O 	0.389	0.4434	0.411	-0.396
Mof_O 	O 	0.1963	0.614	0.3543	-0.455
Mof_O 	O 	0.0544	0.611	0.411	-0.414
Mof_O 	O 	0.4177	0.8037	0.3543	-0.429
Mof_O 	O 	0.5566	0.9456	0.411	-0.339
Mof_O 	O 	0.1963	0.5823	0.1457	-0.475
Mof_O 	O 	0.0544	0.4434	0.089	-0.456
Mof_O 	O 	0.4177	0.614	0.1457	-0.462
Mof_O 	O 	0.5566	0.611	0.089	-0.414
Mof_O 	O 	0.386	0.8037	0.1457	-0.45
Mof_O 	O 	0.389	0.9456	0.089	-0.381
Mof_O 	O 	0.8037	0.4177	0.1457	-0.448
Mof_O 	O 	0.9456	0.5566	0.089	-0.373
Mof_O 	O 	0.5823	0.386	0.1457	-0.466
Mof_O 	O 	0.4434	0.389	0.089	-0.431
Mof_O 	O 	0.614	0.1963	0.1457	-0.474
Mof_O 	O 	0.611	0.0544	0.089	-0.448
Mof_O 	O 	0.2362	0.4724	0.75	-0.303
Mof_O 	O 	0.2362	0.7638	0.75	-0.306
Mof_O 	O 	0.5276	0.7638	0.75	-0.31
Mof_O 	O 	0.7638	0.5276	0.75	-0.309
Mof_O 	O 	0.7638	0.2362	0.75	-0.306
Mof_O 	O 	0.4724	0.2362	0.75	-0.303
Mof_O 	O 	0.7638	0.5276	0.25	-0.305
Mof_O 	O 	0.7638	0.2362	0.25	-0.301
Mof_O 	O 	0.4724	0.2362	0.25	-0.298
Mof_O 	O 	0.2362	0.4724	0.25	-0.298
Mof_O 	O 	0.2362	0.7638	0.25	-0.301
Mof_O 	O 	0.5276	0.7638	0.25	-0.305
_end
