# CIF file generated by openbabel 3.1.0, see https://openbabel.org
data_I
_chemical_name_common 'image0'
_cell_length_a 15.9125
_cell_length_b 20.9486
_cell_length_c 13.9023
_cell_angle_alpha 90
_cell_angle_beta 90
_cell_angle_gamma 90
_space_group_name_H-M_alt 'P 1'
_space_group_name_Hall 'P 1'
loop_
    _symmetry_equiv_pos_as_xyz
    x,y,z
loop_
    _atom_site_label
    _atom_site_type_symbol
    _atom_site_fract_x
    _atom_site_fract_y
    _atom_site_fract_z
    _atom_site_occupancy
    Cd1      Cd       0.74862    0.40932    0.40039    1.000
    N1       N        0.76120    0.41250    0.56840    1.000
    O1       O        0.72110    0.51812    0.37970    1.000
    O2       O        0.85460    0.50178    0.40970    1.000
    N2       N        0.73610    0.40030    0.23390    1.000
    O3       O        0.50270    0.88896    0.56600    1.000
    C1       C        0.77200    0.36340    0.61890    1.000
    H1       H        0.78330    0.32520    0.58750    1.000
    O4       O        0.39280    0.60862    0.41670    1.000
    C2       C        0.56090    0.85040    0.57940    1.000
    C3       C        0.79490    0.53820    0.39100    1.000
    O5       O        0.62622    0.86011    0.62770    1.000
    C4       C        0.62560    0.74580    0.53140    1.000
    H2       H        0.67650    0.76070    0.55550    1.000
    C5       C        0.76120    0.46580    0.61510    1.000
    H3       H        0.75920    0.50310    0.57890    1.000
    N3       N        0.73660    0.64690    0.39470    1.000
    C6       C        0.70180    0.64910    0.48130    1.000
    C7       C        0.76380    0.47250    0.71320    1.000
    H4       H        0.76210    0.51270    0.74160    1.000
    C8       C        0.81140    0.60800    0.37550    1.000
    H5       H        0.85630    0.62140    0.41940    1.000
    C9       C        0.62130    0.68730    0.49160    1.000
    O6       O        0.73130    0.62070    0.54960    1.000
    C10      C        0.75820    0.34440    0.08720    1.000
    H6       H        0.78250    0.30970    0.05600    1.000
    C11      C        0.76470    0.35060    0.18530    1.000
    H7       H        0.79070    0.31790    0.21950    1.000
    C12      C        0.76790    0.36270    0.71930    1.000
    H8       H        0.76460    0.32410    0.75220    1.000
    O7       O        0.32630    0.69991    0.42970    1.000
    C13      C        0.47710    0.76010    0.50160    1.000
    H9       H        0.42910    0.78540    0.50240    1.000
    C14      C        0.47310    0.69780    0.46560    1.000
    C15      C        0.55370    0.78450    0.53660    1.000
    C16      C        0.54820    0.66360    0.45750    1.000
    H10      H        0.54770    0.62370    0.42810    1.000
    C17      C        0.39170    0.66790    0.43510    1.000
    C18      C        0.76890    0.41840    0.76820    1.000
    C19      C        0.71480    0.39070    0.03490    1.000
    C20      C        0.83730    0.62360    0.27520    1.000
    H11      H        0.82980    0.58640    0.23450    1.000
    H12      H        0.89630    0.63520    0.27420    1.000
    C21      C        0.68770    0.44040    0.08110    1.000
    H13      H        0.66100    0.47290    0.04730    1.000
    C22      C        0.77620    0.41830    0.87690    1.000
    H14      H        0.82650    0.39490    0.89470    1.000
    H15      H        0.78340    0.46200    0.89850    1.000
    C23      C        0.69800    0.44630    0.18200    1.000
    H16      H        0.67800    0.48270    0.21300    1.000
    C24      C        0.70640    0.39120    0.92690    1.000
    H17      H        0.69880    0.34760    0.90490    1.000
    H18      H        0.65620    0.41490    0.90990    1.000
    C25      C        0.70630    0.67800    0.30150    1.000
    H19      H        0.68590    0.72090    0.31330    1.000
    H20      H        0.66160    0.65300    0.27240    1.000
    C26      C        0.78430    0.67900    0.23690    1.000
    H21      H        0.76930    0.67240    0.17010    1.000
    H22      H        0.81410    0.71920    0.24280    1.000
    C27      C        0.05060    0.53880    0.20520    1.000
    H23      H        0.08460    0.56730    0.23870    1.000
    C28      C        0.96550    0.54790    0.63600    1.000
    H24      H        0.94080    0.58190    0.60350    1.000
    C29      C        0.05340    0.53760    0.11000    1.000
    C30      C        0.96500    0.54890    0.73740    1.000
    C31      C        0.97970    0.52040    0.05980    1.000
    C32      C        0.98970    0.51490    0.78090    1.000
    Cd2      Cd       0.25138    0.59068    0.40039    1.000
    N4       N        0.23880    0.58750    0.56840    1.000
    O8       O        0.27890    0.48188    0.37970    1.000
    O9       O        0.14540    0.49822    0.40970    1.000
    N5       N        0.26390    0.59970    0.23390    1.000
    O10      O        0.49730    0.11104    0.56600    1.000
    C33      C        0.22800    0.63660    0.61890    1.000
    H25      H        0.21670    0.67480    0.58750    1.000
    O11      O        0.60720    0.39138    0.41670    1.000
    C34      C        0.43910    0.14960    0.57940    1.000
    C35      C        0.20510    0.46180    0.39100    1.000
    O12      O        0.37378    0.13989    0.62770    1.000
    C36      C        0.37440    0.25420    0.53140    1.000
    H26      H        0.32350    0.23930    0.55550    1.000
    C37      C        0.23880    0.53420    0.61510    1.000
    H27      H        0.24080    0.49690    0.57890    1.000
    N6       N        0.26340    0.35310    0.39470    1.000
    C38      C        0.29820    0.35090    0.48130    1.000
    C39      C        0.23620    0.52750    0.71320    1.000
    H28      H        0.23790    0.48730    0.74160    1.000
    C40      C        0.18860    0.39200    0.37550    1.000
    H29      H        0.14370    0.37860    0.41940    1.000
    C41      C        0.37870    0.31270    0.49160    1.000
    O13      O        0.26870    0.37930    0.54960    1.000
    C42      C        0.24180    0.65560    0.08720    1.000
    H30      H        0.21750    0.69030    0.05600    1.000
    C43      C        0.23530    0.64940    0.18530    1.000
    H31      H        0.20930    0.68210    0.21950    1.000
    C44      C        0.23210    0.63730    0.71930    1.000
    H32      H        0.23540    0.67590    0.75220    1.000
    O14      O        0.67370    0.30009    0.42970    1.000
    C45      C        0.52290    0.23990    0.50160    1.000
    H33      H        0.57090    0.21460    0.50240    1.000
    C46      C        0.52690    0.30220    0.46560    1.000
    C47      C        0.44630    0.21550    0.53660    1.000
    C48      C        0.45180    0.33640    0.45750    1.000
    H34      H        0.45230    0.37630    0.42810    1.000
    C49      C        0.60830    0.33210    0.43510    1.000
    C50      C        0.23110    0.58160    0.76820    1.000
    C51      C        0.28520    0.60930    0.03490    1.000
    C52      C        0.16270    0.37640    0.27520    1.000
    H35      H        0.17020    0.41360    0.23450    1.000
    H36      H        0.10370    0.36480    0.27420    1.000
    C53      C        0.31230    0.55960    0.08110    1.000
    H37      H        0.33900    0.52710    0.04730    1.000
    C54      C        0.22380    0.58170    0.87690    1.000
    H38      H        0.17350    0.60510    0.89470    1.000
    H39      H        0.21660    0.53800    0.89850    1.000
    C55      C        0.30200    0.55370    0.18200    1.000
    H40      H        0.32200    0.51730    0.21300    1.000
    C56      C        0.29360    0.60880    0.92690    1.000
    H41      H        0.30120    0.65240    0.90490    1.000
    H42      H        0.34380    0.58510    0.90990    1.000
    C57      C        0.29370    0.32200    0.30150    1.000
    H43      H        0.31410    0.27910    0.31330    1.000
    H44      H        0.33840    0.34700    0.27240    1.000
    C58      C        0.21570    0.32100    0.23690    1.000
    H45      H        0.23070    0.32760    0.17010    1.000
    H46      H        0.18590    0.28080    0.24280    1.000
    C59      C        0.94940    0.46120    0.20520    1.000
    H47      H        0.91540    0.43270    0.23870    1.000
    C60      C        0.03450    0.45210    0.63600    1.000
    H48      H        0.05920    0.41810    0.60350    1.000
    C61      C        0.94660    0.46240    0.11000    1.000
    C62      C        0.03500    0.45110    0.73740    1.000
    C63      C        0.02030    0.47960    0.05980    1.000
    C64      C        0.01030    0.48510    0.78090    1.000
    Cd3      Cd       0.75138    0.90932    0.59961    1.000
    N7       N        0.73880    0.91250    0.43160    1.000
    O15      O        0.77890    0.01812    0.62030    1.000
    O16      O        0.64540    0.00178    0.59030    1.000
    N8       N        0.76390    0.90030    0.76610    1.000
    O17      O        0.99730    0.38896    0.43400    1.000
    C65      C        0.72800    0.86340    0.38110    1.000
    H49      H        0.71670    0.82520    0.41250    1.000
    O18      O        0.10720    0.10862    0.58330    1.000
    C66      C        0.93910    0.35040    0.42060    1.000
    C67      C        0.70510    0.03820    0.60900    1.000
    O19      O        0.87378    0.36011    0.37230    1.000
    C68      C        0.87440    0.24580    0.46860    1.000
    H50      H        0.82350    0.26070    0.44450    1.000
    C69      C        0.73880    0.96580    0.38490    1.000
    H51      H        0.74080    0.00310    0.42110    1.000
    N9       N        0.76340    0.14690    0.60530    1.000
    C70      C        0.79820    0.14910    0.51870    1.000
    C71      C        0.73620    0.97250    0.28680    1.000
    H52      H        0.73790    0.01270    0.25840    1.000
    C72      C        0.68860    0.10800    0.62450    1.000
    H53      H        0.64370    0.12140    0.58060    1.000
    C73      C        0.87870    0.18730    0.50840    1.000
    O20      O        0.76870    0.12070    0.45040    1.000
    C74      C        0.74180    0.84440    0.91280    1.000
    H54      H        0.71750    0.80970    0.94400    1.000
    C75      C        0.73530    0.85060    0.81470    1.000
    H55      H        0.70930    0.81790    0.78050    1.000
    C76      C        0.73210    0.86270    0.28070    1.000
    H56      H        0.73540    0.82410    0.24780    1.000
    O21      O        0.17370    0.19991    0.57030    1.000
    C77      C        0.02290    0.26010    0.49840    1.000
    H57      H        0.07090    0.28540    0.49760    1.000
    C78      C        0.02690    0.19780    0.53440    1.000
    C79      C        0.94630    0.28450    0.46340    1.000
    C80      C        0.95180    0.16360    0.54250    1.000
    H58      H        0.95230    0.12370    0.57190    1.000
    C81      C        0.10830    0.16790    0.56490    1.000
    C82      C        0.73110    0.91840    0.23180    1.000
    C83      C        0.78520    0.89070    0.96510    1.000
    C84      C        0.66270    0.12360    0.72480    1.000
    H59      H        0.67020    0.08640    0.76550    1.000
    H60      H        0.60370    0.13520    0.72580    1.000
    C85      C        0.81230    0.94040    0.91890    1.000
    H61      H        0.83900    0.97290    0.95270    1.000
    C86      C        0.72380    0.91830    0.12310    1.000
    H62      H        0.67350    0.89490    0.10530    1.000
    H63      H        0.71660    0.96200    0.10150    1.000
    C87      C        0.80200    0.94630    0.81800    1.000
    H64      H        0.82200    0.98270    0.78700    1.000
    C88      C        0.79360    0.89120    0.07310    1.000
    H65      H        0.80120    0.84760    0.09510    1.000
    H66      H        0.84380    0.91490    0.09010    1.000
    C89      C        0.79370    0.17800    0.69850    1.000
    H67      H        0.81410    0.22090    0.68670    1.000
    H68      H        0.83840    0.15300    0.72760    1.000
    C90      C        0.71570    0.17900    0.76310    1.000
    H69      H        0.73070    0.17240    0.82990    1.000
    H70      H        0.68590    0.21920    0.75720    1.000
    C91      C        0.44940    0.03880    0.79480    1.000
    H71      H        0.41540    0.06730    0.76130    1.000
    C92      C        0.53450    0.04790    0.36400    1.000
    H72      H        0.55920    0.08190    0.39650    1.000
    C93      C        0.44660    0.03760    0.89000    1.000
    C94      C        0.53500    0.04890    0.26260    1.000
    C95      C        0.52030    0.02040    0.94020    1.000
    C96      C        0.51030    0.01490    0.21910    1.000
    Cd4      Cd       0.24862    0.09068    0.59961    1.000
    N10      N        0.26120    0.08750    0.43160    1.000
    O22      O        0.22110    0.98188    0.62030    1.000
    O23      O        0.35460    0.99822    0.59030    1.000
    N11      N        0.23610    0.09970    0.76610    1.000
    O24      O        0.00270    0.61104    0.43400    1.000
    C97      C        0.27200    0.13660    0.38110    1.000
    H73      H        0.28330    0.17480    0.41250    1.000
    O25      O        0.89280    0.89138    0.58330    1.000
    C98      C        0.06090    0.64960    0.42060    1.000
    C99      C        0.29490    0.96180    0.60900    1.000
    O26      O        0.12622    0.63989    0.37230    1.000
    C100     C        0.12560    0.75420    0.46860    1.000
    H74      H        0.17650    0.73930    0.44450    1.000
    C101     C        0.26120    0.03420    0.38490    1.000
    H75      H        0.25920    0.99690    0.42110    1.000
    N12      N        0.23660    0.85310    0.60530    1.000
    C102     C        0.20180    0.85090    0.51870    1.000
    C103     C        0.26380    0.02750    0.28680    1.000
    H76      H        0.26210    0.98730    0.25840    1.000
    C104     C        0.31140    0.89200    0.62450    1.000
    H77      H        0.35630    0.87860    0.58060    1.000
    C105     C        0.12130    0.81270    0.50840    1.000
    O27      O        0.23130    0.87930    0.45040    1.000
    C106     C        0.25820    0.15560    0.91280    1.000
    H78      H        0.28250    0.19030    0.94400    1.000
    C107     C        0.26470    0.14940    0.81470    1.000
    H79      H        0.29070    0.18210    0.78050    1.000
    C108     C        0.26790    0.13730    0.28070    1.000
    H80      H        0.26460    0.17590    0.24780    1.000
    O28      O        0.82630    0.80009    0.57030    1.000
    C109     C        0.97710    0.73990    0.49840    1.000
    H81      H        0.92910    0.71460    0.49760    1.000
    C110     C        0.97310    0.80220    0.53440    1.000
    C111     C        0.05370    0.71550    0.46340    1.000
    C112     C        0.04820    0.83640    0.54250    1.000
    H82      H        0.04770    0.87630    0.57190    1.000
    C113     C        0.89170    0.83210    0.56490    1.000
    C114     C        0.26890    0.08160    0.23180    1.000
    C115     C        0.21480    0.10930    0.96510    1.000
    C116     C        0.33730    0.87640    0.72480    1.000
    H83      H        0.32980    0.91360    0.76550    1.000
    H84      H        0.39630    0.86480    0.72580    1.000
    C117     C        0.18770    0.05960    0.91890    1.000
    H85      H        0.16100    0.02710    0.95270    1.000
    C118     C        0.27620    0.08170    0.12310    1.000
    H86      H        0.32650    0.10510    0.10530    1.000
    H87      H        0.28340    0.03800    0.10150    1.000
    C119     C        0.19800    0.05370    0.81800    1.000
    H88      H        0.17800    0.01730    0.78700    1.000
    C120     C        0.20640    0.10880    0.07310    1.000
    H89      H        0.19880    0.15240    0.09510    1.000
    H90      H        0.15620    0.08510    0.09010    1.000
    C121     C        0.20630    0.82200    0.69850    1.000
    H91      H        0.18590    0.77910    0.68670    1.000
    H92      H        0.16160    0.84700    0.72760    1.000
    C122     C        0.28430    0.82100    0.76310    1.000
    H93      H        0.26930    0.82760    0.82990    1.000
    H94      H        0.31410    0.78080    0.75720    1.000
    C123     C        0.55060    0.96120    0.79480    1.000
    H95      H        0.58460    0.93270    0.76130    1.000
    C124     C        0.46550    0.95210    0.36400    1.000
    H96      H        0.44080    0.91810    0.39650    1.000
    C125     C        0.55340    0.96240    0.89000    1.000
    C126     C        0.46500    0.95110    0.26260    1.000
    C127     C        0.47970    0.97960    0.94020    1.000
    C128     C        0.48970    0.98510    0.21910    1.000
    Cd5      Cd       0.00000    0.50000    0.41958    1.000
    N13      N        0.00000    0.50000    0.25340    1.000
    N14      N        0.00000    0.50000    0.58300    1.000
    C129     C        0.00000    0.50000    0.79100    1.000
    Cd6      Cd       0.50000    0.00000    0.58042    1.000
    N15      N        0.50000    0.00000    0.74660    1.000
    N16      N        0.50000    0.00000    0.41700    1.000
    C130     C        0.50000    0.00000    0.20900    1.000
