data_functionalizedCrystal
_audit_creation_method	'EQeq! by Chris Wilmer'
_symmetry_space_group_name_H-M	'P1'
_symmetry_Int_Tables_number	1
_symmetry_cell_setting	triclinic
loop_
_symmetry_equiv_pos_as_xyz
  x,y,z
_cell_length_a	8.2723
_cell_length_b	20.345
_cell_length_c	8.6343
_cell_angle_alpha	90
_cell_angle_beta	92.36
_cell_angle_gamma	90
loop_
_atom_site_label
_atom_site_type_symbol
_atom_site_fract_x
_atom_site_fract_y
_atom_site_fract_z
_atom_site_charge
Mof_N 	N 	0.8244	0.1737	0.17497	-0.11
Mof_N 	N 	0.88513	0.07828	0.08636	-0.196
Mof_N 	N 	0.71693	0.08132	0.09159	-0.105
Mof_N 	N 	0.8513	0.23687	0.232	-0.031
Mof_N 	N 	0.7233	0.26875	0.2216	-0.041
Mof_N 	N 	0.7468	0.33094	0.28326	-0.097
Mof_N 	N 	0.84	0.41647	0.4115	-0.085
Mof_N 	N 	0.67476	0.42627	0.37118	-0.146
Mof_N 	N 	0.34348	0.00047	0.36659	-0.129
Mof_N 	N 	0.1507	0.00079	0.19038	-0.223
Mof_N 	N 	0.0804	0.0036	0.33536	-0.12
Mof_N 	N 	0.5005	0.9994	0.4279	-0.011
Mof_C 	C 	0.9466	0.13332	0.1379	0.177
Mof_H 	H 	0.0586	0.1434	0.1479	-0.045
Mof_C 	C 	0.6833	0.13911	0.1454	0.096
Mof_H 	H 	0.5775	0.1551	0.1619	0.019
Mof_C 	C 	0.8791	0.35924	0.3586	0.102
Mof_H 	H 	0.9833	0.3398	0.3701	0.04
Mof_C 	C 	0.6236	0.37465	0.2952	0.097
Mof_H 	H 	0.5164	0.3684	0.2543	0.013
Mof_C 	C 	0.3077	0.99929	0.2117	0.164
Mof_H 	H 	0.384	0.9977	0.1324	0.001
Mof_C 	C 	0.1982	0.00305	0.4389	0.093
Mof_H 	H 	0.1862	0.0042	0.5478	0.02
Mof_N 	N 	0.1756	0.8263	0.82503	-0.089
Mof_N 	N 	0.11487	0.92172	0.91364	-0.161
Mof_N 	N 	0.28307	0.91868	0.90841	-0.078
Mof_N 	N 	0.1487	0.76313	0.768	-0.041
Mof_N 	N 	0.2767	0.73125	0.7784	-0.033
Mof_N 	N 	0.2532	0.66906	0.71674	-0.097
Mof_N 	N 	0.16	0.58353	0.5885	-0.097
Mof_N 	N 	0.32524	0.57373	0.62882	-0.147
Mof_N 	N 	0.65652	0.99953	0.63341	-0.068
Mof_N 	N 	0.8493	0.99921	0.80962	-0.137
Mof_N 	N 	0.9196	0.9964	0.66464	-0.076
Mof_N 	N 	0.4995	0.0006	0.5721	-0.06
Mof_C 	C 	0.0534	0.86668	0.8621	0.047
Mof_H 	H 	0.9414	0.8566	0.8521	0.066
Mof_C 	C 	0.3167	0.86089	0.8546	0.106
Mof_H 	H 	0.4225	0.8449	0.8381	0.038
Mof_C 	C 	0.1209	0.64076	0.6414	0.098
Mof_H 	H 	0.0167	0.6602	0.6299	0.018
Mof_C 	C 	0.3764	0.62535	0.7048	0.099
Mof_H 	H 	0.4836	0.6316	0.7457	0.025
Mof_C 	C 	0.6923	0.00071	0.7883	0.051
Mof_H 	H 	0.616	0.0023	0.8676	0.046
Mof_C 	C 	0.8018	0.99695	0.5611	0.11
Mof_H 	H 	0.8138	0.9958	0.4522	0.047
Mof_Cu	Cu	-0	0	-0	0.841
Mof_N 	N 	0.6756	0.6737	0.32503	-0.1
Mof_N 	N 	0.61487	0.57828	0.41364	-0.186
Mof_N 	N 	0.78307	0.58132	0.40841	-0.088
Mof_N 	N 	0.6487	0.73687	0.268	-0.041
Mof_N 	N 	0.7767	0.76875	0.2784	-0.035
Mof_N 	N 	0.7532	0.83094	0.21674	-0.097
Mof_N 	N 	0.66	0.91647	0.0885	-0.096
Mof_N 	N 	0.82524	0.92627	0.12882	-0.137
Mof_N 	N 	0.15652	0.50047	0.13341	-0.106
Mof_N 	N 	0.3493	0.50079	0.30962	-0.186
Mof_N 	N 	0.4196	0.5036	0.16464	-0.089
Mof_N 	N 	0.9995	0.4994	0.0721	-0.028
Mof_C 	C 	0.5534	0.63332	0.3621	0.107
Mof_H 	H 	0.4414	0.6434	0.3521	0.008
Mof_C 	C 	0.8167	0.63911	0.3546	0.102
Mof_H 	H 	0.9225	0.6551	0.3381	0.037
Mof_C 	C 	0.6209	0.85924	0.1414	0.097
Mof_H 	H 	0.5167	0.8398	0.1299	0.019
Mof_C 	C 	0.8764	0.87465	0.2048	0.096
Mof_H 	H 	0.9836	0.8684	0.2457	0.034
Mof_C 	C 	0.1923	0.49929	0.2883	0.101
Mof_H 	H 	0.116	0.4977	0.3676	0.012
Mof_C 	C 	0.3018	0.50305	0.0611	0.018
Mof_H 	H 	0.3138	0.5042	0.9522	0.085
Mof_N 	N 	0.3244	0.3263	0.67497	-0.099
Mof_N 	N 	0.38513	0.42172	0.58636	-0.186
Mof_N 	N 	0.21693	0.41868	0.59159	-0.098
Mof_N 	N 	0.3513	0.26313	0.732	-0.034
Mof_N 	N 	0.2233	0.23125	0.7216	-0.04
Mof_N 	N 	0.2468	0.16906	0.78326	-0.097
Mof_N 	N 	0.34	0.08353	0.9115	-0.085
Mof_N 	N 	0.17476	0.07373	0.87118	-0.146
Mof_N 	N 	0.84348	0.49953	0.86659	-0.092
Mof_N 	N 	0.6507	0.49921	0.69038	-0.184
Mof_N 	N 	0.5804	0.4964	0.83536	-0.107
Mof_N 	N 	0.0005	0.5006	0.9279	-0.041
Mof_C 	C 	0.4466	0.36668	0.6379	0.108
Mof_H 	H 	0.5586	0.3566	0.6479	0.018
Mof_C 	C 	0.1833	0.36089	0.6454	0.099
Mof_H 	H 	0.0775	0.3449	0.6619	0.02
Mof_C 	C 	0.3791	0.14076	0.8586	0.103
Mof_H 	H 	0.4833	0.1602	0.8701	0.038
Mof_C 	C 	0.1236	0.12535	0.7952	0.099
Mof_H 	H 	0.0164	0.1316	0.7543	0.007
Mof_C 	C 	0.8077	0.50071	0.7117	0.112
Mof_H 	H 	0.884	0.5023	0.6324	0.033
Mof_C 	C 	0.6982	0.49695	0.9389	0.181
Mof_H 	H 	0.6862	0.4958	0.0478	-0.017
Mof_Cu	Cu	0.5	0.5	0.5	0.89
_end
