# CIF file generated by openbabel 3.1.0, see https://openbabel.org
data_I
_chemical_name_common 'image0'
_cell_length_a 9.4755
_cell_length_b 13.0729
_cell_length_c 18.4582
_cell_angle_alpha 107.506
_cell_angle_beta 96.574
_cell_angle_gamma 98.231
_space_group_name_H-M_alt 'P 1'
_space_group_name_Hall 'P 1'
loop_
    _symmetry_equiv_pos_as_xyz
    x,y,z
loop_
    _atom_site_label
    _atom_site_type_symbol
    _atom_site_fract_x
    _atom_site_fract_y
    _atom_site_fract_z
    _atom_site_occupancy
    Yb1      Yb       0.76572    0.49406    0.99720    1.000
    O1       O        0.56470    0.46320    0.91180    1.000
    O2       O        0.32600    0.44530    0.88991    1.000
    O3       O        0.13150    0.45090    0.09790    1.000
    O4       O        0.88940    0.41680    0.07360    1.000
    O5       O        0.19630    0.66110    0.09650    1.000
    O6       O        0.95680    0.62420    0.06890    1.000
    N1       N        0.44340    0.32910    0.62760    1.000
    N2       N        0.99870    0.36040    0.32450    1.000
    N3       N        0.04610    0.90700    0.32380    1.000
    C1       C        0.44600    0.44080    0.86940    1.000
    C2       C        0.44630    0.40370    0.78350    1.000
    C3       C        0.32000    0.38440    0.73230    1.000
    H1       H        0.23450    0.39700    0.75050    1.000
    C4       C        0.32050    0.34640    0.65390    1.000
    H2       H        0.23510    0.33280    0.61940    1.000
    C5       C        0.56800    0.34910    0.67590    1.000
    H3       H        0.65250    0.33770    0.65610    1.000
    C6       C        0.57300    0.38630    0.75460    1.000
    H4       H        0.66000    0.39950    0.78790    1.000
    C7       C        0.45020    0.29010    0.54160    1.000
    H5       H        0.49790    0.35040    0.52750    1.000
    H6       H        0.50760    0.23310    0.53100    1.000
    C8       C        0.30190    0.24670    0.49300    1.000
    C9       C        0.22500    0.31880    0.46930    1.000
    C10      C        0.08790    0.27580    0.42360    1.000
    C11      C        0.99750    0.35390    0.40480    1.000
    H7       H        0.89850    0.33100    0.41040    1.000
    H8       H        0.03320    0.42620    0.44180    1.000
    C12      C        0.87710    0.36880    0.28450    1.000
    H9       H        0.79140    0.36280    0.30430    1.000
    C13      C        0.87600    0.38600    0.21480    1.000
    H10      H        0.79030    0.39110    0.18720    1.000
    C14      C        0.00420    0.39570    0.18590    1.000
    C15      C        0.00890    0.42370    0.11210    1.000
    C16      C        0.13000    0.38570    0.22860    1.000
    H11      H        0.21740    0.39190    0.21050    1.000
    C17      C        0.12350    0.36650    0.29710    1.000
    H12      H        0.20650    0.35770    0.32500    1.000
    C18      C        0.02930    0.16440    0.39990    1.000
    C19      C        0.10750    0.09420    0.42410    1.000
    C20      C        0.03490    0.97640    0.40330    1.000
    H13      H        0.07770    0.94560    0.44030    1.000
    H14      H        0.93340    0.97350    0.40770    1.000
    C21      C        0.17440    0.89920    0.30220    1.000
    H15      H        0.25680    0.94410    0.33480    1.000
    C22      C        0.18910    0.82760    0.23360    1.000
    H16      H        0.27990    0.82210    0.22010    1.000
    C23      C        0.06440    0.76300    0.18440    1.000
    C24      C        0.07380    0.67650    0.11000    1.000
    C25      C        0.93260    0.77530    0.20600    1.000
    H17      H        0.84790    0.73540    0.17300    1.000
    C26      C        0.92620    0.84700    0.27670    1.000
    H18      H        0.83680    0.85380    0.29180    1.000
    C27      C        0.24420    0.13460    0.47130    1.000
    C28      C        0.33010    0.05910    0.49840    1.000
    H19      H        0.33340    0.07420    0.55280    1.000
    H20      H        0.42670    0.07090    0.48760    1.000
    H21      H        0.28430    0.98450    0.47180    1.000
    C29      C        0.88320    0.12250    0.35080    1.000
    H22      H        0.84820    0.04960    0.35020    1.000
    H23      H        0.88990    0.12220    0.29930    1.000
    H24      H        0.81760    0.16890    0.37150    1.000
    C30      C        0.28710    0.43890    0.49530    1.000
    H25      H        0.32560    0.45730    0.45390    1.000
    H26      H        0.36290    0.45640    0.53870    1.000
    H27      H        0.21250    0.47970    0.50980    1.000
    Yb2      Yb       0.23428    0.50594    0.00280    1.000
    O7       O        0.43530    0.53680    0.08820    1.000
    O8       O        0.67400    0.55470    0.11009    1.000
    O9       O        0.86850    0.54910    0.90210    1.000
    O10      O        0.11060    0.58320    0.92640    1.000
    O11      O        0.80370    0.33890    0.90350    1.000
    O12      O        0.04320    0.37580    0.93110    1.000
    N4       N        0.55660    0.67090    0.37240    1.000
    N5       N        0.00130    0.63960    0.67550    1.000
    N6       N        0.95390    0.09300    0.67620    1.000
    C31      C        0.55400    0.55920    0.13060    1.000
    C32      C        0.55370    0.59630    0.21650    1.000
    C33      C        0.68000    0.61560    0.26770    1.000
    H28      H        0.76550    0.60300    0.24950    1.000
    C34      C        0.67950    0.65360    0.34610    1.000
    H29      H        0.76490    0.66720    0.38060    1.000
    C35      C        0.43200    0.65090    0.32410    1.000
    H30      H        0.34750    0.66230    0.34390    1.000
    C36      C        0.42700    0.61370    0.24540    1.000
    H31      H        0.34000    0.60050    0.21210    1.000
    C37      C        0.54980    0.70990    0.45840    1.000
    H32      H        0.50210    0.64960    0.47250    1.000
    H33      H        0.49240    0.76690    0.46900    1.000
    C38      C        0.69810    0.75330    0.50700    1.000
    C39      C        0.77500    0.68120    0.53070    1.000
    C40      C        0.91210    0.72420    0.57640    1.000
    C41      C        0.00250    0.64610    0.59520    1.000
    H34      H        0.10150    0.66900    0.58960    1.000
    H35      H        0.96680    0.57380    0.55820    1.000
    C42      C        0.12290    0.63120    0.71550    1.000
    H36      H        0.20860    0.63720    0.69570    1.000
    C43      C        0.12400    0.61400    0.78520    1.000
    H37      H        0.20970    0.60890    0.81280    1.000
    C44      C        0.99580    0.60430    0.81410    1.000
    C45      C        0.99110    0.57630    0.88790    1.000
    C46      C        0.87000    0.61430    0.77140    1.000
    H38      H        0.78260    0.60810    0.78950    1.000
    C47      C        0.87650    0.63350    0.70290    1.000
    H39      H        0.79350    0.64230    0.67500    1.000
    C48      C        0.97070    0.83560    0.60010    1.000
    C49      C        0.89250    0.90580    0.57590    1.000
    C50      C        0.96510    0.02360    0.59670    1.000
    H40      H        0.92230    0.05440    0.55970    1.000
    H41      H        0.06660    0.02650    0.59230    1.000
    C51      C        0.82560    0.10080    0.69780    1.000
    H42      H        0.74320    0.05590    0.66520    1.000
    C52      C        0.81090    0.17240    0.76640    1.000
    H43      H        0.72010    0.17790    0.77990    1.000
    C53      C        0.93560    0.23700    0.81560    1.000
    C54      C        0.92620    0.32350    0.89000    1.000
    C55      C        0.06740    0.22470    0.79400    1.000
    H44      H        0.15210    0.26460    0.82700    1.000
    C56      C        0.07380    0.15300    0.72330    1.000
    H45      H        0.16320    0.14620    0.70820    1.000
    C57      C        0.75580    0.86540    0.52870    1.000
    C58      C        0.66990    0.94090    0.50160    1.000
    H46      H        0.66660    0.92580    0.44720    1.000
    H47      H        0.57330    0.92910    0.51240    1.000
    H48      H        0.71570    0.01550    0.52820    1.000
    C59      C        0.11680    0.87750    0.64920    1.000
    H49      H        0.15180    0.95040    0.64980    1.000
    H50      H        0.11010    0.87780    0.70070    1.000
    H51      H        0.18240    0.83110    0.62850    1.000
    C60      C        0.71290    0.56110    0.50470    1.000
    H52      H        0.67440    0.54270    0.54610    1.000
    H53      H        0.63710    0.54360    0.46130    1.000
    H54      H        0.78750    0.52030    0.49020    1.000
