# CIF file generated by openbabel 3.1.0, see https://openbabel.org
data_I
_chemical_name_common 'image0'
_cell_length_a 8.2936
_cell_length_b 16.2539
_cell_length_c 17.0073
_cell_angle_alpha 90
_cell_angle_beta 100.023
_cell_angle_gamma 90
_space_group_name_H-M_alt 'P 1'
_space_group_name_Hall 'P 1'
loop_
    _symmetry_equiv_pos_as_xyz
    x,y,z
loop_
    _atom_site_label
    _atom_site_type_symbol
    _atom_site_fract_x
    _atom_site_fract_y
    _atom_site_fract_z
    _atom_site_occupancy
    C1       C        0.79590    0.88430    0.13780    1.000
    H1       H        0.89690    0.89980    0.12590    1.000
    C2       C        0.66120    0.93100    0.10840    1.000
    H2       H        0.67180    0.97730    0.07760    1.000
    C3       C        0.51080    0.90930    0.12480    1.000
    C4       C        0.49900    0.83820    0.16780    1.000
    H3       H        0.39760    0.81990    0.17690    1.000
    C5       C        0.63960    0.79450    0.19710    1.000
    H4       H        0.63120    0.74770    0.22760    1.000
    C6       C        0.36400    0.96150    0.09680    1.000
    C7       C        0.34930    0.04230    0.10980    1.000
    C8       C        0.48160    0.09690    0.15180    1.000
    C9       C        0.51890    0.16930    0.11610    1.000
    H5       H        0.45590    0.18720    0.06860    1.000
    C10      C        0.65410    0.21470    0.15340    1.000
    H6       H        0.67870    0.26380    0.13000    1.000
    C11      C        0.70690    0.12280    0.25680    1.000
    H7       H        0.76880    0.10740    0.30560    1.000
    C12      C        0.57330    0.07410    0.22360    1.000
    H8       H        0.54700    0.02710    0.24980    1.000
    C13      C        0.07280    0.00050    0.02360    1.000
    Fe1      Fe       0.01656    0.75311    0.23304    1.000
    N1       N        0.78870    0.81710    0.18310    1.000
    N2       N        0.74870    0.19100    0.22070    1.000
    N3       N        0.14300    0.87000    0.24620    1.000
    C14      C        0.18250    0.93360    0.26970    1.000
    C15      C        0.16570    0.07320    0.28570    1.000
    N4       N        0.11150    0.13760    0.27620    1.000
    N5       N        0.97020    0.77160    0.35060    1.000
    C16      C        0.98110    0.79310    0.41420    1.000
    C17      C        0.02930    0.79180    0.55150    1.000
    N6       N        0.05870    0.76720    0.61420    1.000
    N7       N        0.04700    0.83200    0.48460    1.000
    N8       N        0.24350    0.00360    0.29960    1.000
    S1       S        0.16170    0.08892    0.07151    1.000
    S2       S        0.19504    0.91127    0.04003    1.000
    N9       N        0.93400    0.81730    0.48290    1.000
    C18      C        0.20410    0.38430    0.36220    1.000
    H9       H        0.10310    0.39980    0.37410    1.000
    C19      C        0.33880    0.43100    0.39160    1.000
    H10      H        0.32820    0.47730    0.42240    1.000
    C20      C        0.48920    0.40930    0.37520    1.000
    C21      C        0.50100    0.33820    0.33220    1.000
    H11      H        0.60240    0.31990    0.32310    1.000
    C22      C        0.36040    0.29450    0.30290    1.000
    H12      H        0.36880    0.24770    0.27240    1.000
    C23      C        0.63600    0.46150    0.40320    1.000
    C24      C        0.65070    0.54230    0.39020    1.000
    C25      C        0.51840    0.59690    0.34820    1.000
    C26      C        0.48110    0.66930    0.38390    1.000
    H13      H        0.54410    0.68720    0.43140    1.000
    C27      C        0.34590    0.71470    0.34660    1.000
    H14      H        0.32130    0.76380    0.37000    1.000
    C28      C        0.29310    0.62280    0.24320    1.000
    H15      H        0.23120    0.60740    0.19440    1.000
    C29      C        0.42670    0.57410    0.27640    1.000
    H16      H        0.45300    0.52710    0.25020    1.000
    C30      C        0.92720    0.50050    0.47640    1.000
    Fe2      Fe       0.98344    0.25311    0.26696    1.000
    N10      N        0.21130    0.31710    0.31690    1.000
    N11      N        0.25130    0.69100    0.27930    1.000
    N12      N        0.85700    0.37000    0.25380    1.000
    C31      C        0.81750    0.43360    0.23030    1.000
    C32      C        0.83430    0.57320    0.21430    1.000
    N13      N        0.88850    0.63760    0.22380    1.000
    N14      N        0.02980    0.27160    0.14940    1.000
    C33      C        0.01890    0.29310    0.08580    1.000
    C34      C        0.97070    0.29180    0.94850    1.000
    N15      N        0.94130    0.26720    0.88580    1.000
    N16      N        0.95300    0.33200    0.01540    1.000
    N17      N        0.75650    0.50360    0.20040    1.000
    S3       S        0.83830    0.58892    0.42849    1.000
    S4       S        0.80496    0.41127    0.45997    1.000
    N18      N        0.06600    0.31730    0.01710    1.000
    C35      C        0.20410    0.11570    0.86220    1.000
    H17      H        0.10310    0.10020    0.87410    1.000
    C36      C        0.33880    0.06900    0.89160    1.000
    H18      H        0.32820    0.02270    0.92240    1.000
    C37      C        0.48920    0.09070    0.87520    1.000
    C38      C        0.50100    0.16180    0.83220    1.000
    H19      H        0.60240    0.18010    0.82310    1.000
    C39      C        0.36040    0.20550    0.80290    1.000
    H20      H        0.36880    0.25230    0.77240    1.000
    C40      C        0.63600    0.03850    0.90320    1.000
    C41      C        0.65070    0.95770    0.89020    1.000
    C42      C        0.51840    0.90310    0.84820    1.000
    C43      C        0.48110    0.83070    0.88390    1.000
    H21      H        0.54410    0.81280    0.93140    1.000
    C44      C        0.34590    0.78530    0.84660    1.000
    H22      H        0.32130    0.73620    0.87000    1.000
    C45      C        0.29310    0.87720    0.74320    1.000
    H23      H        0.23120    0.89260    0.69440    1.000
    C46      C        0.42670    0.92590    0.77640    1.000
    H24      H        0.45300    0.97290    0.75020    1.000
    C47      C        0.92720    0.99950    0.97640    1.000
    Fe3      Fe       0.98344    0.24689    0.76696    1.000
    N19      N        0.21130    0.18290    0.81690    1.000
    N20      N        0.25130    0.80900    0.77930    1.000
    N21      N        0.85700    0.13000    0.75380    1.000
    C48      C        0.81750    0.06640    0.73030    1.000
    C49      C        0.83430    0.92680    0.71430    1.000
    N22      N        0.88850    0.86240    0.72380    1.000
    N23      N        0.02980    0.22840    0.64940    1.000
    C50      C        0.01890    0.20690    0.58580    1.000
    C51      C        0.97070    0.20820    0.44850    1.000
    N24      N        0.94130    0.23280    0.38580    1.000
    N25      N        0.95300    0.16800    0.51540    1.000
    N26      N        0.75650    0.99640    0.70040    1.000
    S5       S        0.83830    0.91108    0.92849    1.000
    S6       S        0.80496    0.08873    0.95997    1.000
    N27      N        0.06600    0.18270    0.51710    1.000
    C52      C        0.79590    0.61570    0.63780    1.000
    H25      H        0.89690    0.60020    0.62590    1.000
    C53      C        0.66120    0.56900    0.60840    1.000
    H26      H        0.67180    0.52270    0.57760    1.000
    C54      C        0.51080    0.59070    0.62480    1.000
    C55      C        0.49900    0.66180    0.66780    1.000
    H27      H        0.39760    0.68010    0.67690    1.000
    C56      C        0.63960    0.70550    0.69710    1.000
    H28      H        0.63120    0.75230    0.72760    1.000
    C57      C        0.36400    0.53850    0.59680    1.000
    C58      C        0.34930    0.45770    0.60980    1.000
    C59      C        0.48160    0.40310    0.65180    1.000
    C60      C        0.51890    0.33070    0.61610    1.000
    H29      H        0.45590    0.31280    0.56860    1.000
    C61      C        0.65410    0.28530    0.65340    1.000
    H30      H        0.67870    0.23620    0.63000    1.000
    C62      C        0.70690    0.37720    0.75680    1.000
    H31      H        0.76880    0.39260    0.80560    1.000
    C63      C        0.57330    0.42590    0.72360    1.000
    H32      H        0.54700    0.47290    0.74980    1.000
    C64      C        0.07280    0.49950    0.52360    1.000
    Fe4      Fe       0.01656    0.74689    0.73304    1.000
    N28      N        0.78870    0.68290    0.68310    1.000
    N29      N        0.74870    0.30900    0.72070    1.000
    N30      N        0.14300    0.63000    0.74620    1.000
    C65      C        0.18250    0.56640    0.76970    1.000
    C66      C        0.16570    0.42680    0.78570    1.000
    N31      N        0.11150    0.36240    0.77620    1.000
    N32      N        0.97020    0.72840    0.85060    1.000
    C67      C        0.98110    0.70690    0.91420    1.000
    C68      C        0.02930    0.70820    0.05150    1.000
    N33      N        0.05870    0.73280    0.11420    1.000
    N34      N        0.04700    0.66800    0.98460    1.000
    N35      N        0.24350    0.49640    0.79960    1.000
    S7       S        0.16170    0.41108    0.57151    1.000
    S8       S        0.19504    0.58873    0.54003    1.000
    N36      N        0.93400    0.68270    0.98290    1.000
