# CIF file generated by openbabel 3.1.0, see https://openbabel.org
data_I
_chemical_name_common 'image0'
_cell_length_a 16.7094
_cell_length_b 20.2857
_cell_length_c 17.1936
_cell_angle_alpha 90
_cell_angle_beta 99.178
_cell_angle_gamma 90
_space_group_name_H-M_alt 'P 1'
_space_group_name_Hall 'P 1'
loop_
    _symmetry_equiv_pos_as_xyz
    x,y,z
loop_
    _atom_site_label
    _atom_site_type_symbol
    _atom_site_fract_x
    _atom_site_fract_y
    _atom_site_fract_z
    _atom_site_occupancy
    Co1      Co       0.58645    0.85163    0.44140    1.000
    Mn1      Mn       0.46300    0.83233    0.24579    1.000
    Mn2      Mn       0.35591    0.87452    0.05371    1.000
    S1       S        0.54878    0.42926    0.33489    1.000
    S2       S        0.60562    0.51411    0.95883    1.000
    S3       S        0.94767    0.72467    0.23391    1.000
    O1       O        0.84610    0.38870    0.13130    1.000
    O2       O        0.98820    0.60570    0.97100    1.000
    O3       O        0.58720    0.75120    0.44090    1.000
    O4       O        0.48040    0.76310    0.15760    1.000
    O5       O        0.49980    0.75780    0.33190    1.000
    O6       O        0.91260    0.36230    0.24860    1.000
    O7       O        0.06990    0.41550    0.33070    1.000
    O8       O        0.33640    0.80623    0.23780    1.000
    O9       O        0.94990    0.60350    0.84410    1.000
    O10      O        0.28550    0.81510    0.11130    1.000
    O11      O        0.43950    0.80140    0.03710    1.000
    O12      O        0.05770    0.45560    0.44470    1.000
    O13      O        0.55770    0.39810    0.40950    1.000
    O14      O        0.48070    0.41380    0.27590    1.000
    O15      O        0.61340    0.46554    0.01910    1.000
    O16      O        0.55730    0.49980    0.88500    1.000
    O17      O        0.89590    0.72060    0.16010    1.000
    O18      O        0.92620    0.76638    0.29350    1.000
    C1       C        0.54450    0.72550    0.38190    1.000
    C2       C        0.54820    0.65170    0.37200    1.000
    C3       C        0.58870    0.61070    0.42950    1.000
    H1       H        0.61610    0.62880    0.47590    1.000
    C4       C        0.58910    0.54310    0.41900    1.000
    H2       H        0.61590    0.51590    0.45830    1.000
    C5       C        0.54950    0.51640    0.34970    1.000
    C6       C        0.51220    0.55630    0.29000    1.000
    H3       H        0.48770    0.53810    0.24250    1.000
    C7       C        0.51180    0.62430    0.30170    1.000
    H4       H        0.48650    0.65150    0.26160    1.000
    C8       C        0.63720    0.41500    0.29630    1.000
    C9       C        0.70570    0.39180    0.34390    1.000
    H5       H        0.70440    0.38300    0.39680    1.000
    C10      C        0.77540    0.38180    0.31350    1.000
    H6       H        0.82200    0.36680    0.34560    1.000
    C11      C        0.77590    0.39410    0.23610    1.000
    C12      C        0.70570    0.41540    0.18840    1.000
    H7       H        0.70600    0.42190    0.13490    1.000
    C13      C        0.63710    0.42670    0.21840    1.000
    H8       H        0.59080    0.44210    0.18650    1.000
    C14      C        0.85170    0.38070    0.20400    1.000
    C15      C        0.47470    0.75990    0.08540    1.000
    C16      C        0.50950    0.70030    0.05260    1.000
    C17      C        0.55150    0.65340    0.10270    1.000
    H9       H        0.55900    0.66040    0.15680    1.000
    C18      C        0.58180    0.59720    0.07390    1.000
    H10      H        0.60960    0.56620    0.10790    1.000
    C19      C        0.57050    0.58780    0.99460    1.000
    C20      C        0.52960    0.63420    0.94360    1.000
    H11      H        0.52290    0.62750    0.88950    1.000
    C21      C        0.49870    0.69060    0.97360    1.000
    H12      H        0.47060    0.72150    0.93970    1.000
    C22      C        0.70410    0.53440    0.94360    1.000
    C23      C        0.76830    0.52460    0.00300    1.000
    H13      H        0.76050    0.50500    0.05010    1.000
    C24      C        0.84430    0.54440    0.99160    1.000
    H14      H        0.88840    0.53880    0.03160    1.000
    C25      C        0.85520    0.57200    0.92230    1.000
    C26      C        0.78940    0.58010    0.86270    1.000
    H15      H        0.79730    0.59830    0.81480    1.000
    C27      C        0.71300    0.56170    0.87340    1.000
    H16      H        0.66870    0.56770    0.83380    1.000
    C28      C        0.93650    0.59490    0.91090    1.000
    C29      C        0.27990    0.80280    0.18010    1.000
    C30      C        0.19770    0.78260    0.19420    1.000
    C31      C        0.13550    0.77350    0.13210    1.000
    H17      H        0.14570    0.77990    0.08100    1.000
    C32      C        0.05950    0.75550    0.14340    1.000
    H18      H        0.01850    0.74870    0.10070    1.000
    C33      C        0.04520    0.74770    0.21870    1.000
    C34      C        0.10600    0.75710    0.28150    1.000
    H19      H        0.09510    0.75210    0.33250    1.000
    C35      C        0.18280    0.77380    0.26990    1.000
    H20      H        0.22420    0.77910    0.31260    1.000
    C36      C        0.96300    0.64400    0.27230    1.000
    C37      C        0.96900    0.63450    0.35100    1.000
    H21      H        0.95950    0.66900    0.38400    1.000
    C38      C        0.98940    0.57270    0.38120    1.000
    H22      H        0.99100    0.56550    0.43490    1.000
    C39      C        0.00740    0.52100    0.33450    1.000
    C40      C        0.99820    0.53020    0.25560    1.000
    H23      H        0.00720    0.49540    0.22280    1.000
    C41      C        0.97530    0.59180    0.22340    1.000
    H24      H        0.96820    0.59790    0.16920    1.000
    C42      C        0.04420    0.45970    0.37210    1.000
    Co2      Co       0.91355    0.35163    0.05860    1.000
    Mn3      Mn       0.03700    0.33233    0.25421    1.000
    Mn4      Mn       0.14409    0.37452    0.44629    1.000
    S4       S        0.95122    0.92926    0.16511    1.000
    S5       S        0.89438    0.01411    0.54117    1.000
    S6       S        0.55233    0.22467    0.26609    1.000
    O19      O        0.65390    0.88870    0.36870    1.000
    O20      O        0.51180    0.10570    0.52900    1.000
    O21      O        0.91280    0.25120    0.05910    1.000
    O22      O        0.01960    0.26310    0.34240    1.000
    O23      O        0.00020    0.25780    0.16810    1.000
    O24      O        0.58740    0.86230    0.25140    1.000
    O25      O        0.43010    0.91550    0.16930    1.000
    O26      O        0.16360    0.30623    0.26220    1.000
    O27      O        0.55010    0.10350    0.65590    1.000
    O28      O        0.21450    0.31510    0.38870    1.000
    O29      O        0.06050    0.30140    0.46290    1.000
    O30      O        0.44230    0.95560    0.05530    1.000
    O31      O        0.94230    0.89810    0.09050    1.000
    O32      O        0.01930    0.91380    0.22410    1.000
    O33      O        0.88660    0.96554    0.48090    1.000
    O34      O        0.94270    0.99980    0.61500    1.000
    O35      O        0.60410    0.22060    0.33990    1.000
    O36      O        0.57380    0.26638    0.20650    1.000
    C43      C        0.95550    0.22550    0.11810    1.000
    C44      C        0.95180    0.15170    0.12800    1.000
    C45      C        0.91130    0.11070    0.07050    1.000
    H25      H        0.88390    0.12880    0.02410    1.000
    C46      C        0.91090    0.04310    0.08100    1.000
    H26      H        0.88410    0.01590    0.04170    1.000
    C47      C        0.95050    0.01640    0.15030    1.000
    C48      C        0.98780    0.05630    0.21000    1.000
    H27      H        0.01230    0.03810    0.25750    1.000
    C49      C        0.98820    0.12430    0.19830    1.000
    H28      H        0.01350    0.15150    0.23840    1.000
    C50      C        0.86280    0.91500    0.20370    1.000
    C51      C        0.79430    0.89180    0.15610    1.000
    H29      H        0.79560    0.88300    0.10320    1.000
    C52      C        0.72460    0.88180    0.18650    1.000
    H30      H        0.67800    0.86680    0.15440    1.000
    C53      C        0.72410    0.89410    0.26390    1.000
    C54      C        0.79430    0.91540    0.31160    1.000
    H31      H        0.79400    0.92190    0.36510    1.000
    C55      C        0.86290    0.92670    0.28160    1.000
    H32      H        0.90920    0.94210    0.31350    1.000
    C56      C        0.64830    0.88070    0.29600    1.000
    C57      C        0.02530    0.25990    0.41460    1.000
    C58      C        0.99050    0.20030    0.44740    1.000
    C59      C        0.94850    0.15340    0.39730    1.000
    H33      H        0.94100    0.16040    0.34320    1.000
    C60      C        0.91820    0.09720    0.42610    1.000
    H34      H        0.89040    0.06620    0.39210    1.000
    C61      C        0.92950    0.08780    0.50540    1.000
    C62      C        0.97040    0.13420    0.55640    1.000
    H35      H        0.97710    0.12750    0.61050    1.000
    C63      C        0.00130    0.19060    0.52640    1.000
    H36      H        0.02940    0.22150    0.56030    1.000
    C64      C        0.79590    0.03440    0.55640    1.000
    C65      C        0.73170    0.02460    0.49700    1.000
    H37      H        0.73950    0.00500    0.44990    1.000
    C66      C        0.65570    0.04440    0.50840    1.000
    H38      H        0.61160    0.03880    0.46840    1.000
    C67      C        0.64480    0.07200    0.57770    1.000
    C68      C        0.71060    0.08010    0.63730    1.000
    H39      H        0.70270    0.09830    0.68520    1.000
    C69      C        0.78700    0.06170    0.62660    1.000
    H40      H        0.83130    0.06770    0.66620    1.000
    C70      C        0.56350    0.09490    0.58910    1.000
    C71      C        0.22010    0.30280    0.31990    1.000
    C72      C        0.30230    0.28260    0.30580    1.000
    C73      C        0.36450    0.27350    0.36790    1.000
    H41      H        0.35430    0.27990    0.41900    1.000
    C74      C        0.44050    0.25550    0.35660    1.000
    H42      H        0.48150    0.24870    0.39930    1.000
    C75      C        0.45480    0.24770    0.28130    1.000
    C76      C        0.39400    0.25710    0.21850    1.000
    H43      H        0.40490    0.25210    0.16750    1.000
    C77      C        0.31720    0.27380    0.23010    1.000
    H44      H        0.27580    0.27910    0.18740    1.000
    C78      C        0.53700    0.14400    0.22770    1.000
    C79      C        0.53100    0.13450    0.14900    1.000
    H45      H        0.54050    0.16900    0.11600    1.000
    C80      C        0.51060    0.07270    0.11880    1.000
    H46      H        0.50900    0.06550    0.06510    1.000
    C81      C        0.49260    0.02100    0.16550    1.000
    C82      C        0.50180    0.03020    0.24440    1.000
    H47      H        0.49280    0.99540    0.27720    1.000
    C83      C        0.52470    0.09180    0.27660    1.000
    H48      H        0.53180    0.09790    0.33080    1.000
    C84      C        0.45580    0.95970    0.12790    1.000
    Co3      Co       0.41355    0.14837    0.55860    1.000
    Mn5      Mn       0.53700    0.16767    0.75421    1.000
    Mn6      Mn       0.64409    0.12548    0.94629    1.000
    S7       S        0.45122    0.57074    0.66511    1.000
    S8       S        0.39438    0.48589    0.04117    1.000
    S9       S        0.05233    0.27533    0.76609    1.000
    O37      O        0.15390    0.61130    0.86870    1.000
    O38      O        0.01180    0.39430    0.02900    1.000
    O39      O        0.41280    0.24880    0.55910    1.000
    O40      O        0.51960    0.23690    0.84240    1.000
    O41      O        0.50020    0.24220    0.66810    1.000
    O42      O        0.08740    0.63770    0.75140    1.000
    O43      O        0.93010    0.58450    0.66930    1.000
    O44      O        0.66360    0.19377    0.76220    1.000
    O45      O        0.05010    0.39650    0.15590    1.000
    O46      O        0.71450    0.18490    0.88870    1.000
    O47      O        0.56050    0.19860    0.96290    1.000
    O48      O        0.94230    0.54440    0.55530    1.000
    O49      O        0.44230    0.60190    0.59050    1.000
    O50      O        0.51930    0.58620    0.72410    1.000
    O51      O        0.38660    0.53446    0.98090    1.000
    O52      O        0.44270    0.50020    0.11500    1.000
    O53      O        0.10410    0.27940    0.83990    1.000
    O54      O        0.07380    0.23362    0.70650    1.000
    C85      C        0.45550    0.27450    0.61810    1.000
    C86      C        0.45180    0.34830    0.62800    1.000
    C87      C        0.41130    0.38930    0.57050    1.000
    H49      H        0.38390    0.37120    0.52410    1.000
    C88      C        0.41090    0.45690    0.58100    1.000
    H50      H        0.38410    0.48410    0.54170    1.000
    C89      C        0.45050    0.48360    0.65030    1.000
    C90      C        0.48780    0.44370    0.71000    1.000
    H51      H        0.51230    0.46190    0.75750    1.000
    C91      C        0.48820    0.37570    0.69830    1.000
    H52      H        0.51350    0.34850    0.73840    1.000
    C92      C        0.36280    0.58500    0.70370    1.000
    C93      C        0.29430    0.60820    0.65610    1.000
    H53      H        0.29560    0.61700    0.60320    1.000
    C94      C        0.22460    0.61820    0.68650    1.000
    H54      H        0.17800    0.63320    0.65440    1.000
    C95      C        0.22410    0.60590    0.76390    1.000
    C96      C        0.29430    0.58460    0.81160    1.000
    H55      H        0.29400    0.57810    0.86510    1.000
    C97      C        0.36290    0.57330    0.78160    1.000
    H56      H        0.40920    0.55790    0.81350    1.000
    C98      C        0.14830    0.61930    0.79600    1.000
    C99      C        0.52530    0.24010    0.91460    1.000
    C100     C        0.49050    0.29970    0.94740    1.000
    C101     C        0.44850    0.34660    0.89730    1.000
    H57      H        0.44100    0.33960    0.84320    1.000
    C102     C        0.41820    0.40280    0.92610    1.000
    H58      H        0.39040    0.43380    0.89210    1.000
    C103     C        0.42950    0.41220    0.00540    1.000
    C104     C        0.47040    0.36580    0.05640    1.000
    H59      H        0.47710    0.37250    0.11050    1.000
    C105     C        0.50130    0.30940    0.02640    1.000
    H60      H        0.52940    0.27850    0.06030    1.000
    C106     C        0.29590    0.46560    0.05640    1.000
    C107     C        0.23170    0.47540    0.99700    1.000
    H61      H        0.23950    0.49500    0.94990    1.000
    C108     C        0.15570    0.45560    0.00840    1.000
    H62      H        0.11160    0.46120    0.96840    1.000
    C109     C        0.14480    0.42800    0.07770    1.000
    C110     C        0.21060    0.41990    0.13730    1.000
    H63      H        0.20270    0.40170    0.18520    1.000
    C111     C        0.28700    0.43830    0.12660    1.000
    H64      H        0.33130    0.43230    0.16620    1.000
    C112     C        0.06350    0.40510    0.08910    1.000
    C113     C        0.72010    0.19720    0.81990    1.000
    C114     C        0.80230    0.21740    0.80580    1.000
    C115     C        0.86450    0.22650    0.86790    1.000
    H65      H        0.85430    0.22010    0.91900    1.000
    C116     C        0.94050    0.24450    0.85660    1.000
    H66      H        0.98150    0.25130    0.89930    1.000
    C117     C        0.95480    0.25230    0.78130    1.000
    C118     C        0.89400    0.24290    0.71850    1.000
    H67      H        0.90490    0.24790    0.66750    1.000
    C119     C        0.81720    0.22620    0.73010    1.000
    H68      H        0.77580    0.22090    0.68740    1.000
    C120     C        0.03700    0.35600    0.72770    1.000
    C121     C        0.03100    0.36550    0.64900    1.000
    H69      H        0.04050    0.33100    0.61600    1.000
    C122     C        0.01060    0.42730    0.61880    1.000
    H70      H        0.00900    0.43450    0.56510    1.000
    C123     C        0.99260    0.47900    0.66550    1.000
    C124     C        0.00180    0.46980    0.74440    1.000
    H71      H        0.99280    0.50460    0.77720    1.000
    C125     C        0.02470    0.40820    0.77660    1.000
    H72      H        0.03180    0.40210    0.83080    1.000
    C126     C        0.95580    0.54030    0.62790    1.000
    Co4      Co       0.08645    0.64837    0.94140    1.000
    Mn7      Mn       0.96300    0.66767    0.74579    1.000
    Mn8      Mn       0.85591    0.62548    0.55371    1.000
    S10      S        0.04878    0.07074    0.83489    1.000
    S11      S        0.10562    0.98589    0.45883    1.000
    S12      S        0.44767    0.77533    0.73391    1.000
    O55      O        0.34610    0.11130    0.63130    1.000
    O56      O        0.48820    0.89430    0.47100    1.000
    O57      O        0.08720    0.74880    0.94090    1.000
    O58      O        0.98040    0.73690    0.65760    1.000
    O59      O        0.99980    0.74220    0.83190    1.000
    O60      O        0.41260    0.13770    0.74860    1.000
    O61      O        0.56990    0.08450    0.83070    1.000
    O62      O        0.83640    0.69377    0.73780    1.000
    O63      O        0.44990    0.89650    0.34410    1.000
    O64      O        0.78550    0.68490    0.61130    1.000
    O65      O        0.93950    0.69860    0.53710    1.000
    O66      O        0.55770    0.04440    0.94470    1.000
    O67      O        0.05770    0.10190    0.90950    1.000
    O68      O        0.98070    0.08620    0.77590    1.000
    O69      O        0.11340    0.03446    0.51910    1.000
    O70      O        0.05730    0.00020    0.38500    1.000
    O71      O        0.39590    0.77940    0.66010    1.000
    O72      O        0.42620    0.73362    0.79350    1.000
    C127     C        0.04450    0.77450    0.88190    1.000
    C128     C        0.04820    0.84830    0.87200    1.000
    C129     C        0.08870    0.88930    0.92950    1.000
    H73      H        0.11610    0.87120    0.97590    1.000
    C130     C        0.08910    0.95690    0.91900    1.000
    H74      H        0.11590    0.98410    0.95830    1.000
    C131     C        0.04950    0.98360    0.84970    1.000
    C132     C        0.01220    0.94370    0.79000    1.000
    H75      H        0.98770    0.96190    0.74250    1.000
    C133     C        0.01180    0.87570    0.80170    1.000
    H76      H        0.98650    0.84850    0.76160    1.000
    C134     C        0.13720    0.08500    0.79630    1.000
    C135     C        0.20570    0.10820    0.84390    1.000
    H77      H        0.20440    0.11700    0.89680    1.000
    C136     C        0.27540    0.11820    0.81350    1.000
    H78      H        0.32200    0.13320    0.84560    1.000
    C137     C        0.27590    0.10590    0.73610    1.000
    C138     C        0.20570    0.08460    0.68840    1.000
    H79      H        0.20600    0.07810    0.63490    1.000
    C139     C        0.13710    0.07330    0.71840    1.000
    H80      H        0.09080    0.05790    0.68650    1.000
    C140     C        0.35170    0.11930    0.70400    1.000
    C141     C        0.97470    0.74010    0.58540    1.000
    C142     C        0.00950    0.79970    0.55260    1.000
    C143     C        0.05150    0.84660    0.60270    1.000
    H81      H        0.05900    0.83960    0.65680    1.000
    C144     C        0.08180    0.90280    0.57390    1.000
    H82      H        0.10960    0.93380    0.60790    1.000
    C145     C        0.07050    0.91220    0.49460    1.000
    C146     C        0.02960    0.86580    0.44360    1.000
    H83      H        0.02290    0.87250    0.38950    1.000
    C147     C        0.99870    0.80940    0.47360    1.000
    H84      H        0.97060    0.77850    0.43970    1.000
    C148     C        0.20410    0.96560    0.44360    1.000
    C149     C        0.26830    0.97540    0.50300    1.000
    H85      H        0.26050    0.99500    0.55010    1.000
    C150     C        0.34430    0.95560    0.49160    1.000
    H86      H        0.38840    0.96120    0.53160    1.000
    C151     C        0.35520    0.92800    0.42230    1.000
    C152     C        0.28940    0.91990    0.36270    1.000
    H87      H        0.29730    0.90170    0.31480    1.000
    C153     C        0.21300    0.93830    0.37340    1.000
    H88      H        0.16870    0.93230    0.33380    1.000
    C154     C        0.43650    0.90510    0.41090    1.000
    C155     C        0.77990    0.69720    0.68010    1.000
    C156     C        0.69770    0.71740    0.69420    1.000
    C157     C        0.63550    0.72650    0.63210    1.000
    H89      H        0.64570    0.72010    0.58100    1.000
    C158     C        0.55950    0.74450    0.64340    1.000
    H90      H        0.51850    0.75130    0.60070    1.000
    C159     C        0.54520    0.75230    0.71870    1.000
    C160     C        0.60600    0.74290    0.78150    1.000
    H91      H        0.59510    0.74790    0.83250    1.000
    C161     C        0.68280    0.72620    0.76990    1.000
    H92      H        0.72420    0.72090    0.81260    1.000
    C162     C        0.46300    0.85600    0.77230    1.000
    C163     C        0.46900    0.86550    0.85100    1.000
    H93      H        0.45950    0.83100    0.88400    1.000
    C164     C        0.48940    0.92730    0.88120    1.000
    H94      H        0.49100    0.93450    0.93490    1.000
    C165     C        0.50740    0.97900    0.83450    1.000
    C166     C        0.49820    0.96980    0.75560    1.000
    H95      H        0.50720    0.00460    0.72280    1.000
    C167     C        0.47530    0.90820    0.72340    1.000
    H96      H        0.46820    0.90210    0.66920    1.000
    C168     C        0.54420    0.04030    0.87210    1.000
