# CIF file generated by openbabel 3.1.0, see https://openbabel.org
data_I
_chemical_name_common 'image0'
_cell_length_a 6.3554
_cell_length_b 9.166
_cell_length_c 15.311
_cell_angle_alpha 90.27
_cell_angle_beta 91.338
_cell_angle_gamma 106.594
_space_group_name_H-M_alt 'P 1'
_space_group_name_Hall 'P 1'
loop_
    _symmetry_equiv_pos_as_xyz
    x,y,z
loop_
    _atom_site_label
    _atom_site_type_symbol
    _atom_site_fract_x
    _atom_site_fract_y
    _atom_site_fract_z
    _atom_site_occupancy
    Fe1      Fe       0.76532    0.03711    0.38230    1.000
    Fe2      Fe       0.74731    0.04156    0.12640    1.000
    Fe3      Fe       0.12952    0.68860    0.24959    1.000
    P1       P        0.65506    0.77644    0.27779    1.000
    O1       O        0.82640    0.70610    0.24210    1.000
    O2       O        0.68060    0.80630    0.37748    1.000
    O3       O        0.69280    0.94150    0.24361    1.000
    O4       O        0.43220    0.67110    0.25099    1.000
    O5       O        0.84190    0.24290    0.33639    1.000
    O6       O        0.02240    0.47360    0.25300    1.000
    P2       P        0.82130    0.33615    0.25889    1.000
    O7       O        0.73650    0.25400    0.17670    1.000
    O8       O        0.26900    0.21650    0.23860    1.000
    O9       O        0.61650    0.39660    0.27210    1.000
    H1       H        0.68320    0.49670    0.26120    1.000
    H2       H        0.51180    0.34700    0.24200    1.000
    P3       P        0.97250    0.30350    0.25400    1.000
    O10      O        0.84630    0.23300    0.17160    1.000
    O11      O        0.19700    0.25700    0.26210    1.000
    P4       P        0.33550    0.87470    0.07954    1.000
    O12      O        0.55150    0.83090    0.06830    1.000
    O13      O        0.07180    0.11260    0.17960    1.000
    P5       P        0.19700    0.90660    0.07929    1.000
    O14      O        0.04260    0.99760    0.10830    1.000
    O15      O        0.79590    0.84920    0.07720    1.000
    O16      O        0.42550    0.02010    0.10870    1.000
    O17      O        0.18190    0.86760    0.98800    1.000
    O18      O        0.16400    0.75940    0.13311    1.000
    P6       P        0.22401    0.94976    0.40192    1.000
    O19      O        0.18550    0.79490    0.35630    1.000
    O20      O        0.46140    0.04780    0.39090    1.000
    O21      O        0.07520    0.03870    0.36290    1.000
    O22      O        0.17380    0.91520    0.49774    1.000
    Fe4      Fe       0.23468    0.96289    0.61770    1.000
    Fe5      Fe       0.25269    0.95844    0.87360    1.000
    Fe6      Fe       0.87048    0.31140    0.75041    1.000
    P7       P        0.34494    0.22356    0.72221    1.000
    O23      O        0.17360    0.29390    0.75790    1.000
    O24      O        0.31940    0.19370    0.62252    1.000
    O25      O        0.30720    0.05850    0.75639    1.000
    O26      O        0.56780    0.32890    0.74901    1.000
    O27      O        0.15810    0.75710    0.66361    1.000
    O28      O        0.97760    0.52640    0.74700    1.000
    P8       P        0.17870    0.66385    0.74111    1.000
    O29      O        0.26350    0.74600    0.82330    1.000
    O30      O        0.73100    0.78350    0.76140    1.000
    O31      O        0.38350    0.60340    0.72790    1.000
    H3       H        0.31680    0.50330    0.73880    1.000
    H4       H        0.48820    0.65300    0.75800    1.000
    P9       P        0.02750    0.69650    0.74600    1.000
    O32      O        0.15370    0.76700    0.82840    1.000
    O33      O        0.80300    0.74300    0.73790    1.000
    P10      P        0.66450    0.12530    0.92046    1.000
    O34      O        0.44850    0.16910    0.93170    1.000
    O35      O        0.92820    0.88740    0.82040    1.000
    P11      P        0.80300    0.09340    0.92071    1.000
    O36      O        0.95740    0.00240    0.89170    1.000
    O37      O        0.20410    0.15080    0.92280    1.000
    O38      O        0.57450    0.97990    0.89130    1.000
    O39      O        0.81810    0.13240    0.01200    1.000
    O40      O        0.83600    0.24060    0.86689    1.000
    P12      P        0.77599    0.05024    0.59808    1.000
    O41      O        0.81450    0.20510    0.64370    1.000
    O42      O        0.53860    0.95220    0.60910    1.000
    O43      O        0.92480    0.96130    0.63710    1.000
    O44      O        0.82620    0.08480    0.50226    1.000
