data_functionalizedCrystal
_audit_creation_method	'EQeq! by Chris Wilmer'
_symmetry_space_group_name_H-M	'P1'
_symmetry_Int_Tables_number	1
_symmetry_cell_setting	triclinic
loop_
_symmetry_equiv_pos_as_xyz
  x,y,z
_cell_length_a	7.7158
_cell_length_b	16.218
_cell_length_c	11.266
_cell_angle_alpha	90
_cell_angle_beta	90.72
_cell_angle_gamma	90
loop_
_atom_site_label
_atom_site_type_symbol
_atom_site_fract_x
_atom_site_fract_y
_atom_site_fract_z
_atom_site_charge
Mof_C 	C 	0.6017	0.5508	0.2915	-0.231
Mof_C 	C 	0.5519	0.0729	0.2078	-0.232
Mof_C 	C 	0.7466	0.1374	0.0336	-0.203
Mof_C 	C 	0.9411	0.2161	0.2027	-0.222
Mof_C 	C 	0.752	0.1498	0.3703	-0.244
Mof_C 	C 	0.597	0.2363	0.1993	-0.217
Mof_Co	Co	0.748	0.14366	0.20326	1.162
Mof_N 	N 	0.5102	0.4952	0.2887	-0.148
Mof_N 	N 	0.4334	0.0301	0.2102	-0.151
Mof_N 	N 	0.7473	0.1325	0.9341	-0.145
Mof_N 	N 	0.0568	0.2601	0.2058	-0.148
Mof_N 	N 	0.7532	0.1546	0.4725	-0.158
Mof_N 	N 	0.5049	0.2916	0.2003	-0.153
Mof_Sr	Sr	0.24772	0.40085	0.19784	1.091
Mof_C 	C 	0.8983	0.0508	0.2085	-0.233
Mof_C 	C 	0.9481	0.5729	0.2922	-0.231
Mof_C 	C 	0.7534	0.6374	0.4664	-0.206
Mof_C 	C 	0.5589	0.7161	0.2973	-0.223
Mof_C 	C 	0.748	0.6498	0.1297	-0.244
Mof_C 	C 	0.903	0.7363	0.3007	-0.216
Mof_Co	Co	0.752	0.64366	0.29674	1.162
Mof_N 	N 	0.9898	0.9952	0.2113	-0.146
Mof_N 	N 	0.0666	0.5301	0.2898	-0.153
Mof_N 	N 	0.7527	0.6325	0.5659	-0.142
Mof_N 	N 	0.4432	0.7601	0.2942	-0.147
Mof_N 	N 	0.7468	0.6546	0.0275	-0.158
Mof_N 	N 	0.9951	0.7916	0.2997	-0.152
Mof_Sr	Sr	0.25228	0.90085	0.30216	1.089
Mof_C 	C 	0.3983	0.4492	0.7085	-0.232
Mof_C 	C 	0.4481	0.9271	0.7922	-0.233
Mof_C 	C 	0.2534	0.8626	0.9664	-0.203
Mof_C 	C 	0.0589	0.7839	0.7973	-0.222
Mof_C 	C 	0.248	0.8502	0.6297	-0.244
Mof_C 	C 	0.403	0.7637	0.8007	-0.217
Mof_Co	Co	0.252	0.85634	0.79674	1.162
Mof_N 	N 	0.4898	0.5048	0.7113	-0.148
Mof_N 	N 	0.5666	0.9699	0.7898	-0.151
Mof_N 	N 	0.2527	0.8675	0.0659	-0.145
Mof_N 	N 	0.9432	0.7399	0.7942	-0.148
Mof_N 	N 	0.2468	0.8454	0.5275	-0.158
Mof_N 	N 	0.4951	0.7084	0.7997	-0.153
Mof_Sr	Sr	0.75228	0.59915	0.80216	1.091
Mof_C 	C 	0.1017	0.9492	0.7915	-0.233
Mof_C 	C 	0.0519	0.4271	0.7078	-0.231
Mof_C 	C 	0.2466	0.3626	0.5336	-0.206
Mof_C 	C 	0.4411	0.2839	0.7027	-0.223
Mof_C 	C 	0.252	0.3502	0.8703	-0.244
Mof_C 	C 	0.097	0.2637	0.6993	-0.216
Mof_Co	Co	0.248	0.35634	0.70326	1.162
Mof_N 	N 	0.0102	0.0048	0.7887	-0.146
Mof_N 	N 	0.9334	0.4699	0.7102	-0.153
Mof_N 	N 	0.2473	0.3675	0.4341	-0.142
Mof_N 	N 	0.5568	0.2399	0.7058	-0.147
Mof_N 	N 	0.2532	0.3454	0.9725	-0.158
Mof_N 	N 	0.0049	0.2084	0.7003	-0.152
Mof_Sr	Sr	0.74772	0.09915	0.69784	1.089
_end
