data_functionalizedCrystal
_audit_creation_method	'EQeq! by Chris Wilmer'
_symmetry_space_group_name_H-M	'P1'
_symmetry_Int_Tables_number	1
_symmetry_cell_setting	triclinic
loop_
_symmetry_equiv_pos_as_xyz
  x,y,z
_cell_length_a	5.1186
_cell_length_b	11.3254
_cell_length_c	12.5766
_cell_angle_alpha	92.0293
_cell_angle_beta	101.742
_cell_angle_gamma	79.979
loop_
_atom_site_label
_atom_site_type_symbol
_atom_site_fract_x
_atom_site_fract_y
_atom_site_fract_z
_atom_site_charge
Mof_Cu	Cu	0.05564	0.78349	0.22594	0.908
Mof_Cu	Cu	0.8297	0.28349	0.77406	0.921
Mof_H 	H 	0.8725	0.507	0.6628	0.02
Mof_H 	H 	0.6527	0.622	0.5122	0.079
Mof_H 	H 	0.0925	0.4056	0.4592	0.071
Mof_H 	H 	0.3242	0.2972	0.6118	0.021
Mof_H 	H 	0.3349	0.1078	0.8072	0.032
Mof_H 	H 	0.597	0.9692	0.9324	0.062
Mof_H 	H 	0.0485	0.0565	0.1234	0.065
Mof_H 	H 	0.8103	0.1975	0.997	0.014
Mof_H 	H 	0.2097	0.007	0.3372	0.034
Mof_H 	H 	0.1405	0.122	0.4878	0.074
Mof_H 	H 	0.6333	0.9056	0.5408	0.076
Mof_H 	H 	0.7124	0.7972	0.3882	0.024
Mof_H 	H 	0.5277	0.6078	0.1928	0.027
Mof_H 	H 	0.6646	0.4692	0.0676	0.082
Mof_H 	H 	0.9251	0.5565	0.8766	0.102
Mof_H 	H 	0.8133	0.6975	0.003	-0.001
Mof_C 	C 	0.71173	0.4868	0.62126	0.058
Mof_C 	C 	0.58242	0.5559	0.53064	-0.08
Mof_C 	C 	0.34821	0.5259	0.46802	-0.003
Mof_C 	C 	0.25182	0.4279	0.49984	-0.081
Mof_C 	C 	0.39057	0.3635	0.59134	0.05
Mof_C 	C 	0.19437	0.5981	0.36834	0.263
Mof_C 	C 	0.278	0.0981	0.8724	0.033
Mof_C 	C 	0.43535	0.0141	0.9467	-0.042
Mof_C 	C 	0.35199	0.9966	0.04298	-0.048
Mof_C 	C 	0.11261	0.0663	0.05982	-0.083
Mof_C 	C 	0.96966	0.1497	0.98332	0.081
Mof_C 	C 	0.51685	0.9084	0.1279	0.329
Mof_C 	C 	0.09047	0.9868	0.37874	0.016
Mof_C 	C 	0.05178	0.0559	0.46936	-0.079
Mof_C 	C 	0.88019	0.0259	0.53198	0.01
Mof_C 	C 	0.75198	0.9279	0.50016	-0.082
Mof_C 	C 	0.79923	0.8635	0.40866	0.054
Mof_C 	C 	0.82603	0.0981	0.63166	0.287
Mof_C 	C 	0.4056	0.5981	0.1276	0.056
Mof_C 	C 	0.48865	0.5141	0.0533	-0.086
Mof_C 	C 	0.30901	0.4966	0.95702	-0.004
Mof_C 	C 	0.05279	0.5663	0.94018	-0.152
Mof_C 	C 	0.98634	0.6497	0.01668	0.123
Mof_C 	C 	0.38895	0.4084	0.8721	0.314
Mof_N 	N 	0.62033	0.3935	0.65246	-0.2
Mof_N 	N 	0.04867	0.1661	0.88914	-0.21
Mof_N 	N 	0.96787	0.8935	0.34754	-0.182
Mof_N 	N 	0.15953	0.6661	0.11086	-0.223
Mof_O 	O 	0.30285	0.6831	0.3435	-0.36
Mof_O 	O 	0.97605	0.5723	0.3201	-0.26
Mof_O 	O 	0.76296	0.8739	0.11832	-0.378
Mof_O 	O 	0.40967	0.8763	0.19954	-0.357
Mof_O 	O 	0.95935	0.1831	0.6565	-0.354
Mof_O 	O 	0.65595	0.0723	0.6799	-0.281
Mof_O 	O 	0.64464	0.3739	0.88168	-0.382
Mof_O 	O 	0.21013	0.3763	0.80046	-0.358
_end
