# CIF file generated by openbabel 3.1.0, see https://openbabel.org
data_I
_chemical_name_common 'image0'
_cell_length_a 24.591
_cell_length_b 13.804
_cell_length_c 14.752
_cell_angle_alpha 90
_cell_angle_beta 97.135
_cell_angle_gamma 90
_space_group_name_H-M_alt 'P 1'
_space_group_name_Hall 'P 1'
loop_
    _symmetry_equiv_pos_as_xyz
    x,y,z
loop_
    _atom_site_label
    _atom_site_type_symbol
    _atom_site_fract_x
    _atom_site_fract_y
    _atom_site_fract_z
    _atom_site_occupancy
    Ce1      Ce       0.16906    0.21131    0.47052    1.000
    O1       O        0.08331    0.19207    0.54770    1.000
    O2       O        0.09818    0.33939    0.50276    1.000
    O3       O        0.27416    0.14510    0.54327    1.000
    O4       O        0.19978    0.06529    0.56730    1.000
    O5       O        0.22329    0.14813    0.34954    1.000
    O6       O        0.19820    0.27110    0.62413    1.000
    C1       C        0.24966    0.42460    0.42165    1.000
    C2       C        0.21510    0.49800    0.36530    1.000
    C3       C        0.16221    0.51850    0.38220    1.000
    C4       C        0.23778    0.54840    0.29690    1.000
    C5       C        0.13181    0.59110    0.33360    1.000
    H1       H        0.14680    0.48350    0.42650    1.000
    C6       C        0.20689    0.61600    0.24430    1.000
    H2       H        0.27380    0.53640    0.28690    1.000
    C7       C        0.07719    0.62250    0.35870    1.000
    C8       C        0.15436    0.63760    0.26360    1.000
    C9       C        0.22888    0.66880    0.16650    1.000
    C10      C        0.04164    0.55740    0.39110    1.000
    C11      C        0.06245    0.71900    0.35450    1.000
    H3       H        0.13390    0.68430    0.22900    1.000
    H4       H        0.05020    0.49180    0.39350    1.000
    C12      C        0.99300    0.58930    0.42020    1.000
    H5       H        0.08560    0.76380    0.33200    1.000
    C13      C        0.01392    0.75040    0.38310    1.000
    C14      C        0.97938    0.68580    0.41830    1.000
    H6       H        0.96930    0.54450    0.44120    1.000
    H7       H        0.00460    0.81560    0.37850    1.000
    C15      C        0.92922    0.71930    0.45780    1.000
    Ce2      Ce       0.66906    0.71131    0.47052    1.000
    O7       O        0.58331    0.69207    0.54770    1.000
    O8       O        0.59818    0.83939    0.50276    1.000
    O9       O        0.77416    0.64510    0.54327    1.000
    O10      O        0.69978    0.56529    0.56730    1.000
    O11      O        0.72329    0.64813    0.34954    1.000
    O12      O        0.69820    0.77110    0.62413    1.000
    C16      C        0.74966    0.92460    0.42165    1.000
    C17      C        0.71510    0.99800    0.36530    1.000
    C18      C        0.66221    0.01850    0.38220    1.000
    C19      C        0.73778    0.04840    0.29690    1.000
    C20      C        0.63181    0.09110    0.33360    1.000
    H8       H        0.64680    0.98350    0.42650    1.000
    C21      C        0.70689    0.11600    0.24430    1.000
    H9       H        0.77380    0.03640    0.28690    1.000
    C22      C        0.57719    0.12250    0.35870    1.000
    C23      C        0.65436    0.13760    0.26360    1.000
    C24      C        0.72888    0.16880    0.16650    1.000
    C25      C        0.54164    0.05740    0.39110    1.000
    C26      C        0.56245    0.21900    0.35450    1.000
    H10      H        0.63390    0.18430    0.22900    1.000
    H11      H        0.55020    0.99180    0.39350    1.000
    C27      C        0.49300    0.08930    0.42020    1.000
    H12      H        0.58560    0.26380    0.33200    1.000
    C28      C        0.51392    0.25040    0.38310    1.000
    C29      C        0.47938    0.18580    0.41830    1.000
    H13      H        0.46930    0.04450    0.44120    1.000
    H14      H        0.50460    0.31560    0.37850    1.000
    C30      C        0.42922    0.21930    0.45780    1.000
    Ce3      Ce       0.83094    0.21131    0.02948    1.000
    O13      O        0.91669    0.19207    0.95230    1.000
    O14      O        0.90182    0.33939    0.99724    1.000
    O15      O        0.72584    0.14510    0.95673    1.000
    O16      O        0.80022    0.06529    0.93270    1.000
    O17      O        0.77671    0.14813    0.15046    1.000
    O18      O        0.80180    0.27110    0.87587    1.000
    C31      C        0.75034    0.42460    0.07835    1.000
    C32      C        0.78490    0.49800    0.13470    1.000
    C33      C        0.83779    0.51850    0.11780    1.000
    C34      C        0.76222    0.54840    0.20310    1.000
    C35      C        0.86819    0.59110    0.16640    1.000
    H15      H        0.85320    0.48350    0.07350    1.000
    C36      C        0.79311    0.61600    0.25570    1.000
    H16      H        0.72620    0.53640    0.21310    1.000
    C37      C        0.92281    0.62250    0.14130    1.000
    C38      C        0.84564    0.63760    0.23640    1.000
    C39      C        0.77112    0.66880    0.33350    1.000
    C40      C        0.95836    0.55740    0.10890    1.000
    C41      C        0.93755    0.71900    0.14550    1.000
    H17      H        0.86610    0.68430    0.27100    1.000
    H18      H        0.94980    0.49180    0.10650    1.000
    C42      C        0.00700    0.58930    0.07980    1.000
    H19      H        0.91440    0.76380    0.16800    1.000
    C43      C        0.98608    0.75040    0.11690    1.000
    C44      C        0.02062    0.68580    0.08170    1.000
    H20      H        0.03070    0.54450    0.05880    1.000
    H21      H        0.99540    0.81560    0.12150    1.000
    C45      C        0.07078    0.71930    0.04220    1.000
    Ce4      Ce       0.33094    0.71131    0.02948    1.000
    O19      O        0.41669    0.69207    0.95230    1.000
    O20      O        0.40182    0.83939    0.99724    1.000
    O21      O        0.22584    0.64510    0.95673    1.000
    O22      O        0.30022    0.56529    0.93270    1.000
    O23      O        0.27671    0.64813    0.15046    1.000
    O24      O        0.30180    0.77110    0.87587    1.000
    C46      C        0.25034    0.92460    0.07835    1.000
    C47      C        0.28490    0.99800    0.13470    1.000
    C48      C        0.33779    0.01850    0.11780    1.000
    C49      C        0.26222    0.04840    0.20310    1.000
    C50      C        0.36819    0.09110    0.16640    1.000
    H22      H        0.35320    0.98350    0.07350    1.000
    C51      C        0.29311    0.11600    0.25570    1.000
    H23      H        0.22620    0.03640    0.21310    1.000
    C52      C        0.42281    0.12250    0.14130    1.000
    C53      C        0.34564    0.13760    0.23640    1.000
    C54      C        0.27112    0.16880    0.33350    1.000
    C55      C        0.45836    0.05740    0.10890    1.000
    C56      C        0.43755    0.21900    0.14550    1.000
    H24      H        0.36610    0.18430    0.27100    1.000
    H25      H        0.44980    0.99180    0.10650    1.000
    C57      C        0.50700    0.08930    0.07980    1.000
    H26      H        0.41440    0.26380    0.16800    1.000
    C58      C        0.48608    0.25040    0.11690    1.000
    C59      C        0.52062    0.18580    0.08170    1.000
    H27      H        0.53070    0.04450    0.05880    1.000
    H28      H        0.49540    0.31560    0.12150    1.000
    C60      C        0.57078    0.21930    0.04220    1.000
    Ce5      Ce       0.83094    0.78869    0.52948    1.000
    O25      O        0.91669    0.80793    0.45230    1.000
    O26      O        0.90182    0.66061    0.49724    1.000
    O27      O        0.72584    0.85490    0.45673    1.000
    O28      O        0.80022    0.93471    0.43270    1.000
    O29      O        0.77671    0.85187    0.65046    1.000
    O30      O        0.80180    0.72890    0.37587    1.000
    C61      C        0.75034    0.57540    0.57835    1.000
    C62      C        0.78490    0.50200    0.63470    1.000
    C63      C        0.83779    0.48150    0.61780    1.000
    C64      C        0.76222    0.45160    0.70310    1.000
    C65      C        0.86819    0.40890    0.66640    1.000
    H29      H        0.85320    0.51650    0.57350    1.000
    C66      C        0.79311    0.38400    0.75570    1.000
    H30      H        0.72620    0.46360    0.71310    1.000
    C67      C        0.92281    0.37750    0.64130    1.000
    C68      C        0.84564    0.36240    0.73640    1.000
    C69      C        0.77112    0.33120    0.83350    1.000
    C70      C        0.95836    0.44260    0.60890    1.000
    C71      C        0.93755    0.28100    0.64550    1.000
    H31      H        0.86610    0.31570    0.77100    1.000
    H32      H        0.94980    0.50820    0.60650    1.000
    C72      C        0.00700    0.41070    0.57980    1.000
    H33      H        0.91440    0.23620    0.66800    1.000
    C73      C        0.98608    0.24960    0.61690    1.000
    C74      C        0.02062    0.31420    0.58170    1.000
    H34      H        0.03070    0.45550    0.55880    1.000
    H35      H        0.99540    0.18440    0.62150    1.000
    C75      C        0.07078    0.28070    0.54220    1.000
    Ce6      Ce       0.33094    0.28869    0.52948    1.000
    O31      O        0.41669    0.30793    0.45230    1.000
    O32      O        0.40182    0.16061    0.49724    1.000
    O33      O        0.22584    0.35490    0.45673    1.000
    O34      O        0.30022    0.43471    0.43270    1.000
    O35      O        0.27671    0.35187    0.65046    1.000
    O36      O        0.30180    0.22890    0.37587    1.000
    C76      C        0.25034    0.07540    0.57835    1.000
    C77      C        0.28490    0.00200    0.63470    1.000
    C78      C        0.33779    0.98150    0.61780    1.000
    C79      C        0.26222    0.95160    0.70310    1.000
    C80      C        0.36819    0.90890    0.66640    1.000
    H36      H        0.35320    0.01650    0.57350    1.000
    C81      C        0.29311    0.88400    0.75570    1.000
    H37      H        0.22620    0.96360    0.71310    1.000
    C82      C        0.42281    0.87750    0.64130    1.000
    C83      C        0.34564    0.86240    0.73640    1.000
    C84      C        0.27112    0.83120    0.83350    1.000
    C85      C        0.45836    0.94260    0.60890    1.000
    C86      C        0.43755    0.78100    0.64550    1.000
    H38      H        0.36610    0.81570    0.77100    1.000
    H39      H        0.44980    0.00820    0.60650    1.000
    C87      C        0.50700    0.91070    0.57980    1.000
    H40      H        0.41440    0.73620    0.66800    1.000
    C88      C        0.48608    0.74960    0.61690    1.000
    C89      C        0.52062    0.81420    0.58170    1.000
    H41      H        0.53070    0.95550    0.55880    1.000
    H42      H        0.49540    0.68440    0.62150    1.000
    C90      C        0.57078    0.78070    0.54220    1.000
    Ce7      Ce       0.16906    0.78869    0.97052    1.000
    O37      O        0.08331    0.80793    0.04770    1.000
    O38      O        0.09818    0.66061    0.00276    1.000
    O39      O        0.27416    0.85490    0.04327    1.000
    O40      O        0.19978    0.93471    0.06730    1.000
    O41      O        0.22329    0.85187    0.84954    1.000
    O42      O        0.19820    0.72890    0.12413    1.000
    C91      C        0.24966    0.57540    0.92165    1.000
    C92      C        0.21510    0.50200    0.86530    1.000
    C93      C        0.16221    0.48150    0.88220    1.000
    C94      C        0.23778    0.45160    0.79690    1.000
    C95      C        0.13181    0.40890    0.83360    1.000
    H43      H        0.14680    0.51650    0.92650    1.000
    C96      C        0.20689    0.38400    0.74430    1.000
    H44      H        0.27380    0.46360    0.78690    1.000
    C97      C        0.07719    0.37750    0.85870    1.000
    C98      C        0.15436    0.36240    0.76360    1.000
    C99      C        0.22888    0.33120    0.66650    1.000
    C100     C        0.04164    0.44260    0.89110    1.000
    C101     C        0.06245    0.28100    0.85450    1.000
    H45      H        0.13390    0.31570    0.72900    1.000
    H46      H        0.05020    0.50820    0.89350    1.000
    C102     C        0.99300    0.41070    0.92020    1.000
    H47      H        0.08560    0.23620    0.83200    1.000
    C103     C        0.01392    0.24960    0.88310    1.000
    C104     C        0.97938    0.31420    0.91830    1.000
    H48      H        0.96930    0.45550    0.94120    1.000
    H49      H        0.00460    0.18440    0.87850    1.000
    C105     C        0.92922    0.28070    0.95780    1.000
    Ce8      Ce       0.66906    0.28869    0.97052    1.000
    O43      O        0.58331    0.30793    0.04770    1.000
    O44      O        0.59818    0.16061    0.00276    1.000
    O45      O        0.77416    0.35490    0.04327    1.000
    O46      O        0.69978    0.43471    0.06730    1.000
    O47      O        0.72329    0.35187    0.84954    1.000
    O48      O        0.69820    0.22890    0.12413    1.000
    C106     C        0.74966    0.07540    0.92165    1.000
    C107     C        0.71510    0.00200    0.86530    1.000
    C108     C        0.66221    0.98150    0.88220    1.000
    C109     C        0.73778    0.95160    0.79690    1.000
    C110     C        0.63181    0.90890    0.83360    1.000
    H50      H        0.64680    0.01650    0.92650    1.000
    C111     C        0.70689    0.88400    0.74430    1.000
    H51      H        0.77380    0.96360    0.78690    1.000
    C112     C        0.57719    0.87750    0.85870    1.000
    C113     C        0.65436    0.86240    0.76360    1.000
    C114     C        0.72888    0.83120    0.66650    1.000
    C115     C        0.54164    0.94260    0.89110    1.000
    C116     C        0.56245    0.78100    0.85450    1.000
    H52      H        0.63390    0.81570    0.72900    1.000
    H53      H        0.55020    0.00820    0.89350    1.000
    C117     C        0.49300    0.91070    0.92020    1.000
    H54      H        0.58560    0.73620    0.83200    1.000
    C118     C        0.51392    0.74960    0.88310    1.000
    C119     C        0.47938    0.81420    0.91830    1.000
    H55      H        0.46930    0.95550    0.94120    1.000
    H56      H        0.50460    0.68440    0.87850    1.000
    C120     C        0.42922    0.78070    0.95780    1.000
