data_functionalizedCrystal
_audit_creation_method	'EQeq! by Chris Wilmer'
_symmetry_space_group_name_H-M	'P1'
_symmetry_Int_Tables_number	1
_symmetry_cell_setting	triclinic
loop_
_symmetry_equiv_pos_as_xyz
  x,y,z
_cell_length_a	10.2776
_cell_length_b	18.339
_cell_length_c	22.788
_cell_angle_alpha	90
_cell_angle_beta	90
_cell_angle_gamma	90
loop_
_atom_site_label
_atom_site_type_symbol
_atom_site_fract_x
_atom_site_fract_y
_atom_site_fract_z
_atom_site_charge
Mof_U 	U 	0.95532	0.74066	0.97453	0.076
Mof_U 	U 	0.12499	0.53169	0.11667	0.057
Mof_U 	U 	0.75685	0.74037	0.74596	0.06
Mof_S 	S 	0.1487	0.7323	0.1055	0.627
Mof_S 	S 	0.2413	0.6147	0.9794	0.621
Mof_S 	S 	0.9895	0.6442	0.8365	0.643
Mof_O 	O 	0.091	0.6629	0.1141	-0.189
Mof_O 	O 	0.0779	0.7742	0.059	-0.166
Mof_O 	O 	0.2822	0.7181	0.0865	-0.173
Mof_O 	O 	0.9422	0.6558	0.897	-0.163
Mof_O 	O 	0.998	0.5724	0.1966	-0.142
Mof_O 	O 	0.8784	0.6448	0.7949	-0.164
Mof_O 	O 	0.1469	0.7727	0.161	-0.173
Mof_O 	O 	0.2385	0.5689	0.9258	-0.165
Mof_O 	O 	0.0559	0.5739	0.8315	-0.187
Mof_O 	O 	0.0837	0.7041	0.8214	-0.18
Mof_O 	O 	0.133	0.6683	0.9793	-0.177
Mof_O 	O 	0.359	0.6585	0.9778	-0.165
Mof_O 	O 	0.239	0.5728	0.0322	-0.181
Mof_O 	O 	0.89	0.6617	0.252	-0.161
Mof_U 	U 	0.45532	0.24066	0.97453	0.062
Mof_U 	U 	0.62499	0.03169	0.11667	0.064
Mof_U 	U 	0.25685	0.24037	0.74596	0.052
Mof_S 	S 	0.6487	0.2323	0.1055	0.622
Mof_S 	S 	0.7413	0.1147	0.9794	0.618
Mof_S 	S 	0.4895	0.1442	0.8365	0.583
Mof_O 	O 	0.591	0.1629	0.1141	-0.18
Mof_O 	O 	0.5779	0.2742	0.059	-0.154
Mof_O 	O 	0.7822	0.2181	0.0865	-0.169
Mof_O 	O 	0.4422	0.1558	0.897	-0.162
Mof_O 	O 	0.498	0.0724	0.1966	-0.182
Mof_O 	O 	0.3784	0.1448	0.7949	-0.161
Mof_O 	O 	0.6469	0.2727	0.161	-0.165
Mof_O 	O 	0.7385	0.0689	0.9258	-0.16
Mof_O 	O 	0.5559	0.0739	0.8315	-0.157
Mof_O 	O 	0.5837	0.2041	0.8214	-0.152
Mof_O 	O 	0.633	0.1683	0.9793	-0.167
Mof_O 	O 	0.859	0.1585	0.9778	-0.157
Mof_O 	O 	0.739	0.0728	0.0322	-0.177
Mof_O 	O 	0.39	0.1617	0.252	-0.192
Mof_U 	U 	0.04468	0.25934	0.47453	0.049
Mof_U 	U 	0.87501	0.46831	0.61667	0.068
Mof_U 	U 	0.24315	0.25963	0.24596	0.054
Mof_S 	S 	0.8513	0.2677	0.6055	0.62
Mof_S 	S 	0.7587	0.3853	0.4794	0.619
Mof_S 	S 	0.0105	0.3558	0.3365	0.522
Mof_O 	O 	0.909	0.3371	0.6141	-0.171
Mof_O 	O 	0.9221	0.2258	0.559	-0.142
Mof_O 	O 	0.7178	0.2819	0.5865	-0.171
Mof_O 	O 	0.0578	0.3442	0.397	-0.158
Mof_O 	O 	0.002	0.4276	0.6966	-0.183
Mof_O 	O 	0.1216	0.3552	0.2949	-0.153
Mof_O 	O 	0.8531	0.2273	0.661	-0.16
Mof_O 	O 	0.7615	0.4311	0.4258	-0.161
Mof_O 	O 	0.9441	0.4261	0.3315	-0.129
Mof_O 	O 	0.9163	0.2959	0.3214	-0.125
Mof_O 	O 	0.867	0.3317	0.4793	-0.159
Mof_O 	O 	0.641	0.3415	0.4778	-0.164
Mof_O 	O 	0.761	0.4272	0.5322	-0.178
Mof_O 	O 	0.11	0.3383	0.752	-0.182
Mof_U 	U 	0.54468	0.75934	0.47453	0.062
Mof_U 	U 	0.37501	0.96831	0.61667	0.062
Mof_U 	U 	0.74315	0.75963	0.24596	0.058
Mof_S 	S 	0.3513	0.7677	0.6055	0.623
Mof_S 	S 	0.2587	0.8853	0.4794	0.622
Mof_S 	S 	0.5105	0.8558	0.3365	0.583
Mof_O 	O 	0.409	0.8371	0.6141	-0.18
Mof_O 	O 	0.4221	0.7258	0.559	-0.155
Mof_O 	O 	0.2178	0.7819	0.5865	-0.175
Mof_O 	O 	0.5578	0.8442	0.397	-0.159
Mof_O 	O 	0.502	0.9276	0.6966	-0.18
Mof_O 	O 	0.6216	0.8552	0.2949	-0.157
Mof_O 	O 	0.3531	0.7273	0.661	-0.167
Mof_O 	O 	0.2615	0.9311	0.4258	-0.167
Mof_O 	O 	0.4441	0.9261	0.3315	-0.158
Mof_O 	O 	0.4163	0.7959	0.3214	-0.155
Mof_O 	O 	0.367	0.8317	0.4793	-0.169
Mof_O 	O 	0.141	0.8415	0.4778	-0.172
Mof_O 	O 	0.261	0.9272	0.5322	-0.182
Mof_O 	O 	0.61	0.8383	0.752	-0.188
Mof_U 	U 	0.04468	0.74066	0.52547	0.049
Mof_U 	U 	0.87501	0.53169	0.38333	0.068
Mof_U 	U 	0.24315	0.74037	0.75404	0.054
Mof_S 	S 	0.8513	0.7323	0.3945	0.62
Mof_S 	S 	0.7587	0.6147	0.5206	0.619
Mof_S 	S 	0.0105	0.6442	0.6635	0.522
Mof_O 	O 	0.909	0.6629	0.3859	-0.171
Mof_O 	O 	0.9221	0.7742	0.441	-0.142
Mof_O 	O 	0.7178	0.7181	0.4135	-0.171
Mof_O 	O 	0.0578	0.6558	0.603	-0.158
Mof_O 	O 	0.002	0.5724	0.3034	-0.183
Mof_O 	O 	0.1216	0.6448	0.7051	-0.153
Mof_O 	O 	0.8531	0.7727	0.339	-0.16
Mof_O 	O 	0.7615	0.5689	0.5742	-0.161
Mof_O 	O 	0.9441	0.5739	0.6685	-0.129
Mof_O 	O 	0.9163	0.7041	0.6786	-0.125
Mof_O 	O 	0.867	0.6683	0.5207	-0.159
Mof_O 	O 	0.641	0.6585	0.5222	-0.164
Mof_O 	O 	0.761	0.5728	0.4678	-0.178
Mof_O 	O 	0.11	0.6617	0.248	-0.182
Mof_U 	U 	0.54468	0.24066	0.52547	0.062
Mof_U 	U 	0.37501	0.03169	0.38333	0.062
Mof_U 	U 	0.74315	0.24037	0.75404	0.058
Mof_S 	S 	0.3513	0.2323	0.3945	0.623
Mof_S 	S 	0.2587	0.1147	0.5206	0.622
Mof_S 	S 	0.5105	0.1442	0.6635	0.583
Mof_O 	O 	0.409	0.1629	0.3859	-0.18
Mof_O 	O 	0.4221	0.2742	0.441	-0.155
Mof_O 	O 	0.2178	0.2181	0.4135	-0.175
Mof_O 	O 	0.5578	0.1558	0.603	-0.159
Mof_O 	O 	0.502	0.0724	0.3034	-0.18
Mof_O 	O 	0.6216	0.1448	0.7051	-0.157
Mof_O 	O 	0.3531	0.2727	0.339	-0.167
Mof_O 	O 	0.2615	0.0689	0.5742	-0.167
Mof_O 	O 	0.4441	0.0739	0.6685	-0.158
Mof_O 	O 	0.4163	0.2041	0.6786	-0.155
Mof_O 	O 	0.367	0.1683	0.5207	-0.169
Mof_O 	O 	0.141	0.1585	0.5222	-0.172
Mof_O 	O 	0.261	0.0728	0.4678	-0.182
Mof_O 	O 	0.61	0.1617	0.248	-0.188
Mof_U 	U 	0.95532	0.25934	0.02547	0.075
Mof_U 	U 	0.12499	0.46831	0.88333	0.056
Mof_U 	U 	0.75685	0.25963	0.25404	0.059
Mof_S 	S 	0.1487	0.2677	0.8945	0.626
Mof_S 	S 	0.2413	0.3853	0.0206	0.621
Mof_S 	S 	0.9895	0.3558	0.1635	0.643
Mof_O 	O 	0.091	0.3371	0.8859	-0.189
Mof_O 	O 	0.0779	0.2258	0.941	-0.166
Mof_O 	O 	0.2822	0.2819	0.9135	-0.173
Mof_O 	O 	0.9422	0.3442	0.103	-0.163
Mof_O 	O 	0.998	0.4276	0.8034	-0.142
Mof_O 	O 	0.8784	0.3552	0.2051	-0.164
Mof_O 	O 	0.1469	0.2273	0.839	-0.173
Mof_O 	O 	0.2385	0.4311	0.0742	-0.165
Mof_O 	O 	0.0559	0.4261	0.1685	-0.187
Mof_O 	O 	0.0837	0.2959	0.1786	-0.18
Mof_O 	O 	0.133	0.3317	0.0207	-0.177
Mof_O 	O 	0.359	0.3415	0.0222	-0.165
Mof_O 	O 	0.239	0.4272	0.9678	-0.181
Mof_O 	O 	0.89	0.3383	0.748	-0.161
Mof_U 	U 	0.45532	0.75934	0.02547	0.062
Mof_U 	U 	0.62499	0.96831	0.88333	0.064
Mof_U 	U 	0.25685	0.75963	0.25404	0.052
Mof_S 	S 	0.6487	0.7677	0.8945	0.622
Mof_S 	S 	0.7413	0.8853	0.0206	0.618
Mof_S 	S 	0.4895	0.8558	0.1635	0.583
Mof_O 	O 	0.591	0.8371	0.8859	-0.18
Mof_O 	O 	0.5779	0.7258	0.941	-0.154
Mof_O 	O 	0.7822	0.7819	0.9135	-0.169
Mof_O 	O 	0.4422	0.8442	0.103	-0.162
Mof_O 	O 	0.498	0.9276	0.8034	-0.182
Mof_O 	O 	0.3784	0.8552	0.2051	-0.161
Mof_O 	O 	0.6469	0.7273	0.839	-0.165
Mof_O 	O 	0.7385	0.9311	0.0742	-0.16
Mof_O 	O 	0.5559	0.9261	0.1685	-0.157
Mof_O 	O 	0.5837	0.7959	0.1786	-0.152
Mof_O 	O 	0.633	0.8317	0.0207	-0.167
Mof_O 	O 	0.859	0.8415	0.0222	-0.157
Mof_O 	O 	0.739	0.9272	0.9678	-0.177
Mof_O 	O 	0.39	0.8383	0.748	-0.192
Mof_S 	S 	1.38329e-32	0.6147	0.25	0.613
Mof_S 	S 	0.5	0.1147	0.25	0.683
Mof_S 	S 	6.23501e-33	0.3853	0.75	0.613
Mof_S 	S 	0.5	0.8853	0.75	0.683
_end
