data_functionalizedCrystal
_audit_creation_method	'EQeq! by Chris Wilmer'
_symmetry_space_group_name_H-M	'P1'
_symmetry_Int_Tables_number	1
_symmetry_cell_setting	triclinic
loop_
_symmetry_equiv_pos_as_xyz
  x,y,z
_cell_length_a	6.869
_cell_length_b	21.698
_cell_length_c	21.698
_cell_angle_alpha	120
_cell_angle_beta	90
_cell_angle_gamma	90
loop_
_atom_site_label
_atom_site_type_symbol
_atom_site_fract_x
_atom_site_fract_y
_atom_site_fract_z
_atom_site_charge
Mof_Zn	Zn	0.49126	0.60639	0.27947	1.213
Mof_Zn	Zn	0.84207	0.39361	0.67308	1.213
Mof_Zn	Zn	0.1754	0.27947	0.60639	1.214
Mof_Zn	Zn	0.50874	0.32692	0.72053	1.214
Mof_Zn	Zn	0.15793	0.72053	0.32692	1.214
Mof_Zn	Zn	0.8246	0.67308	0.39361	1.214
Mof_H 	H 	0.79287	0.5112	0.393	0.112
Mof_H 	H 	0.0119	0.4462	0.4529	0.009
Mof_H 	H 	0.8738	0.393	0.5112	0.109
Mof_H 	H 	0.54047	0.4888	0.8818	0.112
Mof_H 	H 	0.20713	0.1182	0.607	0.112
Mof_H 	H 	0.65477	0.4529	0.4462	0.007
Mof_H 	H 	0.13603	0.5428	0.453	0.017
Mof_H 	H 	0.46937	0.9102	0.4572	0.017
Mof_H 	H 	0.34523	0.0067	0.5538	0.007
Mof_H 	H 	0.32143	0.5538	0.0067	0.007
Mof_H 	H 	0.9881	0.9933	0.5471	0.009
Mof_H 	H 	0.67857	0.5471	0.9933	0.007
Mof_H 	H 	0.1262	0.8818	0.4888	0.109
Mof_H 	H 	0.8027	0.547	0.0898	0.016
Mof_H 	H 	0.53063	0.453	0.5428	0.017
Mof_H 	H 	0.1973	0.4572	0.9102	0.016
Mof_H 	H 	0.45953	0.607	0.1182	0.112
Mof_H 	H 	0.86397	0.0898	0.547	0.017
Mof_C 	C 	0.21203	0.6138	0.1744	0.276
Mof_C 	C 	0.37713	0.4906	0.4551	-0.051
Mof_C 	C 	0.73047	0.0958	0.5602	0.069
Mof_C 	C 	0.0438	0.5449	0.0355	-0.051
Mof_C 	C 	0.34223	0.1132	0.5962	-0.237
Mof_C 	C 	0.45463	0.1744	0.6138	0.276
Mof_C 	C 	0.45193	0.395	0.6179	0.439
Mof_C 	C 	0.62287	0.0355	0.5449	-0.051
Mof_C 	C 	0.34763	0.5709	0.406	-0.276
Mof_C 	C 	0.31903	0.406	0.5709	-0.275
Mof_C 	C 	0.60287	0.9042	0.4644	0.067
Mof_C 	C 	0.1213	0.3862	0.5606	0.274
Mof_C 	C 	0.54807	0.7771	0.3821	0.439
Mof_C 	C 	0.24223	0.5638	0.0465	0.054
Mof_C 	C 	0.28953	0.4551	0.4906	-0.049
Mof_C 	C 	0.67557	0.483	0.8868	-0.238
Mof_C 	C 	0.9089	0.9535	0.5173	0.051
Mof_C 	C 	0.0911	0.4362	0.4827	0.051
Mof_C 	C 	0.8814	0.605	0.2229	0.44
Mof_C 	C 	0.26953	0.5356	0.4398	0.069
Mof_C 	C 	0.57557	0.4827	0.4362	0.054
Mof_C 	C 	0.78797	0.4394	0.8256	0.277
Mof_C 	C 	0.65237	0.1649	0.594	-0.276
Mof_C 	C 	0.68097	0.8351	0.4291	-0.275
Mof_C 	C 	0.8787	0.8256	0.4394	0.274
Mof_C 	C 	0.75777	0.5173	0.9535	0.054
Mof_C 	C 	0.0638	0.4644	0.9042	0.07
Mof_C 	C 	0.39713	0.4398	0.5356	0.067
Mof_C 	C 	0.65777	0.517	0.4038	-0.237
Mof_C 	C 	0.54537	0.5606	0.3862	0.276
Mof_C 	C 	0.21473	0.6179	0.395	0.44
Mof_C 	C 	0.9911	0.8868	0.483	-0.232
Mof_C 	C 	0.0089	0.4038	0.517	-0.232
Mof_C 	C 	0.42443	0.0465	0.5638	0.054
Mof_C 	C 	0.9857	0.4291	0.8351	-0.278
Mof_C 	C 	0.32443	0.5962	0.1132	-0.238
Mof_C 	C 	0.78527	0.2229	0.605	0.44
Mof_C 	C 	0.9562	0.5094	0.9645	-0.052
Mof_C 	C 	0.1186	0.3821	0.7771	0.441
Mof_C 	C 	0.0143	0.594	0.1649	-0.277
Mof_C 	C 	0.71047	0.9645	0.5094	-0.049
Mof_C 	C 	0.9362	0.5602	0.0958	0.07
Mof_O 	O 	0.72207	0.28621	0.63628	-0.573
Mof_O 	O 	0.36433	0.23825	0.649	-0.571
Mof_O 	O 	0.6262	0.41793	0.62531	-0.48
Mof_O 	O 	0.61127	0.71379	0.35007	-0.573
Mof_O 	O 	0.9446	0.63628	0.28621	-0.573
Mof_O 	O 	0.031	0.351	0.58925	-0.57
Mof_O 	O 	0.95953	0.20738	0.58207	-0.48
Mof_O 	O 	0.63567	0.58925	0.351	-0.571
Mof_O 	O 	0.0554	0.35007	0.71379	-0.573
Mof_O 	O 	0.38873	0.36372	0.64993	-0.573
Mof_O 	O 	0.27793	0.64993	0.36372	-0.573
Mof_O 	O 	0.70713	0.58207	0.20738	-0.48
Mof_O 	O 	0.04047	0.62531	0.41793	-0.479
Mof_O 	O 	0.30233	0.649	0.23825	-0.571
Mof_O 	O 	0.3738	0.79262	0.37469	-0.48
Mof_O 	O 	0.969	0.76175	0.41075	-0.57
Mof_O 	O 	0.29287	0.37469	0.79262	-0.48
Mof_O 	O 	0.69767	0.41075	0.76175	-0.572
_end
