data_functionalizedCrystal
_audit_creation_method	'EQeq! by Chris Wilmer'
_symmetry_space_group_name_H-M	'P1'
_symmetry_Int_Tables_number	1
_symmetry_cell_setting	triclinic
loop_
_symmetry_equiv_pos_as_xyz
  x,y,z
_cell_length_a	16.417
_cell_length_b	16.417
_cell_length_c	6.598
_cell_angle_alpha	90
_cell_angle_beta	90
_cell_angle_gamma	90
loop_
_atom_site_label
_atom_site_type_symbol
_atom_site_fract_x
_atom_site_fract_y
_atom_site_fract_z
_atom_site_charge
Mof_N 	N 	0.1714	0.68652	0.3194	-0.249
Mof_C 	C 	0.19755	0.62857	0.1948	0.089
Mof_H 	H 	0.2534	0.6205	0.1839	-0.024
Mof_C 	C 	0.1471	0.5798	0.0807	-0.169
Mof_H 	H 	0.169	0.5393	0.9984	0.079
Mof_C 	C 	0.0643	0.5911	0.0891	0.087
Mof_C 	C 	0.03691	0.6507	0.2151	-0.174
Mof_H 	H 	0.9813	0.6603	0.2268	0.075
Mof_C 	C 	0.09081	0.69683	0.325	0.087
Mof_H 	H 	0.07	0.7376	0.4081	-0.028
Mof_C 	C 	0.9966	0.5432	0.974	0.003
Mof_H 	H 	0.9423	0.5642	0.0075	0.013
Mof_C 	C 	0.0179	0.5583	0.742	-0.086
Mof_H 	H 	0.0718	0.5386	0.7147	0.034
Mof_H 	H 	0.0152	0.6156	0.7136	0.063
Mof_H 	H 	0.9794	0.5299	0.6586	0.083
Mof_C 	C 	0.025	0.531	0.93	-0.029
Mof_H 	H 	0.0693	0.5003	0.8653	0.023
Mof_C 	C 	0.979	0.57	0.775	-0.16
Mof_H 	H 	0.9548	0.5302	0.6883	0.001
Mof_H 	H 	0.0148	0.6044	0.6957	0.011
Mof_H 	H 	0.9374	0.6033	0.835	0.062
Mof_N 	N 	0.3286	0.81348	0.3194	-0.25
Mof_C 	C 	0.30245	0.87143	0.1948	0.089
Mof_H 	H 	0.2466	0.8795	0.1839	-0.025
Mof_C 	C 	0.3529	0.9202	0.0807	-0.171
Mof_H 	H 	0.331	0.9607	0.9984	0.079
Mof_C 	C 	0.4357	0.9089	0.0891	0.086
Mof_C 	C 	0.46309	0.8493	0.2151	-0.175
Mof_H 	H 	0.5187	0.8397	0.2268	0.076
Mof_C 	C 	0.40919	0.80317	0.325	0.088
Mof_H 	H 	0.43	0.7624	0.4081	-0.028
Mof_C 	C 	0.5034	0.9568	0.974	0.004
Mof_H 	H 	0.5577	0.9358	0.0075	0.012
Mof_C 	C 	0.4821	0.9417	0.742	-0.087
Mof_H 	H 	0.4282	0.9614	0.7147	0.034
Mof_H 	H 	0.4848	0.8844	0.7136	0.063
Mof_H 	H 	0.5206	0.9701	0.6586	0.083
Mof_C 	C 	0.475	0.969	0.93	-0.029
Mof_H 	H 	0.4307	0.9997	0.8653	0.023
Mof_C 	C 	0.521	0.93	0.775	-0.159
Mof_H 	H 	0.5452	0.9698	0.6883	0.001
Mof_H 	H 	0.4852	0.8956	0.6957	0.011
Mof_H 	H 	0.5626	0.8967	0.835	0.062
Mof_N 	N 	0.81348	0.1714	0.3194	-0.25
Mof_C 	C 	0.87143	0.19755	0.1948	0.089
Mof_H 	H 	0.8795	0.2534	0.1839	-0.025
Mof_C 	C 	0.9202	0.1471	0.0807	-0.17
Mof_H 	H 	0.9607	0.169	0.9984	0.078
Mof_C 	C 	0.9089	0.0643	0.0891	0.086
Mof_C 	C 	0.8493	0.03691	0.2151	-0.173
Mof_H 	H 	0.8397	0.9813	0.2268	0.075
Mof_C 	C 	0.80317	0.09081	0.325	0.087
Mof_H 	H 	0.7624	0.07	0.4081	-0.027
Mof_C 	C 	0.9568	0.9966	0.974	0.005
Mof_H 	H 	0.9358	0.9423	0.0075	0.011
Mof_C 	C 	0.9417	0.0179	0.742	-0.088
Mof_H 	H 	0.9614	0.0718	0.7147	0.034
Mof_H 	H 	0.8844	0.0152	0.7136	0.064
Mof_H 	H 	0.9701	0.9794	0.6586	0.085
Mof_C 	C 	0.969	0.025	0.93	-0.031
Mof_H 	H 	0.9997	0.0693	0.8653	0.024
Mof_C 	C 	0.93	0.979	0.775	-0.158
Mof_H 	H 	0.9698	0.9548	0.6883	-0.001
Mof_H 	H 	0.8956	0.0148	0.6957	0.011
Mof_H 	H 	0.8967	0.9374	0.835	0.062
Mof_N 	N 	0.68652	0.3286	0.3194	-0.25
Mof_C 	C 	0.62857	0.30245	0.1948	0.089
Mof_H 	H 	0.6205	0.2466	0.1839	-0.025
Mof_C 	C 	0.5798	0.3529	0.0807	-0.17
Mof_H 	H 	0.5393	0.331	0.9984	0.078
Mof_C 	C 	0.5911	0.4357	0.0891	0.086
Mof_C 	C 	0.6507	0.46309	0.2151	-0.175
Mof_H 	H 	0.6603	0.5187	0.2268	0.076
Mof_C 	C 	0.69683	0.40919	0.325	0.088
Mof_H 	H 	0.7376	0.43	0.4081	-0.028
Mof_C 	C 	0.5432	0.5034	0.974	0.004
Mof_H 	H 	0.5642	0.5577	0.0075	0.013
Mof_C 	C 	0.5583	0.4821	0.742	-0.087
Mof_H 	H 	0.5386	0.4282	0.7147	0.034
Mof_H 	H 	0.6156	0.4848	0.7136	0.063
Mof_H 	H 	0.5299	0.5206	0.6586	0.083
Mof_C 	C 	0.531	0.475	0.93	-0.03
Mof_H 	H 	0.5003	0.4307	0.8653	0.023
Mof_C 	C 	0.57	0.521	0.775	-0.159
Mof_H 	H 	0.5302	0.5452	0.6883	0.001
Mof_H 	H 	0.6044	0.4852	0.6957	0.011
Mof_H 	H 	0.6033	0.5626	0.835	0.062
Mof_N 	N 	0.8286	0.31348	0.6806	-0.25
Mof_C 	C 	0.80245	0.37143	0.8052	0.088
Mof_H 	H 	0.7466	0.3795	0.8161	-0.025
Mof_C 	C 	0.8529	0.4202	0.9193	-0.17
Mof_H 	H 	0.831	0.4607	0.0016	0.078
Mof_C 	C 	0.9357	0.4089	0.9109	0.086
Mof_C 	C 	0.96309	0.3493	0.7849	-0.174
Mof_H 	H 	0.0187	0.3397	0.7732	0.075
Mof_C 	C 	0.90919	0.30317	0.675	0.087
Mof_H 	H 	0.93	0.2624	0.5919	-0.028
Mof_C 	C 	0.0034	0.4568	0.026	0.003
Mof_H 	H 	0.0577	0.4358	0.9925	0.013
Mof_C 	C 	0.9821	0.4417	0.258	-0.086
Mof_H 	H 	0.9282	0.4614	0.2853	0.034
Mof_H 	H 	0.9848	0.3844	0.2864	0.063
Mof_H 	H 	0.0206	0.4701	0.3414	0.083
Mof_C 	C 	0.975	0.469	0.07	-0.029
Mof_H 	H 	0.9307	0.4997	0.1347	0.023
Mof_C 	C 	0.021	0.43	0.225	-0.16
Mof_H 	H 	0.0452	0.4698	0.3117	0.001
Mof_H 	H 	0.9852	0.3956	0.3043	0.011
Mof_H 	H 	0.0626	0.3967	0.165	0.062
Mof_N 	N 	0.6714	0.18652	0.6806	-0.25
Mof_C 	C 	0.69755	0.12857	0.8052	0.089
Mof_H 	H 	0.7534	0.1205	0.8161	-0.025
Mof_C 	C 	0.6471	0.0798	0.9193	-0.171
Mof_H 	H 	0.669	0.0393	0.0016	0.079
Mof_C 	C 	0.5643	0.0911	0.9109	0.086
Mof_C 	C 	0.53691	0.1507	0.7849	-0.175
Mof_H 	H 	0.4813	0.1603	0.7732	0.076
Mof_C 	C 	0.59081	0.19683	0.675	0.088
Mof_H 	H 	0.57	0.2376	0.5919	-0.028
Mof_C 	C 	0.4966	0.0432	0.026	0.004
Mof_H 	H 	0.4423	0.0642	0.9925	0.012
Mof_C 	C 	0.5179	0.0583	0.258	-0.087
Mof_H 	H 	0.5718	0.0386	0.2853	0.034
Mof_H 	H 	0.5152	0.1156	0.2864	0.063
Mof_H 	H 	0.4794	0.0299	0.3414	0.083
Mof_C 	C 	0.525	0.031	0.07	-0.029
Mof_H 	H 	0.5693	0.0003	0.1347	0.023
Mof_C 	C 	0.479	0.07	0.225	-0.159
Mof_H 	H 	0.4548	0.0302	0.3117	0.001
Mof_H 	H 	0.5148	0.1044	0.3043	0.011
Mof_H 	H 	0.4374	0.1033	0.165	0.062
Mof_N 	N 	0.18652	0.8286	0.6806	-0.25
Mof_C 	C 	0.12857	0.80245	0.8052	0.089
Mof_H 	H 	0.1205	0.7466	0.8161	-0.025
Mof_C 	C 	0.0798	0.8529	0.9193	-0.17
Mof_H 	H 	0.0393	0.831	0.0016	0.078
Mof_C 	C 	0.0911	0.9357	0.9109	0.086
Mof_C 	C 	0.1507	0.96309	0.7849	-0.173
Mof_H 	H 	0.1603	0.0187	0.7732	0.075
Mof_C 	C 	0.19683	0.90919	0.675	0.087
Mof_H 	H 	0.2376	0.93	0.5919	-0.027
Mof_C 	C 	0.0432	0.0034	0.026	0.005
Mof_H 	H 	0.0642	0.0577	0.9925	0.011
Mof_C 	C 	0.0583	0.9821	0.258	-0.088
Mof_H 	H 	0.0386	0.9282	0.2853	0.034
Mof_H 	H 	0.1156	0.9848	0.2864	0.064
Mof_H 	H 	0.0299	0.0206	0.3414	0.085
Mof_C 	C 	0.031	0.975	0.07	-0.031
Mof_H 	H 	0.0003	0.9307	0.1347	0.024
Mof_C 	C 	0.07	0.021	0.225	-0.158
Mof_H 	H 	0.0302	0.0452	0.3117	-0.001
Mof_H 	H 	0.1044	0.9852	0.3043	0.011
Mof_H 	H 	0.1033	0.0626	0.165	0.062
Mof_N 	N 	0.31348	0.6714	0.6806	-0.25
Mof_C 	C 	0.37143	0.69755	0.8052	0.089
Mof_H 	H 	0.3795	0.7534	0.8161	-0.025
Mof_C 	C 	0.4202	0.6471	0.9193	-0.17
Mof_H 	H 	0.4607	0.669	0.0016	0.078
Mof_C 	C 	0.4089	0.5643	0.9109	0.086
Mof_C 	C 	0.3493	0.53691	0.7849	-0.175
Mof_H 	H 	0.3397	0.4813	0.7732	0.076
Mof_C 	C 	0.30317	0.59081	0.675	0.088
Mof_H 	H 	0.2624	0.57	0.5919	-0.028
Mof_C 	C 	0.4568	0.4966	0.026	0.004
Mof_H 	H 	0.4358	0.4423	0.9925	0.013
Mof_C 	C 	0.4417	0.5179	0.258	-0.087
Mof_H 	H 	0.4614	0.5718	0.2853	0.034
Mof_H 	H 	0.3844	0.5152	0.2864	0.063
Mof_H 	H 	0.4701	0.4794	0.3414	0.083
Mof_C 	C 	0.469	0.525	0.07	-0.03
Mof_H 	H 	0.4997	0.5693	0.1347	0.023
Mof_C 	C 	0.43	0.479	0.225	-0.159
Mof_H 	H 	0.4698	0.4548	0.3117	0.001
Mof_H 	H 	0.3956	0.5148	0.3043	0.011
Mof_H 	H 	0.3967	0.4374	0.165	0.062
Mof_Cu	Cu	0.25	0.75	0.5	0.85
Mof_Cu	Cu	0.75	0.25	0.5	0.85
_end
