# CIF file generated by openbabel 3.1.0, see https://openbabel.org
data_I
_chemical_name_common 'image0'
_cell_length_a 12.9012
_cell_length_b 14.5816
_cell_length_c 11.8243
_cell_angle_alpha 90
_cell_angle_beta 90
_cell_angle_gamma 90
_space_group_name_H-M_alt 'P 1'
_space_group_name_Hall 'P 1'
loop_
    _symmetry_equiv_pos_as_xyz
    x,y,z
loop_
    _atom_site_label
    _atom_site_type_symbol
    _atom_site_fract_x
    _atom_site_fract_y
    _atom_site_fract_z
    _atom_site_occupancy
    Cd1      Cd       0.50211    0.25495    0.02373    1.000
    O1       O        0.47946    0.11477    0.14730    1.000
    O2       O        0.34461    0.19532    0.09262    1.000
    O3       O        0.14152    0.10304    0.02362    1.000
    O4       O        0.08693    0.18534    0.16975    1.000
    O5       O        0.08996    0.81700    0.37887    1.000
    O6       O        0.11338    0.91225    0.52128    1.000
    O7       O        0.32280    0.81488    0.47549    1.000
    O8       O        0.46345    0.86245    0.39528    1.000
    C1       C        0.38419    0.12831    0.14417    1.000
    C2       C        0.31464    0.06356    0.20828    1.000
    C3       C        0.20615    0.06609    0.20585    1.000
    C4       C        0.14228    0.12301    0.12502    1.000
    C5       C        0.15083    0.00822    0.27810    1.000
    C6       C        0.19942    0.94464    0.34840    1.000
    C7       C        0.13049    0.88631    0.42354    1.000
    C8       C        0.30767    0.93815    0.34497    1.000
    C9       C        0.36738    0.86762    0.41087    1.000
    C10      C        0.36262    0.99896    0.27700    1.000
    H1       H        0.43710    0.99270    0.27900    1.000
    H2       H        0.07230    0.01190    0.28100    1.000
    Cd2      Cd       0.49789    0.74506    0.52373    1.000
    O9       O        0.52054    0.88523    0.64730    1.000
    O10      O        0.65539    0.80468    0.59262    1.000
    O11      O        0.85848    0.89696    0.52362    1.000
    O12      O        0.91307    0.81466    0.66975    1.000
    O13      O        0.91004    0.18300    0.87887    1.000
    O14      O        0.88662    0.08775    0.02128    1.000
    O15      O        0.67720    0.18512    0.97549    1.000
    O16      O        0.53655    0.13755    0.89528    1.000
    C11      C        0.61581    0.87169    0.64417    1.000
    C12      C        0.68536    0.93644    0.70828    1.000
    C13      C        0.79385    0.93391    0.70585    1.000
    C14      C        0.85772    0.87699    0.62502    1.000
    C15      C        0.84917    0.99178    0.77810    1.000
    C16      C        0.80058    0.05536    0.84840    1.000
    C17      C        0.86951    0.11369    0.92354    1.000
    C18      C        0.69233    0.06185    0.84497    1.000
    C19      C        0.63262    0.13238    0.91087    1.000
    C20      C        0.63738    0.00104    0.77700    1.000
    H3       H        0.56290    0.00730    0.77900    1.000
    H4       H        0.92770    0.98810    0.78100    1.000
    Cd3      Cd       0.00211    0.24506    0.02373    1.000
    O17      O        0.97946    0.38523    0.14730    1.000
    O18      O        0.84461    0.30468    0.09262    1.000
    O19      O        0.64152    0.39696    0.02362    1.000
    O20      O        0.58693    0.31466    0.16975    1.000
    O21      O        0.58996    0.68300    0.37887    1.000
    O22      O        0.61338    0.58775    0.52128    1.000
    O23      O        0.82280    0.68512    0.47549    1.000
    O24      O        0.96345    0.63755    0.39528    1.000
    C21      C        0.88419    0.37169    0.14417    1.000
    C22      C        0.81464    0.43644    0.20828    1.000
    C23      C        0.70615    0.43391    0.20585    1.000
    C24      C        0.64228    0.37699    0.12502    1.000
    C25      C        0.65083    0.49178    0.27810    1.000
    C26      C        0.69942    0.55536    0.34840    1.000
    C27      C        0.63049    0.61369    0.42354    1.000
    C28      C        0.80767    0.56185    0.34497    1.000
    C29      C        0.86738    0.63238    0.41087    1.000
    C30      C        0.86262    0.50104    0.27700    1.000
    H5       H        0.93710    0.50730    0.27900    1.000
    H6       H        0.57230    0.48810    0.28100    1.000
    Cd4      Cd       0.99789    0.75495    0.52373    1.000
    O25      O        0.02054    0.61477    0.64730    1.000
    O26      O        0.15539    0.69532    0.59262    1.000
    O27      O        0.35848    0.60304    0.52362    1.000
    O28      O        0.41307    0.68534    0.66975    1.000
    O29      O        0.41004    0.31700    0.87887    1.000
    O30      O        0.38662    0.41225    0.02128    1.000
    O31      O        0.17720    0.31488    0.97549    1.000
    O32      O        0.03655    0.36245    0.89528    1.000
    C31      C        0.11581    0.62831    0.64417    1.000
    C32      C        0.18536    0.56356    0.70828    1.000
    C33      C        0.29385    0.56609    0.70585    1.000
    C34      C        0.35772    0.62301    0.62502    1.000
    C35      C        0.34917    0.50822    0.77810    1.000
    C36      C        0.30058    0.44464    0.84840    1.000
    C37      C        0.36951    0.38631    0.92354    1.000
    C38      C        0.19233    0.43815    0.84497    1.000
    C39      C        0.13262    0.36762    0.91087    1.000
    C40      C        0.13738    0.49896    0.77700    1.000
    H7       H        0.06290    0.49270    0.77900    1.000
    H8       H        0.42770    0.51190    0.78100    1.000
