# CIF file generated by openbabel 3.1.0, see https://openbabel.org
data_I
_chemical_name_common 'image0'
_cell_length_a 12.1117
_cell_length_b 11.1419
_cell_length_c 18.742
_cell_angle_alpha 90
_cell_angle_beta 93.472
_cell_angle_gamma 90
_space_group_name_H-M_alt 'P 1'
_space_group_name_Hall 'P 1'
loop_
    _symmetry_equiv_pos_as_xyz
    x,y,z
loop_
    _atom_site_label
    _atom_site_type_symbol
    _atom_site_fract_x
    _atom_site_fract_y
    _atom_site_fract_z
    _atom_site_occupancy
    Mn1      Mn       0.09829    0.11129    0.71531    1.000
    O1       O        0.22170    0.22422    0.68924    1.000
    Mn2      Mn       0.81143    0.22075    0.28293    1.000
    O2       O        0.43734    0.28780    0.69294    1.000
    H1       H        0.48540    0.34230    0.69620    1.000
    O3       O        0.93890    0.17540    0.35671    1.000
    C1       C        0.21500    0.18090    0.56359    1.000
    O4       O        0.00156    0.98810    0.35605    1.000
    C2       C        0.21010    0.06730    0.53820    1.000
    H2       H        0.25470    0.00710    0.56130    1.000
    O5       O        0.56950    0.36000    0.32126    1.000
    C3       C        0.14100    0.03650    0.47880    1.000
    H3       H        0.13810    0.95570    0.46260    1.000
    O6       O        0.68310    0.21190    0.35734    1.000
    C4       C        0.07690    0.12290    0.44348    1.000
    O7       O        0.72365    0.52766    0.24323    1.000
    C5       C        0.07800    0.23690    0.47180    1.000
    H4       H        0.03230    0.29740    0.44980    1.000
    O8       O        0.84775    0.41019    0.30432    1.000
    C6       C        0.14540    0.26430    0.53220    1.000
    H5       H        0.14290    0.34260    0.55210    1.000
    C7       C        0.99960    0.09290    0.38030    1.000
    C8       C        0.60460    0.28340    0.36540    1.000
    C9       C        0.81600    0.50670    0.27746    1.000
    H6       H        0.86580    0.57240    0.28290    1.000
    C10      C        0.28900    0.19690    0.63182    1.000
    H7       H        0.33080    0.12100    0.64260    1.000
    C11      C        0.37090    0.30110    0.62587    1.000
    H8       H        0.33000    0.37900    0.62600    1.000
    C12      C        0.43760    0.29470    0.56046    1.000
    C13      C        0.40760    0.36850    0.50330    1.000
    H9       H        0.34840    0.42370    0.50700    1.000
    C14      C        0.46290    0.36310    0.44080    1.000
    H10      H        0.44080    0.41430    0.40200    1.000
    C15      C        0.54960    0.28420    0.43400    1.000
    C16      C        0.57960    0.20970    0.49090    1.000
    H11      H        0.63890    0.15480    0.48700    1.000
    C17      C        0.52360    0.21410    0.55420    1.000
    H12      H        0.54470    0.16190    0.59280    1.000
    C18      C        0.27060    0.25250    0.62710    1.000
    H13      H        0.26710    0.34080    0.61770    1.000
    C19      C        0.45090    0.23160    0.56570    1.000
    C20      C        0.44750    0.34450    0.53420    1.000
    H14      H        0.41350    0.40960    0.55720    1.000
    C21      C        0.49390    0.36240    0.46890    1.000
    H15      H        0.49150    0.43960    0.44740    1.000
    C22      C        0.54360    0.26720    0.43520    1.000
    C23      C        0.54700    0.15420    0.46680    1.000
    H16      H        0.58100    0.08920    0.44370    1.000
    C24      C        0.50070    0.13640    0.53200    1.000
    H17      H        0.50300    0.05920    0.55350    1.000
    C25      C        0.39050    0.20840    0.63350    1.000
    H18      H        0.39460    0.12180    0.64750    1.000
    Mn3      Mn       0.40171    0.61129    0.78469    1.000
    O9       O        0.27830    0.72422    0.81076    1.000
    Mn4      Mn       0.68857    0.72075    0.21707    1.000
    O10      O        0.06266    0.78780    0.80706    1.000
    H19      H        0.01460    0.84230    0.80380    1.000
    O11      O        0.56110    0.67540    0.14329    1.000
    C26      C        0.28500    0.68090    0.93641    1.000
    O12      O        0.49844    0.48810    0.14395    1.000
    C27      C        0.28990    0.56730    0.96180    1.000
    H20      H        0.24530    0.50710    0.93870    1.000
    O13      O        0.93050    0.86000    0.17874    1.000
    C28      C        0.35900    0.53650    0.02120    1.000
    H21      H        0.36190    0.45570    0.03740    1.000
    O14      O        0.81690    0.71190    0.14266    1.000
    C29      C        0.42310    0.62290    0.05652    1.000
    O15      O        0.77635    0.02766    0.25677    1.000
    C30      C        0.42200    0.73690    0.02820    1.000
    H22      H        0.46770    0.79740    0.05020    1.000
    O16      O        0.65225    0.91019    0.19568    1.000
    C31      C        0.35460    0.76430    0.96780    1.000
    H23      H        0.35710    0.84260    0.94790    1.000
    C32      C        0.50040    0.59290    0.11970    1.000
    C33      C        0.89540    0.78340    0.13460    1.000
    C34      C        0.68400    0.00670    0.22254    1.000
    H24      H        0.63420    0.07240    0.21710    1.000
    C35      C        0.21100    0.69690    0.86818    1.000
    H25      H        0.16920    0.62100    0.85740    1.000
    C36      C        0.12910    0.80110    0.87413    1.000
    H26      H        0.17000    0.87900    0.87400    1.000
    C37      C        0.06240    0.79470    0.93954    1.000
    C38      C        0.09240    0.86850    0.99670    1.000
    H27      H        0.15160    0.92370    0.99300    1.000
    C39      C        0.03710    0.86310    0.05920    1.000
    H28      H        0.05920    0.91430    0.09800    1.000
    C40      C        0.95040    0.78420    0.06600    1.000
    C41      C        0.92040    0.70970    0.00910    1.000
    H29      H        0.86110    0.65480    0.01300    1.000
    C42      C        0.97640    0.71410    0.94580    1.000
    H30      H        0.95530    0.66190    0.90720    1.000
    C43      C        0.22940    0.75250    0.87290    1.000
    H31      H        0.23290    0.84080    0.88230    1.000
    C44      C        0.04910    0.73160    0.93430    1.000
    C45      C        0.05250    0.84450    0.96580    1.000
    H32      H        0.08650    0.90960    0.94280    1.000
    C46      C        0.00610    0.86240    0.03110    1.000
    H33      H        0.00850    0.93960    0.05260    1.000
    C47      C        0.95640    0.76720    0.06480    1.000
    C48      C        0.95300    0.65420    0.03320    1.000
    H34      H        0.91900    0.58920    0.05630    1.000
    C49      C        0.99930    0.63640    0.96800    1.000
    H35      H        0.99700    0.55920    0.94650    1.000
    C50      C        0.10950    0.70840    0.86650    1.000
    H36      H        0.10540    0.62180    0.85250    1.000
    Mn5      Mn       0.90171    0.88871    0.28469    1.000
    O17      O        0.77830    0.77578    0.31076    1.000
    Mn6      Mn       0.18857    0.77925    0.71707    1.000
    O18      O        0.56266    0.71220    0.30706    1.000
    H37      H        0.51460    0.65770    0.30380    1.000
    O19      O        0.06110    0.82460    0.64329    1.000
    C51      C        0.78500    0.81910    0.43641    1.000
    O20      O        0.99844    0.01190    0.64395    1.000
    C52      C        0.78990    0.93270    0.46180    1.000
    H38      H        0.74530    0.99290    0.43870    1.000
    O21      O        0.43050    0.64000    0.67874    1.000
    C53      C        0.85900    0.96350    0.52120    1.000
    H39      H        0.86190    0.04430    0.53740    1.000
    O22      O        0.31690    0.78810    0.64266    1.000
    C54      C        0.92310    0.87710    0.55652    1.000
    O23      O        0.27635    0.47234    0.75677    1.000
    C55      C        0.92200    0.76310    0.52820    1.000
    H40      H        0.96770    0.70260    0.55020    1.000
    O24      O        0.15225    0.58981    0.69568    1.000
    C56      C        0.85460    0.73570    0.46780    1.000
    H41      H        0.85710    0.65740    0.44790    1.000
    C57      C        0.00040    0.90710    0.61970    1.000
    C58      C        0.39540    0.71660    0.63460    1.000
    C59      C        0.18400    0.49330    0.72254    1.000
    H42      H        0.13420    0.42760    0.71710    1.000
    C60      C        0.71100    0.80310    0.36818    1.000
    H43      H        0.66920    0.87900    0.35740    1.000
    C61      C        0.62910    0.69890    0.37413    1.000
    H44      H        0.67000    0.62100    0.37400    1.000
    C62      C        0.56240    0.70530    0.43954    1.000
    C63      C        0.59240    0.63150    0.49670    1.000
    H45      H        0.65160    0.57630    0.49300    1.000
    C64      C        0.53710    0.63690    0.55920    1.000
    H46      H        0.55920    0.58570    0.59800    1.000
    C65      C        0.45040    0.71580    0.56600    1.000
    C66      C        0.42040    0.79030    0.50910    1.000
    H47      H        0.36110    0.84520    0.51300    1.000
    C67      C        0.47640    0.78590    0.44580    1.000
    H48      H        0.45530    0.83810    0.40720    1.000
    C68      C        0.72940    0.74750    0.37290    1.000
    H49      H        0.73290    0.65920    0.38230    1.000
    C69      C        0.54910    0.76840    0.43430    1.000
    C70      C        0.55250    0.65550    0.46580    1.000
    H50      H        0.58650    0.59040    0.44280    1.000
    C71      C        0.50610    0.63760    0.53110    1.000
    H51      H        0.50850    0.56040    0.55260    1.000
    C72      C        0.45640    0.73280    0.56480    1.000
    C73      C        0.45300    0.84580    0.53320    1.000
    H52      H        0.41900    0.91080    0.55630    1.000
    C74      C        0.49930    0.86360    0.46800    1.000
    H53      H        0.49700    0.94080    0.44650    1.000
    C75      C        0.60950    0.79160    0.36650    1.000
    H54      H        0.60540    0.87820    0.35250    1.000
    Mn7      Mn       0.59829    0.38871    0.21531    1.000
    O25      O        0.72170    0.27578    0.18924    1.000
    Mn8      Mn       0.31143    0.27925    0.78293    1.000
    O26      O        0.93734    0.21220    0.19294    1.000
    H55      H        0.98540    0.15770    0.19620    1.000
    O27      O        0.43890    0.32460    0.85671    1.000
    C76      C        0.71500    0.31910    0.06359    1.000
    O28      O        0.50156    0.51190    0.85605    1.000
    C77      C        0.71010    0.43270    0.03820    1.000
    H56      H        0.75470    0.49290    0.06130    1.000
    O29      O        0.06950    0.14000    0.82126    1.000
    C78      C        0.64100    0.46350    0.97880    1.000
    H57      H        0.63810    0.54430    0.96260    1.000
    O30      O        0.18310    0.28810    0.85734    1.000
    C79      C        0.57690    0.37710    0.94348    1.000
    O31      O        0.22365    0.97234    0.74323    1.000
    C80      C        0.57800    0.26310    0.97180    1.000
    H58      H        0.53230    0.20260    0.94980    1.000
    O32      O        0.34775    0.08981    0.80432    1.000
    C81      C        0.64540    0.23570    0.03220    1.000
    H59      H        0.64290    0.15740    0.05210    1.000
    C82      C        0.49960    0.40710    0.88030    1.000
    C83      C        0.10460    0.21660    0.86540    1.000
    C84      C        0.31600    0.99330    0.77746    1.000
    H60      H        0.36580    0.92760    0.78290    1.000
    C85      C        0.78900    0.30310    0.13182    1.000
    H61      H        0.83080    0.37900    0.14260    1.000
    C86      C        0.87090    0.19890    0.12587    1.000
    H62      H        0.83000    0.12100    0.12600    1.000
    C87      C        0.93760    0.20530    0.06046    1.000
    C88      C        0.90760    0.13150    0.00330    1.000
    H63      H        0.84840    0.07630    0.00700    1.000
    C89      C        0.96290    0.13690    0.94080    1.000
    H64      H        0.94080    0.08570    0.90200    1.000
    C90      C        0.04960    0.21580    0.93400    1.000
    C91      C        0.07960    0.29030    0.99090    1.000
    H65      H        0.13890    0.34520    0.98700    1.000
    C92      C        0.02360    0.28590    0.05420    1.000
    H66      H        0.04470    0.33810    0.09280    1.000
    C93      C        0.77060    0.24750    0.12710    1.000
    H67      H        0.76710    0.15920    0.11770    1.000
    C94      C        0.95090    0.26840    0.06570    1.000
    C95      C        0.94750    0.15550    0.03420    1.000
    H68      H        0.91350    0.09040    0.05720    1.000
    C96      C        0.99390    0.13760    0.96890    1.000
    H69      H        0.99150    0.06040    0.94740    1.000
    C97      C        0.04360    0.23280    0.93520    1.000
    C98      C        0.04700    0.34580    0.96680    1.000
    H70      H        0.08100    0.41080    0.94370    1.000
    C99      C        0.00070    0.36360    0.03200    1.000
    H71      H        0.00300    0.44080    0.05350    1.000
    C100     C        0.89050    0.29160    0.13350    1.000
    H72      H        0.89460    0.37820    0.14750    1.000
