data_functionalizedCrystal
_audit_creation_method	'EQeq! by Chris Wilmer'
_symmetry_space_group_name_H-M	'P1'
_symmetry_Int_Tables_number	1
_symmetry_cell_setting	triclinic
loop_
_symmetry_equiv_pos_as_xyz
  x,y,z
_cell_length_a	8.7979
_cell_length_b	33.8187
_cell_length_c	8.7622
_cell_angle_alpha	90
_cell_angle_beta	107.854
_cell_angle_gamma	90
loop_
_atom_site_label
_atom_site_type_symbol
_atom_site_fract_x
_atom_site_fract_y
_atom_site_fract_z
_atom_site_charge
Mof_C 	C 	0.8196	0.12383	0.5691	0.231
Mof_C 	C 	0.671	0.12597	0.4161	0.234
Mof_C 	C 	0.8158	0.25912	0.7331	0.241
Mof_C 	C 	0.6664	0.2372	0.7468	0.217
Mof_C 	C 	0.0021	0.01077	0.422	0.233
Mof_C 	C 	0.4871	0.0115	0.5714	0.227
Mof_O 	O 	0.88993	0.1551	0.61907	-0.263
Mof_O 	O 	0.85668	0.09043	0.6302	-0.291
Mof_O 	O 	0.62021	0.15971	0.36989	-0.289
Mof_O 	O 	0.61551	0.09432	0.35288	-0.261
Mof_O 	O 	0.62239	0.20762	0.65579	-0.268
Mof_O 	O 	0.599	0.24974	0.8411	-0.253
Mof_O 	O 	0.87709	0.2461	0.63158	-0.292
Mof_O 	O 	0.8648	0.28771	0.82334	-0.281
Mof_O 	O 	0.91023	0.04012	0.38088	-0.271
Mof_O 	O 	0.0918	0.99826	0.34983	-0.256
Mof_O 	O 	0.57397	0.04085	0.62043	-0.276
Mof_O 	O 	0.38157	0.99874	0.62686	-0.29
Mof_Cu	Cu	0.74942	0.20387	0.49238	0.948
Mof_Cu	Cu	0.74183	0.04577	0.50107	0.948
Mof_C 	C 	0.1804	0.62383	0.9309	0.237
Mof_C 	C 	0.329	0.62597	0.0839	0.231
Mof_C 	C 	0.1842	0.75912	0.7669	0.242
Mof_C 	C 	0.3336	0.7372	0.7532	0.218
Mof_C 	C 	0.9979	0.51077	0.078	0.233
Mof_C 	C 	0.5129	0.5115	0.9286	0.228
Mof_O 	O 	0.11007	0.6551	0.88093	-0.261
Mof_O 	O 	0.14332	0.59043	0.8698	-0.29
Mof_O 	O 	0.37979	0.65971	0.13011	-0.29
Mof_O 	O 	0.38449	0.59432	0.14712	-0.261
Mof_O 	O 	0.37761	0.70762	0.84421	-0.264
Mof_O 	O 	0.401	0.74974	0.6589	-0.25
Mof_O 	O 	0.12291	0.7461	0.86842	-0.288
Mof_O 	O 	0.1352	0.78771	0.67666	-0.279
Mof_O 	O 	0.08977	0.54012	0.11912	-0.271
Mof_O 	O 	0.9082	0.49826	0.15017	-0.256
Mof_O 	O 	0.42603	0.54085	0.87957	-0.275
Mof_O 	O 	0.61843	0.49874	0.87314	-0.289
Mof_Cu	Cu	0.25058	0.70387	0.00762	0.946
Mof_Cu	Cu	0.25817	0.54577	0.99893	0.949
Mof_C 	C 	0.1804	0.87617	0.4309	0.232
Mof_C 	C 	0.329	0.87403	0.5839	0.235
Mof_C 	C 	0.1842	0.74088	0.2669	0.242
Mof_C 	C 	0.3336	0.7628	0.2532	0.218
Mof_C 	C 	0.9979	0.98923	0.578	0.233
Mof_C 	C 	0.5129	0.9885	0.4286	0.227
Mof_O 	O 	0.11007	0.8449	0.38093	-0.263
Mof_O 	O 	0.14332	0.90957	0.3698	-0.291
Mof_O 	O 	0.37979	0.84029	0.63011	-0.289
Mof_O 	O 	0.38449	0.90568	0.64712	-0.261
Mof_O 	O 	0.37761	0.79238	0.34421	-0.268
Mof_O 	O 	0.401	0.75026	0.1589	-0.253
Mof_O 	O 	0.12291	0.7539	0.36842	-0.292
Mof_O 	O 	0.1352	0.71229	0.17666	-0.281
Mof_O 	O 	0.08977	0.95988	0.61912	-0.271
Mof_O 	O 	0.9082	0.00174	0.65017	-0.256
Mof_O 	O 	0.42603	0.95915	0.37957	-0.276
Mof_O 	O 	0.61843	0.00126	0.37314	-0.29
Mof_Cu	Cu	0.25058	0.79613	0.50762	0.948
Mof_Cu	Cu	0.25817	0.95423	0.49893	0.948
Mof_C 	C 	0.8196	0.37617	0.0691	0.237
Mof_C 	C 	0.671	0.37403	0.9161	0.231
Mof_C 	C 	0.8158	0.24088	0.2331	0.242
Mof_C 	C 	0.6664	0.2628	0.2468	0.218
Mof_C 	C 	0.0021	0.48923	0.922	0.233
Mof_C 	C 	0.4871	0.4885	0.0714	0.228
Mof_O 	O 	0.88993	0.3449	0.11907	-0.261
Mof_O 	O 	0.85668	0.40957	0.1302	-0.29
Mof_O 	O 	0.62021	0.34029	0.86989	-0.29
Mof_O 	O 	0.61551	0.40568	0.85288	-0.261
Mof_O 	O 	0.62239	0.29238	0.15579	-0.264
Mof_O 	O 	0.599	0.25026	0.3411	-0.25
Mof_O 	O 	0.87709	0.2539	0.13158	-0.288
Mof_O 	O 	0.8648	0.21229	0.32334	-0.279
Mof_O 	O 	0.91023	0.45988	0.88088	-0.271
Mof_O 	O 	0.0918	0.50174	0.84983	-0.256
Mof_O 	O 	0.57397	0.45915	0.12043	-0.275
Mof_O 	O 	0.38157	0.50126	0.12686	-0.289
Mof_Cu	Cu	0.74942	0.29613	0.99238	0.946
Mof_Cu	Cu	0.74183	0.45423	0.00107	0.949
_end
