data_functionalizedCrystal
_audit_creation_method	'EQeq! by Chris Wilmer'
_symmetry_space_group_name_H-M	'P1'
_symmetry_Int_Tables_number	1
_symmetry_cell_setting	triclinic
loop_
_symmetry_equiv_pos_as_xyz
  x,y,z
_cell_length_a	35.2668
_cell_length_b	35.2668
_cell_length_c	21.1374
_cell_angle_alpha	90
_cell_angle_beta	90
_cell_angle_gamma	120
loop_
_atom_site_label
_atom_site_type_symbol
_atom_site_fract_x
_atom_site_fract_y
_atom_site_fract_z
_atom_site_charge
Mof_O 	O 	0.36394	0.2211	0.59676	-0.411
Mof_O 	O 	0.38865	0.23353	0.6972	-0.412
Mof_C 	C 	0.38839	0.24507	0.64118	0.367
Mof_C 	C 	0.4198	0.29191	0.62426	-0.137
Mof_C 	C 	0.44667	0.32142	0.67078	0.073
Mof_H 	H 	0.4458	0.3119	0.7121	0.015
Mof_C 	C 	0.47457	0.36497	0.65472	-0.167
Mof_H 	H 	0.4924	0.3844	0.6857	0.098
Mof_C 	C 	0.47642	0.37993	0.59431	0.124
Mof_C 	C 	0.44983	0.35012	0.54764	-0.163
Mof_H 	H 	0.4511	0.3594	0.5061	0.088
Mof_C 	C 	0.4215	0.30655	0.5637	0.076
Mof_H 	H 	0.4035	0.2871	0.5328	0.02
Mof_C 	C 	0.50406	0.4269	0.57594	-0.083
Mof_C 	C 	0.48646	0.44645	0.53909	-0.036
Mof_H 	H 	0.4574	0.4298	0.5265	0.043
Mof_H 	H 	0.6098	0.4347	0.5703	-0.103
Mof_H 	H 	0.6278	0.4166	0.6682	0.303
Mof_O 	O 	0.03061	0.55443	0.93009	-0.41
Mof_O 	O 	0.05532	0.56686	0.03053	-0.412
Mof_C 	C 	0.05506	0.5784	0.97451	0.367
Mof_C 	C 	0.08647	0.62524	0.95759	-0.132
Mof_C 	C 	0.11334	0.65475	0.00411	0.067
Mof_H 	H 	0.11247	0.64523	0.04543	0.018
Mof_C 	C 	0.14124	0.6983	0.98805	-0.158
Mof_H 	H 	0.15907	0.71773	0.01903	0.095
Mof_C 	C 	0.14309	0.71326	0.92764	0.121
Mof_C 	C 	0.1165	0.68345	0.88097	-0.158
Mof_H 	H 	0.11777	0.69273	0.83943	0.088
Mof_C 	C 	0.08817	0.63988	0.89703	0.073
Mof_H 	H 	0.07017	0.62043	0.86613	0.021
Mof_C 	C 	0.17073	0.76023	0.90927	-0.08
Mof_C 	C 	0.15313	0.77978	0.87242	-0.038
Mof_H 	H 	0.12407	0.76313	0.85983	0.044
Mof_H 	H 	0.27647	0.76803	0.90363	-0.1
Mof_H 	H 	0.29447	0.74993	0.00153	0.298
Mof_O 	O 	0.69727	0.88777	0.26343	-0.41
Mof_O 	O 	0.72198	0.9002	0.36387	-0.411
Mof_C 	C 	0.72172	0.91174	0.30785	0.367
Mof_C 	C 	0.75313	0.95858	0.29093	-0.135
Mof_C 	C 	0.78	0.98809	0.33745	0.072
Mof_H 	H 	0.77913	0.97857	0.37877	0.017
Mof_C 	C 	0.8079	0.03164	0.32139	-0.164
Mof_H 	H 	0.82573	0.05107	0.35237	0.098
Mof_C 	C 	0.80975	0.0466	0.26098	0.124
Mof_C 	C 	0.78316	0.01679	0.21431	-0.16
Mof_H 	H 	0.78443	0.02607	0.17277	0.089
Mof_C 	C 	0.75483	0.97322	0.23037	0.075
Mof_H 	H 	0.73683	0.95377	0.19947	0.02
Mof_C 	C 	0.83739	0.09357	0.24261	-0.082
Mof_C 	C 	0.81979	0.11312	0.20576	-0.036
Mof_H 	H 	0.79073	0.09647	0.19317	0.043
Mof_H 	H 	0.94313	0.10137	0.23697	-0.102
Mof_H 	H 	0.96113	0.08327	0.33487	0.303
Mof_O 	O 	0.7789	0.14284	0.59676	-0.41
Mof_O 	O 	0.76647	0.15512	0.6972	-0.411
Mof_C 	C 	0.75493	0.14332	0.64118	0.368
Mof_C 	C 	0.70809	0.12789	0.62426	-0.136
Mof_C 	C 	0.67858	0.12525	0.67078	0.074
Mof_H 	H 	0.6881	0.1339	0.7121	0.016
Mof_C 	C 	0.63503	0.1096	0.65472	-0.166
Mof_H 	H 	0.6156	0.108	0.6857	0.099
Mof_C 	C 	0.62007	0.09649	0.59431	0.125
Mof_C 	C 	0.64988	0.09971	0.54764	-0.162
Mof_H 	H 	0.6406	0.0917	0.5061	0.089
Mof_C 	C 	0.69345	0.11495	0.5637	0.077
Mof_H 	H 	0.7129	0.1164	0.5328	0.02
Mof_C 	C 	0.5731	0.07716	0.57594	-0.083
Mof_C 	C 	0.55355	0.04001	0.53909	-0.036
Mof_H 	H 	0.5702	0.0276	0.5265	0.043
Mof_H 	H 	0.5653	0.1751	0.5703	-0.103
Mof_H 	H 	0.5834	0.2112	0.6682	0.302
Mof_O 	O 	0.44557	0.47617	0.93009	-0.41
Mof_O 	O 	0.43314	0.48845	0.03053	-0.411
Mof_C 	C 	0.4216	0.47665	0.97451	0.367
Mof_C 	C 	0.37476	0.46122	0.95759	-0.135
Mof_C 	C 	0.34525	0.45858	0.00411	0.072
Mof_H 	H 	0.35477	0.46723	0.04543	0.017
Mof_C 	C 	0.3017	0.44293	0.98805	-0.163
Mof_H 	H 	0.28227	0.44133	0.01903	0.098
Mof_C 	C 	0.28674	0.42982	0.92764	0.124
Mof_C 	C 	0.31655	0.43304	0.88097	-0.161
Mof_H 	H 	0.30727	0.42503	0.83943	0.089
Mof_C 	C 	0.36012	0.44828	0.89703	0.076
Mof_H 	H 	0.37957	0.44973	0.86613	0.02
Mof_C 	C 	0.23977	0.41049	0.90927	-0.082
Mof_C 	C 	0.22022	0.37334	0.87242	-0.037
Mof_H 	H 	0.23687	0.36093	0.85983	0.044
Mof_H 	H 	0.23197	0.50843	0.90363	-0.101
Mof_H 	H 	0.25007	0.54453	0.00153	0.3
Mof_O 	O 	0.11223	0.80951	0.26343	-0.41
Mof_O 	O 	0.0998	0.82179	0.36387	-0.411
Mof_C 	C 	0.08826	0.80999	0.30785	0.367
Mof_C 	C 	0.04142	0.79456	0.29093	-0.135
Mof_C 	C 	0.01191	0.79192	0.33745	0.073
Mof_H 	H 	0.02143	0.80057	0.37877	0.017
Mof_C 	C 	0.96836	0.77627	0.32139	-0.164
Mof_H 	H 	0.94893	0.77467	0.35237	0.098
Mof_C 	C 	0.9534	0.76316	0.26098	0.124
Mof_C 	C 	0.98321	0.76638	0.21431	-0.16
Mof_H 	H 	0.97393	0.75837	0.17277	0.089
Mof_C 	C 	0.02678	0.78162	0.23037	0.075
Mof_H 	H 	0.04623	0.78307	0.19947	0.02
Mof_C 	C 	0.90643	0.74383	0.24261	-0.083
Mof_C 	C 	0.88688	0.70668	0.20576	-0.036
Mof_H 	H 	0.90353	0.69427	0.19317	0.043
Mof_H 	H 	0.89863	0.84177	0.23697	-0.103
Mof_H 	H 	0.91673	0.87787	0.33487	0.302
Mof_O 	O 	0.85716	0.63606	0.59676	-0.41
Mof_O 	O 	0.84488	0.61135	0.6972	-0.411
Mof_C 	C 	0.85668	0.61161	0.64118	0.368
Mof_C 	C 	0.87211	0.5802	0.62426	-0.136
Mof_C 	C 	0.87475	0.55333	0.67078	0.074
Mof_H 	H 	0.8661	0.5542	0.7121	0.016
Mof_C 	C 	0.8904	0.52543	0.65472	-0.166
Mof_H 	H 	0.892	0.5076	0.6857	0.099
Mof_C 	C 	0.90351	0.52358	0.59431	0.125
Mof_C 	C 	0.90029	0.55017	0.54764	-0.162
Mof_H 	H 	0.9083	0.5489	0.5061	0.089
Mof_C 	C 	0.88505	0.5785	0.5637	0.077
Mof_H 	H 	0.8836	0.5965	0.5328	0.02
Mof_C 	C 	0.92284	0.49594	0.57594	-0.083
Mof_C 	C 	0.95999	0.51354	0.53909	-0.036
Mof_H 	H 	0.9724	0.5426	0.5265	0.043
Mof_H 	H 	0.8249	0.3902	0.5703	-0.103
Mof_H 	H 	0.7888	0.3722	0.6682	0.302
Mof_O 	O 	0.52383	0.96939	0.93009	-0.41
Mof_O 	O 	0.51155	0.94468	0.03053	-0.412
Mof_C 	C 	0.52335	0.94494	0.97451	0.368
Mof_C 	C 	0.53878	0.91353	0.95759	-0.133
Mof_C 	C 	0.54142	0.88666	0.00411	0.069
Mof_H 	H 	0.53277	0.88753	0.04543	0.018
Mof_C 	C 	0.55707	0.85876	0.98805	-0.161
Mof_H 	H 	0.55867	0.84093	0.01903	0.097
Mof_C 	C 	0.57018	0.85691	0.92764	0.123
Mof_C 	C 	0.56696	0.8835	0.88097	-0.16
Mof_H 	H 	0.57497	0.88223	0.83943	0.088
Mof_C 	C 	0.55172	0.91183	0.89703	0.074
Mof_H 	H 	0.55027	0.92983	0.86613	0.021
Mof_C 	C 	0.58951	0.82927	0.90927	-0.081
Mof_C 	C 	0.62666	0.84687	0.87242	-0.037
Mof_H 	H 	0.63907	0.87593	0.85983	0.044
Mof_H 	H 	0.49157	0.72353	0.90363	-0.101
Mof_H 	H 	0.45547	0.70553	0.00153	0.3
Mof_O 	O 	0.19049	0.30273	0.26343	-0.41
Mof_O 	O 	0.17821	0.27802	0.36387	-0.411
Mof_C 	C 	0.19001	0.27828	0.30785	0.368
Mof_C 	C 	0.20544	0.24687	0.29093	-0.136
Mof_C 	C 	0.20808	0.22	0.33745	0.074
Mof_H 	H 	0.19943	0.22087	0.37877	0.016
Mof_C 	C 	0.22373	0.1921	0.32139	-0.166
Mof_H 	H 	0.22533	0.17427	0.35237	0.099
Mof_C 	C 	0.23684	0.19025	0.26098	0.125
Mof_C 	C 	0.23362	0.21684	0.21431	-0.162
Mof_H 	H 	0.24163	0.21557	0.17277	0.089
Mof_C 	C 	0.21838	0.24517	0.23037	0.077
Mof_H 	H 	0.21693	0.26317	0.19947	0.02
Mof_C 	C 	0.25617	0.16261	0.24261	-0.083
Mof_C 	C 	0.29332	0.18021	0.20576	-0.036
Mof_H 	H 	0.30573	0.20927	0.19317	0.043
Mof_H 	H 	0.15823	0.05687	0.23697	-0.103
Mof_H 	H 	0.12213	0.03887	0.33487	0.303
Mof_O 	O 	0.2211	0.36394	0.40324	-0.41
Mof_O 	O 	0.23353	0.38865	0.3028	-0.411
Mof_C 	C 	0.24507	0.38839	0.35882	0.368
Mof_C 	C 	0.29191	0.4198	0.37574	-0.136
Mof_C 	C 	0.32142	0.44667	0.32922	0.074
Mof_H 	H 	0.3119	0.4458	0.2879	0.016
Mof_C 	C 	0.36497	0.47457	0.34528	-0.166
Mof_H 	H 	0.3844	0.4924	0.3143	0.099
Mof_C 	C 	0.37993	0.47642	0.40569	0.125
Mof_C 	C 	0.35012	0.44983	0.45236	-0.162
Mof_H 	H 	0.3594	0.4511	0.4939	0.089
Mof_C 	C 	0.30655	0.4215	0.4363	0.077
Mof_H 	H 	0.2871	0.4035	0.4672	0.02
Mof_C 	C 	0.4269	0.50406	0.42406	-0.083
Mof_C 	C 	0.44645	0.48646	0.46091	-0.036
Mof_H 	H 	0.4298	0.4574	0.4735	0.043
Mof_H 	H 	0.4347	0.6098	0.4297	-0.103
Mof_H 	H 	0.4166	0.6278	0.3318	0.303
Mof_O 	O 	0.88777	0.69727	0.73657	-0.41
Mof_O 	O 	0.9002	0.72198	0.63613	-0.411
Mof_C 	C 	0.91174	0.72172	0.69215	0.367
Mof_C 	C 	0.95858	0.75313	0.70907	-0.135
Mof_C 	C 	0.98809	0.78	0.66255	0.072
Mof_H 	H 	0.97857	0.77913	0.62123	0.017
Mof_C 	C 	0.03164	0.8079	0.67861	-0.164
Mof_H 	H 	0.05107	0.82573	0.64763	0.098
Mof_C 	C 	0.0466	0.80975	0.73902	0.124
Mof_C 	C 	0.01679	0.78316	0.78569	-0.16
Mof_H 	H 	0.02607	0.78443	0.82723	0.089
Mof_C 	C 	0.97322	0.75483	0.76963	0.075
Mof_H 	H 	0.95377	0.73683	0.80053	0.02
Mof_C 	C 	0.09357	0.83739	0.75739	-0.082
Mof_C 	C 	0.11312	0.81979	0.79424	-0.036
Mof_H 	H 	0.09647	0.79073	0.80683	0.043
Mof_H 	H 	0.10137	0.94313	0.76303	-0.102
Mof_H 	H 	0.08327	0.96113	0.66513	0.303
Mof_O 	O 	0.55443	0.03061	0.06991	-0.41
Mof_O 	O 	0.56686	0.05532	0.96947	-0.412
Mof_C 	C 	0.5784	0.05506	0.02549	0.367
Mof_C 	C 	0.62524	0.08647	0.04241	-0.132
Mof_C 	C 	0.65475	0.11334	0.99589	0.067
Mof_H 	H 	0.64523	0.11247	0.95457	0.018
Mof_C 	C 	0.6983	0.14124	0.01195	-0.158
Mof_H 	H 	0.71773	0.15907	0.98097	0.095
Mof_C 	C 	0.71326	0.14309	0.07236	0.121
Mof_C 	C 	0.68345	0.1165	0.11903	-0.158
Mof_H 	H 	0.69273	0.11777	0.16057	0.088
Mof_C 	C 	0.63988	0.08817	0.10297	0.073
Mof_H 	H 	0.62043	0.07017	0.13387	0.021
Mof_C 	C 	0.76023	0.17073	0.09073	-0.08
Mof_C 	C 	0.77978	0.15313	0.12758	-0.038
Mof_H 	H 	0.76313	0.12407	0.14017	0.044
Mof_H 	H 	0.76803	0.27647	0.09637	-0.1
Mof_H 	H 	0.74993	0.29447	0.99847	0.298
Mof_O 	O 	0.14284	0.7789	0.40324	-0.41
Mof_O 	O 	0.15512	0.76647	0.3028	-0.411
Mof_C 	C 	0.14332	0.75493	0.35882	0.368
Mof_C 	C 	0.12789	0.70809	0.37574	-0.136
Mof_C 	C 	0.12525	0.67858	0.32922	0.074
Mof_H 	H 	0.1339	0.6881	0.2879	0.016
Mof_C 	C 	0.1096	0.63503	0.34528	-0.166
Mof_H 	H 	0.108	0.6156	0.3143	0.099
Mof_C 	C 	0.09649	0.62007	0.40569	0.125
Mof_C 	C 	0.09971	0.64988	0.45236	-0.162
Mof_H 	H 	0.0917	0.6406	0.4939	0.089
Mof_C 	C 	0.11495	0.69345	0.4363	0.077
Mof_H 	H 	0.1164	0.7129	0.4672	0.02
Mof_C 	C 	0.07716	0.5731	0.42406	-0.083
Mof_C 	C 	0.04001	0.55355	0.46091	-0.036
Mof_H 	H 	0.0276	0.5702	0.4735	0.043
Mof_H 	H 	0.1751	0.5653	0.4297	-0.103
Mof_H 	H 	0.2112	0.5834	0.3318	0.302
Mof_O 	O 	0.80951	0.11223	0.73657	-0.41
Mof_O 	O 	0.82179	0.0998	0.63613	-0.411
Mof_C 	C 	0.80999	0.08826	0.69215	0.367
Mof_C 	C 	0.79456	0.04142	0.70907	-0.135
Mof_C 	C 	0.79192	0.01191	0.66255	0.073
Mof_H 	H 	0.80057	0.02143	0.62123	0.017
Mof_C 	C 	0.77627	0.96836	0.67861	-0.164
Mof_H 	H 	0.77467	0.94893	0.64763	0.098
Mof_C 	C 	0.76316	0.9534	0.73902	0.124
Mof_C 	C 	0.76638	0.98321	0.78569	-0.16
Mof_H 	H 	0.75837	0.97393	0.82723	0.089
Mof_C 	C 	0.78162	0.02678	0.76963	0.075
Mof_H 	H 	0.78307	0.04623	0.80053	0.02
Mof_C 	C 	0.74383	0.90643	0.75739	-0.083
Mof_C 	C 	0.70668	0.88688	0.79424	-0.036
Mof_H 	H 	0.69427	0.90353	0.80683	0.043
Mof_H 	H 	0.84177	0.89863	0.76303	-0.103
Mof_H 	H 	0.87787	0.91673	0.66513	0.302
Mof_O 	O 	0.47617	0.44557	0.06991	-0.41
Mof_O 	O 	0.48845	0.43314	0.96947	-0.411
Mof_C 	C 	0.47665	0.4216	0.02549	0.367
Mof_C 	C 	0.46122	0.37476	0.04241	-0.135
Mof_C 	C 	0.45858	0.34525	0.99589	0.072
Mof_H 	H 	0.46723	0.35477	0.95457	0.017
Mof_C 	C 	0.44293	0.3017	0.01195	-0.163
Mof_H 	H 	0.44133	0.28227	0.98097	0.098
Mof_C 	C 	0.42982	0.28674	0.07236	0.124
Mof_C 	C 	0.43304	0.31655	0.11903	-0.161
Mof_H 	H 	0.42503	0.30727	0.16057	0.089
Mof_C 	C 	0.44828	0.36012	0.10297	0.076
Mof_H 	H 	0.44973	0.37957	0.13387	0.02
Mof_C 	C 	0.41049	0.23977	0.09073	-0.082
Mof_C 	C 	0.37334	0.22022	0.12758	-0.037
Mof_H 	H 	0.36093	0.23687	0.14017	0.044
Mof_H 	H 	0.50843	0.23197	0.09637	-0.101
Mof_H 	H 	0.54453	0.25007	0.99847	0.3
Mof_O 	O 	0.63606	0.85716	0.40324	-0.41
Mof_O 	O 	0.61135	0.84488	0.3028	-0.411
Mof_C 	C 	0.61161	0.85668	0.35882	0.368
Mof_C 	C 	0.5802	0.87211	0.37574	-0.136
Mof_C 	C 	0.55333	0.87475	0.32922	0.074
Mof_H 	H 	0.5542	0.8661	0.2879	0.016
Mof_C 	C 	0.52543	0.8904	0.34528	-0.166
Mof_H 	H 	0.5076	0.892	0.3143	0.099
Mof_C 	C 	0.52358	0.90351	0.40569	0.125
Mof_C 	C 	0.55017	0.90029	0.45236	-0.162
Mof_H 	H 	0.5489	0.9083	0.4939	0.089
Mof_C 	C 	0.5785	0.88505	0.4363	0.077
Mof_H 	H 	0.5965	0.8836	0.4672	0.02
Mof_C 	C 	0.49594	0.92284	0.42406	-0.083
Mof_C 	C 	0.51354	0.95999	0.46091	-0.036
Mof_H 	H 	0.5426	0.9724	0.4735	0.043
Mof_H 	H 	0.3902	0.8249	0.4297	-0.103
Mof_H 	H 	0.3722	0.7888	0.3318	0.302
Mof_O 	O 	0.30273	0.19049	0.73657	-0.41
Mof_O 	O 	0.27802	0.17821	0.63613	-0.411
Mof_C 	C 	0.27828	0.19001	0.69215	0.368
Mof_C 	C 	0.24687	0.20544	0.70907	-0.136
Mof_C 	C 	0.22	0.20808	0.66255	0.074
Mof_H 	H 	0.22087	0.19943	0.62123	0.016
Mof_C 	C 	0.1921	0.22373	0.67861	-0.166
Mof_H 	H 	0.17427	0.22533	0.64763	0.099
Mof_C 	C 	0.19025	0.23684	0.73902	0.125
Mof_C 	C 	0.21684	0.23362	0.78569	-0.162
Mof_H 	H 	0.21557	0.24163	0.82723	0.089
Mof_C 	C 	0.24517	0.21838	0.76963	0.077
Mof_H 	H 	0.26317	0.21693	0.80053	0.02
Mof_C 	C 	0.16261	0.25617	0.75739	-0.083
Mof_C 	C 	0.18021	0.29332	0.79424	-0.036
Mof_H 	H 	0.20927	0.30573	0.80683	0.043
Mof_H 	H 	0.05687	0.15823	0.76303	-0.103
Mof_H 	H 	0.03887	0.12213	0.66513	0.303
Mof_O 	O 	0.96939	0.52383	0.06991	-0.41
Mof_O 	O 	0.94468	0.51155	0.96947	-0.412
Mof_C 	C 	0.94494	0.52335	0.02549	0.368
Mof_C 	C 	0.91353	0.53878	0.04241	-0.133
Mof_C 	C 	0.88666	0.54142	0.99589	0.069
Mof_H 	H 	0.88753	0.53277	0.95457	0.018
Mof_C 	C 	0.85876	0.55707	0.01195	-0.161
Mof_H 	H 	0.84093	0.55867	0.98097	0.097
Mof_C 	C 	0.85691	0.57018	0.07236	0.123
Mof_C 	C 	0.8835	0.56696	0.11903	-0.16
Mof_H 	H 	0.88223	0.57497	0.16057	0.088
Mof_C 	C 	0.91183	0.55172	0.10297	0.074
Mof_H 	H 	0.92983	0.55027	0.13387	0.021
Mof_C 	C 	0.82927	0.58951	0.09073	-0.081
Mof_C 	C 	0.84687	0.62666	0.12758	-0.037
Mof_H 	H 	0.87593	0.63907	0.14017	0.044
Mof_H 	H 	0.72353	0.49157	0.09637	-0.101
Mof_H 	H 	0.70553	0.45547	0.99847	0.3
Mof_O 	O 	0.63606	0.7789	0.40324	-0.41
Mof_O 	O 	0.61135	0.76647	0.3028	-0.411
Mof_C 	C 	0.61161	0.75493	0.35882	0.368
Mof_C 	C 	0.5802	0.70809	0.37574	-0.136
Mof_C 	C 	0.55333	0.67858	0.32922	0.074
Mof_H 	H 	0.5542	0.6881	0.2879	0.016
Mof_C 	C 	0.52543	0.63503	0.34528	-0.166
Mof_H 	H 	0.5076	0.6156	0.3143	0.099
Mof_C 	C 	0.52358	0.62007	0.40569	0.125
Mof_C 	C 	0.55017	0.64988	0.45236	-0.162
Mof_H 	H 	0.5489	0.6406	0.4939	0.089
Mof_C 	C 	0.5785	0.69345	0.4363	0.077
Mof_H 	H 	0.5965	0.7129	0.4672	0.02
Mof_C 	C 	0.49594	0.5731	0.42406	-0.083
Mof_C 	C 	0.51354	0.55355	0.46091	-0.036
Mof_H 	H 	0.5426	0.5702	0.4735	0.043
Mof_H 	H 	0.3902	0.5653	0.4297	-0.103
Mof_H 	H 	0.3722	0.5834	0.3318	0.303
Mof_O 	O 	0.30273	0.11223	0.73657	-0.41
Mof_O 	O 	0.27802	0.0998	0.63613	-0.411
Mof_C 	C 	0.27828	0.08826	0.69215	0.367
Mof_C 	C 	0.24687	0.04142	0.70907	-0.135
Mof_C 	C 	0.22	0.01191	0.66255	0.072
Mof_H 	H 	0.22087	0.02143	0.62123	0.017
Mof_C 	C 	0.1921	0.96836	0.67861	-0.164
Mof_H 	H 	0.17427	0.94893	0.64763	0.098
Mof_C 	C 	0.19025	0.9534	0.73902	0.124
Mof_C 	C 	0.21684	0.98321	0.78569	-0.16
Mof_H 	H 	0.21557	0.97393	0.82723	0.089
Mof_C 	C 	0.24517	0.02678	0.76963	0.075
Mof_H 	H 	0.26317	0.04623	0.80053	0.02
Mof_C 	C 	0.16261	0.90643	0.75739	-0.082
Mof_C 	C 	0.18021	0.88688	0.79424	-0.036
Mof_H 	H 	0.20927	0.90353	0.80683	0.043
Mof_H 	H 	0.05687	0.89863	0.76303	-0.102
Mof_H 	H 	0.03887	0.91673	0.66513	0.303
Mof_O 	O 	0.96939	0.44557	0.06991	-0.41
Mof_O 	O 	0.94468	0.43314	0.96947	-0.412
Mof_C 	C 	0.94494	0.4216	0.02549	0.367
Mof_C 	C 	0.91353	0.37476	0.04241	-0.132
Mof_C 	C 	0.88666	0.34525	0.99589	0.067
Mof_H 	H 	0.88753	0.35477	0.95457	0.018
Mof_C 	C 	0.85876	0.3017	0.01195	-0.158
Mof_H 	H 	0.84093	0.28227	0.98097	0.095
Mof_C 	C 	0.85691	0.28674	0.07236	0.121
Mof_C 	C 	0.8835	0.31655	0.11903	-0.158
Mof_H 	H 	0.88223	0.30727	0.16057	0.088
Mof_C 	C 	0.91183	0.36012	0.10297	0.073
Mof_H 	H 	0.92983	0.37957	0.13387	0.021
Mof_C 	C 	0.82927	0.23977	0.09073	-0.08
Mof_C 	C 	0.84687	0.22022	0.12758	-0.038
Mof_H 	H 	0.87593	0.23687	0.14017	0.044
Mof_H 	H 	0.72353	0.23197	0.09637	-0.1
Mof_H 	H 	0.70553	0.25007	0.99847	0.298
Mof_O 	O 	0.2211	0.85716	0.40324	-0.41
Mof_O 	O 	0.23353	0.84488	0.3028	-0.411
Mof_C 	C 	0.24507	0.85668	0.35882	0.368
Mof_C 	C 	0.29191	0.87211	0.37574	-0.136
Mof_C 	C 	0.32142	0.87475	0.32922	0.074
Mof_H 	H 	0.3119	0.8661	0.2879	0.016
Mof_C 	C 	0.36497	0.8904	0.34528	-0.166
Mof_H 	H 	0.3844	0.892	0.3143	0.099
Mof_C 	C 	0.37993	0.90351	0.40569	0.125
Mof_C 	C 	0.35012	0.90029	0.45236	-0.162
Mof_H 	H 	0.3594	0.9083	0.4939	0.089
Mof_C 	C 	0.30655	0.88505	0.4363	0.077
Mof_H 	H 	0.2871	0.8836	0.4672	0.02
Mof_C 	C 	0.4269	0.92284	0.42406	-0.083
Mof_C 	C 	0.44645	0.95999	0.46091	-0.036
Mof_H 	H 	0.4298	0.9724	0.4735	0.043
Mof_H 	H 	0.4347	0.8249	0.4297	-0.103
Mof_H 	H 	0.4166	0.7888	0.3318	0.302
Mof_O 	O 	0.88777	0.19049	0.73657	-0.41
Mof_O 	O 	0.9002	0.17821	0.63613	-0.411
Mof_C 	C 	0.91174	0.19001	0.69215	0.367
Mof_C 	C 	0.95858	0.20544	0.70907	-0.135
Mof_C 	C 	0.98809	0.20808	0.66255	0.073
Mof_H 	H 	0.97857	0.19943	0.62123	0.017
Mof_C 	C 	0.03164	0.22373	0.67861	-0.164
Mof_H 	H 	0.05107	0.22533	0.64763	0.098
Mof_C 	C 	0.0466	0.23684	0.73902	0.124
Mof_C 	C 	0.01679	0.23362	0.78569	-0.16
Mof_H 	H 	0.02607	0.24163	0.82723	0.089
Mof_C 	C 	0.97322	0.21838	0.76963	0.075
Mof_H 	H 	0.95377	0.21693	0.80053	0.02
Mof_C 	C 	0.09357	0.25617	0.75739	-0.083
Mof_C 	C 	0.11312	0.29332	0.79424	-0.036
Mof_H 	H 	0.09647	0.30573	0.80683	0.043
Mof_H 	H 	0.10137	0.15823	0.76303	-0.103
Mof_H 	H 	0.08327	0.12213	0.66513	0.302
Mof_O 	O 	0.55443	0.52383	0.06991	-0.41
Mof_O 	O 	0.56686	0.51155	0.96947	-0.411
Mof_C 	C 	0.5784	0.52335	0.02549	0.367
Mof_C 	C 	0.62524	0.53878	0.04241	-0.135
Mof_C 	C 	0.65475	0.54142	0.99589	0.072
Mof_H 	H 	0.64523	0.53277	0.95457	0.017
Mof_C 	C 	0.6983	0.55707	0.01195	-0.163
Mof_H 	H 	0.71773	0.55867	0.98097	0.098
Mof_C 	C 	0.71326	0.57018	0.07236	0.124
Mof_C 	C 	0.68345	0.56696	0.11903	-0.161
Mof_H 	H 	0.69273	0.57497	0.16057	0.089
Mof_C 	C 	0.63988	0.55172	0.10297	0.076
Mof_H 	H 	0.62043	0.55027	0.13387	0.02
Mof_C 	C 	0.76023	0.58951	0.09073	-0.082
Mof_C 	C 	0.77978	0.62666	0.12758	-0.037
Mof_H 	H 	0.76313	0.63907	0.14017	0.044
Mof_H 	H 	0.76803	0.49157	0.09637	-0.101
Mof_H 	H 	0.74993	0.45547	0.99847	0.3
Mof_O 	O 	0.14284	0.36394	0.40324	-0.41
Mof_O 	O 	0.15512	0.38865	0.3028	-0.411
Mof_C 	C 	0.14332	0.38839	0.35882	0.368
Mof_C 	C 	0.12789	0.4198	0.37574	-0.136
Mof_C 	C 	0.12525	0.44667	0.32922	0.074
Mof_H 	H 	0.1339	0.4458	0.2879	0.016
Mof_C 	C 	0.1096	0.47457	0.34528	-0.166
Mof_H 	H 	0.108	0.4924	0.3143	0.099
Mof_C 	C 	0.09649	0.47642	0.40569	0.125
Mof_C 	C 	0.09971	0.44983	0.45236	-0.162
Mof_H 	H 	0.0917	0.4511	0.4939	0.089
Mof_C 	C 	0.11495	0.4215	0.4363	0.077
Mof_H 	H 	0.1164	0.4035	0.4672	0.02
Mof_C 	C 	0.07716	0.50406	0.42406	-0.083
Mof_C 	C 	0.04001	0.48646	0.46091	-0.036
Mof_H 	H 	0.0276	0.4574	0.4735	0.043
Mof_H 	H 	0.1751	0.6098	0.4297	-0.103
Mof_H 	H 	0.2112	0.6278	0.3318	0.302
Mof_O 	O 	0.80951	0.69727	0.73657	-0.41
Mof_O 	O 	0.82179	0.72198	0.63613	-0.411
Mof_C 	C 	0.80999	0.72172	0.69215	0.368
Mof_C 	C 	0.79456	0.75313	0.70907	-0.136
Mof_C 	C 	0.79192	0.78	0.66255	0.074
Mof_H 	H 	0.80057	0.77913	0.62123	0.016
Mof_C 	C 	0.77627	0.8079	0.67861	-0.166
Mof_H 	H 	0.77467	0.82573	0.64763	0.099
Mof_C 	C 	0.76316	0.80975	0.73902	0.125
Mof_C 	C 	0.76638	0.78316	0.78569	-0.162
Mof_H 	H 	0.75837	0.78443	0.82723	0.089
Mof_C 	C 	0.78162	0.75483	0.76963	0.077
Mof_H 	H 	0.78307	0.73683	0.80053	0.02
Mof_C 	C 	0.74383	0.83739	0.75739	-0.083
Mof_C 	C 	0.70668	0.81979	0.79424	-0.036
Mof_H 	H 	0.69427	0.79073	0.80683	0.043
Mof_H 	H 	0.84177	0.94313	0.76303	-0.103
Mof_H 	H 	0.87787	0.96113	0.66513	0.303
Mof_O 	O 	0.47617	0.03061	0.06991	-0.41
Mof_O 	O 	0.48845	0.05532	0.96947	-0.412
Mof_C 	C 	0.47665	0.05506	0.02549	0.368
Mof_C 	C 	0.46122	0.08647	0.04241	-0.133
Mof_C 	C 	0.45858	0.11334	0.99589	0.069
Mof_H 	H 	0.46723	0.11247	0.95457	0.018
Mof_C 	C 	0.44293	0.14124	0.01195	-0.161
Mof_H 	H 	0.44133	0.15907	0.98097	0.097
Mof_C 	C 	0.42982	0.14309	0.07236	0.123
Mof_C 	C 	0.43304	0.1165	0.11903	-0.16
Mof_H 	H 	0.42503	0.11777	0.16057	0.088
Mof_C 	C 	0.44828	0.08817	0.10297	0.074
Mof_H 	H 	0.44973	0.07017	0.13387	0.021
Mof_C 	C 	0.41049	0.17073	0.09073	-0.081
Mof_C 	C 	0.37334	0.15313	0.12758	-0.037
Mof_H 	H 	0.36093	0.12407	0.14017	0.044
Mof_H 	H 	0.50843	0.27647	0.09637	-0.101
Mof_H 	H 	0.54453	0.29447	0.99847	0.3
Mof_O 	O 	0.7789	0.63606	0.59676	-0.41
Mof_O 	O 	0.76647	0.61135	0.6972	-0.411
Mof_C 	C 	0.75493	0.61161	0.64118	0.368
Mof_C 	C 	0.70809	0.5802	0.62426	-0.136
Mof_C 	C 	0.67858	0.55333	0.67078	0.074
Mof_H 	H 	0.6881	0.5542	0.7121	0.016
Mof_C 	C 	0.63503	0.52543	0.65472	-0.166
Mof_H 	H 	0.6156	0.5076	0.6857	0.099
Mof_C 	C 	0.62007	0.52358	0.59431	0.125
Mof_C 	C 	0.64988	0.55017	0.54764	-0.162
Mof_H 	H 	0.6406	0.5489	0.5061	0.089
Mof_C 	C 	0.69345	0.5785	0.5637	0.077
Mof_H 	H 	0.7129	0.5965	0.5328	0.02
Mof_C 	C 	0.5731	0.49594	0.57594	-0.083
Mof_C 	C 	0.55355	0.51354	0.53909	-0.036
Mof_H 	H 	0.5702	0.5426	0.5265	0.043
Mof_H 	H 	0.5653	0.3902	0.5703	-0.103
Mof_H 	H 	0.5834	0.3722	0.6682	0.303
Mof_O 	O 	0.44557	0.96939	0.93009	-0.41
Mof_O 	O 	0.43314	0.94468	0.03053	-0.412
Mof_C 	C 	0.4216	0.94494	0.97451	0.367
Mof_C 	C 	0.37476	0.91353	0.95759	-0.132
Mof_C 	C 	0.34525	0.88666	0.00411	0.067
Mof_H 	H 	0.35477	0.88753	0.04543	0.018
Mof_C 	C 	0.3017	0.85876	0.98805	-0.158
Mof_H 	H 	0.28227	0.84093	0.01903	0.095
Mof_C 	C 	0.28674	0.85691	0.92764	0.121
Mof_C 	C 	0.31655	0.8835	0.88097	-0.158
Mof_H 	H 	0.30727	0.88223	0.83943	0.088
Mof_C 	C 	0.36012	0.91183	0.89703	0.073
Mof_H 	H 	0.37957	0.92983	0.86613	0.021
Mof_C 	C 	0.23977	0.82927	0.90927	-0.08
Mof_C 	C 	0.22022	0.84687	0.87242	-0.038
Mof_H 	H 	0.23687	0.87593	0.85983	0.044
Mof_H 	H 	0.23197	0.72353	0.90363	-0.1
Mof_H 	H 	0.25007	0.70553	0.00153	0.298
Mof_O 	O 	0.11223	0.30273	0.26343	-0.41
Mof_O 	O 	0.0998	0.27802	0.36387	-0.411
Mof_C 	C 	0.08826	0.27828	0.30785	0.367
Mof_C 	C 	0.04142	0.24687	0.29093	-0.135
Mof_C 	C 	0.01191	0.22	0.33745	0.072
Mof_H 	H 	0.02143	0.22087	0.37877	0.017
Mof_C 	C 	0.96836	0.1921	0.32139	-0.164
Mof_H 	H 	0.94893	0.17427	0.35237	0.098
Mof_C 	C 	0.9534	0.19025	0.26098	0.124
Mof_C 	C 	0.98321	0.21684	0.21431	-0.16
Mof_H 	H 	0.97393	0.21557	0.17277	0.089
Mof_C 	C 	0.02678	0.24517	0.23037	0.075
Mof_H 	H 	0.04623	0.26317	0.19947	0.02
Mof_C 	C 	0.90643	0.16261	0.24261	-0.082
Mof_C 	C 	0.88688	0.18021	0.20576	-0.036
Mof_H 	H 	0.90353	0.20927	0.19317	0.043
Mof_H 	H 	0.89863	0.05687	0.23697	-0.102
Mof_H 	H 	0.91673	0.03887	0.33487	0.303
Mof_O 	O 	0.85716	0.2211	0.59676	-0.41
Mof_O 	O 	0.84488	0.23353	0.6972	-0.411
Mof_C 	C 	0.85668	0.24507	0.64118	0.368
Mof_C 	C 	0.87211	0.29191	0.62426	-0.136
Mof_C 	C 	0.87475	0.32142	0.67078	0.074
Mof_H 	H 	0.8661	0.3119	0.7121	0.016
Mof_C 	C 	0.8904	0.36497	0.65472	-0.166
Mof_H 	H 	0.892	0.3844	0.6857	0.099
Mof_C 	C 	0.90351	0.37993	0.59431	0.125
Mof_C 	C 	0.90029	0.35012	0.54764	-0.162
Mof_H 	H 	0.9083	0.3594	0.5061	0.089
Mof_C 	C 	0.88505	0.30655	0.5637	0.077
Mof_H 	H 	0.8836	0.2871	0.5328	0.02
Mof_C 	C 	0.92284	0.4269	0.57594	-0.083
Mof_C 	C 	0.95999	0.44645	0.53909	-0.036
Mof_H 	H 	0.9724	0.4298	0.5265	0.043
Mof_H 	H 	0.8249	0.4347	0.5703	-0.103
Mof_H 	H 	0.7888	0.4166	0.6682	0.302
Mof_O 	O 	0.52383	0.55443	0.93009	-0.41
Mof_O 	O 	0.51155	0.56686	0.03053	-0.411
Mof_C 	C 	0.52335	0.5784	0.97451	0.367
Mof_C 	C 	0.53878	0.62524	0.95759	-0.135
Mof_C 	C 	0.54142	0.65475	0.00411	0.072
Mof_H 	H 	0.53277	0.64523	0.04543	0.017
Mof_C 	C 	0.55707	0.6983	0.98805	-0.163
Mof_H 	H 	0.55867	0.71773	0.01903	0.098
Mof_C 	C 	0.57018	0.71326	0.92764	0.124
Mof_C 	C 	0.56696	0.68345	0.88097	-0.161
Mof_H 	H 	0.57497	0.69273	0.83943	0.089
Mof_C 	C 	0.55172	0.63988	0.89703	0.076
Mof_H 	H 	0.55027	0.62043	0.86613	0.02
Mof_C 	C 	0.58951	0.76023	0.90927	-0.082
Mof_C 	C 	0.62666	0.77978	0.87242	-0.037
Mof_H 	H 	0.63907	0.76313	0.85983	0.044
Mof_H 	H 	0.49157	0.76803	0.90363	-0.101
Mof_H 	H 	0.45547	0.74993	0.00153	0.3
Mof_O 	O 	0.19049	0.88777	0.26343	-0.41
Mof_O 	O 	0.17821	0.9002	0.36387	-0.411
Mof_C 	C 	0.19001	0.91174	0.30785	0.367
Mof_C 	C 	0.20544	0.95858	0.29093	-0.135
Mof_C 	C 	0.20808	0.98809	0.33745	0.073
Mof_H 	H 	0.19943	0.97857	0.37877	0.017
Mof_C 	C 	0.22373	0.03164	0.32139	-0.164
Mof_H 	H 	0.22533	0.05107	0.35237	0.098
Mof_C 	C 	0.23684	0.0466	0.26098	0.124
Mof_C 	C 	0.23362	0.01679	0.21431	-0.16
Mof_H 	H 	0.24163	0.02607	0.17277	0.089
Mof_C 	C 	0.21838	0.97322	0.23037	0.075
Mof_H 	H 	0.21693	0.95377	0.19947	0.02
Mof_C 	C 	0.25617	0.09357	0.24261	-0.083
Mof_C 	C 	0.29332	0.11312	0.20576	-0.036
Mof_H 	H 	0.30573	0.09647	0.19317	0.043
Mof_H 	H 	0.15823	0.10137	0.23697	-0.103
Mof_H 	H 	0.12213	0.08327	0.33487	0.302
Mof_O 	O 	0.36394	0.14284	0.59676	-0.41
Mof_O 	O 	0.38865	0.15512	0.6972	-0.411
Mof_C 	C 	0.38839	0.14332	0.64118	0.368
Mof_C 	C 	0.4198	0.12789	0.62426	-0.136
Mof_C 	C 	0.44667	0.12525	0.67078	0.074
Mof_H 	H 	0.4458	0.1339	0.7121	0.016
Mof_C 	C 	0.47457	0.1096	0.65472	-0.166
Mof_H 	H 	0.4924	0.108	0.6857	0.099
Mof_C 	C 	0.47642	0.09649	0.59431	0.125
Mof_C 	C 	0.44983	0.09971	0.54764	-0.162
Mof_H 	H 	0.4511	0.0917	0.5061	0.089
Mof_C 	C 	0.4215	0.11495	0.5637	0.077
Mof_H 	H 	0.4035	0.1164	0.5328	0.02
Mof_C 	C 	0.50406	0.07716	0.57594	-0.083
Mof_C 	C 	0.48646	0.04001	0.53909	-0.036
Mof_H 	H 	0.4574	0.0276	0.5265	0.043
Mof_H 	H 	0.6098	0.1751	0.5703	-0.103
Mof_H 	H 	0.6278	0.2112	0.6682	0.302
Mof_O 	O 	0.03061	0.47617	0.93009	-0.41
Mof_O 	O 	0.05532	0.48845	0.03053	-0.412
Mof_C 	C 	0.05506	0.47665	0.97451	0.368
Mof_C 	C 	0.08647	0.46122	0.95759	-0.133
Mof_C 	C 	0.11334	0.45858	0.00411	0.069
Mof_H 	H 	0.11247	0.46723	0.04543	0.018
Mof_C 	C 	0.14124	0.44293	0.98805	-0.161
Mof_H 	H 	0.15907	0.44133	0.01903	0.097
Mof_C 	C 	0.14309	0.42982	0.92764	0.123
Mof_C 	C 	0.1165	0.43304	0.88097	-0.16
Mof_H 	H 	0.11777	0.42503	0.83943	0.088
Mof_C 	C 	0.08817	0.44828	0.89703	0.074
Mof_H 	H 	0.07017	0.44973	0.86613	0.021
Mof_C 	C 	0.17073	0.41049	0.90927	-0.081
Mof_C 	C 	0.15313	0.37334	0.87242	-0.037
Mof_H 	H 	0.12407	0.36093	0.85983	0.044
Mof_H 	H 	0.27647	0.50843	0.90363	-0.101
Mof_H 	H 	0.29447	0.54453	0.00153	0.3
Mof_O 	O 	0.69727	0.80951	0.26343	-0.41
Mof_O 	O 	0.72198	0.82179	0.36387	-0.411
Mof_C 	C 	0.72172	0.80999	0.30785	0.368
Mof_C 	C 	0.75313	0.79456	0.29093	-0.136
Mof_C 	C 	0.78	0.79192	0.33745	0.074
Mof_H 	H 	0.77913	0.80057	0.37877	0.016
Mof_C 	C 	0.8079	0.77627	0.32139	-0.166
Mof_H 	H 	0.82573	0.77467	0.35237	0.099
Mof_C 	C 	0.80975	0.76316	0.26098	0.125
Mof_C 	C 	0.78316	0.76638	0.21431	-0.162
Mof_H 	H 	0.78443	0.75837	0.17277	0.089
Mof_C 	C 	0.75483	0.78162	0.23037	0.077
Mof_H 	H 	0.73683	0.78307	0.19947	0.02
Mof_C 	C 	0.83739	0.74383	0.24261	-0.083
Mof_C 	C 	0.81979	0.70668	0.20576	-0.036
Mof_H 	H 	0.79073	0.69427	0.19317	0.043
Mof_H 	H 	0.94313	0.84177	0.23697	-0.103
Mof_H 	H 	0.96113	0.87787	0.33487	0.303
Mof_Cu	Cu	0.31914	0.15957	0.6077	0.903
Mof_Cu	Cu	0.98581	0.4929	0.94103	0.903
Mof_Cu	Cu	0.65247	0.82624	0.27437	0.903
Mof_Cu	Cu	0.84043	0.15957	0.6077	0.903
Mof_Cu	Cu	0.5071	0.4929	0.94103	0.903
Mof_Cu	Cu	0.17376	0.82624	0.27437	0.903
Mof_Cu	Cu	0.84043	0.68086	0.6077	0.903
Mof_Cu	Cu	0.5071	0.01419	0.94103	0.903
Mof_Cu	Cu	0.17376	0.34753	0.27437	0.903
Mof_Cu	Cu	0.15957	0.31914	0.3923	0.903
Mof_Cu	Cu	0.82624	0.65247	0.72563	0.903
Mof_Cu	Cu	0.4929	0.98581	0.05897	0.903
Mof_Cu	Cu	0.15957	0.84043	0.3923	0.903
Mof_Cu	Cu	0.82624	0.17376	0.72563	0.903
Mof_Cu	Cu	0.4929	0.5071	0.05897	0.903
Mof_Cu	Cu	0.68086	0.84043	0.3923	0.903
Mof_Cu	Cu	0.34753	0.17376	0.72563	0.903
Mof_Cu	Cu	0.01419	0.5071	0.05897	0.903
Mof_O 	O 	0.56634	0.43366	0.63314	-0.302
Mof_C 	C 	0.51005	0.48995	0.5197	0.002
Mof_C 	C 	0.54801	0.45199	0.5954	0.164
Mof_C 	C 	0.58691	0.41309	0.5972	0.45
Mof_C 	C 	0.60615	0.39385	0.642	-0.923
Mof_H 	H 	0.6195	0.3805	0.6181	0.293
Mof_O 	O 	0.23301	0.76699	0.96647	-0.3
Mof_C 	C 	0.17672	0.82328	0.85303	0.004
Mof_C 	C 	0.21468	0.78532	0.92873	0.162
Mof_C 	C 	0.25358	0.74642	0.93053	0.443
Mof_C 	C 	0.27282	0.72718	0.97533	-0.91
Mof_H 	H 	0.28617	0.71383	0.95143	0.289
Mof_O 	O 	0.89967	0.10033	0.29981	-0.302
Mof_C 	C 	0.84338	0.15662	0.18637	0.002
Mof_C 	C 	0.88134	0.11866	0.26207	0.164
Mof_C 	C 	0.92024	0.07976	0.26387	0.45
Mof_C 	C 	0.93948	0.06052	0.30867	-0.924
Mof_H 	H 	0.95283	0.04717	0.28477	0.293
Mof_O 	O 	0.56634	0.13268	0.63314	-0.302
Mof_C 	C 	0.51005	0.0201	0.5197	0.002
Mof_C 	C 	0.54801	0.09602	0.5954	0.164
Mof_C 	C 	0.58691	0.17382	0.5972	0.45
Mof_C 	C 	0.60615	0.2123	0.642	-0.923
Mof_H 	H 	0.6195	0.239	0.6181	0.293
Mof_O 	O 	0.23301	0.46601	0.96647	-0.301
Mof_C 	C 	0.17672	0.35343	0.85303	0.003
Mof_C 	C 	0.21468	0.42935	0.92873	0.163
Mof_C 	C 	0.25358	0.50715	0.93053	0.446
Mof_C 	C 	0.27282	0.54563	0.97533	-0.915
Mof_H 	H 	0.28617	0.57233	0.95143	0.29
Mof_O 	O 	0.89967	0.79935	0.29981	-0.302
Mof_C 	C 	0.84338	0.68677	0.18637	0.002
Mof_C 	C 	0.88134	0.76269	0.26207	0.164
Mof_C 	C 	0.92024	0.84049	0.26387	0.45
Mof_C 	C 	0.93948	0.87897	0.30867	-0.923
Mof_H 	H 	0.95283	0.90567	0.28477	0.293
Mof_O 	O 	0.86732	0.43366	0.63314	-0.302
Mof_C 	C 	0.9799	0.48995	0.5197	0.002
Mof_C 	C 	0.90398	0.45199	0.5954	0.164
Mof_C 	C 	0.82618	0.41309	0.5972	0.45
Mof_C 	C 	0.7877	0.39385	0.642	-0.923
Mof_H 	H 	0.761	0.3805	0.6181	0.293
Mof_O 	O 	0.53399	0.76699	0.96647	-0.301
Mof_C 	C 	0.64657	0.82328	0.85303	0.003
Mof_C 	C 	0.57065	0.78532	0.92873	0.163
Mof_C 	C 	0.49285	0.74642	0.93053	0.446
Mof_C 	C 	0.45437	0.72718	0.97533	-0.915
Mof_H 	H 	0.42767	0.71383	0.95143	0.29
Mof_O 	O 	0.20065	0.10033	0.29981	-0.302
Mof_C 	C 	0.31323	0.15662	0.18637	0.002
Mof_C 	C 	0.23731	0.11866	0.26207	0.164
Mof_C 	C 	0.15951	0.07976	0.26387	0.45
Mof_C 	C 	0.12103	0.06052	0.30867	-0.923
Mof_H 	H 	0.09433	0.04717	0.28477	0.293
Mof_O 	O 	0.43366	0.56634	0.36686	-0.302
Mof_C 	C 	0.48995	0.51005	0.4803	0.002
Mof_C 	C 	0.45199	0.54801	0.4046	0.164
Mof_C 	C 	0.41309	0.58691	0.4028	0.45
Mof_C 	C 	0.39385	0.60615	0.358	-0.923
Mof_H 	H 	0.3805	0.6195	0.3819	0.293
Mof_O 	O 	0.10033	0.89967	0.70019	-0.302
Mof_C 	C 	0.15662	0.84338	0.81363	0.002
Mof_C 	C 	0.11866	0.88134	0.73793	0.164
Mof_C 	C 	0.07976	0.92024	0.73613	0.45
Mof_C 	C 	0.06052	0.93948	0.69133	-0.924
Mof_H 	H 	0.04717	0.95283	0.71523	0.293
Mof_O 	O 	0.76699	0.23301	0.03353	-0.3
Mof_C 	C 	0.82328	0.17672	0.14697	0.004
Mof_C 	C 	0.78532	0.21468	0.07127	0.162
Mof_C 	C 	0.74642	0.25358	0.06947	0.443
Mof_C 	C 	0.72718	0.27282	0.02467	-0.91
Mof_H 	H 	0.71383	0.28617	0.04857	0.289
Mof_O 	O 	0.13268	0.56634	0.36686	-0.302
Mof_C 	C 	0.0201	0.51005	0.4803	0.002
Mof_C 	C 	0.09602	0.54801	0.4046	0.164
Mof_C 	C 	0.17382	0.58691	0.4028	0.45
Mof_C 	C 	0.2123	0.60615	0.358	-0.923
Mof_H 	H 	0.239	0.6195	0.3819	0.293
Mof_O 	O 	0.79935	0.89967	0.70019	-0.302
Mof_C 	C 	0.68677	0.84338	0.81363	0.002
Mof_C 	C 	0.76269	0.88134	0.73793	0.164
Mof_C 	C 	0.84049	0.92024	0.73613	0.45
Mof_C 	C 	0.87897	0.93948	0.69133	-0.923
Mof_H 	H 	0.90567	0.95283	0.71523	0.293
Mof_O 	O 	0.46601	0.23301	0.03353	-0.301
Mof_C 	C 	0.35343	0.17672	0.14697	0.003
Mof_C 	C 	0.42935	0.21468	0.07127	0.163
Mof_C 	C 	0.50715	0.25358	0.06947	0.446
Mof_C 	C 	0.54563	0.27282	0.02467	-0.915
Mof_H 	H 	0.57233	0.28617	0.04857	0.29
Mof_O 	O 	0.43366	0.86732	0.36686	-0.302
Mof_C 	C 	0.48995	0.9799	0.4803	0.002
Mof_C 	C 	0.45199	0.90398	0.4046	0.164
Mof_C 	C 	0.41309	0.82618	0.4028	0.45
Mof_C 	C 	0.39385	0.7877	0.358	-0.923
Mof_H 	H 	0.3805	0.761	0.3819	0.293
Mof_O 	O 	0.10033	0.20065	0.70019	-0.302
Mof_C 	C 	0.15662	0.31323	0.81363	0.002
Mof_C 	C 	0.11866	0.23731	0.73793	0.164
Mof_C 	C 	0.07976	0.15951	0.73613	0.45
Mof_C 	C 	0.06052	0.12103	0.69133	-0.923
Mof_H 	H 	0.04717	0.09433	0.71523	0.293
Mof_O 	O 	0.76699	0.53399	0.03353	-0.301
Mof_C 	C 	0.82328	0.64657	0.14697	0.003
Mof_C 	C 	0.78532	0.57065	0.07127	0.163
Mof_C 	C 	0.74642	0.49285	0.06947	0.446
Mof_C 	C 	0.72718	0.45437	0.02467	-0.915
Mof_H 	H 	0.71383	0.42767	0.04857	0.29
_end
