data_functionalizedCrystal
_audit_creation_method	'EQeq! by Chris Wilmer'
_symmetry_space_group_name_H-M	'P1'
_symmetry_Int_Tables_number	1
_symmetry_cell_setting	triclinic
loop_
_symmetry_equiv_pos_as_xyz
  x,y,z
_cell_length_a	13.049
_cell_length_b	13.9009
_cell_length_c	13.9009
_cell_angle_alpha	90
_cell_angle_beta	90
_cell_angle_gamma	90
loop_
_atom_site_label
_atom_site_type_symbol
_atom_site_fract_x
_atom_site_fract_y
_atom_site_fract_z
_atom_site_charge
Mof_Gd	Gd	0.88382	0.71308	0.21307	1.216
Mof_Gd	Gd	0.88382	0.28692	0.78693	1.233
Mof_Gd	Gd	0.11618	0.21307	0.28692	1.178
Mof_Gd	Gd	0.11618	0.78693	0.71308	1.274
Mof_H 	H 	0.7659	0.8389	0.6603	-0.008
Mof_H 	H 	0.6102	0.7781	0.7196	0.161
Mof_H 	H 	0.4582	0.8399	0.6609	0.019
Mof_H 	H 	0.5524	0.8165	0.3185	0.116
Mof_H 	H 	0.7659	0.1611	0.3397	-0.019
Mof_H 	H 	0.6102	0.2219	0.2804	0.148
Mof_H 	H 	0.4582	0.1601	0.3391	0.016
Mof_H 	H 	0.5524	0.1835	0.6815	0.109
Mof_H 	H 	0.2341	0.6603	0.1611	-0.013
Mof_H 	H 	0.3898	0.7196	0.2219	0.153
Mof_H 	H 	0.5418	0.6609	0.1601	0.016
Mof_H 	H 	0.4476	0.3185	0.1835	0.108
Mof_H 	H 	0.2341	0.3397	0.8389	-0.013
Mof_H 	H 	0.3898	0.2804	0.7781	0.156
Mof_H 	H 	0.5418	0.3391	0.8399	0.019
Mof_H 	H 	0.4476	0.6815	0.8165	0.118
Mof_Ru	Ru	0.8303	0	0.5	0.773
Mof_Ru	Ru	0.39232	0	0.5	0.864
Mof_Ru	Ru	0.1697	0.5	-0	0.774
Mof_Ru	Ru	0.60768	0.5	-0	0.864
Mof_C 	C 	0.6123	0.9623	0.5372	0.2
Mof_C 	C 	0.7027	0.8629	0.6362	0.186
Mof_C 	C 	0.6107	0.8269	0.6718	-0.131
Mof_C 	C 	0.5213	0.8635	0.6362	0.22
Mof_C 	C 	0.8417	0.8988	0.3945	-0.05
Mof_C 	C 	0.9334	0.9252	0.5739	-0.079
Mof_C 	C 	0.3771	0.1037	0.6024	-0.101
Mof_C 	C 	0.7143	0.5721	0.0667	-0.153
Mof_C 	C 	0.6599	0.712	0.3365	0.034
Mof_C 	C 	0.6142	0.7913	0.2925	-0.038
Mof_C 	C 	0.6567	0.8346	0.2116	0.023
Mof_C 	C 	0.6007	0.6653	0.4215	0.816
Mof_C 	C 	0.5981	0.9184	0.1648	0.902
Mof_C 	C 	0.6123	0.0377	0.4628	0.034
Mof_C 	C 	0.7027	0.1371	0.3638	0.159
Mof_C 	C 	0.6107	0.1731	0.3282	-0.131
Mof_C 	C 	0.5213	0.1365	0.3638	0.193
Mof_C 	C 	0.8417	0.1012	0.6055	-0.118
Mof_C 	C 	0.9334	0.0748	0.4261	-0.167
Mof_C 	C 	0.3771	0.8963	0.3976	-0.034
Mof_C 	C 	0.7143	0.4279	0.9333	-0.066
Mof_C 	C 	0.6599	0.288	0.6635	0.033
Mof_C 	C 	0.6142	0.2087	0.7075	-0.038
Mof_C 	C 	0.6567	0.1654	0.7884	0.017
Mof_C 	C 	0.6007	0.3347	0.5785	0.816
Mof_C 	C 	0.5981	0.0816	0.8352	0.905
Mof_C 	C 	0.3877	0.5372	0.0377	0.034
Mof_C 	C 	0.2973	0.6362	0.1371	0.161
Mof_C 	C 	0.3893	0.6718	0.1731	-0.129
Mof_C 	C 	0.4787	0.6362	0.1365	0.194
Mof_C 	C 	0.1583	0.3945	0.1012	-0.122
Mof_C 	C 	0.0666	0.5739	0.0748	-0.164
Mof_C 	C 	0.6229	0.6024	0.8963	-0.032
Mof_C 	C 	0.2857	0.0667	0.4279	-0.155
Mof_C 	C 	0.3401	0.3365	0.288	0.031
Mof_C 	C 	0.3858	0.2925	0.2087	-0.035
Mof_C 	C 	0.3433	0.2116	0.1654	0.009
Mof_C 	C 	0.3993	0.4215	0.3347	0.817
Mof_C 	C 	0.4019	0.1648	0.0816	0.909
Mof_C 	C 	0.3877	0.4628	0.9623	0.2
Mof_C 	C 	0.2973	0.3638	0.8629	0.184
Mof_C 	C 	0.3893	0.3282	0.8269	-0.133
Mof_C 	C 	0.4787	0.3638	0.8635	0.219
Mof_C 	C 	0.1583	0.6055	0.8988	-0.046
Mof_C 	C 	0.0666	0.4261	0.9252	-0.083
Mof_C 	C 	0.6229	0.3976	0.1037	-0.103
Mof_C 	C 	0.2857	0.9333	0.5721	-0.064
Mof_C 	C 	0.3401	0.6635	0.712	0.037
Mof_C 	C 	0.3858	0.7075	0.7913	-0.041
Mof_C 	C 	0.3433	0.7884	0.8346	0.031
Mof_C 	C 	0.3993	0.5785	0.6653	0.815
Mof_C 	C 	0.4019	0.8352	0.9184	0.898
Mof_N 	N 	0.703	0.9311	0.5681	-0.206
Mof_N 	N 	0.5192	0.9317	0.5674	-0.198
Mof_N 	N 	0.7761	0.6168	0.1059	-0.157
Mof_N 	N 	0.8595	0.8446	0.3353	-0.171
Mof_N 	N 	0.9902	0.8825	0.62	-0.192
Mof_N 	N 	0.3565	0.1589	0.6615	-0.03
Mof_N 	N 	0.703	0.0689	0.4319	-0.211
Mof_N 	N 	0.5192	0.0683	0.4326	-0.204
Mof_N 	N 	0.7761	0.3832	0.8941	-0.157
Mof_N 	N 	0.8595	0.1554	0.6647	-0.169
Mof_N 	N 	0.9902	0.1175	0.38	-0.192
Mof_N 	N 	0.3565	0.8411	0.3385	-0.034
Mof_N 	N 	0.297	0.5681	0.0689	-0.21
Mof_N 	N 	0.4808	0.5674	0.0683	-0.204
Mof_N 	N 	0.2239	0.1059	0.3832	-0.156
Mof_N 	N 	0.1405	0.3353	0.1554	-0.168
Mof_N 	N 	0.0098	0.62	0.1175	-0.19
Mof_N 	N 	0.6435	0.6615	0.8411	-0.029
Mof_N 	N 	0.297	0.4319	0.9311	-0.207
Mof_N 	N 	0.4808	0.4326	0.9317	-0.198
Mof_N 	N 	0.2239	0.8941	0.6168	-0.158
Mof_N 	N 	0.1405	0.6647	0.8446	-0.172
Mof_N 	N 	0.0098	0.38	0.8825	-0.193
Mof_N 	N 	0.6435	0.3385	0.1589	-0.035
Mof_O 	O 	0.7413	0.6683	0.3155	-0.255
Mof_O 	O 	0.7394	0.8142	0.1695	-0.249
Mof_O 	O 	0.7413	0.3317	0.6845	-0.255
Mof_O 	O 	0.7394	0.1858	0.8305	-0.243
Mof_O 	O 	0.2587	0.3155	0.3317	-0.25
Mof_O 	O 	0.2606	0.1695	0.1858	-0.26
Mof_O 	O 	0.2587	0.6845	0.6683	-0.26
Mof_O 	O 	0.2606	0.8305	0.8142	-0.233
Mof_F 	F 	0.6618	0.6637	0.5033	-0.415
Mof_F 	F 	0.5218	0.7131	0.4527	-0.46
Mof_F 	F 	0.5863	0.5712	0.4154	-0.358
Mof_F 	F 	0.5063	0.8838	0.1351	-0.413
Mof_F 	F 	0.6449	0.958	0.0991	-0.454
Mof_F 	F 	0.5739	0.9829	0.2338	-0.44
Mof_F 	F 	0.6618	0.3363	0.4967	-0.415
Mof_F 	F 	0.5218	0.2869	0.5473	-0.46
Mof_F 	F 	0.5863	0.4288	0.5846	-0.358
Mof_F 	F 	0.5063	0.1162	0.8649	-0.402
Mof_F 	F 	0.6449	0.042	0.9009	-0.465
Mof_F 	F 	0.5739	0.0171	0.7662	-0.5
Mof_F 	F 	0.3382	0.5033	0.3363	-0.415
Mof_F 	F 	0.4782	0.4527	0.2869	-0.46
Mof_F 	F 	0.4137	0.4154	0.4288	-0.358
Mof_F 	F 	0.4937	0.1351	0.1162	-0.438
Mof_F 	F 	0.3551	0.0991	0.042	-0.508
Mof_F 	F 	0.4261	0.2338	0.0171	-0.506
Mof_F 	F 	0.3382	0.4967	0.6637	-0.416
Mof_F 	F 	0.4782	0.5473	0.7131	-0.46
Mof_F 	F 	0.4137	0.5846	0.5712	-0.358
Mof_F 	F 	0.4937	0.8649	0.8838	-0.377
Mof_F 	F 	0.3551	0.9009	0.958	-0.41
Mof_F 	F 	0.4261	0.7662	0.9829	-0.434
_end
