data_functionalizedCrystal
_audit_creation_method	'EQeq! by Chris Wilmer'
_symmetry_space_group_name_H-M	'P1'
_symmetry_Int_Tables_number	1
_symmetry_cell_setting	triclinic
loop_
_symmetry_equiv_pos_as_xyz
  x,y,z
_cell_length_a	18.1158
_cell_length_b	22.152
_cell_length_c	30.718
_cell_angle_alpha	82.2082
_cell_angle_beta	72.8501
_cell_angle_gamma	65.8644
loop_
_atom_site_label
_atom_site_type_symbol
_atom_site_fract_x
_atom_site_fract_y
_atom_site_fract_z
_atom_site_charge
Mof_Zn	Zn	0.00991	0.28508	0.3113	1.151
Mof_Zn	Zn	0.48624	0.73382	0.69432	1.198
Mof_Zn	Zn	0.60629	0.21492	0.1887	1.152
Mof_Zn	Zn	0.12807	0.91269	0.70546	1.209
Mof_Zn	Zn	0.39371	0.78508	0.8113	1.152
Mof_Zn	Zn	0.87193	0.08731	0.29454	1.209
Mof_Zn	Zn	0.91438	0.76618	0.80568	1.198
Mof_Zn	Zn	0.74622	0.58731	0.79454	1.209
Mof_Zn	Zn	0.08562	0.23382	0.19432	1.198
Mof_Zn	Zn	0.51376	0.26618	0.30568	1.198
Mof_Zn	Zn	0.25378	0.41269	0.20546	1.209
Mof_Zn	Zn	0.99009	0.71492	0.6887	1.151
Mof_H 	H 	0.1876	0.6878	0.4566	0.015
Mof_H 	H 	0.0009	0.8624	0.1252	0.037
Mof_H 	H 	0.2655	0.253	0.4224	0.282
Mof_H 	H 	0.3283	0.2957	0.5161	0.034
Mof_H 	H 	0.9165	0.5258	0.095	0.025
Mof_H 	H 	0.668	0.1878	0.9566	0.015
Mof_H 	H 	0.8244	0.3168	0.885	0.036
Mof_H 	H 	0.531	0.355	0.4372	0.294
Mof_H 	H 	0.0835	0.4742	0.905	0.025
Mof_H 	H 	0.087	0.8044	0.324	0.102
Mof_H 	H 	0.8655	0.9012	0.108	0.038
Mof_H 	H 	0.0591	0.753	0.9224	0.282
Mof_H 	H 	0.432	0.4563	0.5177	0.086
Mof_H 	H 	0.1756	0.6832	0.115	0.036
Mof_H 	H 	0.2313	0.9199	0.4711	0.041
Mof_H 	H 	0.7131	0.4344	0.1138	0.012
Mof_H 	H 	0.5145	0.7289	0.8677	0.116
Mof_H 	H 	0.2869	0.5656	0.8862	0.012
Mof_H 	H 	0.1901	0.192	0.513	0.077
Mof_H 	H 	0.0362	0.133	0.1832	0.144
Mof_H 	H 	0.7769	0.2307	0.7271	0.085
Mof_H 	H 	0.8743	0.6356	0.6778	0.101
Mof_H 	H 	0.8952	0.0834	0.7094	0.293
Mof_H 	H 	0.3796	0.4575	0.8981	0.058
Mof_H 	H 	0.2764	0.6058	0.4918	0.104
Mof_H 	H 	0.406	0.0437	0.9823	0.086
Mof_H 	H 	0.2411	0.1259	0.4455	0.087
Mof_H 	H 	0.7236	0.3942	0.5082	0.104
Mof_H 	H 	0.8166	0.9621	0.8477	0.02
Mof_H 	H 	0.851	0.5115	0.0457	0.064
Mof_H 	H 	0.749	0.3686	0.4164	0.287
Mof_H 	H 	0.466	0.8686	0.9164	0.287
Mof_H 	H 	0.7783	0.8237	0.4429	0.078
Mof_H 	H 	0.6223	0.5801	0.0289	0.04
Mof_H 	H 	0.3777	0.4199	0.9711	0.04
Mof_H 	H 	0.5373	0.9742	0.405	0.025
Mof_H 	H 	0.7342	0.8738	0.0092	0.095
Mof_H 	H 	0.1111	0.7711	0.6323	0.116
Mof_H 	H 	0.0994	0.5141	0.6255	0.038
Mof_H 	H 	0.2154	0.6956	0.176	0.098
Mof_H 	H 	0.3524	0.367	0.3168	0.145
Mof_H 	H 	0.3943	0.5335	0.5129	0.09
Mof_H 	H 	0.1528	0.9196	0.793	0.13
Mof_H 	H 	0.8986	0.4391	0.6851	0.032
Mof_H 	H 	0.1863	0.331	0.1352	0.133
Mof_H 	H 	0.9551	0.3237	0.9429	0.078
Mof_H 	H 	0.239	0.9859	0.8745	0.037
Mof_H 	H 	0.688	0.4166	0.7906	0.293
Mof_H 	H 	0.0539	0.8413	0.8111	0.139
Mof_H 	H 	0.7846	0.3044	0.824	0.098
Mof_H 	H 	0.2658	0.1262	0.9908	0.095
Mof_H 	H 	0.4704	0.857	0.5788	0.029
Mof_H 	H 	0.8599	0.7957	0.0161	0.033
Mof_H 	H 	0.1346	0.4196	0.293	0.129
Mof_H 	H 	0.5918	0.0115	0.5457	0.065
Mof_H 	H 	0.4004	0.3195	0.1365	0.121
Mof_H 	H 	0.5296	0.143	0.4212	0.029
Mof_H 	H 	0.8581	0.5676	0.9766	0.041
Mof_H 	H 	0.4407	0.9665	0.9871	0.09
Mof_H 	H 	0.534	0.1314	0.0836	0.287
Mof_H 	H 	0.1345	0.0988	0.892	0.038
Mof_H 	H 	0.6476	0.633	0.6832	0.145
Mof_H 	H 	0.251	0.6314	0.5836	0.287
Mof_H 	H 	0.1667	0.6678	0.392	0.072
Mof_H 	H 	0.2653	0.7307	0.2271	0.085
Mof_H 	H 	0.9882	0.0947	0.2087	0.139
Mof_H 	H 	0.1014	0.5609	0.3149	0.032
Mof_H 	H 	0.9738	0.8168	0.385	0.029
Mof_H 	H 	0.0449	0.6763	0.0571	0.078
Mof_H 	H 	0.7352	0.0425	0.6019	0.057
Mof_H 	H 	0.469	0.645	0.5628	0.294
Mof_H 	H 	0.8747	0.5988	0.392	0.039
Mof_H 	H 	0.568	0.5437	0.4823	0.086
Mof_H 	H 	0.2231	0.7693	0.2729	0.085
Mof_H 	H 	0.6525	0.169	0.3648	0.133
Mof_H 	H 	0.0748	0.264	0.5922	0.066
Mof_H 	H 	0.9409	0.247	0.0776	0.282
Mof_H 	H 	0.8472	0.0804	0.207	0.13
Mof_H 	H 	0.1401	0.2043	0.9839	0.033
Mof_H 	H 	0.7425	0.4253	0.6501	0.034
Mof_H 	H 	0.2613	0.0656	0.3862	0.014
Mof_H 	H 	0.6881	0.5712	0.946	0.036
Mof_H 	H 	0.1877	0.8644	0.8222	0.101
Mof_H 	H 	0.7735	0.1678	0.892	0.072
Mof_H 	H 	0.4082	0.9885	0.4543	0.065
Mof_H 	H 	0.6204	0.5425	0.1019	0.058
Mof_H 	H 	0.7347	0.2693	0.7729	0.085
Mof_H 	H 	0.9062	0.643	0.9212	0.029
Mof_H 	H 	0.0228	0.0609	0.8149	0.031
Mof_H 	H 	0.9048	0.419	0.863	0.298
Mof_H 	H 	0.7963	0.6928	0.4328	0.058
Mof_H 	H 	0.5593	0.0335	0.0129	0.09
Mof_H 	H 	0.2648	0.9575	0.3981	0.057
Mof_H 	H 	0.7687	0.0801	0.5289	0.041
Mof_H 	H 	0.6717	0.7043	0.4839	0.034
Mof_H 	H 	0.0262	0.1832	0.615	0.029
Mof_H 	H 	0.5977	0.0676	0.4766	0.041
Mof_H 	H 	0.1875	0.6259	0.9455	0.089
Mof_H 	H 	0.2265	0.8322	0.108	0.072
Mof_H 	H 	0.1436	0.8195	0.6365	0.121
Mof_H 	H 	0.8123	0.1356	0.1778	0.101
Mof_H 	H 	0.4023	0.9324	0.5234	0.041
Mof_H 	H 	0.7589	0.8741	0.5545	0.087
Mof_H 	H 	0.8179	0.0747	0.8499	0.035
Mof_H 	H 	0.9772	0.9391	0.1851	0.031
Mof_H 	H 	0.6768	0.855	0.9372	0.294
Mof_H 	H 	0.2053	0.9288	0.554	0.035
Mof_H 	H 	0.9461	0.1587	0.1889	0.139
Mof_H 	H 	0.931	0.236	0.9078	0.059
Mof_H 	H 	0.8125	0.3741	0.0545	0.089
Mof_H 	H 	0.9219	0.8072	0.0672	0.058
Mof_H 	H 	0.374	0.8942	0.0082	0.104
Mof_H 	H 	0.1834	0.0379	0.1523	0.02
Mof_H 	H 	0.2629	0.3198	0.147	0.109
Mof_H 	H 	0.5996	0.6805	0.8635	0.121
Mof_H 	H 	0.2217	0.1763	0.5571	0.078
Mof_H 	H 	0.3398	0.0878	0.5748	0.094
Mof_H 	H 	0.7387	0.9344	0.6138	0.014
Mof_H 	H 	0.332	0.8122	0.0434	0.015
Mof_H 	H 	0.1049	0.692	0.013	0.077
Mof_H 	H 	0.6172	0.6262	0.4908	0.094
Mof_H 	H 	0.149	0.4885	0.9543	0.064
Mof_H 	H 	0.2703	0.8198	0.647	0.109
Mof_H 	H 	0.594	0.9563	0.0177	0.086
Mof_H 	H 	0.2575	0.5747	0.3499	0.034
Mof_H 	H 	0.4627	0.0258	0.595	0.025
Mof_H 	H 	0.8564	0.1805	0.3635	0.121
Mof_H 	H 	0.7084	0.5947	0.7087	0.139
Mof_H 	H 	0.8951	0.308	0.987	0.077
Mof_H 	H 	0.6057	0.4665	0.4871	0.09
Mof_H 	H 	0.0938	0.357	0.0788	0.029
Mof_H 	H 	0.8137	0.669	0.8648	0.133
Mof_H 	H 	0.2937	0.3413	0.3111	0.139
Mof_H 	H 	0.8132	0.919	0.363	0.298
Mof_H 	H 	0.6264	0.5379	0.6523	0.02
Mof_H 	H 	0.8124	0.3122	0.5434	0.015
Mof_H 	H 	0.3232	0.145	0.0628	0.294
Mof_H 	H 	0.2037	0.3072	0.5672	0.058
Mof_H 	H 	0.8889	0.2289	0.3677	0.116
Mof_H 	H 	0.1821	0.9253	0.1501	0.035
Mof_H 	H 	0.8654	0.5804	0.707	0.129
Mof_H 	H 	0.1257	0.3644	0.3222	0.101
Mof_H 	H 	0.761	0.0141	0.1255	0.037
Mof_H 	H 	0.2916	0.4053	0.2913	0.139
Mof_H 	H 	0.0024	0.4122	0.9252	0.094
Mof_H 	H 	0.1253	0.4012	0.608	0.039
Mof_H 	H 	0.0115	0.3624	0.6252	0.031
Mof_H 	H 	0.9991	0.1376	0.8748	0.037
Mof_H 	H 	0.4855	0.2711	0.1323	0.116
Mof_H 	H 	0.0781	0.1928	0.9328	0.058
Mof_H 	H 	0.9252	0.736	0.4078	0.066
Mof_H 	H 	0.9885	0.6376	0.3748	0.031
Mof_H 	H 	0.7371	0.6802	0.853	0.109
Mof_H 	H 	0.3119	0.4288	0.054	0.036
Mof_H 	H 	0.1419	0.4324	0.0234	0.041
Mof_H 	H 	0.913	0.1956	0.676	0.102
Mof_H 	H 	0.8333	0.3322	0.608	0.072
Mof_H 	H 	0.8099	0.808	0.487	0.077
Mof_H 	H 	0.9976	0.5878	0.0748	0.094
Mof_H 	H 	0.9638	0.867	0.8168	0.144
Mof_H 	H 	0.312	0.5834	0.2094	0.293
Mof_H 	H 	0.1868	0.081	0.637	0.298
Mof_H 	H 	0.0118	0.9053	0.7913	0.139
Mof_H 	H 	0.069	0.764	0.0922	0.059
Mof_H 	H 	0.626	0.1058	0.9918	0.104
Mof_H 	H 	0.7947	0.0712	0.446	0.035
Mof_H 	H 	0.3736	0.4621	0.3477	0.02
Mof_H 	H 	0.7297	0.1802	0.353	0.109
Mof_H 	H 	0.3475	0.831	0.6352	0.133
Mof_H 	H 	0.3828	0.3738	0.5092	0.094
Mof_H 	H 	0.0952	0.581	0.137	0.298
Mof_H 	H 	0.7345	0.747	0.5776	0.282
Mof_H 	H 	0.7063	0.6587	0.6889	0.139
Mof_H 	H 	0.9006	0.4859	0.3745	0.038
Mof_H 	H 	0.6602	0.9122	0.4252	0.094
Mof_H 	H 	0.1048	0.9166	0.2906	0.293
Mof_C 	C 	0.77788	0.90564	0.4672	-0.082
Mof_C 	C 	0.2099	0.6361	0.4031	-0.101
Mof_C 	C 	0.7214	0.9432	0.0526	0.067
Mof_C 	C 	0.82284	0.68278	0.80334	0.178
Mof_C 	C 	0.2535	0.0477	0.4155	0.014
Mof_C 	C 	0.3179	0.15861	0.49879	-0.084
Mof_C 	C 	0.8748	0.3792	0.3708	0.359
Mof_C 	C 	0.8221	0.44	0.3988	-0.184
Mof_C 	C 	0.52259	0.85195	0.55907	0.041
Mof_C 	C 	0.32923	0.53854	0.4402	0.092
Mof_C 	C 	0.7383	0.4201	0.6215	0.004
Mof_C 	C 	0.15013	0.56804	0.0775	0.236
Mof_C 	C 	0.23213	0.05994	0.4962	0.068
Mof_C 	C 	0.2127	0.75	0.25	-0.088
Mof_C 	C 	0.68811	0.93388	0.9363	0.245
Mof_C 	C 	0.2507	0.9692	0.1016	-0.057
Mof_C 	C 	0.47273	0.11304	0.4831	-0.039
Mof_C 	C 	0.298	0.3337	0.5335	0.019
Mof_C 	C 	0.2583	0.5519	0.5709	0.238
Mof_C 	C 	0.7417	0.4481	0.4291	0.238
Mof_C 	C 	0.78689	0.51972	0.8673	0.348
Mof_C 	C 	0.27253	0.47013	0.04901	0.028
Mof_C 	C 	0.3365	0.9008	0.037	-0.14
Mof_C 	C 	0.22359	0.63282	0.2526	0.246
Mof_C 	C 	0.8725	0.841	0.0634	-0.071
Mof_C 	C 	0.7652	0.9477	0.0825	-0.033
Mof_C 	C 	0.02103	0.69463	0.95891	0.241
Mof_C 	C 	0.69203	0.03854	0.9402	0.093
Mof_C 	C 	0.74439	0.14215	0.23687	0.174
Mof_C 	C 	0.4653	0.0467	0.5665	0.023
Mof_C 	C 	0.30896	0.81722	0.69666	0.178
Mof_C 	C 	0.54572	0.07226	0.4963	-0.015
Mof_C 	C 	0.6189	0.0519	0.0709	0.24
Mof_C 	C 	0.61287	0.51176	0.5395	-0.091
Mof_C 	C 	0.7806	0.3531	0.5571	0.051
Mof_C 	C 	0.7465	0.0166	0.5774	-0.075
Mof_C 	C 	0.95708	0.08249	0.76815	-0.194
Mof_C 	C 	0.69104	0.18278	0.30334	0.178
Mof_C 	C 	0.3811	0.9481	0.9291	0.24
Mof_C 	C 	0.80772	0.41751	0.73185	-0.2
Mof_C 	C 	0.2535	0.9834	0.4226	-0.075
Mof_C 	C 	0.2248	0.138	0.1322	0.388
Mof_C 	C 	0.11428	0.42774	0.0037	-0.015
Mof_C 	C 	0.7257	0.4008	0.537	-0.14
Mof_C 	C 	0.30797	0.96146	0.0598	0.093
Mof_C 	C 	0.76746	0.83978	0.4729	-0.081
Mof_C 	C 	0.78827	0.44006	0.0038	0.072
Mof_C 	C 	0.61967	0.66525	0.74101	0.183
Mof_C 	C 	0.23079	0.52005	0.24457	0.363
Mof_C 	C 	0.72747	0.52987	0.95099	0.028
Mof_C 	C 	0.1611	0.1033	0.9123	-0.019
Mof_C 	C 	0.43808	0.42274	0.3927	-0.211
Mof_C 	C 	0.3391	0.94	0.8988	-0.185
Mof_C 	C 	0.9196	0.3439	0.6731	-0.043
Mof_C 	C 	0.04292	0.91751	0.23185	-0.194
Mof_C 	C 	0.88676	0.29258	0.6913	0.071
Mof_C 	C 	0.77642	0.96936	0.8756	0.061
Mof_C 	C 	0.6785	0.4692	0.6016	-0.058
Mof_C 	C 	0.3752	0.8792	0.8708	0.36
Mof_C 	C 	0.2395	0.1188	0.9714	-0.11
Mof_C 	C 	0.0437	0.8299	0.1363	-0.018
Mof_C 	C 	0.4573	0.9612	0.4624	-0.076
Mof_C 	C 	0.47741	0.14805	0.44093	0.041
Mof_C 	C 	0.7873	0.25	0.75	-0.088
Mof_C 	C 	0.1478	0.7229	0.1305	0.021
Mof_C 	C 	0.7605	0.8812	0.0286	-0.11
Mof_C 	C 	0.32543	0.19463	0.45891	0.24
Mof_C 	C 	0.38517	0.49386	0.5106	-0.083
Mof_C 	C 	0.88572	0.57226	0.9963	-0.015
Mof_C 	C 	0.87818	0.40599	0.69525	0.041
Mof_C 	C 	0.22634	0.99562	0.5037	-0.034
Mof_C 	C 	0.1652	0.1663	0.9665	0.021
Mof_C 	C 	0.9753	0.34139	0.00121	-0.083
Mof_C 	C 	0.61037	0.99386	0.0106	-0.082
Mof_C 	C 	0.3215	0.5308	0.3984	-0.058
Mof_C 	C 	0.23254	0.16022	0.5271	-0.081
Mof_C 	C 	0.5908	0.7715	0.6139	0.392
Mof_C 	C 	0.7799	0.0799	0.8785	0.003
Mof_C 	C 	0.76921	0.47995	0.75543	0.363
Mof_C 	C 	0.7578	0.9167	0.5487	-0.124
Mof_C 	C 	0.2786	0.0568	0.9474	0.067
Mof_C 	C 	0.22212	0.09436	0.5328	-0.082
Mof_C 	C 	0.2365	0.9604	0.466	-0.023
Mof_C 	C 	0.0845	0.7716	0.1166	-0.072
Mof_C 	C 	0.17188	0.73024	0.1668	-0.113
Mof_C 	C 	0.39322	0.11876	0.5122	0.07
Mof_C 	C 	0.44171	0.43388	0.4363	0.245
Mof_C 	C 	0.6703	0.6188	0.4714	-0.108
Mof_C 	C 	0.15032	0.80406	0.2279	-0.074
Mof_C 	C 	0.0273	0.2716	0.6166	-0.092
Mof_C 	C 	0.02058	0.90599	0.19525	0.038
Mof_C 	C 	0.6629	0.5396	0.034	-0.02
Mof_C 	C 	0.8348	0.8337	0.0335	0.021
Mof_C 	C 	0.1191	0.4612	0.9624	-0.075
Mof_C 	C 	0.2046	0.4477	0.5825	-0.03
Mof_C 	C 	0.19541	0.00666	0.58532	-0.185
Mof_C 	C 	0.25561	0.85785	0.76313	0.174
Mof_C 	C 	0.79567	0.93196	0.4225	0.237
Mof_C 	C 	0.21173	0.55994	0.9962	0.072
Mof_C 	C 	0.33587	0.01176	0.0395	-0.093
Mof_C 	C 	0.17391	0.98028	0.6327	0.352
Mof_C 	C 	0.7635	0.0396	0.534	-0.023
Mof_C 	C 	0.81772	0.30406	0.7279	-0.077
Mof_C 	C 	0.7769	0.659	0.4366	-0.069
Mof_C 	C 	0.2422	0.0833	0.4513	-0.124
Mof_C 	C 	0.00459	0.02005	0.74457	0.355
Mof_C 	C 	0.21311	0.48028	0.1327	0.348
Mof_C 	C 	0.8522	0.2771	0.8695	0.021
Mof_C 	C 	0.43467	0.30986	0.1894	0.172
Mof_C 	C 	0.60908	0.91524	0.4452	-0.117
Mof_C 	C 	0.06639	0.35195	0.05907	0.041
Mof_C 	C 	0.9155	0.2284	0.8834	-0.072
Mof_C 	C 	0.3092	0.8531	0.0571	0.051
Mof_C 	C 	0.19228	0.58249	0.26815	-0.2
Mof_C 	C 	0.35024	0.00342	0.9541	-0.08
Mof_C 	C 	0.72566	0.50438	0.9963	-0.037
Mof_C 	C 	0.2231	0.341	0.5634	-0.069
Mof_C 	C 	0.7509	0.1361	0.9031	-0.101
Mof_C 	C 	0.93108	0.23024	0.6668	-0.125
Mof_C 	C 	0.9988	0.2229	0.6305	0.04
Mof_C 	C 	0.2743	0.5992	0.463	-0.14
Mof_C 	C 	0.27434	0.49562	0.0037	-0.037
Mof_C 	C 	0.67457	0.80537	0.54109	0.24
Mof_C 	C 	0.93113	0.61304	0.9831	-0.039
Mof_C 	C 	0.2833	0.5477	0.9155	0.02
Mof_C 	C 	0.7768	0.4167	0.0487	-0.128
Mof_C 	C 	0.93393	0.19014	0.3106	0.172
Mof_C 	C 	0.6595	0.5166	0.0774	-0.08
Mof_C 	C 	0.9727	0.7284	0.3834	-0.092
Mof_C 	C 	0.8233	0.6033	0.4123	-0.022
Mof_C 	C 	0.64976	0.99658	0.0459	-0.08
Mof_C 	C 	0.87064	0.20742	0.8087	0.064
Mof_C 	C 	0.18228	0.69594	0.2721	-0.077
Mof_C 	C 	0.38033	0.33475	0.25899	0.183
Mof_C 	C 	0.3371	0.4604	0.966	-0.02
Mof_C 	C 	0.7465	0.9523	0.5845	0.014
Mof_C 	C 	0.0238	0.2715	0.1139	0.39
Mof_C 	C 	0.2194	0.6469	0.4429	0.051
Mof_C 	C 	0.15072	0.59436	0.0328	-0.082
Mof_C 	C 	0.80459	0.99334	0.41468	-0.185
Mof_C 	C 	0.21261	0.50666	0.08532	-0.181
Mof_C 	C 	0.495	0.362	0.3678	0.389
Mof_C 	C 	0.2201	0.9201	0.1215	0.003
Mof_C 	C 	0.17716	0.31722	0.19666	0.178
Mof_C 	C 	0.93361	0.64805	0.94093	0.041
Mof_C 	C 	0.11324	0.70742	0.3087	0.071
Mof_C 	C 	0.82812	0.26976	0.8332	-0.113
Mof_C 	C 	0.0099	0.6701	0.3637	-0.002
Mof_C 	C 	0.45428	0.92774	0.5037	-0.015
Mof_C 	C 	0.25352	0.07726	0.1073	-0.211
Mof_C 	C 	0.1252	0.6208	0.6292	0.359
Mof_C 	C 	0.38713	0.48824	0.4605	-0.091
Mof_C 	C 	0.3297	0.3812	0.5286	-0.108
Mof_C 	C 	0.56533	0.69014	0.8106	0.172
Mof_C 	C 	0.702	0.6663	0.4665	0.019
Mof_C 	C 	0.12182	0.59401	0.30475	0.041
Mof_C 	C 	0.2232	0.5833	0.9513	-0.128
Mof_C 	C 	0.60678	0.88124	0.4878	0.07
Mof_C 	C 	0.10901	0.86718	0.2474	0.243
Mof_C 	C 	0.97897	0.30537	0.04109	0.241
Mof_C 	C 	0.84968	0.19594	0.7721	-0.074
Mof_C 	C 	0.56192	0.57726	0.6073	-0.211
Mof_C 	C 	0.97725	0.69029	0.92861	-0.203
Mof_C 	C 	0.0634	0.8439	0.1731	-0.035
Mof_C 	C 	0.79167	0.02987	0.45099	0.03
Mof_C 	C 	0.02593	0.83475	0.75899	0.184
Mof_C 	C 	0.02275	0.30971	0.07139	-0.203
Mof_C 	C 	0.74648	0.92274	0.8927	-0.211
Mof_C 	C 	0.9215	0.5467	0.0665	0.022
Mof_C 	C 	0.6908	0.1469	0.9429	0.051
Mof_C 	C 	0.02418	0.38124	0.9878	0.07
Mof_C 	C 	0.77366	0.00438	0.4963	-0.034
Mof_C 	C 	0.87659	0.64215	0.73687	0.174
Mof_C 	C 	0.7172	0.5568	0.4474	0.065
Mof_C 	C 	0.2491	0.8639	0.0969	-0.101
Mof_C 	C 	0.06892	0.76976	0.3332	-0.125
Mof_C 	C 	0.22358	0.03064	0.1244	0.061
Mof_C 	C 	0.91986	0.33978	0.9729	-0.082
Mof_C 	C 	0.55829	0.56612	0.5637	0.245
Mof_C 	C 	0.96952	0.58476	0.0548	-0.117
Mof_C 	C 	0.6248	0.1208	0.1292	0.36
Mof_C 	C 	0.2828	0.4432	0.5526	0.065
Mof_C 	C 	0.31189	0.06612	0.0637	0.245
Mof_C 	C 	0.1518	0.5092	0.6064	0.029
Mof_C 	C 	0.37862	0.46936	0.3756	0.063
Mof_C 	C 	0.0785	0.4533	0.9335	0.022
Mof_C 	C 	0.67077	0.46146	0.5598	0.092
Mof_C 	C 	0.5347	0.9533	0.4335	0.023
Mof_C 	C 	0.7752	0.862	0.8678	0.388
Mof_C 	C 	0.3405	0.4834	0.9226	-0.08
Mof_C 	C 	0.6635	0.0992	0.963	-0.14
Mof_C 	C 	0.8482	0.4908	0.3936	0.029
Mof_C 	C 	0.7326	0.0092	0.1064	0.032
Mof_C 	C 	0.2674	0.9908	0.8936	0.032
Mof_C 	C 	0.9901	0.3299	0.6363	-0.002
Mof_C 	C 	0.1779	0.56	0.6012	-0.184
Mof_C 	C 	0.4092	0.2285	0.3861	0.392
Mof_C 	C 	0.6609	0.06	0.1012	-0.185
Mof_C 	C 	0.40385	0.19029	0.42861	-0.202
Mof_C 	C 	0.78739	0.49334	0.91468	-0.181
Mof_C 	C 	0.0012	0.7771	0.3695	0.04
Mof_C 	C 	0.99541	0.97995	0.25543	0.355
Mof_C 	C 	0.0247	0.65861	0.99879	-0.083
Mof_C 	C 	0.9563	0.1701	0.8637	-0.018
Mof_C 	C 	0.62138	0.53064	0.6244	0.063
Mof_C 	C 	0.08014	0.66022	0.0271	-0.082
Mof_C 	C 	0.39092	0.08476	0.5548	-0.117
Mof_C 	C 	0.1767	0.3967	0.5877	-0.022
Mof_C 	C 	0.06607	0.80986	0.6894	0.172
Mof_C 	C 	0.8389	0.8967	0.0877	-0.019
Mof_C 	C 	0.03048	0.41524	0.9452	-0.117
Mof_C 	C 	0.5427	0.0388	0.5376	-0.076
Mof_C 	C 	0.9762	0.7285	0.8861	0.39
Mof_C 	C 	0.77641	0.36718	0.7474	0.246
Mof_C 	C 	0.2617	0.5799	0.3785	0.004
Mof_C 	C 	0.12341	0.35785	0.26313	0.174
Mof_C 	C 	0.76787	0.94006	0.5038	0.068
Mof_C 	C 	0.06887	0.38696	0.0169	-0.039
Mof_C 	C 	0.69224	0.50342	0.4541	-0.078
Mof_C 	C 	0.20433	0.06804	0.5775	0.237
Mof_C 	C 	0.1275	0.159	0.9366	-0.071
Mof_C 	C 	0.8809	0.5388	0.0376	-0.075
Mof_C 	C 	0.7493	0.0308	0.8984	-0.057
Mof_C 	C 	0.7954	0.5523	0.4175	-0.03
Mof_C 	C 	0.2348	0.0523	0.9175	-0.033
Mof_C 	C 	0.20833	0.97013	0.54901	0.03
Mof_C 	C 	0.59615	0.80971	0.57139	-0.202
Mof_C 	C 	0.7901	0.3639	0.5969	-0.101
Mof_C 	C 	0.61483	0.50614	0.4894	-0.083
Mof_C 	C 	0.89099	0.13282	0.7526	0.243
Mof_C 	C 	0.30776	0.49658	0.5459	-0.078
Mof_C 	C 	0.7167	0.4523	0.0845	0.02
Mof_C 	C 	0.82609	0.01972	0.3673	0.352
Mof_C 	C 	0.0804	0.6561	0.3269	-0.043
Mof_C 	C 	0.97942	0.09401	0.80475	0.038
Mof_C 	C 	0.84987	0.43196	0.9225	0.236
Mof_C 	C 	0.505	0.638	0.6322	0.389
Mof_C 	C 	0.84928	0.40564	0.9672	-0.082
Mof_C 	C 	0.52727	0.88696	0.5169	-0.039
Mof_C 	C 	0.6821	0.84139	0.50121	-0.084
Mof_C 	C 	0.66413	0.98824	0.9605	-0.093
Mof_C 	C 	0.97582	0.61876	0.0122	0.07
Mof_C 	C 	0.12936	0.79258	0.1913	0.064
Mof_C 	C 	0.9366	0.1561	0.8269	-0.035
Mof_C 	C 	0.38963	0.00614	0.9894	-0.082
Mof_C 	C 	0.97407	0.16525	0.24101	0.184
Mof_N 	N 	0.17785	0.36286	0.22284	-0.307
Mof_N 	N 	0.54533	0.70974	0.7418	-0.3
Mof_N 	N 	0.09326	0.31332	0.26276	-0.291
Mof_N 	N 	0.12786	0.28798	0.2181	-0.287
Mof_N 	N 	0.01274	0.86459	0.79793	-0.403
Mof_N 	N 	0.63394	0.21202	0.2819	-0.287
Mof_N 	N 	0.23645	0.86286	0.72284	-0.307
Mof_N 	N 	0.22029	0.30711	0.15251	-0.293
Mof_N 	N 	0.4917	0.27338	0.21082	-0.315
Mof_N 	N 	0.36606	0.78798	0.7181	-0.287
Mof_N 	N 	0.80052	0.10745	0.19951	-0.29
Mof_N 	N 	0.0241	0.77338	0.71082	-0.314
Mof_N 	N 	0.19948	0.89255	0.80049	-0.29
Mof_N 	N 	0.98726	0.13541	0.20207	-0.403
Mof_N 	N 	0.45467	0.29026	0.2582	-0.3
Mof_N 	N 	0.76355	0.13714	0.27716	-0.307
Mof_N 	N 	0.92936	0.15021	0.28307	-0.312
Mof_N 	N 	0.89252	0.60745	0.69951	-0.29
Mof_N 	N 	0.55141	0.68937	0.85701	-0.301
Mof_N 	N 	0.07064	0.84979	0.71693	-0.312
Mof_N 	N 	0.33066	0.81332	0.76276	-0.291
Mof_N 	N 	0.32009	0.80711	0.65251	-0.293
Mof_N 	N 	0.10748	0.39255	0.30049	-0.29
Mof_N 	N 	0.87214	0.71202	0.7819	-0.287
Mof_N 	N 	0.00313	0.20974	0.2418	-0.302
Mof_N 	N 	0.32474	0.36459	0.29793	-0.404
Mof_N 	N 	0.44859	0.31063	0.14299	-0.301
Mof_N 	N 	0.36264	0.34979	0.21693	-0.311
Mof_N 	N 	0.09779	0.81063	0.64299	-0.301
Mof_N 	N 	0.90221	0.18937	0.35701	-0.301
Mof_N 	N 	0.9759	0.22662	0.28918	-0.314
Mof_N 	N 	0.5083	0.72662	0.78918	-0.315
Mof_N 	N 	0.99687	0.79026	0.7582	-0.302
Mof_N 	N 	0.82215	0.63714	0.77716	-0.307
Mof_N 	N 	0.67526	0.63541	0.70207	-0.404
Mof_N 	N 	0.63736	0.65021	0.78307	-0.311
Mof_N 	N 	0.67991	0.19289	0.34749	-0.293
Mof_N 	N 	0.77971	0.69289	0.84749	-0.293
Mof_N 	N 	0.90674	0.68668	0.73724	-0.291
Mof_N 	N 	0.66934	0.18668	0.23724	-0.291
Mof_O 	O 	0.17023	0.01005	0.66529	-0.357
Mof_O 	O 	0.65416	0.72665	0.62223	-0.348
Mof_O 	O 	0.66567	0.1252	0.15386	-0.463
Mof_O 	O 	0.48119	0.35373	0.33069	-0.475
Mof_O 	O 	0.80126	0.52424	0.74224	-0.453
Mof_O 	O 	0.83855	0.07369	0.36181	-0.452
Mof_O 	O 	0.82977	0.98995	0.33471	-0.357
Mof_O 	O 	0.19874	0.47576	0.25776	-0.453
Mof_O 	O 	0.16561	0.14627	0.16931	-0.475
Mof_O 	O 	0.06609	0.73373	0.94649	-0.448
Mof_O 	O 	0.15443	0.51005	0.16529	-0.355
Mof_O 	O 	0.05305	0.28761	0.14169	-0.475
Mof_O 	O 	0.54605	0.31663	0.38527	-0.323
Mof_O 	O 	0.94695	0.71239	0.85831	-0.475
Mof_O 	O 	0.34237	0.11495	0.04471	-0.434
Mof_O 	O 	0.33433	0.8748	0.84614	-0.463
Mof_O 	O 	0.34584	0.27335	0.37777	-0.348
Mof_O 	O 	0.19664	0.10175	0.61337	-0.45
Mof_O 	O 	0.55788	0.16864	0.1246	-0.372
Mof_O 	O 	0.93226	0.02424	0.24224	-0.449
Mof_O 	O 	0.01034	0.99113	0.28959	-0.37
Mof_O 	O 	0.93391	0.26627	0.05351	-0.448
Mof_O 	O 	0.51765	0.78761	0.64169	-0.475
Mof_O 	O 	0.29106	0.50887	0.21041	-0.374
Mof_O 	O 	0.54598	0.10088	0.06696	-0.439
Mof_O 	O 	0.28618	0.60088	0.56696	-0.439
Mof_O 	O 	0.70894	0.49113	0.78959	-0.374
Mof_O 	O 	0.16145	0.92631	0.63819	-0.452
Mof_O 	O 	0.51881	0.64627	0.66931	-0.475
Mof_O 	O 	0.05527	0.6252	0.65386	-0.462
Mof_O 	O 	0.70613	0.37859	0.78195	-0.451
Mof_O 	O 	0.99696	0.22665	0.12223	-0.346
Mof_O 	O 	0.49797	0.61495	0.54471	-0.434
Mof_O 	O 	0.48235	0.21239	0.35831	-0.475
Mof_O 	O 	0.08824	0.60175	0.11337	-0.45
Mof_O 	O 	0.00304	0.77335	0.87777	-0.346
Mof_O 	O 	0.86667	0.12141	0.71805	-0.45
Mof_O 	O 	0.50203	0.38505	0.45529	-0.434
Mof_O 	O 	0.44212	0.83136	0.8754	-0.372
Mof_O 	O 	0.83439	0.85373	0.83069	-0.475
Mof_O 	O 	0.25369	0.23373	0.44649	-0.448
Mof_O 	O 	0.84557	0.48995	0.83471	-0.355
Mof_O 	O 	0.45402	0.89912	0.93304	-0.439
Mof_O 	O 	0.94473	0.3748	0.34614	-0.462
Mof_O 	O 	0.98966	0.00887	0.71041	-0.37
Mof_O 	O 	0.27405	0.42631	0.13819	-0.451
Mof_O 	O 	0.13333	0.87859	0.28195	-0.45
Mof_O 	O 	0.74631	0.76627	0.55351	-0.448
Mof_O 	O 	0.65763	0.88505	0.95529	-0.434
Mof_O 	O 	0.85112	0.33136	0.3754	-0.371
Mof_O 	O 	0.80336	0.89825	0.38663	-0.45
Mof_O 	O 	0.29387	0.62141	0.21805	-0.451
Mof_O 	O 	0.24795	0.18337	0.11473	-0.323
Mof_O 	O 	0.14888	0.66864	0.6246	-0.371
Mof_O 	O 	0.72595	0.57369	0.86181	-0.451
Mof_O 	O 	0.75205	0.81663	0.88527	-0.323
Mof_O 	O 	0.71382	0.39912	0.43304	-0.439
Mof_O 	O 	0.91176	0.39825	0.88663	-0.45
Mof_O 	O 	0.45395	0.68337	0.61473	-0.323
Mof_O 	O 	0.06774	0.97576	0.75776	-0.449
_end
