data_functionalizedCrystal
_audit_creation_method	'EQeq! by Chris Wilmer'
_symmetry_space_group_name_H-M	'P1'
_symmetry_Int_Tables_number	1
_symmetry_cell_setting	triclinic
loop_
_symmetry_equiv_pos_as_xyz
  x,y,z
_cell_length_a	37.153
_cell_length_b	8.9381
_cell_length_c	29.414
_cell_angle_alpha	90
_cell_angle_beta	127.964
_cell_angle_gamma	90
loop_
_atom_site_label
_atom_site_type_symbol
_atom_site_fract_x
_atom_site_fract_y
_atom_site_fract_z
_atom_site_charge
Mof_O 	O 	0.19939	0.4227	0.45408	-0.404
Mof_O 	O 	0.17308	0.4687	0.50336	-0.297
Mof_O 	O 	0.05683	0.9285	0.2947	-0.228
Mof_O 	O 	0.99691	0.3196	0.1946	-0.226
Mof_O 	O 	0.08402	0.7727	0.11962	-0.293
Mof_O 	O 	0.01006	0.8236	0.05682	-0.421
Mof_N 	N 	0.24105	0.2368	0.56145	-0.239
Mof_H 	H 	0.2195	0.316	0.5529	0.104
Mof_N 	N 	0.19766	0.0896	0.45422	-0.166
Mof_N 	N 	0.18819	0.1176	0.36933	-0.1
Mof_N 	N 	0.99418	0.8449	0.94233	-0.143
Mof_N 	N 	0.06819	0.0234	0.04391	-0.234
Mof_H 	H 	0.0829	0.944	0.0731	0.109
Mof_N 	N 	0.06642	0.8883	0.96864	-0.07
Mof_C 	C 	0.01827	0.9037	0.9205	-0.04
Mof_H 	H 	0.0105	0.8461	0.8876	0.057
Mof_H 	H 	0.0104	0.0077	0.9092	0.035
Mof_C 	C 	0.06836	0.74	0.9928	0.015
Mof_H 	H 	0.0882	0.7441	0.0346	0.016
Mof_H 	H 	0.08	0.6648	0.981	0.048
Mof_C 	C 	0.0187	0.7017	0.9687	-0.127
Mof_H 	H 	0.0061	0.6226	0.9402	0.077
Mof_H 	H 	0.0174	0.6715	0.9994	0.083
Mof_C 	C 	0.08564	0.0098	0.0098	-0.191
Mof_H 	H 	0.0795	0.1029	0.9892	0.114
Mof_H 	H 	0.1185	0.9971	0.0364	0.091
Mof_C 	C 	0.07996	0.1676	0.0755	-0.088
Mof_H 	H 	0.0702	0.2509	0.0492	0.044
Mof_H 	H 	0.1127	0.1747	0.1053	0.054
Mof_C 	C 	0.9442	0.8272	0.8976	-0.114
Mof_H 	H 	0.9379	0.7324	0.8779	0.073
Mof_H 	H 	0.9327	0.9066	0.8693	0.072
Mof_C 	C 	0.16426	0.1405	0.39376	-0.06
Mof_H 	H 	0.1365	0.0814	0.3735	0.061
Mof_H 	H 	0.1566	0.2451	0.3921	0.053
Mof_C 	C 	0.21074	0.9437	0.4441	-0.066
Mof_H 	H 	0.1886	0.867	0.4345	0.061
Mof_H 	H 	0.2406	0.9123	0.478	0.052
Mof_C 	C 	0.2115	0.9722	0.394	-0.066
Mof_H 	H 	0.2427	0.9769	0.4072	0.063
Mof_H 	H 	0.1955	0.8933	0.3655	0.059
Mof_C 	C 	0.28215	0.2586	0.62209	-0.041
Mof_H 	H 	0.2724	0.2768	0.6456	0.05
Mof_H 	H 	0.2998	0.1668	0.6357	0.047
Mof_C 	C 	0.21744	0.0931	0.5508	-0.055
Mof_H 	H 	0.2053	0.0894	0.572	0.046
Mof_H 	H 	0.2387	0.0107	0.5635	0.041
Mof_C 	C 	0.17906	0.0802	0.4869	-0.158
Mof_H 	H 	0.1634	0.9855	0.4788	0.091
Mof_H 	H 	0.1572	0.1601	0.4747	0.079
Mof_C 	C 	0.17389	0.4907	0.46209	0.362
Mof_C 	C 	0.14194	0.6053	0.41726	-0.195
Mof_C 	C 	0.13502	0.6183	0.36513	0.153
Mof_H 	H 	0.1504	0.5538	0.3575	-0.017
Mof_C 	C 	0.10628	0.7235	0.32502	-0.274
Mof_H 	H 	0.1016	0.7287	0.2902	0.14
Mof_C 	C 	0.08414	0.8224	0.33658	0.275
Mof_C 	C 	0.09054	0.8146	0.38817	-0.272
Mof_H 	H 	0.0759	0.8818	0.3961	0.129
Mof_C 	C 	0.11902	0.7052	0.42763	0.14
Mof_H 	H 	0.123	0.6983	0.462	-0.011
Mof_C 	C 	0.03084	0.024	0.30333	-0.033
Mof_H 	H 	0.0511	0.0864	0.337	0.048
Mof_H 	H 	0.0125	0.9645	0.3097	0.064
Mof_C 	C 	0.02869	0.2204	0.24087	-0.006
Mof_H 	H 	0.0511	0.2764	0.2756	0.051
Mof_H 	H 	0.0445	0.16	0.2307	0.038
Mof_C 	C 	0.01217	0.428	0.17746	0.252
Mof_C 	C 	0.97764	0.5163	0.1324	-0.25
Mof_H 	H 	0.9476	0.5036	0.1184	0.134
Mof_C 	C 	0.98845	0.6229	0.1088	0.159
Mof_H 	H 	0.9653	0.6807	0.0782	-0.017
Mof_C 	C 	0.03332	0.646	0.12966	-0.209
Mof_C 	C 	0.06717	0.5617	0.17609	0.143
Mof_H 	H 	0.0975	0.579	0.1918	-0.01
Mof_C 	C 	0.05702	0.4505	0.20024	-0.266
Mof_H 	H 	0.0801	0.3931	0.2311	0.123
Mof_C 	C 	0.04341	0.7562	0.10026	0.369
Mof_O 	O 	0.69939	0.9227	0.45408	-0.403
Mof_O 	O 	0.67308	0.9687	0.50336	-0.296
Mof_O 	O 	0.55683	0.4285	0.2947	-0.247
Mof_O 	O 	0.49691	0.8196	0.1946	-0.249
Mof_O 	O 	0.58402	0.2727	0.11962	-0.295
Mof_O 	O 	0.51006	0.3236	0.05682	-0.418
Mof_N 	N 	0.74105	0.7368	0.56145	-0.236
Mof_H 	H 	0.7195	0.816	0.5529	0.106
Mof_N 	N 	0.69766	0.5896	0.45422	-0.165
Mof_N 	N 	0.68819	0.6176	0.36933	-0.093
Mof_N 	N 	0.49418	0.3449	0.94233	-0.154
Mof_N 	N 	0.56819	0.5234	0.04391	-0.228
Mof_H 	H 	0.5829	0.444	0.0731	0.1
Mof_N 	N 	0.56642	0.3883	0.96864	-0.077
Mof_C 	C 	0.51827	0.4037	0.9205	-0.06
Mof_H 	H 	0.5105	0.3461	0.8876	0.063
Mof_H 	H 	0.5104	0.5077	0.9092	0.054
Mof_C 	C 	0.56836	0.24	0.9928	0.015
Mof_H 	H 	0.5882	0.2441	0.0346	0.014
Mof_H 	H 	0.58	0.1648	0.981	0.045
Mof_C 	C 	0.5187	0.2017	0.9687	-0.117
Mof_H 	H 	0.5061	0.1226	0.9402	0.075
Mof_H 	H 	0.5174	0.1715	0.9994	0.081
Mof_C 	C 	0.58564	0.5098	0.0098	-0.157
Mof_H 	H 	0.5795	0.6029	0.9892	0.108
Mof_H 	H 	0.6185	0.4971	0.0364	0.071
Mof_C 	C 	0.57996	0.6676	0.0755	-0.087
Mof_H 	H 	0.5702	0.7509	0.0492	0.047
Mof_H 	H 	0.6127	0.6747	0.1053	0.057
Mof_C 	C 	0.4442	0.3272	0.8976	-0.114
Mof_H 	H 	0.4379	0.2324	0.8779	0.069
Mof_H 	H 	0.4327	0.4066	0.8693	0.066
Mof_C 	C 	0.66426	0.6405	0.39376	-0.059
Mof_H 	H 	0.6365	0.5814	0.3735	0.066
Mof_H 	H 	0.6566	0.7451	0.3921	0.054
Mof_C 	C 	0.71074	0.4437	0.4441	-0.074
Mof_H 	H 	0.6886	0.367	0.4345	0.061
Mof_H 	H 	0.7406	0.4123	0.478	0.05
Mof_C 	C 	0.7115	0.4722	0.394	-0.075
Mof_H 	H 	0.7427	0.4769	0.4072	0.06
Mof_H 	H 	0.6955	0.3933	0.3655	0.058
Mof_C 	C 	0.78215	0.7586	0.62209	-0.043
Mof_H 	H 	0.7724	0.7768	0.6456	0.053
Mof_H 	H 	0.7998	0.6668	0.6357	0.05
Mof_C 	C 	0.71744	0.5931	0.5508	-0.075
Mof_H 	H 	0.7053	0.5894	0.572	0.054
Mof_H 	H 	0.7387	0.5107	0.5635	0.051
Mof_C 	C 	0.67906	0.5802	0.4869	-0.121
Mof_H 	H 	0.6634	0.4855	0.4788	0.07
Mof_H 	H 	0.6572	0.6601	0.4747	0.07
Mof_C 	C 	0.67389	0.9907	0.46209	0.378
Mof_C 	C 	0.64194	0.1053	0.41726	-0.218
Mof_C 	C 	0.63502	0.1183	0.36513	0.169
Mof_H 	H 	0.6504	0.0538	0.3575	-0.027
Mof_C 	C 	0.60628	0.2235	0.32502	-0.29
Mof_H 	H 	0.6016	0.2287	0.2902	0.144
Mof_C 	C 	0.58414	0.3224	0.33658	0.287
Mof_C 	C 	0.59054	0.3146	0.38817	-0.287
Mof_H 	H 	0.5759	0.3818	0.3961	0.132
Mof_C 	C 	0.61902	0.2052	0.42763	0.156
Mof_H 	H 	0.623	0.1983	0.462	-0.019
Mof_C 	C 	0.53084	0.524	0.30333	0.016
Mof_H 	H 	0.5511	0.5864	0.337	0.037
Mof_H 	H 	0.5125	0.4645	0.3097	0.043
Mof_C 	C 	0.52869	0.7204	0.24087	0.017
Mof_H 	H 	0.5511	0.7764	0.2756	0.046
Mof_H 	H 	0.5445	0.66	0.2307	0.036
Mof_C 	C 	0.51217	0.928	0.17746	0.298
Mof_C 	C 	0.47764	0.0163	0.1324	-0.293
Mof_H 	H 	0.4476	0.0036	0.1184	0.144
Mof_C 	C 	0.48845	0.1229	0.1088	0.158
Mof_H 	H 	0.4653	0.1807	0.0782	-0.021
Mof_C 	C 	0.53332	0.146	0.12966	-0.201
Mof_C 	C 	0.56717	0.0617	0.17609	0.134
Mof_H 	H 	0.5975	0.079	0.1918	-0.01
Mof_C 	C 	0.55702	0.9505	0.20024	-0.269
Mof_H 	H 	0.5801	0.8931	0.2311	0.128
Mof_C 	C 	0.54341	0.2562	0.10026	0.367
Mof_O 	O 	0.80061	0.4227	0.04592	-0.401
Mof_O 	O 	0.82692	0.4687	0.99664	-0.249
Mof_O 	O 	0.94317	0.9285	0.2053	-0.225
Mof_O 	O 	0.00309	0.3196	0.3054	-0.275
Mof_O 	O 	0.91598	0.7727	0.38038	-0.289
Mof_O 	O 	0.98994	0.8236	0.44318	-0.394
Mof_N 	N 	0.75895	0.2368	0.93855	-0.239
Mof_H 	H 	0.7805	0.316	0.9471	0.111
Mof_N 	N 	0.80234	0.0896	0.04578	-0.165
Mof_N 	N 	0.81181	0.1176	0.13067	-0.098
Mof_N 	N 	0.00582	0.8449	0.55767	-0.176
Mof_N 	N 	0.93181	0.0234	0.45609	-0.238
Mof_H 	H 	0.9171	0.944	0.4269	0.111
Mof_N 	N 	0.93358	0.8883	0.53136	-0.089
Mof_C 	C 	0.98173	0.9037	0.5795	-0.021
Mof_H 	H 	0.9895	0.8461	0.6124	0.059
Mof_H 	H 	0.9896	0.0077	0.5908	0.037
Mof_C 	C 	0.93164	0.74	0.5072	-0.084
Mof_H 	H 	0.9118	0.7441	0.4654	0.069
Mof_H 	H 	0.92	0.6648	0.519	0.068
Mof_C 	C 	0.9813	0.7017	0.5313	-0.065
Mof_H 	H 	0.9939	0.6226	0.5598	0.063
Mof_H 	H 	0.9826	0.6715	0.5006	0.053
Mof_C 	C 	0.91436	0.0098	0.4902	-0.08
Mof_H 	H 	0.9205	0.1029	0.5108	0.058
Mof_H 	H 	0.8815	0.9971	0.4636	0.068
Mof_C 	C 	0.92004	0.1676	0.4245	-0.085
Mof_H 	H 	0.9298	0.2509	0.4508	0.057
Mof_H 	H 	0.8873	0.1747	0.3947	0.055
Mof_C 	C 	0.0558	0.8272	0.6024	-0.114
Mof_H 	H 	0.0621	0.7324	0.6221	0.068
Mof_H 	H 	0.0673	0.9066	0.6307	0.069
Mof_C 	C 	0.83574	0.1405	0.10624	-0.062
Mof_H 	H 	0.8635	0.0814	0.1265	0.063
Mof_H 	H 	0.8434	0.2451	0.1079	0.054
Mof_C 	C 	0.78926	0.9437	0.0559	-0.062
Mof_H 	H 	0.8114	0.867	0.0655	0.056
Mof_H 	H 	0.7594	0.9123	0.022	0.037
Mof_C 	C 	0.7885	0.9722	0.106	-0.07
Mof_H 	H 	0.7573	0.9769	0.0928	0.061
Mof_H 	H 	0.8045	0.8933	0.1345	0.059
Mof_C 	C 	0.71785	0.2586	0.87791	-0.038
Mof_H 	H 	0.7276	0.2768	0.8544	0.049
Mof_H 	H 	0.7002	0.1668	0.8643	0.046
Mof_C 	C 	0.78256	0.0931	0.9492	0.004
Mof_H 	H 	0.7947	0.0894	0.928	0.035
Mof_H 	H 	0.7613	0.0107	0.9365	0.032
Mof_C 	C 	0.82094	0.0802	0.0131	-0.214
Mof_H 	H 	0.8366	0.9855	0.0212	0.099
Mof_H 	H 	0.8428	0.1601	0.0253	0.086
Mof_C 	C 	0.82611	0.4907	0.03791	0.307
Mof_C 	C 	0.85806	0.6053	0.08274	-0.18
Mof_C 	C 	0.86498	0.6183	0.13487	0.141
Mof_H 	H 	0.8496	0.5538	0.1425	-0.013
Mof_C 	C 	0.89372	0.7235	0.17498	-0.265
Mof_H 	H 	0.8984	0.7287	0.2098	0.138
Mof_C 	C 	0.91586	0.8224	0.16342	0.271
Mof_C 	C 	0.90946	0.8146	0.11183	-0.264
Mof_H 	H 	0.9241	0.8818	0.1039	0.126
Mof_C 	C 	0.88098	0.7052	0.07237	0.128
Mof_H 	H 	0.877	0.6983	0.038	-0.016
Mof_C 	C 	0.96916	0.024	0.19667	-0.021
Mof_H 	H 	0.9489	0.0864	0.163	0.045
Mof_H 	H 	0.9875	0.9645	0.1903	0.067
Mof_C 	C 	0.97131	0.2204	0.25913	0.048
Mof_H 	H 	0.9489	0.2764	0.2244	0.036
Mof_H 	H 	0.9555	0.16	0.2693	0.026
Mof_C 	C 	0.98783	0.428	0.32254	0.325
Mof_C 	C 	0.02236	0.5163	0.3676	-0.304
Mof_H 	H 	0.0524	0.5036	0.3816	0.153
Mof_C 	C 	0.01155	0.6229	0.3912	0.151
Mof_H 	H 	0.0347	0.6807	0.4218	-0.016
Mof_C 	C 	0.96668	0.646	0.37034	-0.191
Mof_C 	C 	0.93283	0.5617	0.32391	0.157
Mof_H 	H 	0.9025	0.579	0.3082	-0.014
Mof_C 	C 	0.94298	0.4505	0.29976	-0.3
Mof_H 	H 	0.9199	0.3931	0.2689	0.137
Mof_C 	C 	0.95659	0.7562	0.39974	0.366
Mof_O 	O 	0.30061	0.9227	0.04592	-0.401
Mof_O 	O 	0.32692	0.9687	0.99664	-0.247
Mof_O 	O 	0.44317	0.4285	0.2053	-0.245
Mof_O 	O 	0.50309	0.8196	0.3054	-0.249
Mof_O 	O 	0.41598	0.2727	0.38038	-0.293
Mof_O 	O 	0.48994	0.3236	0.44318	-0.405
Mof_N 	N 	0.25895	0.7368	0.93855	-0.236
Mof_H 	H 	0.2805	0.816	0.9471	0.112
Mof_N 	N 	0.30234	0.5896	0.04578	-0.163
Mof_N 	N 	0.31181	0.6176	0.13067	-0.092
Mof_N 	N 	0.50582	0.3449	0.55767	-0.166
Mof_N 	N 	0.43181	0.5234	0.45609	-0.235
Mof_H 	H 	0.4171	0.444	0.4269	0.101
Mof_N 	N 	0.43358	0.3883	0.53136	-0.096
Mof_C 	C 	0.48173	0.4037	0.5795	-0.056
Mof_H 	H 	0.4895	0.3461	0.6124	0.063
Mof_H 	H 	0.4896	0.5077	0.5908	0.05
Mof_C 	C 	0.43164	0.24	0.5072	-0.079
Mof_H 	H 	0.4118	0.2441	0.4654	0.065
Mof_H 	H 	0.42	0.1648	0.519	0.063
Mof_C 	C 	0.4813	0.2017	0.5313	-0.075
Mof_H 	H 	0.4939	0.1226	0.5598	0.059
Mof_H 	H 	0.4826	0.1715	0.5006	0.051
Mof_C 	C 	0.41436	0.5098	0.4902	-0.042
Mof_H 	H 	0.4205	0.6029	0.5108	0.048
Mof_H 	H 	0.3815	0.4971	0.4636	0.048
Mof_C 	C 	0.42004	0.6676	0.4245	-0.085
Mof_H 	H 	0.4298	0.7509	0.4508	0.057
Mof_H 	H 	0.3873	0.6747	0.3947	0.059
Mof_C 	C 	0.5558	0.3272	0.6024	-0.115
Mof_H 	H 	0.5621	0.2324	0.6221	0.068
Mof_H 	H 	0.5673	0.4066	0.6307	0.065
Mof_C 	C 	0.33574	0.6405	0.10624	-0.061
Mof_H 	H 	0.3635	0.5814	0.1265	0.067
Mof_H 	H 	0.3434	0.7451	0.1079	0.055
Mof_C 	C 	0.28926	0.4437	0.0559	-0.069
Mof_H 	H 	0.3114	0.367	0.0655	0.056
Mof_H 	H 	0.2594	0.4123	0.022	0.035
Mof_C 	C 	0.2885	0.4722	0.106	-0.079
Mof_H 	H 	0.2573	0.4769	0.0928	0.058
Mof_H 	H 	0.3045	0.3933	0.1345	0.058
Mof_C 	C 	0.21785	0.7586	0.87791	-0.04
Mof_H 	H 	0.2276	0.7768	0.8544	0.053
Mof_H 	H 	0.2002	0.6668	0.8643	0.05
Mof_C 	C 	0.28256	0.5931	0.9492	-0.011
Mof_H 	H 	0.2947	0.5894	0.928	0.042
Mof_H 	H 	0.2613	0.5107	0.9365	0.041
Mof_C 	C 	0.32094	0.5802	0.0131	-0.183
Mof_H 	H 	0.3366	0.4855	0.0212	0.08
Mof_H 	H 	0.3428	0.6601	0.0253	0.079
Mof_C 	C 	0.32611	0.9907	0.03791	0.323
Mof_C 	C 	0.35806	0.1053	0.08274	-0.202
Mof_C 	C 	0.36498	0.1183	0.13487	0.155
Mof_H 	H 	0.3496	0.0538	0.1425	-0.022
Mof_C 	C 	0.39372	0.2235	0.17498	-0.281
Mof_H 	H 	0.3984	0.2287	0.2098	0.141
Mof_C 	C 	0.41586	0.3224	0.16342	0.281
Mof_C 	C 	0.40946	0.3146	0.11183	-0.279
Mof_H 	H 	0.4241	0.3818	0.1039	0.128
Mof_C 	C 	0.38098	0.2052	0.07237	0.142
Mof_H 	H 	0.377	0.1983	0.038	-0.024
Mof_C 	C 	0.46916	0.524	0.19667	0.016
Mof_H 	H 	0.4489	0.5864	0.163	0.037
Mof_H 	H 	0.4875	0.4645	0.1903	0.044
Mof_C 	C 	0.47131	0.7204	0.25913	0.017
Mof_H 	H 	0.4489	0.7764	0.2244	0.046
Mof_H 	H 	0.4555	0.66	0.2693	0.036
Mof_C 	C 	0.48783	0.928	0.32254	0.297
Mof_C 	C 	0.52236	0.0163	0.3676	-0.292
Mof_H 	H 	0.5524	0.0036	0.3816	0.146
Mof_C 	C 	0.51155	0.1229	0.3912	0.157
Mof_H 	H 	0.5347	0.1807	0.4218	-0.017
Mof_C 	C 	0.46668	0.146	0.37034	-0.198
Mof_C 	C 	0.43283	0.0617	0.32391	0.133
Mof_H 	H 	0.4025	0.079	0.3082	-0.009
Mof_C 	C 	0.44298	0.9505	0.29976	-0.268
Mof_H 	H 	0.4199	0.8931	0.2689	0.128
Mof_C 	C 	0.45659	0.2562	0.39974	0.367
Mof_O 	O 	0.80061	0.5773	0.54592	-0.404
Mof_O 	O 	0.82692	0.5313	0.49664	-0.298
Mof_O 	O 	0.94317	0.0715	0.7053	-0.268
Mof_O 	O 	0.00309	0.6804	0.8054	-0.279
Mof_O 	O 	0.91598	0.2273	0.88038	-0.289
Mof_O 	O 	0.98994	0.1764	0.94318	-0.381
Mof_N 	N 	0.75895	0.7632	0.43855	-0.233
Mof_H 	H 	0.7805	0.684	0.4471	0.103
Mof_N 	N 	0.80234	0.9104	0.54578	-0.164
Mof_N 	N 	0.81181	0.8824	0.63067	-0.088
Mof_N 	N 	0.00582	0.1551	0.05767	-0.184
Mof_N 	N 	0.93181	0.9766	0.95609	-0.231
Mof_H 	H 	0.9171	0.056	0.9269	0.095
Mof_N 	N 	0.93358	0.1117	0.03136	-0.121
Mof_C 	C 	0.98173	0.0963	0.0795	-0.068
Mof_H 	H 	0.9895	0.1539	0.1124	0.069
Mof_H 	H 	0.9896	0.9923	0.0908	0.064
Mof_C 	C 	0.93164	0.26	0.0072	-0.171
Mof_H 	H 	0.9118	0.2559	0.9654	0.115
Mof_H 	H 	0.92	0.3352	0.019	0.084
Mof_C 	C 	0.9813	0.2983	0.0313	-0.026
Mof_H 	H 	0.9939	0.3774	0.0598	0.048
Mof_H 	H 	0.9826	0.3285	0.0006	0.024
Mof_C 	C 	0.91436	0.9902	0.9902	0.113
Mof_H 	H 	0.9205	0.8971	0.0108	-0.021
Mof_H 	H 	0.8815	0.0029	0.9636	0.003
Mof_C 	C 	0.92004	0.8324	0.9245	-0.078
Mof_H 	H 	0.9298	0.7491	0.9508	0.067
Mof_H 	H 	0.8873	0.8253	0.8947	0.062
Mof_C 	C 	0.0558	0.1728	0.1024	-0.114
Mof_H 	H 	0.0621	0.2676	0.1221	0.066
Mof_H 	H 	0.0673	0.0934	0.1307	0.06
Mof_C 	C 	0.83574	0.8595	0.60624	-0.057
Mof_H 	H 	0.8635	0.9186	0.6265	0.07
Mof_H 	H 	0.8434	0.7549	0.6079	0.053
Mof_C 	C 	0.78926	0.0563	0.5559	-0.081
Mof_H 	H 	0.8114	0.133	0.5655	0.062
Mof_H 	H 	0.7594	0.0877	0.522	0.049
Mof_C 	C 	0.7885	0.0278	0.606	-0.085
Mof_H 	H 	0.7573	0.0231	0.5928	0.059
Mof_H 	H 	0.8045	0.1067	0.6345	0.06
Mof_C 	C 	0.71785	0.7414	0.37791	-0.045
Mof_H 	H 	0.7276	0.7232	0.3544	0.052
Mof_H 	H 	0.7002	0.8332	0.3643	0.052
Mof_C 	C 	0.78256	0.9069	0.4492	-0.092
Mof_H 	H 	0.7947	0.9106	0.428	0.061
Mof_H 	H 	0.7613	0.9893	0.4365	0.06
Mof_C 	C 	0.82094	0.9198	0.5131	-0.087
Mof_H 	H 	0.8366	0.0145	0.5212	0.051
Mof_H 	H 	0.8428	0.8399	0.5253	0.061
Mof_C 	C 	0.82611	0.5093	0.53791	0.365
Mof_C 	C 	0.85806	0.3947	0.58274	-0.202
Mof_C 	C 	0.86498	0.3817	0.63487	0.163
Mof_H 	H 	0.8496	0.4462	0.6425	-0.019
Mof_C 	C 	0.89372	0.2765	0.67498	-0.287
Mof_H 	H 	0.8984	0.2713	0.7098	0.145
Mof_C 	C 	0.91586	0.1776	0.66342	0.291
Mof_C 	C 	0.90946	0.1854	0.61183	-0.285
Mof_H 	H 	0.9241	0.1182	0.6039	0.13
Mof_C 	C 	0.88098	0.2948	0.57237	0.15
Mof_H 	H 	0.877	0.3017	0.538	-0.016
Mof_C 	C 	0.96916	0.976	0.69667	0.105
Mof_H 	H 	0.9489	0.9136	0.663	0.015
Mof_H 	H 	0.9875	0.0355	0.6903	0.013
Mof_C 	C 	0.97131	0.7796	0.75913	0.082
Mof_H 	H 	0.9489	0.7236	0.7244	0.027
Mof_H 	H 	0.9555	0.84	0.7693	0.023
Mof_C 	C 	0.98783	0.572	0.82254	0.328
Mof_C 	C 	0.02236	0.4837	0.8676	-0.305
Mof_H 	H 	0.0524	0.4964	0.8816	0.156
Mof_C 	C 	0.01155	0.3771	0.8912	0.152
Mof_H 	H 	0.0347	0.3193	0.9218	-0.014
Mof_C 	C 	0.96668	0.354	0.87034	-0.189
Mof_C 	C 	0.93283	0.4383	0.82391	0.157
Mof_H 	H 	0.9025	0.421	0.8082	-0.013
Mof_C 	C 	0.94298	0.5495	0.79976	-0.301
Mof_H 	H 	0.9199	0.6069	0.7689	0.139
Mof_C 	C 	0.95659	0.2438	0.89974	0.366
Mof_O 	O 	0.30061	0.0773	0.54592	-0.403
Mof_O 	O 	0.32692	0.0313	0.49664	-0.299
Mof_O 	O 	0.44317	0.5715	0.7053	-0.243
Mof_O 	O 	0.50309	0.1804	0.8054	-0.25
Mof_O 	O 	0.41598	0.7273	0.88038	-0.288
Mof_O 	O 	0.48994	0.6764	0.94318	-0.387
Mof_N 	N 	0.25895	0.2632	0.43855	-0.236
Mof_H 	H 	0.2805	0.184	0.4471	0.102
Mof_N 	N 	0.30234	0.4104	0.54578	-0.165
Mof_N 	N 	0.31181	0.3824	0.63067	-0.094
Mof_N 	N 	0.50582	0.6551	0.05767	-0.175
Mof_N 	N 	0.43181	0.4766	0.95609	-0.239
Mof_H 	H 	0.4171	0.556	0.9269	0.104
Mof_N 	N 	0.43358	0.6117	0.03136	-0.114
Mof_C 	C 	0.48173	0.5963	0.0795	-0.052
Mof_H 	H 	0.4895	0.6539	0.1124	0.063
Mof_H 	H 	0.4896	0.4923	0.0908	0.047
Mof_C 	C 	0.43164	0.76	0.0072	-0.174
Mof_H 	H 	0.4118	0.7559	0.9654	0.119
Mof_H 	H 	0.42	0.8352	0.019	0.087
Mof_C 	C 	0.4813	0.7983	0.0313	-0.035
Mof_H 	H 	0.4939	0.8774	0.0598	0.049
Mof_H 	H 	0.4826	0.8285	0.0006	0.025
Mof_C 	C 	0.41436	0.4902	0.9902	0.075
Mof_H 	H 	0.4205	0.3971	0.0108	-0.013
Mof_H 	H 	0.3815	0.5029	0.9636	0.024
Mof_C 	C 	0.42004	0.3324	0.9245	-0.08
Mof_H 	H 	0.4298	0.2491	0.9508	0.064
Mof_H 	H 	0.3873	0.3253	0.8947	0.058
Mof_C 	C 	0.5558	0.6728	0.1024	-0.114
Mof_H 	H 	0.5621	0.7676	0.1221	0.07
Mof_H 	H 	0.5673	0.5934	0.1307	0.066
Mof_C 	C 	0.33574	0.3595	0.60624	-0.057
Mof_H 	H 	0.3635	0.4186	0.6265	0.065
Mof_H 	H 	0.3434	0.2549	0.6079	0.052
Mof_C 	C 	0.28926	0.5563	0.5559	-0.074
Mof_H 	H 	0.3114	0.633	0.5655	0.062
Mof_H 	H 	0.2594	0.5877	0.522	0.051
Mof_C 	C 	0.2885	0.5278	0.606	-0.076
Mof_H 	H 	0.2573	0.5231	0.5928	0.062
Mof_H 	H 	0.3045	0.6067	0.6345	0.061
Mof_C 	C 	0.21785	0.2414	0.37791	-0.043
Mof_H 	H 	0.2276	0.2232	0.3544	0.049
Mof_H 	H 	0.2002	0.3332	0.3643	0.049
Mof_C 	C 	0.28256	0.4069	0.4492	-0.075
Mof_H 	H 	0.2947	0.4106	0.428	0.054
Mof_H 	H 	0.2613	0.4893	0.4365	0.051
Mof_C 	C 	0.32094	0.4198	0.5131	-0.121
Mof_H 	H 	0.3366	0.5145	0.5212	0.07
Mof_H 	H 	0.3428	0.3399	0.5253	0.07
Mof_C 	C 	0.32611	0.0093	0.53791	0.347
Mof_C 	C 	0.35806	0.8947	0.58274	-0.177
Mof_C 	C 	0.36498	0.8817	0.63487	0.144
Mof_H 	H 	0.3496	0.9462	0.6425	-0.008
Mof_C 	C 	0.39372	0.7765	0.67498	-0.268
Mof_H 	H 	0.3984	0.7713	0.7098	0.139
Mof_C 	C 	0.41586	0.6776	0.66342	0.274
Mof_C 	C 	0.40946	0.6854	0.61183	-0.267
Mof_H 	H 	0.4241	0.6182	0.6039	0.125
Mof_C 	C 	0.38098	0.7948	0.57237	0.131
Mof_H 	H 	0.377	0.8017	0.538	-0.006
Mof_C 	C 	0.46916	0.476	0.69667	0.015
Mof_H 	H 	0.4489	0.4136	0.663	0.037
Mof_H 	H 	0.4875	0.5355	0.6903	0.044
Mof_C 	C 	0.47131	0.2796	0.75913	0.018
Mof_H 	H 	0.4489	0.2236	0.7244	0.043
Mof_H 	H 	0.4555	0.34	0.7693	0.036
Mof_C 	C 	0.48783	0.072	0.82254	0.278
Mof_C 	C 	0.52236	0.9837	0.8676	-0.26
Mof_H 	H 	0.5524	0.9964	0.8816	0.145
Mof_C 	C 	0.51155	0.8771	0.8912	0.152
Mof_H 	H 	0.5347	0.8193	0.9218	-0.01
Mof_C 	C 	0.46668	0.854	0.87034	-0.198
Mof_C 	C 	0.43283	0.9383	0.82391	0.167
Mof_H 	H 	0.4025	0.921	0.8082	-0.013
Mof_C 	C 	0.44298	0.0495	0.79976	-0.298
Mof_H 	H 	0.4199	0.1069	0.7689	0.133
Mof_C 	C 	0.45659	0.7438	0.89974	0.369
Mof_O 	O 	0.19939	0.5773	0.95408	-0.401
Mof_O 	O 	0.17308	0.5313	0.00336	-0.345
Mof_O 	O 	0.05683	0.0715	0.7947	-0.274
Mof_O 	O 	0.99691	0.6804	0.6946	-0.231
Mof_O 	O 	0.08402	0.2273	0.61962	-0.295
Mof_O 	O 	0.01006	0.1764	0.55682	-0.414
Mof_N 	N 	0.24105	0.7632	0.06145	-0.229
Mof_H 	H 	0.2195	0.684	0.0529	0.097
Mof_N 	N 	0.19766	0.9104	0.95422	-0.162
Mof_N 	N 	0.18819	0.8824	0.86933	-0.088
Mof_N 	N 	0.99418	0.1551	0.44233	-0.153
Mof_N 	N 	0.06819	0.9766	0.54391	-0.23
Mof_H 	H 	0.0829	0.056	0.5731	0.092
Mof_N 	N 	0.06642	0.1117	0.46864	-0.103
Mof_C 	C 	0.01827	0.0963	0.4205	-0.094
Mof_H 	H 	0.0105	0.1539	0.3876	0.069
Mof_H 	H 	0.0104	0.9923	0.4092	0.066
Mof_C 	C 	0.06836	0.26	0.4928	-0.074
Mof_H 	H 	0.0882	0.2559	0.5346	0.063
Mof_H 	H 	0.08	0.3352	0.481	0.064
Mof_C 	C 	0.0187	0.2983	0.4687	-0.088
Mof_H 	H 	0.0061	0.3774	0.4402	0.062
Mof_H 	H 	0.0174	0.3285	0.4994	0.053
Mof_C 	C 	0.08564	0.9902	0.5098	0
Mof_H 	H 	0.0795	0.8971	0.4892	0.036
Mof_H 	H 	0.1185	0.0029	0.5364	0.026
Mof_C 	C 	0.07996	0.8324	0.5755	-0.083
Mof_H 	H 	0.0702	0.7491	0.5492	0.054
Mof_H 	H 	0.1127	0.8253	0.6053	0.061
Mof_C 	C 	0.9442	0.1728	0.3976	-0.116
Mof_H 	H 	0.9379	0.2676	0.3779	0.072
Mof_H 	H 	0.9327	0.0934	0.3693	0.063
Mof_C 	C 	0.16426	0.8595	0.89376	-0.053
Mof_H 	H 	0.1365	0.9186	0.8735	0.069
Mof_H 	H 	0.1566	0.7549	0.8921	0.053
Mof_C 	C 	0.21074	0.0563	0.9441	-0.087
Mof_H 	H 	0.1886	0.133	0.9345	0.067
Mof_H 	H 	0.2406	0.0877	0.978	0.065
Mof_C 	C 	0.2115	0.0278	0.894	-0.081
Mof_H 	H 	0.2427	0.0231	0.9072	0.061
Mof_H 	H 	0.1955	0.1067	0.8655	0.06
Mof_C 	C 	0.28215	0.7414	0.12209	-0.048
Mof_H 	H 	0.2724	0.7232	0.1456	0.053
Mof_H 	H 	0.2998	0.8332	0.1357	0.053
Mof_C 	C 	0.21744	0.9069	0.0508	-0.155
Mof_H 	H 	0.2053	0.9106	0.072	0.073
Mof_H 	H 	0.2387	0.9893	0.0635	0.07
Mof_C 	C 	0.17906	0.9198	0.9869	-0.022
Mof_H 	H 	0.1634	0.0145	0.9788	0.039
Mof_H 	H 	0.1572	0.8399	0.9747	0.053
Mof_C 	C 	0.17389	0.5093	0.96209	0.418
Mof_C 	C 	0.14194	0.3947	0.91726	-0.217
Mof_C 	C 	0.13502	0.3817	0.86513	0.175
Mof_H 	H 	0.1504	0.4462	0.8575	-0.023
Mof_C 	C 	0.10628	0.2765	0.82502	-0.296
Mof_H 	H 	0.1016	0.2713	0.7902	0.147
Mof_C 	C 	0.08414	0.1776	0.83658	0.296
Mof_C 	C 	0.09054	0.1854	0.88817	-0.293
Mof_H 	H 	0.0759	0.1182	0.8961	0.132
Mof_C 	C 	0.11902	0.2948	0.92763	0.162
Mof_H 	H 	0.123	0.3017	0.962	-0.011
Mof_C 	C 	0.03084	0.976	0.80333	0.099
Mof_H 	H 	0.0511	0.9136	0.837	0.017
Mof_H 	H 	0.0125	0.0355	0.8097	0.006
Mof_C 	C 	0.02869	0.7796	0.74087	0.03
Mof_H 	H 	0.0511	0.7236	0.7756	0.041
Mof_H 	H 	0.0445	0.84	0.7307	0.033
Mof_C 	C 	0.01217	0.572	0.67746	0.256
Mof_C 	C 	0.97764	0.4837	0.6324	-0.254
Mof_H 	H 	0.9476	0.4964	0.6184	0.138
Mof_C 	C 	0.98845	0.3771	0.6088	0.162
Mof_H 	H 	0.9653	0.3193	0.5782	-0.016
Mof_C 	C 	0.03332	0.354	0.62966	-0.21
Mof_C 	C 	0.06717	0.4383	0.67609	0.145
Mof_H 	H 	0.0975	0.421	0.6918	-0.01
Mof_C 	C 	0.05702	0.5495	0.70024	-0.27
Mof_H 	H 	0.0801	0.6069	0.7311	0.126
Mof_C 	C 	0.04341	0.2438	0.60026	0.37
Mof_O 	O 	0.69939	0.0773	0.95408	-0.4
Mof_O 	O 	0.67308	0.0313	0.00336	-0.345
Mof_O 	O 	0.55683	0.5715	0.7947	-0.244
Mof_O 	O 	0.49691	0.1804	0.6946	-0.25
Mof_O 	O 	0.58402	0.7273	0.61962	-0.291
Mof_O 	O 	0.51006	0.6764	0.55682	-0.405
Mof_N 	N 	0.74105	0.2632	0.06145	-0.232
Mof_H 	H 	0.7195	0.184	0.0529	0.096
Mof_N 	N 	0.69766	0.4104	0.95422	-0.163
Mof_N 	N 	0.68819	0.3824	0.86933	-0.095
Mof_N 	N 	0.49418	0.6551	0.44233	-0.166
Mof_N 	N 	0.56819	0.4766	0.54391	-0.236
Mof_H 	H 	0.5829	0.556	0.5731	0.102
Mof_N 	N 	0.56642	0.6117	0.46864	-0.095
Mof_C 	C 	0.51827	0.5963	0.4205	-0.056
Mof_H 	H 	0.5105	0.6539	0.3876	0.064
Mof_H 	H 	0.5104	0.4923	0.4092	0.05
Mof_C 	C 	0.56836	0.76	0.4928	-0.08
Mof_H 	H 	0.5882	0.7559	0.5346	0.067
Mof_H 	H 	0.58	0.8352	0.481	0.069
Mof_C 	C 	0.5187	0.7983	0.4687	-0.078
Mof_H 	H 	0.5061	0.8774	0.4402	0.066
Mof_H 	H 	0.5174	0.8285	0.4994	0.055
Mof_C 	C 	0.58564	0.4902	0.5098	-0.042
Mof_H 	H 	0.5795	0.3971	0.4892	0.047
Mof_H 	H 	0.6185	0.5029	0.5364	0.048
Mof_C 	C 	0.57996	0.3324	0.5755	-0.084
Mof_H 	H 	0.5702	0.2491	0.5492	0.054
Mof_H 	H 	0.6127	0.3253	0.6053	0.057
Mof_C 	C 	0.4442	0.6728	0.3976	-0.115
Mof_H 	H 	0.4379	0.7676	0.3779	0.071
Mof_H 	H 	0.4327	0.5934	0.3693	0.066
Mof_C 	C 	0.66426	0.3595	0.89376	-0.054
Mof_H 	H 	0.6365	0.4186	0.8735	0.063
Mof_H 	H 	0.6566	0.2549	0.8921	0.052
Mof_C 	C 	0.71074	0.5563	0.9441	-0.079
Mof_H 	H 	0.6886	0.633	0.9345	0.067
Mof_H 	H 	0.7406	0.5877	0.978	0.067
Mof_C 	C 	0.7115	0.5278	0.894	-0.071
Mof_H 	H 	0.7427	0.5231	0.9072	0.064
Mof_H 	H 	0.6955	0.6067	0.8655	0.061
Mof_C 	C 	0.78215	0.2414	0.12209	-0.046
Mof_H 	H 	0.7724	0.2232	0.1456	0.049
Mof_H 	H 	0.7998	0.3332	0.1357	0.05
Mof_C 	C 	0.71744	0.4069	0.0508	-0.136
Mof_H 	H 	0.7053	0.4106	0.072	0.065
Mof_H 	H 	0.7387	0.4893	0.0635	0.061
Mof_C 	C 	0.67906	0.4198	0.9869	-0.058
Mof_H 	H 	0.6634	0.5145	0.9788	0.06
Mof_H 	H 	0.6572	0.3399	0.9747	0.061
Mof_C 	C 	0.67389	0.0093	0.96209	0.399
Mof_C 	C 	0.64194	0.8947	0.91726	-0.192
Mof_C 	C 	0.63502	0.8817	0.86513	0.156
Mof_H 	H 	0.6504	0.9462	0.8575	-0.012
Mof_C 	C 	0.60628	0.7765	0.82502	-0.276
Mof_H 	H 	0.6016	0.7713	0.7902	0.142
Mof_C 	C 	0.58414	0.6776	0.83658	0.28
Mof_C 	C 	0.59054	0.6854	0.88817	-0.274
Mof_H 	H 	0.5759	0.6182	0.8961	0.128
Mof_C 	C 	0.61902	0.7948	0.92763	0.144
Mof_H 	H 	0.623	0.8017	0.962	-0.001
Mof_C 	C 	0.53084	0.476	0.80333	0.015
Mof_H 	H 	0.5511	0.4136	0.837	0.037
Mof_H 	H 	0.5125	0.5355	0.8097	0.044
Mof_C 	C 	0.52869	0.2796	0.74087	0.018
Mof_H 	H 	0.5511	0.2236	0.7756	0.043
Mof_H 	H 	0.5445	0.34	0.7307	0.036
Mof_C 	C 	0.51217	0.072	0.67746	0.279
Mof_C 	C 	0.47764	0.9837	0.6324	-0.261
Mof_H 	H 	0.4476	0.9964	0.6184	0.143
Mof_C 	C 	0.48845	0.8771	0.6088	0.154
Mof_H 	H 	0.4653	0.8193	0.5782	-0.014
Mof_C 	C 	0.53332	0.854	0.62966	-0.202
Mof_C 	C 	0.56717	0.9383	0.67609	0.168
Mof_H 	H 	0.5975	0.921	0.6918	-0.014
Mof_C 	C 	0.55702	0.0495	0.70024	-0.299
Mof_H 	H 	0.5801	0.1069	0.7311	0.134
Mof_C 	C 	0.54341	0.7438	0.60026	0.37
Mof_Ni	Ni	-0	0	-0	1.068
Mof_Ni	Ni	0.5	0.5	-0	1.078
Mof_Ni	Ni	2.39723e-33	0	0.5	1.084
Mof_Ni	Ni	0.5	0.5	0.5	1.096
Mof_Ni	Ni	0.25	0.25	0.5	1.095
Mof_Ni	Ni	0.75	0.25	-0	1.078
Mof_Ni	Ni	0.75	0.75	0.5	1.095
Mof_Ni	Ni	0.25	0.75	-0	1.078
Mof_C 	C 	1.19861e-33	0.1218	0.25	0.012
Mof_C 	C 	0.5	0.6218	0.25	0.012
Mof_C 	C 	3.59584e-33	0.8782	0.75	-0.054
Mof_C 	C 	0.5	0.3782	0.75	0.011
_end
