# CIF file generated by openbabel 3.1.0, see https://openbabel.org
data_I
_chemical_name_common 'image0'
_cell_length_a 11.4801
_cell_length_b 21.0566
_cell_length_c 14.7227
_cell_angle_alpha 90
_cell_angle_beta 110.471
_cell_angle_gamma 90
_space_group_name_H-M_alt 'P 1'
_space_group_name_Hall 'P 1'
loop_
    _symmetry_equiv_pos_as_xyz
    x,y,z
loop_
    _atom_site_label
    _atom_site_type_symbol
    _atom_site_fract_x
    _atom_site_fract_y
    _atom_site_fract_z
    _atom_site_occupancy
    U1       U        0.10649    0.47120    0.87469    1.000
    U2       U        0.39099    0.24548    0.95595    1.000
    S1       S        0.15639    0.17825    0.05570    1.000
    S2       S        0.61308    0.32739    0.67792    1.000
    O1       O        0.07420    0.42330    0.00820    1.000
    O2       O        0.88630    0.44250    0.01820    1.000
    O3       O        0.59390    0.25760    0.96040    1.000
    O4       O        0.65700    0.16500    0.91890    1.000
    O5       O        0.25590    0.21680    0.04370    1.000
    O6       O        0.12270    0.12480    0.99120    1.000
    O7       O        0.18560    0.16090    0.15690    1.000
    O8       O        0.10400    0.36020    0.83960    1.000
    O9       O        0.18770    0.26420    0.84980    1.000
    O10      O        0.92690    0.07340    0.71190    1.000
    O11      O        0.72190    0.08700    0.65800    1.000
    O12      O        0.51370    0.28720    0.61520    1.000
    O13      O        0.59080    0.34190    0.76680    1.000
    O14      O        0.63450    0.38310    0.62950    1.000
    C1       C        0.96960    0.40540    0.01210    1.000
    C2       C        0.67630    0.21930    0.94730    1.000
    C3       C        0.94580    0.33610    0.00760    1.000
    C4       C        0.82650    0.31170    0.98460    1.000
    H1       H        0.75940    0.33920    0.97290    1.000
    C5       C        0.80650    0.24610    0.97870    1.000
    C6       C        0.90640    0.20490    0.99770    1.000
    H2       H        0.89330    0.16120    0.99240    1.000
    C7       C        0.02750    0.22960    0.02510    1.000
    C8       C        0.04650    0.29490    0.02860    1.000
    H3       H        0.12670    0.31100    0.04500    1.000
    C9       C        0.09640    0.30170    0.82500    1.000
    C10      C        0.82980    0.10810    0.69640    1.000
    C11      C        0.97010    0.27190    0.77770    1.000
    C12      C        0.96140    0.20610    0.76010    1.000
    H4       H        0.03310    0.18150    0.77610    1.000
    C13      C        0.84710    0.17840    0.71930    1.000
    C14      C        0.73970    0.21560    0.69410    1.000
    H5       H        0.66220    0.19650    0.66670    1.000
    C15      C        0.74750    0.28060    0.70930    1.000
    C16      C        0.86500    0.30940    0.75140    1.000
    H6       H        0.87150    0.35300    0.76140    1.000
    U3       U        0.89351    0.97120    0.62531    1.000
    U4       U        0.60901    0.74548    0.54405    1.000
    S3       S        0.84361    0.67825    0.44430    1.000
    S4       S        0.38692    0.82739    0.82208    1.000
    O15      O        0.92580    0.92330    0.49180    1.000
    O16      O        0.11370    0.94250    0.48180    1.000
    O17      O        0.40610    0.75760    0.53960    1.000
    O18      O        0.34300    0.66500    0.58110    1.000
    O19      O        0.74410    0.71680    0.45630    1.000
    O20      O        0.87730    0.62480    0.50880    1.000
    O21      O        0.81440    0.66090    0.34310    1.000
    O22      O        0.89600    0.86020    0.66040    1.000
    O23      O        0.81230    0.76420    0.65020    1.000
    O24      O        0.07310    0.57340    0.78810    1.000
    O25      O        0.27810    0.58700    0.84200    1.000
    O26      O        0.48630    0.78720    0.88480    1.000
    O27      O        0.40920    0.84190    0.73320    1.000
    O28      O        0.36550    0.88310    0.87050    1.000
    C17      C        0.03040    0.90540    0.48790    1.000
    C18      C        0.32370    0.71930    0.55270    1.000
    C19      C        0.05420    0.83610    0.49240    1.000
    C20      C        0.17350    0.81170    0.51540    1.000
    H7       H        0.24060    0.83920    0.52710    1.000
    C21      C        0.19350    0.74610    0.52130    1.000
    C22      C        0.09360    0.70490    0.50230    1.000
    H8       H        0.10670    0.66120    0.50760    1.000
    C23      C        0.97250    0.72960    0.47490    1.000
    C24      C        0.95350    0.79490    0.47140    1.000
    H9       H        0.87330    0.81100    0.45500    1.000
    C25      C        0.90360    0.80170    0.67500    1.000
    C26      C        0.17020    0.60810    0.80360    1.000
    C27      C        0.02990    0.77190    0.72230    1.000
    C28      C        0.03860    0.70610    0.73990    1.000
    H10      H        0.96690    0.68150    0.72390    1.000
    C29      C        0.15290    0.67840    0.78070    1.000
    C30      C        0.26030    0.71560    0.80590    1.000
    H11      H        0.33780    0.69650    0.83330    1.000
    C31      C        0.25250    0.78060    0.79070    1.000
    C32      C        0.13500    0.80940    0.74860    1.000
    H12      H        0.12850    0.85300    0.73860    1.000
    U5       U        0.89351    0.52880    0.12531    1.000
    U6       U        0.60901    0.75452    0.04405    1.000
    S5       S        0.84361    0.82175    0.94430    1.000
    S6       S        0.38692    0.67261    0.32208    1.000
    O29      O        0.92580    0.57670    0.99180    1.000
    O30      O        0.11370    0.55750    0.98180    1.000
    O31      O        0.40610    0.74240    0.03960    1.000
    O32      O        0.34300    0.83500    0.08110    1.000
    O33      O        0.74410    0.78320    0.95630    1.000
    O34      O        0.87730    0.87520    0.00880    1.000
    O35      O        0.81440    0.83910    0.84310    1.000
    O36      O        0.89600    0.63980    0.16040    1.000
    O37      O        0.81230    0.73580    0.15020    1.000
    O38      O        0.07310    0.92660    0.28810    1.000
    O39      O        0.27810    0.91300    0.34200    1.000
    O40      O        0.48630    0.71280    0.38480    1.000
    O41      O        0.40920    0.65810    0.23320    1.000
    O42      O        0.36550    0.61690    0.37050    1.000
    C33      C        0.03040    0.59460    0.98790    1.000
    C34      C        0.32370    0.78070    0.05270    1.000
    C35      C        0.05420    0.66390    0.99240    1.000
    C36      C        0.17350    0.68830    0.01540    1.000
    H13      H        0.24060    0.66080    0.02710    1.000
    C37      C        0.19350    0.75390    0.02130    1.000
    C38      C        0.09360    0.79510    0.00230    1.000
    H14      H        0.10670    0.83880    0.00760    1.000
    C39      C        0.97250    0.77040    0.97490    1.000
    C40      C        0.95350    0.70510    0.97140    1.000
    H15      H        0.87330    0.68900    0.95500    1.000
    C41      C        0.90360    0.69830    0.17500    1.000
    C42      C        0.17020    0.89190    0.30360    1.000
    C43      C        0.02990    0.72810    0.22230    1.000
    C44      C        0.03860    0.79390    0.23990    1.000
    H16      H        0.96690    0.81850    0.22390    1.000
    C45      C        0.15290    0.82160    0.28070    1.000
    C46      C        0.26030    0.78440    0.30590    1.000
    H17      H        0.33780    0.80350    0.33330    1.000
    C47      C        0.25250    0.71940    0.29070    1.000
    C48      C        0.13500    0.69060    0.24860    1.000
    H18      H        0.12850    0.64700    0.23860    1.000
    U7       U        0.10649    0.02880    0.37469    1.000
    U8       U        0.39099    0.25452    0.45595    1.000
    S7       S        0.15639    0.32175    0.55570    1.000
    S8       S        0.61308    0.17261    0.17792    1.000
    O43      O        0.07420    0.07670    0.50820    1.000
    O44      O        0.88630    0.05750    0.51820    1.000
    O45      O        0.59390    0.24240    0.46040    1.000
    O46      O        0.65700    0.33500    0.41890    1.000
    O47      O        0.25590    0.28320    0.54370    1.000
    O48      O        0.12270    0.37520    0.49120    1.000
    O49      O        0.18560    0.33910    0.65690    1.000
    O50      O        0.10400    0.13980    0.33960    1.000
    O51      O        0.18770    0.23580    0.34980    1.000
    O52      O        0.92690    0.42660    0.21190    1.000
    O53      O        0.72190    0.41300    0.15800    1.000
    O54      O        0.51370    0.21280    0.11520    1.000
    O55      O        0.59080    0.15810    0.26680    1.000
    O56      O        0.63450    0.11690    0.12950    1.000
    C49      C        0.96960    0.09460    0.51210    1.000
    C50      C        0.67630    0.28070    0.44730    1.000
    C51      C        0.94580    0.16390    0.50760    1.000
    C52      C        0.82650    0.18830    0.48460    1.000
    H19      H        0.75940    0.16080    0.47290    1.000
    C53      C        0.80650    0.25390    0.47870    1.000
    C54      C        0.90640    0.29510    0.49770    1.000
    H20      H        0.89330    0.33880    0.49240    1.000
    C55      C        0.02750    0.27040    0.52510    1.000
    C56      C        0.04650    0.20510    0.52860    1.000
    H21      H        0.12670    0.18900    0.54500    1.000
    C57      C        0.09640    0.19830    0.32500    1.000
    C58      C        0.82980    0.39190    0.19640    1.000
    C59      C        0.97010    0.22810    0.27770    1.000
    C60      C        0.96140    0.29390    0.26010    1.000
    H22      H        0.03310    0.31850    0.27610    1.000
    C61      C        0.84710    0.32160    0.21930    1.000
    C62      C        0.73970    0.28440    0.19410    1.000
    H23      H        0.66220    0.30350    0.16670    1.000
    C63      C        0.74750    0.21940    0.20930    1.000
    C64      C        0.86500    0.19060    0.25140    1.000
    H24      H        0.87150    0.14700    0.26140    1.000
