# CIF file generated by openbabel 3.1.0, see https://openbabel.org
data_I
_chemical_name_common 'VAZLUF_clean'
_cell_length_a 9.9513
_cell_length_b 9.9513
_cell_length_c 13.4849
_cell_angle_alpha 85.7894
_cell_angle_beta 69.7656
_cell_angle_gamma 115.584
_space_group_name_H-M_alt 'P 1'
_space_group_name_Hall 'P 1'
loop_
    _symmetry_equiv_pos_as_xyz
    x,y,z
loop_
    _atom_site_label
    _atom_site_type_symbol
    _atom_site_fract_x
    _atom_site_fract_y
    _atom_site_fract_z
    _atom_site_occupancy
    Sm1      Sm       0.26551    0.53861    0.00196    1.000
    Sm2      Sm       0.04057    0.26747    0.49804    1.000
    Sm3      Sm       0.73449    0.46139    0.99804    1.000
    Sm4      Sm       0.95943    0.73253    0.50196    1.000
    H1       H        0.98620    0.05320    0.14600    1.000
    H2       H        0.81870    0.76560    0.17910    1.000
    H3       H        0.69920    0.13220    0.35400    1.000
    H4       H        0.44470    0.99780    0.32090    1.000
    H5       H        0.01380    0.94680    0.85400    1.000
    H6       H        0.18130    0.23440    0.82090    1.000
    H7       H        0.30080    0.86780    0.64600    1.000
    H8       H        0.55530    0.00220    0.67910    1.000
    C1       C        0.87970    0.22820    0.03810    1.000
    C2       C        0.68590    0.81730    0.11120    1.000
    C3       C        0.89710    0.00200    0.12910    1.000
    C4       C        0.55740    0.67840    0.10040    1.000
    C5       C        0.80320    0.84110    0.14770    1.000
    C6       C        0.06220    0.40580    0.26560    1.000
    C7       C        0.83270    0.06710    0.08180    1.000
    C8       C        0.76630    0.91780    0.46190    1.000
    C9       C        0.42850    0.79710    0.38880    1.000
    C10      C        0.63110    0.02620    0.37090    1.000
    C11      C        0.27880    0.65780    0.39960    1.000
    C12      C        0.48880    0.95090    0.35230    1.000
    C13      C        0.17140    0.32780    0.23440    1.000
    C14      C        0.64890    0.91450    0.41820    1.000
    C15      C        0.12030    0.77180    0.96190    1.000
    C16      C        0.31410    0.18270    0.88880    1.000
    C17      C        0.10290    0.99800    0.87090    1.000
    C18      C        0.44260    0.32160    0.89960    1.000
    C19      C        0.19680    0.15890    0.85230    1.000
    C20      C        0.93780    0.59420    0.73440    1.000
    C21      C        0.16730    0.93290    0.91820    1.000
    C22      C        0.23370    0.08220    0.53810    1.000
    C23      C        0.57150    0.20290    0.61120    1.000
    C24      C        0.36890    0.97380    0.62910    1.000
    C25      C        0.72120    0.34220    0.60040    1.000
    C26      C        0.51120    0.04910    0.64770    1.000
    C27      C        0.82860    0.67220    0.76560    1.000
    C28      C        0.35110    0.08550    0.58180    1.000
    O1       O        0.00740    0.33140    0.03700    1.000
    O2       O        0.78660    0.24990    0.00270    1.000
    O3       O        0.07210    0.49350    0.18960    1.000
    O4       O        0.57770    0.56230    0.10240    1.000
    O5       O        0.70040    0.95590    0.07190    1.000
    O6       O        0.44050    0.68470    0.09000    1.000
    O7       O        0.97030    0.37230    0.36460    1.000
    O8       O        0.86840    0.04440    0.46300    1.000
    O9       O        0.75260    0.78930    0.49730    1.000
    O10      O        0.18310    0.26170    0.31040    1.000
    O11      O        0.16470    0.68010    0.39760    1.000
    O12      O        0.52780    0.77230    0.42810    1.000
    O13      O        0.27470    0.53050    0.41000    1.000
    O14      O        0.23690    0.33490    0.13540    1.000
    O15      O        0.99260    0.66860    0.96300    1.000
    O16      O        0.21340    0.75010    0.99730    1.000
    O17      O        0.92790    0.50650    0.81040    1.000
    O18      O        0.42230    0.43770    0.89760    1.000
    O19      O        0.29960    0.04410    0.92810    1.000
    O20      O        0.55950    0.31530    0.91000    1.000
    O21      O        0.02970    0.62770    0.63540    1.000
    O22      O        0.13160    0.95560    0.53700    1.000
    O23      O        0.24740    0.21070    0.50270    1.000
    O24      O        0.81690    0.73830    0.68960    1.000
    O25      O        0.83530    0.31990    0.60240    1.000
    O26      O        0.47220    0.22770    0.57190    1.000
    O27      O        0.72530    0.46950    0.59000    1.000
    O28      O        0.76310    0.66510    0.86460    1.000
