# CIF file generated by openbabel 3.1.0, see https://openbabel.org
data_I
_chemical_name_common 'image0'
_cell_length_a 14.4317
_cell_length_b 17.5615
_cell_length_c 7.4864
_cell_angle_alpha 90
_cell_angle_beta 90
_cell_angle_gamma 90
_space_group_name_H-M_alt 'P 1'
_space_group_name_Hall 'P 1'
loop_
    _symmetry_equiv_pos_as_xyz
    x,y,z
loop_
    _atom_site_label
    _atom_site_type_symbol
    _atom_site_fract_x
    _atom_site_fract_y
    _atom_site_fract_z
    _atom_site_occupancy
    N1       N        0.14434    0.77077    0.28600    1.000
    C1       C        0.10339    0.77530    0.16840    1.000
    N2       N        0.64434    0.27077    0.28600    1.000
    C2       C        0.60339    0.27530    0.16840    1.000
    N3       N        0.85566    0.22923    0.28600    1.000
    C3       C        0.89661    0.22470    0.16840    1.000
    N4       N        0.35566    0.72923    0.28600    1.000
    C4       C        0.39661    0.72470    0.16840    1.000
    N5       N        0.85566    0.77077    0.71400    1.000
    C5       C        0.89661    0.77530    0.83160    1.000
    N6       N        0.35566    0.27077    0.71400    1.000
    C6       C        0.39661    0.27530    0.83160    1.000
    N7       N        0.14434    0.22923    0.71400    1.000
    C7       C        0.10339    0.22470    0.83160    1.000
    N8       N        0.64434    0.72923    0.71400    1.000
    C8       C        0.60339    0.72470    0.83160    1.000
    N9       N        0.85566    0.22923    0.71400    1.000
    C9       C        0.89661    0.22470    0.83160    1.000
    N10      N        0.35566    0.72923    0.71400    1.000
    C10      C        0.39661    0.72470    0.83160    1.000
    N11      N        0.14434    0.77077    0.71400    1.000
    C11      C        0.10339    0.77530    0.83160    1.000
    N12      N        0.64434    0.27077    0.71400    1.000
    C12      C        0.60339    0.27530    0.83160    1.000
    N13      N        0.14434    0.22923    0.28600    1.000
    C13      C        0.10339    0.22470    0.16840    1.000
    N14      N        0.64434    0.72923    0.28600    1.000
    C14      C        0.60339    0.72470    0.16840    1.000
    N15      N        0.85566    0.77077    0.28600    1.000
    C15      C        0.89661    0.77530    0.16840    1.000
    N16      N        0.35566    0.27077    0.28600    1.000
    C16      C        0.39661    0.27530    0.16840    1.000
    Mn1      Mn       0.25000    0.75000    0.50000    1.000
    Mn2      Mn       0.75000    0.25000    0.50000    1.000
    Mn3      Mn       0.75000    0.75000    0.50000    1.000
    Mn4      Mn       0.25000    0.25000    0.50000    1.000
    C17      C        0.05127    0.77448    0.00000    1.000
    C18      C        0.55127    0.27448    0.00000    1.000
    C19      C        0.94873    0.22552    0.00000    1.000
    C20      C        0.44873    0.72552    0.00000    1.000
    C21      C        0.94873    0.77448    0.00000    1.000
    C22      C        0.44873    0.27448    0.00000    1.000
    C23      C        0.05127    0.22552    0.00000    1.000
    C24      C        0.55127    0.72552    0.00000    1.000
    N17      N        0.28466    0.87251    0.50000    1.000
    C25      C        0.31845    0.92860    0.50000    1.000
    N18      N        0.78466    0.37251    0.50000    1.000
    C26      C        0.81845    0.42860    0.50000    1.000
    N19      N        0.71534    0.12749    0.50000    1.000
    C27      C        0.68155    0.07140    0.50000    1.000
    N20      N        0.21534    0.62749    0.50000    1.000
    C28      C        0.18155    0.57140    0.50000    1.000
    N21      N        0.71534    0.87251    0.50000    1.000
    C29      C        0.68155    0.92860    0.50000    1.000
    N22      N        0.21534    0.37251    0.50000    1.000
    C30      C        0.18155    0.42860    0.50000    1.000
    N23      N        0.28466    0.12749    0.50000    1.000
    C31      C        0.31845    0.07140    0.50000    1.000
    N24      N        0.78466    0.62749    0.50000    1.000
    C32      C        0.81845    0.57140    0.50000    1.000
    C33      C        0.36280    0.00000    0.50000    1.000
    C34      C        0.86280    0.50000    0.50000    1.000
    C35      C        0.63720    0.00000    0.50000    1.000
    C36      C        0.13720    0.50000    0.50000    1.000
