data_functionalizedCrystal
_audit_creation_method	'EQeq! by Chris Wilmer'
_symmetry_space_group_name_H-M	'P1'
_symmetry_Int_Tables_number	1
_symmetry_cell_setting	triclinic
loop_
_symmetry_equiv_pos_as_xyz
  x,y,z
_cell_length_a	8.4759
_cell_length_b	25.285
_cell_length_c	17.765
_cell_angle_alpha	90
_cell_angle_beta	90
_cell_angle_gamma	90
loop_
_atom_site_label
_atom_site_type_symbol
_atom_site_fract_x
_atom_site_fract_y
_atom_site_fract_z
_atom_site_charge
Mof_Er	Er	0.16669	0.02325	0.28237	2.129
Mof_Er	Er	0.66669	0.97675	0.21763	2.129
Mof_Er	Er	0.66669	0.52325	0.71763	2.128
Mof_Er	Er	0.16669	0.47675	0.78237	2.128
Mof_Ag	Ag	0.46143	0.72767	0.45213	0.542
Mof_Ag	Ag	0.96143	0.27233	0.04787	0.538
Mof_Ag	Ag	0.96143	0.22767	0.54787	0.539
Mof_Ag	Ag	0.46143	0.77233	0.95213	0.541
Mof_H 	H 	0.6857	0.7982	0.3409	0.032
Mof_H 	H 	0.5603	0.0966	0.6423	0.145
Mof_H 	H 	0.744	0.1637	0.6721	-0.021
Mof_H 	H 	0.8996	0.1406	0.4171	0.035
Mof_H 	H 	0.466	0.0451	0.5084	0.076
Mof_H 	H 	0.7229	0.8695	0.6066	0.16
Mof_H 	H 	0.8865	0.9327	0.4966	0.072
Mof_H 	H 	0.5591	0.7944	0.6014	-0.013
Mof_H 	H 	0.1857	0.2018	0.1591	0.032
Mof_H 	H 	0.0603	0.9034	0.8577	0.144
Mof_H 	H 	0.244	0.8363	0.8279	-0.021
Mof_H 	H 	0.3996	0.8594	0.0829	0.036
Mof_H 	H 	0.966	0.9549	0.9916	0.076
Mof_H 	H 	0.2229	0.1305	0.8934	0.16
Mof_H 	H 	0.3865	0.0673	0.0034	0.072
Mof_H 	H 	0.0591	0.2056	0.8986	-0.012
Mof_H 	H 	0.1857	0.2982	0.6591	0.032
Mof_H 	H 	0.0603	0.5966	0.3577	0.144
Mof_H 	H 	0.244	0.6637	0.3279	-0.021
Mof_H 	H 	0.3996	0.6406	0.5829	0.036
Mof_H 	H 	0.966	0.5451	0.4916	0.077
Mof_H 	H 	0.2229	0.3695	0.3934	0.16
Mof_H 	H 	0.3865	0.4327	0.5034	0.072
Mof_H 	H 	0.0591	0.2944	0.3986	-0.013
Mof_H 	H 	0.6857	0.7018	0.8409	0.032
Mof_H 	H 	0.5603	0.4034	0.1423	0.144
Mof_H 	H 	0.744	0.3363	0.1721	-0.021
Mof_H 	H 	0.8996	0.3594	0.9171	0.035
Mof_H 	H 	0.466	0.4549	0.0084	0.076
Mof_H 	H 	0.7229	0.6305	0.1066	0.16
Mof_H 	H 	0.8865	0.5673	0.9966	0.072
Mof_H 	H 	0.5591	0.7056	0.1014	-0.013
Mof_C 	C 	0.9536	0.9533	0.3539	0.357
Mof_C 	C 	0.8663	0.9077	0.388	-0.047
Mof_C 	C 	0.8088	0.8663	0.3408	-0.09
Mof_C 	C 	0.7227	0.8255	0.3713	-0.065
Mof_C 	C 	0.8414	0.8639	0.257	0.384
Mof_C 	C 	0.5104	0.0176	0.3706	0.443
Mof_C 	C 	0.8114	0.0733	0.3144	0.44
Mof_C 	C 	0.7412	0.0836	0.3895	-0.089
Mof_C 	C 	0.731	0.1482	0.6251	0.13
Mof_C 	C 	0.8151	0.1208	0.4351	-0.037
Mof_C 	C 	0.6046	0.056	0.4162	-0.062
Mof_C 	C 	0.6377	0.0967	0.5358	0.102
Mof_C 	C 	0.5541	0.06292	0.4903	-0.078
Mof_C 	C 	0.8441	0.9068	0.4654	-0.088
Mof_C 	C 	0.6917	0.8256	0.4483	0.017
Mof_C 	C 	0.7598	0.12782	0.5081	0.019
Mof_C 	C 	0.7548	0.8651	0.4941	0.067
Mof_C 	C 	0.61	0.8098	0.5606	0.132
Mof_C 	C 	0.4536	0.0467	0.1461	0.358
Mof_C 	C 	0.3663	0.0923	0.112	-0.047
Mof_C 	C 	0.3088	0.1337	0.1592	-0.09
Mof_C 	C 	0.2227	0.1745	0.1287	-0.065
Mof_C 	C 	0.3414	0.1361	0.243	0.384
Mof_C 	C 	0.0104	0.9824	0.1294	0.445
Mof_C 	C 	0.3114	0.9267	0.1856	0.44
Mof_C 	C 	0.2412	0.9164	0.1105	-0.089
Mof_C 	C 	0.231	0.8518	0.8749	0.13
Mof_C 	C 	0.3151	0.8792	0.0649	-0.037
Mof_C 	C 	0.1046	0.944	0.0838	-0.062
Mof_C 	C 	0.1377	0.9033	0.9642	0.101
Mof_C 	C 	0.0541	0.93708	0.0097	-0.077
Mof_C 	C 	0.3441	0.0932	0.0346	-0.088
Mof_C 	C 	0.1917	0.1744	0.0517	0.017
Mof_C 	C 	0.2598	0.87218	0.9919	0.02
Mof_C 	C 	0.2548	0.1349	0.0059	0.067
Mof_C 	C 	0.11	0.1902	0.9394	0.132
Mof_C 	C 	0.4536	0.4533	0.6461	0.358
Mof_C 	C 	0.3663	0.4077	0.612	-0.047
Mof_C 	C 	0.3088	0.3663	0.6592	-0.09
Mof_C 	C 	0.2227	0.3255	0.6287	-0.065
Mof_C 	C 	0.3414	0.3639	0.743	0.384
Mof_C 	C 	0.0104	0.5176	0.6294	0.441
Mof_C 	C 	0.3114	0.5733	0.6856	0.44
Mof_C 	C 	0.2412	0.5836	0.6105	-0.09
Mof_C 	C 	0.231	0.6482	0.3749	0.13
Mof_C 	C 	0.3151	0.6208	0.5649	-0.037
Mof_C 	C 	0.1046	0.556	0.5838	-0.061
Mof_C 	C 	0.1377	0.5967	0.4642	0.102
Mof_C 	C 	0.0541	0.56292	0.5097	-0.08
Mof_C 	C 	0.3441	0.4068	0.5346	-0.088
Mof_C 	C 	0.1917	0.3256	0.5517	0.017
Mof_C 	C 	0.2598	0.62782	0.4919	0.019
Mof_C 	C 	0.2548	0.3651	0.5059	0.067
Mof_C 	C 	0.11	0.3098	0.4394	0.132
Mof_C 	C 	0.9536	0.5467	0.8539	0.359
Mof_C 	C 	0.8663	0.5923	0.888	-0.047
Mof_C 	C 	0.8088	0.6337	0.8408	-0.09
Mof_C 	C 	0.7227	0.6745	0.8713	-0.065
Mof_C 	C 	0.8414	0.6361	0.757	0.384
Mof_C 	C 	0.5104	0.4824	0.8706	0.442
Mof_C 	C 	0.8114	0.4267	0.8144	0.44
Mof_C 	C 	0.7412	0.4164	0.8895	-0.089
Mof_C 	C 	0.731	0.3518	0.1251	0.13
Mof_C 	C 	0.8151	0.3792	0.9351	-0.036
Mof_C 	C 	0.6046	0.444	0.9162	-0.061
Mof_C 	C 	0.6377	0.4033	0.0358	0.102
Mof_C 	C 	0.5541	0.43708	0.9903	-0.079
Mof_C 	C 	0.8441	0.5932	0.9654	-0.088
Mof_C 	C 	0.6917	0.6744	0.9483	0.017
Mof_C 	C 	0.7598	0.37218	0.0081	0.019
Mof_C 	C 	0.7548	0.6349	0.9941	0.067
Mof_C 	C 	0.61	0.6902	0.0606	0.132
Mof_N 	N 	0.625	0.11018	0.6104	-0.229
Mof_N 	N 	0.7011	0.85262	0.5659	-0.23
Mof_N 	N 	0.5998	0.79167	0.491	-0.214
Mof_N 	N 	0.8146	0.16127	0.5652	-0.216
Mof_N 	N 	0.125	0.88982	0.8896	-0.229
Mof_N 	N 	0.2011	0.14738	0.9341	-0.231
Mof_N 	N 	0.0998	0.20833	0.009	-0.213
Mof_N 	N 	0.3146	0.83873	0.9348	-0.216
Mof_N 	N 	0.125	0.61018	0.3896	-0.229
Mof_N 	N 	0.2011	0.35262	0.4341	-0.23
Mof_N 	N 	0.0998	0.29167	0.509	-0.214
Mof_N 	N 	0.3146	0.66127	0.4348	-0.216
Mof_N 	N 	0.625	0.38982	0.1104	-0.229
Mof_N 	N 	0.7011	0.64738	0.0659	-0.231
Mof_N 	N 	0.5998	0.70833	0.991	-0.214
Mof_N 	N 	0.8146	0.33873	0.0652	-0.216
Mof_O 	O 	0.9126	0.9693	0.28812	-0.553
Mof_O 	O 	0.0666	0.97445	0.3874	-0.437
Mof_O 	O 	0.7486	0.88984	0.21429	-0.474
Mof_O 	O 	0.9457	0.8357	0.2339	-0.292
Mof_O 	O 	0.3647	0.02368	0.3709	-0.506
Mof_O 	O 	0.9597	0.0791	0.3091	-0.503
Mof_O 	O 	0.5798	0.9788	0.3385	-0.527
Mof_O 	O 	0.7254	0.0601	0.2595	-0.508
Mof_O 	O 	0.4126	0.0307	0.21188	-0.553
Mof_O 	O 	0.5666	0.02555	0.1126	-0.438
Mof_O 	O 	0.2486	0.11016	0.28571	-0.474
Mof_O 	O 	0.4457	0.1643	0.2661	-0.292
Mof_O 	O 	0.8647	0.97632	0.1291	-0.507
Mof_O 	O 	0.4597	0.9209	0.1909	-0.503
Mof_O 	O 	0.0798	0.0212	0.1615	-0.527
Mof_O 	O 	0.2254	0.9399	0.2405	-0.508
Mof_O 	O 	0.4126	0.4693	0.71188	-0.553
Mof_O 	O 	0.5666	0.47445	0.6126	-0.438
Mof_O 	O 	0.2486	0.38984	0.78571	-0.474
Mof_O 	O 	0.4457	0.3357	0.7661	-0.292
Mof_O 	O 	0.8647	0.52368	0.6291	-0.505
Mof_O 	O 	0.4597	0.5791	0.6909	-0.503
Mof_O 	O 	0.0798	0.4788	0.6615	-0.526
Mof_O 	O 	0.2254	0.5601	0.7405	-0.508
Mof_O 	O 	0.9126	0.5307	0.78812	-0.553
Mof_O 	O 	0.0666	0.52555	0.8874	-0.439
Mof_O 	O 	0.7486	0.61016	0.71429	-0.474
Mof_O 	O 	0.9457	0.6643	0.7339	-0.291
Mof_O 	O 	0.3647	0.47632	0.8709	-0.506
Mof_O 	O 	0.9597	0.4209	0.8091	-0.503
Mof_O 	O 	0.5798	0.5212	0.8385	-0.527
Mof_O 	O 	0.7254	0.4399	0.7595	-0.508
Mof_Er	Er	0.33331	0.47675	0.28237	2.127
Mof_Er	Er	0.83331	0.52325	0.21763	2.127
Mof_Er	Er	0.83331	0.97675	0.71763	2.128
Mof_Er	Er	0.33331	0.02325	0.78237	2.128
Mof_Ag	Ag	0.03857	0.77233	0.45213	0.539
Mof_Ag	Ag	0.53857	0.22767	0.04787	0.541
Mof_Ag	Ag	0.53857	0.27233	0.54787	0.541
Mof_Ag	Ag	0.03857	0.72767	0.95213	0.537
Mof_H 	H 	0.8143	0.7018	0.3409	0.032
Mof_H 	H 	0.9397	0.4034	0.6423	0.144
Mof_H 	H 	0.756	0.3363	0.6721	-0.021
Mof_H 	H 	0.6004	0.3594	0.4171	0.036
Mof_H 	H 	0.034	0.4549	0.5084	0.077
Mof_H 	H 	0.7771	0.6305	0.6066	0.16
Mof_H 	H 	0.6135	0.5673	0.4966	0.072
Mof_H 	H 	0.9409	0.7056	0.6014	-0.013
Mof_H 	H 	0.3143	0.2982	0.1591	0.032
Mof_H 	H 	0.4397	0.5966	0.8577	0.144
Mof_H 	H 	0.256	0.6637	0.8279	-0.021
Mof_H 	H 	0.1004	0.6406	0.0829	0.035
Mof_H 	H 	0.534	0.5451	0.9916	0.076
Mof_H 	H 	0.2771	0.3695	0.8934	0.16
Mof_H 	H 	0.1135	0.4327	0.0034	0.072
Mof_H 	H 	0.4409	0.2944	0.8986	-0.013
Mof_H 	H 	0.3143	0.2018	0.6591	0.032
Mof_H 	H 	0.4397	0.9034	0.3577	0.145
Mof_H 	H 	0.256	0.8363	0.3279	-0.021
Mof_H 	H 	0.1004	0.8594	0.5829	0.035
Mof_H 	H 	0.534	0.9549	0.4916	0.076
Mof_H 	H 	0.2771	0.1305	0.3934	0.16
Mof_H 	H 	0.1135	0.0673	0.5034	0.072
Mof_H 	H 	0.4409	0.2056	0.3986	-0.013
Mof_H 	H 	0.8143	0.7982	0.8409	0.032
Mof_H 	H 	0.9397	0.0966	0.1423	0.144
Mof_H 	H 	0.756	0.1637	0.1721	-0.021
Mof_H 	H 	0.6004	0.1406	0.9171	0.036
Mof_H 	H 	0.034	0.0451	0.0084	0.076
Mof_H 	H 	0.7771	0.8695	0.1066	0.16
Mof_H 	H 	0.6135	0.9327	0.9966	0.072
Mof_H 	H 	0.9409	0.7944	0.1014	-0.012
Mof_C 	C 	0.5464	0.5467	0.3539	0.358
Mof_C 	C 	0.6337	0.5923	0.388	-0.047
Mof_C 	C 	0.6912	0.6337	0.3408	-0.09
Mof_C 	C 	0.7773	0.6745	0.3713	-0.065
Mof_C 	C 	0.6586	0.6361	0.257	0.384
Mof_C 	C 	0.9896	0.4824	0.3706	0.441
Mof_C 	C 	0.6886	0.4267	0.3144	0.44
Mof_C 	C 	0.7588	0.4164	0.3895	-0.09
Mof_C 	C 	0.769	0.3518	0.6251	0.13
Mof_C 	C 	0.6849	0.3792	0.4351	-0.037
Mof_C 	C 	0.8954	0.444	0.4162	-0.061
Mof_C 	C 	0.8623	0.4033	0.5358	0.102
Mof_C 	C 	0.9459	0.43708	0.4903	-0.08
Mof_C 	C 	0.6559	0.5932	0.4654	-0.088
Mof_C 	C 	0.8083	0.6744	0.4483	0.017
Mof_C 	C 	0.7402	0.37218	0.5081	0.019
Mof_C 	C 	0.7452	0.6349	0.4941	0.067
Mof_C 	C 	0.89	0.6902	0.5606	0.132
Mof_C 	C 	0.0464	0.4533	0.1461	0.359
Mof_C 	C 	0.1337	0.4077	0.112	-0.047
Mof_C 	C 	0.1912	0.3663	0.1592	-0.09
Mof_C 	C 	0.2773	0.3255	0.1287	-0.065
Mof_C 	C 	0.1586	0.3639	0.243	0.384
Mof_C 	C 	0.4896	0.5176	0.1294	0.442
Mof_C 	C 	0.1886	0.5733	0.1856	0.44
Mof_C 	C 	0.2588	0.5836	0.1105	-0.089
Mof_C 	C 	0.269	0.6482	0.8749	0.13
Mof_C 	C 	0.1849	0.6208	0.0649	-0.036
Mof_C 	C 	0.3954	0.556	0.0838	-0.061
Mof_C 	C 	0.3623	0.5967	0.9642	0.102
Mof_C 	C 	0.4459	0.56292	0.0097	-0.079
Mof_C 	C 	0.1559	0.4068	0.0346	-0.088
Mof_C 	C 	0.3083	0.3256	0.0517	0.017
Mof_C 	C 	0.2402	0.62782	0.9919	0.019
Mof_C 	C 	0.2452	0.3651	0.0059	0.067
Mof_C 	C 	0.39	0.3098	0.9394	0.132
Mof_C 	C 	0.0464	0.0467	0.6461	0.357
Mof_C 	C 	0.1337	0.0923	0.612	-0.047
Mof_C 	C 	0.1912	0.1337	0.6592	-0.09
Mof_C 	C 	0.2773	0.1745	0.6287	-0.065
Mof_C 	C 	0.1586	0.1361	0.743	0.384
Mof_C 	C 	0.4896	0.9824	0.6294	0.443
Mof_C 	C 	0.1886	0.9267	0.6856	0.44
Mof_C 	C 	0.2588	0.9164	0.6105	-0.089
Mof_C 	C 	0.269	0.8518	0.3749	0.13
Mof_C 	C 	0.1849	0.8792	0.5649	-0.037
Mof_C 	C 	0.3954	0.944	0.5838	-0.062
Mof_C 	C 	0.3623	0.9033	0.4642	0.102
Mof_C 	C 	0.4459	0.93708	0.5097	-0.078
Mof_C 	C 	0.1559	0.0932	0.5346	-0.088
Mof_C 	C 	0.3083	0.1744	0.5517	0.017
Mof_C 	C 	0.2402	0.87218	0.4919	0.019
Mof_C 	C 	0.2452	0.1349	0.5059	0.067
Mof_C 	C 	0.39	0.1902	0.4394	0.132
Mof_C 	C 	0.5464	0.9533	0.8539	0.358
Mof_C 	C 	0.6337	0.9077	0.888	-0.047
Mof_C 	C 	0.6912	0.8663	0.8408	-0.09
Mof_C 	C 	0.7773	0.8255	0.8713	-0.065
Mof_C 	C 	0.6586	0.8639	0.757	0.384
Mof_C 	C 	0.9896	0.0176	0.8706	0.445
Mof_C 	C 	0.6886	0.0733	0.8144	0.44
Mof_C 	C 	0.7588	0.0836	0.8895	-0.089
Mof_C 	C 	0.769	0.1482	0.1251	0.13
Mof_C 	C 	0.6849	0.1208	0.9351	-0.037
Mof_C 	C 	0.8954	0.056	0.9162	-0.062
Mof_C 	C 	0.8623	0.0967	0.0358	0.101
Mof_C 	C 	0.9459	0.06292	0.9903	-0.077
Mof_C 	C 	0.6559	0.9068	0.9654	-0.088
Mof_C 	C 	0.8083	0.8256	0.9483	0.017
Mof_C 	C 	0.7402	0.12782	0.0081	0.02
Mof_C 	C 	0.7452	0.8651	0.9941	0.067
Mof_C 	C 	0.89	0.8098	0.0606	0.132
Mof_N 	N 	0.875	0.38982	0.6104	-0.229
Mof_N 	N 	0.7989	0.64738	0.5659	-0.23
Mof_N 	N 	0.9002	0.70833	0.491	-0.214
Mof_N 	N 	0.6854	0.33873	0.5652	-0.216
Mof_N 	N 	0.375	0.61018	0.8896	-0.229
Mof_N 	N 	0.2989	0.35262	0.9341	-0.231
Mof_N 	N 	0.4002	0.29167	0.009	-0.214
Mof_N 	N 	0.1854	0.66127	0.9348	-0.216
Mof_N 	N 	0.375	0.88982	0.3896	-0.229
Mof_N 	N 	0.2989	0.14738	0.4341	-0.23
Mof_N 	N 	0.4002	0.20833	0.509	-0.214
Mof_N 	N 	0.1854	0.83873	0.4348	-0.216
Mof_N 	N 	0.875	0.11018	0.1104	-0.229
Mof_N 	N 	0.7989	0.85262	0.0659	-0.231
Mof_N 	N 	0.9002	0.79167	0.991	-0.213
Mof_N 	N 	0.6854	0.16127	0.0652	-0.216
Mof_O 	O 	0.5874	0.5307	0.28812	-0.553
Mof_O 	O 	0.4334	0.52555	0.3874	-0.438
Mof_O 	O 	0.7514	0.61016	0.21429	-0.474
Mof_O 	O 	0.5543	0.6643	0.2339	-0.292
Mof_O 	O 	0.1353	0.47632	0.3709	-0.505
Mof_O 	O 	0.5403	0.4209	0.3091	-0.503
Mof_O 	O 	0.9202	0.5212	0.3385	-0.526
Mof_O 	O 	0.7746	0.4399	0.2595	-0.508
Mof_O 	O 	0.0874	0.4693	0.21188	-0.553
Mof_O 	O 	0.9334	0.47445	0.1126	-0.439
Mof_O 	O 	0.2514	0.38984	0.28571	-0.474
Mof_O 	O 	0.0543	0.3357	0.2661	-0.291
Mof_O 	O 	0.6353	0.52368	0.1291	-0.506
Mof_O 	O 	0.0403	0.5791	0.1909	-0.503
Mof_O 	O 	0.4202	0.4788	0.1615	-0.527
Mof_O 	O 	0.2746	0.5601	0.2405	-0.508
Mof_O 	O 	0.0874	0.0307	0.71188	-0.553
Mof_O 	O 	0.9334	0.02555	0.6126	-0.437
Mof_O 	O 	0.2514	0.11016	0.78571	-0.474
Mof_O 	O 	0.0543	0.1643	0.7661	-0.292
Mof_O 	O 	0.6353	0.97632	0.6291	-0.506
Mof_O 	O 	0.0403	0.9209	0.6909	-0.503
Mof_O 	O 	0.4202	0.0212	0.6615	-0.527
Mof_O 	O 	0.2746	0.9399	0.7405	-0.508
Mof_O 	O 	0.5874	0.9693	0.78812	-0.553
Mof_O 	O 	0.4334	0.97445	0.8874	-0.438
Mof_O 	O 	0.7514	0.88984	0.71429	-0.474
Mof_O 	O 	0.5543	0.8357	0.7339	-0.292
Mof_O 	O 	0.1353	0.02368	0.8709	-0.507
Mof_O 	O 	0.5403	0.0791	0.8091	-0.503
Mof_O 	O 	0.9202	0.9788	0.8385	-0.527
Mof_O 	O 	0.7746	0.0601	0.7595	-0.508
_end
