# CIF file generated by openbabel 3.1.0, see https://openbabel.org
data_I
_chemical_name_common 'image0'
_cell_length_a 34.681
_cell_length_b 15.3678
_cell_length_c 13.7141
_cell_angle_alpha 90
_cell_angle_beta 112.169
_cell_angle_gamma 90
_space_group_name_H-M_alt 'P 1'
_space_group_name_Hall 'P 1'
loop_
    _symmetry_equiv_pos_as_xyz
    x,y,z
loop_
    _atom_site_label
    _atom_site_type_symbol
    _atom_site_fract_x
    _atom_site_fract_y
    _atom_site_fract_z
    _atom_site_occupancy
    Zn1      Zn       0.11197    0.22069    0.06584    1.000
    Zn2      Zn       0.20146    0.27979    0.14487    1.000
    S1       S        0.16737    0.51249    0.34555    1.000
    S2       S        0.14570    0.01795    0.37187    1.000
    O1       O        0.17743    0.36910    0.21490    1.000
    O2       O        0.11071    0.33030    0.14690    1.000
    O3       O        0.18168    0.64410    0.51300    1.000
    O4       O        0.11673    0.69580    0.45260    1.000
    O5       O        0.19776    0.18900    0.25020    1.000
    O6       O        0.13068    0.15250    0.20260    1.000
    O7       O        0.20189    0.82410    0.55370    1.000
    O8       O        0.13676    0.87470    0.50520    1.000
    N1       N        0.26289    0.30850    0.21060    1.000
    N2       N        0.55049    0.30220    0.48980    1.000
    C1       C        0.13990    0.37820    0.20130    1.000
    C2       C        0.12954    0.45220    0.25440    1.000
    C3       C        0.09020    0.48120    0.24220    1.000
    H1       H        0.06560    0.45610    0.19630    1.000
    C4       C        0.09160    0.55320    0.30730    1.000
    H2       H        0.06810    0.58140    0.30840    1.000
    C5       C        0.13150    0.57690    0.36870    1.000
    C6       C        0.14420    0.64470    0.45160    1.000
    C7       C        0.29020    0.26380    0.18260    1.000
    H3       H        0.28010    0.22180    0.13030    1.000
    C8       C        0.33260    0.27710    0.22760    1.000
    H4       H        0.35030    0.24410    0.20560    1.000
    C9       C        0.34870    0.33820    0.30420    1.000
    C10      C        0.32070    0.38570    0.33110    1.000
    H5       H        0.33020    0.42940    0.38150    1.000
    C11      C        0.27870    0.36930    0.28410    1.000
    H6       H        0.26050    0.40210    0.30450    1.000
    C12      C        0.39480    0.35180    0.35870    1.000
    H7       H        0.39970    0.41300    0.37660    1.000
    H8       H        0.40420    0.31930    0.42410    1.000
    C13      C        0.42010    0.32660    0.29960    1.000
    H9       H        0.41590    0.36860    0.24370    1.000
    H10      H        0.41060    0.27050    0.26700    1.000
    C14      C        0.16900    0.14460    0.25800    1.000
    C15      C        0.18140    0.07460    0.33830    1.000
    C16      C        0.17370    0.87720    0.50800    1.000
    C17      C        0.18403    0.95060    0.45230    1.000
    C18      C        0.22060    0.04160    0.38720    1.000
    H11      H        0.24400    0.06400    0.37830    1.000
    C19      C        0.22190    0.97110    0.45140    1.000
    H12      H        0.24620    0.94100    0.48980    1.000
    C20      C        0.53510    0.37340    0.44440    1.000
    H13      H        0.55290    0.42050    0.45300    1.000
    C21      C        0.49360    0.38440    0.38310    1.000
    H14      H        0.48440    0.43830    0.35220    1.000
    C22      C        0.46660    0.32090    0.36700    1.000
    C23      C        0.48350    0.24210    0.41120    1.000
    H15      H        0.46610    0.19410    0.40080    1.000
    C24      C        0.52490    0.23270    0.46970    1.000
    H16      H        0.53560    0.17820    0.49570    1.000
    Zn3      Zn       0.61197    0.72069    0.06584    1.000
    Zn4      Zn       0.70146    0.77979    0.14487    1.000
    S3       S        0.66737    0.01249    0.34555    1.000
    S4       S        0.64570    0.51795    0.37187    1.000
    O9       O        0.67743    0.86910    0.21490    1.000
    O10      O        0.61071    0.83030    0.14690    1.000
    O11      O        0.68168    0.14410    0.51300    1.000
    O12      O        0.61673    0.19580    0.45260    1.000
    O13      O        0.69776    0.68900    0.25020    1.000
    O14      O        0.63068    0.65250    0.20260    1.000
    O15      O        0.70189    0.32410    0.55370    1.000
    O16      O        0.63676    0.37470    0.50520    1.000
    N3       N        0.76289    0.80850    0.21060    1.000
    N4       N        0.05049    0.80220    0.48980    1.000
    C25      C        0.63990    0.87820    0.20130    1.000
    C26      C        0.62954    0.95220    0.25440    1.000
    C27      C        0.59020    0.98120    0.24220    1.000
    H17      H        0.56560    0.95610    0.19630    1.000
    C28      C        0.59160    0.05320    0.30730    1.000
    H18      H        0.56810    0.08140    0.30840    1.000
    C29      C        0.63150    0.07690    0.36870    1.000
    C30      C        0.64420    0.14470    0.45160    1.000
    C31      C        0.79020    0.76380    0.18260    1.000
    H19      H        0.78010    0.72180    0.13030    1.000
    C32      C        0.83260    0.77710    0.22760    1.000
    H20      H        0.85030    0.74410    0.20560    1.000
    C33      C        0.84870    0.83820    0.30420    1.000
    C34      C        0.82070    0.88570    0.33110    1.000
    H21      H        0.83020    0.92940    0.38150    1.000
    C35      C        0.77870    0.86930    0.28410    1.000
    H22      H        0.76050    0.90210    0.30450    1.000
    C36      C        0.89480    0.85180    0.35870    1.000
    H23      H        0.89970    0.91300    0.37660    1.000
    H24      H        0.90420    0.81930    0.42410    1.000
    C37      C        0.92010    0.82660    0.29960    1.000
    H25      H        0.91590    0.86860    0.24370    1.000
    H26      H        0.91060    0.77050    0.26700    1.000
    C38      C        0.66900    0.64460    0.25800    1.000
    C39      C        0.68140    0.57460    0.33830    1.000
    C40      C        0.67370    0.37720    0.50800    1.000
    C41      C        0.68403    0.45060    0.45230    1.000
    C42      C        0.72060    0.54160    0.38720    1.000
    H27      H        0.74400    0.56400    0.37830    1.000
    C43      C        0.72190    0.47110    0.45140    1.000
    H28      H        0.74620    0.44100    0.48980    1.000
    C44      C        0.03510    0.87340    0.44440    1.000
    H29      H        0.05290    0.92050    0.45300    1.000
    C45      C        0.99360    0.88440    0.38310    1.000
    H30      H        0.98440    0.93830    0.35220    1.000
    C46      C        0.96660    0.82090    0.36700    1.000
    C47      C        0.98350    0.74210    0.41120    1.000
    H31      H        0.96610    0.69410    0.40080    1.000
    C48      C        0.02490    0.73270    0.46970    1.000
    H32      H        0.03560    0.67820    0.49570    1.000
    Zn5      Zn       0.11197    0.77931    0.56584    1.000
    Zn6      Zn       0.20146    0.72021    0.64487    1.000
    S5       S        0.16737    0.48751    0.84555    1.000
    S6       S        0.14570    0.98205    0.87187    1.000
    O17      O        0.17743    0.63090    0.71490    1.000
    O18      O        0.11071    0.66970    0.64690    1.000
    O19      O        0.18168    0.35590    0.01300    1.000
    O20      O        0.11673    0.30420    0.95260    1.000
    O21      O        0.19776    0.81100    0.75020    1.000
    O22      O        0.13068    0.84750    0.70260    1.000
    O23      O        0.20189    0.17590    0.05370    1.000
    O24      O        0.13676    0.12530    0.00520    1.000
    N5       N        0.26289    0.69150    0.71060    1.000
    N6       N        0.55049    0.69780    0.98980    1.000
    C49      C        0.13990    0.62180    0.70130    1.000
    C50      C        0.12954    0.54780    0.75440    1.000
    C51      C        0.09020    0.51880    0.74220    1.000
    H33      H        0.06560    0.54390    0.69630    1.000
    C52      C        0.09160    0.44680    0.80730    1.000
    H34      H        0.06810    0.41860    0.80840    1.000
    C53      C        0.13150    0.42310    0.86870    1.000
    C54      C        0.14420    0.35530    0.95160    1.000
    C55      C        0.29020    0.73620    0.68260    1.000
    H35      H        0.28010    0.77820    0.63030    1.000
    C56      C        0.33260    0.72290    0.72760    1.000
    H36      H        0.35030    0.75590    0.70560    1.000
    C57      C        0.34870    0.66180    0.80420    1.000
    C58      C        0.32070    0.61430    0.83110    1.000
    H37      H        0.33020    0.57060    0.88150    1.000
    C59      C        0.27870    0.63070    0.78410    1.000
    H38      H        0.26050    0.59790    0.80450    1.000
    C60      C        0.39480    0.64820    0.85870    1.000
    H39      H        0.39970    0.58700    0.87660    1.000
    H40      H        0.40420    0.68070    0.92410    1.000
    C61      C        0.42010    0.67340    0.79960    1.000
    H41      H        0.41590    0.63140    0.74370    1.000
    H42      H        0.41060    0.72950    0.76700    1.000
    C62      C        0.16900    0.85540    0.75800    1.000
    C63      C        0.18140    0.92540    0.83830    1.000
    C64      C        0.17370    0.12280    0.00800    1.000
    C65      C        0.18403    0.04940    0.95230    1.000
    C66      C        0.22060    0.95840    0.88720    1.000
    H43      H        0.24400    0.93600    0.87830    1.000
    C67      C        0.22190    0.02890    0.95140    1.000
    H44      H        0.24620    0.05900    0.98980    1.000
    C68      C        0.53510    0.62660    0.94440    1.000
    H45      H        0.55290    0.57950    0.95300    1.000
    C69      C        0.49360    0.61560    0.88310    1.000
    H46      H        0.48440    0.56170    0.85220    1.000
    C70      C        0.46660    0.67910    0.86700    1.000
    C71      C        0.48350    0.75790    0.91120    1.000
    H47      H        0.46610    0.80590    0.90080    1.000
    C72      C        0.52490    0.76730    0.96970    1.000
    H48      H        0.53560    0.82180    0.99570    1.000
    Zn7      Zn       0.61197    0.27931    0.56584    1.000
    Zn8      Zn       0.70146    0.22021    0.64487    1.000
    S7       S        0.66737    0.98751    0.84555    1.000
    S8       S        0.64570    0.48205    0.87187    1.000
    O25      O        0.67743    0.13090    0.71490    1.000
    O26      O        0.61071    0.16970    0.64690    1.000
    O27      O        0.68168    0.85590    0.01300    1.000
    O28      O        0.61673    0.80420    0.95260    1.000
    O29      O        0.69776    0.31100    0.75020    1.000
    O30      O        0.63068    0.34750    0.70260    1.000
    O31      O        0.70189    0.67590    0.05370    1.000
    O32      O        0.63676    0.62530    0.00520    1.000
    N7       N        0.76289    0.19150    0.71060    1.000
    N8       N        0.05049    0.19780    0.98980    1.000
    C73      C        0.63990    0.12180    0.70130    1.000
    C74      C        0.62954    0.04780    0.75440    1.000
    C75      C        0.59020    0.01880    0.74220    1.000
    H49      H        0.56560    0.04390    0.69630    1.000
    C76      C        0.59160    0.94680    0.80730    1.000
    H50      H        0.56810    0.91860    0.80840    1.000
    C77      C        0.63150    0.92310    0.86870    1.000
    C78      C        0.64420    0.85530    0.95160    1.000
    C79      C        0.79020    0.23620    0.68260    1.000
    H51      H        0.78010    0.27820    0.63030    1.000
    C80      C        0.83260    0.22290    0.72760    1.000
    H52      H        0.85030    0.25590    0.70560    1.000
    C81      C        0.84870    0.16180    0.80420    1.000
    C82      C        0.82070    0.11430    0.83110    1.000
    H53      H        0.83020    0.07060    0.88150    1.000
    C83      C        0.77870    0.13070    0.78410    1.000
    H54      H        0.76050    0.09790    0.80450    1.000
    C84      C        0.89480    0.14820    0.85870    1.000
    H55      H        0.89970    0.08700    0.87660    1.000
    H56      H        0.90420    0.18070    0.92410    1.000
    C85      C        0.92010    0.17340    0.79960    1.000
    H57      H        0.91590    0.13140    0.74370    1.000
    H58      H        0.91060    0.22950    0.76700    1.000
    C86      C        0.66900    0.35540    0.75800    1.000
    C87      C        0.68140    0.42540    0.83830    1.000
    C88      C        0.67370    0.62280    0.00800    1.000
    C89      C        0.68403    0.54940    0.95230    1.000
    C90      C        0.72060    0.45840    0.88720    1.000
    H59      H        0.74400    0.43600    0.87830    1.000
    C91      C        0.72190    0.52890    0.95140    1.000
    H60      H        0.74620    0.55900    0.98980    1.000
    C92      C        0.03510    0.12660    0.94440    1.000
    H61      H        0.05290    0.07950    0.95300    1.000
    C93      C        0.99360    0.11560    0.88310    1.000
    H62      H        0.98440    0.06170    0.85220    1.000
    C94      C        0.96660    0.17910    0.86700    1.000
    C95      C        0.98350    0.25790    0.91120    1.000
    H63      H        0.96610    0.30590    0.90080    1.000
    C96      C        0.02490    0.26730    0.96970    1.000
    H64      H        0.03560    0.32180    0.99570    1.000
    Zn9      Zn       0.88803    0.22069    0.43416    1.000
    Zn10     Zn       0.79854    0.27979    0.35513    1.000
    S9       S        0.83263    0.51249    0.15445    1.000
    S10      S        0.85430    0.01795    0.12813    1.000
    O33      O        0.82257    0.36910    0.28510    1.000
    O34      O        0.88929    0.33030    0.35310    1.000
    O35      O        0.81832    0.64410    0.98700    1.000
    O36      O        0.88327    0.69580    0.04740    1.000
    O37      O        0.80224    0.18900    0.24980    1.000
    O38      O        0.86932    0.15250    0.29740    1.000
    O39      O        0.79811    0.82410    0.94630    1.000
    O40      O        0.86324    0.87470    0.99480    1.000
    N9       N        0.73711    0.30850    0.28940    1.000
    N10      N        0.44951    0.30220    0.01020    1.000
    C97      C        0.86010    0.37820    0.29870    1.000
    C98      C        0.87046    0.45220    0.24560    1.000
    C99      C        0.90980    0.48120    0.25780    1.000
    H65      H        0.93440    0.45610    0.30370    1.000
    C100     C        0.90840    0.55320    0.19270    1.000
    H66      H        0.93190    0.58140    0.19160    1.000
    C101     C        0.86850    0.57690    0.13130    1.000
    C102     C        0.85580    0.64470    0.04840    1.000
    C103     C        0.70980    0.26380    0.31740    1.000
    H67      H        0.71990    0.22180    0.36970    1.000
    C104     C        0.66740    0.27710    0.27240    1.000
    H68      H        0.64970    0.24410    0.29440    1.000
    C105     C        0.65130    0.33820    0.19580    1.000
    C106     C        0.67930    0.38570    0.16890    1.000
    H69      H        0.66980    0.42940    0.11850    1.000
    C107     C        0.72130    0.36930    0.21590    1.000
    H70      H        0.73950    0.40210    0.19550    1.000
    C108     C        0.60520    0.35180    0.14130    1.000
    H71      H        0.60030    0.41300    0.12340    1.000
    H72      H        0.59580    0.31930    0.07590    1.000
    C109     C        0.57990    0.32660    0.20040    1.000
    H73      H        0.58410    0.36860    0.25630    1.000
    H74      H        0.58940    0.27050    0.23300    1.000
    C110     C        0.83100    0.14460    0.24200    1.000
    C111     C        0.81860    0.07460    0.16170    1.000
    C112     C        0.82630    0.87720    0.99200    1.000
    C113     C        0.81597    0.95060    0.04770    1.000
    C114     C        0.77940    0.04160    0.11280    1.000
    H75      H        0.75600    0.06400    0.12170    1.000
    C115     C        0.77810    0.97110    0.04860    1.000
    H76      H        0.75380    0.94100    0.01020    1.000
    C116     C        0.46490    0.37340    0.05560    1.000
    H77      H        0.44710    0.42050    0.04700    1.000
    C117     C        0.50640    0.38440    0.11690    1.000
    H78      H        0.51560    0.43830    0.14780    1.000
    C118     C        0.53340    0.32090    0.13300    1.000
    C119     C        0.51650    0.24210    0.08880    1.000
    H79      H        0.53390    0.19410    0.09920    1.000
    C120     C        0.47510    0.23270    0.03030    1.000
    H80      H        0.46440    0.17820    0.00430    1.000
    Zn11     Zn       0.38803    0.72069    0.43416    1.000
    Zn12     Zn       0.29854    0.77979    0.35513    1.000
    S11      S        0.33263    0.01249    0.15445    1.000
    S12      S        0.35430    0.51795    0.12813    1.000
    O41      O        0.32257    0.86910    0.28510    1.000
    O42      O        0.38929    0.83030    0.35310    1.000
    O43      O        0.31832    0.14410    0.98700    1.000
    O44      O        0.38327    0.19580    0.04740    1.000
    O45      O        0.30224    0.68900    0.24980    1.000
    O46      O        0.36932    0.65250    0.29740    1.000
    O47      O        0.29811    0.32410    0.94630    1.000
    O48      O        0.36324    0.37470    0.99480    1.000
    N11      N        0.23711    0.80850    0.28940    1.000
    N12      N        0.94951    0.80220    0.01020    1.000
    C121     C        0.36010    0.87820    0.29870    1.000
    C122     C        0.37046    0.95220    0.24560    1.000
    C123     C        0.40980    0.98120    0.25780    1.000
    H81      H        0.43440    0.95610    0.30370    1.000
    C124     C        0.40840    0.05320    0.19270    1.000
    H82      H        0.43190    0.08140    0.19160    1.000
    C125     C        0.36850    0.07690    0.13130    1.000
    C126     C        0.35580    0.14470    0.04840    1.000
    C127     C        0.20980    0.76380    0.31740    1.000
    H83      H        0.21990    0.72180    0.36970    1.000
    C128     C        0.16740    0.77710    0.27240    1.000
    H84      H        0.14970    0.74410    0.29440    1.000
    C129     C        0.15130    0.83820    0.19580    1.000
    C130     C        0.17930    0.88570    0.16890    1.000
    H85      H        0.16980    0.92940    0.11850    1.000
    C131     C        0.22130    0.86930    0.21590    1.000
    H86      H        0.23950    0.90210    0.19550    1.000
    C132     C        0.10520    0.85180    0.14130    1.000
    H87      H        0.10030    0.91300    0.12340    1.000
    H88      H        0.09580    0.81930    0.07590    1.000
    C133     C        0.07990    0.82660    0.20040    1.000
    H89      H        0.08410    0.86860    0.25630    1.000
    H90      H        0.08940    0.77050    0.23300    1.000
    C134     C        0.33100    0.64460    0.24200    1.000
    C135     C        0.31860    0.57460    0.16170    1.000
    C136     C        0.32630    0.37720    0.99200    1.000
    C137     C        0.31597    0.45060    0.04770    1.000
    C138     C        0.27940    0.54160    0.11280    1.000
    H91      H        0.25600    0.56400    0.12170    1.000
    C139     C        0.27810    0.47110    0.04860    1.000
    H92      H        0.25380    0.44100    0.01020    1.000
    C140     C        0.96490    0.87340    0.05560    1.000
    H93      H        0.94710    0.92050    0.04700    1.000
    C141     C        0.00640    0.88440    0.11690    1.000
    H94      H        0.01560    0.93830    0.14780    1.000
    C142     C        0.03340    0.82090    0.13300    1.000
    C143     C        0.01650    0.74210    0.08880    1.000
    H95      H        0.03390    0.69410    0.09920    1.000
    C144     C        0.97510    0.73270    0.03030    1.000
    H96      H        0.96440    0.67820    0.00430    1.000
    Zn13     Zn       0.88803    0.77931    0.93416    1.000
    Zn14     Zn       0.79854    0.72021    0.85513    1.000
    S13      S        0.83263    0.48751    0.65445    1.000
    S14      S        0.85430    0.98205    0.62813    1.000
    O49      O        0.82257    0.63090    0.78510    1.000
    O50      O        0.88929    0.66970    0.85310    1.000
    O51      O        0.81832    0.35590    0.48700    1.000
    O52      O        0.88327    0.30420    0.54740    1.000
    O53      O        0.80224    0.81100    0.74980    1.000
    O54      O        0.86932    0.84750    0.79740    1.000
    O55      O        0.79811    0.17590    0.44630    1.000
    O56      O        0.86324    0.12530    0.49480    1.000
    N13      N        0.73711    0.69150    0.78940    1.000
    N14      N        0.44951    0.69780    0.51020    1.000
    C145     C        0.86010    0.62180    0.79870    1.000
    C146     C        0.87046    0.54780    0.74560    1.000
    C147     C        0.90980    0.51880    0.75780    1.000
    H97      H        0.93440    0.54390    0.80370    1.000
    C148     C        0.90840    0.44680    0.69270    1.000
    H98      H        0.93190    0.41860    0.69160    1.000
    C149     C        0.86850    0.42310    0.63130    1.000
    C150     C        0.85580    0.35530    0.54840    1.000
    C151     C        0.70980    0.73620    0.81740    1.000
    H99      H        0.71990    0.77820    0.86970    1.000
    C152     C        0.66740    0.72290    0.77240    1.000
    H100     H        0.64970    0.75590    0.79440    1.000
    C153     C        0.65130    0.66180    0.69580    1.000
    C154     C        0.67930    0.61430    0.66890    1.000
    H101     H        0.66980    0.57060    0.61850    1.000
    C155     C        0.72130    0.63070    0.71590    1.000
    H102     H        0.73950    0.59790    0.69550    1.000
    C156     C        0.60520    0.64820    0.64130    1.000
    H103     H        0.60030    0.58700    0.62340    1.000
    H104     H        0.59580    0.68070    0.57590    1.000
    C157     C        0.57990    0.67340    0.70040    1.000
    H105     H        0.58410    0.63140    0.75630    1.000
    H106     H        0.58940    0.72950    0.73300    1.000
    C158     C        0.83100    0.85540    0.74200    1.000
    C159     C        0.81860    0.92540    0.66170    1.000
    C160     C        0.82630    0.12280    0.49200    1.000
    C161     C        0.81597    0.04940    0.54770    1.000
    C162     C        0.77940    0.95840    0.61280    1.000
    H107     H        0.75600    0.93600    0.62170    1.000
    C163     C        0.77810    0.02890    0.54860    1.000
    H108     H        0.75380    0.05900    0.51020    1.000
    C164     C        0.46490    0.62660    0.55560    1.000
    H109     H        0.44710    0.57950    0.54700    1.000
    C165     C        0.50640    0.61560    0.61690    1.000
    H110     H        0.51560    0.56170    0.64780    1.000
    C166     C        0.53340    0.67910    0.63300    1.000
    C167     C        0.51650    0.75790    0.58880    1.000
    H111     H        0.53390    0.80590    0.59920    1.000
    C168     C        0.47510    0.76730    0.53030    1.000
    H112     H        0.46440    0.82180    0.50430    1.000
    Zn15     Zn       0.38803    0.27931    0.93416    1.000
    Zn16     Zn       0.29854    0.22021    0.85513    1.000
    S15      S        0.33263    0.98751    0.65445    1.000
    S16      S        0.35430    0.48205    0.62813    1.000
    O57      O        0.32257    0.13090    0.78510    1.000
    O58      O        0.38929    0.16970    0.85310    1.000
    O59      O        0.31832    0.85590    0.48700    1.000
    O60      O        0.38327    0.80420    0.54740    1.000
    O61      O        0.30224    0.31100    0.74980    1.000
    O62      O        0.36932    0.34750    0.79740    1.000
    O63      O        0.29811    0.67590    0.44630    1.000
    O64      O        0.36324    0.62530    0.49480    1.000
    N15      N        0.23711    0.19150    0.78940    1.000
    N16      N        0.94951    0.19780    0.51020    1.000
    C169     C        0.36010    0.12180    0.79870    1.000
    C170     C        0.37046    0.04780    0.74560    1.000
    C171     C        0.40980    0.01880    0.75780    1.000
    H113     H        0.43440    0.04390    0.80370    1.000
    C172     C        0.40840    0.94680    0.69270    1.000
    H114     H        0.43190    0.91860    0.69160    1.000
    C173     C        0.36850    0.92310    0.63130    1.000
    C174     C        0.35580    0.85530    0.54840    1.000
    C175     C        0.20980    0.23620    0.81740    1.000
    H115     H        0.21990    0.27820    0.86970    1.000
    C176     C        0.16740    0.22290    0.77240    1.000
    H116     H        0.14970    0.25590    0.79440    1.000
    C177     C        0.15130    0.16180    0.69580    1.000
    C178     C        0.17930    0.11430    0.66890    1.000
    H117     H        0.16980    0.07060    0.61850    1.000
    C179     C        0.22130    0.13070    0.71590    1.000
    H118     H        0.23950    0.09790    0.69550    1.000
    C180     C        0.10520    0.14820    0.64130    1.000
    H119     H        0.10030    0.08700    0.62340    1.000
    H120     H        0.09580    0.18070    0.57590    1.000
    C181     C        0.07990    0.17340    0.70040    1.000
    H121     H        0.08410    0.13140    0.75630    1.000
    H122     H        0.08940    0.22950    0.73300    1.000
    C182     C        0.33100    0.35540    0.74200    1.000
    C183     C        0.31860    0.42540    0.66170    1.000
    C184     C        0.32630    0.62280    0.49200    1.000
    C185     C        0.31597    0.54940    0.54770    1.000
    C186     C        0.27940    0.45840    0.61280    1.000
    H123     H        0.25600    0.43600    0.62170    1.000
    C187     C        0.27810    0.52890    0.54860    1.000
    H124     H        0.25380    0.55900    0.51020    1.000
    C188     C        0.96490    0.12660    0.55560    1.000
    H125     H        0.94710    0.07950    0.54700    1.000
    C189     C        0.00640    0.11560    0.61690    1.000
    H126     H        0.01560    0.06170    0.64780    1.000
    C190     C        0.03340    0.17910    0.63300    1.000
    C191     C        0.01650    0.25790    0.58880    1.000
    H127     H        0.03390    0.30590    0.59920    1.000
    C192     C        0.97510    0.26730    0.53030    1.000
    H128     H        0.96440    0.32180    0.50430    1.000
