data_functionalizedCrystal
_audit_creation_method	'EQeq! by Chris Wilmer'
_symmetry_space_group_name_H-M	'P1'
_symmetry_Int_Tables_number	1
_symmetry_cell_setting	triclinic
loop_
_symmetry_equiv_pos_as_xyz
  x,y,z
_cell_length_a	37.241
_cell_length_b	19.217
_cell_length_c	25.547
_cell_angle_alpha	90
_cell_angle_beta	132.41
_cell_angle_gamma	90
loop_
_atom_site_label
_atom_site_type_symbol
_atom_site_fract_x
_atom_site_fract_y
_atom_site_fract_z
_atom_site_charge
Mof_Zn	Zn	0.65848	0.25298	0.54768	1.171
Mof_Zn	Zn	0.34697	0.43461	0.45702	1.168
Mof_Zn	Zn	0.67584	0.25137	0.79848	1.172
Mof_Zn	Zn	0.67144	0.56307	0.79495	1.17
Mof_N 	N 	0.6526	0.2246	0.6156	-0.298
Mof_N 	N 	0.3221	0.6484	0.44	-0.3
Mof_N 	N 	0.3258	0.5323	0.4452	-0.301
Mof_N 	N 	0.4111	0.4197	0.5543	-0.297
Mof_N 	N 	0.46804	0.3793	0.6638	-0.296
Mof_N 	N 	0.2955	0.3745	0.4383	-0.293
Mof_N 	N 	0.2295	0.3087	0.3766	-0.296
Mof_N 	N 	0.6176	0.2392	0.7847	-0.296
Mof_N 	N 	0.696	0.3493	0.8242	-0.299
Mof_N 	N 	0.695	0.4663	0.823	-0.294
Mof_N 	N 	0.7758	0.1265	0.6289	-0.292
Mof_N 	N 	0.7113	0.1957	0.5685	-0.294
Mof_N 	N 	0.344	0.4072	0.2922	-0.304
Mof_N 	N 	0.3506	0.4076	0.3851	-0.293
Mof_N 	N 	0.6164	0.5677	0.7909	-0.301
Mof_N 	N 	0.5515	0.6039	0.7719	-0.294
Mof_N 	N 	0.5345	0.2769	0.3359	-0.297
Mof_C 	C 	0.3432	0.5907	0.4438	0.115
Mof_H 	H 	0.3689	0.5916	0.4454	-0.069
Mof_C 	C 	0.2874	0.623	0.438	-0.008
Mof_H 	H 	0.2651	0.65	0.4343	-0.006
Mof_C 	C 	0.2896	0.5523	0.442	-0.018
Mof_H 	H 	0.2698	0.5232	0.4425	-0.003
Mof_C 	C 	0.4225	0.3763	0.6043	0.099
Mof_H 	H 	0.4001	0.3463	0.5975	-0.062
Mof_C 	C 	0.4529	0.452	0.5844	-0.006
Mof_H 	H 	0.4573	0.4858	0.5631	-0.012
Mof_C 	C 	0.4882	0.427	0.6519	-0.009
Mof_H 	H 	0.5207	0.4406	0.684	-0.006
Mof_C 	C 	0.262	0.3401	0.3797	0.105
Mof_H 	H 	0.2613	0.3382	0.3427	-0.067
Mof_C 	C 	0.2829	0.3644	0.4771	-0.01
Mof_H 	H 	0.2994	0.3821	0.5222	-0.002
Mof_C 	C 	0.2432	0.3252	0.4399	-0.008
Mof_H 	H 	0.2273	0.3111	0.4546	-0.002
Mof_C 	C 	0.6745	0.4073	0.7865	0.101
Mof_H 	H 	0.6472	0.4067	0.7382	-0.066
Mof_C 	C 	0.7331	0.4433	0.8909	-0.021
Mof_H 	H 	0.7549	0.4713	0.9305	0.005
Mof_C 	C 	0.7332	0.373	0.8902	-0.002
Mof_H 	H 	0.7557	0.345	0.9295	-0.005
Mof_C 	C 	0.7429	0.1573	0.6258	0.099
Mof_H 	H 	0.7419	0.1525	0.661	-0.062
Mof_C 	C 	0.7647	0.1492	0.5687	-0.005
Mof_H 	H 	0.7817	0.137	0.5552	-0.001
Mof_C 	C 	0.7271	0.1902	0.5331	-0.012
Mof_H 	H 	0.7131	0.2122	0.4906	-0.002
Mof_C 	C 	0.3445	0.4441	0.3363	0.106
Mof_H 	H 	0.3409	0.4923	0.333	-0.067
Mof_C 	C 	0.3493	0.3413	0.3133	0.005
Mof_H 	H 	0.35	0.3026	0.2921	-0.014
Mof_C 	C 	0.3535	0.3397	0.3701	-0.028
Mof_H 	H 	0.3575	0.3001	0.3946	-0.001
Mof_C 	C 	0.5817	0.6126	0.761	0.11
Mof_H 	H 	0.5779	0.6489	0.7336	-0.067
Mof_C 	C 	0.6086	0.5247	0.8236	-0.003
Mof_H 	H 	0.6277	0.4862	0.8506	-0.011
Mof_C 	C 	0.5695	0.5452	0.8116	-0.019
Mof_H 	H 	0.5565	0.5228	0.8279	0.002
Mof_N 	N 	0.661	0.2232	0.7111	-0.293
Mof_N 	N 	0.5514	0.2642	0.7672	-0.293
Mof_N 	N 	0.5954	0.2451	0.449	-0.287
Mof_C 	C 	0.6672	0.2581	0.6721	0.096
Mof_H 	H 	0.6807	0.3024	0.6841	-0.062
Mof_C 	C 	0.5784	0.2925	0.3983	0.074
Mof_H 	H 	0.5955	0.3324	0.4059	-0.054
Mof_C 	C 	0.59	0.2874	0.7793	0.101
Mof_H 	H 	0.5971	0.3346	0.7836	-0.065
Mof_C 	C 	0.6316	0.169	0.6678	-0.014
Mof_H 	H 	0.6179	0.1363	0.6769	0
Mof_C 	C 	0.6259	0.1709	0.6095	-0.013
Mof_H 	H 	0.6068	0.1405	0.5712	0.001
Mof_C 	C 	0.6062	0.1818	0.8027	-0.005
Mof_H 	H 	0.6223	0.1393	0.8178	-0.003
Mof_C 	C 	0.567	0.1979	0.7946	-0.003
Mof_H 	H 	0.553	0.1688	0.8057	-0.002
Mof_C 	C 	0.5288	0.2089	0.345	0.274
Mof_H 	H 	0.5025	0.1811	0.3098	-0.089
Mof_C 	C 	0.5669	0.1872	0.4127	0.284
Mof_H 	H 	0.5724	0.1425	0.4307	-0.103
Mof_C 	C 	0.3466	0.8435	0.3133	0.002
Mof_H 	H 	0.347	0.8831	0.2928	-0.008
Mof_C 	C 	0.3532	0.8419	0.3724	0.007
Mof_H 	H 	0.3607	0.8802	0.4005	-0.01
Mof_C 	C 	0.0877	0.3181	0.2559	-0.008
Mof_H 	H 	0.0938	0.3603	0.2454	-0.004
Mof_C 	C 	0.0474	0.3027	0.2454	-0.009
Mof_H 	H 	0.0215	0.3326	0.2265	-0.005
Mof_C 	C 	0.0162	0.7275	0.3511	-1.234
Mof_H 	H 	0.9843	0.7113	0.3209	0.44
Mof_C 	C 	0.0542	0.7067	0.4197	-1.527
Mof_H 	H 	0.0524	0.6717	0.4431	0.47
Mof_Zn	Zn	0.15848	0.75298	0.54768	1.171
Mof_Zn	Zn	0.84697	0.93461	0.45702	1.169
Mof_Zn	Zn	0.17584	0.75137	0.79848	1.173
Mof_Zn	Zn	0.17144	0.06307	0.79495	1.17
Mof_N 	N 	0.1526	0.7246	0.6156	-0.292
Mof_N 	N 	0.8221	0.1484	0.44	-0.301
Mof_N 	N 	0.8258	0.0323	0.4452	-0.3
Mof_N 	N 	0.9111	0.9197	0.5543	-0.293
Mof_N 	N 	0.96804	0.8793	0.6638	-0.296
Mof_N 	N 	0.7955	0.8745	0.4383	-0.293
Mof_N 	N 	0.7295	0.8087	0.3766	-0.296
Mof_N 	N 	0.1176	0.7392	0.7847	-0.296
Mof_N 	N 	0.196	0.8493	0.8242	-0.299
Mof_N 	N 	0.195	0.9663	0.823	-0.294
Mof_N 	N 	0.2758	0.6265	0.6289	-0.293
Mof_N 	N 	0.2113	0.6957	0.5685	-0.3
Mof_N 	N 	0.844	0.9072	0.2922	-0.302
Mof_N 	N 	0.8506	0.9076	0.3851	-0.292
Mof_N 	N 	0.1164	0.0677	0.7909	-0.302
Mof_N 	N 	0.0515	0.1039	0.7719	-0.304
Mof_N 	N 	0.0345	0.7769	0.3359	-0.309
Mof_C 	C 	0.8432	0.0907	0.4438	0.114
Mof_H 	H 	0.8689	0.0916	0.4454	-0.075
Mof_C 	C 	0.7874	0.123	0.438	-0.005
Mof_H 	H 	0.7651	0.15	0.4343	-0.003
Mof_C 	C 	0.7896	0.0523	0.442	-0.018
Mof_H 	H 	0.7698	0.0232	0.4425	-0.001
Mof_C 	C 	0.9225	0.8763	0.6043	0.1
Mof_H 	H 	0.9001	0.8463	0.5975	-0.061
Mof_C 	C 	0.9529	0.952	0.5844	-0.019
Mof_H 	H 	0.9573	0.9858	0.5631	-0.008
Mof_C 	C 	0.9882	0.927	0.6519	0.02
Mof_H 	H 	0.0207	0.9406	0.684	-0.024
Mof_C 	C 	0.762	0.8401	0.3797	0.106
Mof_H 	H 	0.7613	0.8382	0.3427	-0.066
Mof_C 	C 	0.7829	0.8644	0.4771	-0.009
Mof_H 	H 	0.7994	0.8821	0.5222	-0.002
Mof_C 	C 	0.7432	0.8252	0.4399	-0.008
Mof_H 	H 	0.7273	0.8111	0.4546	-0.001
Mof_C 	C 	0.1745	0.9073	0.7865	0.101
Mof_H 	H 	0.1472	0.9067	0.7382	-0.065
Mof_C 	C 	0.2331	0.9433	0.8909	-0.021
Mof_H 	H 	0.2549	0.9713	0.9305	0.003
Mof_C 	C 	0.2332	0.873	0.8902	-0.003
Mof_H 	H 	0.2557	0.845	0.9295	-0.004
Mof_C 	C 	0.2429	0.6573	0.6258	0.097
Mof_H 	H 	0.2419	0.6525	0.661	-0.064
Mof_C 	C 	0.2647	0.6492	0.5687	-0.007
Mof_H 	H 	0.2817	0.637	0.5552	-0.004
Mof_C 	C 	0.2271	0.6902	0.5331	-0.018
Mof_H 	H 	0.2131	0.7122	0.4906	-0.011
Mof_C 	C 	0.8445	0.9441	0.3363	0.108
Mof_H 	H 	0.8409	0.9923	0.333	-0.068
Mof_C 	C 	0.8493	0.8413	0.3133	0.008
Mof_H 	H 	0.85	0.8026	0.2921	-0.009
Mof_C 	C 	0.8535	0.8397	0.3701	-0.025
Mof_H 	H 	0.8575	0.8001	0.3946	0.002
Mof_C 	C 	0.0817	0.1126	0.761	0.106
Mof_H 	H 	0.0779	0.1489	0.7336	-0.084
Mof_C 	C 	0.1086	0.0247	0.8236	-0.01
Mof_H 	H 	0.1277	0.9862	0.8506	-0.007
Mof_C 	C 	0.0695	0.0452	0.8116	-0.016
Mof_H 	H 	0.0565	0.0228	0.8279	0
Mof_N 	N 	0.161	0.7232	0.7111	-0.293
Mof_N 	N 	0.0514	0.7642	0.7672	-0.295
Mof_N 	N 	0.0954	0.7451	0.449	-0.275
Mof_C 	C 	0.1672	0.7581	0.6721	0.099
Mof_H 	H 	0.1807	0.8024	0.6841	-0.062
Mof_C 	C 	0.0784	0.7925	0.3983	0.073
Mof_H 	H 	0.0955	0.8324	0.4059	-0.055
Mof_C 	C 	0.09	0.7874	0.7793	0.101
Mof_H 	H 	0.0971	0.8346	0.7836	-0.065
Mof_C 	C 	0.1316	0.669	0.6678	-0.037
Mof_H 	H 	0.1179	0.6363	0.6769	0.008
Mof_C 	C 	0.1259	0.6709	0.6095	-0.037
Mof_H 	H 	0.1068	0.6405	0.5712	0.01
Mof_C 	C 	0.1062	0.6818	0.8027	-0.004
Mof_H 	H 	0.1223	0.6393	0.8178	-0.005
Mof_C 	C 	0.067	0.6979	0.7946	-0.004
Mof_H 	H 	0.053	0.6688	0.8057	-0.006
Mof_C 	C 	0.0288	0.7089	0.345	1.35
Mof_H 	H 	0.0025	0.6811	0.3098	-0.418
Mof_C 	C 	0.0669	0.6872	0.4127	1.382
Mof_H 	H 	0.0724	0.6425	0.4307	-0.478
Mof_C 	C 	0.8466	0.3435	0.3133	-0.021
Mof_H 	H 	0.847	0.3831	0.2928	0.001
Mof_C 	C 	0.8532	0.3419	0.3724	-0.019
Mof_H 	H 	0.8607	0.3802	0.4005	-0
Mof_C 	C 	0.5877	0.8181	0.2559	-0.008
Mof_H 	H 	0.5938	0.8603	0.2454	-0.003
Mof_C 	C 	0.5474	0.8027	0.2454	-0.01
Mof_H 	H 	0.5215	0.8326	0.2265	-0.001
Mof_C 	C 	0.5162	0.2275	0.3511	-0.251
Mof_H 	H 	0.4843	0.2113	0.3209	0.078
Mof_C 	C 	0.5542	0.2067	0.4197	-0.326
Mof_H 	H 	0.5524	0.1717	0.4431	0.1
Mof_Zn	Zn	0.34152	0.25298	0.95232	1.171
Mof_Zn	Zn	0.65303	0.43461	0.04298	1.169
Mof_Zn	Zn	0.32416	0.25137	0.70152	1.173
Mof_Zn	Zn	0.32856	0.56307	0.70505	1.171
Mof_N 	N 	0.3474	0.2246	0.8844	-0.297
Mof_N 	N 	0.6779	0.6484	0.06	-0.299
Mof_N 	N 	0.6742	0.5323	0.0548	-0.299
Mof_N 	N 	0.5889	0.4197	0.9457	-0.296
Mof_N 	N 	0.53196	0.3793	0.8362	-0.295
Mof_N 	N 	0.7045	0.3745	0.0617	-0.293
Mof_N 	N 	0.7705	0.3087	0.1234	-0.295
Mof_N 	N 	0.3824	0.2392	0.7153	-0.296
Mof_N 	N 	0.304	0.3493	0.6758	-0.299
Mof_N 	N 	0.305	0.4663	0.677	-0.295
Mof_N 	N 	0.2242	0.1265	0.8711	-0.294
Mof_N 	N 	0.2887	0.1957	0.9315	-0.294
Mof_N 	N 	0.656	0.4072	0.2078	-0.303
Mof_N 	N 	0.6494	0.4076	0.1149	-0.292
Mof_N 	N 	0.3836	0.5677	0.7091	-0.301
Mof_N 	N 	0.4485	0.6039	0.7281	-0.294
Mof_N 	N 	0.4655	0.2769	0.1641	-0.297
Mof_C 	C 	0.6568	0.5907	0.0562	0.115
Mof_H 	H 	0.6311	0.5916	0.0546	-0.069
Mof_C 	C 	0.7126	0.623	0.062	-0.007
Mof_H 	H 	0.7349	0.65	0.0657	-0
Mof_C 	C 	0.7104	0.5523	0.058	-0.016
Mof_H 	H 	0.7302	0.5232	0.0575	0.001
Mof_C 	C 	0.5775	0.3763	0.8957	0.099
Mof_H 	H 	0.5999	0.3463	0.9025	-0.062
Mof_C 	C 	0.5471	0.452	0.9156	-0.006
Mof_H 	H 	0.5427	0.4858	0.9369	-0.012
Mof_C 	C 	0.5118	0.427	0.8481	-0.01
Mof_H 	H 	0.4793	0.4406	0.816	-0.006
Mof_C 	C 	0.738	0.3401	0.1203	0.106
Mof_H 	H 	0.7387	0.3382	0.1573	-0.066
Mof_C 	C 	0.7171	0.3644	0.0229	-0.006
Mof_H 	H 	0.7006	0.3821	0.9778	-0.004
Mof_C 	C 	0.7568	0.3252	0.0601	-0.009
Mof_H 	H 	0.7727	0.3111	0.0454	0
Mof_C 	C 	0.3255	0.4073	0.7135	0.101
Mof_H 	H 	0.3528	0.4067	0.7618	-0.066
Mof_C 	C 	0.2669	0.4433	0.6091	-0.021
Mof_H 	H 	0.2451	0.4713	0.5695	-0
Mof_C 	C 	0.2668	0.373	0.6098	-0.004
Mof_H 	H 	0.2443	0.345	0.5705	-0.005
Mof_C 	C 	0.2571	0.1573	0.8742	0.097
Mof_H 	H 	0.2581	0.1525	0.839	-0.062
Mof_C 	C 	0.2353	0.1492	0.9313	-0.006
Mof_H 	H 	0.2183	0.137	0.9448	-0.006
Mof_C 	C 	0.2729	0.1902	0.9669	-0.017
Mof_H 	H 	0.2869	0.2122	0.0094	-0
Mof_C 	C 	0.6555	0.4441	0.1637	0.107
Mof_H 	H 	0.6591	0.4923	0.167	-0.067
Mof_C 	C 	0.6507	0.3413	0.1867	0.006
Mof_H 	H 	0.65	0.3026	0.2079	-0.014
Mof_C 	C 	0.6465	0.3397	0.1299	-0.028
Mof_H 	H 	0.6425	0.3001	0.1054	-0.001
Mof_C 	C 	0.4183	0.6126	0.739	0.11
Mof_H 	H 	0.4221	0.6489	0.7664	-0.067
Mof_C 	C 	0.3914	0.5247	0.6764	-0.003
Mof_H 	H 	0.3723	0.4862	0.6494	-0.011
Mof_C 	C 	0.4305	0.5452	0.6884	-0.019
Mof_H 	H 	0.4435	0.5228	0.6721	0.002
Mof_N 	N 	0.339	0.2232	0.7889	-0.294
Mof_N 	N 	0.4486	0.2642	0.7328	-0.293
Mof_N 	N 	0.4046	0.2451	0.051	-0.286
Mof_C 	C 	0.3328	0.2581	0.8279	0.096
Mof_H 	H 	0.3193	0.3024	0.8159	-0.063
Mof_C 	C 	0.4216	0.2925	0.1017	0.074
Mof_H 	H 	0.4045	0.3324	0.0941	-0.054
Mof_C 	C 	0.41	0.2874	0.7207	0.101
Mof_H 	H 	0.4029	0.3346	0.7164	-0.065
Mof_C 	C 	0.3684	0.169	0.8322	-0.014
Mof_H 	H 	0.3821	0.1363	0.8231	0.001
Mof_C 	C 	0.3741	0.1709	0.8905	-0.014
Mof_H 	H 	0.3932	0.1405	0.9288	0.001
Mof_C 	C 	0.3938	0.1818	0.6973	-0.004
Mof_H 	H 	0.3777	0.1393	0.6822	-0.003
Mof_C 	C 	0.433	0.1979	0.7054	-0.003
Mof_H 	H 	0.447	0.1688	0.6943	-0.002
Mof_C 	C 	0.4712	0.2089	0.155	0.273
Mof_H 	H 	0.4975	0.1811	0.1902	-0.089
Mof_C 	C 	0.4331	0.1872	0.0873	0.283
Mof_H 	H 	0.4276	0.1425	0.0693	-0.102
Mof_C 	C 	0.6534	0.8435	0.1867	0.001
Mof_H 	H 	0.653	0.8831	0.2072	-0.008
Mof_C 	C 	0.6468	0.8419	0.1276	0.006
Mof_H 	H 	0.6393	0.8802	0.0995	-0.01
Mof_C 	C 	0.9123	0.3181	0.2441	-0.008
Mof_H 	H 	0.9062	0.3603	0.2546	-0.001
Mof_C 	C 	0.9526	0.3027	0.2546	-0.011
Mof_H 	H 	0.9785	0.3326	0.2735	0.003
Mof_C 	C 	0.9838	0.7275	0.1489	0.752
Mof_H 	H 	0.0157	0.7113	0.1791	-0.291
Mof_C 	C 	0.9458	0.7067	0.0803	0.899
Mof_H 	H 	0.9476	0.6717	0.0569	-0.278
Mof_Zn	Zn	0.84152	0.75298	0.95232	1.172
Mof_Zn	Zn	0.15303	0.93461	0.04298	1.168
Mof_Zn	Zn	0.82416	0.75137	0.70152	1.173
Mof_Zn	Zn	0.82856	0.06307	0.70505	1.171
Mof_N 	N 	0.8474	0.7246	0.8844	-0.301
Mof_N 	N 	0.1779	0.1484	0.06	-0.297
Mof_N 	N 	0.1742	0.0323	0.0548	-0.299
Mof_N 	N 	0.0889	0.9197	0.9457	-0.297
Mof_N 	N 	0.03196	0.8793	0.8362	-0.293
Mof_N 	N 	0.2045	0.8745	0.0617	-0.293
Mof_N 	N 	0.2705	0.8087	0.1234	-0.296
Mof_N 	N 	0.8824	0.7392	0.7153	-0.296
Mof_N 	N 	0.804	0.8493	0.6758	-0.299
Mof_N 	N 	0.805	0.9663	0.677	-0.294
Mof_N 	N 	0.7242	0.6265	0.8711	-0.292
Mof_N 	N 	0.7887	0.6957	0.9315	-0.288
Mof_N 	N 	0.156	0.9072	0.2078	-0.305
Mof_N 	N 	0.1494	0.9076	0.1149	-0.293
Mof_N 	N 	0.8836	0.0677	0.7091	-0.3
Mof_N 	N 	0.9485	0.1039	0.7281	-0.285
Mof_N 	N 	0.9655	0.7769	0.1641	-0.283
Mof_C 	C 	0.1568	0.0907	0.0562	0.117
Mof_H 	H 	0.1311	0.0916	0.0546	-0.063
Mof_C 	C 	0.2126	0.123	0.062	-0.009
Mof_H 	H 	0.2349	0.15	0.0657	-0.003
Mof_C 	C 	0.2104	0.0523	0.058	-0.016
Mof_H 	H 	0.2302	0.0232	0.0575	-0.001
Mof_C 	C 	0.0775	0.8763	0.8957	0.098
Mof_H 	H 	0.0999	0.8463	0.9025	-0.062
Mof_C 	C 	0.0471	0.952	0.9156	0.006
Mof_H 	H 	0.0427	0.9858	0.9369	-0.015
Mof_C 	C 	0.0118	0.927	0.8481	-0.038
Mof_H 	H 	0.9793	0.9406	0.816	0.013
Mof_C 	C 	0.238	0.8401	0.1203	0.105
Mof_H 	H 	0.2387	0.8382	0.1573	-0.067
Mof_C 	C 	0.2171	0.8644	0.0229	-0.015
Mof_H 	H 	0.2006	0.8821	0.9778	0.001
Mof_C 	C 	0.2568	0.8252	0.0601	-0.006
Mof_H 	H 	0.2727	0.8111	0.0454	-0.003
Mof_C 	C 	0.8255	0.9073	0.7135	0.101
Mof_H 	H 	0.8528	0.9067	0.7618	-0.066
Mof_C 	C 	0.7669	0.9433	0.6091	-0.021
Mof_H 	H 	0.7451	0.9713	0.5695	0.002
Mof_C 	C 	0.7668	0.873	0.6098	-0.003
Mof_H 	H 	0.7443	0.845	0.5705	-0.005
Mof_C 	C 	0.7571	0.6573	0.8742	0.098
Mof_H 	H 	0.7581	0.6525	0.839	-0.061
Mof_C 	C 	0.7353	0.6492	0.9313	-0.006
Mof_H 	H 	0.7183	0.637	0.9448	-0.002
Mof_C 	C 	0.7729	0.6902	0.9669	-0.008
Mof_H 	H 	0.7869	0.7122	0.0094	0.006
Mof_C 	C 	0.1555	0.9441	0.1637	0.104
Mof_H 	H 	0.1591	0.9923	0.167	-0.067
Mof_C 	C 	0.1507	0.8413	0.1867	0.003
Mof_H 	H 	0.15	0.8026	0.2079	-0.019
Mof_C 	C 	0.1465	0.8397	0.1299	-0.031
Mof_H 	H 	0.1425	0.8001	0.1054	-0.004
Mof_C 	C 	0.9183	0.1126	0.739	0.114
Mof_H 	H 	0.9221	0.1489	0.7664	-0.051
Mof_C 	C 	0.8914	0.0247	0.6764	-0.002
Mof_H 	H 	0.8723	0.9862	0.6494	-0.01
Mof_C 	C 	0.9305	0.0452	0.6884	-0.019
Mof_H 	H 	0.9435	0.0228	0.6721	0.001
Mof_N 	N 	0.839	0.7232	0.7889	-0.294
Mof_N 	N 	0.9486	0.7642	0.7328	-0.29
Mof_N 	N 	0.9046	0.7451	0.051	-0.299
Mof_C 	C 	0.8328	0.7581	0.8279	0.094
Mof_H 	H 	0.8193	0.8024	0.8159	-0.064
Mof_C 	C 	0.9216	0.7925	0.1017	0.075
Mof_H 	H 	0.9045	0.8324	0.0941	-0.054
Mof_C 	C 	0.91	0.7874	0.7207	0.101
Mof_H 	H 	0.9029	0.8346	0.7164	-0.064
Mof_C 	C 	0.8684	0.669	0.8322	0.01
Mof_H 	H 	0.8821	0.6363	0.8231	-0.007
Mof_C 	C 	0.8741	0.6709	0.8905	0.011
Mof_H 	H 	0.8932	0.6405	0.9288	-0.009
Mof_C 	C 	0.8938	0.6818	0.6973	-0.004
Mof_H 	H 	0.8777	0.6393	0.6822	-0.001
Mof_C 	C 	0.933	0.6979	0.7054	-0.002
Mof_H 	H 	0.947	0.6688	0.6943	0.001
Mof_C 	C 	0.9712	0.7089	0.155	-0.824
Mof_H 	H 	0.9975	0.6811	0.1902	0.247
Mof_C 	C 	0.9331	0.6872	0.0873	-0.836
Mof_H 	H 	0.9276	0.6425	0.0693	0.28
Mof_C 	C 	0.1534	0.3435	0.1867	0.024
Mof_H 	H 	0.153	0.3831	0.2072	-0.016
Mof_C 	C 	0.1468	0.3419	0.1276	0.033
Mof_H 	H 	0.1393	0.3802	0.0995	-0.02
Mof_C 	C 	0.4123	0.8181	0.2441	-0.008
Mof_H 	H 	0.4062	0.8603	0.2546	-0.003
Mof_C 	C 	0.4526	0.8027	0.2546	-0.01
Mof_H 	H 	0.4785	0.8326	0.2735	-0.001
Mof_C 	C 	0.4838	0.2275	0.1489	-0.249
Mof_H 	H 	0.5157	0.2113	0.1791	0.078
Mof_C 	C 	0.4458	0.2067	0.0803	-0.325
Mof_H 	H 	0.4476	0.1717	0.0569	0.1
Mof_Zn	Zn	0.34152	0.74702	0.45232	1.171
Mof_Zn	Zn	0.65303	0.56539	0.54298	1.169
Mof_Zn	Zn	0.32416	0.74863	0.20152	1.173
Mof_Zn	Zn	0.32856	0.43693	0.20505	1.171
Mof_N 	N 	0.3474	0.7754	0.3844	-0.297
Mof_N 	N 	0.6779	0.3516	0.56	-0.298
Mof_N 	N 	0.6742	0.4677	0.5548	-0.299
Mof_N 	N 	0.5889	0.5803	0.4457	-0.296
Mof_N 	N 	0.53196	0.6207	0.3362	-0.295
Mof_N 	N 	0.7045	0.6255	0.5617	-0.293
Mof_N 	N 	0.7705	0.6913	0.6234	-0.295
Mof_N 	N 	0.3824	0.7608	0.2153	-0.296
Mof_N 	N 	0.304	0.6507	0.1758	-0.299
Mof_N 	N 	0.305	0.5337	0.177	-0.295
Mof_N 	N 	0.2242	0.8735	0.3711	-0.294
Mof_N 	N 	0.2887	0.8043	0.4315	-0.294
Mof_N 	N 	0.656	0.5928	0.7078	-0.303
Mof_N 	N 	0.6494	0.5924	0.6149	-0.293
Mof_N 	N 	0.3836	0.4323	0.2091	-0.301
Mof_N 	N 	0.4485	0.3961	0.2281	-0.294
Mof_N 	N 	0.4655	0.7231	0.6641	-0.297
Mof_C 	C 	0.6568	0.4093	0.5562	0.115
Mof_H 	H 	0.6311	0.4084	0.5546	-0.069
Mof_C 	C 	0.7126	0.377	0.562	-0.007
Mof_H 	H 	0.7349	0.35	0.5657	-0
Mof_C 	C 	0.7104	0.4477	0.558	-0.016
Mof_H 	H 	0.7302	0.4768	0.5575	0
Mof_C 	C 	0.5775	0.6237	0.3957	0.099
Mof_H 	H 	0.5999	0.6537	0.4025	-0.062
Mof_C 	C 	0.5471	0.548	0.4156	-0.006
Mof_H 	H 	0.5427	0.5142	0.4369	-0.012
Mof_C 	C 	0.5118	0.573	0.3481	-0.009
Mof_H 	H 	0.4793	0.5594	0.316	-0.006
Mof_C 	C 	0.738	0.6599	0.6203	0.106
Mof_H 	H 	0.7387	0.6618	0.6573	-0.066
Mof_C 	C 	0.7171	0.6356	0.5229	-0.009
Mof_H 	H 	0.7006	0.6179	0.4778	-0.002
Mof_C 	C 	0.7568	0.6748	0.5601	-0.008
Mof_H 	H 	0.7727	0.6889	0.5454	-0.001
Mof_C 	C 	0.3255	0.5927	0.2135	0.101
Mof_H 	H 	0.3528	0.5933	0.2618	-0.066
Mof_C 	C 	0.2669	0.5567	0.1091	-0.021
Mof_H 	H 	0.2451	0.5287	0.0695	0
Mof_C 	C 	0.2668	0.627	0.1098	-0.004
Mof_H 	H 	0.2443	0.655	0.0705	-0.006
Mof_C 	C 	0.2571	0.8427	0.3742	0.097
Mof_H 	H 	0.2581	0.8475	0.339	-0.062
Mof_C 	C 	0.2353	0.8508	0.4313	-0.008
Mof_H 	H 	0.2183	0.863	0.4448	-0.005
Mof_C 	C 	0.2729	0.8098	0.4669	-0.014
Mof_H 	H 	0.2869	0.7878	0.5094	-0.002
Mof_C 	C 	0.6555	0.5559	0.6637	0.107
Mof_H 	H 	0.6591	0.5077	0.667	-0.067
Mof_C 	C 	0.6507	0.6587	0.6867	0.006
Mof_H 	H 	0.65	0.6974	0.7079	-0.014
Mof_C 	C 	0.6465	0.6603	0.6299	-0.028
Mof_H 	H 	0.6425	0.6999	0.6054	-0.001
Mof_C 	C 	0.4183	0.3874	0.239	0.11
Mof_H 	H 	0.4221	0.3511	0.2664	-0.067
Mof_C 	C 	0.3914	0.4753	0.1764	-0.003
Mof_H 	H 	0.3723	0.5138	0.1494	-0.011
Mof_C 	C 	0.4305	0.4548	0.1884	-0.019
Mof_H 	H 	0.4435	0.4772	0.1721	0.002
Mof_N 	N 	0.339	0.7768	0.2889	-0.294
Mof_N 	N 	0.4486	0.7358	0.2328	-0.293
Mof_N 	N 	0.4046	0.7549	0.551	-0.287
Mof_C 	C 	0.3328	0.7419	0.3279	0.096
Mof_H 	H 	0.3193	0.6976	0.3159	-0.063
Mof_C 	C 	0.4216	0.7075	0.6017	0.074
Mof_H 	H 	0.4045	0.6676	0.5941	-0.054
Mof_C 	C 	0.41	0.7126	0.2207	0.101
Mof_H 	H 	0.4029	0.6654	0.2164	-0.065
Mof_C 	C 	0.3684	0.831	0.3322	-0.015
Mof_H 	H 	0.3821	0.8637	0.3231	0.001
Mof_C 	C 	0.3741	0.8291	0.3905	-0.014
Mof_H 	H 	0.3932	0.8595	0.4288	0.001
Mof_C 	C 	0.3938	0.8182	0.1973	-0.005
Mof_H 	H 	0.3777	0.8607	0.1822	-0.003
Mof_C 	C 	0.433	0.8021	0.2054	-0.003
Mof_H 	H 	0.447	0.8312	0.1943	-0.002
Mof_C 	C 	0.4712	0.7911	0.655	0.276
Mof_H 	H 	0.4975	0.8189	0.6902	-0.09
Mof_C 	C 	0.4331	0.8128	0.5873	0.287
Mof_H 	H 	0.4276	0.8575	0.5693	-0.103
Mof_C 	C 	0.6534	0.1565	0.6867	0.001
Mof_H 	H 	0.653	0.1169	0.7072	-0.008
Mof_C 	C 	0.6468	0.1581	0.6276	0.007
Mof_H 	H 	0.6393	0.1198	0.5995	-0.01
Mof_C 	C 	0.9123	0.6819	0.7441	-0.008
Mof_H 	H 	0.9062	0.6397	0.7546	-0.001
Mof_C 	C 	0.9526	0.6973	0.7546	-0.012
Mof_H 	H 	0.9785	0.6674	0.7735	0.003
Mof_C 	C 	0.9838	0.2725	0.6489	0.698
Mof_H 	H 	0.0157	0.2887	0.6791	-0.271
Mof_C 	C 	0.9458	0.2933	0.5803	0.833
Mof_H 	H 	0.9476	0.3283	0.5569	-0.258
Mof_Zn	Zn	0.84152	0.24702	0.45232	1.172
Mof_Zn	Zn	0.15303	0.06539	0.54298	1.169
Mof_Zn	Zn	0.82416	0.24863	0.20152	1.173
Mof_Zn	Zn	0.82856	0.93693	0.20505	1.171
Mof_N 	N 	0.8474	0.2754	0.3844	-0.301
Mof_N 	N 	0.1779	0.8516	0.56	-0.297
Mof_N 	N 	0.1742	0.9677	0.5548	-0.299
Mof_N 	N 	0.0889	0.0803	0.4457	-0.299
Mof_N 	N 	0.03196	0.1207	0.3362	-0.292
Mof_N 	N 	0.2045	0.1255	0.5617	-0.293
Mof_N 	N 	0.2705	0.1913	0.6234	-0.296
Mof_N 	N 	0.8824	0.2608	0.2153	-0.296
Mof_N 	N 	0.804	0.1507	0.1758	-0.299
Mof_N 	N 	0.805	0.0337	0.177	-0.294
Mof_N 	N 	0.7242	0.3735	0.3711	-0.292
Mof_N 	N 	0.7887	0.3043	0.4315	-0.289
Mof_N 	N 	0.156	0.0928	0.7078	-0.305
Mof_N 	N 	0.1494	0.0924	0.6149	-0.293
Mof_N 	N 	0.8836	0.9323	0.2091	-0.299
Mof_N 	N 	0.9485	0.8961	0.2281	-0.284
Mof_N 	N 	0.9655	0.2231	0.6641	-0.284
Mof_C 	C 	0.1568	0.9093	0.5562	0.117
Mof_H 	H 	0.1311	0.9084	0.5546	-0.063
Mof_C 	C 	0.2126	0.877	0.562	-0.009
Mof_H 	H 	0.2349	0.85	0.5657	-0.003
Mof_C 	C 	0.2104	0.9477	0.558	-0.016
Mof_H 	H 	0.2302	0.9768	0.5575	-0.001
Mof_C 	C 	0.0775	0.1237	0.3957	0.098
Mof_H 	H 	0.0999	0.1537	0.4025	-0.063
Mof_C 	C 	0.0471	0.048	0.4156	0.008
Mof_H 	H 	0.0427	0.0142	0.4369	-0.016
Mof_C 	C 	0.0118	0.073	0.3481	-0.043
Mof_H 	H 	0.9793	0.0594	0.316	0.016
Mof_C 	C 	0.238	0.1599	0.6203	0.105
Mof_H 	H 	0.2387	0.1618	0.6573	-0.067
Mof_C 	C 	0.2171	0.1356	0.5229	-0.009
Mof_H 	H 	0.2006	0.1179	0.4778	-0.002
Mof_C 	C 	0.2568	0.1748	0.5601	-0.008
Mof_H 	H 	0.2727	0.1889	0.5454	-0.001
Mof_C 	C 	0.8255	0.0927	0.2135	0.101
Mof_H 	H 	0.8528	0.0933	0.2618	-0.066
Mof_C 	C 	0.7669	0.0567	0.1091	-0.021
Mof_H 	H 	0.7451	0.0287	0.0695	0.003
Mof_C 	C 	0.7668	0.127	0.1098	-0.003
Mof_H 	H 	0.7443	0.155	0.0705	-0.004
Mof_C 	C 	0.7571	0.3427	0.3742	0.098
Mof_H 	H 	0.7581	0.3475	0.339	-0.061
Mof_C 	C 	0.7353	0.3508	0.4313	-0.006
Mof_H 	H 	0.7183	0.363	0.4448	-0.002
Mof_C 	C 	0.7729	0.3098	0.4669	-0.009
Mof_H 	H 	0.7869	0.2878	0.5094	0.006
Mof_C 	C 	0.1555	0.0559	0.6637	0.105
Mof_H 	H 	0.1591	0.0077	0.667	-0.067
Mof_C 	C 	0.1507	0.1587	0.6867	0.003
Mof_H 	H 	0.15	0.1974	0.7079	-0.019
Mof_C 	C 	0.1465	0.1603	0.6299	-0.031
Mof_H 	H 	0.1425	0.1999	0.6054	-0.004
Mof_C 	C 	0.9183	0.8874	0.239	0.115
Mof_H 	H 	0.9221	0.8511	0.2664	-0.049
Mof_C 	C 	0.8914	0.9753	0.1764	-0.005
Mof_H 	H 	0.8723	0.0138	0.1494	-0.008
Mof_C 	C 	0.9305	0.9548	0.1884	-0.017
Mof_H 	H 	0.9435	0.9772	0.1721	0
Mof_N 	N 	0.839	0.2768	0.2889	-0.294
Mof_N 	N 	0.9486	0.2358	0.2328	-0.289
Mof_N 	N 	0.9046	0.2549	0.551	-0.298
Mof_C 	C 	0.8328	0.2419	0.3279	0.094
Mof_H 	H 	0.8193	0.1976	0.3159	-0.063
Mof_C 	C 	0.9216	0.2075	0.6017	0.075
Mof_H 	H 	0.9045	0.1676	0.5941	-0.054
Mof_C 	C 	0.91	0.2126	0.2207	0.101
Mof_H 	H 	0.9029	0.1654	0.2164	-0.064
Mof_C 	C 	0.8684	0.331	0.3322	0.008
Mof_H 	H 	0.8821	0.3637	0.3231	-0.006
Mof_C 	C 	0.8741	0.3291	0.3905	0.009
Mof_H 	H 	0.8932	0.3595	0.4288	-0.008
Mof_C 	C 	0.8938	0.3182	0.1973	-0.005
Mof_H 	H 	0.8777	0.3607	0.1822	-0.001
Mof_C 	C 	0.933	0.3021	0.2054	-0.002
Mof_H 	H 	0.947	0.3312	0.1943	0.002
Mof_C 	C 	0.9712	0.2911	0.655	-0.765
Mof_H 	H 	0.9975	0.3189	0.6902	0.228
Mof_C 	C 	0.9331	0.3128	0.5873	-0.775
Mof_H 	H 	0.9276	0.3575	0.5693	0.259
Mof_C 	C 	0.1534	0.6565	0.6867	0.025
Mof_H 	H 	0.153	0.6169	0.7072	-0.017
Mof_C 	C 	0.1468	0.6581	0.6276	0.034
Mof_H 	H 	0.1393	0.6198	0.5995	-0.021
Mof_C 	C 	0.4123	0.1819	0.7441	-0.008
Mof_H 	H 	0.4062	0.1397	0.7546	-0.003
Mof_C 	C 	0.4526	0.1973	0.7546	-0.01
Mof_H 	H 	0.4785	0.1674	0.7735	-0.001
Mof_C 	C 	0.4838	0.7725	0.6489	-0.253
Mof_H 	H 	0.5157	0.7887	0.6791	0.079
Mof_C 	C 	0.4458	0.7933	0.5803	-0.329
Mof_H 	H 	0.4476	0.8283	0.5569	0.101
Mof_Zn	Zn	0.65848	0.74702	0.04768	1.171
Mof_Zn	Zn	0.34697	0.56539	0.95702	1.169
Mof_Zn	Zn	0.67584	0.74863	0.29848	1.173
Mof_Zn	Zn	0.67144	0.43693	0.29495	1.171
Mof_N 	N 	0.6526	0.7754	0.1156	-0.297
Mof_N 	N 	0.3221	0.3516	0.94	-0.299
Mof_N 	N 	0.3258	0.4677	0.9452	-0.3
Mof_N 	N 	0.4111	0.5803	0.0543	-0.296
Mof_N 	N 	0.46804	0.6207	0.1638	-0.295
Mof_N 	N 	0.2955	0.6255	0.9383	-0.294
Mof_N 	N 	0.2295	0.6913	0.8766	-0.296
Mof_N 	N 	0.6176	0.7608	0.2847	-0.296
Mof_N 	N 	0.696	0.6507	0.3242	-0.299
Mof_N 	N 	0.695	0.5337	0.323	-0.294
Mof_N 	N 	0.7758	0.8735	0.1289	-0.292
Mof_N 	N 	0.7113	0.8043	0.0685	-0.294
Mof_N 	N 	0.344	0.5928	0.7922	-0.304
Mof_N 	N 	0.3506	0.5924	0.8851	-0.293
Mof_N 	N 	0.6164	0.4323	0.2909	-0.301
Mof_N 	N 	0.5515	0.3961	0.2719	-0.294
Mof_N 	N 	0.5345	0.7231	0.8359	-0.297
Mof_C 	C 	0.3432	0.4093	0.9438	0.115
Mof_H 	H 	0.3689	0.4084	0.9454	-0.069
Mof_C 	C 	0.2874	0.377	0.938	-0.008
Mof_H 	H 	0.2651	0.35	0.9343	-0.005
Mof_C 	C 	0.2896	0.4477	0.942	-0.018
Mof_H 	H 	0.2698	0.4768	0.9425	-0.003
Mof_C 	C 	0.4225	0.6237	0.1043	0.099
Mof_H 	H 	0.4001	0.6537	0.0975	-0.062
Mof_C 	C 	0.4529	0.548	0.0844	-0.006
Mof_H 	H 	0.4573	0.5142	0.0631	-0.012
Mof_C 	C 	0.4882	0.573	0.1519	-0.01
Mof_H 	H 	0.5207	0.5594	0.184	-0.006
Mof_C 	C 	0.262	0.6599	0.8797	0.106
Mof_H 	H 	0.2613	0.6618	0.8427	-0.067
Mof_C 	C 	0.2829	0.6356	0.9771	-0.007
Mof_H 	H 	0.2994	0.6179	0.0222	-0.004
Mof_C 	C 	0.2432	0.6748	0.9399	-0.009
Mof_H 	H 	0.2273	0.6889	0.9546	-0.001
Mof_C 	C 	0.6745	0.5927	0.2865	0.101
Mof_H 	H 	0.6472	0.5933	0.2382	-0.066
Mof_C 	C 	0.7331	0.5567	0.3909	-0.021
Mof_H 	H 	0.7549	0.5287	0.4305	0.005
Mof_C 	C 	0.7332	0.627	0.3902	-0.003
Mof_H 	H 	0.7557	0.655	0.4295	-0.004
Mof_C 	C 	0.7429	0.8427	0.1258	0.098
Mof_H 	H 	0.7419	0.8475	0.161	-0.062
Mof_C 	C 	0.7647	0.8508	0.0687	-0.004
Mof_H 	H 	0.7817	0.863	0.0552	-0.002
Mof_C 	C 	0.7271	0.8098	0.0331	-0.015
Mof_H 	H 	0.7131	0.7878	0.9906	-0
Mof_C 	C 	0.3445	0.5559	0.8363	0.106
Mof_H 	H 	0.3409	0.5077	0.833	-0.067
Mof_C 	C 	0.3493	0.6587	0.8133	0.005
Mof_H 	H 	0.35	0.6974	0.7921	-0.014
Mof_C 	C 	0.3535	0.6603	0.8701	-0.028
Mof_H 	H 	0.3575	0.6999	0.8946	-0.001
Mof_C 	C 	0.5817	0.3874	0.261	0.11
Mof_H 	H 	0.5779	0.3511	0.2336	-0.067
Mof_C 	C 	0.6086	0.4753	0.3236	-0.003
Mof_H 	H 	0.6277	0.5138	0.3506	-0.011
Mof_C 	C 	0.5695	0.4548	0.3116	-0.019
Mof_H 	H 	0.5565	0.4772	0.3279	0.002
Mof_N 	N 	0.661	0.7768	0.2111	-0.293
Mof_N 	N 	0.5514	0.7358	0.2672	-0.293
Mof_N 	N 	0.5954	0.7549	0.949	-0.286
Mof_C 	C 	0.6672	0.7419	0.1721	0.096
Mof_H 	H 	0.6807	0.6976	0.1841	-0.062
Mof_C 	C 	0.5784	0.7075	0.8983	0.074
Mof_H 	H 	0.5955	0.6676	0.9059	-0.054
Mof_C 	C 	0.59	0.7126	0.2793	0.101
Mof_H 	H 	0.5971	0.6654	0.2836	-0.065
Mof_C 	C 	0.6316	0.831	0.1678	-0.013
Mof_H 	H 	0.6179	0.8637	0.1769	0
Mof_C 	C 	0.6259	0.8291	0.1095	-0.013
Mof_H 	H 	0.6068	0.8595	0.0712	0
Mof_C 	C 	0.6062	0.8182	0.3027	-0.004
Mof_H 	H 	0.6223	0.8607	0.3178	-0.003
Mof_C 	C 	0.567	0.8021	0.2946	-0.003
Mof_H 	H 	0.553	0.8312	0.3057	-0.002
Mof_C 	C 	0.5288	0.7911	0.845	0.269
Mof_H 	H 	0.5025	0.8189	0.8098	-0.088
Mof_C 	C 	0.5669	0.8128	0.9127	0.279
Mof_H 	H 	0.5724	0.8575	0.9307	-0.101
Mof_C 	C 	0.3466	0.1565	0.8133	0.002
Mof_H 	H 	0.347	0.1169	0.7928	-0.008
Mof_C 	C 	0.3532	0.1581	0.8724	0.007
Mof_H 	H 	0.3607	0.1198	0.9005	-0.011
Mof_C 	C 	0.0877	0.6819	0.7559	-0.008
Mof_H 	H 	0.0938	0.6397	0.7454	-0.004
Mof_C 	C 	0.0474	0.6973	0.7454	-0.009
Mof_H 	H 	0.0215	0.6674	0.7265	-0.005
Mof_C 	C 	0.0162	0.2725	0.8511	-1.181
Mof_H 	H 	0.9843	0.2887	0.8209	0.42
Mof_C 	C 	0.0542	0.2933	0.9197	-1.463
Mof_H 	H 	0.0524	0.3283	0.9431	0.45
Mof_Zn	Zn	0.15848	0.24702	0.04768	1.172
Mof_Zn	Zn	0.84697	0.06539	0.95702	1.168
Mof_Zn	Zn	0.17584	0.24863	0.29848	1.173
Mof_Zn	Zn	0.17144	0.93693	0.29495	1.17
Mof_N 	N 	0.1526	0.2754	0.1156	-0.292
Mof_N 	N 	0.8221	0.8516	0.94	-0.301
Mof_N 	N 	0.8258	0.9677	0.9452	-0.299
Mof_N 	N 	0.9111	0.0803	0.0543	-0.292
Mof_N 	N 	0.96804	0.1207	0.1638	-0.296
Mof_N 	N 	0.7955	0.1255	0.9383	-0.293
Mof_N 	N 	0.7295	0.1913	0.8766	-0.296
Mof_N 	N 	0.1176	0.2608	0.2847	-0.296
Mof_N 	N 	0.196	0.1507	0.3242	-0.299
Mof_N 	N 	0.195	0.0337	0.323	-0.295
Mof_N 	N 	0.2758	0.3735	0.1289	-0.293
Mof_N 	N 	0.2113	0.3043	0.0685	-0.3
Mof_N 	N 	0.844	0.0928	0.7922	-0.302
Mof_N 	N 	0.8506	0.0924	0.8851	-0.293
Mof_N 	N 	0.1164	0.9323	0.2909	-0.303
Mof_N 	N 	0.0515	0.8961	0.2719	-0.304
Mof_N 	N 	0.0345	0.2231	0.8359	-0.308
Mof_C 	C 	0.8432	0.9093	0.9438	0.114
Mof_H 	H 	0.8689	0.9084	0.9454	-0.076
Mof_C 	C 	0.7874	0.877	0.938	-0.005
Mof_H 	H 	0.7651	0.85	0.9343	-0.003
Mof_C 	C 	0.7896	0.9477	0.942	-0.018
Mof_H 	H 	0.7698	0.9768	0.9425	-0
Mof_C 	C 	0.9225	0.1237	0.1043	0.1
Mof_H 	H 	0.9001	0.1537	0.0975	-0.06
Mof_C 	C 	0.9529	0.048	0.0844	-0.02
Mof_H 	H 	0.9573	0.0142	0.0631	-0.007
Mof_C 	C 	0.9882	0.073	0.1519	0.025
Mof_H 	H 	0.0207	0.0594	0.184	-0.027
Mof_C 	C 	0.762	0.1599	0.8797	0.106
Mof_H 	H 	0.7613	0.1618	0.8427	-0.066
Mof_C 	C 	0.7829	0.1356	0.9771	-0.016
Mof_H 	H 	0.7994	0.1179	0.0222	0.002
Mof_C 	C 	0.7432	0.1748	0.9399	-0.005
Mof_H 	H 	0.7273	0.1889	0.9546	-0.003
Mof_C 	C 	0.1745	0.0927	0.2865	0.101
Mof_H 	H 	0.1472	0.0933	0.2382	-0.065
Mof_C 	C 	0.2331	0.0567	0.3909	-0.021
Mof_H 	H 	0.2549	0.0287	0.4305	0.002
Mof_C 	C 	0.2332	0.127	0.3902	-0.004
Mof_H 	H 	0.2557	0.155	0.4295	-0.005
Mof_C 	C 	0.2429	0.3427	0.1258	0.097
Mof_H 	H 	0.2419	0.3475	0.161	-0.064
Mof_C 	C 	0.2647	0.3508	0.0687	-0.008
Mof_H 	H 	0.2817	0.363	0.0552	-0.003
Mof_C 	C 	0.2271	0.3098	0.0331	-0.016
Mof_H 	H 	0.2131	0.2878	0.9906	-0.011
Mof_C 	C 	0.8445	0.0559	0.8363	0.108
Mof_H 	H 	0.8409	0.0077	0.833	-0.068
Mof_C 	C 	0.8493	0.1587	0.8133	0.008
Mof_H 	H 	0.85	0.1974	0.7921	-0.009
Mof_C 	C 	0.8535	0.1603	0.8701	-0.025
Mof_H 	H 	0.8575	0.1999	0.8946	0.001
Mof_C 	C 	0.0817	0.8874	0.261	0.105
Mof_H 	H 	0.0779	0.8511	0.2336	-0.085
Mof_C 	C 	0.1086	0.9753	0.3236	-0.006
Mof_H 	H 	0.1277	0.0138	0.3506	-0.009
Mof_C 	C 	0.0695	0.9548	0.3116	-0.018
Mof_H 	H 	0.0565	0.9772	0.3279	0.002
Mof_N 	N 	0.161	0.2768	0.2111	-0.293
Mof_N 	N 	0.0514	0.2358	0.2672	-0.295
Mof_N 	N 	0.0954	0.2549	0.949	-0.276
Mof_C 	C 	0.1672	0.2419	0.1721	0.099
Mof_H 	H 	0.1807	0.1976	0.1841	-0.062
Mof_C 	C 	0.0784	0.2075	0.8983	0.073
Mof_H 	H 	0.0955	0.1676	0.9059	-0.055
Mof_C 	C 	0.09	0.2126	0.2793	0.101
Mof_H 	H 	0.0971	0.1654	0.2836	-0.066
Mof_C 	C 	0.1316	0.331	0.1678	-0.036
Mof_H 	H 	0.1179	0.3637	0.1769	0.007
Mof_C 	C 	0.1259	0.3291	0.1095	-0.036
Mof_H 	H 	0.1068	0.3595	0.0712	0.01
Mof_C 	C 	0.1062	0.3182	0.3027	-0.004
Mof_H 	H 	0.1223	0.3607	0.3178	-0.005
Mof_C 	C 	0.067	0.3021	0.2946	-0.004
Mof_H 	H 	0.053	0.3312	0.3057	-0.006
Mof_C 	C 	0.0288	0.2911	0.845	1.293
Mof_H 	H 	0.0025	0.3189	0.8098	-0.4
Mof_C 	C 	0.0669	0.3128	0.9127	1.322
Mof_H 	H 	0.0724	0.3575	0.9307	-0.457
Mof_C 	C 	0.8466	0.6565	0.8133	-0.023
Mof_H 	H 	0.847	0.6169	0.7928	0.002
Mof_C 	C 	0.8532	0.6581	0.8724	-0.021
Mof_H 	H 	0.8607	0.6198	0.9005	0
Mof_C 	C 	0.5877	0.1819	0.7559	-0.008
Mof_H 	H 	0.5938	0.1397	0.7454	-0.003
Mof_C 	C 	0.5474	0.1973	0.7454	-0.01
Mof_H 	H 	0.5215	0.1674	0.7265	-0.001
Mof_C 	C 	0.5162	0.7725	0.8511	-0.246
Mof_H 	H 	0.4843	0.7887	0.8209	0.076
Mof_C 	C 	0.5542	0.7933	0.9197	-0.321
Mof_H 	H 	0.5524	0.8283	0.9431	0.098
Mof_Zn	Zn	0.5	0.3219	0.75	1.17
Mof_Zn	Zn	0.5	0.66493	0.75	1.171
Mof_Zn	Zn	6.73749e-17	0.8219	0.75	1.166
Mof_Zn	Zn	3.23005e-33	0.16493	0.75	1.167
Mof_Zn	Zn	0.5	0.6781	0.25	1.17
Mof_Zn	Zn	0.5	0.33507	0.25	1.171
Mof_Zn	Zn	1.07668e-33	0.1781	0.25	1.166
Mof_Zn	Zn	1.07668e-33	0.83507	0.25	1.167
_end
