data_functionalizedCrystal
_audit_creation_method	'EQeq! by Chris Wilmer'
_symmetry_space_group_name_H-M	'P1'
_symmetry_Int_Tables_number	1
_symmetry_cell_setting	triclinic
loop_
_symmetry_equiv_pos_as_xyz
  x,y,z
_cell_length_a	6.9082
_cell_length_b	18.426
_cell_length_c	18.583
_cell_angle_alpha	111.98
_cell_angle_beta	90
_cell_angle_gamma	90
loop_
_atom_site_label
_atom_site_type_symbol
_atom_site_fract_x
_atom_site_fract_y
_atom_site_fract_z
_atom_site_charge
Mof_Tb	Tb	0.77694	0.62652	0.62277	1.707
Mof_Tb	Tb	0.74807	0.6247	0.10391	1.938
Mof_Tb	Tb	0.27694	0.87348	0.87723	1.7
Mof_Tb	Tb	0.24807	0.8753	0.39609	1.94
Mof_Tb	Tb	0.22306	0.37348	0.37723	1.706
Mof_Tb	Tb	0.25193	0.3753	0.89609	1.937
Mof_Tb	Tb	0.72306	0.12652	0.12277	1.7
Mof_Tb	Tb	0.75193	0.1247	0.60391	1.94
Mof_H 	H 	0.512	0.6266	0.898	0.002
Mof_H 	H 	0.7317	0.4162	0.7619	0.023
Mof_H 	H 	0.5931	0.7273	0.4115	-0.001
Mof_H 	H 	0.7994	0.5062	0.3301	0.016
Mof_H 	H 	0.012	0.8734	0.602	0.002
Mof_H 	H 	0.2317	0.0838	0.7381	0.022
Mof_H 	H 	0.0931	0.7727	0.0885	0
Mof_H 	H 	0.2994	0.9938	0.1699	0.017
Mof_H 	H 	0.488	0.3734	0.102	0.002
Mof_H 	H 	0.2683	0.5838	0.2381	0.023
Mof_H 	H 	0.4069	0.2727	0.5885	-0.001
Mof_H 	H 	0.2006	0.4938	0.6699	0.016
Mof_H 	H 	0.988	0.1266	0.398	0.002
Mof_H 	H 	0.7683	0.9162	0.2619	0.022
Mof_H 	H 	0.9069	0.2273	0.9115	0
Mof_H 	H 	0.7006	0.0062	0.8301	0.017
Mof_C 	C 	0.5879	0.61651	0.78868	-0.077
Mof_C 	C 	0.566	0.59324	0.85157	0.062
Mof_C 	C 	0.6283	0.51789	0.8424	-0.163
Mof_C 	C 	0.6982	0.46753	0.7701	0.056
Mof_C 	C 	0.7165	0.49598	0.71089	-0.062
Mof_C 	C 	0.5346	0.69738	0.79024	0.374
Mof_C 	C 	0.6272	0.49169	0.91095	0.476
Mof_C 	C 	0.7943	0.44973	0.63031	0.335
Mof_C 	C 	0.6468	0.6805	0.29483	-0.084
Mof_C 	C 	0.6371	0.68292	0.37114	0.044
Mof_C 	C 	0.6956	0.61663	0.38448	-0.092
Mof_C 	C 	0.763	0.55142	0.32249	0.026
Mof_C 	C 	0.775	0.55502	0.24868	-0.045
Mof_C 	C 	0.5807	0.74726	0.27122	0.443
Mof_C 	C 	0.6951	0.61656	0.46627	0.308
Mof_C 	C 	0.8543	0.49057	0.1766	0.335
Mof_C 	C 	0.0879	0.88349	0.71132	-0.077
Mof_C 	C 	0.066	0.90676	0.64843	0.063
Mof_C 	C 	0.1283	0.98211	0.6576	-0.166
Mof_C 	C 	0.1982	0.03247	0.7299	0.057
Mof_C 	C 	0.2165	0.00402	0.78911	-0.062
Mof_C 	C 	0.0346	0.80262	0.70976	0.373
Mof_C 	C 	0.1272	0.00831	0.58905	0.477
Mof_C 	C 	0.2943	0.05027	0.86969	0.334
Mof_C 	C 	0.1468	0.8195	0.20517	-0.083
Mof_C 	C 	0.1371	0.81708	0.12886	0.044
Mof_C 	C 	0.1956	0.88337	0.11552	-0.092
Mof_C 	C 	0.263	0.94858	0.17751	0.026
Mof_C 	C 	0.275	0.94498	0.25132	-0.043
Mof_C 	C 	0.0807	0.75274	0.22878	0.443
Mof_C 	C 	0.1951	0.88344	0.03373	0.312
Mof_C 	C 	0.3543	0.00943	0.3234	0.332
Mof_C 	C 	0.4121	0.38349	0.21132	-0.077
Mof_C 	C 	0.434	0.40676	0.14843	0.062
Mof_C 	C 	0.3717	0.48211	0.1576	-0.163
Mof_C 	C 	0.3018	0.53247	0.2299	0.056
Mof_C 	C 	0.2835	0.50402	0.28911	-0.062
Mof_C 	C 	0.4654	0.30262	0.20976	0.374
Mof_C 	C 	0.3728	0.50831	0.08905	0.476
Mof_C 	C 	0.2057	0.55027	0.36969	0.335
Mof_C 	C 	0.3532	0.3195	0.70517	-0.084
Mof_C 	C 	0.3629	0.31708	0.62886	0.044
Mof_C 	C 	0.3044	0.38337	0.61552	-0.092
Mof_C 	C 	0.237	0.44858	0.67751	0.026
Mof_C 	C 	0.225	0.44498	0.75132	-0.045
Mof_C 	C 	0.4193	0.25274	0.72878	0.443
Mof_C 	C 	0.3049	0.38344	0.53373	0.308
Mof_C 	C 	0.1457	0.50943	0.8234	0.335
Mof_C 	C 	0.9121	0.11651	0.28868	-0.077
Mof_C 	C 	0.934	0.09324	0.35157	0.063
Mof_C 	C 	0.8717	0.01789	0.3424	-0.166
Mof_C 	C 	0.8018	0.96753	0.2701	0.057
Mof_C 	C 	0.7835	0.99598	0.21089	-0.062
Mof_C 	C 	0.9654	0.19738	0.29024	0.373
Mof_C 	C 	0.8728	0.99169	0.41095	0.477
Mof_C 	C 	0.7057	0.94973	0.13031	0.334
Mof_C 	C 	0.8532	0.1805	0.79483	-0.083
Mof_C 	C 	0.8629	0.18292	0.87114	0.044
Mof_C 	C 	0.8044	0.11663	0.88448	-0.092
Mof_C 	C 	0.737	0.05142	0.82249	0.026
Mof_C 	C 	0.725	0.05502	0.74868	-0.043
Mof_C 	C 	0.9193	0.24726	0.77122	0.443
Mof_C 	C 	0.8049	0.11656	0.96627	0.312
Mof_C 	C 	0.6457	0.99057	0.6766	0.332
Mof_N 	N 	0.6678	0.57024	0.72131	-0.187
Mof_N 	N 	0.7149	0.61813	0.23569	-0.179
Mof_N 	N 	0.1678	0.92976	0.77869	-0.187
Mof_N 	N 	0.2149	0.88187	0.26431	-0.18
Mof_N 	N 	0.3322	0.42976	0.27869	-0.187
Mof_N 	N 	0.2851	0.38187	0.76431	-0.179
Mof_N 	N 	0.8322	0.07024	0.22131	-0.187
Mof_N 	N 	0.7851	0.11813	0.73569	-0.18
Mof_O 	O 	0.4262	0.74052	0.84177	-0.437
Mof_O 	O 	0.6089	0.71378	0.73477	-0.48
Mof_O 	O 	0.6842	0.54037	0.97452	-0.537
Mof_O 	O 	0.5747	0.42204	0.8976	-0.502
Mof_O 	O 	0.8179	0.37854	0.60964	-0.284
Mof_O 	O 	0.8314	0.49026	0.58862	-0.458
Mof_O 	O 	0.5121	0.80701	0.32354	-0.521
Mof_O 	O 	0.6012	0.73733	0.20061	-0.483
Mof_O 	O 	0.7155	0.55267	0.47582	-0.403
Mof_O 	O 	0.6841	0.68092	0.52358	-0.409
Mof_O 	O 	0.914	0.42868	0.18068	-0.279
Mof_O 	O 	0.8537	0.50607	0.11486	-0.462
Mof_O 	O 	0.9262	0.75948	0.65823	-0.437
Mof_O 	O 	0.1089	0.78622	0.76523	-0.479
Mof_O 	O 	0.1842	0.95963	0.52548	-0.538
Mof_O 	O 	0.0747	0.07796	0.6024	-0.503
Mof_O 	O 	0.3179	0.12146	0.89036	-0.284
Mof_O 	O 	0.3314	0.00974	0.91138	-0.457
Mof_O 	O 	0.0121	0.69299	0.17646	-0.519
Mof_O 	O 	0.1012	0.76267	0.29939	-0.482
Mof_O 	O 	0.2155	0.94733	0.02418	-0.402
Mof_O 	O 	0.1841	0.81908	0.97642	-0.412
Mof_O 	O 	0.414	0.07132	0.31932	-0.278
Mof_O 	O 	0.3537	0.99393	0.38514	-0.46
Mof_O 	O 	0.5738	0.25948	0.15823	-0.437
Mof_O 	O 	0.3911	0.28622	0.26523	-0.48
Mof_O 	O 	0.3158	0.45963	0.02548	-0.537
Mof_O 	O 	0.4253	0.57796	0.1024	-0.502
Mof_O 	O 	0.1821	0.62146	0.39036	-0.284
Mof_O 	O 	0.1686	0.50974	0.41138	-0.458
Mof_O 	O 	0.4879	0.19299	0.67646	-0.521
Mof_O 	O 	0.3988	0.26267	0.79939	-0.483
Mof_O 	O 	0.2845	0.44733	0.52418	-0.403
Mof_O 	O 	0.3159	0.31908	0.47642	-0.409
Mof_O 	O 	0.086	0.57132	0.81932	-0.279
Mof_O 	O 	0.1463	0.49393	0.88514	-0.462
Mof_O 	O 	0.0738	0.24052	0.34177	-0.437
Mof_O 	O 	0.8911	0.21378	0.23477	-0.479
Mof_O 	O 	0.8158	0.04037	0.47452	-0.538
Mof_O 	O 	0.9253	0.92204	0.3976	-0.503
Mof_O 	O 	0.6821	0.87854	0.10964	-0.284
Mof_O 	O 	0.6686	0.99026	0.08862	-0.457
Mof_O 	O 	0.9879	0.30701	0.82354	-0.519
Mof_O 	O 	0.8988	0.23733	0.70061	-0.482
Mof_O 	O 	0.7845	0.05267	0.97582	-0.402
Mof_O 	O 	0.8159	0.18092	0.02358	-0.412
Mof_O 	O 	0.586	0.92868	0.68068	-0.278
Mof_O 	O 	0.6463	0.00607	0.61486	-0.46
_end
