# CIF file generated by openbabel 3.1.0, see https://openbabel.org
data_I
_chemical_name_common 'image0'
_cell_length_a 9.812
_cell_length_b 25.793
_cell_length_c 11.777
_cell_angle_alpha 90
_cell_angle_beta 104.68
_cell_angle_gamma 90
_space_group_name_H-M_alt 'P 1'
_space_group_name_Hall 'P 1'
loop_
    _symmetry_equiv_pos_as_xyz
    x,y,z
loop_
    _atom_site_label
    _atom_site_type_symbol
    _atom_site_fract_x
    _atom_site_fract_y
    _atom_site_fract_z
    _atom_site_occupancy
    Y1       Y        0.20567    0.10155    0.29793    1.000
    Fe1      Fe       0.32022    0.89422    0.33805    1.000
    O1       O        0.50970    0.90520    0.19880    1.000
    N1       N        0.43380    0.89950    0.25470    1.000
    N2       N        0.26770    0.01150    0.33760    1.000
    N3       N        0.56140    0.89600    0.56410    1.000
    N4       N        0.30850    0.77440    0.34000    1.000
    N5       N        0.05690    0.88680    0.13360    1.000
    C1       C        0.29100    0.96770    0.34040    1.000
    C2       C        0.46840    0.89580    0.48250    1.000
    C3       C        0.31740    0.81860    0.34210    1.000
    C4       C        0.15550    0.89010    0.21040    1.000
    N6       N        0.02160    0.16920    0.27180    1.000
    C5       C        0.96810    0.20200    0.31290    1.000
    Rb1      Rb       0.54450    0.72278    0.51481    1.000
    Fe2      Fe       0.11229    0.74474    0.61109    1.000
    O2       O        0.01780    0.78690    0.38770    1.000
    N7       N        0.06170    0.77140    0.47870    1.000
    N8       N        0.24510    0.65090    0.51780    1.000
    N9       N        0.83420    0.68410    0.55170    1.000
    C6       C        0.19630    0.68480    0.55520    1.000
    C7       C        0.93640    0.70650    0.57830    1.000
    N10      N        0.10740    0.89360    0.49110    1.000
    C8       C        0.18900    0.89290    0.43580    1.000
    N11      N        0.40810    0.79440    0.68550    1.000
    C9       C        0.29910    0.77690    0.65930    1.000
    N12      N        0.68430    0.80880    0.35320    1.000
    C10      C        0.65900    0.78890    0.26440    1.000
    Y2       Y        0.29433    0.60155    0.20207    1.000
    Fe3      Fe       0.17978    0.39422    0.16195    1.000
    O3       O        0.99030    0.40520    0.30120    1.000
    N13      N        0.06620    0.39950    0.24530    1.000
    N14      N        0.23230    0.51150    0.16240    1.000
    N15      N        0.93860    0.39600    0.93590    1.000
    N16      N        0.19150    0.27440    0.16000    1.000
    N17      N        0.44310    0.38680    0.36640    1.000
    C11      C        0.20900    0.46770    0.15960    1.000
    C12      C        0.03160    0.39580    0.01750    1.000
    C13      C        0.18260    0.31860    0.15790    1.000
    C14      C        0.34450    0.39010    0.28960    1.000
    N18      N        0.47840    0.66920    0.22820    1.000
    C15      C        0.53190    0.70200    0.18710    1.000
    Rb2      Rb       0.95550    0.22278    0.98519    1.000
    Fe4      Fe       0.38771    0.24474    0.88891    1.000
    O4       O        0.48220    0.28690    0.11230    1.000
    N19      N        0.43830    0.27140    0.02130    1.000
    N20      N        0.25490    0.15090    0.98220    1.000
    N21      N        0.66580    0.18410    0.94830    1.000
    C16      C        0.30370    0.18480    0.94480    1.000
    C17      C        0.56360    0.20650    0.92170    1.000
    N22      N        0.39260    0.39360    0.00890    1.000
    C18      C        0.31100    0.39290    0.06420    1.000
    N23      N        0.09190    0.29440    0.81450    1.000
    C19      C        0.20090    0.27690    0.84070    1.000
    N24      N        0.81570    0.30880    0.14680    1.000
    C20      C        0.84100    0.28890    0.23560    1.000
    Y3       Y        0.79433    0.89845    0.70207    1.000
    Fe5      Fe       0.67978    0.10578    0.66195    1.000
    O5       O        0.49030    0.09480    0.80120    1.000
    N25      N        0.56620    0.10050    0.74530    1.000
    N26      N        0.73230    0.98850    0.66240    1.000
    N27      N        0.43860    0.10400    0.43590    1.000
    N28      N        0.69150    0.22560    0.66000    1.000
    N29      N        0.94310    0.11320    0.86640    1.000
    C21      C        0.70900    0.03230    0.65960    1.000
    C22      C        0.53160    0.10420    0.51750    1.000
    C23      C        0.68260    0.18140    0.65790    1.000
    C24      C        0.84450    0.10990    0.78960    1.000
    N30      N        0.97840    0.83080    0.72820    1.000
    C25      C        0.03190    0.79800    0.68710    1.000
    Rb3      Rb       0.45550    0.27722    0.48519    1.000
    Fe6      Fe       0.88771    0.25526    0.38891    1.000
    O6       O        0.98220    0.21310    0.61230    1.000
    N31      N        0.93830    0.22860    0.52130    1.000
    N32      N        0.75490    0.34910    0.48220    1.000
    N33      N        0.16580    0.31590    0.44830    1.000
    C26      C        0.80370    0.31520    0.44480    1.000
    C27      C        0.06360    0.29350    0.42170    1.000
    N34      N        0.89260    0.10640    0.50890    1.000
    C28      C        0.81100    0.10710    0.56420    1.000
    N35      N        0.59190    0.20560    0.31450    1.000
    C29      C        0.70090    0.22310    0.34070    1.000
    N36      N        0.31570    0.19120    0.64680    1.000
    C30      C        0.34100    0.21110    0.73560    1.000
    Y4       Y        0.70567    0.39845    0.79793    1.000
    Fe7      Fe       0.82022    0.60578    0.83805    1.000
    O7       O        0.00970    0.59480    0.69880    1.000
    N37      N        0.93380    0.60050    0.75470    1.000
    N38      N        0.76770    0.48850    0.83760    1.000
    N39      N        0.06140    0.60400    0.06410    1.000
    N40      N        0.80850    0.72560    0.84000    1.000
    N41      N        0.55690    0.61320    0.63360    1.000
    C31      C        0.79100    0.53230    0.84040    1.000
    C32      C        0.96840    0.60420    0.98250    1.000
    C33      C        0.81740    0.68140    0.84210    1.000
    C34      C        0.65550    0.60990    0.71040    1.000
    N42      N        0.52160    0.33080    0.77180    1.000
    C35      C        0.46810    0.29800    0.81290    1.000
    Rb4      Rb       0.04450    0.77722    0.01481    1.000
    Fe8      Fe       0.61229    0.75526    0.11109    1.000
    O8       O        0.51780    0.71310    0.88770    1.000
    N43      N        0.56170    0.72860    0.97870    1.000
    N44      N        0.74510    0.84910    0.01780    1.000
    N45      N        0.33420    0.81590    0.05170    1.000
    C36      C        0.69630    0.81520    0.05520    1.000
    C37      C        0.43640    0.79350    0.07830    1.000
    N46      N        0.60740    0.60640    0.99110    1.000
    C38      C        0.68900    0.60710    0.93580    1.000
    N47      N        0.90810    0.70560    0.18550    1.000
    C39      C        0.79910    0.72310    0.15930    1.000
    N48      N        0.18430    0.69120    0.85320    1.000
    C40      C        0.15900    0.71110    0.76440    1.000
