data_functionalizedCrystal
_audit_creation_method	'EQeq! by Chris Wilmer'
_symmetry_space_group_name_H-M	'P1'
_symmetry_Int_Tables_number	1
_symmetry_cell_setting	triclinic
loop_
_symmetry_equiv_pos_as_xyz
  x,y,z
_cell_length_a	7.107
_cell_length_b	7.2234
_cell_length_c	9.205
_cell_angle_alpha	95.377
_cell_angle_beta	91.256
_cell_angle_gamma	114.893
loop_
_atom_site_label
_atom_site_type_symbol
_atom_site_fract_x
_atom_site_fract_y
_atom_site_fract_z
_atom_site_charge
Mof_U 	U 	0.5	0.5	0.5	-0.023
Mof_Cu	Cu	-0	0	0.5	0.812
Mof_H 	H 	0.2886	0.4314	0.9732	0.039
Mof_H 	H 	0.7114	0.5686	0.0268	0.102
Mof_C 	C 	0.0414	0.4328	0.86239	-0.134
Mof_C 	C 	0.0938	0.3551	0.71816	0.349
Mof_C 	C 	0.8678	0.4753	0.87764	0.062
Mof_C 	C 	0.1725	0.4585	0.98397	0.048
Mof_C 	C 	0.7299	0.4609	0.74862	0.239
Mof_C 	C 	0.9586	0.5672	0.13761	0.07
Mof_C 	C 	0.9062	0.6449	0.28184	0.294
Mof_C 	C 	0.1322	0.5247	0.12236	-0.12
Mof_C 	C 	0.8275	0.5415	0.01603	-0.074
Mof_C 	C 	0.2701	0.5391	0.25138	0.29
Mof_O 	O 	0.2221	0.48518	0.64632	-0.224
Mof_O 	O 	0.7603	0.4007	0.62212	-0.188
Mof_O 	O 	0.0102	0.16313	0.68625	-0.443
Mof_O 	O 	0.5843	0.5173	0.76575	-0.185
Mof_O 	O 	0.7779	0.51482	0.35368	-0.201
Mof_O 	O 	0.2397	0.5993	0.37788	-0.211
Mof_O 	O 	0.9898	0.83687	0.31375	-0.286
Mof_O 	O 	0.4157	0.4827	0.23425	-0.216
_end
