data_functionalizedCrystal
_audit_creation_method	'EQeq! by Chris Wilmer'
_symmetry_space_group_name_H-M	'P1'
_symmetry_Int_Tables_number	1
_symmetry_cell_setting	triclinic
loop_
_symmetry_equiv_pos_as_xyz
  x,y,z
_cell_length_a	18.1128
_cell_length_b	8.7931
_cell_length_c	19.2053
_cell_angle_alpha	90
_cell_angle_beta	102.909
_cell_angle_gamma	90
loop_
_atom_site_label
_atom_site_type_symbol
_atom_site_fract_x
_atom_site_fract_y
_atom_site_fract_z
_atom_site_charge
Mof_Cd	Cd	0.20866	0.90703	0.04758	0.516
Mof_O 	O 	0.0763	0.1598	0.9552	-0.306
Mof_C 	C 	0.1171	0.4196	0.6506	0.381
Mof_C 	C 	0.1293	0.2173	0.856	-0.181
Mof_O 	O 	0.1783	0.4342	0.6297	-0.298
Mof_O 	O 	0.1908	0.0665	0.9528	-0.291
Mof_C 	C 	0.0586	0.3492	0.7525	0.193
Mof_O 	O 	0.0536	0.4613	0.6163	-0.333
Mof_O 	O 	0.0874	0.815	0.0054	-0.443
Mof_C 	C 	0.062	0.2826	0.8184	0.123
Mof_C 	C 	0.0979	0.6963	0.9714	0.78
Mof_O 	O 	0.3169	0.8264	0.0087	-0.276
Mof_C 	C 	0.1886	0.2869	0.7606	0.197
Mof_C 	C 	0.1327	0.1425	0.9267	0.361
Mof_C 	C 	0.4765	0.09	0.0482	0.119
Mof_O 	O 	0.3342	0.0239	0.0801	-0.248
Mof_C 	C 	0.031	0.6167	0.9291	-1.502
Mof_H 	H 	0.9879	0.6365	0.9492	0.508
Mof_H 	H 	0.0406	0.5093	0.9299	0.5
Mof_H 	H 	0.0208	0.6524	0.8807	0.505
Mof_C 	C 	0.192	0.2181	0.8262	0.162
Mof_C 	C 	0.122	0.3508	0.7228	-0.228
Mof_C 	C 	0.3558	0.9371	0.0376	0.361
Mof_C 	C 	0.4317	0.97	0.0189	-0.151
Mof_C 	C 	0.5439	0.1192	0.0313	0.172
Mof_O 	O 	0.2592	0.1406	0.855	-0.343
Mof_H 	H 	0.257	0.1049	0.894	0.273
Mof_O 	O 	0.993	0.4087	0.7222	-0.386
Mof_H 	H 	0.9944	0.44	0.6823	0.277
Mof_O 	O 	0.4621	0.1661	0.101	-0.111
Mof_O 	O 	0.9923	0.2828	0.838	-0.357
Mof_H 	H 	0.9934	0.2214	0.8703	0.262
Mof_O 	O 	0.2551	0.305	0.7398	-0.354
Mof_H 	H 	0.2463	0.3232	0.6968	0.281
Mof_O 	O 	0.5802	0.2493	0.0581	-0.354
Mof_H 	H 	0.6181	0.2606	0.0419	0.28
Mof_O 	O 	0.1635	0.654	0.9722	-0.367
Mof_Cd	Cd	0.79134	0.40703	0.45242	0.505
Mof_O 	O 	0.9237	0.6598	0.5448	-0.3
Mof_C 	C 	0.8829	0.9196	0.8494	0.378
Mof_C 	C 	0.8707	0.7173	0.644	-0.185
Mof_O 	O 	0.8217	0.9342	0.8703	-0.29
Mof_O 	O 	0.8092	0.5665	0.5472	-0.291
Mof_C 	C 	0.9414	0.8492	0.7475	0.223
Mof_O 	O 	0.9464	0.9613	0.8837	-0.306
Mof_O 	O 	0.9126	0.315	0.4946	-0.405
Mof_C 	C 	0.938	0.7826	0.6816	0.15
Mof_C 	C 	0.9021	0.1963	0.5286	0.687
Mof_O 	O 	0.6831	0.3264	0.4913	-0.268
Mof_C 	C 	0.8114	0.7869	0.7394	0.2
Mof_C 	C 	0.8673	0.6425	0.5733	0.366
Mof_C 	C 	0.5235	0.59	0.4518	0.128
Mof_O 	O 	0.6658	0.5239	0.4199	-0.227
Mof_C 	C 	0.969	0.1167	0.5709	-1.259
Mof_H 	H 	0.0121	0.1365	0.5508	0.401
Mof_H 	H 	0.9594	0.0093	0.5701	0.428
Mof_H 	H 	0.9792	0.1524	0.6193	0.442
Mof_C 	C 	0.808	0.7181	0.6738	0.165
Mof_C 	C 	0.878	0.8508	0.7772	-0.23
Mof_C 	C 	0.6442	0.4371	0.4624	0.34
Mof_C 	C 	0.5683	0.47	0.4811	-0.146
Mof_C 	C 	0.4561	0.6192	0.4687	0.187
Mof_O 	O 	0.7408	0.6406	0.645	-0.34
Mof_H 	H 	0.743	0.6049	0.606	0.274
Mof_O 	O 	0.007	0.9087	0.7778	-0.412
Mof_H 	H 	0.0056	0.94	0.8177	0.275
Mof_O 	O 	0.5379	0.6661	0.399	-0.106
Mof_O 	O 	0.0077	0.7828	0.662	-0.379
Mof_H 	H 	0.0066	0.7214	0.6297	0.259
Mof_O 	O 	0.7449	0.805	0.7602	-0.352
Mof_H 	H 	0.7537	0.8232	0.8032	0.283
Mof_O 	O 	0.4198	0.7493	0.4419	-0.353
Mof_H 	H 	0.3819	0.7606	0.4581	0.287
Mof_O 	O 	0.8365	0.154	0.5278	-0.352
Mof_Cd	Cd	0.79134	0.09297	0.95242	0.499
Mof_O 	O 	0.9237	0.8402	0.0448	-0.298
Mof_C 	C 	0.8829	0.5804	0.3494	0.381
Mof_C 	C 	0.8707	0.7827	0.144	-0.185
Mof_O 	O 	0.8217	0.5658	0.3703	-0.297
Mof_O 	O 	0.8092	0.9335	0.0472	-0.291
Mof_C 	C 	0.9414	0.6508	0.2475	0.226
Mof_O 	O 	0.9464	0.5387	0.3837	-0.317
Mof_O 	O 	0.9126	0.185	0.9946	-0.39
Mof_C 	C 	0.938	0.7174	0.1816	0.151
Mof_C 	C 	0.9021	0.3037	0.0286	0.669
Mof_O 	O 	0.6831	0.1736	0.9913	-0.256
Mof_C 	C 	0.8114	0.7131	0.2394	0.202
Mof_C 	C 	0.8673	0.8575	0.0733	0.365
Mof_C 	C 	0.5235	0.91	0.9518	0.136
Mof_O 	O 	0.6658	0.9761	0.9199	-0.209
Mof_C 	C 	0.969	0.3833	0.0709	-1.244
Mof_H 	H 	0.0121	0.3635	0.0508	0.396
Mof_H 	H 	0.9594	0.4907	0.0701	0.428
Mof_H 	H 	0.9792	0.3476	0.1193	0.44
Mof_C 	C 	0.808	0.7819	0.1738	0.163
Mof_C 	C 	0.878	0.6492	0.2772	-0.234
Mof_C 	C 	0.6442	0.0629	0.9624	0.321
Mof_C 	C 	0.5683	0.03	0.9811	-0.141
Mof_C 	C 	0.4561	0.8808	0.9687	0.203
Mof_O 	O 	0.7408	0.8594	0.145	-0.339
Mof_H 	H 	0.743	0.8951	0.106	0.274
Mof_O 	O 	0.007	0.5913	0.2778	-0.417
Mof_H 	H 	0.0056	0.56	0.3177	0.271
Mof_O 	O 	0.5379	0.8339	0.899	-0.105
Mof_O 	O 	0.0077	0.7172	0.162	-0.384
Mof_H 	H 	0.0066	0.7786	0.1297	0.263
Mof_O 	O 	0.7449	0.695	0.2602	-0.355
Mof_H 	H 	0.7537	0.6768	0.3032	0.284
Mof_O 	O 	0.4198	0.7507	0.9419	-0.358
Mof_H 	H 	0.3819	0.7394	0.9581	0.293
Mof_O 	O 	0.8365	0.346	0.0278	-0.35
Mof_Cd	Cd	0.20866	0.59297	0.54758	0.508
Mof_O 	O 	0.0763	0.3402	0.4552	-0.316
Mof_C 	C 	0.1171	0.0804	0.1506	0.379
Mof_C 	C 	0.1293	0.2827	0.356	-0.183
Mof_O 	O 	0.1783	0.0658	0.1297	-0.305
Mof_O 	O 	0.1908	0.4335	0.4528	-0.292
Mof_C 	C 	0.0586	0.1508	0.2525	0.19
Mof_O 	O 	0.0536	0.0387	0.1163	-0.338
Mof_O 	O 	0.0874	0.685	0.5054	-0.435
Mof_C 	C 	0.062	0.2174	0.3184	0.122
Mof_C 	C 	0.0979	0.8037	0.4714	0.764
Mof_O 	O 	0.3169	0.6736	0.5087	-0.264
Mof_C 	C 	0.1886	0.2131	0.2606	0.198
Mof_C 	C 	0.1327	0.3575	0.4267	0.362
Mof_C 	C 	0.4765	0.41	0.5482	0.127
Mof_O 	O 	0.3342	0.4761	0.5801	-0.228
Mof_C 	C 	0.031	0.8833	0.4291	-1.496
Mof_H 	H 	0.9879	0.8635	0.4492	0.505
Mof_H 	H 	0.0406	0.9907	0.4299	0.502
Mof_H 	H 	0.0208	0.8476	0.3807	0.504
Mof_C 	C 	0.192	0.2819	0.3262	0.161
Mof_C 	C 	0.122	0.1492	0.2228	-0.23
Mof_C 	C 	0.3558	0.5629	0.5376	0.34
Mof_C 	C 	0.4317	0.53	0.5189	-0.145
Mof_C 	C 	0.5439	0.3808	0.5313	0.187
Mof_O 	O 	0.2592	0.3594	0.355	-0.341
Mof_H 	H 	0.257	0.3951	0.394	0.273
Mof_O 	O 	0.993	0.0913	0.2222	-0.386
Mof_H 	H 	0.9944	0.06	0.1823	0.275
Mof_O 	O 	0.4621	0.3339	0.601	-0.11
Mof_O 	O 	0.9923	0.2172	0.338	-0.358
Mof_H 	H 	0.9934	0.2786	0.3703	0.264
Mof_O 	O 	0.2551	0.195	0.2398	-0.356
Mof_H 	H 	0.2463	0.1768	0.1968	0.281
Mof_O 	O 	0.5802	0.2507	0.5581	-0.359
Mof_H 	H 	0.6181	0.2394	0.5419	0.285
Mof_O 	O 	0.1635	0.846	0.4722	-0.366
Mof_Cd	Cd	-0	0	-0	0.478
Mof_Cd	Cd	2.43185e-33	0.5	0.5	0.509
_end
