data_functionalizedCrystal
_audit_creation_method	'EQeq! by Chris Wilmer'
_symmetry_space_group_name_H-M	'P1'
_symmetry_Int_Tables_number	1
_symmetry_cell_setting	triclinic
loop_
_symmetry_equiv_pos_as_xyz
  x,y,z
_cell_length_a	15.6733
_cell_length_b	10.7028
_cell_length_c	23.2631
_cell_angle_alpha	90
_cell_angle_beta	90
_cell_angle_gamma	90
loop_
_atom_site_label
_atom_site_type_symbol
_atom_site_fract_x
_atom_site_fract_y
_atom_site_fract_z
_atom_site_charge
Mof_Yb	Yb	0.95189	0.03048	0.08434	1.832
Mof_C 	C 	0.09356	0.2498	0.20281	-0.042
Mof_C 	C 	0.11692	0.2022	0.25598	-0
Mof_H 	H 	0.0994	0.1206	0.267	0.039
Mof_C 	C 	0.16623	0.2744	0.2934	-0.076
Mof_C 	C 	0.19227	0.3937	0.27624	-0.073
Mof_H 	H 	0.2281	0.4413	0.3008	0.068
Mof_C 	C 	0.1666	0.444	0.22374	0.091
Mof_C 	C 	0.11707	0.3713	0.1874	-0.084
Mof_H 	H 	0.0989	0.4044	0.1516	0.084
Mof_C 	C 	0.1896	0.5781	0.20925	-0.228
Mof_H 	H 	0.1473	0.6338	0.2277	0.097
Mof_H 	H 	0.2459	0.5969	0.2266	0.099
Mof_C 	C 	0.19361	0.61	0.14593	0.061
Mof_C 	C 	0.26393	0.5732	0.1128	-0.033
Mof_H 	H 	0.3087	0.5269	0.1302	0.052
Mof_C 	C 	0.26902	0.6033	0.05481	-0.109
Mof_C 	C 	0.2036	0.6713	0.02914	0.054
Mof_H 	H 	0.206	0.6898	0.9892	0.054
Mof_C 	C 	0.13464	0.7124	0.06186	-0.117
Mof_C 	C 	0.13053	0.6809	0.11979	-0.032
Mof_H 	H 	0.0833	0.7086	0.142	0.048
Mof_C 	C 	0.04249	0.1741	0.16149	0.296
Mof_C 	C 	0.19254	0.2217	0.35098	0.381
Mof_C 	C 	0.34528	0.5675	0.01936	0.438
Mof_C 	C 	0.06924	0.7963	0.03468	0.466
Mof_O 	O 	0.00803	0.22655	0.11944	-0.361
Mof_O 	O 	0.03422	0.05608	0.169	-0.411
Mof_O 	O 	0.15772	0.1221	0.36745	-0.451
Mof_O 	O 	0.24835	0.2771	0.37966	-0.262
Mof_O 	O 	0.41612	0.55481	0.04336	-0.499
Mof_O 	O 	0.33394	0.55204	0.96576	-0.429
Mof_O 	O 	0.08014	0.82205	0.98244	-0.471
Mof_O 	O 	0.00914	0.83522	0.0657	-0.484
Mof_Yb	Yb	0.54811	0.46952	0.58434	1.837
Mof_C 	C 	0.40644	0.2502	0.70281	-0.042
Mof_C 	C 	0.38308	0.2978	0.75598	-0.001
Mof_H 	H 	0.4006	0.3794	0.767	0.039
Mof_C 	C 	0.33377	0.2256	0.7934	-0.075
Mof_C 	C 	0.30773	0.1063	0.77624	-0.074
Mof_H 	H 	0.2719	0.0587	0.8008	0.069
Mof_C 	C 	0.3334	0.056	0.72374	0.094
Mof_C 	C 	0.38293	0.1287	0.6874	-0.086
Mof_H 	H 	0.4011	0.0956	0.6516	0.085
Mof_C 	C 	0.3104	0.9219	0.70925	-0.231
Mof_H 	H 	0.3527	0.8662	0.7277	0.098
Mof_H 	H 	0.2541	0.9031	0.7266	0.1
Mof_C 	C 	0.30639	0.89	0.64593	0.063
Mof_C 	C 	0.23607	0.9268	0.6128	-0.035
Mof_H 	H 	0.1913	0.9731	0.6302	0.053
Mof_C 	C 	0.23098	0.8967	0.55481	-0.106
Mof_C 	C 	0.2964	0.8287	0.52914	0.049
Mof_H 	H 	0.294	0.8102	0.4892	0.057
Mof_C 	C 	0.36536	0.7876	0.56186	-0.114
Mof_C 	C 	0.36947	0.8191	0.61979	-0.035
Mof_H 	H 	0.4167	0.7914	0.642	0.048
Mof_C 	C 	0.45751	0.3259	0.66149	0.296
Mof_C 	C 	0.30746	0.2783	0.85098	0.381
Mof_C 	C 	0.15472	0.9325	0.51936	0.436
Mof_C 	C 	0.43076	0.7037	0.53468	0.462
Mof_O 	O 	0.49197	0.27345	0.61944	-0.362
Mof_O 	O 	0.46578	0.44392	0.669	-0.411
Mof_O 	O 	0.34228	0.3779	0.86745	-0.451
Mof_O 	O 	0.25165	0.2229	0.87966	-0.262
Mof_O 	O 	0.08388	0.94519	0.54336	-0.499
Mof_O 	O 	0.16606	0.94796	0.46576	-0.428
Mof_O 	O 	0.41986	0.67795	0.48244	-0.468
Mof_O 	O 	0.49086	0.66478	0.5657	-0.485
Mof_Yb	Yb	0.04811	0.03048	0.41566	1.837
Mof_C 	C 	0.90644	0.2498	0.29719	-0.043
Mof_C 	C 	0.88308	0.2022	0.24402	-0
Mof_H 	H 	0.9006	0.1206	0.233	0.039
Mof_C 	C 	0.83377	0.2744	0.2066	-0.076
Mof_C 	C 	0.80773	0.3937	0.22376	-0.073
Mof_H 	H 	0.7719	0.4413	0.1992	0.068
Mof_C 	C 	0.8334	0.444	0.27626	0.091
Mof_C 	C 	0.88293	0.3713	0.3126	-0.085
Mof_H 	H 	0.9011	0.4044	0.3484	0.084
Mof_C 	C 	0.8104	0.5781	0.29075	-0.229
Mof_H 	H 	0.8527	0.6338	0.2723	0.097
Mof_H 	H 	0.7541	0.5969	0.2734	0.1
Mof_C 	C 	0.80639	0.61	0.35407	0.063
Mof_C 	C 	0.73607	0.5732	0.3872	-0.035
Mof_H 	H 	0.6913	0.5269	0.3698	0.053
Mof_C 	C 	0.73098	0.6033	0.44519	-0.106
Mof_C 	C 	0.7964	0.6713	0.47086	0.049
Mof_H 	H 	0.794	0.6898	0.5108	0.057
Mof_C 	C 	0.86536	0.7124	0.43814	-0.115
Mof_C 	C 	0.86947	0.6809	0.38021	-0.034
Mof_H 	H 	0.9167	0.7086	0.358	0.048
Mof_C 	C 	0.95751	0.1741	0.33851	0.296
Mof_C 	C 	0.80746	0.2217	0.14902	0.381
Mof_C 	C 	0.65472	0.5675	0.48064	0.436
Mof_C 	C 	0.93076	0.7963	0.46532	0.462
Mof_O 	O 	0.99197	0.22655	0.38056	-0.362
Mof_O 	O 	0.96578	0.05608	0.331	-0.411
Mof_O 	O 	0.84228	0.1221	0.13255	-0.451
Mof_O 	O 	0.75165	0.2771	0.12034	-0.262
Mof_O 	O 	0.58388	0.55481	0.45664	-0.499
Mof_O 	O 	0.66606	0.55204	0.53424	-0.428
Mof_O 	O 	0.91986	0.82205	0.51756	-0.468
Mof_O 	O 	0.99086	0.83522	0.4343	-0.485
Mof_Yb	Yb	0.45189	0.46952	0.91566	1.837
Mof_C 	C 	0.59356	0.2502	0.79719	-0.041
Mof_C 	C 	0.61692	0.2978	0.74402	-0.001
Mof_H 	H 	0.5994	0.3794	0.733	0.039
Mof_C 	C 	0.66623	0.2256	0.7066	-0.075
Mof_C 	C 	0.69227	0.1063	0.72376	-0.075
Mof_H 	H 	0.7281	0.0587	0.6992	0.069
Mof_C 	C 	0.6666	0.056	0.77626	0.095
Mof_C 	C 	0.61707	0.1287	0.8126	-0.086
Mof_H 	H 	0.5989	0.0956	0.8484	0.086
Mof_C 	C 	0.6896	0.9219	0.79075	-0.233
Mof_H 	H 	0.6473	0.8662	0.7723	0.098
Mof_H 	H 	0.7459	0.9031	0.7734	0.1
Mof_C 	C 	0.69361	0.89	0.85407	0.064
Mof_C 	C 	0.76393	0.9268	0.8872	-0.037
Mof_H 	H 	0.8087	0.9731	0.8698	0.053
Mof_C 	C 	0.76902	0.8967	0.94519	-0.104
Mof_C 	C 	0.7036	0.8287	0.97086	0.045
Mof_H 	H 	0.706	0.8102	0.0108	0.059
Mof_C 	C 	0.63464	0.7876	0.93814	-0.113
Mof_C 	C 	0.63053	0.8191	0.88021	-0.036
Mof_H 	H 	0.5833	0.7914	0.858	0.049
Mof_C 	C 	0.54249	0.3259	0.83851	0.296
Mof_C 	C 	0.69254	0.2783	0.64902	0.38
Mof_C 	C 	0.84528	0.9325	0.98064	0.433
Mof_C 	C 	0.56924	0.7037	0.96532	0.461
Mof_O 	O 	0.50803	0.27345	0.88056	-0.362
Mof_O 	O 	0.53422	0.44392	0.831	-0.411
Mof_O 	O 	0.65772	0.3779	0.63255	-0.451
Mof_O 	O 	0.74835	0.2229	0.62034	-0.262
Mof_O 	O 	0.91612	0.94519	0.95664	-0.498
Mof_O 	O 	0.83394	0.94796	0.03424	-0.425
Mof_O 	O 	0.58014	0.67795	0.01756	-0.467
Mof_O 	O 	0.50914	0.66478	0.9343	-0.485
Mof_Yb	Yb	0.04811	0.96952	0.91566	1.831
Mof_C 	C 	0.90644	0.7502	0.79719	-0.043
Mof_C 	C 	0.88308	0.7978	0.74402	-0
Mof_H 	H 	0.9006	0.8794	0.733	0.039
Mof_C 	C 	0.83377	0.7256	0.7066	-0.076
Mof_C 	C 	0.80773	0.6063	0.72376	-0.073
Mof_H 	H 	0.7719	0.5587	0.6992	0.068
Mof_C 	C 	0.8334	0.556	0.77626	0.091
Mof_C 	C 	0.88293	0.6287	0.8126	-0.084
Mof_H 	H 	0.9011	0.5956	0.8484	0.084
Mof_C 	C 	0.8104	0.4219	0.79075	-0.228
Mof_H 	H 	0.8527	0.3662	0.7723	0.097
Mof_H 	H 	0.7541	0.4031	0.7734	0.099
Mof_C 	C 	0.80639	0.39	0.85407	0.061
Mof_C 	C 	0.73607	0.4268	0.8872	-0.033
Mof_H 	H 	0.6913	0.4731	0.8698	0.052
Mof_C 	C 	0.73098	0.3967	0.94519	-0.109
Mof_C 	C 	0.7964	0.3287	0.97086	0.054
Mof_H 	H 	0.794	0.3102	0.0108	0.054
Mof_C 	C 	0.86536	0.2876	0.93814	-0.117
Mof_C 	C 	0.86947	0.3191	0.88021	-0.032
Mof_H 	H 	0.9167	0.2914	0.858	0.048
Mof_C 	C 	0.95751	0.8259	0.83851	0.296
Mof_C 	C 	0.80746	0.7783	0.64902	0.381
Mof_C 	C 	0.65472	0.4325	0.98064	0.438
Mof_C 	C 	0.93076	0.2037	0.96532	0.466
Mof_O 	O 	0.99197	0.77345	0.88056	-0.361
Mof_O 	O 	0.96578	0.94392	0.831	-0.411
Mof_O 	O 	0.84228	0.8779	0.63255	-0.451
Mof_O 	O 	0.75165	0.7229	0.62034	-0.262
Mof_O 	O 	0.58388	0.44519	0.95664	-0.499
Mof_O 	O 	0.66606	0.44796	0.03424	-0.429
Mof_O 	O 	0.91986	0.17795	0.01756	-0.471
Mof_O 	O 	0.99086	0.16478	0.9343	-0.484
Mof_Yb	Yb	0.45189	0.53048	0.41566	1.837
Mof_C 	C 	0.59356	0.7498	0.29719	-0.042
Mof_C 	C 	0.61692	0.7022	0.24402	-0.001
Mof_H 	H 	0.5994	0.6206	0.233	0.039
Mof_C 	C 	0.66623	0.7744	0.2066	-0.075
Mof_C 	C 	0.69227	0.8937	0.22376	-0.074
Mof_H 	H 	0.7281	0.9413	0.1992	0.069
Mof_C 	C 	0.6666	0.944	0.27626	0.094
Mof_C 	C 	0.61707	0.8713	0.3126	-0.086
Mof_H 	H 	0.5989	0.9044	0.3484	0.085
Mof_C 	C 	0.6896	0.0781	0.29075	-0.231
Mof_H 	H 	0.6473	0.1338	0.2723	0.098
Mof_H 	H 	0.7459	0.0969	0.2734	0.1
Mof_C 	C 	0.69361	0.11	0.35407	0.063
Mof_C 	C 	0.76393	0.0732	0.3872	-0.035
Mof_H 	H 	0.8087	0.0269	0.3698	0.053
Mof_C 	C 	0.76902	0.1033	0.44519	-0.106
Mof_C 	C 	0.7036	0.1713	0.47086	0.049
Mof_H 	H 	0.706	0.1898	0.5108	0.057
Mof_C 	C 	0.63464	0.2124	0.43814	-0.114
Mof_C 	C 	0.63053	0.1809	0.38021	-0.035
Mof_H 	H 	0.5833	0.2086	0.358	0.048
Mof_C 	C 	0.54249	0.6741	0.33851	0.296
Mof_C 	C 	0.69254	0.7217	0.14902	0.381
Mof_C 	C 	0.84528	0.0675	0.48064	0.436
Mof_C 	C 	0.56924	0.2963	0.46532	0.462
Mof_O 	O 	0.50803	0.72655	0.38056	-0.362
Mof_O 	O 	0.53422	0.55608	0.331	-0.411
Mof_O 	O 	0.65772	0.6221	0.13255	-0.451
Mof_O 	O 	0.74835	0.7771	0.12034	-0.262
Mof_O 	O 	0.91612	0.05481	0.45664	-0.499
Mof_O 	O 	0.83394	0.05204	0.53424	-0.428
Mof_O 	O 	0.58014	0.32205	0.51756	-0.468
Mof_O 	O 	0.50914	0.33522	0.4343	-0.485
Mof_Yb	Yb	0.95189	0.96952	0.58434	1.837
Mof_C 	C 	0.09356	0.7502	0.70281	-0.043
Mof_C 	C 	0.11692	0.7978	0.75598	-0
Mof_H 	H 	0.0994	0.8794	0.767	0.039
Mof_C 	C 	0.16623	0.7256	0.7934	-0.076
Mof_C 	C 	0.19227	0.6063	0.77624	-0.073
Mof_H 	H 	0.2281	0.5587	0.8008	0.068
Mof_C 	C 	0.1666	0.556	0.72374	0.091
Mof_C 	C 	0.11707	0.6287	0.6874	-0.085
Mof_H 	H 	0.0989	0.5956	0.6516	0.084
Mof_C 	C 	0.1896	0.4219	0.70925	-0.229
Mof_H 	H 	0.1473	0.3662	0.7277	0.097
Mof_H 	H 	0.2459	0.4031	0.7266	0.1
Mof_C 	C 	0.19361	0.39	0.64593	0.063
Mof_C 	C 	0.26393	0.4268	0.6128	-0.035
Mof_H 	H 	0.3087	0.4731	0.6302	0.053
Mof_C 	C 	0.26902	0.3967	0.55481	-0.106
Mof_C 	C 	0.2036	0.3287	0.52914	0.049
Mof_H 	H 	0.206	0.3102	0.4892	0.057
Mof_C 	C 	0.13464	0.2876	0.56186	-0.115
Mof_C 	C 	0.13053	0.3191	0.61979	-0.034
Mof_H 	H 	0.0833	0.2914	0.642	0.048
Mof_C 	C 	0.04249	0.8259	0.66149	0.296
Mof_C 	C 	0.19254	0.7783	0.85098	0.381
Mof_C 	C 	0.34528	0.4325	0.51936	0.436
Mof_C 	C 	0.06924	0.2037	0.53468	0.462
Mof_O 	O 	0.00803	0.77345	0.61944	-0.362
Mof_O 	O 	0.03422	0.94392	0.669	-0.411
Mof_O 	O 	0.15772	0.8779	0.86745	-0.451
Mof_O 	O 	0.24835	0.7229	0.87966	-0.262
Mof_O 	O 	0.41612	0.44519	0.54336	-0.499
Mof_O 	O 	0.33394	0.44796	0.46576	-0.428
Mof_O 	O 	0.08014	0.17795	0.48244	-0.468
Mof_O 	O 	0.00914	0.16478	0.5657	-0.485
Mof_Yb	Yb	0.54811	0.53048	0.08434	1.837
Mof_C 	C 	0.40644	0.7498	0.20281	-0.041
Mof_C 	C 	0.38308	0.7022	0.25598	-0.001
Mof_H 	H 	0.4006	0.6206	0.267	0.039
Mof_C 	C 	0.33377	0.7744	0.2934	-0.075
Mof_C 	C 	0.30773	0.8937	0.27624	-0.075
Mof_H 	H 	0.2719	0.9413	0.3008	0.069
Mof_C 	C 	0.3334	0.944	0.22374	0.095
Mof_C 	C 	0.38293	0.8713	0.1874	-0.086
Mof_H 	H 	0.4011	0.9044	0.1516	0.086
Mof_C 	C 	0.3104	0.0781	0.20925	-0.233
Mof_H 	H 	0.3527	0.1338	0.2277	0.098
Mof_H 	H 	0.2541	0.0969	0.2266	0.1
Mof_C 	C 	0.30639	0.11	0.14593	0.064
Mof_C 	C 	0.23607	0.0732	0.1128	-0.037
Mof_H 	H 	0.1913	0.0269	0.1302	0.053
Mof_C 	C 	0.23098	0.1033	0.05481	-0.104
Mof_C 	C 	0.2964	0.1713	0.02914	0.045
Mof_H 	H 	0.294	0.1898	0.9892	0.059
Mof_C 	C 	0.36536	0.2124	0.06186	-0.113
Mof_C 	C 	0.36947	0.1809	0.11979	-0.036
Mof_H 	H 	0.4167	0.2086	0.142	0.049
Mof_C 	C 	0.45751	0.6741	0.16149	0.296
Mof_C 	C 	0.30746	0.7217	0.35098	0.38
Mof_C 	C 	0.15472	0.0675	0.01936	0.433
Mof_C 	C 	0.43076	0.2963	0.03468	0.461
Mof_O 	O 	0.49197	0.72655	0.11944	-0.362
Mof_O 	O 	0.46578	0.55608	0.169	-0.411
Mof_O 	O 	0.34228	0.6221	0.36745	-0.451
Mof_O 	O 	0.25165	0.7771	0.37966	-0.262
Mof_O 	O 	0.08388	0.05481	0.04336	-0.498
Mof_O 	O 	0.16606	0.05204	0.96576	-0.425
Mof_O 	O 	0.41986	0.32205	0.98244	-0.467
Mof_O 	O 	0.49086	0.33522	0.0657	-0.485
_end
