# CIF file generated by openbabel 3.1.0, see https://openbabel.org
data_I
_chemical_name_common 'image0'
_cell_length_a 27.798
_cell_length_b 16.2
_cell_length_c 19.129
_cell_angle_alpha 90
_cell_angle_beta 98.338
_cell_angle_gamma 90
_space_group_name_H-M_alt 'P 1'
_space_group_name_Hall 'P 1'
loop_
    _symmetry_equiv_pos_as_xyz
    x,y,z
loop_
    _atom_site_label
    _atom_site_type_symbol
    _atom_site_fract_x
    _atom_site_fract_y
    _atom_site_fract_z
    _atom_site_occupancy
    Cu1      Cu       0.02180    0.38099    0.07243    1.000
    O1       O        0.99275    0.27159    0.06301    1.000
    O2       O        0.99200    0.25729    0.17791    1.000
    O3       O        0.57085    0.10556    0.84456    1.000
    O4       O        0.54486    0.07305    0.94669    1.000
    O5       O        0.04752    0.49197    0.09276    1.000
    O6       O        0.01080    0.50054    0.19137    1.000
    O7       O        0.41397    0.83481    0.39006    1.000
    O8       O        0.42444    0.86220    0.27662    1.000
    O9       O        0.05411    0.47469    0.20500    1.000
    O10      O        0.96777    0.28036    0.16529    1.000
    O11      O        0.54689    0.04562    0.83701    1.000
    O12      O        0.43004    0.80173    0.28759    1.000
    N1       N        0.88216    0.03728    0.06301    1.000
    N2       N        0.71287    0.96975    0.96578    1.000
    N3       N        0.09851    0.76595    0.19028    1.000
    N4       N        0.25314    0.76833    0.25876    1.000
    C1       C        0.97527    0.24119    0.11251    1.000
    C2       C        0.94437    0.16559    0.09637    1.000
    C3       C        0.91624    0.13627    0.14512    1.000
    H1       H        0.91850    0.16000    0.18970    1.000
    C4       C        0.88503    0.07178    0.12668    1.000
    H2       H        0.86570    0.05200    0.15880    1.000
    C5       C        0.91047    0.06268    0.01581    1.000
    H3       H        0.90870    0.03630    0.97230    1.000
    C6       C        0.94189    0.12726    0.03170    1.000
    H4       H        0.96140    0.14510    0.99910    1.000
    C7       C        0.84620    0.97110    0.04347    1.000
    H5       H        0.84190    0.93940    0.08510    1.000
    H6       H        0.85800    0.93410    0.00990    1.000
    C8       C        0.79774    0.00813    0.01094    1.000
    H7       H        0.78480    0.04280    0.04520    1.000
    H8       H        0.80200    0.04180    0.97030    1.000
    C9       C        0.76283    0.93744    0.98844    1.000
    H9       H        0.77370    0.90750    0.94970    1.000
    H10      H        0.76250    0.89950    0.02760    1.000
    C10      C        0.68222    0.97585    0.01306    1.000
    H11      H        0.69240    0.95980    0.05950    1.000
    C11      C        0.63593    0.00548    0.99414    1.000
    H12      H        0.61480    0.00970    0.02750    1.000
    C12      C        0.62108    0.02903    0.92468    1.000
    C13      C        0.65326    0.02158    0.87595    1.000
    H13      H        0.64380    0.03660    0.82900    1.000
    C14      C        0.69902    0.99190    0.89785    1.000
    H14      H        0.72080    0.98690    0.86550    1.000
    C15      C        0.57061    0.06240    0.90211    1.000
    C16      C        0.04593    0.52296    0.15042    1.000
    C17      C        0.06240    0.61060    0.16310    1.000
    C18      C        0.07724    0.65763    0.10945    1.000
    H15      H        0.07490    0.63670    0.06380    1.000
    C19      C        0.09532    0.73518    0.12451    1.000
    H16      H        0.10550    0.76690    0.08890    1.000
    C20      C        0.08174    0.72326    0.24224    1.000
    H17      H        0.08230    0.74680    0.28670    1.000
    C21      C        0.06385    0.64502    0.22939    1.000
    H18      H        0.05270    0.61510    0.26530    1.000
    C22      C        0.12411    0.84594    0.20774    1.000
    H19      H        0.11970    0.86290    0.25500    1.000
    H20      H        0.11010    0.88810    0.17490    1.000
    C23      C        0.17815    0.83774    0.20362    1.000
    H21      H        0.18300    0.84100    0.15450    1.000
    H22      H        0.19520    0.88380    0.22840    1.000
    C24      C        0.20015    0.75777    0.23495    1.000
    H23      H        0.18420    0.74170    0.27470    1.000
    H24      H        0.19500    0.71430    0.19980    1.000
    C25      C        0.28377    0.77504    0.21012    1.000
    H25      H        0.27200    0.76940    0.16230    1.000
    C26      C        0.33207    0.79016    0.23156    1.000
    H26      H        0.35320    0.79480    0.19830    1.000
    C27      C        0.34934    0.79847    0.30265    1.000
    C28      C        0.31797    0.78808    0.35177    1.000
    H27      H        0.32940    0.79100    0.39990    1.000
    C29      C        0.26938    0.77321    0.32830    1.000
    H28      H        0.24780    0.76650    0.36080    1.000
    C30      C        0.40151    0.82319    0.32695    1.000
    Cu2      Cu       0.52180    0.88099    0.07243    1.000
    O13      O        0.49275    0.77159    0.06301    1.000
    O14      O        0.49200    0.75729    0.17791    1.000
    O15      O        0.07085    0.60556    0.84456    1.000
    O16      O        0.04486    0.57305    0.94669    1.000
    O17      O        0.54752    0.99197    0.09276    1.000
    O18      O        0.51080    0.00054    0.19137    1.000
    O19      O        0.91397    0.33481    0.39006    1.000
    O20      O        0.92444    0.36220    0.27662    1.000
    O21      O        0.55411    0.97469    0.20500    1.000
    O22      O        0.46777    0.78036    0.16529    1.000
    O23      O        0.04689    0.54562    0.83701    1.000
    O24      O        0.93004    0.30173    0.28759    1.000
    N5       N        0.38216    0.53728    0.06301    1.000
    N6       N        0.21287    0.46975    0.96578    1.000
    N7       N        0.59851    0.26595    0.19028    1.000
    N8       N        0.75314    0.26833    0.25876    1.000
    C31      C        0.47527    0.74119    0.11251    1.000
    C32      C        0.44437    0.66559    0.09637    1.000
    C33      C        0.41624    0.63627    0.14512    1.000
    H29      H        0.41850    0.66000    0.18970    1.000
    C34      C        0.38503    0.57178    0.12668    1.000
    H30      H        0.36570    0.55200    0.15880    1.000
    C35      C        0.41047    0.56268    0.01581    1.000
    H31      H        0.40870    0.53630    0.97230    1.000
    C36      C        0.44189    0.62726    0.03170    1.000
    H32      H        0.46140    0.64510    0.99910    1.000
    C37      C        0.34620    0.47110    0.04347    1.000
    H33      H        0.34190    0.43940    0.08510    1.000
    H34      H        0.35800    0.43410    0.00990    1.000
    C38      C        0.29774    0.50813    0.01094    1.000
    H35      H        0.28480    0.54280    0.04520    1.000
    H36      H        0.30200    0.54180    0.97030    1.000
    C39      C        0.26283    0.43744    0.98844    1.000
    H37      H        0.27370    0.40750    0.94970    1.000
    H38      H        0.26250    0.39950    0.02760    1.000
    C40      C        0.18222    0.47585    0.01306    1.000
    H39      H        0.19240    0.45980    0.05950    1.000
    C41      C        0.13593    0.50548    0.99414    1.000
    H40      H        0.11480    0.50970    0.02750    1.000
    C42      C        0.12108    0.52903    0.92468    1.000
    C43      C        0.15326    0.52158    0.87595    1.000
    H41      H        0.14380    0.53660    0.82900    1.000
    C44      C        0.19902    0.49190    0.89785    1.000
    H42      H        0.22080    0.48690    0.86550    1.000
    C45      C        0.07061    0.56240    0.90211    1.000
    C46      C        0.54593    0.02296    0.15042    1.000
    C47      C        0.56240    0.11060    0.16310    1.000
    C48      C        0.57724    0.15763    0.10945    1.000
    H43      H        0.57490    0.13670    0.06380    1.000
    C49      C        0.59532    0.23518    0.12451    1.000
    H44      H        0.60550    0.26690    0.08890    1.000
    C50      C        0.58174    0.22326    0.24224    1.000
    H45      H        0.58230    0.24680    0.28670    1.000
    C51      C        0.56385    0.14502    0.22939    1.000
    H46      H        0.55270    0.11510    0.26530    1.000
    C52      C        0.62411    0.34594    0.20774    1.000
    H47      H        0.61970    0.36290    0.25500    1.000
    H48      H        0.61010    0.38810    0.17490    1.000
    C53      C        0.67815    0.33774    0.20362    1.000
    H49      H        0.68300    0.34100    0.15450    1.000
    H50      H        0.69520    0.38380    0.22840    1.000
    C54      C        0.70015    0.25777    0.23495    1.000
    H51      H        0.68420    0.24170    0.27470    1.000
    H52      H        0.69500    0.21430    0.19980    1.000
    C55      C        0.78377    0.27504    0.21012    1.000
    H53      H        0.77200    0.26940    0.16230    1.000
    C56      C        0.83207    0.29016    0.23156    1.000
    H54      H        0.85320    0.29480    0.19830    1.000
    C57      C        0.84934    0.29847    0.30265    1.000
    C58      C        0.81797    0.28808    0.35177    1.000
    H55      H        0.82940    0.29100    0.39990    1.000
    C59      C        0.76938    0.27321    0.32830    1.000
    H56      H        0.74780    0.26650    0.36080    1.000
    C60      C        0.90151    0.32319    0.32695    1.000
    Cu3      Cu       0.97820    0.38099    0.42757    1.000
    O25      O        0.00725    0.27159    0.43699    1.000
    O26      O        0.00800    0.25729    0.32209    1.000
    O27      O        0.42915    0.10556    0.65544    1.000
    O28      O        0.45514    0.07305    0.55331    1.000
    O29      O        0.95248    0.49197    0.40724    1.000
    O30      O        0.98920    0.50054    0.30863    1.000
    O31      O        0.58603    0.83481    0.10994    1.000
    O32      O        0.57556    0.86220    0.22338    1.000
    O33      O        0.94589    0.47469    0.29500    1.000
    O34      O        0.03223    0.28036    0.33471    1.000
    O35      O        0.45311    0.04562    0.66299    1.000
    O36      O        0.56996    0.80173    0.21241    1.000
    N9       N        0.11784    0.03728    0.43699    1.000
    N10      N        0.28713    0.96975    0.53422    1.000
    N11      N        0.90149    0.76595    0.30972    1.000
    N12      N        0.74686    0.76833    0.24124    1.000
    C61      C        0.02473    0.24119    0.38749    1.000
    C62      C        0.05563    0.16559    0.40363    1.000
    C63      C        0.08376    0.13627    0.35488    1.000
    H57      H        0.08150    0.16000    0.31030    1.000
    C64      C        0.11497    0.07178    0.37332    1.000
    H58      H        0.13430    0.05200    0.34120    1.000
    C65      C        0.08953    0.06268    0.48419    1.000
    H59      H        0.09130    0.03630    0.52770    1.000
    C66      C        0.05811    0.12726    0.46830    1.000
    H60      H        0.03860    0.14510    0.50090    1.000
    C67      C        0.15380    0.97110    0.45653    1.000
    H61      H        0.15810    0.93940    0.41490    1.000
    H62      H        0.14200    0.93410    0.49010    1.000
    C68      C        0.20226    0.00813    0.48906    1.000
    H63      H        0.21520    0.04280    0.45480    1.000
    H64      H        0.19800    0.04180    0.52970    1.000
    C69      C        0.23717    0.93744    0.51156    1.000
    H65      H        0.22630    0.90750    0.55030    1.000
    H66      H        0.23750    0.89950    0.47240    1.000
    C70      C        0.31778    0.97585    0.48694    1.000
    H67      H        0.30760    0.95980    0.44050    1.000
    C71      C        0.36407    0.00548    0.50586    1.000
    H68      H        0.38520    0.00970    0.47250    1.000
    C72      C        0.37892    0.02903    0.57532    1.000
    C73      C        0.34674    0.02158    0.62405    1.000
    H69      H        0.35620    0.03660    0.67100    1.000
    C74      C        0.30098    0.99190    0.60215    1.000
    H70      H        0.27920    0.98690    0.63450    1.000
    C75      C        0.42939    0.06240    0.59789    1.000
    C76      C        0.95407    0.52296    0.34958    1.000
    C77      C        0.93760    0.61060    0.33690    1.000
    C78      C        0.92276    0.65763    0.39055    1.000
    H71      H        0.92510    0.63670    0.43620    1.000
    C79      C        0.90468    0.73518    0.37549    1.000
    H72      H        0.89450    0.76690    0.41110    1.000
    C80      C        0.91826    0.72326    0.25776    1.000
    H73      H        0.91770    0.74680    0.21330    1.000
    C81      C        0.93615    0.64502    0.27061    1.000
    H74      H        0.94730    0.61510    0.23470    1.000
    C82      C        0.87589    0.84594    0.29226    1.000
    H75      H        0.88030    0.86290    0.24500    1.000
    H76      H        0.88990    0.88810    0.32510    1.000
    C83      C        0.82185    0.83774    0.29638    1.000
    H77      H        0.81700    0.84100    0.34550    1.000
    H78      H        0.80480    0.88380    0.27160    1.000
    C84      C        0.79985    0.75777    0.26505    1.000
    H79      H        0.81580    0.74170    0.22530    1.000
    H80      H        0.80500    0.71430    0.30020    1.000
    C85      C        0.71623    0.77504    0.28988    1.000
    H81      H        0.72800    0.76940    0.33770    1.000
    C86      C        0.66793    0.79016    0.26844    1.000
    H82      H        0.64680    0.79480    0.30170    1.000
    C87      C        0.65066    0.79847    0.19735    1.000
    C88      C        0.68203    0.78808    0.14823    1.000
    H83      H        0.67060    0.79100    0.10010    1.000
    C89      C        0.73062    0.77321    0.17170    1.000
    H84      H        0.75220    0.76650    0.13920    1.000
    C90      C        0.59849    0.82319    0.17305    1.000
    Cu4      Cu       0.47820    0.88099    0.42757    1.000
    O37      O        0.50725    0.77159    0.43699    1.000
    O38      O        0.50800    0.75729    0.32209    1.000
    O39      O        0.92915    0.60556    0.65544    1.000
    O40      O        0.95514    0.57305    0.55331    1.000
    O41      O        0.45248    0.99197    0.40724    1.000
    O42      O        0.48920    0.00054    0.30863    1.000
    O43      O        0.08603    0.33481    0.10994    1.000
    O44      O        0.07556    0.36220    0.22338    1.000
    O45      O        0.44589    0.97469    0.29500    1.000
    O46      O        0.53223    0.78036    0.33471    1.000
    O47      O        0.95311    0.54562    0.66299    1.000
    O48      O        0.06996    0.30173    0.21241    1.000
    N13      N        0.61784    0.53728    0.43699    1.000
    N14      N        0.78713    0.46975    0.53422    1.000
    N15      N        0.40149    0.26595    0.30972    1.000
    N16      N        0.24686    0.26833    0.24124    1.000
    C91      C        0.52473    0.74119    0.38749    1.000
    C92      C        0.55563    0.66559    0.40363    1.000
    C93      C        0.58376    0.63627    0.35488    1.000
    H85      H        0.58150    0.66000    0.31030    1.000
    C94      C        0.61497    0.57178    0.37332    1.000
    H86      H        0.63430    0.55200    0.34120    1.000
    C95      C        0.58953    0.56268    0.48419    1.000
    H87      H        0.59130    0.53630    0.52770    1.000
    C96      C        0.55811    0.62726    0.46830    1.000
    H88      H        0.53860    0.64510    0.50090    1.000
    C97      C        0.65380    0.47110    0.45653    1.000
    H89      H        0.65810    0.43940    0.41490    1.000
    H90      H        0.64200    0.43410    0.49010    1.000
    C98      C        0.70226    0.50813    0.48906    1.000
    H91      H        0.71520    0.54280    0.45480    1.000
    H92      H        0.69800    0.54180    0.52970    1.000
    C99      C        0.73717    0.43744    0.51156    1.000
    H93      H        0.72630    0.40750    0.55030    1.000
    H94      H        0.73750    0.39950    0.47240    1.000
    C100     C        0.81778    0.47585    0.48694    1.000
    H95      H        0.80760    0.45980    0.44050    1.000
    C101     C        0.86407    0.50548    0.50586    1.000
    H96      H        0.88520    0.50970    0.47250    1.000
    C102     C        0.87892    0.52903    0.57532    1.000
    C103     C        0.84674    0.52158    0.62405    1.000
    H97      H        0.85620    0.53660    0.67100    1.000
    C104     C        0.80098    0.49190    0.60215    1.000
    H98      H        0.77920    0.48690    0.63450    1.000
    C105     C        0.92939    0.56240    0.59789    1.000
    C106     C        0.45407    0.02296    0.34958    1.000
    C107     C        0.43760    0.11060    0.33690    1.000
    C108     C        0.42276    0.15763    0.39055    1.000
    H99      H        0.42510    0.13670    0.43620    1.000
    C109     C        0.40468    0.23518    0.37549    1.000
    H100     H        0.39450    0.26690    0.41110    1.000
    C110     C        0.41826    0.22326    0.25776    1.000
    H101     H        0.41770    0.24680    0.21330    1.000
    C111     C        0.43615    0.14502    0.27061    1.000
    H102     H        0.44730    0.11510    0.23470    1.000
    C112     C        0.37589    0.34594    0.29226    1.000
    H103     H        0.38030    0.36290    0.24500    1.000
    H104     H        0.38990    0.38810    0.32510    1.000
    C113     C        0.32185    0.33774    0.29638    1.000
    H105     H        0.31700    0.34100    0.34550    1.000
    H106     H        0.30480    0.38380    0.27160    1.000
    C114     C        0.29985    0.25777    0.26505    1.000
    H107     H        0.31580    0.24170    0.22530    1.000
    H108     H        0.30500    0.21430    0.30020    1.000
    C115     C        0.21623    0.27504    0.28988    1.000
    H109     H        0.22800    0.26940    0.33770    1.000
    C116     C        0.16793    0.29016    0.26844    1.000
    H110     H        0.14680    0.29480    0.30170    1.000
    C117     C        0.15066    0.29847    0.19735    1.000
    C118     C        0.18203    0.28808    0.14823    1.000
    H111     H        0.17060    0.29100    0.10010    1.000
    C119     C        0.23062    0.27321    0.17170    1.000
    H112     H        0.25220    0.26650    0.13920    1.000
    C120     C        0.09849    0.32319    0.17305    1.000
    Cu5      Cu       0.97820    0.61901    0.92757    1.000
    O49      O        0.00725    0.72841    0.93699    1.000
    O50      O        0.00800    0.74271    0.82209    1.000
    O51      O        0.42915    0.89444    0.15544    1.000
    O52      O        0.45514    0.92695    0.05331    1.000
    O53      O        0.95248    0.50803    0.90724    1.000
    O54      O        0.98920    0.49946    0.80863    1.000
    O55      O        0.58603    0.16519    0.60994    1.000
    O56      O        0.57556    0.13780    0.72338    1.000
    O57      O        0.94589    0.52531    0.79500    1.000
    O58      O        0.03223    0.71964    0.83471    1.000
    O59      O        0.45311    0.95438    0.16299    1.000
    O60      O        0.56996    0.19827    0.71241    1.000
    N17      N        0.11784    0.96272    0.93699    1.000
    N18      N        0.28713    0.03025    0.03422    1.000
    N19      N        0.90149    0.23405    0.80972    1.000
    N20      N        0.74686    0.23167    0.74124    1.000
    C121     C        0.02473    0.75881    0.88749    1.000
    C122     C        0.05563    0.83441    0.90363    1.000
    C123     C        0.08376    0.86373    0.85488    1.000
    H113     H        0.08150    0.84000    0.81030    1.000
    C124     C        0.11497    0.92822    0.87332    1.000
    H114     H        0.13430    0.94800    0.84120    1.000
    C125     C        0.08953    0.93732    0.98419    1.000
    H115     H        0.09130    0.96370    0.02770    1.000
    C126     C        0.05811    0.87274    0.96830    1.000
    H116     H        0.03860    0.85490    0.00090    1.000
    C127     C        0.15380    0.02890    0.95653    1.000
    H117     H        0.15810    0.06060    0.91490    1.000
    H118     H        0.14200    0.06590    0.99010    1.000
    C128     C        0.20226    0.99187    0.98906    1.000
    H119     H        0.21520    0.95720    0.95480    1.000
    H120     H        0.19800    0.95820    0.02970    1.000
    C129     C        0.23717    0.06256    0.01156    1.000
    H121     H        0.22630    0.09250    0.05030    1.000
    H122     H        0.23750    0.10050    0.97240    1.000
    C130     C        0.31778    0.02415    0.98694    1.000
    H123     H        0.30760    0.04020    0.94050    1.000
    C131     C        0.36407    0.99452    0.00586    1.000
    H124     H        0.38520    0.99030    0.97250    1.000
    C132     C        0.37892    0.97097    0.07532    1.000
    C133     C        0.34674    0.97842    0.12405    1.000
    H125     H        0.35620    0.96340    0.17100    1.000
    C134     C        0.30098    0.00810    0.10215    1.000
    H126     H        0.27920    0.01310    0.13450    1.000
    C135     C        0.42939    0.93760    0.09789    1.000
    C136     C        0.95407    0.47704    0.84958    1.000
    C137     C        0.93760    0.38940    0.83690    1.000
    C138     C        0.92276    0.34237    0.89055    1.000
    H127     H        0.92510    0.36330    0.93620    1.000
    C139     C        0.90468    0.26482    0.87549    1.000
    H128     H        0.89450    0.23310    0.91110    1.000
    C140     C        0.91826    0.27674    0.75776    1.000
    H129     H        0.91770    0.25320    0.71330    1.000
    C141     C        0.93615    0.35498    0.77061    1.000
    H130     H        0.94730    0.38490    0.73470    1.000
    C142     C        0.87589    0.15406    0.79226    1.000
    H131     H        0.88030    0.13710    0.74500    1.000
    H132     H        0.88990    0.11190    0.82510    1.000
    C143     C        0.82185    0.16226    0.79638    1.000
    H133     H        0.81700    0.15900    0.84550    1.000
    H134     H        0.80480    0.11620    0.77160    1.000
    C144     C        0.79985    0.24223    0.76505    1.000
    H135     H        0.81580    0.25830    0.72530    1.000
    H136     H        0.80500    0.28570    0.80020    1.000
    C145     C        0.71623    0.22496    0.78988    1.000
    H137     H        0.72800    0.23060    0.83770    1.000
    C146     C        0.66793    0.20984    0.76844    1.000
    H138     H        0.64680    0.20520    0.80170    1.000
    C147     C        0.65066    0.20153    0.69735    1.000
    C148     C        0.68203    0.21192    0.64823    1.000
    H139     H        0.67060    0.20900    0.60010    1.000
    C149     C        0.73062    0.22679    0.67170    1.000
    H140     H        0.75220    0.23350    0.63920    1.000
    C150     C        0.59849    0.17681    0.67305    1.000
    Cu6      Cu       0.47820    0.11901    0.92757    1.000
    O61      O        0.50725    0.22841    0.93699    1.000
    O62      O        0.50800    0.24271    0.82209    1.000
    O63      O        0.92915    0.39444    0.15544    1.000
    O64      O        0.95514    0.42695    0.05331    1.000
    O65      O        0.45248    0.00803    0.90724    1.000
    O66      O        0.48920    0.99946    0.80863    1.000
    O67      O        0.08603    0.66519    0.60994    1.000
    O68      O        0.07556    0.63780    0.72338    1.000
    O69      O        0.44589    0.02531    0.79500    1.000
    O70      O        0.53223    0.21964    0.83471    1.000
    O71      O        0.95311    0.45438    0.16299    1.000
    O72      O        0.06996    0.69827    0.71241    1.000
    N21      N        0.61784    0.46272    0.93699    1.000
    N22      N        0.78713    0.53025    0.03422    1.000
    N23      N        0.40149    0.73405    0.80972    1.000
    N24      N        0.24686    0.73167    0.74124    1.000
    C151     C        0.52473    0.25881    0.88749    1.000
    C152     C        0.55563    0.33441    0.90363    1.000
    C153     C        0.58376    0.36373    0.85488    1.000
    H141     H        0.58150    0.34000    0.81030    1.000
    C154     C        0.61497    0.42822    0.87332    1.000
    H142     H        0.63430    0.44800    0.84120    1.000
    C155     C        0.58953    0.43732    0.98419    1.000
    H143     H        0.59130    0.46370    0.02770    1.000
    C156     C        0.55811    0.37274    0.96830    1.000
    H144     H        0.53860    0.35490    0.00090    1.000
    C157     C        0.65380    0.52890    0.95653    1.000
    H145     H        0.65810    0.56060    0.91490    1.000
    H146     H        0.64200    0.56590    0.99010    1.000
    C158     C        0.70226    0.49187    0.98906    1.000
    H147     H        0.71520    0.45720    0.95480    1.000
    H148     H        0.69800    0.45820    0.02970    1.000
    C159     C        0.73717    0.56256    0.01156    1.000
    H149     H        0.72630    0.59250    0.05030    1.000
    H150     H        0.73750    0.60050    0.97240    1.000
    C160     C        0.81778    0.52415    0.98694    1.000
    H151     H        0.80760    0.54020    0.94050    1.000
    C161     C        0.86407    0.49452    0.00586    1.000
    H152     H        0.88520    0.49030    0.97250    1.000
    C162     C        0.87892    0.47097    0.07532    1.000
    C163     C        0.84674    0.47842    0.12405    1.000
    H153     H        0.85620    0.46340    0.17100    1.000
    C164     C        0.80098    0.50810    0.10215    1.000
    H154     H        0.77920    0.51310    0.13450    1.000
    C165     C        0.92939    0.43760    0.09789    1.000
    C166     C        0.45407    0.97704    0.84958    1.000
    C167     C        0.43760    0.88940    0.83690    1.000
    C168     C        0.42276    0.84237    0.89055    1.000
    H155     H        0.42510    0.86330    0.93620    1.000
    C169     C        0.40468    0.76482    0.87549    1.000
    H156     H        0.39450    0.73310    0.91110    1.000
    C170     C        0.41826    0.77674    0.75776    1.000
    H157     H        0.41770    0.75320    0.71330    1.000
    C171     C        0.43615    0.85498    0.77061    1.000
    H158     H        0.44730    0.88490    0.73470    1.000
    C172     C        0.37589    0.65406    0.79226    1.000
    H159     H        0.38030    0.63710    0.74500    1.000
    H160     H        0.38990    0.61190    0.82510    1.000
    C173     C        0.32185    0.66226    0.79638    1.000
    H161     H        0.31700    0.65900    0.84550    1.000
    H162     H        0.30480    0.61620    0.77160    1.000
    C174     C        0.29985    0.74223    0.76505    1.000
    H163     H        0.31580    0.75830    0.72530    1.000
    H164     H        0.30500    0.78570    0.80020    1.000
    C175     C        0.21623    0.72496    0.78988    1.000
    H165     H        0.22800    0.73060    0.83770    1.000
    C176     C        0.16793    0.70984    0.76844    1.000
    H166     H        0.14680    0.70520    0.80170    1.000
    C177     C        0.15066    0.70153    0.69735    1.000
    C178     C        0.18203    0.71192    0.64823    1.000
    H167     H        0.17060    0.70900    0.60010    1.000
    C179     C        0.23062    0.72679    0.67170    1.000
    H168     H        0.25220    0.73350    0.63920    1.000
    C180     C        0.09849    0.67681    0.67305    1.000
    Cu7      Cu       0.02180    0.61901    0.57243    1.000
    O73      O        0.99275    0.72841    0.56301    1.000
    O74      O        0.99200    0.74271    0.67791    1.000
    O75      O        0.57085    0.89444    0.34456    1.000
    O76      O        0.54486    0.92695    0.44669    1.000
    O77      O        0.04752    0.50803    0.59276    1.000
    O78      O        0.01080    0.49946    0.69137    1.000
    O79      O        0.41397    0.16519    0.89006    1.000
    O80      O        0.42444    0.13780    0.77662    1.000
    O81      O        0.05411    0.52531    0.70500    1.000
    O82      O        0.96777    0.71964    0.66529    1.000
    O83      O        0.54689    0.95438    0.33701    1.000
    O84      O        0.43004    0.19827    0.78759    1.000
    N25      N        0.88216    0.96272    0.56301    1.000
    N26      N        0.71287    0.03025    0.46578    1.000
    N27      N        0.09851    0.23405    0.69028    1.000
    N28      N        0.25314    0.23167    0.75876    1.000
    C181     C        0.97527    0.75881    0.61251    1.000
    C182     C        0.94437    0.83441    0.59637    1.000
    C183     C        0.91624    0.86373    0.64512    1.000
    H169     H        0.91850    0.84000    0.68970    1.000
    C184     C        0.88503    0.92822    0.62668    1.000
    H170     H        0.86570    0.94800    0.65880    1.000
    C185     C        0.91047    0.93732    0.51581    1.000
    H171     H        0.90870    0.96370    0.47230    1.000
    C186     C        0.94189    0.87274    0.53170    1.000
    H172     H        0.96140    0.85490    0.49910    1.000
    C187     C        0.84620    0.02890    0.54347    1.000
    H173     H        0.84190    0.06060    0.58510    1.000
    H174     H        0.85800    0.06590    0.50990    1.000
    C188     C        0.79774    0.99187    0.51094    1.000
    H175     H        0.78480    0.95720    0.54520    1.000
    H176     H        0.80200    0.95820    0.47030    1.000
    C189     C        0.76283    0.06256    0.48844    1.000
    H177     H        0.77370    0.09250    0.44970    1.000
    H178     H        0.76250    0.10050    0.52760    1.000
    C190     C        0.68222    0.02415    0.51306    1.000
    H179     H        0.69240    0.04020    0.55950    1.000
    C191     C        0.63593    0.99452    0.49414    1.000
    H180     H        0.61480    0.99030    0.52750    1.000
    C192     C        0.62108    0.97097    0.42468    1.000
    C193     C        0.65326    0.97842    0.37595    1.000
    H181     H        0.64380    0.96340    0.32900    1.000
    C194     C        0.69902    0.00810    0.39785    1.000
    H182     H        0.72080    0.01310    0.36550    1.000
    C195     C        0.57061    0.93760    0.40211    1.000
    C196     C        0.04593    0.47704    0.65042    1.000
    C197     C        0.06240    0.38940    0.66310    1.000
    C198     C        0.07724    0.34237    0.60945    1.000
    H183     H        0.07490    0.36330    0.56380    1.000
    C199     C        0.09532    0.26482    0.62451    1.000
    H184     H        0.10550    0.23310    0.58890    1.000
    C200     C        0.08174    0.27674    0.74224    1.000
    H185     H        0.08230    0.25320    0.78670    1.000
    C201     C        0.06385    0.35498    0.72939    1.000
    H186     H        0.05270    0.38490    0.76530    1.000
    C202     C        0.12411    0.15406    0.70774    1.000
    H187     H        0.11970    0.13710    0.75500    1.000
    H188     H        0.11010    0.11190    0.67490    1.000
    C203     C        0.17815    0.16226    0.70362    1.000
    H189     H        0.18300    0.15900    0.65450    1.000
    H190     H        0.19520    0.11620    0.72840    1.000
    C204     C        0.20015    0.24223    0.73495    1.000
    H191     H        0.18420    0.25830    0.77470    1.000
    H192     H        0.19500    0.28570    0.69980    1.000
    C205     C        0.28377    0.22496    0.71012    1.000
    H193     H        0.27200    0.23060    0.66230    1.000
    C206     C        0.33207    0.20984    0.73156    1.000
    H194     H        0.35320    0.20520    0.69830    1.000
    C207     C        0.34934    0.20153    0.80265    1.000
    C208     C        0.31797    0.21192    0.85177    1.000
    H195     H        0.32940    0.20900    0.89990    1.000
    C209     C        0.26938    0.22679    0.82830    1.000
    H196     H        0.24780    0.23350    0.86080    1.000
    C210     C        0.40151    0.17681    0.82695    1.000
    Cu8      Cu       0.52180    0.11901    0.57243    1.000
    O85      O        0.49275    0.22841    0.56301    1.000
    O86      O        0.49200    0.24271    0.67791    1.000
    O87      O        0.07085    0.39444    0.34456    1.000
    O88      O        0.04486    0.42695    0.44669    1.000
    O89      O        0.54752    0.00803    0.59276    1.000
    O90      O        0.51080    0.99946    0.69137    1.000
    O91      O        0.91397    0.66519    0.89006    1.000
    O92      O        0.92444    0.63780    0.77662    1.000
    O93      O        0.55411    0.02531    0.70500    1.000
    O94      O        0.46777    0.21964    0.66529    1.000
    O95      O        0.04689    0.45438    0.33701    1.000
    O96      O        0.93004    0.69827    0.78759    1.000
    N29      N        0.38216    0.46272    0.56301    1.000
    N30      N        0.21287    0.53025    0.46578    1.000
    N31      N        0.59851    0.73405    0.69028    1.000
    N32      N        0.75314    0.73167    0.75876    1.000
    C211     C        0.47527    0.25881    0.61251    1.000
    C212     C        0.44437    0.33441    0.59637    1.000
    C213     C        0.41624    0.36373    0.64512    1.000
    H197     H        0.41850    0.34000    0.68970    1.000
    C214     C        0.38503    0.42822    0.62668    1.000
    H198     H        0.36570    0.44800    0.65880    1.000
    C215     C        0.41047    0.43732    0.51581    1.000
    H199     H        0.40870    0.46370    0.47230    1.000
    C216     C        0.44189    0.37274    0.53170    1.000
    H200     H        0.46140    0.35490    0.49910    1.000
    C217     C        0.34620    0.52890    0.54347    1.000
    H201     H        0.34190    0.56060    0.58510    1.000
    H202     H        0.35800    0.56590    0.50990    1.000
    C218     C        0.29774    0.49187    0.51094    1.000
    H203     H        0.28480    0.45720    0.54520    1.000
    H204     H        0.30200    0.45820    0.47030    1.000
    C219     C        0.26283    0.56256    0.48844    1.000
    H205     H        0.27370    0.59250    0.44970    1.000
    H206     H        0.26250    0.60050    0.52760    1.000
    C220     C        0.18222    0.52415    0.51306    1.000
    H207     H        0.19240    0.54020    0.55950    1.000
    C221     C        0.13593    0.49452    0.49414    1.000
    H208     H        0.11480    0.49030    0.52750    1.000
    C222     C        0.12108    0.47097    0.42468    1.000
    C223     C        0.15326    0.47842    0.37595    1.000
    H209     H        0.14380    0.46340    0.32900    1.000
    C224     C        0.19902    0.50810    0.39785    1.000
    H210     H        0.22080    0.51310    0.36550    1.000
    C225     C        0.07061    0.43760    0.40211    1.000
    C226     C        0.54593    0.97704    0.65042    1.000
    C227     C        0.56240    0.88940    0.66310    1.000
    C228     C        0.57724    0.84237    0.60945    1.000
    H211     H        0.57490    0.86330    0.56380    1.000
    C229     C        0.59532    0.76482    0.62451    1.000
    H212     H        0.60550    0.73310    0.58890    1.000
    C230     C        0.58174    0.77674    0.74224    1.000
    H213     H        0.58230    0.75320    0.78670    1.000
    C231     C        0.56385    0.85498    0.72939    1.000
    H214     H        0.55270    0.88490    0.76530    1.000
    C232     C        0.62411    0.65406    0.70774    1.000
    H215     H        0.61970    0.63710    0.75500    1.000
    H216     H        0.61010    0.61190    0.67490    1.000
    C233     C        0.67815    0.66226    0.70362    1.000
    H217     H        0.68300    0.65900    0.65450    1.000
    H218     H        0.69520    0.61620    0.72840    1.000
    C234     C        0.70015    0.74223    0.73495    1.000
    H219     H        0.68420    0.75830    0.77470    1.000
    H220     H        0.69500    0.78570    0.69980    1.000
    C235     C        0.78377    0.72496    0.71012    1.000
    H221     H        0.77200    0.73060    0.66230    1.000
    C236     C        0.83207    0.70984    0.73156    1.000
    H222     H        0.85320    0.70520    0.69830    1.000
    C237     C        0.84934    0.70153    0.80265    1.000
    C238     C        0.81797    0.71192    0.85177    1.000
    H223     H        0.82940    0.70900    0.89990    1.000
    C239     C        0.76938    0.72679    0.82830    1.000
    H224     H        0.74780    0.73350    0.86080    1.000
    C240     C        0.90151    0.67681    0.82695    1.000
    Gd1      Gd       0.00000    0.37599    0.25000    1.000
    Gd2      Gd       0.50000    0.87599    0.25000    1.000
    Gd3      Gd       0.00000    0.62401    0.75000    1.000
    Gd4      Gd       0.50000    0.12401    0.75000    1.000
