data_functionalizedCrystal
_audit_creation_method	'EQeq! by Chris Wilmer'
_symmetry_space_group_name_H-M	'P1'
_symmetry_Int_Tables_number	1
_symmetry_cell_setting	triclinic
loop_
_symmetry_equiv_pos_as_xyz
  x,y,z
_cell_length_a	12.9554
_cell_length_b	13.9387
_cell_length_c	14.6905
_cell_angle_alpha	95.8925
_cell_angle_beta	90
_cell_angle_gamma	117.693
loop_
_atom_site_label
_atom_site_type_symbol
_atom_site_fract_x
_atom_site_fract_y
_atom_site_fract_z
_atom_site_charge
Mof_Eu	Eu	0.46713	0.34528	0.96779	2.25
Mof_Eu	Eu	0.12185	0.65472	0.53221	2.252
Mof_Eu	Eu	0.53287	0.65472	0.03221	2.25
Mof_Eu	Eu	0.87815	0.34528	0.46779	2.252
Mof_H 	H 	0.1353	0.2876	0.4325	0.058
Mof_H 	H 	0.3183	0.5434	0.2912	0.049
Mof_H 	H 	0.3314	0.2622	0.2295	0.105
Mof_H 	H 	0.0409	0.0928	0.3865	-0.006
Mof_H 	H 	0.0088	0.9274	0.433	0.103
Mof_H 	H 	0.3366	0.9998	0.3905	0.198
Mof_H 	H 	0.492	0.226	0.863	0.031
Mof_H 	H 	0.532	0.248	0.919	0.121
Mof_H 	H 	0.8477	0.7124	0.0675	0.056
Mof_H 	H 	0.7749	0.4566	0.2088	0.048
Mof_H 	H 	0.0692	0.7378	0.2705	0.103
Mof_H 	H 	0.9481	0.9072	0.1135	-0.009
Mof_H 	H 	0.0814	0.0726	0.067	0.105
Mof_H 	H 	0.3368	0.0002	0.1095	0.205
Mof_H 	H 	0.266	0.774	0.637	0.031
Mof_H 	H 	0.284	0.752	0.581	0.121
Mof_H 	H 	0.8647	0.7124	0.5675	0.057
Mof_H 	H 	0.6817	0.4566	0.7088	0.048
Mof_H 	H 	0.6686	0.7378	0.7705	0.105
Mof_H 	H 	0.9591	0.9072	0.6135	-0.006
Mof_H 	H 	0.9912	0.0726	0.567	0.103
Mof_H 	H 	0.6634	0.0002	0.6095	0.198
Mof_H 	H 	0.508	0.774	0.137	0.031
Mof_H 	H 	0.468	0.752	0.081	0.121
Mof_H 	H 	0.1523	0.2876	0.9325	0.056
Mof_H 	H 	0.2251	0.5434	0.7912	0.048
Mof_H 	H 	0.9308	0.2622	0.7295	0.103
Mof_H 	H 	0.0519	0.0928	0.8865	-0.009
Mof_H 	H 	0.9186	0.9274	0.933	0.105
Mof_H 	H 	0.6632	0.9998	0.8905	0.205
Mof_H 	H 	0.734	0.226	0.363	0.031
Mof_H 	H 	0.716	0.248	0.419	0.121
Mof_C 	C 	0.2087	0.1476	0.3605	-0.204
Mof_C 	C 	0.2334	0.2584	0.3373	0.11
Mof_C 	C 	0.1877	0.3186	0.3878	-0.065
Mof_C 	C 	0.2214	0.4272	0.371	-0.107
Mof_C 	C 	0.294	0.4714	0.3011	0.043
Mof_C 	C 	0.3304	0.4068	0.2457	-0.104
Mof_C 	C 	0.3029	0.3028	0.2651	-0.049
Mof_C 	C 	0.18	0.496	0.4292	0.441
Mof_C 	C 	0.4073	0.4516	0.1662	0.49
Mof_C 	C 	0.1021	0.0756	0.3874	0.105
Mof_C 	C 	0.0828	0.9758	0.4165	-0.176
Mof_C 	C 	0.1704	0.9498	0.4207	0.107
Mof_C 	C 	0.2759	0.0178	0.3907	-0.3
Mof_C 	C 	0.2921	0.1144	0.3604	0.453
Mof_C 	C 	0.1517	0.849	0.4616	0.276
Mof_C 	C 	0.0611	0.8524	0.1395	-0.204
Mof_C 	C 	0.975	0.7416	0.1627	0.106
Mof_C 	C 	0.8691	0.6814	0.1122	-0.062
Mof_C 	C 	0.7942	0.5728	0.129	-0.109
Mof_C 	C 	0.8226	0.5286	0.1989	0.045
Mof_C 	C 	0.9236	0.5932	0.2543	-0.107
Mof_C 	C 	0.0001	0.6972	0.2349	-0.043
Mof_C 	C 	0.684	0.504	0.0708	0.442
Mof_C 	C 	0.9557	0.5484	0.3338	0.491
Mof_C 	C 	0.0265	0.9244	0.1126	0.108
Mof_C 	C 	0.107	0.0242	0.0835	-0.178
Mof_C 	C 	0.2206	0.0502	0.0793	0.116
Mof_C 	C 	0.2581	0.9822	0.1093	-0.314
Mof_C 	C 	0.1777	0.8856	0.1396	0.458
Mof_C 	C 	0.3027	0.151	0.0384	0.273
Mof_C 	C 	0.7913	0.8524	0.6395	-0.204
Mof_C 	C 	0.7666	0.7416	0.6627	0.11
Mof_C 	C 	0.8123	0.6814	0.6122	-0.065
Mof_C 	C 	0.7786	0.5728	0.629	-0.107
Mof_C 	C 	0.706	0.5286	0.6989	0.043
Mof_C 	C 	0.6696	0.5932	0.7543	-0.104
Mof_C 	C 	0.6971	0.6972	0.7349	-0.049
Mof_C 	C 	0.82	0.504	0.5708	0.441
Mof_C 	C 	0.5927	0.5484	0.8338	0.49
Mof_C 	C 	0.8979	0.9244	0.6126	0.105
Mof_C 	C 	0.9172	0.0242	0.5835	-0.176
Mof_C 	C 	0.8296	0.0502	0.5793	0.107
Mof_C 	C 	0.7241	0.9822	0.6093	-0.3
Mof_C 	C 	0.7079	0.8856	0.6396	0.453
Mof_C 	C 	0.8483	0.151	0.5384	0.276
Mof_C 	C 	0.9389	0.1476	0.8605	-0.204
Mof_C 	C 	0.025	0.2584	0.8373	0.106
Mof_C 	C 	0.1309	0.3186	0.8878	-0.062
Mof_C 	C 	0.2058	0.4272	0.871	-0.109
Mof_C 	C 	0.1774	0.4714	0.8011	0.045
Mof_C 	C 	0.0764	0.4068	0.7457	-0.107
Mof_C 	C 	0.9999	0.3028	0.7651	-0.043
Mof_C 	C 	0.316	0.496	0.9292	0.442
Mof_C 	C 	0.0443	0.4516	0.6662	0.491
Mof_C 	C 	0.9735	0.0756	0.8874	0.108
Mof_C 	C 	0.893	0.9758	0.9165	-0.178
Mof_C 	C 	0.7794	0.9498	0.9207	0.116
Mof_C 	C 	0.7419	0.0178	0.8907	-0.314
Mof_C 	C 	0.8223	0.1144	0.8604	0.458
Mof_C 	C 	0.6973	0.849	0.9616	0.273
Mof_O 	O 	0.2473	0.5962	0.4442	-0.453
Mof_O 	O 	0.4378	0.3894	0.1221	-0.531
Mof_O 	O 	0.0583	0.7922	0.4939	-0.436
Mof_O 	O 	0.2342	0.8248	0.4634	-0.411
Mof_O 	O 	0.0816	0.4514	0.4625	-0.646
Mof_O 	O 	0.4295	0.5458	0.1498	-0.539
Mof_O 	O 	0.5673	0.2526	0.8888	-0.45
Mof_O 	O 	0.6511	0.4038	0.0558	-0.452
Mof_O 	O 	0.0484	0.6106	0.3779	-0.531
Mof_O 	O 	0.2661	0.2078	0.0061	-0.433
Mof_O 	O 	0.4094	0.1752	0.0366	-0.409
Mof_O 	O 	0.6302	0.5486	0.0375	-0.646
Mof_O 	O 	0.8837	0.4542	0.3502	-0.54
Mof_O 	O 	0.3147	0.7474	0.6112	-0.45
Mof_O 	O 	0.7527	0.4038	0.5558	-0.453
Mof_O 	O 	0.5622	0.6106	0.8779	-0.531
Mof_O 	O 	0.9417	0.2078	0.5061	-0.436
Mof_O 	O 	0.7658	0.1752	0.5366	-0.411
Mof_O 	O 	0.9184	0.5486	0.5375	-0.646
Mof_O 	O 	0.5705	0.4542	0.8502	-0.539
Mof_O 	O 	0.4327	0.7474	0.1112	-0.45
Mof_O 	O 	0.3489	0.5962	0.9442	-0.452
Mof_O 	O 	0.9516	0.3894	0.6221	-0.531
Mof_O 	O 	0.7339	0.7922	0.9939	-0.433
Mof_O 	O 	0.5906	0.8248	0.9634	-0.409
Mof_O 	O 	0.3698	0.4514	0.9625	-0.646
Mof_O 	O 	0.1163	0.5458	0.6498	-0.54
Mof_O 	O 	0.6853	0.2526	0.3888	-0.45
Mof_F 	F 	0.3955	0.1746	0.3269	-0.467
Mof_F 	F 	0.2209	0.8254	0.1731	-0.468
Mof_F 	F 	0.6045	0.8254	0.6731	-0.467
Mof_F 	F 	0.7791	0.1746	0.8269	-0.468
_end
