data_functionalizedCrystal
_audit_creation_method	'EQeq! by Chris Wilmer'
_symmetry_space_group_name_H-M	'P1'
_symmetry_Int_Tables_number	1
_symmetry_cell_setting	triclinic
loop_
_symmetry_equiv_pos_as_xyz
  x,y,z
_cell_length_a	17.5632
_cell_length_b	17.5632
_cell_length_c	17.5632
_cell_angle_alpha	90
_cell_angle_beta	90
_cell_angle_gamma	90
loop_
_atom_site_label
_atom_site_type_symbol
_atom_site_fract_x
_atom_site_fract_y
_atom_site_fract_z
_atom_site_charge
Mof_H 	H 	0.4778	0.463	0.7335	-0.886
Mof_H 	H 	0.1441	0.4597	0.491	0.143
Mof_H 	H 	0.1803	0.5269	0.4568	0.202
Mof_H 	H 	0.4629	0.5978	0.7922	-0.097
Mof_H 	H 	0.433	0.6448	0.6755	0.145
Mof_H 	H 	0.3186	0.5886	0.7128	0.105
Mof_H 	H 	0.3246	0.5015	0.6921	-0.204
Mof_H 	H 	0.3198	0.636	0.5816	-0.87
Mof_H 	H 	0.2571	0.5756	0.5979	-0.133
Mof_H 	H 	0.3596	0.5062	0.5636	-0.165
Mof_H 	H 	0.3225	0.5484	0.4953	0.606
Mof_H 	H 	0.2687	0.4344	0.4894	0.074
Mof_H 	H 	0.2399	0.4374	0.5731	-0.329
Mof_H 	H 	0.5222	0.537	0.7335	-0.887
Mof_H 	H 	0.8559	0.5403	0.491	0.141
Mof_H 	H 	0.8197	0.4731	0.4568	0.203
Mof_H 	H 	0.5371	0.4022	0.7922	-0.097
Mof_H 	H 	0.567	0.3552	0.6755	0.138
Mof_H 	H 	0.6814	0.4114	0.7128	0.103
Mof_H 	H 	0.6754	0.4985	0.6921	-0.198
Mof_H 	H 	0.6802	0.364	0.5816	-0.869
Mof_H 	H 	0.7429	0.4244	0.5979	-0.138
Mof_H 	H 	0.6404	0.4938	0.5636	-0.165
Mof_H 	H 	0.6775	0.4516	0.4953	0.599
Mof_H 	H 	0.7313	0.5656	0.4894	0.065
Mof_H 	H 	0.7601	0.5626	0.5731	-0.33
Mof_H 	H 	0.5222	0.463	0.2665	-0.891
Mof_H 	H 	0.8559	0.4597	0.509	0.141
Mof_H 	H 	0.8197	0.5269	0.5432	0.203
Mof_H 	H 	0.5371	0.5978	0.2078	-0.094
Mof_H 	H 	0.567	0.6448	0.3245	0.139
Mof_H 	H 	0.6814	0.5886	0.2872	0.102
Mof_H 	H 	0.6754	0.5015	0.3079	-0.18
Mof_H 	H 	0.6802	0.636	0.4184	-0.886
Mof_H 	H 	0.7429	0.5756	0.4021	-0.14
Mof_H 	H 	0.6404	0.5062	0.4364	-0.164
Mof_H 	H 	0.6775	0.5484	0.5047	0.598
Mof_H 	H 	0.7313	0.4344	0.5106	0.066
Mof_H 	H 	0.7601	0.4374	0.4269	-0.327
Mof_H 	H 	0.4778	0.537	0.2665	-0.892
Mof_H 	H 	0.1441	0.5403	0.509	0.143
Mof_H 	H 	0.1803	0.4731	0.5432	0.202
Mof_H 	H 	0.4629	0.4022	0.2078	-0.094
Mof_H 	H 	0.433	0.3552	0.3245	0.138
Mof_H 	H 	0.3186	0.4114	0.2872	0.102
Mof_H 	H 	0.3246	0.4985	0.3079	-0.191
Mof_H 	H 	0.3198	0.364	0.4184	-0.864
Mof_H 	H 	0.2571	0.4244	0.4021	-0.133
Mof_H 	H 	0.3596	0.4938	0.4364	-0.166
Mof_H 	H 	0.3225	0.4516	0.5047	0.605
Mof_H 	H 	0.2687	0.5656	0.5106	0.074
Mof_H 	H 	0.2399	0.5626	0.4269	-0.33
Mof_H 	H 	0.7335	0.4778	0.463	-0.887
Mof_H 	H 	0.491	0.1441	0.4597	0.142
Mof_H 	H 	0.4568	0.1803	0.5269	0.201
Mof_H 	H 	0.7922	0.4629	0.5978	-0.098
Mof_H 	H 	0.6755	0.433	0.6448	0.144
Mof_H 	H 	0.7128	0.3186	0.5886	0.104
Mof_H 	H 	0.6921	0.3246	0.5015	-0.205
Mof_H 	H 	0.5816	0.3198	0.636	-0.871
Mof_H 	H 	0.5979	0.2571	0.5756	-0.134
Mof_H 	H 	0.5636	0.3596	0.5062	-0.166
Mof_H 	H 	0.4953	0.3225	0.5484	0.605
Mof_H 	H 	0.4894	0.2687	0.4344	0.074
Mof_H 	H 	0.5731	0.2399	0.4374	-0.329
Mof_H 	H 	0.7335	0.5222	0.537	-0.887
Mof_H 	H 	0.491	0.8559	0.5403	0.141
Mof_H 	H 	0.4568	0.8197	0.4731	0.203
Mof_H 	H 	0.7922	0.5371	0.4022	-0.097
Mof_H 	H 	0.6755	0.567	0.3552	0.138
Mof_H 	H 	0.7128	0.6814	0.4114	0.103
Mof_H 	H 	0.6921	0.6754	0.4985	-0.198
Mof_H 	H 	0.5816	0.6802	0.364	-0.869
Mof_H 	H 	0.5979	0.7429	0.4244	-0.138
Mof_H 	H 	0.5636	0.6404	0.4938	-0.165
Mof_H 	H 	0.4953	0.6775	0.4516	0.599
Mof_H 	H 	0.4894	0.7313	0.5656	0.065
Mof_H 	H 	0.5731	0.7601	0.5626	-0.33
Mof_H 	H 	0.2665	0.5222	0.463	-0.891
Mof_H 	H 	0.509	0.8559	0.4597	0.141
Mof_H 	H 	0.5432	0.8197	0.5269	0.203
Mof_H 	H 	0.2078	0.5371	0.5978	-0.094
Mof_H 	H 	0.3245	0.567	0.6448	0.139
Mof_H 	H 	0.2872	0.6814	0.5886	0.102
Mof_H 	H 	0.3079	0.6754	0.5015	-0.18
Mof_H 	H 	0.4184	0.6802	0.636	-0.886
Mof_H 	H 	0.4021	0.7429	0.5756	-0.14
Mof_H 	H 	0.4364	0.6404	0.5062	-0.164
Mof_H 	H 	0.5047	0.6775	0.5484	0.598
Mof_H 	H 	0.5106	0.7313	0.4344	0.066
Mof_H 	H 	0.4269	0.7601	0.4374	-0.327
Mof_H 	H 	0.2665	0.4778	0.537	-0.892
Mof_H 	H 	0.509	0.1441	0.5403	0.143
Mof_H 	H 	0.5432	0.1803	0.4731	0.202
Mof_H 	H 	0.2078	0.4629	0.4022	-0.094
Mof_H 	H 	0.3245	0.433	0.3552	0.138
Mof_H 	H 	0.2872	0.3186	0.4114	0.102
Mof_H 	H 	0.3079	0.3246	0.4985	-0.191
Mof_H 	H 	0.4184	0.3198	0.364	-0.864
Mof_H 	H 	0.4021	0.2571	0.4244	-0.133
Mof_H 	H 	0.4364	0.3596	0.4938	-0.166
Mof_H 	H 	0.5047	0.3225	0.4516	0.605
Mof_H 	H 	0.5106	0.2687	0.5656	0.074
Mof_H 	H 	0.4269	0.2399	0.5626	-0.33
Mof_H 	H 	0.463	0.7335	0.4778	-0.887
Mof_H 	H 	0.4597	0.491	0.1441	0.142
Mof_H 	H 	0.5269	0.4568	0.1803	0.201
Mof_H 	H 	0.5978	0.7922	0.4629	-0.098
Mof_H 	H 	0.6448	0.6755	0.433	0.144
Mof_H 	H 	0.5886	0.7128	0.3186	0.104
Mof_H 	H 	0.5015	0.6921	0.3246	-0.205
Mof_H 	H 	0.636	0.5816	0.3198	-0.871
Mof_H 	H 	0.5756	0.5979	0.2571	-0.134
Mof_H 	H 	0.5062	0.5636	0.3596	-0.166
Mof_H 	H 	0.5484	0.4953	0.3225	0.605
Mof_H 	H 	0.4344	0.4894	0.2687	0.074
Mof_H 	H 	0.4374	0.5731	0.2399	-0.329
Mof_H 	H 	0.537	0.7335	0.5222	-0.887
Mof_H 	H 	0.5403	0.491	0.8559	0.141
Mof_H 	H 	0.4731	0.4568	0.8197	0.203
Mof_H 	H 	0.4022	0.7922	0.5371	-0.097
Mof_H 	H 	0.3552	0.6755	0.567	0.138
Mof_H 	H 	0.4114	0.7128	0.6814	0.103
Mof_H 	H 	0.4985	0.6921	0.6754	-0.198
Mof_H 	H 	0.364	0.5816	0.6802	-0.869
Mof_H 	H 	0.4244	0.5979	0.7429	-0.138
Mof_H 	H 	0.4938	0.5636	0.6404	-0.165
Mof_H 	H 	0.4516	0.4953	0.6775	0.599
Mof_H 	H 	0.5656	0.4894	0.7313	0.065
Mof_H 	H 	0.5626	0.5731	0.7601	-0.33
Mof_H 	H 	0.463	0.2665	0.5222	-0.891
Mof_H 	H 	0.4597	0.509	0.8559	0.141
Mof_H 	H 	0.5269	0.5432	0.8197	0.203
Mof_H 	H 	0.5978	0.2078	0.5371	-0.094
Mof_H 	H 	0.6448	0.3245	0.567	0.139
Mof_H 	H 	0.5886	0.2872	0.6814	0.102
Mof_H 	H 	0.5015	0.3079	0.6754	-0.18
Mof_H 	H 	0.636	0.4184	0.6802	-0.886
Mof_H 	H 	0.5756	0.4021	0.7429	-0.14
Mof_H 	H 	0.5062	0.4364	0.6404	-0.164
Mof_H 	H 	0.5484	0.5047	0.6775	0.598
Mof_H 	H 	0.4344	0.5106	0.7313	0.066
Mof_H 	H 	0.4374	0.4269	0.7601	-0.327
Mof_H 	H 	0.537	0.2665	0.4778	-0.892
Mof_H 	H 	0.5403	0.509	0.1441	0.143
Mof_H 	H 	0.4731	0.5432	0.1803	0.202
Mof_H 	H 	0.4022	0.2078	0.4629	-0.094
Mof_H 	H 	0.3552	0.3245	0.433	0.138
Mof_H 	H 	0.4114	0.2872	0.3186	0.102
Mof_H 	H 	0.4985	0.3079	0.3246	-0.191
Mof_H 	H 	0.364	0.4184	0.3198	-0.864
Mof_H 	H 	0.4244	0.4021	0.2571	-0.133
Mof_H 	H 	0.4938	0.4364	0.3596	-0.166
Mof_H 	H 	0.4516	0.5047	0.3225	0.605
Mof_H 	H 	0.5656	0.5106	0.2687	0.074
Mof_H 	H 	0.5626	0.4269	0.2399	-0.33
Mof_H 	H 	0.463	0.4778	0.7335	-0.887
Mof_H 	H 	0.4597	0.1441	0.491	0.142
Mof_H 	H 	0.5269	0.1803	0.4568	0.201
Mof_H 	H 	0.5978	0.4629	0.7922	-0.098
Mof_H 	H 	0.6448	0.433	0.6755	0.144
Mof_H 	H 	0.5886	0.3186	0.7128	0.104
Mof_H 	H 	0.5015	0.3246	0.6921	-0.205
Mof_H 	H 	0.636	0.3198	0.5816	-0.871
Mof_H 	H 	0.5756	0.2571	0.5979	-0.134
Mof_H 	H 	0.5062	0.3596	0.5636	-0.166
Mof_H 	H 	0.5484	0.3225	0.4953	0.605
Mof_H 	H 	0.4344	0.2687	0.4894	0.074
Mof_H 	H 	0.4374	0.2399	0.5731	-0.329
Mof_H 	H 	0.537	0.5222	0.7335	-0.887
Mof_H 	H 	0.5403	0.8559	0.491	0.141
Mof_H 	H 	0.4731	0.8197	0.4568	0.203
Mof_H 	H 	0.4022	0.5371	0.7922	-0.097
Mof_H 	H 	0.3552	0.567	0.6755	0.138
Mof_H 	H 	0.4114	0.6814	0.7128	0.103
Mof_H 	H 	0.4985	0.6754	0.6921	-0.198
Mof_H 	H 	0.364	0.6802	0.5816	-0.869
Mof_H 	H 	0.4244	0.7429	0.5979	-0.138
Mof_H 	H 	0.4938	0.6404	0.5636	-0.165
Mof_H 	H 	0.4516	0.6775	0.4953	0.599
Mof_H 	H 	0.5656	0.7313	0.4894	0.065
Mof_H 	H 	0.5626	0.7601	0.5731	-0.33
Mof_H 	H 	0.463	0.5222	0.2665	-0.891
Mof_H 	H 	0.4597	0.8559	0.509	0.141
Mof_H 	H 	0.5269	0.8197	0.5432	0.203
Mof_H 	H 	0.5978	0.5371	0.2078	-0.094
Mof_H 	H 	0.6448	0.567	0.3245	0.139
Mof_H 	H 	0.5886	0.6814	0.2872	0.102
Mof_H 	H 	0.5015	0.6754	0.3079	-0.18
Mof_H 	H 	0.636	0.6802	0.4184	-0.886
Mof_H 	H 	0.5756	0.7429	0.4021	-0.14
Mof_H 	H 	0.5062	0.6404	0.4364	-0.164
Mof_H 	H 	0.5484	0.6775	0.5047	0.598
Mof_H 	H 	0.4344	0.7313	0.5106	0.066
Mof_H 	H 	0.4374	0.7601	0.4269	-0.327
Mof_H 	H 	0.537	0.4778	0.2665	-0.892
Mof_H 	H 	0.5403	0.1441	0.509	0.143
Mof_H 	H 	0.4731	0.1803	0.5432	0.202
Mof_H 	H 	0.4022	0.4629	0.2078	-0.094
Mof_H 	H 	0.3552	0.433	0.3245	0.138
Mof_H 	H 	0.4114	0.3186	0.2872	0.102
Mof_H 	H 	0.4985	0.3246	0.3079	-0.191
Mof_H 	H 	0.364	0.3198	0.4184	-0.864
Mof_H 	H 	0.4244	0.2571	0.4021	-0.133
Mof_H 	H 	0.4938	0.3596	0.4364	-0.166
Mof_H 	H 	0.4516	0.3225	0.5047	0.605
Mof_H 	H 	0.5656	0.2687	0.5106	0.074
Mof_H 	H 	0.5626	0.2399	0.4269	-0.33
Mof_H 	H 	0.4778	0.7335	0.463	-0.887
Mof_H 	H 	0.1441	0.491	0.4597	0.142
Mof_H 	H 	0.1803	0.4568	0.5269	0.201
Mof_H 	H 	0.4629	0.7922	0.5978	-0.098
Mof_H 	H 	0.433	0.6755	0.6448	0.144
Mof_H 	H 	0.3186	0.7128	0.5886	0.104
Mof_H 	H 	0.3246	0.6921	0.5015	-0.205
Mof_H 	H 	0.3198	0.5816	0.636	-0.871
Mof_H 	H 	0.2571	0.5979	0.5756	-0.134
Mof_H 	H 	0.3596	0.5636	0.5062	-0.166
Mof_H 	H 	0.3225	0.4953	0.5484	0.605
Mof_H 	H 	0.2687	0.4894	0.4344	0.074
Mof_H 	H 	0.2399	0.5731	0.4374	-0.329
Mof_H 	H 	0.5222	0.7335	0.537	-0.887
Mof_H 	H 	0.8559	0.491	0.5403	0.141
Mof_H 	H 	0.8197	0.4568	0.4731	0.203
Mof_H 	H 	0.5371	0.7922	0.4022	-0.097
Mof_H 	H 	0.567	0.6755	0.3552	0.138
Mof_H 	H 	0.6814	0.7128	0.4114	0.103
Mof_H 	H 	0.6754	0.6921	0.4985	-0.198
Mof_H 	H 	0.6802	0.5816	0.364	-0.869
Mof_H 	H 	0.7429	0.5979	0.4244	-0.138
Mof_H 	H 	0.6404	0.5636	0.4938	-0.165
Mof_H 	H 	0.6775	0.4953	0.4516	0.599
Mof_H 	H 	0.7313	0.4894	0.5656	0.065
Mof_H 	H 	0.7601	0.5731	0.5626	-0.33
Mof_H 	H 	0.5222	0.2665	0.463	-0.891
Mof_H 	H 	0.8559	0.509	0.4597	0.141
Mof_H 	H 	0.8197	0.5432	0.5269	0.203
Mof_H 	H 	0.5371	0.2078	0.5978	-0.094
Mof_H 	H 	0.567	0.3245	0.6448	0.139
Mof_H 	H 	0.6814	0.2872	0.5886	0.102
Mof_H 	H 	0.6754	0.3079	0.5015	-0.18
Mof_H 	H 	0.6802	0.4184	0.636	-0.886
Mof_H 	H 	0.7429	0.4021	0.5756	-0.14
Mof_H 	H 	0.6404	0.4364	0.5062	-0.164
Mof_H 	H 	0.6775	0.5047	0.5484	0.598
Mof_H 	H 	0.7313	0.5106	0.4344	0.066
Mof_H 	H 	0.7601	0.4269	0.4374	-0.327
Mof_H 	H 	0.4778	0.2665	0.537	-0.892
Mof_H 	H 	0.1441	0.509	0.5403	0.143
Mof_H 	H 	0.1803	0.5432	0.4731	0.202
Mof_H 	H 	0.4629	0.2078	0.4022	-0.094
Mof_H 	H 	0.433	0.3245	0.3552	0.138
Mof_H 	H 	0.3186	0.2872	0.4114	0.102
Mof_H 	H 	0.3246	0.3079	0.4985	-0.191
Mof_H 	H 	0.3198	0.4184	0.364	-0.864
Mof_H 	H 	0.2571	0.4021	0.4244	-0.133
Mof_H 	H 	0.3596	0.4364	0.4938	-0.166
Mof_H 	H 	0.3225	0.5047	0.4516	0.605
Mof_H 	H 	0.2687	0.5106	0.5656	0.074
Mof_H 	H 	0.2399	0.4269	0.5626	-0.33
Mof_H 	H 	0.7335	0.463	0.4778	-0.887
Mof_H 	H 	0.491	0.4597	0.1441	0.142
Mof_H 	H 	0.4568	0.5269	0.1803	0.201
Mof_H 	H 	0.7922	0.5978	0.4629	-0.098
Mof_H 	H 	0.6755	0.6448	0.433	0.144
Mof_H 	H 	0.7128	0.5886	0.3186	0.104
Mof_H 	H 	0.6921	0.5015	0.3246	-0.205
Mof_H 	H 	0.5816	0.636	0.3198	-0.871
Mof_H 	H 	0.5979	0.5756	0.2571	-0.134
Mof_H 	H 	0.5636	0.5062	0.3596	-0.166
Mof_H 	H 	0.4953	0.5484	0.3225	0.605
Mof_H 	H 	0.4894	0.4344	0.2687	0.074
Mof_H 	H 	0.5731	0.4374	0.2399	-0.329
Mof_H 	H 	0.7335	0.537	0.5222	-0.887
Mof_H 	H 	0.491	0.5403	0.8559	0.141
Mof_H 	H 	0.4568	0.4731	0.8197	0.203
Mof_H 	H 	0.7922	0.4022	0.5371	-0.097
Mof_H 	H 	0.6755	0.3552	0.567	0.138
Mof_H 	H 	0.7128	0.4114	0.6814	0.103
Mof_H 	H 	0.6921	0.4985	0.6754	-0.198
Mof_H 	H 	0.5816	0.364	0.6802	-0.869
Mof_H 	H 	0.5979	0.4244	0.7429	-0.138
Mof_H 	H 	0.5636	0.4938	0.6404	-0.165
Mof_H 	H 	0.4953	0.4516	0.6775	0.599
Mof_H 	H 	0.4894	0.5656	0.7313	0.065
Mof_H 	H 	0.5731	0.5626	0.7601	-0.33
Mof_H 	H 	0.2665	0.463	0.5222	-0.891
Mof_H 	H 	0.509	0.4597	0.8559	0.141
Mof_H 	H 	0.5432	0.5269	0.8197	0.203
Mof_H 	H 	0.2078	0.5978	0.5371	-0.094
Mof_H 	H 	0.3245	0.6448	0.567	0.139
Mof_H 	H 	0.2872	0.5886	0.6814	0.102
Mof_H 	H 	0.3079	0.5015	0.6754	-0.18
Mof_H 	H 	0.4184	0.636	0.6802	-0.886
Mof_H 	H 	0.4021	0.5756	0.7429	-0.14
Mof_H 	H 	0.4364	0.5062	0.6404	-0.164
Mof_H 	H 	0.5047	0.5484	0.6775	0.598
Mof_H 	H 	0.5106	0.4344	0.7313	0.066
Mof_H 	H 	0.4269	0.4374	0.7601	-0.327
Mof_H 	H 	0.2665	0.537	0.4778	-0.892
Mof_H 	H 	0.509	0.5403	0.1441	0.143
Mof_H 	H 	0.5432	0.4731	0.1803	0.202
Mof_H 	H 	0.2078	0.4022	0.4629	-0.094
Mof_H 	H 	0.3245	0.3552	0.433	0.138
Mof_H 	H 	0.2872	0.4114	0.3186	0.102
Mof_H 	H 	0.3079	0.4985	0.3246	-0.191
Mof_H 	H 	0.4184	0.364	0.3198	-0.864
Mof_H 	H 	0.4021	0.4244	0.2571	-0.133
Mof_H 	H 	0.4364	0.4938	0.3596	-0.166
Mof_H 	H 	0.5047	0.4516	0.3225	0.605
Mof_H 	H 	0.5106	0.5656	0.2687	0.074
Mof_H 	H 	0.4269	0.5626	0.2399	-0.33
Mof_O 	O 	0.3701	0.6299	0.6299	0.226
Mof_O 	O 	0.6299	0.3701	0.6299	0.226
Mof_O 	O 	0.6299	0.6299	0.3701	0.226
Mof_O 	O 	0.3701	0.3701	0.3701	0.218
Mof_H 	H 	0.5203	0.4797	0.8036	0.064
Mof_C 	C 	0.4397	0.5603	0.7624	0.374
Mof_C 	C 	0.4184	0.5816	0.68	0.592
Mof_H 	H 	0.4378	0.5622	0.6365	-0.154
Mof_H 	H 	0.4797	0.5203	0.8036	0.064
Mof_C 	C 	0.5603	0.4397	0.7624	0.374
Mof_C 	C 	0.5816	0.4184	0.68	0.592
Mof_H 	H 	0.5622	0.4378	0.6365	-0.154
Mof_H 	H 	0.4797	0.4797	0.1964	0.073
Mof_C 	C 	0.5603	0.5603	0.2376	0.348
Mof_C 	C 	0.5816	0.5816	0.32	0.587
Mof_H 	H 	0.5622	0.5622	0.3635	-0.15
Mof_H 	H 	0.5203	0.5203	0.1964	0.073
Mof_C 	C 	0.4397	0.4397	0.2376	0.349
Mof_C 	C 	0.4184	0.4184	0.32	0.584
Mof_H 	H 	0.4378	0.4378	0.3635	-0.148
Mof_H 	H 	0.8036	0.5203	0.4797	0.064
Mof_C 	C 	0.7624	0.4397	0.5603	0.374
Mof_C 	C 	0.68	0.4184	0.5816	0.592
Mof_H 	H 	0.6365	0.4378	0.5622	-0.154
Mof_H 	H 	0.8036	0.4797	0.5203	0.064
Mof_C 	C 	0.7624	0.5603	0.4397	0.374
Mof_C 	C 	0.68	0.5816	0.4184	0.592
Mof_H 	H 	0.6365	0.5622	0.4378	-0.154
Mof_H 	H 	0.1964	0.4797	0.4797	0.073
Mof_C 	C 	0.2376	0.5603	0.5603	0.348
Mof_C 	C 	0.32	0.5816	0.5816	0.587
Mof_H 	H 	0.3635	0.5622	0.5622	-0.15
Mof_H 	H 	0.1964	0.5203	0.5203	0.073
Mof_C 	C 	0.2376	0.4397	0.4397	0.349
Mof_C 	C 	0.32	0.4184	0.4184	0.584
Mof_H 	H 	0.3635	0.4378	0.4378	-0.148
Mof_H 	H 	0.4797	0.8036	0.5203	0.064
Mof_C 	C 	0.5603	0.7624	0.4397	0.374
Mof_C 	C 	0.5816	0.68	0.4184	0.592
Mof_H 	H 	0.5622	0.6365	0.4378	-0.154
Mof_H 	H 	0.5203	0.8036	0.4797	0.064
Mof_C 	C 	0.4397	0.7624	0.5603	0.374
Mof_C 	C 	0.4184	0.68	0.5816	0.592
Mof_H 	H 	0.4378	0.6365	0.5622	-0.154
Mof_H 	H 	0.4797	0.1964	0.4797	0.073
Mof_C 	C 	0.5603	0.2376	0.5603	0.348
Mof_C 	C 	0.5816	0.32	0.5816	0.587
Mof_H 	H 	0.5622	0.3635	0.5622	-0.15
Mof_H 	H 	0.5203	0.1964	0.5203	0.073
Mof_C 	C 	0.4397	0.2376	0.4397	0.349
Mof_C 	C 	0.4184	0.32	0.4184	0.584
Mof_H 	H 	0.4378	0.3635	0.4378	-0.148
Mof_C 	C 	0.339	0.551	0.661	1.117
Mof_C 	C 	0.661	0.449	0.661	1.136
Mof_C 	C 	0.661	0.551	0.339	1.117
Mof_C 	C 	0.339	0.449	0.339	1.109
Mof_C 	C 	0.661	0.339	0.551	1.117
Mof_C 	C 	0.661	0.661	0.449	1.136
Mof_C 	C 	0.339	0.661	0.551	1.117
Mof_C 	C 	0.339	0.339	0.449	1.109
Mof_C 	C 	0.551	0.661	0.339	1.117
Mof_C 	C 	0.449	0.661	0.661	1.136
Mof_C 	C 	0.551	0.339	0.661	1.117
Mof_C 	C 	0.449	0.339	0.339	1.109
Mof_N 	N 	0.5	0.5	0.761	0.484
Mof_O 	O 	0.5	0.5	0.7828	1.104
Mof_N 	N 	0.5	0.5	0.239	0.488
Mof_O 	O 	0.5	0.5	0.2172	1.112
Mof_N 	N 	0.761	0.5	0.5	0.484
Mof_O 	O 	0.7828	0.5	0.5	1.104
Mof_N 	N 	0.239	0.5	0.5	0.488
Mof_O 	O 	0.2172	0.5	0.5	1.112
Mof_N 	N 	0.5	0.761	0.5	0.484
Mof_O 	O 	0.5	0.7828	0.5	1.104
Mof_N 	N 	0.5	0.239	0.5	0.488
Mof_O 	O 	0.5	0.2172	0.5	1.112
Mof_N 	N 	0.174	0.5	0.5	-1.761
Mof_N 	N 	0.826	0.5	0.5	-1.746
Mof_N 	N 	0.5	0.174	0.5	-1.761
Mof_N 	N 	0.5	0.826	0.5	-1.746
Mof_N 	N 	0.5	0.5	0.174	-1.761
Mof_N 	N 	0.5	0.5	0.826	-1.746
Mof_H 	H 	0.1531	0.5297	0.5297	0.224
Mof_C 	C 	0.311	0.5845	0.5845	0.374
Mof_C 	C 	0.312	0.5228	0.5228	-1.553
Mof_H 	H 	0.8469	0.4703	0.5297	0.235
Mof_C 	C 	0.689	0.4155	0.5845	0.376
Mof_C 	C 	0.688	0.4772	0.5228	-1.537
Mof_H 	H 	0.8469	0.5297	0.4703	0.235
Mof_C 	C 	0.689	0.5845	0.4155	0.376
Mof_C 	C 	0.688	0.5228	0.4772	-1.537
Mof_H 	H 	0.1531	0.4703	0.4703	0.225
Mof_C 	C 	0.311	0.4155	0.4155	0.371
Mof_C 	C 	0.312	0.4772	0.4772	-1.553
Mof_H 	H 	0.5297	0.1531	0.5297	0.224
Mof_C 	C 	0.5845	0.311	0.5845	0.374
Mof_C 	C 	0.5228	0.312	0.5228	-1.553
Mof_H 	H 	0.5297	0.8469	0.4703	0.235
Mof_C 	C 	0.5845	0.689	0.4155	0.376
Mof_C 	C 	0.5228	0.688	0.4772	-1.537
Mof_H 	H 	0.4703	0.8469	0.5297	0.235
Mof_C 	C 	0.4155	0.689	0.5845	0.376
Mof_C 	C 	0.4772	0.688	0.5228	-1.537
Mof_H 	H 	0.4703	0.1531	0.4703	0.225
Mof_C 	C 	0.4155	0.311	0.4155	0.371
Mof_C 	C 	0.4772	0.312	0.4772	-1.553
Mof_H 	H 	0.5297	0.5297	0.1531	0.224
Mof_C 	C 	0.5845	0.5845	0.311	0.374
Mof_C 	C 	0.5228	0.5228	0.312	-1.553
Mof_H 	H 	0.4703	0.5297	0.8469	0.235
Mof_C 	C 	0.4155	0.5845	0.689	0.376
Mof_C 	C 	0.4772	0.5228	0.688	-1.537
Mof_H 	H 	0.5297	0.4703	0.8469	0.235
Mof_C 	C 	0.5845	0.4155	0.689	0.376
Mof_C 	C 	0.5228	0.4772	0.688	-1.537
Mof_H 	H 	0.4703	0.4703	0.1531	0.225
Mof_C 	C 	0.4155	0.4155	0.311	0.371
Mof_C 	C 	0.4772	0.4772	0.312	-1.553
Mof_C 	C 	0.246	0.4665	0.5335	-0.587
Mof_C 	C 	0.754	0.5335	0.5335	-0.578
Mof_C 	C 	0.754	0.4665	0.4665	-0.573
Mof_C 	C 	0.246	0.5335	0.4665	-0.587
Mof_C 	C 	0.5335	0.246	0.4665	-0.587
Mof_C 	C 	0.5335	0.754	0.5335	-0.578
Mof_C 	C 	0.4665	0.754	0.4665	-0.573
Mof_C 	C 	0.4665	0.246	0.5335	-0.587
Mof_C 	C 	0.4665	0.5335	0.246	-0.587
Mof_C 	C 	0.5335	0.5335	0.754	-0.578
Mof_C 	C 	0.4665	0.4665	0.754	-0.573
Mof_C 	C 	0.5335	0.4665	0.246	-0.587
Mof_O 	O 	0.4546	0.4546	0.725	2.678
Mof_O 	O 	0.5454	0.5454	0.725	2.684
Mof_O 	O 	0.5454	0.4546	0.275	2.696
Mof_O 	O 	0.4546	0.5454	0.275	2.696
Mof_O 	O 	0.725	0.4546	0.4546	2.678
Mof_O 	O 	0.725	0.5454	0.5454	2.684
Mof_O 	O 	0.275	0.5454	0.4546	2.696
Mof_O 	O 	0.275	0.4546	0.5454	2.696
Mof_O 	O 	0.4546	0.725	0.4546	2.678
Mof_O 	O 	0.5454	0.725	0.5454	2.684
Mof_O 	O 	0.4546	0.275	0.5454	2.696
Mof_O 	O 	0.5454	0.275	0.4546	2.696
Mof_Al	Al	0.31801	0.92304	0.56191	5.483
Mof_O 	O 	0.25388	0.9553	0.6449	-1.242
Mof_O 	O 	0.4801	0.1076	0.6202	-1.414
Mof_O 	O 	0.2481	0.8488	0.5371	-1.255
Mof_Al	Al	0.68199	0.07696	0.56191	5.87
Mof_O 	O 	0.74612	0.0447	0.6449	-1.249
Mof_O 	O 	0.5199	0.8924	0.6202	-1.351
Mof_O 	O 	0.7519	0.1512	0.5371	-1.299
Mof_Al	Al	0.68199	0.92304	0.43809	5.472
Mof_O 	O 	0.74612	0.9553	0.3551	-1.259
Mof_O 	O 	0.5199	0.1076	0.3798	-1.415
Mof_O 	O 	0.7519	0.8488	0.4629	-1.273
Mof_Al	Al	0.31801	0.07696	0.43809	5.886
Mof_O 	O 	0.25388	0.0447	0.3551	-1.226
Mof_O 	O 	0.4801	0.8924	0.3798	-1.349
Mof_O 	O 	0.2481	0.1512	0.4629	-1.286
Mof_Al	Al	0.56191	0.31801	0.92304	5.483
Mof_O 	O 	0.6449	0.25388	0.9553	-1.242
Mof_O 	O 	0.6202	0.4801	0.1076	-1.414
Mof_O 	O 	0.5371	0.2481	0.8488	-1.255
Mof_Al	Al	0.56191	0.68199	0.07696	5.87
Mof_O 	O 	0.6449	0.74612	0.0447	-1.249
Mof_O 	O 	0.6202	0.5199	0.8924	-1.351
Mof_O 	O 	0.5371	0.7519	0.1512	-1.299
Mof_Al	Al	0.43809	0.68199	0.92304	5.472
Mof_O 	O 	0.3551	0.74612	0.9553	-1.259
Mof_O 	O 	0.3798	0.5199	0.1076	-1.415
Mof_O 	O 	0.4629	0.7519	0.8488	-1.273
Mof_Al	Al	0.43809	0.31801	0.07696	5.886
Mof_O 	O 	0.3551	0.25388	0.0447	-1.226
Mof_O 	O 	0.3798	0.4801	0.8924	-1.349
Mof_O 	O 	0.4629	0.2481	0.1512	-1.286
Mof_Al	Al	0.92304	0.56191	0.31801	5.483
Mof_O 	O 	0.9553	0.6449	0.25388	-1.242
Mof_O 	O 	0.1076	0.6202	0.4801	-1.414
Mof_O 	O 	0.8488	0.5371	0.2481	-1.255
Mof_Al	Al	0.07696	0.56191	0.68199	5.87
Mof_O 	O 	0.0447	0.6449	0.74612	-1.249
Mof_O 	O 	0.8924	0.6202	0.5199	-1.351
Mof_O 	O 	0.1512	0.5371	0.7519	-1.299
Mof_Al	Al	0.92304	0.43809	0.68199	5.472
Mof_O 	O 	0.9553	0.3551	0.74612	-1.259
Mof_O 	O 	0.1076	0.3798	0.5199	-1.415
Mof_O 	O 	0.8488	0.4629	0.7519	-1.273
Mof_Al	Al	0.07696	0.43809	0.31801	5.886
Mof_O 	O 	0.0447	0.3551	0.25388	-1.226
Mof_O 	O 	0.8924	0.3798	0.4801	-1.349
Mof_O 	O 	0.1512	0.4629	0.2481	-1.286
Mof_Al	Al	0.92304	0.31801	0.56191	5.483
Mof_O 	O 	0.9553	0.25388	0.6449	-1.242
Mof_O 	O 	0.1076	0.4801	0.6202	-1.414
Mof_O 	O 	0.8488	0.2481	0.5371	-1.255
Mof_Al	Al	0.07696	0.68199	0.56191	5.87
Mof_O 	O 	0.0447	0.74612	0.6449	-1.249
Mof_O 	O 	0.8924	0.5199	0.6202	-1.351
Mof_O 	O 	0.1512	0.7519	0.5371	-1.299
Mof_Al	Al	0.92304	0.68199	0.43809	5.472
Mof_O 	O 	0.9553	0.74612	0.3551	-1.259
Mof_O 	O 	0.1076	0.5199	0.3798	-1.415
Mof_O 	O 	0.8488	0.7519	0.4629	-1.273
Mof_Al	Al	0.07696	0.31801	0.43809	5.886
Mof_O 	O 	0.0447	0.25388	0.3551	-1.226
Mof_O 	O 	0.8924	0.4801	0.3798	-1.349
Mof_O 	O 	0.1512	0.2481	0.4629	-1.286
Mof_Al	Al	0.31801	0.56191	0.92304	5.483
Mof_O 	O 	0.25388	0.6449	0.9553	-1.242
Mof_O 	O 	0.4801	0.6202	0.1076	-1.414
Mof_O 	O 	0.2481	0.5371	0.8488	-1.255
Mof_Al	Al	0.68199	0.56191	0.07696	5.87
Mof_O 	O 	0.74612	0.6449	0.0447	-1.249
Mof_O 	O 	0.5199	0.6202	0.8924	-1.351
Mof_O 	O 	0.7519	0.5371	0.1512	-1.299
Mof_Al	Al	0.68199	0.43809	0.92304	5.472
Mof_O 	O 	0.74612	0.3551	0.9553	-1.259
Mof_O 	O 	0.5199	0.3798	0.1076	-1.415
Mof_O 	O 	0.7519	0.4629	0.8488	-1.273
Mof_Al	Al	0.31801	0.43809	0.07696	5.886
Mof_O 	O 	0.25388	0.3551	0.0447	-1.226
Mof_O 	O 	0.4801	0.3798	0.8924	-1.349
Mof_O 	O 	0.2481	0.4629	0.1512	-1.286
Mof_Al	Al	0.56191	0.92304	0.31801	5.483
Mof_O 	O 	0.6449	0.9553	0.25388	-1.242
Mof_O 	O 	0.6202	0.1076	0.4801	-1.414
Mof_O 	O 	0.5371	0.8488	0.2481	-1.255
Mof_Al	Al	0.56191	0.07696	0.68199	5.87
Mof_O 	O 	0.6449	0.0447	0.74612	-1.249
Mof_O 	O 	0.6202	0.8924	0.5199	-1.351
Mof_O 	O 	0.5371	0.1512	0.7519	-1.299
Mof_Al	Al	0.43809	0.92304	0.68199	5.472
Mof_O 	O 	0.3551	0.9553	0.74612	-1.259
Mof_O 	O 	0.3798	0.1076	0.5199	-1.415
Mof_O 	O 	0.4629	0.8488	0.7519	-1.273
Mof_Al	Al	0.43809	0.07696	0.31801	5.886
Mof_O 	O 	0.3551	0.0447	0.25388	-1.226
Mof_O 	O 	0.3798	0.8924	0.4801	-1.349
Mof_O 	O 	0.4629	0.1512	0.2481	-1.286
Mof_Al	Al	0.23632	0.76368	0.76368	5.836
Mof_Al	Al	0.76368	0.23632	0.76368	5.836
Mof_Al	Al	0.76368	0.76368	0.23632	5.836
Mof_Al	Al	0.23632	0.23632	0.23632	5.969
Mof_P 	P 	0.19518	0.80482	0.58967	1.037
Mof_H 	H 	0.1481	0.8519	0.6213	-0.201
Mof_O 	O 	0.2372	0.7628	0.6538	-1.252
Mof_P 	P 	0.80482	0.19518	0.58967	1.037
Mof_H 	H 	0.8519	0.1481	0.6213	-0.201
Mof_O 	O 	0.7628	0.2372	0.6538	-1.252
Mof_P 	P 	0.80482	0.80482	0.41033	1.024
Mof_H 	H 	0.8519	0.8519	0.3787	-0.233
Mof_O 	O 	0.7628	0.7628	0.3462	-1.246
Mof_P 	P 	0.19518	0.19518	0.41033	1.054
Mof_H 	H 	0.1481	0.1481	0.3787	-0.162
Mof_O 	O 	0.2372	0.2372	0.3462	-1.281
Mof_P 	P 	0.58967	0.19518	0.80482	1.037
Mof_H 	H 	0.6213	0.1481	0.8519	-0.201
Mof_O 	O 	0.6538	0.2372	0.7628	-1.252
Mof_P 	P 	0.58967	0.80482	0.19518	1.037
Mof_H 	H 	0.6213	0.8519	0.1481	-0.201
Mof_O 	O 	0.6538	0.7628	0.2372	-1.252
Mof_P 	P 	0.41033	0.80482	0.80482	1.024
Mof_H 	H 	0.3787	0.8519	0.8519	-0.233
Mof_O 	O 	0.3462	0.7628	0.7628	-1.246
Mof_P 	P 	0.41033	0.19518	0.19518	1.054
Mof_H 	H 	0.3787	0.1481	0.1481	-0.162
Mof_O 	O 	0.3462	0.2372	0.2372	-1.281
Mof_P 	P 	0.80482	0.58967	0.19518	1.037
Mof_H 	H 	0.8519	0.6213	0.1481	-0.201
Mof_O 	O 	0.7628	0.6538	0.2372	-1.252
Mof_P 	P 	0.19518	0.58967	0.80482	1.037
Mof_H 	H 	0.1481	0.6213	0.8519	-0.201
Mof_O 	O 	0.2372	0.6538	0.7628	-1.252
Mof_P 	P 	0.80482	0.41033	0.80482	1.024
Mof_H 	H 	0.8519	0.3787	0.8519	-0.233
Mof_O 	O 	0.7628	0.3462	0.7628	-1.246
Mof_P 	P 	0.19518	0.41033	0.19518	1.054
Mof_H 	H 	0.1481	0.3787	0.1481	-0.162
Mof_O 	O 	0.2372	0.3462	0.2372	-1.281
Mof_P 	P 	0.26979	0.94465	0.73021	0.836
Mof_H 	H 	0.2354	0.0012	0.7646	0.045
Mof_P 	P 	0.40229	0.07897	0.59771	1.054
Mof_H 	H 	0.3531	0.1045	0.6469	-0.146
Mof_P 	P 	0.4379	0.0593	0.5621	0.355
Mof_H 	H 	0.486	0.0312	0.514	-0.039
Mof_O 	O 	0.39825	0.9909	0.60175	-2.137
Mof_O 	O 	0.3739	0.8593	0.6261	-1.946
Mof_O 	O 	0.237	0.8715	0.763	-1.318
Mof_P 	P 	0.73021	0.05535	0.73021	1.124
Mof_H 	H 	0.7646	0.9988	0.7646	-0.278
Mof_P 	P 	0.59771	0.92103	0.59771	0.9
Mof_H 	H 	0.6469	0.8955	0.6469	-0.226
Mof_P 	P 	0.5621	0.9407	0.5621	0.198
Mof_H 	H 	0.514	0.9688	0.514	-0.127
Mof_O 	O 	0.60175	0.0091	0.60175	-1.964
Mof_O 	O 	0.6261	0.1407	0.6261	-2.082
Mof_O 	O 	0.763	0.1285	0.763	-1.334
Mof_P 	P 	0.73021	0.94465	0.26979	0.836
Mof_H 	H 	0.7646	0.0012	0.2354	0.045
Mof_P 	P 	0.59771	0.07897	0.40229	1.054
Mof_H 	H 	0.6469	0.1045	0.3531	-0.146
Mof_P 	P 	0.5621	0.0593	0.4379	0.355
Mof_H 	H 	0.514	0.0312	0.486	-0.039
Mof_O 	O 	0.60175	0.9909	0.39825	-2.137
Mof_O 	O 	0.6261	0.8593	0.3739	-1.946
Mof_O 	O 	0.763	0.8715	0.237	-1.318
Mof_P 	P 	0.26979	0.05535	0.26979	1.136
Mof_H 	H 	0.2354	0.9988	0.2354	-0.21
Mof_P 	P 	0.40229	0.92103	0.40229	0.907
Mof_H 	H 	0.3531	0.8955	0.3531	-0.207
Mof_P 	P 	0.4379	0.9407	0.4379	0.193
Mof_H 	H 	0.486	0.9688	0.486	-0.126
Mof_O 	O 	0.39825	0.0091	0.39825	-1.969
Mof_O 	O 	0.3739	0.1407	0.3739	-2.091
Mof_O 	O 	0.237	0.1285	0.237	-1.307
Mof_P 	P 	0.73021	0.26979	0.94465	0.836
Mof_H 	H 	0.7646	0.2354	0.0012	0.045
Mof_P 	P 	0.59771	0.40229	0.07897	1.054
Mof_H 	H 	0.6469	0.3531	0.1045	-0.146
Mof_P 	P 	0.5621	0.4379	0.0593	0.355
Mof_H 	H 	0.514	0.486	0.0312	-0.039
Mof_O 	O 	0.60175	0.39825	0.9909	-2.137
Mof_O 	O 	0.6261	0.3739	0.8593	-1.946
Mof_O 	O 	0.763	0.237	0.8715	-1.318
Mof_P 	P 	0.73021	0.73021	0.05535	1.124
Mof_H 	H 	0.7646	0.7646	0.9988	-0.278
Mof_P 	P 	0.59771	0.59771	0.92103	0.9
Mof_H 	H 	0.6469	0.6469	0.8955	-0.226
Mof_P 	P 	0.5621	0.5621	0.9407	0.198
Mof_H 	H 	0.514	0.514	0.9688	-0.127
Mof_O 	O 	0.60175	0.60175	0.0091	-1.964
Mof_O 	O 	0.6261	0.6261	0.1407	-2.082
Mof_O 	O 	0.763	0.763	0.1285	-1.334
Mof_P 	P 	0.26979	0.73021	0.94465	0.836
Mof_H 	H 	0.2354	0.7646	0.0012	0.045
Mof_P 	P 	0.40229	0.59771	0.07897	1.054
Mof_H 	H 	0.3531	0.6469	0.1045	-0.146
Mof_P 	P 	0.4379	0.5621	0.0593	0.355
Mof_H 	H 	0.486	0.514	0.0312	-0.039
Mof_O 	O 	0.39825	0.60175	0.9909	-2.137
Mof_O 	O 	0.3739	0.6261	0.8593	-1.946
Mof_O 	O 	0.237	0.763	0.8715	-1.318
Mof_P 	P 	0.26979	0.26979	0.05535	1.136
Mof_H 	H 	0.2354	0.2354	0.9988	-0.21
Mof_P 	P 	0.40229	0.40229	0.92103	0.907
Mof_H 	H 	0.3531	0.3531	0.8955	-0.207
Mof_P 	P 	0.4379	0.4379	0.9407	0.193
Mof_H 	H 	0.486	0.486	0.9688	-0.126
Mof_O 	O 	0.39825	0.39825	0.0091	-1.969
Mof_O 	O 	0.3739	0.3739	0.1407	-2.091
Mof_O 	O 	0.237	0.237	0.1285	-1.307
Mof_P 	P 	0.94465	0.73021	0.26979	0.836
Mof_H 	H 	0.0012	0.7646	0.2354	0.045
Mof_P 	P 	0.07897	0.59771	0.40229	1.054
Mof_H 	H 	0.1045	0.6469	0.3531	-0.146
Mof_P 	P 	0.0593	0.5621	0.4379	0.355
Mof_H 	H 	0.0312	0.514	0.486	-0.039
Mof_O 	O 	0.9909	0.60175	0.39825	-2.137
Mof_O 	O 	0.8593	0.6261	0.3739	-1.946
Mof_O 	O 	0.8715	0.763	0.237	-1.318
Mof_P 	P 	0.05535	0.73021	0.73021	1.124
Mof_H 	H 	0.9988	0.7646	0.7646	-0.278
Mof_P 	P 	0.92103	0.59771	0.59771	0.9
Mof_H 	H 	0.8955	0.6469	0.6469	-0.226
Mof_P 	P 	0.9407	0.5621	0.5621	0.198
Mof_H 	H 	0.9688	0.514	0.514	-0.127
Mof_O 	O 	0.0091	0.60175	0.60175	-1.964
Mof_O 	O 	0.1407	0.6261	0.6261	-2.082
Mof_O 	O 	0.1285	0.763	0.763	-1.334
Mof_P 	P 	0.94465	0.26979	0.73021	0.836
Mof_H 	H 	0.0012	0.2354	0.7646	0.045
Mof_P 	P 	0.07897	0.40229	0.59771	1.054
Mof_H 	H 	0.1045	0.3531	0.6469	-0.146
Mof_P 	P 	0.0593	0.4379	0.5621	0.355
Mof_H 	H 	0.0312	0.486	0.514	-0.039
Mof_O 	O 	0.9909	0.39825	0.60175	-2.137
Mof_O 	O 	0.8593	0.3739	0.6261	-1.946
Mof_O 	O 	0.8715	0.237	0.763	-1.318
Mof_P 	P 	0.05535	0.26979	0.26979	1.136
Mof_H 	H 	0.9988	0.2354	0.2354	-0.21
Mof_P 	P 	0.92103	0.40229	0.40229	0.907
Mof_H 	H 	0.8955	0.3531	0.3531	-0.207
Mof_P 	P 	0.9407	0.4379	0.4379	0.193
Mof_H 	H 	0.9688	0.486	0.486	-0.126
Mof_O 	O 	0.0091	0.39825	0.39825	-1.969
Mof_O 	O 	0.1407	0.3739	0.3739	-2.091
Mof_O 	O 	0.1285	0.237	0.237	-1.307
Mof_O 	O 	0.2758	0	0.5	-1.863
Mof_O 	O 	0.7242	0	0.5	-1.881
Mof_O 	O 	0.5	0.2758	-0	-1.863
Mof_O 	O 	0.5	0.7242	-0	-1.881
Mof_O 	O 	1.03408e-33	0.5	0.2758	-1.863
Mof_O 	O 	1.20343e-32	0.5	0.7242	-1.881
Mof_O 	O 	1.8747e-33	0.2758	0.5	-1.863
Mof_O 	O 	1.11937e-32	0.7242	0.5	-1.881
Mof_O 	O 	0.2758	0.5	-0	-1.863
Mof_O 	O 	0.7242	0.5	-0	-1.881
Mof_O 	O 	0.5	0	0.2758	-1.863
Mof_O 	O 	0.5	0	0.7242	-1.881
_end
