data_functionalizedCrystal
_audit_creation_method	'EQeq! by Chris Wilmer'
_symmetry_space_group_name_H-M	'P1'
_symmetry_Int_Tables_number	1
_symmetry_cell_setting	triclinic
loop_
_symmetry_equiv_pos_as_xyz
  x,y,z
_cell_length_a	20.014
_cell_length_b	37.956
_cell_length_c	25.085
_cell_angle_alpha	90
_cell_angle_beta	109.384
_cell_angle_gamma	90
loop_
_atom_site_label
_atom_site_type_symbol
_atom_site_fract_x
_atom_site_fract_y
_atom_site_fract_z
_atom_site_charge
Mof_Cu	Cu	0.53876	0.12835	0.33183	0.764
Mof_Cu	Cu	0.55257	0.9745	0.36737	0.825
Mof_Cu	Cu	0.09297	0.25467	0.49684	0.814
Mof_Cu	Cu	0.79508	0.21817	0.38101	0.826
Mof_Cu	Cu	0.00644	0.32874	0.43246	0.812
Mof_Cu	Cu	0.31729	0.20624	0.38765	0.835
Mof_Cu	Cu	0.15222	0.33109	0.4126	0.817
Mof_Cu	Cu	0.60857	0.09466	0.24621	0.778
Mof_Cl	Cl	0.12515	0.31859	0.50786	-0.798
Mof_N 	N 	0.55008	0.0776	0.32777	-0.281
Mof_N 	N 	0.55336	0.01959	0.33785	-0.289
Mof_N 	N 	0.59145	0.0639	0.29829	-0.268
Mof_N 	N 	0.27889	0.20424	0.58395	-0.285
Mof_N 	N 	0.22358	0.25403	0.58902	-0.244
Mof_N 	N 	0.1824	0.23557	0.54221	-0.247
Mof_N 	N 	0.995	0.2544	0.45255	-0.249
Mof_N 	N 	0.95933	0.28494	0.42823	-0.251
Mof_N 	N 	0.88163	0.24144	0.41097	-0.286
Mof_N 	N 	0.53323	0.87352	0.41127	-0.247
Mof_N 	N 	0.59453	0.87213	0.39716	-0.255
Mof_N 	N 	0.55982	0.92772	0.39271	-0.289
Mof_N 	N 	0.38607	0.1307	0.30252	-0.271
Mof_N 	N 	0.44786	0.14835	0.3308	-0.277
Mof_N 	N 	0.35934	0.17466	0.34936	-0.277
Mof_N 	N 	0.70585	0.19774	0.3505	-0.29
Mof_N 	N 	0.614	0.16213	0.33543	-0.269
Mof_N 	N 	0.59334	0.19076	0.29985	-0.272
Mof_N 	N 	0.677	0.37607	0.3054	-0.33
Mof_H 	H 	0.6838	0.3925	0.2842	0.135
Mof_H 	H 	0.6381	0.3753	0.3129	0.132
Mof_N 	N 	0.6317	0.33324	0.1769	-0.329
Mof_H 	H 	0.5964	0.3473	0.1712	0.134
Mof_H 	H 	0.6629	0.3371	0.1609	0.137
Mof_N 	N 	0.326	0.08505	0.4544	-0.331
Mof_H 	H 	0.3344	0.1022	0.4781	0.153
Mof_H 	H 	0.2868	0.0736	0.4463	0.14
Mof_N 	N 	0.7389	0.94819	0.1906	-0.329
Mof_H 	H 	0.721	0.9287	0.1746	0.145
Mof_H 	H 	0.7783	0.9557	0.188	0.135
Mof_N 	N 	0.6448	0.27342	0.4615	-0.316
Mof_H 	H 	0.6841	0.2667	0.4859	0.112
Mof_H 	H 	0.6392	0.2951	0.4509	0.132
Mof_N 	N 	0.0763	0.09364	0.3984	-0.321
Mof_H 	H 	0.082	0.0724	0.4111	0.128
Mof_H 	H 	0.0467	0.0979	0.3653	0.129
Mof_N 	N 	0.0091	0.08668	0.5095	-0.344
Mof_H 	H 	0.9881	0.0698	0.4873	0.143
Mof_H 	H 	0.0406	0.082	0.5415	0.141
Mof_N 	N 	0.4781	0.2741	0.82536	-0.32
Mof_H 	H 	0.5031	0.2581	0.8474	0.119
Mof_H 	H 	0.4829	0.2958	0.8356	0.137
Mof_N 	N 	0.8517	0.07679	0.538	-0.326
Mof_H 	H 	0.8717	0.085	0.5715	0.133
Mof_H 	H 	0.8568	0.055	0.5309	0.128
Mof_N 	N 	0.8653	0.94263	0.3549	-0.327
Mof_H 	H 	0.8891	0.9604	0.3728	0.131
Mof_H 	H 	0.8819	0.93	0.3337	0.13
Mof_N 	N 	0.297	0.96393	0.4796	-0.339
Mof_H 	H 	0.2981	0.9859	0.4881	0.132
Mof_H 	H 	0.2625	0.9509	0.481	0.146
Mof_N 	N 	0.0682	0.0813	0.2187	-0.32
Mof_H 	H 	0.0542	0.0754	0.1837	0.126
Mof_H 	H 	0.0424	0.0765	0.2392	0.121
Mof_C 	C 	0.21638	0.20594	0.54065	0.125
Mof_C 	C 	0.1427	0.18332	0.44562	0.097
Mof_H 	H 	0.1368	0.2062	0.4314	-0.057
Mof_C 	C 	0.1152	0.12126	0.4316	0.203
Mof_C 	C 	0.1628	0.11489	0.4846	-0.233
Mof_H 	H 	0.172	0.0918	0.4975	0.099
Mof_C 	C 	0.18675	0.1773	0.50068	-0.176
Mof_C 	C 	0.1972	0.14252	0.51912	0.101
Mof_H 	H 	0.2279	0.1377	0.5553	-0.055
Mof_C 	C 	0.1074	0.15578	0.41166	-0.232
Mof_H 	H 	0.078	0.1604	0.375	0.096
Mof_C 	C 	0.28064	0.23444	0.61346	0.117
Mof_C 	C 	0.3348	0.2449	0.66661	-0.181
Mof_C 	C 	0.3756	0.21984	0.7041	0.087
Mof_H 	H 	0.3715	0.1962	0.6939	-0.062
Mof_C 	C 	0.4228	0.22991	0.757	-0.226
Mof_H 	H 	0.4495	0.2128	0.7815	0.077
Mof_C 	C 	0.3428	0.28	0.6841	0.101
Mof_H 	H 	0.3163	0.2973	0.66	-0.06
Mof_C 	C 	0.4301	0.26478	0.7732	0.203
Mof_C 	C 	0.3896	0.28976	0.7368	-0.246
Mof_H 	H 	0.3934	0.3133	0.7476	0.104
Mof_C 	C 	0.60924	0.90487	0.38717	0.125
Mof_C 	C 	0.6729	0.91542	0.37508	-0.191
Mof_C 	C 	0.6998	0.89562	0.3403	0.101
Mof_H 	H 	0.6755	0.8758	0.322	-0.048
Mof_C 	C 	0.7628	0.90532	0.3327	-0.241
Mof_H 	H 	0.78	0.8922	0.3087	0.097
Mof_C 	C 	0.7106	0.94481	0.4014	0.109
Mof_H 	H 	0.6929	0.9585	0.4244	-0.06
Mof_C 	C 	0.8005	0.9343	0.3603	0.215
Mof_C 	C 	0.7732	0.95416	0.3942	-0.247
Mof_H 	H 	0.7974	0.9741	0.4123	0.096
Mof_C 	C 	0.51436	0.90719	0.40905	0.147
Mof_C 	C 	0.4575	0.95648	0.4427	0.163
Mof_H 	H 	0.4942	0.971	0.4411	-0.086
Mof_C 	C 	0.4059	0.9701	0.461	-0.29
Mof_H 	H 	0.4082	0.9936	0.4719	0.118
Mof_C 	C 	0.4567	0.9212	0.42621	-0.211
Mof_C 	C 	0.4026	0.90026	0.4312	0.153
Mof_H 	H 	0.4018	0.8764	0.4225	-0.071
Mof_C 	C 	0.35	0.91395	0.4486	-0.281
Mof_H 	H 	0.3135	0.8995	0.4507	0.121
Mof_C 	C 	0.3508	0.94951	0.4634	0.242
Mof_C 	C 	0.7251	0.1431	0.41011	-0.19
Mof_C 	C 	0.7606	0.15547	0.46376	0.1
Mof_H 	H 	0.7561	0.1791	0.4719	-0.047
Mof_C 	C 	0.7313	0.10793	0.4	0.114
Mof_H 	H 	0.7061	0.0986	0.3647	-0.059
Mof_C 	C 	0.68143	0.16697	0.36541	0.127
Mof_C 	C 	0.8028	0.13371	0.5059	-0.242
Mof_H 	H 	0.8256	0.1427	0.5419	0.097
Mof_C 	C 	0.7746	0.0859	0.4414	-0.246
Mof_H 	H 	0.7793	0.0623	0.4332	0.096
Mof_C 	C 	0.811	0.099	0.4949	0.205
Mof_C 	C 	0.64842	0.24431	0.27881	-0.186
Mof_C 	C 	0.6993	0.2515	0.25394	0.101
Mof_H 	H 	0.7373	0.2362	0.2595	-0.054
Mof_C 	C 	0.6943	0.28081	0.22145	-0.254
Mof_H 	H 	0.7291	0.2852	0.2053	0.103
Mof_C 	C 	0.59318	0.26843	0.27074	0.096
Mof_H 	H 	0.5591	0.2645	0.2878	-0.037
Mof_C 	C 	0.64934	0.21151	0.30993	0.133
Mof_C 	C 	0.6384	0.30427	0.21201	0.212
Mof_C 	C 	0.5884	0.29779	0.2381	-0.237
Mof_H 	H 	0.5513	0.3136	0.2333	0.094
Mof_C 	C 	0.59277	0.02933	0.30531	0.125
Mof_C 	C 	0.6327	0.00648	0.27977	-0.185
Mof_C 	C 	0.606	0.97457	0.25419	0.096
Mof_H 	H 	0.5637	0.966	0.2569	-0.069
Mof_C 	C 	0.7041	0.96756	0.2207	0.215
Mof_C 	C 	0.697	0.01788	0.2765	0.099
Mof_H 	H 	0.7165	0.0389	0.2939	-0.042
Mof_C 	C 	0.641	0.95534	0.2247	-0.25
Mof_H 	H 	0.6221	0.9342	0.2077	0.094
Mof_C 	C 	0.7326	0.99874	0.2478	-0.241
Mof_H 	H 	0.776	0.0067	0.2466	0.1
Mof_C 	C 	0.4154	0.03785	0.36827	0.069
Mof_H 	H 	0.4074	0.0187	0.3438	-0.027
Mof_C 	C 	0.4382	0.09418	0.44214	-0.229
Mof_H 	H 	0.4463	0.1133	0.4667	0.097
Mof_C 	C 	0.4779	0.05627	0.38132	-0.186
Mof_C 	C 	0.52747	0.05062	0.35044	0.109
Mof_C 	C 	0.4889	0.08452	0.41916	0.088
Mof_H 	H 	0.5313	0.097	0.4289	-0.043
Mof_C 	C 	0.3755	0.07591	0.4292	0.206
Mof_C 	C 	0.364	0.04769	0.3915	-0.233
Mof_H 	H 	0.3215	0.0354	0.3817	0.098
Mof_C 	C 	0.96186	0.19225	0.45938	-0.182
Mof_C 	C 	0.0122	0.18355	0.51118	0.114
Mof_H 	H 	0.0364	0.2015	0.5351	-0.064
Mof_C 	C 	0.9267	0.16441	0.4253	0.118
Mof_H 	H 	0.8924	0.1692	0.3905	-0.065
Mof_C 	C 	0.9418	0.12978	0.4421	-0.251
Mof_H 	H 	0.9176	0.1117	0.4185	0.104
Mof_C 	C 	0.94692	0.22894	0.44171	0.136
Mof_C 	C 	0.0271	0.14899	0.52793	-0.262
Mof_H 	H 	0.061	0.144	0.5628	0.106
Mof_C 	C 	0.9922	0.12154	0.4934	0.241
Mof_C 	C 	0.89196	0.27614	0.40366	0.128
Mof_C 	C 	0.7712	0.30002	0.38575	0.113
Mof_H 	H 	0.7635	0.2824	0.4089	-0.063
Mof_C 	C 	0.7189	0.32452	0.3621	-0.246
Mof_H 	H 	0.6764	0.3233	0.3696	0.1
Mof_C 	C 	0.7286	0.35097	0.3275	0.221
Mof_C 	C 	0.7914	0.35185	0.3159	-0.25
Mof_H 	H 	0.7983	0.3691	0.292	0.102
Mof_C 	C 	0.8442	0.32738	0.33946	0.114
Mof_H 	H 	0.8861	0.3284	0.3312	-0.058
Mof_C 	C 	0.83519	0.30117	0.37552	-0.193
Mof_C 	C 	0.33412	0.14714	0.31398	0.14
Mof_C 	C 	0.26151	0.1341	0.28972	-0.18
Mof_C 	C 	0.2375	0.12438	0.2342	0.095
Mof_H 	H 	0.2645	0.1298	0.2114	-0.058
Mof_C 	C 	0.2204	0.12713	0.3231	0.098
Mof_H 	H 	0.2356	0.1338	0.3609	-0.025
Mof_C 	C 	0.1743	0.10664	0.2108	-0.251
Mof_H 	H 	0.1597	0.0999	0.1731	0.1
Mof_C 	C 	0.1336	0.0991	0.2427	0.199
Mof_C 	C 	0.1563	0.11	0.2993	-0.232
Mof_H 	H 	0.1277	0.1058	0.3212	0.098
Mof_C 	C 	0.4825	0.2004	0.39051	-0.186
Mof_C 	C 	0.4742	0.23562	0.37523	0.049
Mof_H 	H 	0.4321	0.2431	0.3486	-0.029
Mof_C 	C 	0.527	0.25966	0.3985	-0.222
Mof_H 	H 	0.5207	0.2831	0.3872	0.094
Mof_C 	C 	0.5979	0.214	0.4554	-0.223
Mof_H 	H 	0.6395	0.2067	0.4829	0.091
Mof_C 	C 	0.5896	0.24899	0.4388	0.183
Mof_C 	C 	0.43003	0.17438	0.35853	0.109
Mof_C 	C 	0.5447	0.18983	0.43145	0.07
Mof_H 	H 	0.5507	0.1664	0.4429	-0.037
Mof_Cu	Cu	0.03876	0.62835	0.33183	0.763
Mof_Cu	Cu	0.05257	0.4745	0.36737	0.824
Mof_Cu	Cu	0.59297	0.75467	0.49684	0.817
Mof_Cu	Cu	0.29508	0.71817	0.38101	0.827
Mof_Cu	Cu	0.50644	0.82874	0.43246	0.816
Mof_Cu	Cu	0.81729	0.70624	0.38765	0.836
Mof_Cu	Cu	0.65222	0.83109	0.4126	0.819
Mof_Cu	Cu	0.10857	0.59466	0.24621	0.778
Mof_Cl	Cl	0.62515	0.81859	0.50786	-0.795
Mof_N 	N 	0.05008	0.5776	0.32777	-0.28
Mof_N 	N 	0.05336	0.51959	0.33785	-0.288
Mof_N 	N 	0.09145	0.5639	0.29829	-0.268
Mof_N 	N 	0.77889	0.70424	0.58395	-0.284
Mof_N 	N 	0.72358	0.75403	0.58902	-0.243
Mof_N 	N 	0.6824	0.73557	0.54221	-0.246
Mof_N 	N 	0.495	0.7544	0.45255	-0.252
Mof_N 	N 	0.45933	0.78494	0.42823	-0.254
Mof_N 	N 	0.38163	0.74144	0.41097	-0.286
Mof_N 	N 	0.03323	0.37352	0.41127	-0.247
Mof_N 	N 	0.09453	0.37213	0.39716	-0.255
Mof_N 	N 	0.05982	0.42772	0.39271	-0.289
Mof_N 	N 	0.88607	0.6307	0.30252	-0.271
Mof_N 	N 	0.94786	0.64835	0.3308	-0.274
Mof_N 	N 	0.85934	0.67466	0.34936	-0.276
Mof_N 	N 	0.20585	0.69774	0.3505	-0.29
Mof_N 	N 	0.114	0.66213	0.33543	-0.269
Mof_N 	N 	0.09334	0.69076	0.29985	-0.273
Mof_N 	N 	0.177	0.87607	0.3054	-0.33
Mof_H 	H 	0.1838	0.8925	0.2842	0.135
Mof_H 	H 	0.1381	0.8753	0.3129	0.131
Mof_N 	N 	0.1317	0.83324	0.1769	-0.329
Mof_H 	H 	0.0964	0.8473	0.1712	0.133
Mof_H 	H 	0.1629	0.8371	0.1609	0.137
Mof_N 	N 	0.826	0.58505	0.4544	-0.332
Mof_H 	H 	0.8344	0.6022	0.4781	0.153
Mof_H 	H 	0.7868	0.5736	0.4463	0.141
Mof_N 	N 	0.2389	0.44819	0.1906	-0.329
Mof_H 	H 	0.221	0.4287	0.1746	0.145
Mof_H 	H 	0.2783	0.4557	0.188	0.135
Mof_N 	N 	0.1448	0.77342	0.4615	-0.317
Mof_H 	H 	0.1841	0.7667	0.4859	0.112
Mof_H 	H 	0.1392	0.7951	0.4509	0.132
Mof_N 	N 	0.5763	0.59364	0.3984	-0.322
Mof_H 	H 	0.582	0.5724	0.4111	0.13
Mof_H 	H 	0.5467	0.5979	0.3653	0.132
Mof_N 	N 	0.5091	0.58668	0.5095	-0.327
Mof_H 	H 	0.4881	0.5698	0.4873	0.132
Mof_H 	H 	0.5406	0.582	0.5415	0.138
Mof_N 	N 	0.9781	0.7741	0.82536	-0.31
Mof_H 	H 	0.0031	0.7581	0.8474	0.108
Mof_H 	H 	0.9829	0.7958	0.8356	0.137
Mof_N 	N 	0.3517	0.57679	0.538	-0.325
Mof_H 	H 	0.3717	0.585	0.5715	0.132
Mof_H 	H 	0.3568	0.555	0.5309	0.127
Mof_N 	N 	0.3653	0.44263	0.3549	-0.326
Mof_H 	H 	0.3891	0.4604	0.3728	0.129
Mof_H 	H 	0.3819	0.43	0.3337	0.129
Mof_N 	N 	0.797	0.46393	0.4796	-0.338
Mof_H 	H 	0.7981	0.4859	0.4881	0.132
Mof_H 	H 	0.7625	0.4509	0.481	0.146
Mof_N 	N 	0.5682	0.5813	0.2187	-0.321
Mof_H 	H 	0.5542	0.5754	0.1837	0.128
Mof_H 	H 	0.5424	0.5765	0.2392	0.124
Mof_C 	C 	0.71638	0.70594	0.54065	0.125
Mof_C 	C 	0.6427	0.68332	0.44562	0.099
Mof_H 	H 	0.6368	0.7062	0.4314	-0.057
Mof_C 	C 	0.6152	0.62126	0.4316	0.206
Mof_C 	C 	0.6628	0.61489	0.4846	-0.234
Mof_H 	H 	0.672	0.5918	0.4975	0.1
Mof_C 	C 	0.68675	0.6773	0.50068	-0.177
Mof_C 	C 	0.6972	0.64252	0.51912	0.103
Mof_H 	H 	0.7279	0.6377	0.5553	-0.055
Mof_C 	C 	0.6074	0.65578	0.41166	-0.233
Mof_H 	H 	0.578	0.6604	0.375	0.098
Mof_C 	C 	0.78064	0.73444	0.61346	0.117
Mof_C 	C 	0.8348	0.7449	0.66661	-0.181
Mof_C 	C 	0.8756	0.71984	0.7041	0.087
Mof_H 	H 	0.8715	0.6962	0.6939	-0.061
Mof_C 	C 	0.9228	0.72991	0.757	-0.225
Mof_H 	H 	0.9495	0.7128	0.7815	0.079
Mof_C 	C 	0.8428	0.78	0.6841	0.101
Mof_H 	H 	0.8163	0.7973	0.66	-0.06
Mof_C 	C 	0.9301	0.76478	0.7732	0.203
Mof_C 	C 	0.8896	0.78976	0.7368	-0.245
Mof_H 	H 	0.8934	0.8133	0.7476	0.105
Mof_C 	C 	0.10924	0.40487	0.38717	0.124
Mof_C 	C 	0.1729	0.41542	0.37508	-0.191
Mof_C 	C 	0.1998	0.39562	0.3403	0.101
Mof_H 	H 	0.1755	0.3758	0.322	-0.048
Mof_C 	C 	0.2628	0.40532	0.3327	-0.24
Mof_H 	H 	0.28	0.3922	0.3087	0.096
Mof_C 	C 	0.2106	0.44481	0.4014	0.108
Mof_H 	H 	0.1929	0.4585	0.4244	-0.06
Mof_C 	C 	0.3005	0.4343	0.3603	0.214
Mof_C 	C 	0.2732	0.45416	0.3942	-0.247
Mof_H 	H 	0.2974	0.4741	0.4123	0.095
Mof_C 	C 	0.01436	0.40719	0.40905	0.135
Mof_C 	C 	0.9575	0.45648	0.4427	0.153
Mof_H 	H 	0.9942	0.471	0.4411	-0.079
Mof_C 	C 	0.9059	0.4701	0.461	-0.282
Mof_H 	H 	0.9082	0.4936	0.4719	0.116
Mof_C 	C 	0.9567	0.4212	0.42621	-0.195
Mof_C 	C 	0.9026	0.40026	0.4312	0.143
Mof_H 	H 	0.9018	0.3764	0.4225	-0.066
Mof_C 	C 	0.85	0.41395	0.4486	-0.274
Mof_H 	H 	0.8135	0.3995	0.4507	0.118
Mof_C 	C 	0.8508	0.44951	0.4634	0.237
Mof_C 	C 	0.2251	0.6431	0.41011	-0.19
Mof_C 	C 	0.2606	0.65547	0.46376	0.1
Mof_H 	H 	0.2561	0.6791	0.4719	-0.047
Mof_C 	C 	0.2313	0.60793	0.4	0.113
Mof_H 	H 	0.2061	0.5986	0.3647	-0.059
Mof_C 	C 	0.18143	0.66697	0.36541	0.127
Mof_C 	C 	0.3028	0.63371	0.5059	-0.241
Mof_H 	H 	0.3256	0.6427	0.5419	0.096
Mof_C 	C 	0.2746	0.5859	0.4414	-0.246
Mof_H 	H 	0.2793	0.5623	0.4332	0.095
Mof_C 	C 	0.311	0.599	0.4949	0.204
Mof_C 	C 	0.14842	0.74431	0.27881	-0.186
Mof_C 	C 	0.1993	0.7515	0.25394	0.101
Mof_H 	H 	0.2373	0.7362	0.2595	-0.054
Mof_C 	C 	0.1943	0.78081	0.22145	-0.254
Mof_H 	H 	0.2291	0.7852	0.2053	0.103
Mof_C 	C 	0.09318	0.76843	0.27074	0.095
Mof_H 	H 	0.0591	0.7645	0.2878	-0.039
Mof_C 	C 	0.14934	0.71151	0.30993	0.133
Mof_C 	C 	0.1384	0.80427	0.21201	0.211
Mof_C 	C 	0.0884	0.79779	0.2381	-0.237
Mof_H 	H 	0.0513	0.8136	0.2333	0.092
Mof_C 	C 	0.09277	0.52933	0.30531	0.124
Mof_C 	C 	0.1327	0.50648	0.27977	-0.185
Mof_C 	C 	0.106	0.47457	0.25419	0.096
Mof_H 	H 	0.0637	0.466	0.2569	-0.071
Mof_C 	C 	0.2041	0.46756	0.2207	0.215
Mof_C 	C 	0.197	0.51788	0.2765	0.099
Mof_H 	H 	0.2165	0.5389	0.2939	-0.042
Mof_C 	C 	0.141	0.45534	0.2247	-0.251
Mof_H 	H 	0.1221	0.4342	0.2077	0.094
Mof_C 	C 	0.2326	0.49874	0.2478	-0.241
Mof_H 	H 	0.276	0.5067	0.2466	0.099
Mof_C 	C 	0.9154	0.53785	0.36827	0.071
Mof_H 	H 	0.9074	0.5187	0.3438	-0.026
Mof_C 	C 	0.9382	0.59418	0.44214	-0.24
Mof_H 	H 	0.9463	0.6133	0.4667	0.103
Mof_C 	C 	0.9779	0.55627	0.38132	-0.185
Mof_C 	C 	0.02747	0.55062	0.35044	0.102
Mof_C 	C 	0.9889	0.58452	0.41916	0.109
Mof_H 	H 	0.0313	0.597	0.4289	-0.055
Mof_C 	C 	0.8755	0.57591	0.4292	0.211
Mof_C 	C 	0.864	0.54769	0.3915	-0.236
Mof_H 	H 	0.8215	0.5354	0.3817	0.1
Mof_C 	C 	0.46186	0.69225	0.45938	-0.188
Mof_C 	C 	0.5122	0.68355	0.51118	0.117
Mof_H 	H 	0.5364	0.7015	0.5351	-0.062
Mof_C 	C 	0.4267	0.66441	0.4253	0.113
Mof_H 	H 	0.3924	0.6692	0.3905	-0.064
Mof_C 	C 	0.4418	0.62978	0.4421	-0.241
Mof_H 	H 	0.4176	0.6117	0.4185	0.1
Mof_C 	C 	0.44692	0.72894	0.44171	0.136
Mof_C 	C 	0.5271	0.64899	0.52793	-0.244
Mof_H 	H 	0.561	0.644	0.5628	0.101
Mof_C 	C 	0.4922	0.62154	0.4934	0.218
Mof_C 	C 	0.39196	0.77614	0.40366	0.128
Mof_C 	C 	0.2712	0.80002	0.38575	0.113
Mof_H 	H 	0.2635	0.7824	0.4089	-0.063
Mof_C 	C 	0.2189	0.82452	0.3621	-0.246
Mof_H 	H 	0.1764	0.8233	0.3696	0.1
Mof_C 	C 	0.2286	0.85097	0.3275	0.221
Mof_C 	C 	0.2914	0.85185	0.3159	-0.251
Mof_H 	H 	0.2983	0.8691	0.292	0.102
Mof_C 	C 	0.3442	0.82738	0.33946	0.114
Mof_H 	H 	0.3861	0.8284	0.3312	-0.06
Mof_C 	C 	0.33519	0.80117	0.37552	-0.193
Mof_C 	C 	0.83412	0.64714	0.31398	0.14
Mof_C 	C 	0.76151	0.6341	0.28972	-0.18
Mof_C 	C 	0.7375	0.62438	0.2342	0.096
Mof_H 	H 	0.7645	0.6298	0.2114	-0.058
Mof_C 	C 	0.7204	0.62713	0.3231	0.099
Mof_H 	H 	0.7356	0.6338	0.3609	-0.026
Mof_C 	C 	0.6743	0.60664	0.2108	-0.252
Mof_H 	H 	0.6597	0.5999	0.1731	0.1
Mof_C 	C 	0.6336	0.5991	0.2427	0.2
Mof_C 	C 	0.6563	0.61	0.2993	-0.233
Mof_H 	H 	0.6277	0.6058	0.3212	0.099
Mof_C 	C 	0.9825	0.7004	0.39051	-0.179
Mof_C 	C 	0.9742	0.73562	0.37523	0.061
Mof_H 	H 	0.9321	0.7431	0.3486	-0.033
Mof_C 	C 	0.027	0.75966	0.3985	-0.236
Mof_H 	H 	0.0207	0.7831	0.3872	0.096
Mof_C 	C 	0.0979	0.714	0.4554	-0.221
Mof_H 	H 	0.1395	0.7067	0.4829	0.089
Mof_C 	C 	0.0896	0.74899	0.4388	0.185
Mof_C 	C 	0.93003	0.67438	0.35853	0.109
Mof_C 	C 	0.0447	0.68983	0.43145	0.058
Mof_H 	H 	0.0507	0.6664	0.4429	-0.035
Mof_Cu	Cu	0.46124	0.12835	0.16817	0.765
Mof_Cu	Cu	0.44743	0.9745	0.13263	0.826
Mof_Cu	Cu	0.90703	0.25467	0.00316	0.818
Mof_Cu	Cu	0.20492	0.21817	0.11899	0.827
Mof_Cu	Cu	0.99356	0.32874	0.06754	0.819
Mof_Cu	Cu	0.68271	0.20624	0.11235	0.836
Mof_Cu	Cu	0.84778	0.33109	0.0874	0.819
Mof_Cu	Cu	0.39143	0.09466	0.25379	0.779
Mof_Cl	Cl	0.87485	0.31859	0.99214	-0.793
Mof_N 	N 	0.44992	0.0776	0.17223	-0.28
Mof_N 	N 	0.44664	0.01959	0.16215	-0.288
Mof_N 	N 	0.40855	0.0639	0.20171	-0.267
Mof_N 	N 	0.72111	0.20424	0.91605	-0.284
Mof_N 	N 	0.77642	0.25403	0.91098	-0.243
Mof_N 	N 	0.8176	0.23557	0.95779	-0.245
Mof_N 	N 	0.005	0.2544	0.04745	-0.255
Mof_N 	N 	0.04067	0.28494	0.07177	-0.256
Mof_N 	N 	0.11837	0.24144	0.08903	-0.286
Mof_N 	N 	0.46677	0.87352	0.08873	-0.247
Mof_N 	N 	0.40547	0.87213	0.10284	-0.255
Mof_N 	N 	0.44018	0.92772	0.10729	-0.289
Mof_N 	N 	0.61393	0.1307	0.19748	-0.272
Mof_N 	N 	0.55214	0.14835	0.1692	-0.277
Mof_N 	N 	0.64066	0.17466	0.15064	-0.277
Mof_N 	N 	0.29415	0.19774	0.1495	-0.29
Mof_N 	N 	0.386	0.16213	0.16457	-0.269
Mof_N 	N 	0.40666	0.19076	0.20015	-0.272
Mof_N 	N 	0.323	0.37607	0.1946	-0.33
Mof_H 	H 	0.3162	0.3925	0.2158	0.135
Mof_H 	H 	0.3619	0.3753	0.1871	0.133
Mof_N 	N 	0.3683	0.33324	0.3231	-0.329
Mof_H 	H 	0.4036	0.3473	0.3288	0.134
Mof_H 	H 	0.3371	0.3371	0.3391	0.137
Mof_N 	N 	0.674	0.08505	0.0456	-0.331
Mof_H 	H 	0.6656	0.1022	0.0219	0.153
Mof_H 	H 	0.7132	0.0736	0.0537	0.14
Mof_N 	N 	0.2611	0.94819	0.3094	-0.328
Mof_H 	H 	0.279	0.9287	0.3254	0.145
Mof_H 	H 	0.2217	0.9557	0.312	0.134
Mof_N 	N 	0.3552	0.27342	0.0385	-0.316
Mof_H 	H 	0.3159	0.2667	0.0141	0.113
Mof_H 	H 	0.3608	0.2951	0.0491	0.132
Mof_N 	N 	0.9237	0.09364	0.1016	-0.324
Mof_H 	H 	0.918	0.0724	0.0889	0.132
Mof_H 	H 	0.9533	0.0979	0.1347	0.135
Mof_N 	N 	0.9909	0.08668	0.9905	-0.312
Mof_H 	H 	0.0119	0.0698	0.0127	0.124
Mof_H 	H 	0.9594	0.082	0.9585	0.137
Mof_N 	N 	0.5219	0.2741	0.67464	-0.32
Mof_H 	H 	0.4969	0.2581	0.6526	0.119
Mof_H 	H 	0.5171	0.2958	0.6644	0.137
Mof_N 	N 	0.1483	0.07679	0.962	-0.328
Mof_H 	H 	0.1283	0.085	0.9285	0.131
Mof_H 	H 	0.1432	0.055	0.9691	0.126
Mof_N 	N 	0.1347	0.94263	0.1451	-0.325
Mof_H 	H 	0.1109	0.9604	0.1272	0.128
Mof_H 	H 	0.1181	0.93	0.1663	0.128
Mof_N 	N 	0.703	0.96393	0.0204	-0.339
Mof_H 	H 	0.7019	0.9859	0.0119	0.132
Mof_H 	H 	0.7375	0.9509	0.019	0.146
Mof_N 	N 	0.9318	0.0813	0.2813	-0.322
Mof_H 	H 	0.9458	0.0754	0.3163	0.131
Mof_H 	H 	0.9576	0.0765	0.2608	0.127
Mof_C 	C 	0.78362	0.20594	0.95935	0.125
Mof_C 	C 	0.8573	0.18332	0.05438	0.099
Mof_H 	H 	0.8632	0.2062	0.0686	-0.056
Mof_C 	C 	0.8848	0.12126	0.0684	0.208
Mof_C 	C 	0.8372	0.11489	0.0154	-0.236
Mof_H 	H 	0.828	0.0918	0.0025	0.1
Mof_C 	C 	0.81325	0.1773	0.99932	-0.177
Mof_C 	C 	0.8028	0.14252	0.98088	0.105
Mof_H 	H 	0.7721	0.1377	0.9447	-0.055
Mof_C 	C 	0.8926	0.15578	0.08834	-0.233
Mof_H 	H 	0.922	0.1604	0.125	0.1
Mof_C 	C 	0.71936	0.23444	0.88654	0.117
Mof_C 	C 	0.6652	0.2449	0.83339	-0.181
Mof_C 	C 	0.6244	0.21984	0.7959	0.087
Mof_H 	H 	0.6285	0.1962	0.8061	-0.062
Mof_C 	C 	0.5772	0.22991	0.743	-0.226
Mof_H 	H 	0.5505	0.2128	0.7185	0.077
Mof_C 	C 	0.6572	0.28	0.8159	0.101
Mof_H 	H 	0.6837	0.2973	0.84	-0.06
Mof_C 	C 	0.5699	0.26478	0.7268	0.203
Mof_C 	C 	0.6104	0.28976	0.7632	-0.246
Mof_H 	H 	0.6066	0.3133	0.7524	0.104
Mof_C 	C 	0.39076	0.90487	0.11283	0.125
Mof_C 	C 	0.3271	0.91542	0.12492	-0.19
Mof_C 	C 	0.3002	0.89562	0.1597	0.1
Mof_H 	H 	0.3245	0.8758	0.178	-0.048
Mof_C 	C 	0.2372	0.90532	0.1673	-0.239
Mof_H 	H 	0.22	0.8922	0.1913	0.096
Mof_C 	C 	0.2894	0.94481	0.0986	0.108
Mof_H 	H 	0.3071	0.9585	0.0756	-0.06
Mof_C 	C 	0.1995	0.9343	0.1397	0.213
Mof_C 	C 	0.2268	0.95416	0.1058	-0.246
Mof_H 	H 	0.2026	0.9741	0.0877	0.095
Mof_C 	C 	0.48564	0.90719	0.09095	0.147
Mof_C 	C 	0.5425	0.95648	0.0573	0.163
Mof_H 	H 	0.5058	0.971	0.0589	-0.086
Mof_C 	C 	0.5941	0.9701	0.039	-0.29
Mof_H 	H 	0.5918	0.9936	0.0281	0.118
Mof_C 	C 	0.5433	0.9212	0.07379	-0.211
Mof_C 	C 	0.5974	0.90026	0.0688	0.153
Mof_H 	H 	0.5982	0.8764	0.0775	-0.071
Mof_C 	C 	0.65	0.91395	0.0514	-0.281
Mof_H 	H 	0.6865	0.8995	0.0493	0.121
Mof_C 	C 	0.6492	0.94951	0.0366	0.242
Mof_C 	C 	0.2749	0.1431	0.08989	-0.196
Mof_C 	C 	0.2394	0.15547	0.03624	0.111
Mof_H 	H 	0.2439	0.1791	0.0281	-0.05
Mof_C 	C 	0.2687	0.10793	0.1	0.12
Mof_H 	H 	0.2939	0.0986	0.1353	-0.062
Mof_C 	C 	0.31857	0.16697	0.13459	0.129
Mof_C 	C 	0.1972	0.13371	0.9941	-0.255
Mof_H 	H 	0.1744	0.1427	0.9581	0.1
Mof_C 	C 	0.2254	0.0859	0.0586	-0.253
Mof_H 	H 	0.2207	0.0623	0.0668	0.098
Mof_C 	C 	0.189	0.099	0.0051	0.215
Mof_C 	C 	0.35158	0.24431	0.22119	-0.186
Mof_C 	C 	0.3007	0.2515	0.24606	0.101
Mof_H 	H 	0.2627	0.2362	0.2405	-0.054
Mof_C 	C 	0.3057	0.28081	0.27855	-0.254
Mof_H 	H 	0.2709	0.2852	0.2947	0.103
Mof_C 	C 	0.40682	0.26843	0.22926	0.096
Mof_H 	H 	0.4409	0.2645	0.2122	-0.037
Mof_C 	C 	0.35066	0.21151	0.19007	0.133
Mof_C 	C 	0.3616	0.30427	0.28799	0.212
Mof_C 	C 	0.4116	0.29779	0.2619	-0.237
Mof_H 	H 	0.4487	0.3136	0.2667	0.094
Mof_C 	C 	0.40723	0.02933	0.19469	0.125
Mof_C 	C 	0.3673	0.00648	0.22023	-0.184
Mof_C 	C 	0.394	0.97457	0.24581	0.095
Mof_H 	H 	0.4363	0.966	0.2431	-0.069
Mof_C 	C 	0.2959	0.96756	0.2793	0.214
Mof_C 	C 	0.303	0.01788	0.2235	0.099
Mof_H 	H 	0.2835	0.0389	0.2061	-0.042
Mof_C 	C 	0.359	0.95534	0.2753	-0.25
Mof_H 	H 	0.3779	0.9342	0.2923	0.094
Mof_C 	C 	0.2674	0.99874	0.2522	-0.24
Mof_H 	H 	0.224	0.0067	0.2534	0.099
Mof_C 	C 	0.5846	0.03785	0.13173	0.069
Mof_H 	H 	0.5926	0.0187	0.1562	-0.027
Mof_C 	C 	0.5618	0.09418	0.05786	-0.229
Mof_H 	H 	0.5537	0.1133	0.0333	0.098
Mof_C 	C 	0.5221	0.05627	0.11868	-0.186
Mof_C 	C 	0.47253	0.05062	0.14956	0.109
Mof_C 	C 	0.5111	0.08452	0.08084	0.088
Mof_H 	H 	0.4687	0.097	0.0711	-0.043
Mof_C 	C 	0.6245	0.07591	0.0708	0.206
Mof_C 	C 	0.636	0.04769	0.1085	-0.233
Mof_H 	H 	0.6785	0.0354	0.1183	0.099
Mof_C 	C 	0.03814	0.19225	0.04062	-0.193
Mof_C 	C 	0.9878	0.18355	0.98882	0.122
Mof_H 	H 	0.9636	0.2015	0.9649	-0.061
Mof_C 	C 	0.0733	0.16441	0.0747	0.109
Mof_H 	H 	0.1076	0.1692	0.1095	-0.063
Mof_C 	C 	0.0582	0.12978	0.0579	-0.233
Mof_H 	H 	0.0824	0.1117	0.0815	0.097
Mof_C 	C 	0.05308	0.22894	0.05829	0.136
Mof_C 	C 	0.9729	0.14899	0.97207	-0.228
Mof_H 	H 	0.939	0.144	0.9372	0.097
Mof_C 	C 	0.0078	0.12154	0.0066	0.199
Mof_C 	C 	0.10804	0.27614	0.09634	0.128
Mof_C 	C 	0.2288	0.30002	0.11425	0.114
Mof_H 	H 	0.2365	0.2824	0.0911	-0.063
Mof_C 	C 	0.2811	0.32452	0.1379	-0.246
Mof_H 	H 	0.3236	0.3233	0.1304	0.101
Mof_C 	C 	0.2714	0.35097	0.1725	0.222
Mof_C 	C 	0.2086	0.35185	0.1841	-0.251
Mof_H 	H 	0.2017	0.3691	0.208	0.102
Mof_C 	C 	0.1558	0.32738	0.16054	0.115
Mof_H 	H 	0.1139	0.3284	0.1688	-0.061
Mof_C 	C 	0.16481	0.30117	0.12448	-0.194
Mof_C 	C 	0.66588	0.14714	0.18602	0.14
Mof_C 	C 	0.73849	0.1341	0.21028	-0.181
Mof_C 	C 	0.7625	0.12438	0.2658	0.097
Mof_H 	H 	0.7355	0.1298	0.2886	-0.058
Mof_C 	C 	0.7796	0.12713	0.1769	0.1
Mof_H 	H 	0.7644	0.1338	0.1391	-0.026
Mof_C 	C 	0.8257	0.10664	0.2892	-0.253
Mof_H 	H 	0.8403	0.0999	0.3269	0.101
Mof_C 	C 	0.8664	0.0991	0.2573	0.202
Mof_C 	C 	0.8437	0.11	0.2007	-0.234
Mof_H 	H 	0.8723	0.1058	0.1788	0.1
Mof_C 	C 	0.5175	0.2004	0.10949	-0.187
Mof_C 	C 	0.5258	0.23562	0.12477	0.049
Mof_H 	H 	0.5679	0.2431	0.1514	-0.03
Mof_C 	C 	0.473	0.25966	0.1015	-0.223
Mof_H 	H 	0.4793	0.2831	0.1128	0.094
Mof_C 	C 	0.4021	0.214	0.0446	-0.223
Mof_H 	H 	0.3605	0.2067	0.0171	0.091
Mof_C 	C 	0.4104	0.24899	0.0612	0.183
Mof_C 	C 	0.56997	0.17438	0.14147	0.109
Mof_C 	C 	0.4553	0.18983	0.06855	0.071
Mof_H 	H 	0.4493	0.1664	0.0571	-0.037
Mof_Cu	Cu	0.96124	0.62835	0.16817	0.768
Mof_Cu	Cu	0.94743	0.4745	0.13263	0.828
Mof_Cu	Cu	0.40703	0.75467	0.00316	0.817
Mof_Cu	Cu	0.70492	0.71817	0.11899	0.827
Mof_Cu	Cu	0.49356	0.82874	0.06754	0.816
Mof_Cu	Cu	0.18271	0.70624	0.11235	0.836
Mof_Cu	Cu	0.34778	0.83109	0.0874	0.819
Mof_Cu	Cu	0.89143	0.59466	0.25379	0.78
Mof_Cl	Cl	0.37485	0.81859	0.99214	-0.797
Mof_N 	N 	0.94992	0.5776	0.17223	-0.279
Mof_N 	N 	0.94664	0.51959	0.16215	-0.287
Mof_N 	N 	0.90855	0.5639	0.20171	-0.266
Mof_N 	N 	0.22111	0.70424	0.91605	-0.284
Mof_N 	N 	0.27642	0.75403	0.91098	-0.243
Mof_N 	N 	0.3176	0.73557	0.95779	-0.246
Mof_N 	N 	0.505	0.7544	0.04745	-0.252
Mof_N 	N 	0.54067	0.78494	0.07177	-0.254
Mof_N 	N 	0.61837	0.74144	0.08903	-0.286
Mof_N 	N 	0.96677	0.37352	0.08873	-0.248
Mof_N 	N 	0.90547	0.37213	0.10284	-0.254
Mof_N 	N 	0.94018	0.42772	0.10729	-0.29
Mof_N 	N 	0.11393	0.6307	0.19748	-0.272
Mof_N 	N 	0.05214	0.64835	0.1692	-0.279
Mof_N 	N 	0.14066	0.67466	0.15064	-0.277
Mof_N 	N 	0.79415	0.69774	0.1495	-0.29
Mof_N 	N 	0.886	0.66213	0.16457	-0.268
Mof_N 	N 	0.90666	0.69076	0.20015	-0.27
Mof_N 	N 	0.823	0.87607	0.1946	-0.331
Mof_H 	H 	0.8162	0.8925	0.2158	0.136
Mof_H 	H 	0.8619	0.8753	0.1871	0.134
Mof_N 	N 	0.8683	0.83324	0.3231	-0.33
Mof_H 	H 	0.9036	0.8473	0.3288	0.135
Mof_H 	H 	0.8371	0.8371	0.3391	0.138
Mof_N 	N 	0.174	0.58505	0.0456	-0.33
Mof_H 	H 	0.1656	0.6022	0.0219	0.153
Mof_H 	H 	0.2132	0.5736	0.0537	0.14
Mof_N 	N 	0.7611	0.44819	0.3094	-0.329
Mof_H 	H 	0.779	0.4287	0.3254	0.145
Mof_H 	H 	0.7217	0.4557	0.312	0.135
Mof_N 	N 	0.8552	0.77342	0.0385	-0.316
Mof_H 	H 	0.8159	0.7667	0.0141	0.112
Mof_H 	H 	0.8608	0.7951	0.0491	0.132
Mof_N 	N 	0.4237	0.59364	0.1016	-0.322
Mof_H 	H 	0.418	0.5724	0.0889	0.13
Mof_H 	H 	0.4533	0.5979	0.1347	0.132
Mof_N 	N 	0.4909	0.58668	0.9905	-0.328
Mof_H 	H 	0.5119	0.5698	0.0127	0.133
Mof_H 	H 	0.4594	0.582	0.9585	0.138
Mof_N 	N 	0.0219	0.7741	0.67464	-0.33
Mof_H 	H 	0.9969	0.7581	0.6526	0.129
Mof_H 	H 	0.0171	0.7958	0.6644	0.136
Mof_N 	N 	0.6483	0.57679	0.962	-0.325
Mof_H 	H 	0.6283	0.585	0.9285	0.132
Mof_H 	H 	0.6432	0.555	0.9691	0.127
Mof_N 	N 	0.6347	0.44263	0.1451	-0.326
Mof_H 	H 	0.6109	0.4604	0.1272	0.129
Mof_H 	H 	0.6181	0.43	0.1663	0.129
Mof_N 	N 	0.203	0.46393	0.0204	-0.341
Mof_H 	H 	0.2019	0.4859	0.0119	0.133
Mof_H 	H 	0.2375	0.4509	0.019	0.147
Mof_N 	N 	0.4318	0.5813	0.2813	-0.321
Mof_H 	H 	0.4458	0.5754	0.3163	0.128
Mof_H 	H 	0.4576	0.5765	0.2608	0.124
Mof_C 	C 	0.28362	0.70594	0.95935	0.125
Mof_C 	C 	0.3573	0.68332	0.05438	0.101
Mof_H 	H 	0.3632	0.7062	0.0686	-0.057
Mof_C 	C 	0.3848	0.62126	0.0684	0.206
Mof_C 	C 	0.3372	0.61489	0.0154	-0.231
Mof_H 	H 	0.328	0.5918	0.0025	0.099
Mof_C 	C 	0.31325	0.6773	0.99932	-0.178
Mof_C 	C 	0.3028	0.64252	0.98088	0.1
Mof_H 	H 	0.2721	0.6377	0.9447	-0.054
Mof_C 	C 	0.3926	0.65578	0.08834	-0.233
Mof_H 	H 	0.422	0.6604	0.125	0.098
Mof_C 	C 	0.21936	0.73444	0.88654	0.117
Mof_C 	C 	0.1652	0.7449	0.83339	-0.182
Mof_C 	C 	0.1244	0.71984	0.7959	0.086
Mof_H 	H 	0.1285	0.6962	0.8061	-0.063
Mof_C 	C 	0.0772	0.72991	0.743	-0.228
Mof_H 	H 	0.0505	0.7128	0.7185	0.074
Mof_C 	C 	0.1572	0.78	0.8159	0.1
Mof_H 	H 	0.1837	0.7973	0.84	-0.06
Mof_C 	C 	0.0699	0.76478	0.7268	0.202
Mof_C 	C 	0.1104	0.78976	0.7632	-0.247
Mof_H 	H 	0.1066	0.8133	0.7524	0.104
Mof_C 	C 	0.89076	0.40487	0.11283	0.125
Mof_C 	C 	0.8271	0.41542	0.12492	-0.19
Mof_C 	C 	0.8002	0.39562	0.1597	0.101
Mof_H 	H 	0.8245	0.3758	0.178	-0.047
Mof_C 	C 	0.7372	0.40532	0.1673	-0.24
Mof_H 	H 	0.72	0.3922	0.1913	0.096
Mof_C 	C 	0.7894	0.44481	0.0986	0.108
Mof_H 	H 	0.8071	0.4585	0.0756	-0.06
Mof_C 	C 	0.6995	0.4343	0.1397	0.214
Mof_C 	C 	0.7268	0.45416	0.1058	-0.246
Mof_H 	H 	0.7026	0.4741	0.0877	0.095
Mof_C 	C 	0.98564	0.40719	0.09095	0.157
Mof_C 	C 	0.0425	0.45648	0.0573	0.171
Mof_H 	H 	0.0058	0.471	0.0589	-0.092
Mof_C 	C 	0.0941	0.4701	0.039	-0.298
Mof_H 	H 	0.0918	0.4936	0.0281	0.119
Mof_C 	C 	0.0433	0.4212	0.07379	-0.225
Mof_C 	C 	0.0974	0.40026	0.0688	0.162
Mof_H 	H 	0.0982	0.3764	0.0775	-0.075
Mof_C 	C 	0.15	0.41395	0.0514	-0.288
Mof_H 	H 	0.1865	0.3995	0.0493	0.124
Mof_C 	C 	0.1492	0.44951	0.0366	0.247
Mof_C 	C 	0.7749	0.6431	0.08989	-0.189
Mof_C 	C 	0.7394	0.65547	0.03624	0.099
Mof_H 	H 	0.7439	0.6791	0.0281	-0.046
Mof_C 	C 	0.7687	0.60793	0.1	0.113
Mof_H 	H 	0.7939	0.5986	0.1353	-0.059
Mof_C 	C 	0.81857	0.66697	0.13459	0.127
Mof_C 	C 	0.6972	0.63371	0.9941	-0.24
Mof_H 	H 	0.6744	0.6427	0.9581	0.096
Mof_C 	C 	0.7254	0.5859	0.0586	-0.245
Mof_H 	H 	0.7207	0.5623	0.0668	0.095
Mof_C 	C 	0.689	0.599	0.0051	0.204
Mof_C 	C 	0.85158	0.74431	0.22119	-0.186
Mof_C 	C 	0.8007	0.7515	0.24606	0.101
Mof_H 	H 	0.7627	0.7362	0.2405	-0.054
Mof_C 	C 	0.8057	0.78081	0.27855	-0.255
Mof_H 	H 	0.7709	0.7852	0.2947	0.103
Mof_C 	C 	0.90682	0.76843	0.22926	0.097
Mof_H 	H 	0.9409	0.7645	0.2122	-0.035
Mof_C 	C 	0.85066	0.71151	0.19007	0.133
Mof_C 	C 	0.8616	0.80427	0.28799	0.213
Mof_C 	C 	0.9116	0.79779	0.2619	-0.237
Mof_H 	H 	0.9487	0.8136	0.2667	0.097
Mof_C 	C 	0.90723	0.52933	0.19469	0.125
Mof_C 	C 	0.8673	0.50648	0.22023	-0.184
Mof_C 	C 	0.894	0.47457	0.24581	0.095
Mof_H 	H 	0.9363	0.466	0.2431	-0.067
Mof_C 	C 	0.7959	0.46756	0.2793	0.214
Mof_C 	C 	0.803	0.51788	0.2235	0.099
Mof_H 	H 	0.7835	0.5389	0.2061	-0.041
Mof_C 	C 	0.859	0.45534	0.2753	-0.249
Mof_H 	H 	0.8779	0.4342	0.2923	0.095
Mof_C 	C 	0.7674	0.49874	0.2522	-0.24
Mof_H 	H 	0.724	0.5067	0.2534	0.099
Mof_C 	C 	0.0846	0.53785	0.13173	0.068
Mof_H 	H 	0.0926	0.5187	0.1562	-0.028
Mof_C 	C 	0.0618	0.59418	0.05786	-0.221
Mof_H 	H 	0.0537	0.6133	0.0333	0.094
Mof_C 	C 	0.0221	0.55627	0.11868	-0.189
Mof_C 	C 	0.97253	0.55062	0.14956	0.115
Mof_C 	C 	0.0111	0.58452	0.08084	0.073
Mof_H 	H 	0.9687	0.597	0.0711	-0.034
Mof_C 	C 	0.1245	0.57591	0.0708	0.203
Mof_C 	C 	0.136	0.54769	0.1085	-0.231
Mof_H 	H 	0.1785	0.5354	0.1183	0.098
Mof_C 	C 	0.53814	0.69225	0.04062	-0.187
Mof_C 	C 	0.4878	0.68355	0.98882	0.117
Mof_H 	H 	0.4636	0.7015	0.9649	-0.062
Mof_C 	C 	0.5733	0.66441	0.0747	0.113
Mof_H 	H 	0.6076	0.6692	0.1095	-0.064
Mof_C 	C 	0.5582	0.62978	0.0579	-0.243
Mof_H 	H 	0.5824	0.6117	0.0815	0.101
Mof_C 	C 	0.55308	0.72894	0.05829	0.136
Mof_C 	C 	0.4729	0.64899	0.97207	-0.246
Mof_H 	H 	0.439	0.644	0.9372	0.102
Mof_C 	C 	0.5078	0.62154	0.0066	0.22
Mof_C 	C 	0.60804	0.77614	0.09634	0.128
Mof_C 	C 	0.7288	0.80002	0.11425	0.114
Mof_H 	H 	0.7365	0.7824	0.0911	-0.064
Mof_C 	C 	0.7811	0.82452	0.1379	-0.247
Mof_H 	H 	0.8236	0.8233	0.1304	0.101
Mof_C 	C 	0.7714	0.85097	0.1725	0.222
Mof_C 	C 	0.7086	0.85185	0.1841	-0.251
Mof_H 	H 	0.7017	0.8691	0.208	0.102
Mof_C 	C 	0.6558	0.82738	0.16054	0.115
Mof_H 	H 	0.6139	0.8284	0.1688	-0.06
Mof_C 	C 	0.66481	0.80117	0.12448	-0.194
Mof_C 	C 	0.16588	0.64714	0.18602	0.14
Mof_C 	C 	0.23849	0.6341	0.21028	-0.18
Mof_C 	C 	0.2625	0.62438	0.2658	0.096
Mof_H 	H 	0.2355	0.6298	0.2886	-0.058
Mof_C 	C 	0.2796	0.62713	0.1769	0.099
Mof_H 	H 	0.2644	0.6338	0.1391	-0.026
Mof_C 	C 	0.3257	0.60664	0.2892	-0.252
Mof_H 	H 	0.3403	0.5999	0.3269	0.1
Mof_C 	C 	0.3664	0.5991	0.2573	0.2
Mof_C 	C 	0.3437	0.61	0.2007	-0.233
Mof_H 	H 	0.3723	0.6058	0.1788	0.099
Mof_C 	C 	0.0175	0.7004	0.10949	-0.192
Mof_C 	C 	0.0258	0.73562	0.12477	0.038
Mof_H 	H 	0.0679	0.7431	0.1514	-0.027
Mof_C 	C 	0.973	0.75966	0.1015	-0.21
Mof_H 	H 	0.9793	0.7831	0.1128	0.092
Mof_C 	C 	0.9021	0.714	0.0446	-0.225
Mof_H 	H 	0.8605	0.7067	0.0171	0.091
Mof_C 	C 	0.9104	0.74899	0.0612	0.181
Mof_C 	C 	0.06997	0.67438	0.14147	0.11
Mof_C 	C 	0.9553	0.68983	0.06855	0.079
Mof_H 	H 	0.9493	0.6664	0.0571	-0.039
Mof_Cu	Cu	0.46124	0.87165	0.66817	0.765
Mof_Cu	Cu	0.44743	0.0255	0.63263	0.826
Mof_Cu	Cu	0.90703	0.74533	0.50316	0.819
Mof_Cu	Cu	0.20492	0.78183	0.61899	0.827
Mof_Cu	Cu	0.99356	0.67126	0.56754	0.82
Mof_Cu	Cu	0.68271	0.79376	0.61235	0.835
Mof_Cu	Cu	0.84778	0.66891	0.5874	0.819
Mof_Cu	Cu	0.39143	0.90534	0.75379	0.779
Mof_Cl	Cl	0.87485	0.68141	0.49214	-0.794
Mof_N 	N 	0.44992	0.9224	0.67223	-0.28
Mof_N 	N 	0.44664	0.98041	0.66215	-0.288
Mof_N 	N 	0.40855	0.9361	0.70171	-0.267
Mof_N 	N 	0.72111	0.79576	0.41605	-0.284
Mof_N 	N 	0.77642	0.74597	0.41098	-0.243
Mof_N 	N 	0.8176	0.76443	0.45779	-0.246
Mof_N 	N 	0.005	0.7456	0.54745	-0.256
Mof_N 	N 	0.04067	0.71506	0.57177	-0.257
Mof_N 	N 	0.11837	0.75856	0.58903	-0.287
Mof_N 	N 	0.46677	0.12648	0.58873	-0.247
Mof_N 	N 	0.40547	0.12787	0.60284	-0.255
Mof_N 	N 	0.44018	0.07228	0.60729	-0.289
Mof_N 	N 	0.61393	0.8693	0.69748	-0.272
Mof_N 	N 	0.55214	0.85165	0.6692	-0.277
Mof_N 	N 	0.64066	0.82534	0.65064	-0.277
Mof_N 	N 	0.29415	0.80226	0.6495	-0.29
Mof_N 	N 	0.386	0.83787	0.66457	-0.269
Mof_N 	N 	0.40666	0.80924	0.70015	-0.272
Mof_N 	N 	0.323	0.62393	0.6946	-0.331
Mof_H 	H 	0.3162	0.6075	0.7158	0.135
Mof_H 	H 	0.3619	0.6247	0.6871	0.132
Mof_N 	N 	0.3683	0.66676	0.8231	-0.329
Mof_H 	H 	0.4036	0.6527	0.8288	0.134
Mof_H 	H 	0.3371	0.6629	0.8391	0.137
Mof_N 	N 	0.674	0.91495	0.5456	-0.331
Mof_H 	H 	0.6656	0.8978	0.5219	0.153
Mof_H 	H 	0.7132	0.9264	0.5537	0.14
Mof_N 	N 	0.2611	0.05181	0.8094	-0.328
Mof_H 	H 	0.279	0.0713	0.8254	0.145
Mof_H 	H 	0.2217	0.0443	0.812	0.134
Mof_N 	N 	0.3552	0.72658	0.5385	-0.316
Mof_H 	H 	0.3159	0.7333	0.5141	0.112
Mof_H 	H 	0.3608	0.7049	0.5491	0.132
Mof_N 	N 	0.9237	0.90636	0.6016	-0.324
Mof_H 	H 	0.918	0.9276	0.5889	0.133
Mof_H 	H 	0.9533	0.9021	0.6347	0.135
Mof_N 	N 	0.9909	0.91332	0.4905	-0.31
Mof_H 	H 	0.0119	0.9302	0.5127	0.122
Mof_H 	H 	0.9594	0.918	0.4585	0.136
Mof_N 	N 	0.5219	0.7259	0.17464	-0.32
Mof_H 	H 	0.4969	0.7419	0.1526	0.119
Mof_H 	H 	0.5171	0.7042	0.1644	0.137
Mof_N 	N 	0.1483	0.92321	0.462	-0.325
Mof_H 	H 	0.1283	0.915	0.4285	0.13
Mof_H 	H 	0.1432	0.945	0.4691	0.126
Mof_N 	N 	0.1347	0.05737	0.6451	-0.325
Mof_H 	H 	0.1109	0.0396	0.6272	0.127
Mof_H 	H 	0.1181	0.07	0.6663	0.127
Mof_N 	N 	0.703	0.03607	0.5204	-0.339
Mof_H 	H 	0.7019	0.0141	0.5119	0.132
Mof_H 	H 	0.7375	0.0491	0.519	0.147
Mof_N 	N 	0.9318	0.9187	0.7813	-0.322
Mof_H 	H 	0.9458	0.9246	0.8163	0.131
Mof_H 	H 	0.9576	0.9235	0.7608	0.128
Mof_C 	C 	0.78362	0.79406	0.45935	0.126
Mof_C 	C 	0.8573	0.81668	0.55438	0.101
Mof_H 	H 	0.8632	0.7938	0.5686	-0.056
Mof_C 	C 	0.8848	0.87874	0.5684	0.209
Mof_C 	C 	0.8372	0.88511	0.5154	-0.236
Mof_H 	H 	0.828	0.9082	0.5025	0.101
Mof_C 	C 	0.81325	0.8227	0.49932	-0.178
Mof_C 	C 	0.8028	0.85748	0.48088	0.104
Mof_H 	H 	0.7721	0.8623	0.4447	-0.055
Mof_C 	C 	0.8926	0.84422	0.58834	-0.234
Mof_H 	H 	0.922	0.8396	0.625	0.1
Mof_C 	C 	0.71936	0.76556	0.38654	0.117
Mof_C 	C 	0.6652	0.7551	0.33339	-0.181
Mof_C 	C 	0.6244	0.78016	0.2959	0.087
Mof_H 	H 	0.6285	0.8038	0.3061	-0.062
Mof_C 	C 	0.5772	0.77009	0.243	-0.227
Mof_H 	H 	0.5505	0.7872	0.2185	0.077
Mof_C 	C 	0.6572	0.72	0.3159	0.101
Mof_H 	H 	0.6837	0.7027	0.34	-0.06
Mof_C 	C 	0.5699	0.73522	0.2268	0.203
Mof_C 	C 	0.6104	0.71024	0.2632	-0.246
Mof_H 	H 	0.6066	0.6867	0.2524	0.104
Mof_C 	C 	0.39076	0.09513	0.61283	0.125
Mof_C 	C 	0.3271	0.08458	0.62492	-0.19
Mof_C 	C 	0.3002	0.10438	0.6597	0.1
Mof_H 	H 	0.3245	0.1242	0.678	-0.048
Mof_C 	C 	0.2372	0.09468	0.6673	-0.239
Mof_H 	H 	0.22	0.1078	0.6913	0.096
Mof_C 	C 	0.2894	0.05519	0.5986	0.107
Mof_H 	H 	0.3071	0.0415	0.5756	-0.06
Mof_C 	C 	0.1995	0.0657	0.6397	0.213
Mof_C 	C 	0.2268	0.04584	0.6058	-0.246
Mof_H 	H 	0.2026	0.0259	0.5877	0.095
Mof_C 	C 	0.48564	0.09281	0.59095	0.147
Mof_C 	C 	0.5425	0.04352	0.5573	0.163
Mof_H 	H 	0.5058	0.029	0.5589	-0.086
Mof_C 	C 	0.5941	0.0299	0.539	-0.29
Mof_H 	H 	0.5918	0.0064	0.5281	0.118
Mof_C 	C 	0.5433	0.0788	0.57379	-0.211
Mof_C 	C 	0.5974	0.09974	0.5688	0.153
Mof_H 	H 	0.5982	0.1236	0.5775	-0.071
Mof_C 	C 	0.65	0.08605	0.5514	-0.281
Mof_H 	H 	0.6865	0.1005	0.5493	0.121
Mof_C 	C 	0.6492	0.05049	0.5366	0.242
Mof_C 	C 	0.2749	0.8569	0.58989	-0.189
Mof_C 	C 	0.2394	0.84453	0.53624	0.099
Mof_H 	H 	0.2439	0.8209	0.5281	-0.046
Mof_C 	C 	0.2687	0.89207	0.6	0.113
Mof_H 	H 	0.2939	0.9014	0.6353	-0.059
Mof_C 	C 	0.31857	0.83303	0.63459	0.127
Mof_C 	C 	0.1972	0.86629	0.4941	-0.24
Mof_H 	H 	0.1744	0.8573	0.4581	0.096
Mof_C 	C 	0.2254	0.9141	0.5586	-0.245
Mof_H 	H 	0.2207	0.9377	0.5668	0.095
Mof_C 	C 	0.189	0.901	0.5051	0.204
Mof_C 	C 	0.35158	0.75569	0.72119	-0.186
Mof_C 	C 	0.3007	0.7485	0.74606	0.101
Mof_H 	H 	0.2627	0.7638	0.7405	-0.054
Mof_C 	C 	0.3057	0.71919	0.77855	-0.254
Mof_H 	H 	0.2709	0.7148	0.7947	0.103
Mof_C 	C 	0.40682	0.73157	0.72926	0.096
Mof_H 	H 	0.4409	0.7355	0.7122	-0.037
Mof_C 	C 	0.35066	0.78849	0.69007	0.133
Mof_C 	C 	0.3616	0.69573	0.78799	0.212
Mof_C 	C 	0.4116	0.70221	0.7619	-0.237
Mof_H 	H 	0.4487	0.6864	0.7667	0.094
Mof_C 	C 	0.40723	0.97067	0.69469	0.125
Mof_C 	C 	0.3673	0.99352	0.72023	-0.184
Mof_C 	C 	0.394	0.02543	0.74581	0.095
Mof_H 	H 	0.4363	0.034	0.7431	-0.069
Mof_C 	C 	0.2959	0.03244	0.7793	0.214
Mof_C 	C 	0.303	0.98212	0.7235	0.099
Mof_H 	H 	0.2835	0.9611	0.7061	-0.042
Mof_C 	C 	0.359	0.04466	0.7753	-0.25
Mof_H 	H 	0.3779	0.0658	0.7923	0.094
Mof_C 	C 	0.2674	0.00126	0.7522	-0.24
Mof_H 	H 	0.224	0.9933	0.7534	0.099
Mof_C 	C 	0.5846	0.96215	0.63173	0.069
Mof_H 	H 	0.5926	0.9813	0.6562	-0.027
Mof_C 	C 	0.5618	0.90582	0.55786	-0.229
Mof_H 	H 	0.5537	0.8867	0.5333	0.098
Mof_C 	C 	0.5221	0.94373	0.61868	-0.186
Mof_C 	C 	0.47253	0.94938	0.64956	0.109
Mof_C 	C 	0.5111	0.91548	0.58084	0.088
Mof_H 	H 	0.4687	0.903	0.5711	-0.043
Mof_C 	C 	0.6245	0.92409	0.5708	0.206
Mof_C 	C 	0.636	0.95231	0.6085	-0.233
Mof_H 	H 	0.6785	0.9646	0.6183	0.099
Mof_C 	C 	0.03814	0.80775	0.54062	-0.194
Mof_C 	C 	0.9878	0.81645	0.48882	0.121
Mof_H 	H 	0.9636	0.7985	0.4649	-0.061
Mof_C 	C 	0.0733	0.83559	0.5747	0.108
Mof_H 	H 	0.1076	0.8308	0.6095	-0.063
Mof_C 	C 	0.0582	0.87022	0.5579	-0.232
Mof_H 	H 	0.0824	0.8883	0.5815	0.096
Mof_C 	C 	0.05308	0.77106	0.55829	0.135
Mof_C 	C 	0.9729	0.85101	0.47207	-0.226
Mof_H 	H 	0.939	0.856	0.4372	0.097
Mof_C 	C 	0.0078	0.87846	0.5066	0.196
Mof_C 	C 	0.10804	0.72386	0.59634	0.128
Mof_C 	C 	0.2288	0.69998	0.61425	0.114
Mof_H 	H 	0.2365	0.7176	0.5911	-0.064
Mof_C 	C 	0.2811	0.67548	0.6379	-0.247
Mof_H 	H 	0.3236	0.6767	0.6304	0.1
Mof_C 	C 	0.2714	0.64903	0.6725	0.222
Mof_C 	C 	0.2086	0.64815	0.6841	-0.252
Mof_H 	H 	0.2017	0.6309	0.708	0.102
Mof_C 	C 	0.1558	0.67262	0.66054	0.115
Mof_H 	H 	0.1139	0.6716	0.6688	-0.062
Mof_C 	C 	0.16481	0.69883	0.62448	-0.195
Mof_C 	C 	0.66588	0.85286	0.68602	0.14
Mof_C 	C 	0.73849	0.8659	0.71028	-0.181
Mof_C 	C 	0.7625	0.87562	0.7658	0.097
Mof_H 	H 	0.7355	0.8702	0.7886	-0.058
Mof_C 	C 	0.7796	0.87287	0.6769	0.1
Mof_H 	H 	0.7644	0.8662	0.6391	-0.026
Mof_C 	C 	0.8257	0.89336	0.7892	-0.253
Mof_H 	H 	0.8403	0.9001	0.8269	0.101
Mof_C 	C 	0.8664	0.9009	0.7573	0.203
Mof_C 	C 	0.8437	0.89	0.7007	-0.234
Mof_H 	H 	0.8723	0.8942	0.6788	0.1
Mof_C 	C 	0.5175	0.7996	0.60949	-0.186
Mof_C 	C 	0.5258	0.76438	0.62477	0.049
Mof_H 	H 	0.5679	0.7569	0.6514	-0.029
Mof_C 	C 	0.473	0.74034	0.6015	-0.222
Mof_H 	H 	0.4793	0.7169	0.6128	0.094
Mof_C 	C 	0.4021	0.786	0.5446	-0.223
Mof_H 	H 	0.3605	0.7933	0.5171	0.091
Mof_C 	C 	0.4104	0.75101	0.5612	0.183
Mof_C 	C 	0.56997	0.82562	0.64147	0.109
Mof_C 	C 	0.4553	0.81017	0.56855	0.07
Mof_H 	H 	0.4493	0.8336	0.5571	-0.037
Mof_Cu	Cu	0.96124	0.37165	0.66817	0.769
Mof_Cu	Cu	0.94743	0.5255	0.63263	0.828
Mof_Cu	Cu	0.40703	0.24533	0.50316	0.817
Mof_Cu	Cu	0.70492	0.28183	0.61899	0.827
Mof_Cu	Cu	0.49356	0.17126	0.56754	0.816
Mof_Cu	Cu	0.18271	0.29376	0.61235	0.835
Mof_Cu	Cu	0.34778	0.16891	0.5874	0.819
Mof_Cu	Cu	0.89143	0.40534	0.75379	0.78
Mof_Cl	Cl	0.37485	0.18141	0.49214	-0.795
Mof_N 	N 	0.94992	0.4224	0.67223	-0.279
Mof_N 	N 	0.94664	0.48041	0.66215	-0.287
Mof_N 	N 	0.90855	0.4361	0.70171	-0.266
Mof_N 	N 	0.22111	0.29576	0.41605	-0.284
Mof_N 	N 	0.27642	0.24597	0.41098	-0.243
Mof_N 	N 	0.3176	0.26443	0.45779	-0.246
Mof_N 	N 	0.505	0.2456	0.54745	-0.252
Mof_N 	N 	0.54067	0.21506	0.57177	-0.254
Mof_N 	N 	0.61837	0.25856	0.58903	-0.286
Mof_N 	N 	0.96677	0.62648	0.58873	-0.248
Mof_N 	N 	0.90547	0.62787	0.60284	-0.254
Mof_N 	N 	0.94018	0.57228	0.60729	-0.29
Mof_N 	N 	0.11393	0.3693	0.69748	-0.272
Mof_N 	N 	0.05214	0.35165	0.6692	-0.279
Mof_N 	N 	0.14066	0.32534	0.65064	-0.277
Mof_N 	N 	0.79415	0.30226	0.6495	-0.29
Mof_N 	N 	0.886	0.33787	0.66457	-0.268
Mof_N 	N 	0.90666	0.30924	0.70015	-0.27
Mof_N 	N 	0.823	0.12393	0.6946	-0.331
Mof_H 	H 	0.8162	0.1075	0.7158	0.136
Mof_H 	H 	0.8619	0.1247	0.6871	0.134
Mof_N 	N 	0.8683	0.16676	0.8231	-0.33
Mof_H 	H 	0.9036	0.1527	0.8288	0.136
Mof_H 	H 	0.8371	0.1629	0.8391	0.138
Mof_N 	N 	0.174	0.41495	0.5456	-0.33
Mof_H 	H 	0.1656	0.3978	0.5219	0.152
Mof_H 	H 	0.2132	0.4264	0.5537	0.14
Mof_N 	N 	0.7611	0.55181	0.8094	-0.329
Mof_H 	H 	0.779	0.5713	0.8254	0.145
Mof_H 	H 	0.7217	0.5443	0.812	0.135
Mof_N 	N 	0.8552	0.22658	0.5385	-0.316
Mof_H 	H 	0.8159	0.2333	0.5141	0.112
Mof_H 	H 	0.8608	0.2049	0.5491	0.132
Mof_N 	N 	0.4237	0.40636	0.6016	-0.322
Mof_H 	H 	0.418	0.4276	0.5889	0.13
Mof_H 	H 	0.4533	0.4021	0.6347	0.132
Mof_N 	N 	0.4909	0.41332	0.4905	-0.327
Mof_H 	H 	0.5119	0.4302	0.5127	0.132
Mof_H 	H 	0.4594	0.418	0.4585	0.138
Mof_N 	N 	0.0219	0.2259	0.17464	-0.327
Mof_H 	H 	0.9969	0.2419	0.1526	0.127
Mof_H 	H 	0.0171	0.2042	0.1644	0.136
Mof_N 	N 	0.6483	0.42321	0.462	-0.325
Mof_H 	H 	0.6283	0.415	0.4285	0.132
Mof_H 	H 	0.6432	0.445	0.4691	0.127
Mof_N 	N 	0.6347	0.55737	0.6451	-0.326
Mof_H 	H 	0.6109	0.5396	0.6272	0.129
Mof_H 	H 	0.6181	0.57	0.6663	0.129
Mof_N 	N 	0.203	0.53607	0.5204	-0.341
Mof_H 	H 	0.2019	0.5141	0.5119	0.132
Mof_H 	H 	0.2375	0.5491	0.519	0.147
Mof_N 	N 	0.4318	0.4187	0.7813	-0.321
Mof_H 	H 	0.4458	0.4246	0.8163	0.128
Mof_H 	H 	0.4576	0.4235	0.7608	0.124
Mof_C 	C 	0.28362	0.29406	0.45935	0.125
Mof_C 	C 	0.3573	0.31668	0.55438	0.099
Mof_H 	H 	0.3632	0.2938	0.5686	-0.057
Mof_C 	C 	0.3848	0.37874	0.5684	0.206
Mof_C 	C 	0.3372	0.38511	0.5154	-0.234
Mof_H 	H 	0.328	0.4082	0.5025	0.1
Mof_C 	C 	0.31325	0.3227	0.49932	-0.177
Mof_C 	C 	0.3028	0.35748	0.48088	0.103
Mof_H 	H 	0.2721	0.3623	0.4447	-0.055
Mof_C 	C 	0.3926	0.34422	0.58834	-0.233
Mof_H 	H 	0.422	0.3396	0.625	0.098
Mof_C 	C 	0.21936	0.26556	0.38654	0.117
Mof_C 	C 	0.1652	0.2551	0.33339	-0.181
Mof_C 	C 	0.1244	0.28016	0.2959	0.086
Mof_H 	H 	0.1285	0.3038	0.3061	-0.062
Mof_C 	C 	0.0772	0.27009	0.243	-0.228
Mof_H 	H 	0.0505	0.2872	0.2185	0.075
Mof_C 	C 	0.1572	0.22	0.3159	0.101
Mof_H 	H 	0.1837	0.2027	0.34	-0.06
Mof_C 	C 	0.0699	0.23522	0.2268	0.202
Mof_C 	C 	0.1104	0.21024	0.2632	-0.247
Mof_H 	H 	0.1066	0.1867	0.2524	0.104
Mof_C 	C 	0.89076	0.59513	0.61283	0.125
Mof_C 	C 	0.8271	0.58458	0.62492	-0.19
Mof_C 	C 	0.8002	0.60438	0.6597	0.101
Mof_H 	H 	0.8245	0.6242	0.678	-0.047
Mof_C 	C 	0.7372	0.59468	0.6673	-0.24
Mof_H 	H 	0.72	0.6078	0.6913	0.096
Mof_C 	C 	0.7894	0.55519	0.5986	0.108
Mof_H 	H 	0.8071	0.5415	0.5756	-0.06
Mof_C 	C 	0.6995	0.5657	0.6397	0.214
Mof_C 	C 	0.7268	0.54584	0.6058	-0.246
Mof_H 	H 	0.7026	0.5259	0.5877	0.095
Mof_C 	C 	0.98564	0.59281	0.59095	0.161
Mof_C 	C 	0.0425	0.54352	0.5573	0.174
Mof_H 	H 	0.0058	0.529	0.5589	-0.094
Mof_C 	C 	0.0941	0.5299	0.539	-0.3
Mof_H 	H 	0.0918	0.5064	0.5281	0.12
Mof_C 	C 	0.0433	0.5788	0.57379	-0.229
Mof_C 	C 	0.0974	0.59974	0.5688	0.164
Mof_H 	H 	0.0982	0.6236	0.5775	-0.076
Mof_C 	C 	0.15	0.58605	0.5514	-0.29
Mof_H 	H 	0.1865	0.6005	0.5493	0.124
Mof_C 	C 	0.1492	0.55049	0.5366	0.248
Mof_C 	C 	0.7749	0.3569	0.58989	-0.19
Mof_C 	C 	0.7394	0.34453	0.53624	0.1
Mof_H 	H 	0.7439	0.3209	0.5281	-0.047
Mof_C 	C 	0.7687	0.39207	0.6	0.113
Mof_H 	H 	0.7939	0.4014	0.6353	-0.059
Mof_C 	C 	0.81857	0.33303	0.63459	0.127
Mof_C 	C 	0.6972	0.36629	0.4941	-0.241
Mof_H 	H 	0.6744	0.3573	0.4581	0.096
Mof_C 	C 	0.7254	0.4141	0.5586	-0.245
Mof_H 	H 	0.7207	0.4377	0.5668	0.095
Mof_C 	C 	0.689	0.401	0.5051	0.204
Mof_C 	C 	0.85158	0.25569	0.72119	-0.186
Mof_C 	C 	0.8007	0.2485	0.74606	0.101
Mof_H 	H 	0.7627	0.2638	0.7405	-0.054
Mof_C 	C 	0.8057	0.21919	0.77855	-0.255
Mof_H 	H 	0.7709	0.2148	0.7947	0.103
Mof_C 	C 	0.90682	0.23157	0.72926	0.097
Mof_H 	H 	0.9409	0.2355	0.7122	-0.035
Mof_C 	C 	0.85066	0.28849	0.69007	0.133
Mof_C 	C 	0.8616	0.19573	0.78799	0.213
Mof_C 	C 	0.9116	0.20221	0.7619	-0.237
Mof_H 	H 	0.9487	0.1864	0.7667	0.097
Mof_C 	C 	0.90723	0.47067	0.69469	0.126
Mof_C 	C 	0.8673	0.49352	0.72023	-0.183
Mof_C 	C 	0.894	0.52543	0.74581	0.095
Mof_H 	H 	0.9363	0.534	0.7431	-0.066
Mof_C 	C 	0.7959	0.53244	0.7793	0.214
Mof_C 	C 	0.803	0.48212	0.7235	0.098
Mof_H 	H 	0.7835	0.4611	0.7061	-0.041
Mof_C 	C 	0.859	0.54466	0.7753	-0.249
Mof_H 	H 	0.8779	0.5658	0.7923	0.096
Mof_C 	C 	0.7674	0.50126	0.7522	-0.24
Mof_H 	H 	0.724	0.4933	0.7534	0.099
Mof_C 	C 	0.0846	0.46215	0.63173	0.068
Mof_H 	H 	0.0926	0.4813	0.6562	-0.028
Mof_C 	C 	0.0618	0.40582	0.55786	-0.217
Mof_H 	H 	0.0537	0.3867	0.5333	0.092
Mof_C 	C 	0.0221	0.44373	0.61868	-0.189
Mof_C 	C 	0.97253	0.44938	0.64956	0.117
Mof_C 	C 	0.0111	0.41548	0.58084	0.066
Mof_H 	H 	0.9687	0.403	0.5711	-0.03
Mof_C 	C 	0.1245	0.42409	0.5708	0.2
Mof_C 	C 	0.136	0.45231	0.6085	-0.23
Mof_H 	H 	0.1785	0.4646	0.6183	0.098
Mof_C 	C 	0.53814	0.30775	0.54062	-0.188
Mof_C 	C 	0.4878	0.31645	0.48882	0.117
Mof_H 	H 	0.4636	0.2985	0.4649	-0.062
Mof_C 	C 	0.5733	0.33559	0.5747	0.113
Mof_H 	H 	0.6076	0.3308	0.6095	-0.064
Mof_C 	C 	0.5582	0.37022	0.5579	-0.241
Mof_H 	H 	0.5824	0.3883	0.5815	0.1
Mof_C 	C 	0.55308	0.27106	0.55829	0.136
Mof_C 	C 	0.4729	0.35101	0.47207	-0.244
Mof_H 	H 	0.439	0.356	0.4372	0.101
Mof_C 	C 	0.5078	0.37846	0.5066	0.218
Mof_C 	C 	0.60804	0.22386	0.59634	0.128
Mof_C 	C 	0.7288	0.19998	0.61425	0.114
Mof_H 	H 	0.7365	0.2176	0.5911	-0.064
Mof_C 	C 	0.7811	0.17548	0.6379	-0.247
Mof_H 	H 	0.8236	0.1767	0.6304	0.101
Mof_C 	C 	0.7714	0.14903	0.6725	0.222
Mof_C 	C 	0.7086	0.14815	0.6841	-0.251
Mof_H 	H 	0.7017	0.1309	0.708	0.102
Mof_C 	C 	0.6558	0.17262	0.66054	0.115
Mof_H 	H 	0.6139	0.1716	0.6688	-0.06
Mof_C 	C 	0.66481	0.19883	0.62448	-0.194
Mof_C 	C 	0.16588	0.35286	0.68602	0.14
Mof_C 	C 	0.23849	0.3659	0.71028	-0.18
Mof_C 	C 	0.2625	0.37562	0.7658	0.096
Mof_H 	H 	0.2355	0.3702	0.7886	-0.058
Mof_C 	C 	0.2796	0.37287	0.6769	0.099
Mof_H 	H 	0.2644	0.3662	0.6391	-0.026
Mof_C 	C 	0.3257	0.39336	0.7892	-0.252
Mof_H 	H 	0.3403	0.4001	0.8269	0.1
Mof_C 	C 	0.3664	0.4009	0.7573	0.2
Mof_C 	C 	0.3437	0.39	0.7007	-0.233
Mof_H 	H 	0.3723	0.3942	0.6788	0.099
Mof_C 	C 	0.0175	0.2996	0.60949	-0.194
Mof_C 	C 	0.0258	0.26438	0.62477	0.035
Mof_H 	H 	0.0679	0.2569	0.6514	-0.026
Mof_C 	C 	0.973	0.24034	0.6015	-0.206
Mof_H 	H 	0.9793	0.2169	0.6128	0.092
Mof_C 	C 	0.9021	0.286	0.5446	-0.225
Mof_H 	H 	0.8605	0.2933	0.5171	0.092
Mof_C 	C 	0.9104	0.25101	0.5612	0.18
Mof_C 	C 	0.06997	0.32562	0.64147	0.11
Mof_C 	C 	0.9553	0.31017	0.56855	0.083
Mof_H 	H 	0.9493	0.3336	0.5571	-0.04
Mof_Cu	Cu	0.53876	0.87165	0.83183	0.765
Mof_Cu	Cu	0.55257	0.0255	0.86737	0.826
Mof_Cu	Cu	0.09297	0.74533	0.99684	0.813
Mof_Cu	Cu	0.79508	0.78183	0.88101	0.827
Mof_Cu	Cu	0.00644	0.67126	0.93246	0.811
Mof_Cu	Cu	0.31729	0.79376	0.88765	0.835
Mof_Cu	Cu	0.15222	0.66891	0.9126	0.818
Mof_Cu	Cu	0.60857	0.90534	0.74621	0.779
Mof_Cl	Cl	0.12515	0.68141	0.00786	-0.795
Mof_N 	N 	0.55008	0.9224	0.82777	-0.28
Mof_N 	N 	0.55336	0.98041	0.83785	-0.288
Mof_N 	N 	0.59145	0.9361	0.79829	-0.267
Mof_N 	N 	0.27889	0.79576	0.08395	-0.284
Mof_N 	N 	0.22358	0.74597	0.08902	-0.243
Mof_N 	N 	0.1824	0.76443	0.04221	-0.245
Mof_N 	N 	0.995	0.7456	0.95255	-0.248
Mof_N 	N 	0.95933	0.71506	0.92823	-0.251
Mof_N 	N 	0.88163	0.75856	0.91097	-0.286
Mof_N 	N 	0.53323	0.12648	0.91127	-0.247
Mof_N 	N 	0.59453	0.12787	0.89716	-0.255
Mof_N 	N 	0.55982	0.07228	0.89271	-0.289
Mof_N 	N 	0.38607	0.8693	0.80252	-0.271
Mof_N 	N 	0.44786	0.85165	0.8308	-0.277
Mof_N 	N 	0.35934	0.82534	0.84936	-0.277
Mof_N 	N 	0.70585	0.80226	0.8505	-0.29
Mof_N 	N 	0.614	0.83787	0.83543	-0.269
Mof_N 	N 	0.59334	0.80924	0.79985	-0.272
Mof_N 	N 	0.677	0.62393	0.8054	-0.33
Mof_H 	H 	0.6838	0.6075	0.7842	0.135
Mof_H 	H 	0.6381	0.6247	0.8129	0.132
Mof_N 	N 	0.6317	0.66676	0.6769	-0.329
Mof_H 	H 	0.5964	0.6527	0.6712	0.134
Mof_H 	H 	0.6629	0.6629	0.6609	0.137
Mof_N 	N 	0.326	0.91495	0.9544	-0.331
Mof_H 	H 	0.3344	0.8978	0.9781	0.152
Mof_H 	H 	0.2868	0.9264	0.9463	0.14
Mof_N 	N 	0.7389	0.05181	0.6906	-0.329
Mof_H 	H 	0.721	0.0713	0.6746	0.145
Mof_H 	H 	0.7783	0.0443	0.688	0.136
Mof_N 	N 	0.6448	0.72658	0.9615	-0.316
Mof_H 	H 	0.6841	0.7333	0.9859	0.112
Mof_H 	H 	0.6392	0.7049	0.9509	0.132
Mof_N 	N 	0.0763	0.90636	0.8984	-0.321
Mof_H 	H 	0.082	0.9276	0.9111	0.127
Mof_H 	H 	0.0467	0.9021	0.8653	0.128
Mof_N 	N 	0.0091	0.91332	0.0095	-0.342
Mof_H 	H 	0.9881	0.9302	0.9873	0.142
Mof_H 	H 	0.0406	0.918	0.0415	0.141
Mof_N 	N 	0.4781	0.7259	0.32536	-0.32
Mof_H 	H 	0.5031	0.7419	0.3474	0.119
Mof_H 	H 	0.4829	0.7042	0.3356	0.137
Mof_N 	N 	0.8517	0.92321	0.038	-0.327
Mof_H 	H 	0.8717	0.915	0.0715	0.133
Mof_H 	H 	0.8568	0.945	0.0309	0.128
Mof_N 	N 	0.8653	0.05737	0.8549	-0.327
Mof_H 	H 	0.8891	0.0396	0.8728	0.131
Mof_H 	H 	0.8819	0.07	0.8337	0.131
Mof_N 	N 	0.297	0.03607	0.9796	-0.339
Mof_H 	H 	0.2981	0.0141	0.9881	0.131
Mof_H 	H 	0.2625	0.0491	0.981	0.146
Mof_N 	N 	0.0682	0.9187	0.7187	-0.319
Mof_H 	H 	0.0542	0.9246	0.6837	0.125
Mof_H 	H 	0.0424	0.9235	0.7392	0.12
Mof_C 	C 	0.21638	0.79406	0.04065	0.125
Mof_C 	C 	0.1427	0.81668	0.94562	0.093
Mof_H 	H 	0.1368	0.7938	0.9314	-0.056
Mof_C 	C 	0.1152	0.87874	0.9316	0.203
Mof_C 	C 	0.1628	0.88511	0.9846	-0.237
Mof_H 	H 	0.172	0.9082	0.9975	0.099
Mof_C 	C 	0.18675	0.8227	0.00068	-0.173
Mof_C 	C 	0.1972	0.85748	0.01912	0.104
Mof_H 	H 	0.2279	0.8623	0.0553	-0.055
Mof_C 	C 	0.1074	0.84422	0.91166	-0.23
Mof_H 	H 	0.078	0.8396	0.875	0.095
Mof_C 	C 	0.28064	0.76556	0.11346	0.117
Mof_C 	C 	0.3348	0.7551	0.16661	-0.181
Mof_C 	C 	0.3756	0.78016	0.2041	0.087
Mof_H 	H 	0.3715	0.8038	0.1939	-0.062
Mof_C 	C 	0.4228	0.77009	0.257	-0.226
Mof_H 	H 	0.4495	0.7872	0.2815	0.077
Mof_C 	C 	0.3428	0.72	0.1841	0.101
Mof_H 	H 	0.3163	0.7027	0.16	-0.06
Mof_C 	C 	0.4301	0.73522	0.2732	0.203
Mof_C 	C 	0.3896	0.71024	0.2368	-0.246
Mof_H 	H 	0.3934	0.6867	0.2476	0.104
Mof_C 	C 	0.60924	0.09513	0.88717	0.125
Mof_C 	C 	0.6729	0.08458	0.87508	-0.191
Mof_C 	C 	0.6998	0.10438	0.8403	0.101
Mof_H 	H 	0.6755	0.1242	0.822	-0.048
Mof_C 	C 	0.7628	0.09468	0.8327	-0.241
Mof_H 	H 	0.78	0.1078	0.8087	0.097
Mof_C 	C 	0.7106	0.05519	0.9014	0.109
Mof_H 	H 	0.6929	0.0415	0.9244	-0.06
Mof_C 	C 	0.8005	0.0657	0.8603	0.215
Mof_C 	C 	0.7732	0.04584	0.8942	-0.247
Mof_H 	H 	0.7974	0.0259	0.9123	0.096
Mof_C 	C 	0.51436	0.09281	0.90905	0.147
Mof_C 	C 	0.4575	0.04352	0.9427	0.163
Mof_H 	H 	0.4942	0.029	0.9411	-0.086
Mof_C 	C 	0.4059	0.0299	0.961	-0.29
Mof_H 	H 	0.4082	0.0064	0.9719	0.118
Mof_C 	C 	0.4567	0.0788	0.92621	-0.211
Mof_C 	C 	0.4026	0.09974	0.9312	0.153
Mof_H 	H 	0.4018	0.1236	0.9225	-0.071
Mof_C 	C 	0.35	0.08605	0.9486	-0.281
Mof_H 	H 	0.3135	0.1005	0.9507	0.121
Mof_C 	C 	0.3508	0.05049	0.9634	0.241
Mof_C 	C 	0.7251	0.8569	0.91011	-0.192
Mof_C 	C 	0.7606	0.84453	0.96376	0.103
Mof_H 	H 	0.7561	0.8209	0.9719	-0.048
Mof_C 	C 	0.7313	0.89207	0.9	0.116
Mof_H 	H 	0.7061	0.9014	0.8647	-0.06
Mof_C 	C 	0.68143	0.83303	0.86541	0.128
Mof_C 	C 	0.8028	0.86629	0.0059	-0.246
Mof_H 	H 	0.8256	0.8573	0.0419	0.098
Mof_C 	C 	0.7746	0.9141	0.9414	-0.248
Mof_H 	H 	0.7793	0.9377	0.9332	0.097
Mof_C 	C 	0.811	0.901	0.9949	0.208
Mof_C 	C 	0.64842	0.75569	0.77881	-0.186
Mof_C 	C 	0.6993	0.7485	0.75394	0.101
Mof_H 	H 	0.7373	0.7638	0.7595	-0.054
Mof_C 	C 	0.6943	0.71919	0.72145	-0.254
Mof_H 	H 	0.7291	0.7148	0.7053	0.103
Mof_C 	C 	0.59318	0.73157	0.77074	0.096
Mof_H 	H 	0.5591	0.7355	0.7878	-0.037
Mof_C 	C 	0.64934	0.78849	0.80993	0.133
Mof_C 	C 	0.6384	0.69573	0.71201	0.212
Mof_C 	C 	0.5884	0.70221	0.7381	-0.237
Mof_H 	H 	0.5513	0.6864	0.7333	0.094
Mof_C 	C 	0.59277	0.97067	0.80531	0.125
Mof_C 	C 	0.6327	0.99352	0.77977	-0.185
Mof_C 	C 	0.606	0.02543	0.75419	0.096
Mof_H 	H 	0.5637	0.034	0.7569	-0.069
Mof_C 	C 	0.7041	0.03244	0.7207	0.215
Mof_C 	C 	0.697	0.98212	0.7765	0.099
Mof_H 	H 	0.7165	0.9611	0.7939	-0.042
Mof_C 	C 	0.641	0.04466	0.7247	-0.25
Mof_H 	H 	0.6221	0.0658	0.7077	0.094
Mof_C 	C 	0.7326	0.00126	0.7478	-0.241
Mof_H 	H 	0.776	0.9933	0.7466	0.1
Mof_C 	C 	0.4154	0.96215	0.86827	0.069
Mof_H 	H 	0.4074	0.9813	0.8438	-0.027
Mof_C 	C 	0.4382	0.90582	0.94214	-0.228
Mof_H 	H 	0.4463	0.8867	0.9667	0.097
Mof_C 	C 	0.4779	0.94373	0.88132	-0.186
Mof_C 	C 	0.52747	0.94938	0.85044	0.109
Mof_C 	C 	0.4889	0.91548	0.91916	0.088
Mof_H 	H 	0.5313	0.903	0.9289	-0.043
Mof_C 	C 	0.3755	0.92409	0.9292	0.205
Mof_C 	C 	0.364	0.95231	0.8915	-0.232
Mof_H 	H 	0.3215	0.9646	0.8817	0.098
Mof_C 	C 	0.96186	0.80775	0.95938	-0.182
Mof_C 	C 	0.0122	0.81645	0.01118	0.115
Mof_H 	H 	0.0364	0.7985	0.0351	-0.063
Mof_C 	C 	0.9267	0.83559	0.9253	0.118
Mof_H 	H 	0.8924	0.8308	0.8905	-0.065
Mof_C 	C 	0.9418	0.87022	0.9421	-0.25
Mof_H 	H 	0.9176	0.8883	0.9185	0.104
Mof_C 	C 	0.94692	0.77106	0.94171	0.136
Mof_C 	C 	0.0271	0.85101	0.02793	-0.261
Mof_H 	H 	0.061	0.856	0.0628	0.106
Mof_C 	C 	0.9922	0.87846	0.9934	0.24
Mof_C 	C 	0.89196	0.72386	0.90366	0.128
Mof_C 	C 	0.7712	0.69998	0.88575	0.113
Mof_H 	H 	0.7635	0.7176	0.9089	-0.063
Mof_C 	C 	0.7189	0.67548	0.8621	-0.245
Mof_H 	H 	0.6764	0.6767	0.8696	0.1
Mof_C 	C 	0.7286	0.64903	0.8275	0.221
Mof_C 	C 	0.7914	0.64815	0.8159	-0.25
Mof_H 	H 	0.7983	0.6309	0.792	0.102
Mof_C 	C 	0.8442	0.67262	0.83946	0.114
Mof_H 	H 	0.8861	0.6716	0.8312	-0.058
Mof_C 	C 	0.83519	0.69883	0.87552	-0.192
Mof_C 	C 	0.33412	0.85286	0.81398	0.14
Mof_C 	C 	0.26151	0.8659	0.78972	-0.18
Mof_C 	C 	0.2375	0.87562	0.7342	0.095
Mof_H 	H 	0.2645	0.8702	0.7114	-0.058
Mof_C 	C 	0.2204	0.87287	0.8231	0.098
Mof_H 	H 	0.2356	0.8662	0.8609	-0.025
Mof_C 	C 	0.1743	0.89336	0.7108	-0.251
Mof_H 	H 	0.1597	0.9001	0.6731	0.099
Mof_C 	C 	0.1336	0.9009	0.7427	0.198
Mof_C 	C 	0.1563	0.89	0.7993	-0.232
Mof_H 	H 	0.1277	0.8942	0.8212	0.098
Mof_C 	C 	0.4825	0.7996	0.89051	-0.186
Mof_C 	C 	0.4742	0.76438	0.87523	0.049
Mof_H 	H 	0.4321	0.7569	0.8486	-0.029
Mof_C 	C 	0.527	0.74034	0.8985	-0.222
Mof_H 	H 	0.5207	0.7169	0.8872	0.094
Mof_C 	C 	0.5979	0.786	0.9554	-0.223
Mof_H 	H 	0.6395	0.7933	0.9829	0.091
Mof_C 	C 	0.5896	0.75101	0.9388	0.183
Mof_C 	C 	0.43003	0.82562	0.85853	0.109
Mof_C 	C 	0.5447	0.81017	0.93145	0.07
Mof_H 	H 	0.5507	0.8336	0.9429	-0.038
Mof_Cu	Cu	0.03876	0.37165	0.83183	0.762
Mof_Cu	Cu	0.05257	0.5255	0.86737	0.823
Mof_Cu	Cu	0.59297	0.24533	0.99684	0.817
Mof_Cu	Cu	0.29508	0.28183	0.88101	0.827
Mof_Cu	Cu	0.50644	0.17126	0.93246	0.816
Mof_Cu	Cu	0.81729	0.29376	0.88765	0.836
Mof_Cu	Cu	0.65222	0.16891	0.9126	0.819
Mof_Cu	Cu	0.10857	0.40534	0.74621	0.778
Mof_Cl	Cl	0.62515	0.18141	0.00786	-0.795
Mof_N 	N 	0.05008	0.4224	0.82777	-0.28
Mof_N 	N 	0.05336	0.48041	0.83785	-0.288
Mof_N 	N 	0.09145	0.4361	0.79829	-0.268
Mof_N 	N 	0.77889	0.29576	0.08395	-0.284
Mof_N 	N 	0.72358	0.24597	0.08902	-0.243
Mof_N 	N 	0.6824	0.26443	0.04221	-0.246
Mof_N 	N 	0.495	0.2456	0.95255	-0.253
Mof_N 	N 	0.45933	0.21506	0.92823	-0.254
Mof_N 	N 	0.38163	0.25856	0.91097	-0.287
Mof_N 	N 	0.03323	0.62648	0.91127	-0.247
Mof_N 	N 	0.09453	0.62787	0.89716	-0.255
Mof_N 	N 	0.05982	0.57228	0.89271	-0.289
Mof_N 	N 	0.88607	0.3693	0.80252	-0.271
Mof_N 	N 	0.94786	0.35165	0.8308	-0.273
Mof_N 	N 	0.85934	0.32534	0.84936	-0.276
Mof_N 	N 	0.20585	0.30226	0.8505	-0.29
Mof_N 	N 	0.114	0.33787	0.83543	-0.269
Mof_N 	N 	0.09334	0.30924	0.79985	-0.273
Mof_N 	N 	0.177	0.12393	0.8054	-0.33
Mof_H 	H 	0.1838	0.1075	0.7842	0.134
Mof_H 	H 	0.1381	0.1247	0.8129	0.131
Mof_N 	N 	0.1317	0.16676	0.6769	-0.329
Mof_H 	H 	0.0964	0.1527	0.6712	0.132
Mof_H 	H 	0.1629	0.1629	0.6609	0.137
Mof_N 	N 	0.826	0.41495	0.9544	-0.332
Mof_H 	H 	0.8344	0.3978	0.9781	0.153
Mof_H 	H 	0.7868	0.4264	0.9463	0.141
Mof_N 	N 	0.2389	0.55181	0.6906	-0.329
Mof_H 	H 	0.221	0.5713	0.6746	0.145
Mof_H 	H 	0.2783	0.5443	0.688	0.135
Mof_N 	N 	0.1448	0.22658	0.9615	-0.316
Mof_H 	H 	0.1841	0.2333	0.9859	0.111
Mof_H 	H 	0.1392	0.2049	0.9509	0.131
Mof_N 	N 	0.5763	0.40636	0.8984	-0.322
Mof_H 	H 	0.582	0.4276	0.9111	0.13
Mof_H 	H 	0.5467	0.4021	0.8653	0.132
Mof_N 	N 	0.5091	0.41332	0.0095	-0.325
Mof_H 	H 	0.4881	0.4302	0.9873	0.131
Mof_H 	H 	0.5406	0.418	0.0415	0.138
Mof_N 	N 	0.9781	0.2259	0.32536	-0.313
Mof_H 	H 	0.0031	0.2419	0.3474	0.11
Mof_H 	H 	0.9829	0.2042	0.3356	0.137
Mof_N 	N 	0.3517	0.42321	0.038	-0.323
Mof_H 	H 	0.3717	0.415	0.0715	0.131
Mof_H 	H 	0.3568	0.445	0.0309	0.127
Mof_N 	N 	0.3653	0.55737	0.8549	-0.326
Mof_H 	H 	0.3891	0.5396	0.8728	0.129
Mof_H 	H 	0.3819	0.57	0.8337	0.129
Mof_N 	N 	0.797	0.53607	0.9796	-0.338
Mof_H 	H 	0.7981	0.5141	0.9881	0.132
Mof_H 	H 	0.7625	0.5491	0.981	0.146
Mof_N 	N 	0.5682	0.4187	0.7187	-0.321
Mof_H 	H 	0.5542	0.4246	0.6837	0.128
Mof_H 	H 	0.5424	0.4235	0.7392	0.124
Mof_C 	C 	0.71638	0.29406	0.04065	0.125
Mof_C 	C 	0.6427	0.31668	0.94562	0.099
Mof_H 	H 	0.6368	0.2938	0.9314	-0.057
Mof_C 	C 	0.6152	0.37874	0.9316	0.206
Mof_C 	C 	0.6628	0.38511	0.9846	-0.234
Mof_H 	H 	0.672	0.4082	0.9975	0.1
Mof_C 	C 	0.68675	0.3227	0.00068	-0.177
Mof_C 	C 	0.6972	0.35748	0.01912	0.103
Mof_H 	H 	0.7279	0.3623	0.0553	-0.055
Mof_C 	C 	0.6074	0.34422	0.91166	-0.233
Mof_H 	H 	0.578	0.3396	0.875	0.098
Mof_C 	C 	0.78064	0.26556	0.11346	0.117
Mof_C 	C 	0.8348	0.2551	0.16661	-0.181
Mof_C 	C 	0.8756	0.28016	0.2041	0.087
Mof_H 	H 	0.8715	0.3038	0.1939	-0.061
Mof_C 	C 	0.9228	0.27009	0.257	-0.225
Mof_H 	H 	0.9495	0.2872	0.2815	0.079
Mof_C 	C 	0.8428	0.22	0.1841	0.101
Mof_H 	H 	0.8163	0.2027	0.16	-0.06
Mof_C 	C 	0.9301	0.23522	0.2732	0.203
Mof_C 	C 	0.8896	0.21024	0.2368	-0.245
Mof_H 	H 	0.8934	0.1867	0.2476	0.105
Mof_C 	C 	0.10924	0.59513	0.88717	0.124
Mof_C 	C 	0.1729	0.58458	0.87508	-0.191
Mof_C 	C 	0.1998	0.60438	0.8403	0.101
Mof_H 	H 	0.1755	0.6242	0.822	-0.049
Mof_C 	C 	0.2628	0.59468	0.8327	-0.24
Mof_H 	H 	0.28	0.6078	0.8087	0.096
Mof_C 	C 	0.2106	0.55519	0.9014	0.109
Mof_H 	H 	0.1929	0.5415	0.9244	-0.061
Mof_C 	C 	0.3005	0.5657	0.8603	0.214
Mof_C 	C 	0.2732	0.54584	0.8942	-0.247
Mof_H 	H 	0.2974	0.5259	0.9123	0.095
Mof_C 	C 	0.01436	0.59281	0.90905	0.131
Mof_C 	C 	0.9575	0.54352	0.9427	0.151
Mof_H 	H 	0.9942	0.529	0.9411	-0.078
Mof_C 	C 	0.9059	0.5299	0.961	-0.28
Mof_H 	H 	0.9082	0.5064	0.9719	0.116
Mof_C 	C 	0.9567	0.5788	0.92621	-0.19
Mof_C 	C 	0.9026	0.59974	0.9312	0.14
Mof_H 	H 	0.9018	0.6236	0.9225	-0.064
Mof_C 	C 	0.85	0.58605	0.9486	-0.271
Mof_H 	H 	0.8135	0.6005	0.9507	0.118
Mof_C 	C 	0.8508	0.55049	0.9634	0.236
Mof_C 	C 	0.2251	0.3569	0.91011	-0.185
Mof_C 	C 	0.2606	0.34453	0.96376	0.09
Mof_H 	H 	0.2561	0.3209	0.9719	-0.044
Mof_C 	C 	0.2313	0.39207	0.9	0.107
Mof_H 	H 	0.2061	0.4014	0.8647	-0.057
Mof_C 	C 	0.18143	0.33303	0.86541	0.125
Mof_C 	C 	0.3028	0.36629	0.0059	-0.229
Mof_H 	H 	0.3256	0.3573	0.0419	0.093
Mof_C 	C 	0.2746	0.4141	0.9414	-0.239
Mof_H 	H 	0.2793	0.4377	0.9332	0.093
Mof_C 	C 	0.311	0.401	0.9949	0.196
Mof_C 	C 	0.14842	0.25569	0.77881	-0.186
Mof_C 	C 	0.1993	0.2485	0.75394	0.101
Mof_H 	H 	0.2373	0.2638	0.7595	-0.054
Mof_C 	C 	0.1943	0.21919	0.72145	-0.254
Mof_H 	H 	0.2291	0.2148	0.7053	0.102
Mof_C 	C 	0.09318	0.23157	0.77074	0.095
Mof_H 	H 	0.0591	0.2355	0.7878	-0.039
Mof_C 	C 	0.14934	0.28849	0.80993	0.133
Mof_C 	C 	0.1384	0.19573	0.71201	0.21
Mof_C 	C 	0.0884	0.20221	0.7381	-0.237
Mof_H 	H 	0.0513	0.1864	0.7333	0.091
Mof_C 	C 	0.09277	0.47067	0.80531	0.124
Mof_C 	C 	0.1327	0.49352	0.77977	-0.185
Mof_C 	C 	0.106	0.52543	0.75419	0.096
Mof_H 	H 	0.0637	0.534	0.7569	-0.072
Mof_C 	C 	0.2041	0.53244	0.7207	0.215
Mof_C 	C 	0.197	0.48212	0.7765	0.099
Mof_H 	H 	0.2165	0.4611	0.7939	-0.042
Mof_C 	C 	0.141	0.54466	0.7247	-0.251
Mof_H 	H 	0.1221	0.5658	0.7077	0.093
Mof_C 	C 	0.2326	0.50126	0.7478	-0.241
Mof_H 	H 	0.276	0.4933	0.7466	0.099
Mof_C 	C 	0.9154	0.46215	0.86827	0.071
Mof_H 	H 	0.9074	0.4813	0.8438	-0.026
Mof_C 	C 	0.9382	0.40582	0.94214	-0.243
Mof_H 	H 	0.9463	0.3867	0.9667	0.105
Mof_C 	C 	0.9779	0.44373	0.88132	-0.184
Mof_C 	C 	0.02747	0.44938	0.85044	0.1
Mof_C 	C 	0.9889	0.41548	0.91916	0.115
Mof_H 	H 	0.0313	0.403	0.9289	-0.059
Mof_C 	C 	0.8755	0.42409	0.9292	0.213
Mof_C 	C 	0.864	0.45231	0.8915	-0.237
Mof_H 	H 	0.8215	0.4646	0.8817	0.1
Mof_C 	C 	0.46186	0.30775	0.95938	-0.189
Mof_C 	C 	0.5122	0.31645	0.01118	0.117
Mof_H 	H 	0.5364	0.2985	0.0351	-0.062
Mof_C 	C 	0.4267	0.33559	0.9253	0.112
Mof_H 	H 	0.3924	0.3308	0.8905	-0.064
Mof_C 	C 	0.4418	0.37022	0.9421	-0.241
Mof_H 	H 	0.4176	0.3883	0.9185	0.1
Mof_C 	C 	0.44692	0.27106	0.94171	0.136
Mof_C 	C 	0.5271	0.35101	0.02793	-0.242
Mof_H 	H 	0.561	0.356	0.0628	0.101
Mof_C 	C 	0.4922	0.37846	0.9934	0.216
Mof_C 	C 	0.39196	0.22386	0.90366	0.128
Mof_C 	C 	0.2712	0.19998	0.88575	0.113
Mof_H 	H 	0.2635	0.2176	0.9089	-0.064
Mof_C 	C 	0.2189	0.17548	0.8621	-0.246
Mof_H 	H 	0.1764	0.1767	0.8696	0.099
Mof_C 	C 	0.2286	0.14903	0.8275	0.221
Mof_C 	C 	0.2914	0.14815	0.8159	-0.25
Mof_H 	H 	0.2983	0.1309	0.792	0.102
Mof_C 	C 	0.3442	0.17262	0.83946	0.114
Mof_H 	H 	0.3861	0.1716	0.8312	-0.06
Mof_C 	C 	0.33519	0.19883	0.87552	-0.193
Mof_C 	C 	0.83412	0.35286	0.81398	0.14
Mof_C 	C 	0.76151	0.3659	0.78972	-0.18
Mof_C 	C 	0.7375	0.37562	0.7342	0.096
Mof_H 	H 	0.7645	0.3702	0.7114	-0.058
Mof_C 	C 	0.7204	0.37287	0.8231	0.099
Mof_H 	H 	0.7356	0.3662	0.8609	-0.026
Mof_C 	C 	0.6743	0.39336	0.7108	-0.252
Mof_H 	H 	0.6597	0.4001	0.6731	0.1
Mof_C 	C 	0.6336	0.4009	0.7427	0.2
Mof_C 	C 	0.6563	0.39	0.7993	-0.233
Mof_H 	H 	0.6277	0.3942	0.8212	0.099
Mof_C 	C 	0.9825	0.2996	0.89051	-0.177
Mof_C 	C 	0.9742	0.26438	0.87523	0.064
Mof_H 	H 	0.9321	0.2569	0.8486	-0.033
Mof_C 	C 	0.027	0.24034	0.8985	-0.24
Mof_H 	H 	0.0207	0.2169	0.8872	0.096
Mof_C 	C 	0.0979	0.286	0.9554	-0.22
Mof_H 	H 	0.1395	0.2933	0.9829	0.088
Mof_C 	C 	0.0896	0.25101	0.9388	0.184
Mof_C 	C 	0.93003	0.32562	0.85853	0.109
Mof_C 	C 	0.0447	0.31017	0.93145	0.055
Mof_H 	H 	0.0507	0.3336	0.9429	-0.035
Mof_Cu	Cu	0.5	0.19225	0.25	0.772
Mof_Cu	Cu	1.2649e-17	0.69225	0.25	0.769
Mof_Cu	Cu	0.5	0.80775	0.75	0.772
Mof_Cu	Cu	4.69433e-33	0.30775	0.75	0.768
_end
