data_functionalizedCrystal
_audit_creation_method	'EQeq! by Chris Wilmer'
_symmetry_space_group_name_H-M	'P1'
_symmetry_Int_Tables_number	1
_symmetry_cell_setting	triclinic
loop_
_symmetry_equiv_pos_as_xyz
  x,y,z
_cell_length_a	19.9482
_cell_length_b	19.9482
_cell_length_c	45.448
_cell_angle_alpha	93.4203
_cell_angle_beta	93.4203
_cell_angle_gamma	96.6125
loop_
_atom_site_label
_atom_site_type_symbol
_atom_site_fract_x
_atom_site_fract_y
_atom_site_fract_z
_atom_site_charge
Mof_Cu	Cu	0.47372	0.90742	0.3145	0.904
Mof_Cu	Cu	0.3383	0.88494	0.30543	0.896
Mof_Cu	Cu	0.90742	0.47372	0.8145	0.904
Mof_Cu	Cu	0.88494	0.3383	0.80543	0.896
Mof_H 	H 	0.4852	0.0626	0.3839	0.03
Mof_H 	H 	0.4747	0.1385	0.4236	0.079
Mof_H 	H 	0.2724	0.0978	0.4131	0.08
Mof_H 	H 	0.2829	0.0219	0.3734	0.03
Mof_H 	H 	0.4635	0.3619	0.5383	0.061
Mof_H 	H 	0.462	0.2766	0.5012	0.048
Mof_H 	H 	0.2591	0.2629	0.4923	0.048
Mof_H 	H 	0.2606	0.3482	0.5294	0.059
Mof_H 	H 	0.3111	0.7257	0.3645	0.037
Mof_H 	H 	0.3047	0.6611	0.4053	0.076
Mof_H 	H 	0.4866	0.7522	0.4376	0.073
Mof_H 	H 	0.4929	0.8169	0.3968	0.039
Mof_H 	H 	0.266	0.4794	0.5298	0.058
Mof_H 	H 	0.2711	0.5567	0.4936	0.049
Mof_H 	H 	0.4739	0.5827	0.5054	0.05
Mof_H 	H 	0.4688	0.5054	0.5416	0.061
Mof_H 	H 	0.7493	0.5229	0.7517	0.028
Mof_H 	H 	0.6711	0.5329	0.7128	0.083
Mof_H 	H 	0.6604	0.3332	0.6917	0.092
Mof_H 	H 	0.7386	0.3232	0.7306	0.027
Mof_H 	H 	0.0367	0.3121	0.7417	0.028
Mof_H 	H 	0.0959	0.3129	0.6993	0.081
Mof_H 	H 	0.0737	0.5093	0.6928	0.082
Mof_H 	H 	0.0145	0.5085	0.7352	0.028
Mof_H 	H 	0.292	0.3204	0.5824	0.06
Mof_H 	H 	0.212	0.316	0.6175	0.049
Mof_H 	H 	0.2154	0.518	0.619	0.048
Mof_H 	H 	0.2954	0.5224	0.5839	0.06
Mof_H 	H 	0.4237	0.3307	0.5854	0.06
Mof_H 	H 	0.5054	0.3366	0.6243	0.056
Mof_H 	H 	0.5149	0.5393	0.6299	0.049
Mof_H 	H 	0.4333	0.5335	0.591	0.06
Mof_H 	H 	0.0626	0.4852	0.8839	0.031
Mof_H 	H 	0.1385	0.4747	0.9236	0.08
Mof_H 	H 	0.0978	0.2724	0.9131	0.08
Mof_H 	H 	0.0219	0.2829	0.8734	0.03
Mof_H 	H 	0.3619	0.4635	0.0383	0.061
Mof_H 	H 	0.2766	0.462	0.0012	0.048
Mof_H 	H 	0.2629	0.2591	0.9923	0.048
Mof_H 	H 	0.3482	0.2606	0.0294	0.059
Mof_H 	H 	0.7257	0.3111	0.8645	0.037
Mof_H 	H 	0.6611	0.3047	0.9053	0.076
Mof_H 	H 	0.7522	0.4866	0.9376	0.073
Mof_H 	H 	0.8169	0.4929	0.8968	0.039
Mof_H 	H 	0.4794	0.266	0.0298	0.058
Mof_H 	H 	0.5567	0.2711	0.9936	0.049
Mof_H 	H 	0.5827	0.4739	0.0054	0.05
Mof_H 	H 	0.5054	0.4688	0.0416	0.061
Mof_H 	H 	0.5229	0.7493	0.2517	0.028
Mof_H 	H 	0.5329	0.6711	0.2128	0.083
Mof_H 	H 	0.3332	0.6604	0.1917	0.092
Mof_H 	H 	0.3232	0.7386	0.2306	0.027
Mof_H 	H 	0.3121	0.0367	0.2417	0.028
Mof_H 	H 	0.3129	0.0959	0.1993	0.081
Mof_H 	H 	0.5093	0.0737	0.1928	0.082
Mof_H 	H 	0.5085	0.0145	0.2352	0.028
Mof_H 	H 	0.3204	0.292	0.0824	0.06
Mof_H 	H 	0.316	0.212	0.1175	0.049
Mof_H 	H 	0.518	0.2154	0.119	0.048
Mof_H 	H 	0.5224	0.2954	0.0839	0.06
Mof_H 	H 	0.3307	0.4237	0.0854	0.06
Mof_H 	H 	0.3366	0.5054	0.1243	0.056
Mof_H 	H 	0.5393	0.5149	0.1299	0.049
Mof_H 	H 	0.5335	0.4333	0.091	0.06
Mof_C 	C 	0.3851	0.0347	0.37472	-0.106
Mof_C 	C 	0.4426	0.0696	0.3898	0.047
Mof_C 	C 	0.4363	0.1151	0.4136	-0.131
Mof_C 	C 	0.3725	0.1257	0.4223	0.087
Mof_C 	C 	0.315	0.0908	0.4072	-0.133
Mof_C 	C 	0.3213	0.0453	0.3835	0.05
Mof_C 	C 	0.3622	0.3636	0.53754	0.05
Mof_C 	C 	0.4225	0.3421	0.5291	-0.082
Mof_C 	C 	0.4216	0.291	0.5069	-0.045
Mof_C 	C 	0.3604	0.2614	0.49307	0.017
Mof_C 	C 	0.3001	0.2827	0.5015	-0.045
Mof_C 	C 	0.301	0.3338	0.5238	-0.078
Mof_C 	C 	0.4026	0.7778	0.37664	-0.076
Mof_C 	C 	0.3463	0.7311	0.3792	0.027
Mof_C 	C 	0.3425	0.6923	0.4036	-0.117
Mof_C 	C 	0.395	0.7002	0.4254	0.075
Mof_C 	C 	0.4514	0.747	0.4229	-0.117
Mof_C 	C 	0.4551	0.7857	0.3985	0.023
Mof_C 	C 	0.3669	0.4847	0.53928	0.05
Mof_C 	C 	0.3077	0.5001	0.5249	-0.077
Mof_C 	C 	0.3107	0.5465	0.5032	-0.047
Mof_C 	C 	0.373	0.5774	0.4959	0.019
Mof_C 	C 	0.4322	0.562	0.5103	-0.047
Mof_C 	C 	0.4291	0.5157	0.532	-0.078
Mof_C 	C 	0.7517	0.4221	0.74503	-0.107
Mof_C 	C 	0.7315	0.4849	0.7397	0.05
Mof_C 	C 	0.6846	0.4908	0.7164	-0.138
Mof_C 	C 	0.658	0.434	0.69843	0.102
Mof_C 	C 	0.6782	0.3712	0.7038	-0.142
Mof_C 	C 	0.7251	0.3653	0.7271	0.056
Mof_C 	C 	0.0198	0.4102	0.74269	-0.107
Mof_C 	C 	0.0441	0.3517	0.7319	0.051
Mof_C 	C 	0.0796	0.3522	0.7065	-0.136
Mof_C 	C 	0.0907	0.4113	0.69187	0.093
Mof_C 	C 	0.0664	0.4698	0.7026	-0.136
Mof_C 	C 	0.0309	0.4693	0.728	0.05
Mof_C 	C 	0.3016	0.4218	0.57969	0.051
Mof_C 	C 	0.2766	0.36	0.5897	-0.078
Mof_C 	C 	0.2287	0.3573	0.6108	-0.044
Mof_C 	C 	0.2058	0.4166	0.6217	0.016
Mof_C 	C 	0.2308	0.4784	0.6117	-0.044
Mof_C 	C 	0.2788	0.481	0.5906	-0.078
Mof_C 	C 	0.4204	0.4316	0.58433	0.053
Mof_C 	C 	0.442	0.3726	0.5943	-0.076
Mof_C 	C 	0.4909	0.3761	0.6176	-0.044
Mof_C 	C 	0.5182	0.4386	0.63099	0.017
Mof_C 	C 	0.4966	0.4976	0.621	-0.043
Mof_C 	C 	0.4478	0.494	0.5977	-0.078
Mof_C 	C 	0.3636	0.4264	0.5603	-0.073
Mof_C 	C 	0.3939	0.9857	0.35	0.326
Mof_C 	C 	0.4095	0.8193	0.35	0.287
Mof_C 	C 	0.8041	0.4187	0.7706	0.325
Mof_C 	C 	0.9771	0.4091	0.7689	0.328
Mof_C 	C 	0.3674	0.213	0.4692	-0.006
Mof_C 	C 	0.369	0.175	0.4479	-0.043
Mof_C 	C 	0.3857	0.6223	0.4722	-0.011
Mof_C 	C 	0.3895	0.6573	0.4508	-0.039
Mof_C 	C 	0.1223	0.4127	0.6644	-0.048
Mof_C 	C 	0.1663	0.4157	0.6469	-0.003
Mof_C 	C 	0.5696	0.4452	0.6555	0.003
Mof_C 	C 	0.6116	0.4412	0.6754	-0.052
Mof_C 	C 	0.0347	0.3851	0.87472	-0.106
Mof_C 	C 	0.0696	0.4426	0.8898	0.047
Mof_C 	C 	0.1151	0.4363	0.9136	-0.131
Mof_C 	C 	0.1257	0.3725	0.9223	0.087
Mof_C 	C 	0.0908	0.315	0.9072	-0.133
Mof_C 	C 	0.0453	0.3213	0.8835	0.05
Mof_C 	C 	0.3636	0.3622	0.03754	0.051
Mof_C 	C 	0.3421	0.4225	0.0291	-0.082
Mof_C 	C 	0.291	0.4216	0.0069	-0.045
Mof_C 	C 	0.2614	0.3604	0.99307	0.017
Mof_C 	C 	0.2827	0.3001	0.0015	-0.045
Mof_C 	C 	0.3338	0.301	0.0238	-0.078
Mof_C 	C 	0.7778	0.4026	0.87664	-0.076
Mof_C 	C 	0.7311	0.3463	0.8792	0.027
Mof_C 	C 	0.6923	0.3425	0.9036	-0.117
Mof_C 	C 	0.7002	0.395	0.9254	0.075
Mof_C 	C 	0.747	0.4514	0.9229	-0.117
Mof_C 	C 	0.7857	0.4551	0.8985	0.023
Mof_C 	C 	0.4847	0.3669	0.03928	0.05
Mof_C 	C 	0.5001	0.3077	0.0249	-0.077
Mof_C 	C 	0.5465	0.3107	0.0032	-0.047
Mof_C 	C 	0.5774	0.373	0.9959	0.019
Mof_C 	C 	0.562	0.4322	0.0103	-0.047
Mof_C 	C 	0.5157	0.4291	0.032	-0.078
Mof_C 	C 	0.4221	0.7517	0.24503	-0.107
Mof_C 	C 	0.4849	0.7315	0.2397	0.05
Mof_C 	C 	0.4908	0.6846	0.2164	-0.138
Mof_C 	C 	0.434	0.658	0.19843	0.102
Mof_C 	C 	0.3712	0.6782	0.2038	-0.142
Mof_C 	C 	0.3653	0.7251	0.2271	0.056
Mof_C 	C 	0.4102	0.0198	0.24269	-0.107
Mof_C 	C 	0.3517	0.0441	0.2319	0.051
Mof_C 	C 	0.3522	0.0796	0.2065	-0.136
Mof_C 	C 	0.4113	0.0907	0.19187	0.093
Mof_C 	C 	0.4698	0.0664	0.2026	-0.136
Mof_C 	C 	0.4693	0.0309	0.228	0.05
Mof_C 	C 	0.4218	0.3016	0.07969	0.051
Mof_C 	C 	0.36	0.2766	0.0897	-0.078
Mof_C 	C 	0.3573	0.2287	0.1108	-0.044
Mof_C 	C 	0.4166	0.2058	0.1217	0.016
Mof_C 	C 	0.4784	0.2308	0.1117	-0.044
Mof_C 	C 	0.481	0.2788	0.0906	-0.078
Mof_C 	C 	0.4316	0.4204	0.08433	0.053
Mof_C 	C 	0.3726	0.442	0.0943	-0.076
Mof_C 	C 	0.3761	0.4909	0.1176	-0.044
Mof_C 	C 	0.4386	0.5182	0.13099	0.017
Mof_C 	C 	0.4976	0.4966	0.121	-0.043
Mof_C 	C 	0.494	0.4478	0.0977	-0.078
Mof_C 	C 	0.4264	0.3636	0.0603	-0.073
Mof_C 	C 	0.9857	0.3939	0.85	0.326
Mof_C 	C 	0.8193	0.4095	0.85	0.287
Mof_C 	C 	0.4187	0.8041	0.2706	0.325
Mof_C 	C 	0.4091	0.9771	0.2689	0.328
Mof_C 	C 	0.213	0.3674	0.9692	-0.006
Mof_C 	C 	0.175	0.369	0.9479	-0.043
Mof_C 	C 	0.6223	0.3857	0.9722	-0.011
Mof_C 	C 	0.6573	0.3895	0.9508	-0.039
Mof_C 	C 	0.4127	0.1223	0.1644	-0.048
Mof_C 	C 	0.4157	0.1663	0.1469	-0.003
Mof_C 	C 	0.4452	0.5696	0.1555	0.003
Mof_C 	C 	0.4412	0.6116	0.1754	-0.052
Mof_O 	O 	0.4527	0.9813	0.342	-0.397
Mof_O 	O 	0.3359	0.9527	0.3391	-0.383
Mof_O 	O 	0.3512	0.8158	0.3351	-0.378
Mof_O 	O 	0.4693	0.8513	0.3473	-0.384
Mof_O 	O 	0.8297	0.4735	0.7871	-0.389
Mof_O 	O 	0.8216	0.3604	0.7747	-0.404
Mof_O 	O 	0.9628	0.4662	0.7808	-0.392
Mof_O 	O 	0.957	0.3508	0.7779	-0.393
Mof_O 	O 	0.9813	0.4527	0.842	-0.397
Mof_O 	O 	0.9527	0.3359	0.8391	-0.383
Mof_O 	O 	0.8158	0.3512	0.8351	-0.378
Mof_O 	O 	0.8513	0.4693	0.8473	-0.384
Mof_O 	O 	0.4735	0.8297	0.2871	-0.389
Mof_O 	O 	0.3604	0.8216	0.2747	-0.404
Mof_O 	O 	0.4662	0.9628	0.2808	-0.392
Mof_O 	O 	0.3508	0.957	0.2779	-0.393
Mof_Cu	Cu	0.09258	0.52628	0.1855	0.905
Mof_Cu	Cu	0.11506	0.6617	0.19457	0.897
Mof_Cu	Cu	0.52628	0.09258	0.6855	0.905
Mof_Cu	Cu	0.6617	0.11506	0.69457	0.897
Mof_H 	H 	0.9374	0.5148	0.1161	0.031
Mof_H 	H 	0.8615	0.5253	0.0764	0.08
Mof_H 	H 	0.9022	0.7276	0.0869	0.08
Mof_H 	H 	0.9781	0.7171	0.1266	0.03
Mof_H 	H 	0.6381	0.5365	0.9617	0.061
Mof_H 	H 	0.7234	0.538	0.9988	0.048
Mof_H 	H 	0.7371	0.7409	0.0077	0.048
Mof_H 	H 	0.6518	0.7394	0.9706	0.059
Mof_H 	H 	0.2743	0.6889	0.1355	0.037
Mof_H 	H 	0.3389	0.6953	0.0947	0.076
Mof_H 	H 	0.2478	0.5134	0.0624	0.073
Mof_H 	H 	0.1831	0.5071	0.1032	0.039
Mof_H 	H 	0.5206	0.734	0.9702	0.058
Mof_H 	H 	0.4433	0.7289	0.0064	0.049
Mof_H 	H 	0.4173	0.5261	0.9946	0.05
Mof_H 	H 	0.4946	0.5312	0.9584	0.061
Mof_H 	H 	0.4771	0.2507	0.7483	0.028
Mof_H 	H 	0.4671	0.3289	0.7872	0.083
Mof_H 	H 	0.6668	0.3396	0.8083	0.092
Mof_H 	H 	0.6768	0.2614	0.7694	0.027
Mof_H 	H 	0.6879	0.9633	0.7583	0.028
Mof_H 	H 	0.6871	0.9041	0.8007	0.081
Mof_H 	H 	0.4907	0.9263	0.8072	0.082
Mof_H 	H 	0.4915	0.9855	0.7648	0.028
Mof_H 	H 	0.6796	0.708	0.9176	0.06
Mof_H 	H 	0.684	0.788	0.8825	0.049
Mof_H 	H 	0.482	0.7846	0.881	0.048
Mof_H 	H 	0.4776	0.7046	0.9161	0.06
Mof_H 	H 	0.6693	0.5763	0.9146	0.06
Mof_H 	H 	0.6634	0.4946	0.8757	0.056
Mof_H 	H 	0.4607	0.4851	0.8701	0.049
Mof_H 	H 	0.4665	0.5667	0.909	0.06
Mof_H 	H 	0.5148	0.9374	0.6161	0.031
Mof_H 	H 	0.5253	0.8615	0.5764	0.08
Mof_H 	H 	0.7276	0.9022	0.5869	0.08
Mof_H 	H 	0.7171	0.9781	0.6266	0.03
Mof_H 	H 	0.5365	0.6381	0.4617	0.061
Mof_H 	H 	0.538	0.7234	0.4988	0.048
Mof_H 	H 	0.7409	0.7371	0.5077	0.048
Mof_H 	H 	0.7394	0.6518	0.4706	0.059
Mof_H 	H 	0.6889	0.2743	0.6355	0.037
Mof_H 	H 	0.6953	0.3389	0.5947	0.076
Mof_H 	H 	0.5134	0.2478	0.5624	0.073
Mof_H 	H 	0.5071	0.1831	0.6032	0.039
Mof_H 	H 	0.734	0.5206	0.4702	0.058
Mof_H 	H 	0.7289	0.4433	0.5064	0.049
Mof_H 	H 	0.5261	0.4173	0.4946	0.05
Mof_H 	H 	0.5312	0.4946	0.4584	0.061
Mof_H 	H 	0.2507	0.4771	0.2483	0.028
Mof_H 	H 	0.3289	0.4671	0.2872	0.083
Mof_H 	H 	0.3396	0.6668	0.3083	0.092
Mof_H 	H 	0.2614	0.6768	0.2694	0.027
Mof_H 	H 	0.9633	0.6879	0.2583	0.028
Mof_H 	H 	0.9041	0.6871	0.3007	0.081
Mof_H 	H 	0.9263	0.4907	0.3072	0.082
Mof_H 	H 	0.9855	0.4915	0.2648	0.028
Mof_H 	H 	0.708	0.6796	0.4176	0.06
Mof_H 	H 	0.788	0.684	0.3825	0.049
Mof_H 	H 	0.7846	0.482	0.381	0.048
Mof_H 	H 	0.7046	0.4776	0.4161	0.06
Mof_H 	H 	0.5763	0.6693	0.4146	0.06
Mof_H 	H 	0.4946	0.6634	0.3757	0.056
Mof_H 	H 	0.4851	0.4607	0.3701	0.049
Mof_H 	H 	0.5667	0.4665	0.409	0.06
Mof_C 	C 	0.9653	0.6149	0.12528	-0.106
Mof_C 	C 	0.9304	0.5574	0.1102	0.047
Mof_C 	C 	0.8849	0.5637	0.0864	-0.131
Mof_C 	C 	0.8743	0.6275	0.0777	0.087
Mof_C 	C 	0.9092	0.685	0.0928	-0.133
Mof_C 	C 	0.9547	0.6787	0.1165	0.05
Mof_C 	C 	0.6364	0.6378	0.96246	0.051
Mof_C 	C 	0.6579	0.5775	0.9709	-0.082
Mof_C 	C 	0.709	0.5784	0.9931	-0.045
Mof_C 	C 	0.7386	0.6396	0.00693	0.017
Mof_C 	C 	0.7173	0.6999	0.9985	-0.045
Mof_C 	C 	0.6662	0.699	0.9762	-0.078
Mof_C 	C 	0.2222	0.5974	0.12336	-0.076
Mof_C 	C 	0.2689	0.6537	0.1208	0.027
Mof_C 	C 	0.3077	0.6575	0.0964	-0.117
Mof_C 	C 	0.2998	0.605	0.0746	0.075
Mof_C 	C 	0.253	0.5486	0.0771	-0.117
Mof_C 	C 	0.2143	0.5449	0.1015	0.023
Mof_C 	C 	0.5153	0.6331	0.96072	0.05
Mof_C 	C 	0.4999	0.6923	0.9751	-0.077
Mof_C 	C 	0.4535	0.6893	0.9968	-0.047
Mof_C 	C 	0.4226	0.627	0.0041	0.019
Mof_C 	C 	0.438	0.5678	0.9897	-0.047
Mof_C 	C 	0.4843	0.5709	0.968	-0.078
Mof_C 	C 	0.5779	0.2483	0.75497	-0.107
Mof_C 	C 	0.5151	0.2685	0.7603	0.05
Mof_C 	C 	0.5092	0.3154	0.7836	-0.138
Mof_C 	C 	0.566	0.342	0.80157	0.102
Mof_C 	C 	0.6288	0.3218	0.7962	-0.142
Mof_C 	C 	0.6347	0.2749	0.7729	0.056
Mof_C 	C 	0.5898	0.9802	0.75731	-0.107
Mof_C 	C 	0.6483	0.9559	0.7681	0.051
Mof_C 	C 	0.6478	0.9204	0.7935	-0.136
Mof_C 	C 	0.5887	0.9093	0.80813	0.093
Mof_C 	C 	0.5302	0.9336	0.7974	-0.136
Mof_C 	C 	0.5307	0.9691	0.772	0.05
Mof_C 	C 	0.5782	0.6984	0.92031	0.051
Mof_C 	C 	0.64	0.7234	0.9103	-0.078
Mof_C 	C 	0.6427	0.7713	0.8892	-0.044
Mof_C 	C 	0.5834	0.7942	0.8783	0.016
Mof_C 	C 	0.5216	0.7692	0.8883	-0.044
Mof_C 	C 	0.519	0.7212	0.9094	-0.078
Mof_C 	C 	0.5684	0.5796	0.91567	0.053
Mof_C 	C 	0.6274	0.558	0.9057	-0.076
Mof_C 	C 	0.6239	0.5091	0.8824	-0.044
Mof_C 	C 	0.5614	0.4818	0.86901	0.017
Mof_C 	C 	0.5024	0.5034	0.879	-0.043
Mof_C 	C 	0.506	0.5522	0.9023	-0.078
Mof_C 	C 	0.5736	0.6364	0.9397	-0.073
Mof_C 	C 	0.0143	0.6061	0.15	0.326
Mof_C 	C 	0.1807	0.5905	0.15	0.287
Mof_C 	C 	0.5813	0.1959	0.7294	0.325
Mof_C 	C 	0.5909	0.0229	0.7311	0.328
Mof_C 	C 	0.787	0.6326	0.0308	-0.006
Mof_C 	C 	0.825	0.631	0.0521	-0.043
Mof_C 	C 	0.3777	0.6143	0.0278	-0.011
Mof_C 	C 	0.3427	0.6105	0.0492	-0.039
Mof_C 	C 	0.5873	0.8777	0.8356	-0.048
Mof_C 	C 	0.5843	0.8337	0.8531	-0.003
Mof_C 	C 	0.5548	0.4304	0.8445	0.003
Mof_C 	C 	0.5588	0.3884	0.8246	-0.052
Mof_C 	C 	0.6149	0.9653	0.62528	-0.106
Mof_C 	C 	0.5574	0.9304	0.6102	0.047
Mof_C 	C 	0.5637	0.8849	0.5864	-0.131
Mof_C 	C 	0.6275	0.8743	0.5777	0.087
Mof_C 	C 	0.685	0.9092	0.5928	-0.133
Mof_C 	C 	0.6787	0.9547	0.6165	0.05
Mof_C 	C 	0.6378	0.6364	0.46246	0.05
Mof_C 	C 	0.5775	0.6579	0.4709	-0.082
Mof_C 	C 	0.5784	0.709	0.4931	-0.045
Mof_C 	C 	0.6396	0.7386	0.50693	0.017
Mof_C 	C 	0.6999	0.7173	0.4985	-0.045
Mof_C 	C 	0.699	0.6662	0.4762	-0.078
Mof_C 	C 	0.5974	0.2222	0.62336	-0.076
Mof_C 	C 	0.6537	0.2689	0.6208	0.027
Mof_C 	C 	0.6575	0.3077	0.5964	-0.117
Mof_C 	C 	0.605	0.2998	0.5746	0.075
Mof_C 	C 	0.5486	0.253	0.5771	-0.117
Mof_C 	C 	0.5449	0.2143	0.6015	0.023
Mof_C 	C 	0.6331	0.5153	0.46072	0.05
Mof_C 	C 	0.6923	0.4999	0.4751	-0.077
Mof_C 	C 	0.6893	0.4535	0.4968	-0.047
Mof_C 	C 	0.627	0.4226	0.5041	0.019
Mof_C 	C 	0.5678	0.438	0.4897	-0.047
Mof_C 	C 	0.5709	0.4843	0.468	-0.078
Mof_C 	C 	0.2483	0.5779	0.25497	-0.107
Mof_C 	C 	0.2685	0.5151	0.2603	0.05
Mof_C 	C 	0.3154	0.5092	0.2836	-0.138
Mof_C 	C 	0.342	0.566	0.30157	0.102
Mof_C 	C 	0.3218	0.6288	0.2962	-0.142
Mof_C 	C 	0.2749	0.6347	0.2729	0.056
Mof_C 	C 	0.9802	0.5898	0.25731	-0.107
Mof_C 	C 	0.9559	0.6483	0.2681	0.051
Mof_C 	C 	0.9204	0.6478	0.2935	-0.136
Mof_C 	C 	0.9093	0.5887	0.30813	0.093
Mof_C 	C 	0.9336	0.5302	0.2974	-0.136
Mof_C 	C 	0.9691	0.5307	0.272	0.05
Mof_C 	C 	0.6984	0.5782	0.42031	0.051
Mof_C 	C 	0.7234	0.64	0.4103	-0.078
Mof_C 	C 	0.7713	0.6427	0.3892	-0.044
Mof_C 	C 	0.7942	0.5834	0.3783	0.016
Mof_C 	C 	0.7692	0.5216	0.3883	-0.044
Mof_C 	C 	0.7212	0.519	0.4094	-0.078
Mof_C 	C 	0.5796	0.5684	0.41567	0.053
Mof_C 	C 	0.558	0.6274	0.4057	-0.076
Mof_C 	C 	0.5091	0.6239	0.3824	-0.044
Mof_C 	C 	0.4818	0.5614	0.36901	0.017
Mof_C 	C 	0.5034	0.5024	0.379	-0.043
Mof_C 	C 	0.5522	0.506	0.4023	-0.078
Mof_C 	C 	0.6364	0.5736	0.4397	-0.073
Mof_C 	C 	0.6061	0.0143	0.65	0.326
Mof_C 	C 	0.5905	0.1807	0.65	0.287
Mof_C 	C 	0.1959	0.5813	0.2294	0.325
Mof_C 	C 	0.0229	0.5909	0.2311	0.328
Mof_C 	C 	0.6326	0.787	0.5308	-0.006
Mof_C 	C 	0.631	0.825	0.5521	-0.043
Mof_C 	C 	0.6143	0.3777	0.5278	-0.011
Mof_C 	C 	0.6105	0.3427	0.5492	-0.039
Mof_C 	C 	0.8777	0.5873	0.3356	-0.048
Mof_C 	C 	0.8337	0.5843	0.3531	-0.003
Mof_C 	C 	0.4304	0.5548	0.3445	0.003
Mof_C 	C 	0.3884	0.5588	0.3246	-0.052
Mof_O 	O 	0.0187	0.5473	0.158	-0.397
Mof_O 	O 	0.0473	0.6641	0.1609	-0.383
Mof_O 	O 	0.1842	0.6488	0.1649	-0.378
Mof_O 	O 	0.1487	0.5307	0.1527	-0.384
Mof_O 	O 	0.5265	0.1703	0.7129	-0.389
Mof_O 	O 	0.6396	0.1784	0.7253	-0.404
Mof_O 	O 	0.5338	0.0372	0.7192	-0.392
Mof_O 	O 	0.6492	0.043	0.7221	-0.393
Mof_O 	O 	0.5473	0.0187	0.658	-0.397
Mof_O 	O 	0.6641	0.0473	0.6609	-0.383
Mof_O 	O 	0.6488	0.1842	0.6649	-0.378
Mof_O 	O 	0.5307	0.1487	0.6527	-0.384
Mof_O 	O 	0.1703	0.5265	0.2129	-0.389
Mof_O 	O 	0.1784	0.6396	0.2253	-0.404
Mof_O 	O 	0.0372	0.5338	0.2192	-0.392
Mof_O 	O 	0.043	0.6492	0.2221	-0.393
_end
