# CIF file generated by openbabel 3.1.0, see https://openbabel.org
data_I
_chemical_name_common 'image0'
_cell_length_a 12.4752
_cell_length_b 15.3763
_cell_length_c 17.9551
_cell_angle_alpha 69.517
_cell_angle_beta 75.565
_cell_angle_gamma 86.284
_space_group_name_H-M_alt 'P 1'
_space_group_name_Hall 'P 1'
loop_
    _symmetry_equiv_pos_as_xyz
    x,y,z
loop_
    _atom_site_label
    _atom_site_type_symbol
    _atom_site_fract_x
    _atom_site_fract_y
    _atom_site_fract_z
    _atom_site_occupancy
    Zn1      Zn       0.00627    0.23868    0.34808    1.000
    Zn2      Zn       0.12737    0.41399    0.16799    1.000
    Zn3      Zn       0.82217    0.96157    0.18856    1.000
    O1       O        0.17010    0.24660    0.30070    1.000
    O2       O        0.25700    0.34010    0.17599    1.000
    O3       O        0.01230    0.33270    0.16830    1.000
    O4       O        0.86140    0.49660    0.93960    1.000
    O5       O        0.98130    0.84580    0.54320    1.000
    O6       O        0.92110    0.22000    0.27630    1.000
    O7       O        0.69940    0.04580    0.17050    1.000
    O8       O        0.15830    0.84220    0.54040    1.000
    O9       O        0.73050    0.43310    0.91180    1.000
    O10      O        0.78620    0.82780    0.22440    1.000
    O11      O        0.64080    0.96940    0.30340    1.000
    O12      O        0.89380    0.98150    0.26600    1.000
    O13      O        0.95250    0.36010    0.35690    1.000
    O14      O        0.06200    0.46900    0.25120    1.000
    C1       C        0.34860    0.20470    0.23970    1.000
    C2       C        0.20270    0.99340    0.39280    1.000
    H1       H        0.25480    0.98100    0.42560    1.000
    O15      O        0.96880    0.80290    0.20880    1.000
    C3       C        0.84210    0.28180    0.16160    1.000
    C4       C        0.22830    0.05890    0.31450    1.000
    C5       C        0.33700    0.10930    0.27970    1.000
    C6       C        0.65910    0.24430    0.15920    1.000
    C7       C        0.74490    0.22950    0.19870    1.000
    H2       H        0.73660    0.18330    0.25150    1.000
    C8       C        0.45340    0.24680    0.20080    1.000
    H3       H        0.45980    0.31220    0.17360    1.000
    C9       C        0.05360    0.01940    0.29530    1.000
    C10      C        0.54830    0.19440    0.20120    1.000
    C11      C        0.93140    0.27610    0.20520    1.000
    C12      C        0.10040    0.94500    0.42390    1.000
    C13      C        0.43260    0.05670    0.28110    1.000
    H4       H        0.42570    0.99160    0.30950    1.000
    C14      C        0.53770    0.09700    0.24220    1.000
    C15      C        0.97560    0.44330    0.30840    1.000
    C16      C        0.25010    0.26650    0.23950    1.000
    C17      C        0.63100    0.03340    0.23950    1.000
    C18      C        0.67430    0.30880    0.08130    1.000
    H5       H        0.61600    0.31770    0.05420    1.000
    C19      C        0.85600    0.34900    0.08270    1.000
    H6       H        0.92220    0.38590    0.05790    1.000
    C20      C        0.02790    0.95820    0.37570    1.000
    H7       H        0.95880    0.92510    0.39720    1.000
    C21      C        0.77180    0.36160    0.04080    1.000
    C22      C        0.07840    0.87370    0.50830    1.000
    C23      C        0.89580    0.51730    0.32090    1.000
    C24      C        0.15370    0.07100    0.26440    1.000
    H8       H        0.17120    0.11400    0.20990    1.000
    C25      C        0.78650    0.43420    0.95780    1.000
    C26      C        0.50520    0.56470    0.42490    1.000
    C27      C        0.98240    0.02850    0.23690    1.000
    C28      C        0.92030    0.60950    0.27330    1.000
    H9       H        0.98980    0.62730    0.23500    1.000
    C29      C        0.84200    0.67570    0.28230    1.000
    C30      C        0.60350    0.52960    0.44310    1.000
    C31      C        0.73870    0.65020    0.33470    1.000
    H10      H        0.68490    0.69630    0.33750    1.000
    C32      C        0.79140    0.49000    0.37730    1.000
    H11      H        0.77530    0.42670    0.41040    1.000
    C33      C        0.71190    0.55810    0.38350    1.000
    C34      C        0.87030    0.77690    0.23330    1.000
    C35      C        0.40360    0.53700    0.47940    1.000
    H12      H        0.33800    0.56350    0.46400    1.000
    O16      O        0.01690    0.07770    0.16380    1.000
    O17      O        0.52210    0.62700    0.28210    1.000
    O18      O        0.42920    0.71690    0.34990    1.000
    C36      C        0.48270    0.64190    0.34910    1.000
    Zn4      Zn       0.99373    0.76132    0.65192    1.000
    Zn5      Zn       0.87263    0.58601    0.83201    1.000
    Zn6      Zn       0.17783    0.03843    0.81144    1.000
    O19      O        0.82990    0.75340    0.69930    1.000
    O20      O        0.74300    0.65990    0.82401    1.000
    O21      O        0.98770    0.66730    0.83170    1.000
    O22      O        0.13860    0.50340    0.06040    1.000
    O23      O        0.01870    0.15420    0.45680    1.000
    O24      O        0.07890    0.78000    0.72370    1.000
    O25      O        0.30060    0.95420    0.82950    1.000
    O26      O        0.84170    0.15780    0.45960    1.000
    O27      O        0.26950    0.56690    0.08820    1.000
    O28      O        0.21380    0.17220    0.77560    1.000
    O29      O        0.35920    0.03060    0.69660    1.000
    O30      O        0.10620    0.01850    0.73400    1.000
    O31      O        0.04750    0.63990    0.64310    1.000
    O32      O        0.93800    0.53100    0.74880    1.000
    C37      C        0.65140    0.79530    0.76030    1.000
    C38      C        0.79730    0.00660    0.60720    1.000
    H13      H        0.74520    0.01900    0.57440    1.000
    O33      O        0.03120    0.19710    0.79120    1.000
    C39      C        0.15790    0.71820    0.83840    1.000
    C40      C        0.77170    0.94110    0.68550    1.000
    C41      C        0.66300    0.89070    0.72030    1.000
    C42      C        0.34090    0.75570    0.84080    1.000
    C43      C        0.25510    0.77050    0.80130    1.000
    H14      H        0.26340    0.81670    0.74850    1.000
    C44      C        0.54660    0.75320    0.79920    1.000
    H15      H        0.54020    0.68780    0.82640    1.000
    C45      C        0.94640    0.98060    0.70470    1.000
    C46      C        0.45170    0.80560    0.79880    1.000
    C47      C        0.06860    0.72390    0.79480    1.000
    C48      C        0.89960    0.05500    0.57610    1.000
    C49      C        0.56740    0.94330    0.71890    1.000
    H16      H        0.57430    0.00840    0.69050    1.000
    C50      C        0.46230    0.90300    0.75780    1.000
    C51      C        0.02440    0.55670    0.69160    1.000
    C52      C        0.74990    0.73350    0.76050    1.000
    C53      C        0.36900    0.96660    0.76050    1.000
    C54      C        0.32570    0.69120    0.91870    1.000
    H17      H        0.38400    0.68230    0.94580    1.000
    C55      C        0.14400    0.65100    0.91730    1.000
    H18      H        0.07780    0.61410    0.94210    1.000
    C56      C        0.97210    0.04180    0.62430    1.000
    H19      H        0.04120    0.07490    0.60280    1.000
    C57      C        0.22820    0.63840    0.95920    1.000
    C58      C        0.92160    0.12630    0.49170    1.000
    C59      C        0.10420    0.48270    0.67910    1.000
    C60      C        0.84630    0.92900    0.73560    1.000
    H20      H        0.82880    0.88600    0.79010    1.000
    C61      C        0.21350    0.56580    0.04220    1.000
    C62      C        0.49480    0.43530    0.57510    1.000
    C63      C        0.01760    0.97150    0.76310    1.000
    C64      C        0.07970    0.39050    0.72670    1.000
    H21      H        0.01020    0.37270    0.76500    1.000
    C65      C        0.15800    0.32430    0.71770    1.000
    C66      C        0.39650    0.47040    0.55690    1.000
    C67      C        0.26130    0.34980    0.66530    1.000
    H22      H        0.31510    0.30370    0.66250    1.000
    C68      C        0.20860    0.51000    0.62270    1.000
    H23      H        0.22470    0.57330    0.58960    1.000
    C69      C        0.28810    0.44190    0.61650    1.000
    C70      C        0.12970    0.22310    0.76670    1.000
    C71      C        0.59640    0.46300    0.52060    1.000
    H24      H        0.66200    0.43650    0.53600    1.000
    O34      O        0.98310    0.92230    0.83620    1.000
    O35      O        0.47790    0.37300    0.71790    1.000
    O36      O        0.57080    0.28310    0.65010    1.000
    C72      C        0.51730    0.35810    0.65090    1.000
