data_functionalizedCrystal
_audit_creation_method	'EQeq! by Chris Wilmer'
_symmetry_space_group_name_H-M	'P1'
_symmetry_Int_Tables_number	1
_symmetry_cell_setting	triclinic
loop_
_symmetry_equiv_pos_as_xyz
  x,y,z
_cell_length_a	36.8
_cell_length_b	21.661
_cell_length_c	44.65
_cell_angle_alpha	90
_cell_angle_beta	100.4
_cell_angle_gamma	90
loop_
_atom_site_label
_atom_site_type_symbol
_atom_site_fract_x
_atom_site_fract_y
_atom_site_fract_z
_atom_site_charge
Mof_C 	C 	0.95137	0.0146	0.7457	0.097
Mof_H 	H 	0.9677	0.9901	0.7373	-0.007
Mof_C 	C 	0.93223	0.0557	0.79015	0.099
Mof_C 	C 	0.90697	0.0876	0.74032	0.094
Mof_H 	H 	0.8891	0.1119	0.7284	-0.01
Mof_C 	C 	0.934	0.0507	0.82421	-0.02
Mof_C 	C 	0.966	0.0327	0.87442	-0.063
Mof_H 	H 	0.9877	0.0226	0.8877	0.071
Mof_C 	C 	0.9903	0.8367	0.0276	0.109
Mof_H 	H 	0.9816	0.8566	0.0093	0.009
Mof_C 	C 	0.32589	0.5173	0.0448	-0.139
Mof_C 	C 	0.07086	0.3581	0.06682	0.041
Mof_H 	H 	0.0819	0.3232	0.0767	0.013
Mof_C 	C 	0.04475	0.6899	0.0556	-0.113
Mof_C 	C 	0.0766	0.4669	0.0535	0.161
Mof_C 	C 	0.93476	0.044	0.8847	-0.003
Mof_C 	C 	0.97268	0.1894	0.04596	-0.125
Mof_C 	C 	0.98525	0.8593	0.0536	-0.147
Mof_C 	C 	0.95801	0.0036	0.93785	-0.187
Mof_H 	H 	0.974	0.9792	0.9291	0.109
Mof_C 	C 	0.0649	0.6789	0.03429	0.084
Mof_H 	H 	0.0674	0.7097	0.0203	0.004
Mof_C 	C 	0.9519	0.1326	0.0408	0.311
Mof_C 	C 	0.01039	0.1867	0.05145	0.059
Mof_H 	H 	0.0225	0.1489	0.0538	0.023
Mof_C 	C 	0.07943	0.5792	0.0536	0.188
Mof_C 	C 	0.99844	0.8335	0.082	0.085
Mof_H 	H 	0.9955	0.8521	0.1001	0.021
Mof_C 	C 	0.03003	0.2412	0.05337	-0.152
Mof_H 	H 	0.0556	0.2382	0.0562	0.083
Mof_C 	C 	0.03345	0.3561	0.0497	-0.079
Mof_C 	C 	0.95774	0.9978	0.96791	0.099
Mof_H 	H 	0.9727	0.9689	0.9796	-0.002
Mof_C 	C 	0.93585	0.0434	0.92039	0.126
Mof_C 	C 	0.01502	0.2994	0.05145	0.1
Mof_C 	C 	0.0413	0.4627	0.0379	-0.181
Mof_H 	H 	0.0309	0.4975	0.0275	0.096
Mof_C 	C 	0.275	0.5518	0.0704	-0.131
Mof_H 	H 	0.2667	0.5719	0.0863	0.078
Mof_C 	C 	0.8998	0.0604	0.83662	-0.04
Mof_H 	H 	0.8771	0.0681	0.8243	0.042
Mof_C 	C 	0.00973	0.7803	0.02871	-0.205
Mof_H 	H 	0.0135	0.7614	0.0108	0.11
Mof_C 	C 	0.04061	0.6423	0.07636	0.079
Mof_H 	H 	0.0255	0.6489	0.0906	0.002
Mof_C 	C 	0.01757	0.7738	0.08062	-0.212
Mof_H 	H 	0.0255	0.7514	0.0984	0.11
Mof_C 	C 	0.0229	0.7539	0.05606	0.174
Mof_C 	C 	0.97493	0.302	0.04577	-0.141
Mof_H 	H 	0.9628	0.3399	0.0439	0.079
Mof_C 	C 	0.95375	0.0089	0.77696	-0.158
Mof_H 	H 	0.9676	0.9785	0.7885	0.088
Mof_C 	C 	0.31368	0.5488	0.0704	0.045
Mof_H 	H 	0.3307	0.5663	0.0861	0.029
Mof_C 	C 	0.0895	0.4139	0.06793	-0.174
Mof_H 	H 	0.1131	0.4152	0.0796	0.092
Mof_C 	C 	0.15025	0.4739	0.0381	-0.143
Mof_H 	H 	0.1357	0.4406	0.0301	0.083
Mof_C 	C 	0.0207	0.4114	0.0366	0.058
Mof_H 	H 	0.9964	0.4132	0.0262	0.008
Mof_C 	C 	0.9552	0.2479	0.04327	0.051
Mof_H 	H 	0.9295	0.2497	0.0397	0.027
Mof_C 	C 	0.15807	0.5689	0.0646	-0.167
Mof_H 	H 	0.1483	0.6023	0.0735	0.091
Mof_C 	C 	0.90391	0.0571	0.86624	-0.049
Mof_H 	H 	0.8832	0.0648	0.8749	0.046
Mof_C 	C 	0.96044	0.9204	0.0532	0.4
Mof_C 	C 	0.3673	0.5177	0.0476	0.363
Mof_C 	C 	0.21049	0.5238	0.04835	-0.068
Mof_C 	C 	0.08212	0.6233	0.03242	-0.213
Mof_H 	H 	0.0954	0.6158	0.0169	0.108
Mof_C 	C 	0.1346	0.5217	0.0531	0.14
Mof_C 	C 	0.18951	0.4761	0.0349	0.013
Mof_H 	H 	0.1996	0.4459	0.024	0.022
Mof_C 	C 	0.05787	0.5877	0.0761	-0.209
Mof_H 	H 	0.0556	0.557	0.0901	0.109
Mof_C 	C 	0.19393	0.5696	0.0636	0.041
Mof_H 	H 	0.2085	0.6014	0.0733	0.015
Mof_C 	C 	0.3016	0.4932	0.0234	0.084
Mof_H 	H 	0.3094	0.4734	0.0072	0.013
Mof_C 	C 	0.96489	0.0365	0.8432	-0.024
Mof_H 	H 	0.9863	0.0289	0.8355	0.042
Mof_C 	C 	0.24912	0.5253	0.0471	0.095
Mof_C 	C 	0.264	0.4964	0.0241	-0.153
Mof_H 	H 	0.2478	0.4781	0.0082	0.083
Mof_C 	C 	0.91004	0.0907	0.7705	-0.173
Mof_H 	H 	0.8955	0.1195	0.7783	0.089
Mof_C 	C 	0.91354	0.0814	0.93294	-0.202
Mof_H 	H 	0.8987	0.1107	0.9214	0.103
Mof_C 	C 	0.914	0.0746	0.9629	0.136
Mof_H 	H 	0.8982	0.0997	0.9716	-0.017
Mof_N 	N 	0.92878	0.0504	0.72584	-0.272
Mof_N 	N 	0.0962	0.5235	0.05265	-0.194
Mof_N 	N 	0.93448	0.0363	0.9809	-0.257
Mof_O 	O 	0.96718	0.081	0.04624	-0.444
Mof_O 	O 	0.94852	0.9414	0.02825	-0.501
Mof_O 	O 	0.91671	0.13495	0.02918	-0.321
Mof_O 	O 	0.38974	0.5207	0.07008	-0.503
Mof_O 	O 	0.95625	0.9365	0.07943	-0.463
Mof_O 	O 	0.37456	0.5117	0.01961	-0.432
Mof_Zn	Zn	0.92903	0.02452	0.02626	1.227
Mof_C 	C 	0.3126	0.5694	0.6476	-0.24
Mof_C 	C 	0.303	0.5826	0.6742	0.146
Mof_H 	H 	0.3209	0.5895	0.6914	-0.007
Mof_C 	C 	0.9732	0.8575	0.67773	0.066
Mof_H 	H 	0.965	0.8733	0.6947	0.022
Mof_C 	C 	0.96647	0.8909	0.6507	-0.128
Mof_C 	C 	0.9913	0.8025	0.6803	-0.151
Mof_H 	H 	0.9941	0.7804	0.6984	0.083
Mof_C 	C 	0.9987	0.8115	0.6282	-0.144
Mof_H 	H 	0.0064	0.7961	0.6109	0.089
Mof_C 	C 	0.2512	0.562	0.6227	-0.214
Mof_H 	H 	0.2346	0.5592	0.6043	0.107
Mof_C 	C 	0.9792	0.8699	0.62692	0.063
Mof_H 	H 	0.9757	0.8928	0.609	0.031
Mof_C 	C 	0.2887	0.5605	0.6237	0.17
Mof_H 	H 	0.2971	0.5523	0.6057	-0.017
Mof_C 	C 	0.2651	0.5859	0.6759	-0.199
Mof_H 	H 	0.2577	0.6001	0.6935	0.099
Mof_C 	C 	0.00576	0.7788	0.65528	0.104
Mof_C 	C 	0.2387	0.568	0.6509	0.133
Mof_C 	C 	0.02529	0.7213	0.65652	-0.078
Mof_C 	C 	0.1395	0.5176	0.6387	-0.163
Mof_H 	H 	0.125	0.4876	0.6274	0.09
Mof_C 	C 	0.0323	0.3815	0.6598	-0.052
Mof_C 	C 	0.0103	0.3203	0.6588	0.068
Mof_C 	C 	0.0737	0.6586	0.64428	-0.183
Mof_H 	H 	0.0929	0.6535	0.6335	0.097
Mof_C 	C 	0.9763	0.2062	0.6554	-0.088
Mof_C 	C 	0.9523	0.1447	0.6558	0.354
Mof_C 	C 	0.1989	0.5635	0.6531	-0.076
Mof_C 	C 	0.0076	0.2143	0.67437	0.03
Mof_H 	H 	0.0167	0.1829	0.6878	0.039
Mof_C 	C 	0.97677	0.3103	0.6382	-0.114
Mof_H 	H 	0.9661	0.3426	0.6259	0.068
Mof_C 	C 	0.028	0.2712	0.6748	-0.119
Mof_H 	H 	0.0521	0.2746	0.6854	0.071
Mof_C 	C 	0.0177	0.6711	0.6757	0.044
Mof_H 	H 	0.9993	0.6755	0.6874	0.014
Mof_C 	C 	0.0673	0.3896	0.6764	0.03
Mof_H 	H 	0.0786	0.3577	0.6885	0.016
Mof_C 	C 	0.9593	0.2518	0.6361	0.02
Mof_H 	H 	0.9375	0.2444	0.6224	0.029
Mof_C 	C 	0.0679	0.497	0.6613	0.147
Mof_C 	C 	0.0658	0.6107	0.6614	0.16
Mof_C 	C 	0.1243	0.5567	0.659	0.131
Mof_C 	C 	0.034	0.4921	0.6447	-0.161
Mof_H 	H 	0.0228	0.5249	0.6332	0.091
Mof_C 	C 	0.0851	0.4438	0.6751	-0.159
Mof_H 	H 	0.11	0.4459	0.6837	0.089
Mof_C 	C 	0.1861	0.6066	0.6739	0.011
Mof_H 	H 	0.2013	0.6368	0.6843	0.023
Mof_C 	C 	0.0562	0.7124	0.64171	0.055
Mof_H 	H 	0.064	0.7441	0.6303	0.01
Mof_C 	C 	0.0372	0.6173	0.677	-0.175
Mof_H 	H 	0.031	0.5846	0.6886	0.094
Mof_C 	C 	0.0153	0.4322	0.6454	0.014
Mof_H 	H 	0.9908	0.4288	0.6356	0.023
Mof_C 	C 	0.1474	0.5992	0.6772	-0.14
Mof_H 	H 	0.138	0.6228	0.6914	0.083
Mof_C 	C 	0.94922	0.9568	0.6506	0.386
Mof_C 	C 	0.1743	0.5247	0.6362	0.046
Mof_H 	H 	0.1829	0.5011	0.6215	0.016
Mof_C 	C 	0.3541	0.5633	0.6451	0.496
Mof_N 	N 	0.08646	0.5544	0.66132	-0.179
Mof_O 	O 	0.94164	0.9732	0.67745	-0.49
Mof_O 	O 	0.94249	0.9831	0.62658	-0.48
Mof_O 	O 	0.96398	0.1145	0.6775	-0.491
Mof_O 	O 	0.36388	0.5476	0.62321	-0.531
Mof_O 	O 	0.37476	0.5742	0.67106	-0.513
Mof_O 	O 	0.93154	0.1287	0.62991	-0.444
Mof_Zn	Zn	0.92656	0.05406	0.68204	1.227
Mof_Zn	Zn	0.91041	0.04844	0.60123	1.218
Mof_C 	C 	0.45137	0.5146	0.7457	0.096
Mof_H 	H 	0.4677	0.4901	0.7373	-0.009
Mof_C 	C 	0.43223	0.5557	0.79015	0.098
Mof_C 	C 	0.40697	0.5876	0.74032	0.093
Mof_H 	H 	0.3891	0.6119	0.7284	-0.011
Mof_C 	C 	0.434	0.5507	0.82421	-0.02
Mof_C 	C 	0.466	0.5327	0.87442	-0.064
Mof_H 	H 	0.4877	0.5226	0.8877	0.07
Mof_C 	C 	0.4903	0.3367	0.0276	0.108
Mof_H 	H 	0.4816	0.3566	0.0093	0.008
Mof_C 	C 	0.82589	0.0173	0.0448	-0.14
Mof_C 	C 	0.57086	0.8581	0.06682	0.039
Mof_H 	H 	0.5819	0.8232	0.0767	0.012
Mof_C 	C 	0.54475	0.1899	0.0556	-0.114
Mof_C 	C 	0.5766	0.9669	0.0535	0.16
Mof_C 	C 	0.43476	0.544	0.8847	-0.004
Mof_C 	C 	0.47268	0.6894	0.04596	-0.126
Mof_C 	C 	0.48525	0.3593	0.0536	-0.148
Mof_C 	C 	0.45801	0.5036	0.93785	-0.187
Mof_H 	H 	0.474	0.4792	0.9291	0.108
Mof_C 	C 	0.5649	0.1789	0.03429	0.083
Mof_H 	H 	0.5674	0.2097	0.0203	0.003
Mof_C 	C 	0.4519	0.6326	0.0408	0.31
Mof_C 	C 	0.51039	0.6867	0.05145	0.058
Mof_H 	H 	0.5225	0.6489	0.0538	0.022
Mof_C 	C 	0.57943	0.0792	0.0536	0.187
Mof_C 	C 	0.49844	0.3335	0.082	0.085
Mof_H 	H 	0.4955	0.3521	0.1001	0.02
Mof_C 	C 	0.53003	0.7412	0.05337	-0.153
Mof_H 	H 	0.5556	0.7382	0.0562	0.082
Mof_C 	C 	0.53345	0.8561	0.0497	-0.08
Mof_C 	C 	0.45774	0.4978	0.96791	0.098
Mof_H 	H 	0.4727	0.4689	0.9796	-0.003
Mof_C 	C 	0.43585	0.5434	0.92039	0.125
Mof_C 	C 	0.51502	0.7994	0.05145	0.099
Mof_C 	C 	0.5413	0.9627	0.0379	-0.182
Mof_H 	H 	0.5309	0.9975	0.0275	0.096
Mof_C 	C 	0.775	0.0518	0.0704	-0.131
Mof_H 	H 	0.7667	0.0719	0.0863	0.078
Mof_C 	C 	0.3998	0.5604	0.83662	-0.04
Mof_H 	H 	0.3771	0.5681	0.8243	0.042
Mof_C 	C 	0.50973	0.2803	0.02871	-0.205
Mof_H 	H 	0.5135	0.2614	0.0108	0.11
Mof_C 	C 	0.54061	0.1423	0.07636	0.079
Mof_H 	H 	0.5255	0.1489	0.0906	0.002
Mof_C 	C 	0.51757	0.2738	0.08062	-0.212
Mof_H 	H 	0.5255	0.2514	0.0984	0.11
Mof_C 	C 	0.5229	0.2539	0.05606	0.174
Mof_C 	C 	0.47493	0.802	0.04577	-0.141
Mof_H 	H 	0.4628	0.8399	0.0439	0.079
Mof_C 	C 	0.45375	0.5089	0.77696	-0.157
Mof_H 	H 	0.4676	0.4785	0.7885	0.088
Mof_C 	C 	0.81368	0.0488	0.0704	0.045
Mof_H 	H 	0.8307	0.0663	0.0861	0.029
Mof_C 	C 	0.5895	0.9139	0.06793	-0.173
Mof_H 	H 	0.6131	0.9152	0.0796	0.092
Mof_C 	C 	0.65025	0.9739	0.0381	-0.143
Mof_H 	H 	0.6357	0.9406	0.0301	0.083
Mof_C 	C 	0.5207	0.9114	0.0366	0.058
Mof_H 	H 	0.4964	0.9132	0.0262	0.008
Mof_C 	C 	0.4552	0.7479	0.04327	0.051
Mof_H 	H 	0.4295	0.7497	0.0397	0.027
Mof_C 	C 	0.65807	0.0689	0.0646	-0.167
Mof_H 	H 	0.6483	0.1023	0.0735	0.091
Mof_C 	C 	0.40391	0.5571	0.86624	-0.049
Mof_H 	H 	0.3832	0.5648	0.8749	0.046
Mof_C 	C 	0.46044	0.4204	0.0532	0.4
Mof_C 	C 	0.8673	0.0177	0.0476	0.363
Mof_C 	C 	0.71049	0.0238	0.04835	-0.068
Mof_C 	C 	0.58212	0.1233	0.03242	-0.213
Mof_H 	H 	0.5954	0.1158	0.0169	0.108
Mof_C 	C 	0.6346	0.0217	0.0531	0.14
Mof_C 	C 	0.68951	0.9761	0.0349	0.013
Mof_H 	H 	0.6996	0.9459	0.024	0.022
Mof_C 	C 	0.55787	0.0877	0.0761	-0.209
Mof_H 	H 	0.5556	0.057	0.0901	0.109
Mof_C 	C 	0.69393	0.0696	0.0636	0.042
Mof_H 	H 	0.7085	0.1014	0.0733	0.015
Mof_C 	C 	0.8016	0.9932	0.0234	0.084
Mof_H 	H 	0.8094	0.9734	0.0072	0.013
Mof_C 	C 	0.46489	0.5365	0.8432	-0.024
Mof_H 	H 	0.4863	0.5289	0.8355	0.042
Mof_C 	C 	0.74912	0.0253	0.0471	0.095
Mof_C 	C 	0.764	0.9964	0.0241	-0.153
Mof_H 	H 	0.7478	0.9781	0.0082	0.083
Mof_C 	C 	0.41004	0.5907	0.7705	-0.173
Mof_H 	H 	0.3955	0.6195	0.7783	0.089
Mof_C 	C 	0.41354	0.5814	0.93294	-0.202
Mof_H 	H 	0.3987	0.6107	0.9214	0.103
Mof_C 	C 	0.414	0.5746	0.9629	0.136
Mof_H 	H 	0.3982	0.5997	0.9716	-0.017
Mof_N 	N 	0.42878	0.5504	0.72584	-0.272
Mof_N 	N 	0.5962	0.0235	0.05265	-0.194
Mof_N 	N 	0.43448	0.5363	0.9809	-0.257
Mof_O 	O 	0.46718	0.581	0.04624	-0.444
Mof_O 	O 	0.44852	0.4414	0.02825	-0.501
Mof_O 	O 	0.41671	0.63495	0.02918	-0.321
Mof_O 	O 	0.88974	0.0207	0.07008	-0.503
Mof_O 	O 	0.45625	0.4365	0.07943	-0.463
Mof_O 	O 	0.87456	0.0117	0.01961	-0.432
Mof_Zn	Zn	0.42903	0.52452	0.02626	1.227
Mof_C 	C 	0.8126	0.0694	0.6476	-0.24
Mof_C 	C 	0.803	0.0826	0.6742	0.146
Mof_H 	H 	0.8209	0.0895	0.6914	-0.007
Mof_C 	C 	0.4732	0.3575	0.67773	0.066
Mof_H 	H 	0.465	0.3733	0.6947	0.022
Mof_C 	C 	0.46647	0.3909	0.6507	-0.128
Mof_C 	C 	0.4913	0.3025	0.6803	-0.151
Mof_H 	H 	0.4941	0.2804	0.6984	0.083
Mof_C 	C 	0.4987	0.3115	0.6282	-0.144
Mof_H 	H 	0.5064	0.2961	0.6109	0.089
Mof_C 	C 	0.7512	0.062	0.6227	-0.214
Mof_H 	H 	0.7346	0.0592	0.6043	0.107
Mof_C 	C 	0.4792	0.3699	0.62692	0.063
Mof_H 	H 	0.4757	0.3928	0.609	0.031
Mof_C 	C 	0.7887	0.0605	0.6237	0.17
Mof_H 	H 	0.7971	0.0523	0.6057	-0.017
Mof_C 	C 	0.7651	0.0859	0.6759	-0.199
Mof_H 	H 	0.7577	0.1001	0.6935	0.099
Mof_C 	C 	0.50576	0.2788	0.65528	0.104
Mof_C 	C 	0.7387	0.068	0.6509	0.133
Mof_C 	C 	0.52529	0.2213	0.65652	-0.078
Mof_C 	C 	0.6395	0.0176	0.6387	-0.164
Mof_H 	H 	0.625	0.9876	0.6274	0.09
Mof_C 	C 	0.5323	0.8815	0.6598	-0.052
Mof_C 	C 	0.5103	0.8203	0.6588	0.068
Mof_C 	C 	0.5737	0.1586	0.64428	-0.183
Mof_H 	H 	0.5929	0.1535	0.6335	0.097
Mof_C 	C 	0.4763	0.7062	0.6554	-0.088
Mof_C 	C 	0.4523	0.6447	0.6558	0.354
Mof_C 	C 	0.6989	0.0635	0.6531	-0.076
Mof_C 	C 	0.5076	0.7143	0.67437	0.03
Mof_H 	H 	0.5167	0.6829	0.6878	0.039
Mof_C 	C 	0.47677	0.8103	0.6382	-0.114
Mof_H 	H 	0.4661	0.8426	0.6259	0.068
Mof_C 	C 	0.528	0.7712	0.6748	-0.119
Mof_H 	H 	0.5521	0.7746	0.6854	0.071
Mof_C 	C 	0.5177	0.1711	0.6757	0.044
Mof_H 	H 	0.4993	0.1755	0.6874	0.014
Mof_C 	C 	0.5673	0.8896	0.6764	0.03
Mof_H 	H 	0.5786	0.8577	0.6885	0.016
Mof_C 	C 	0.4593	0.7518	0.6361	0.02
Mof_H 	H 	0.4375	0.7444	0.6224	0.029
Mof_C 	C 	0.5679	0.997	0.6613	0.147
Mof_C 	C 	0.5658	0.1107	0.6614	0.16
Mof_C 	C 	0.6243	0.0567	0.659	0.131
Mof_C 	C 	0.534	0.9921	0.6447	-0.161
Mof_H 	H 	0.5228	0.0249	0.6332	0.091
Mof_C 	C 	0.5851	0.9438	0.6751	-0.159
Mof_H 	H 	0.61	0.9459	0.6837	0.089
Mof_C 	C 	0.6861	0.1066	0.6739	0.011
Mof_H 	H 	0.7013	0.1368	0.6843	0.023
Mof_C 	C 	0.5562	0.2124	0.64171	0.055
Mof_H 	H 	0.564	0.2441	0.6303	0.01
Mof_C 	C 	0.5372	0.1173	0.677	-0.175
Mof_H 	H 	0.531	0.0846	0.6886	0.094
Mof_C 	C 	0.5153	0.9322	0.6454	0.013
Mof_H 	H 	0.4908	0.9288	0.6356	0.023
Mof_C 	C 	0.6474	0.0992	0.6772	-0.14
Mof_H 	H 	0.638	0.1228	0.6914	0.083
Mof_C 	C 	0.44922	0.4568	0.6506	0.386
Mof_C 	C 	0.6743	0.0247	0.6362	0.047
Mof_H 	H 	0.6829	0.0011	0.6215	0.016
Mof_C 	C 	0.8541	0.0633	0.6451	0.496
Mof_N 	N 	0.58646	0.0544	0.66132	-0.179
Mof_O 	O 	0.44164	0.4732	0.67745	-0.49
Mof_O 	O 	0.44249	0.4831	0.62658	-0.48
Mof_O 	O 	0.46398	0.6145	0.6775	-0.491
Mof_O 	O 	0.86388	0.0476	0.62321	-0.531
Mof_O 	O 	0.87476	0.0742	0.67106	-0.513
Mof_O 	O 	0.43154	0.6287	0.62991	-0.444
Mof_Zn	Zn	0.42656	0.55406	0.68204	1.227
Mof_Zn	Zn	0.41041	0.54844	0.60123	1.218
Mof_C 	C 	0.95137	0.9854	0.2457	0.096
Mof_H 	H 	0.9677	0.0099	0.2373	-0.008
Mof_C 	C 	0.93223	0.9443	0.29015	0.098
Mof_C 	C 	0.90697	0.9124	0.24032	0.093
Mof_H 	H 	0.8891	0.8881	0.2284	-0.011
Mof_C 	C 	0.934	0.9493	0.32421	-0.021
Mof_C 	C 	0.966	0.9673	0.37442	-0.064
Mof_H 	H 	0.9877	0.9774	0.3877	0.07
Mof_C 	C 	0.9903	0.1633	0.5276	0.108
Mof_H 	H 	0.9816	0.1434	0.5093	0.008
Mof_C 	C 	0.32589	0.4827	0.5448	-0.14
Mof_C 	C 	0.07086	0.6419	0.56682	0.04
Mof_H 	H 	0.0819	0.6768	0.5767	0.012
Mof_C 	C 	0.04475	0.3101	0.5556	-0.114
Mof_C 	C 	0.0766	0.5331	0.5535	0.16
Mof_C 	C 	0.93476	0.956	0.3847	-0.004
Mof_C 	C 	0.97268	0.8106	0.54596	-0.126
Mof_C 	C 	0.98525	0.1407	0.5536	-0.148
Mof_C 	C 	0.95801	0.9964	0.43785	-0.188
Mof_H 	H 	0.974	0.0208	0.4291	0.108
Mof_C 	C 	0.0649	0.3211	0.53429	0.083
Mof_H 	H 	0.0674	0.2903	0.5203	0.003
Mof_C 	C 	0.9519	0.8674	0.5408	0.31
Mof_C 	C 	0.01039	0.8133	0.55145	0.058
Mof_H 	H 	0.0225	0.8511	0.5538	0.022
Mof_C 	C 	0.07943	0.4208	0.5536	0.187
Mof_C 	C 	0.99844	0.1665	0.582	0.084
Mof_H 	H 	0.9955	0.1479	0.6001	0.02
Mof_C 	C 	0.03003	0.7588	0.55337	-0.153
Mof_H 	H 	0.0556	0.7618	0.5562	0.082
Mof_C 	C 	0.03345	0.6439	0.5497	-0.08
Mof_C 	C 	0.95774	0.0022	0.46791	0.098
Mof_H 	H 	0.9727	0.0311	0.4796	-0.003
Mof_C 	C 	0.93585	0.9566	0.42039	0.125
Mof_C 	C 	0.01502	0.7006	0.55145	0.099
Mof_C 	C 	0.0413	0.5373	0.5379	-0.182
Mof_H 	H 	0.0309	0.5025	0.5275	0.096
Mof_C 	C 	0.275	0.4482	0.5704	-0.131
Mof_H 	H 	0.2667	0.4281	0.5863	0.078
Mof_C 	C 	0.8998	0.9396	0.33662	-0.04
Mof_H 	H 	0.8771	0.9319	0.3243	0.042
Mof_C 	C 	0.00973	0.2197	0.52871	-0.205
Mof_H 	H 	0.0135	0.2386	0.5108	0.11
Mof_C 	C 	0.04061	0.3577	0.57636	0.079
Mof_H 	H 	0.0255	0.3511	0.5906	0.002
Mof_C 	C 	0.01757	0.2262	0.58062	-0.212
Mof_H 	H 	0.0255	0.2486	0.5984	0.11
Mof_C 	C 	0.0229	0.2461	0.55606	0.174
Mof_C 	C 	0.97493	0.698	0.54577	-0.141
Mof_H 	H 	0.9628	0.6601	0.5439	0.079
Mof_C 	C 	0.95375	0.9911	0.27696	-0.158
Mof_H 	H 	0.9676	0.0215	0.2885	0.088
Mof_C 	C 	0.31368	0.4512	0.5704	0.045
Mof_H 	H 	0.3307	0.4337	0.5861	0.029
Mof_C 	C 	0.0895	0.5861	0.56793	-0.174
Mof_H 	H 	0.1131	0.5848	0.5796	0.092
Mof_C 	C 	0.15025	0.5261	0.5381	-0.143
Mof_H 	H 	0.1357	0.5594	0.5301	0.083
Mof_C 	C 	0.0207	0.5886	0.5366	0.058
Mof_H 	H 	0.9964	0.5868	0.5262	0.008
Mof_C 	C 	0.9552	0.7521	0.54327	0.051
Mof_H 	H 	0.9295	0.7503	0.5397	0.027
Mof_C 	C 	0.15807	0.4311	0.5646	-0.167
Mof_H 	H 	0.1483	0.3977	0.5735	0.091
Mof_C 	C 	0.90391	0.9429	0.36624	-0.049
Mof_H 	H 	0.8832	0.9352	0.3749	0.046
Mof_C 	C 	0.96044	0.0796	0.5532	0.4
Mof_C 	C 	0.3673	0.4823	0.5476	0.363
Mof_C 	C 	0.21049	0.4762	0.54835	-0.068
Mof_C 	C 	0.08212	0.3767	0.53242	-0.213
Mof_H 	H 	0.0954	0.3842	0.5169	0.108
Mof_C 	C 	0.1346	0.4783	0.5531	0.14
Mof_C 	C 	0.18951	0.5239	0.5349	0.013
Mof_H 	H 	0.1996	0.5541	0.524	0.022
Mof_C 	C 	0.05787	0.4123	0.5761	-0.209
Mof_H 	H 	0.0556	0.443	0.5901	0.109
Mof_C 	C 	0.19393	0.4304	0.5636	0.041
Mof_H 	H 	0.2085	0.3986	0.5733	0.015
Mof_C 	C 	0.3016	0.5068	0.5234	0.084
Mof_H 	H 	0.3094	0.5266	0.5072	0.013
Mof_C 	C 	0.96489	0.9635	0.3432	-0.024
Mof_H 	H 	0.9863	0.9711	0.3355	0.042
Mof_C 	C 	0.24912	0.4747	0.5471	0.095
Mof_C 	C 	0.264	0.5036	0.5241	-0.153
Mof_H 	H 	0.2478	0.5219	0.5082	0.083
Mof_C 	C 	0.91004	0.9093	0.2705	-0.173
Mof_H 	H 	0.8955	0.8805	0.2783	0.089
Mof_C 	C 	0.91354	0.9186	0.43294	-0.202
Mof_H 	H 	0.8987	0.8893	0.4214	0.103
Mof_C 	C 	0.914	0.9254	0.4629	0.136
Mof_H 	H 	0.8982	0.9003	0.4716	-0.017
Mof_N 	N 	0.92878	0.9496	0.22584	-0.272
Mof_N 	N 	0.0962	0.4765	0.55265	-0.194
Mof_N 	N 	0.93448	0.9637	0.4809	-0.257
Mof_O 	O 	0.96718	0.919	0.54624	-0.444
Mof_O 	O 	0.94852	0.0586	0.52825	-0.501
Mof_O 	O 	0.91671	0.86505	0.52918	-0.321
Mof_O 	O 	0.38974	0.4793	0.57008	-0.503
Mof_O 	O 	0.95625	0.0635	0.57943	-0.463
Mof_O 	O 	0.37456	0.4883	0.51961	-0.432
Mof_Zn	Zn	0.92903	0.97548	0.52626	1.227
Mof_C 	C 	0.3126	0.4306	0.1476	-0.24
Mof_C 	C 	0.303	0.4174	0.1742	0.146
Mof_H 	H 	0.3209	0.4105	0.1914	-0.007
Mof_C 	C 	0.9732	0.1425	0.17773	0.066
Mof_H 	H 	0.965	0.1267	0.1947	0.022
Mof_C 	C 	0.96647	0.1091	0.1507	-0.128
Mof_C 	C 	0.9913	0.1975	0.1803	-0.151
Mof_H 	H 	0.9941	0.2196	0.1984	0.083
Mof_C 	C 	0.9987	0.1885	0.1282	-0.144
Mof_H 	H 	0.0064	0.2039	0.1109	0.089
Mof_C 	C 	0.2512	0.438	0.1227	-0.214
Mof_H 	H 	0.2346	0.4408	0.1043	0.107
Mof_C 	C 	0.9792	0.1301	0.12692	0.063
Mof_H 	H 	0.9757	0.1072	0.109	0.031
Mof_C 	C 	0.2887	0.4395	0.1237	0.17
Mof_H 	H 	0.2971	0.4477	0.1057	-0.017
Mof_C 	C 	0.2651	0.4141	0.1759	-0.199
Mof_H 	H 	0.2577	0.3999	0.1935	0.099
Mof_C 	C 	0.00576	0.2212	0.15528	0.104
Mof_C 	C 	0.2387	0.432	0.1509	0.133
Mof_C 	C 	0.02529	0.2787	0.15652	-0.078
Mof_C 	C 	0.1395	0.4824	0.1387	-0.163
Mof_H 	H 	0.125	0.5124	0.1274	0.09
Mof_C 	C 	0.0323	0.6185	0.1598	-0.052
Mof_C 	C 	0.0103	0.6797	0.1588	0.068
Mof_C 	C 	0.0737	0.3414	0.14428	-0.183
Mof_H 	H 	0.0929	0.3465	0.1335	0.097
Mof_C 	C 	0.9763	0.7938	0.1554	-0.088
Mof_C 	C 	0.9523	0.8553	0.1558	0.354
Mof_C 	C 	0.1989	0.4365	0.1531	-0.076
Mof_C 	C 	0.0076	0.7857	0.17437	0.03
Mof_H 	H 	0.0167	0.8171	0.1878	0.039
Mof_C 	C 	0.97677	0.6897	0.1382	-0.114
Mof_H 	H 	0.9661	0.6574	0.1259	0.068
Mof_C 	C 	0.028	0.7288	0.1748	-0.119
Mof_H 	H 	0.0521	0.7254	0.1854	0.071
Mof_C 	C 	0.0177	0.3289	0.1757	0.044
Mof_H 	H 	0.9993	0.3245	0.1874	0.014
Mof_C 	C 	0.0673	0.6104	0.1764	0.03
Mof_H 	H 	0.0786	0.6423	0.1885	0.016
Mof_C 	C 	0.9593	0.7482	0.1361	0.02
Mof_H 	H 	0.9375	0.7556	0.1224	0.029
Mof_C 	C 	0.0679	0.503	0.1613	0.147
Mof_C 	C 	0.0658	0.3893	0.1614	0.16
Mof_C 	C 	0.1243	0.4433	0.159	0.131
Mof_C 	C 	0.034	0.5079	0.1447	-0.161
Mof_H 	H 	0.0228	0.4751	0.1332	0.091
Mof_C 	C 	0.0851	0.5562	0.1751	-0.159
Mof_H 	H 	0.11	0.5541	0.1837	0.089
Mof_C 	C 	0.1861	0.3934	0.1739	0.011
Mof_H 	H 	0.2013	0.3632	0.1843	0.023
Mof_C 	C 	0.0562	0.2876	0.14171	0.055
Mof_H 	H 	0.064	0.2559	0.1303	0.01
Mof_C 	C 	0.0372	0.3827	0.177	-0.175
Mof_H 	H 	0.031	0.4154	0.1886	0.094
Mof_C 	C 	0.0153	0.5678	0.1454	0.014
Mof_H 	H 	0.9908	0.5712	0.1356	0.023
Mof_C 	C 	0.1474	0.4008	0.1772	-0.14
Mof_H 	H 	0.138	0.3772	0.1914	0.083
Mof_C 	C 	0.94922	0.0432	0.1506	0.386
Mof_C 	C 	0.1743	0.4753	0.1362	0.046
Mof_H 	H 	0.1829	0.4989	0.1215	0.016
Mof_C 	C 	0.3541	0.4367	0.1451	0.496
Mof_N 	N 	0.08646	0.4456	0.16132	-0.179
Mof_O 	O 	0.94164	0.0268	0.17745	-0.49
Mof_O 	O 	0.94249	0.0169	0.12658	-0.48
Mof_O 	O 	0.96398	0.8855	0.1775	-0.491
Mof_O 	O 	0.36388	0.4524	0.12321	-0.531
Mof_O 	O 	0.37476	0.4258	0.17106	-0.513
Mof_O 	O 	0.93154	0.8713	0.12991	-0.444
Mof_Zn	Zn	0.92656	0.94594	0.18204	1.227
Mof_Zn	Zn	0.91041	0.95156	0.10123	1.218
Mof_C 	C 	0.45137	0.4854	0.2457	0.096
Mof_H 	H 	0.4677	0.5099	0.2373	-0.009
Mof_C 	C 	0.43223	0.4443	0.29015	0.098
Mof_C 	C 	0.40697	0.4124	0.24032	0.093
Mof_H 	H 	0.3891	0.3881	0.2284	-0.011
Mof_C 	C 	0.434	0.4493	0.32421	-0.02
Mof_C 	C 	0.466	0.4673	0.37442	-0.064
Mof_H 	H 	0.4877	0.4774	0.3877	0.07
Mof_C 	C 	0.4903	0.6633	0.5276	0.108
Mof_H 	H 	0.4816	0.6434	0.5093	0.008
Mof_C 	C 	0.82589	0.9827	0.5448	-0.14
Mof_C 	C 	0.57086	0.1419	0.56682	0.039
Mof_H 	H 	0.5819	0.1768	0.5767	0.012
Mof_C 	C 	0.54475	0.8101	0.5556	-0.114
Mof_C 	C 	0.5766	0.0331	0.5535	0.16
Mof_C 	C 	0.43476	0.456	0.3847	-0.004
Mof_C 	C 	0.47268	0.3106	0.54596	-0.126
Mof_C 	C 	0.48525	0.6407	0.5536	-0.148
Mof_C 	C 	0.45801	0.4964	0.43785	-0.187
Mof_H 	H 	0.474	0.5208	0.4291	0.108
Mof_C 	C 	0.5649	0.8211	0.53429	0.083
Mof_H 	H 	0.5674	0.7903	0.5203	0.003
Mof_C 	C 	0.4519	0.3674	0.5408	0.31
Mof_C 	C 	0.51039	0.3133	0.55145	0.058
Mof_H 	H 	0.5225	0.3511	0.5538	0.022
Mof_C 	C 	0.57943	0.9208	0.5536	0.187
Mof_C 	C 	0.49844	0.6665	0.582	0.085
Mof_H 	H 	0.4955	0.6479	0.6001	0.02
Mof_C 	C 	0.53003	0.2588	0.55337	-0.153
Mof_H 	H 	0.5556	0.2618	0.5562	0.082
Mof_C 	C 	0.53345	0.1439	0.5497	-0.08
Mof_C 	C 	0.45774	0.5022	0.46791	0.098
Mof_H 	H 	0.4727	0.5311	0.4796	-0.003
Mof_C 	C 	0.43585	0.4566	0.42039	0.125
Mof_C 	C 	0.51502	0.2006	0.55145	0.099
Mof_C 	C 	0.5413	0.0373	0.5379	-0.182
Mof_H 	H 	0.5309	0.0025	0.5275	0.096
Mof_C 	C 	0.775	0.9482	0.5704	-0.131
Mof_H 	H 	0.7667	0.9281	0.5863	0.078
Mof_C 	C 	0.3998	0.4396	0.33662	-0.04
Mof_H 	H 	0.3771	0.4319	0.3243	0.042
Mof_C 	C 	0.50973	0.7197	0.52871	-0.205
Mof_H 	H 	0.5135	0.7386	0.5108	0.11
Mof_C 	C 	0.54061	0.8577	0.57636	0.079
Mof_H 	H 	0.5255	0.8511	0.5906	0.002
Mof_C 	C 	0.51757	0.7262	0.58062	-0.212
Mof_H 	H 	0.5255	0.7486	0.5984	0.11
Mof_C 	C 	0.5229	0.7461	0.55606	0.174
Mof_C 	C 	0.47493	0.198	0.54577	-0.141
Mof_H 	H 	0.4628	0.1601	0.5439	0.079
Mof_C 	C 	0.45375	0.4911	0.27696	-0.157
Mof_H 	H 	0.4676	0.5215	0.2885	0.088
Mof_C 	C 	0.81368	0.9512	0.5704	0.045
Mof_H 	H 	0.8307	0.9337	0.5861	0.029
Mof_C 	C 	0.5895	0.0861	0.56793	-0.173
Mof_H 	H 	0.6131	0.0848	0.5796	0.092
Mof_C 	C 	0.65025	0.0261	0.5381	-0.143
Mof_H 	H 	0.6357	0.0594	0.5301	0.083
Mof_C 	C 	0.5207	0.0886	0.5366	0.058
Mof_H 	H 	0.4964	0.0868	0.5262	0.008
Mof_C 	C 	0.4552	0.2521	0.54327	0.051
Mof_H 	H 	0.4295	0.2503	0.5397	0.027
Mof_C 	C 	0.65807	0.9311	0.5646	-0.167
Mof_H 	H 	0.6483	0.8977	0.5735	0.091
Mof_C 	C 	0.40391	0.4429	0.36624	-0.049
Mof_H 	H 	0.3832	0.4352	0.3749	0.046
Mof_C 	C 	0.46044	0.5796	0.5532	0.4
Mof_C 	C 	0.8673	0.9823	0.5476	0.363
Mof_C 	C 	0.71049	0.9762	0.54835	-0.068
Mof_C 	C 	0.58212	0.8767	0.53242	-0.213
Mof_H 	H 	0.5954	0.8842	0.5169	0.108
Mof_C 	C 	0.6346	0.9783	0.5531	0.14
Mof_C 	C 	0.68951	0.0239	0.5349	0.013
Mof_H 	H 	0.6996	0.0541	0.524	0.022
Mof_C 	C 	0.55787	0.9123	0.5761	-0.209
Mof_H 	H 	0.5556	0.943	0.5901	0.109
Mof_C 	C 	0.69393	0.9304	0.5636	0.042
Mof_H 	H 	0.7085	0.8986	0.5733	0.015
Mof_C 	C 	0.8016	0.0068	0.5234	0.084
Mof_H 	H 	0.8094	0.0266	0.5072	0.013
Mof_C 	C 	0.46489	0.4635	0.3432	-0.024
Mof_H 	H 	0.4863	0.4711	0.3355	0.042
Mof_C 	C 	0.74912	0.9747	0.5471	0.095
Mof_C 	C 	0.764	0.0036	0.5241	-0.153
Mof_H 	H 	0.7478	0.0219	0.5082	0.083
Mof_C 	C 	0.41004	0.4093	0.2705	-0.173
Mof_H 	H 	0.3955	0.3805	0.2783	0.089
Mof_C 	C 	0.41354	0.4186	0.43294	-0.202
Mof_H 	H 	0.3987	0.3893	0.4214	0.103
Mof_C 	C 	0.414	0.4254	0.4629	0.136
Mof_H 	H 	0.3982	0.4003	0.4716	-0.017
Mof_N 	N 	0.42878	0.4496	0.22584	-0.272
Mof_N 	N 	0.5962	0.9765	0.55265	-0.194
Mof_N 	N 	0.43448	0.4637	0.4809	-0.257
Mof_O 	O 	0.46718	0.419	0.54624	-0.444
Mof_O 	O 	0.44852	0.5586	0.52825	-0.501
Mof_O 	O 	0.41671	0.36505	0.52918	-0.321
Mof_O 	O 	0.88974	0.9793	0.57008	-0.503
Mof_O 	O 	0.45625	0.5635	0.57943	-0.463
Mof_O 	O 	0.87456	0.9883	0.51961	-0.432
Mof_Zn	Zn	0.42903	0.47548	0.52626	1.227
Mof_C 	C 	0.8126	0.9306	0.1476	-0.24
Mof_C 	C 	0.803	0.9174	0.1742	0.146
Mof_H 	H 	0.8209	0.9105	0.1914	-0.007
Mof_C 	C 	0.4732	0.6425	0.17773	0.066
Mof_H 	H 	0.465	0.6267	0.1947	0.022
Mof_C 	C 	0.46647	0.6091	0.1507	-0.128
Mof_C 	C 	0.4913	0.6975	0.1803	-0.151
Mof_H 	H 	0.4941	0.7196	0.1984	0.083
Mof_C 	C 	0.4987	0.6885	0.1282	-0.144
Mof_H 	H 	0.5064	0.7039	0.1109	0.089
Mof_C 	C 	0.7512	0.938	0.1227	-0.214
Mof_H 	H 	0.7346	0.9408	0.1043	0.107
Mof_C 	C 	0.4792	0.6301	0.12692	0.063
Mof_H 	H 	0.4757	0.6072	0.109	0.031
Mof_C 	C 	0.7887	0.9395	0.1237	0.17
Mof_H 	H 	0.7971	0.9477	0.1057	-0.017
Mof_C 	C 	0.7651	0.9141	0.1759	-0.199
Mof_H 	H 	0.7577	0.8999	0.1935	0.099
Mof_C 	C 	0.50576	0.7212	0.15528	0.104
Mof_C 	C 	0.7387	0.932	0.1509	0.133
Mof_C 	C 	0.52529	0.7787	0.15652	-0.078
Mof_C 	C 	0.6395	0.9824	0.1387	-0.164
Mof_H 	H 	0.625	0.0124	0.1274	0.09
Mof_C 	C 	0.5323	0.1185	0.1598	-0.052
Mof_C 	C 	0.5103	0.1797	0.1588	0.068
Mof_C 	C 	0.5737	0.8414	0.14428	-0.183
Mof_H 	H 	0.5929	0.8465	0.1335	0.097
Mof_C 	C 	0.4763	0.2938	0.1554	-0.088
Mof_C 	C 	0.4523	0.3553	0.1558	0.354
Mof_C 	C 	0.6989	0.9365	0.1531	-0.076
Mof_C 	C 	0.5076	0.2857	0.17437	0.03
Mof_H 	H 	0.5167	0.3171	0.1878	0.039
Mof_C 	C 	0.47677	0.1897	0.1382	-0.114
Mof_H 	H 	0.4661	0.1574	0.1259	0.068
Mof_C 	C 	0.528	0.2288	0.1748	-0.119
Mof_H 	H 	0.5521	0.2254	0.1854	0.071
Mof_C 	C 	0.5177	0.8289	0.1757	0.044
Mof_H 	H 	0.4993	0.8245	0.1874	0.014
Mof_C 	C 	0.5673	0.1104	0.1764	0.03
Mof_H 	H 	0.5786	0.1423	0.1885	0.016
Mof_C 	C 	0.4593	0.2482	0.1361	0.02
Mof_H 	H 	0.4375	0.2556	0.1224	0.029
Mof_C 	C 	0.5679	0.003	0.1613	0.147
Mof_C 	C 	0.5658	0.8893	0.1614	0.16
Mof_C 	C 	0.6243	0.9433	0.159	0.131
Mof_C 	C 	0.534	0.0079	0.1447	-0.161
Mof_H 	H 	0.5228	0.9751	0.1332	0.091
Mof_C 	C 	0.5851	0.0562	0.1751	-0.159
Mof_H 	H 	0.61	0.0541	0.1837	0.089
Mof_C 	C 	0.6861	0.8934	0.1739	0.011
Mof_H 	H 	0.7013	0.8632	0.1843	0.023
Mof_C 	C 	0.5562	0.7876	0.14171	0.055
Mof_H 	H 	0.564	0.7559	0.1303	0.01
Mof_C 	C 	0.5372	0.8827	0.177	-0.175
Mof_H 	H 	0.531	0.9154	0.1886	0.094
Mof_C 	C 	0.5153	0.0678	0.1454	0.013
Mof_H 	H 	0.4908	0.0712	0.1356	0.023
Mof_C 	C 	0.6474	0.9008	0.1772	-0.14
Mof_H 	H 	0.638	0.8772	0.1914	0.083
Mof_C 	C 	0.44922	0.5432	0.1506	0.386
Mof_C 	C 	0.6743	0.9753	0.1362	0.047
Mof_H 	H 	0.6829	0.9989	0.1215	0.016
Mof_C 	C 	0.8541	0.9367	0.1451	0.496
Mof_N 	N 	0.58646	0.9456	0.16132	-0.179
Mof_O 	O 	0.44164	0.5268	0.17745	-0.49
Mof_O 	O 	0.44249	0.5169	0.12658	-0.48
Mof_O 	O 	0.46398	0.3855	0.1775	-0.491
Mof_O 	O 	0.86388	0.9524	0.12321	-0.531
Mof_O 	O 	0.87476	0.9258	0.17106	-0.513
Mof_O 	O 	0.43154	0.3713	0.12991	-0.444
Mof_Zn	Zn	0.42656	0.44594	0.18204	1.227
Mof_Zn	Zn	0.41041	0.45156	0.10123	1.218
Mof_C 	C 	0.04863	0.0146	0.7543	0.096
Mof_H 	H 	0.0323	0.9901	0.7627	-0.008
Mof_C 	C 	0.06777	0.0557	0.70985	0.098
Mof_C 	C 	0.09303	0.0876	0.75968	0.093
Mof_H 	H 	0.1109	0.1119	0.7716	-0.011
Mof_C 	C 	0.066	0.0507	0.67579	-0.021
Mof_C 	C 	0.034	0.0327	0.62558	-0.064
Mof_H 	H 	0.0123	0.0226	0.6123	0.07
Mof_C 	C 	0.0097	0.8367	0.4724	0.108
Mof_H 	H 	0.0184	0.8566	0.4907	0.008
Mof_C 	C 	0.67411	0.5173	0.4552	-0.14
Mof_C 	C 	0.92914	0.3581	0.43318	0.04
Mof_H 	H 	0.9181	0.3232	0.4233	0.012
Mof_C 	C 	0.95525	0.6899	0.4444	-0.114
Mof_C 	C 	0.9234	0.4669	0.4465	0.16
Mof_C 	C 	0.06524	0.044	0.6153	-0.004
Mof_C 	C 	0.02732	0.1894	0.45404	-0.126
Mof_C 	C 	0.01475	0.8593	0.4464	-0.148
Mof_C 	C 	0.04199	0.0036	0.56215	-0.188
Mof_H 	H 	0.026	0.9792	0.5709	0.108
Mof_C 	C 	0.9351	0.6789	0.46571	0.083
Mof_H 	H 	0.9326	0.7097	0.4797	0.003
Mof_C 	C 	0.0481	0.1326	0.4592	0.31
Mof_C 	C 	0.98961	0.1867	0.44855	0.058
Mof_H 	H 	0.9775	0.1489	0.4462	0.022
Mof_C 	C 	0.92057	0.5792	0.4464	0.187
Mof_C 	C 	0.00156	0.8335	0.418	0.084
Mof_H 	H 	0.0045	0.8521	0.3999	0.02
Mof_C 	C 	0.96997	0.2412	0.44663	-0.153
Mof_H 	H 	0.9444	0.2382	0.4438	0.082
Mof_C 	C 	0.96655	0.3561	0.4503	-0.08
Mof_C 	C 	0.04226	0.9978	0.53209	0.098
Mof_H 	H 	0.0273	0.9689	0.5204	-0.003
Mof_C 	C 	0.06415	0.0434	0.57961	0.125
Mof_C 	C 	0.98498	0.2994	0.44855	0.099
Mof_C 	C 	0.9587	0.4627	0.4621	-0.182
Mof_H 	H 	0.9691	0.4975	0.4725	0.096
Mof_C 	C 	0.725	0.5518	0.4296	-0.131
Mof_H 	H 	0.7333	0.5719	0.4137	0.078
Mof_C 	C 	0.1002	0.0604	0.66338	-0.04
Mof_H 	H 	0.1229	0.0681	0.6757	0.042
Mof_C 	C 	0.99027	0.7803	0.47129	-0.205
Mof_H 	H 	0.9865	0.7614	0.4892	0.11
Mof_C 	C 	0.95939	0.6423	0.42364	0.079
Mof_H 	H 	0.9745	0.6489	0.4094	0.002
Mof_C 	C 	0.98243	0.7738	0.41938	-0.212
Mof_H 	H 	0.9745	0.7514	0.4016	0.11
Mof_C 	C 	0.9771	0.7539	0.44394	0.174
Mof_C 	C 	0.02507	0.302	0.45423	-0.141
Mof_H 	H 	0.0372	0.3399	0.4561	0.079
Mof_C 	C 	0.04625	0.0089	0.72304	-0.158
Mof_H 	H 	0.0324	0.9785	0.7115	0.088
Mof_C 	C 	0.68632	0.5488	0.4296	0.045
Mof_H 	H 	0.6693	0.5663	0.4139	0.029
Mof_C 	C 	0.9105	0.4139	0.43207	-0.174
Mof_H 	H 	0.8869	0.4152	0.4204	0.092
Mof_C 	C 	0.84975	0.4739	0.4619	-0.143
Mof_H 	H 	0.8643	0.4406	0.4699	0.083
Mof_C 	C 	0.9793	0.4114	0.4634	0.058
Mof_H 	H 	0.0036	0.4132	0.4738	0.008
Mof_C 	C 	0.0448	0.2479	0.45673	0.051
Mof_H 	H 	0.0705	0.2497	0.4603	0.027
Mof_C 	C 	0.84193	0.5689	0.4354	-0.167
Mof_H 	H 	0.8517	0.6023	0.4265	0.091
Mof_C 	C 	0.09609	0.0571	0.63376	-0.049
Mof_H 	H 	0.1168	0.0648	0.6251	0.046
Mof_C 	C 	0.03956	0.9204	0.4468	0.4
Mof_C 	C 	0.6327	0.5177	0.4524	0.363
Mof_C 	C 	0.78951	0.5238	0.45165	-0.068
Mof_C 	C 	0.91788	0.6233	0.46758	-0.213
Mof_H 	H 	0.9046	0.6158	0.4831	0.108
Mof_C 	C 	0.8654	0.5217	0.4469	0.14
Mof_C 	C 	0.81049	0.4761	0.4651	0.013
Mof_H 	H 	0.8004	0.4459	0.476	0.022
Mof_C 	C 	0.94213	0.5877	0.4239	-0.209
Mof_H 	H 	0.9444	0.557	0.4099	0.109
Mof_C 	C 	0.80607	0.5696	0.4364	0.041
Mof_H 	H 	0.7915	0.6014	0.4267	0.015
Mof_C 	C 	0.6984	0.4932	0.4766	0.084
Mof_H 	H 	0.6906	0.4734	0.4928	0.013
Mof_C 	C 	0.03511	0.0365	0.6568	-0.024
Mof_H 	H 	0.0137	0.0289	0.6645	0.042
Mof_C 	C 	0.75088	0.5253	0.4529	0.095
Mof_C 	C 	0.736	0.4964	0.4759	-0.153
Mof_H 	H 	0.7522	0.4781	0.4918	0.083
Mof_C 	C 	0.08996	0.0907	0.7295	-0.173
Mof_H 	H 	0.1045	0.1195	0.7217	0.089
Mof_C 	C 	0.08646	0.0814	0.56706	-0.202
Mof_H 	H 	0.1013	0.1107	0.5786	0.103
Mof_C 	C 	0.086	0.0746	0.5371	0.136
Mof_H 	H 	0.1018	0.0997	0.5284	-0.017
Mof_N 	N 	0.07122	0.0504	0.77416	-0.272
Mof_N 	N 	0.9038	0.5235	0.44735	-0.194
Mof_N 	N 	0.06552	0.0363	0.5191	-0.257
Mof_O 	O 	0.03282	0.081	0.45376	-0.444
Mof_O 	O 	0.05148	0.9414	0.47175	-0.501
Mof_O 	O 	0.08329	0.13495	0.47082	-0.321
Mof_O 	O 	0.61026	0.5207	0.42992	-0.503
Mof_O 	O 	0.04375	0.9365	0.42057	-0.463
Mof_O 	O 	0.62544	0.5117	0.48039	-0.432
Mof_Zn	Zn	0.07097	0.02452	0.47374	1.227
Mof_C 	C 	0.6874	0.5694	0.8524	-0.24
Mof_C 	C 	0.697	0.5826	0.8258	0.146
Mof_H 	H 	0.6791	0.5895	0.8086	-0.007
Mof_C 	C 	0.0268	0.8575	0.82227	0.066
Mof_H 	H 	0.035	0.8733	0.8053	0.022
Mof_C 	C 	0.03353	0.8909	0.8493	-0.128
Mof_C 	C 	0.0087	0.8025	0.8197	-0.151
Mof_H 	H 	0.0059	0.7804	0.8016	0.083
Mof_C 	C 	0.0013	0.8115	0.8718	-0.144
Mof_H 	H 	0.9936	0.7961	0.8891	0.089
Mof_C 	C 	0.7488	0.562	0.8773	-0.214
Mof_H 	H 	0.7654	0.5592	0.8957	0.107
Mof_C 	C 	0.0208	0.8699	0.87308	0.063
Mof_H 	H 	0.0243	0.8928	0.891	0.031
Mof_C 	C 	0.7113	0.5605	0.8763	0.17
Mof_H 	H 	0.7029	0.5523	0.8943	-0.017
Mof_C 	C 	0.7349	0.5859	0.8241	-0.199
Mof_H 	H 	0.7423	0.6001	0.8065	0.099
Mof_C 	C 	0.99424	0.7788	0.84472	0.104
Mof_C 	C 	0.7613	0.568	0.8491	0.133
Mof_C 	C 	0.97471	0.7213	0.84348	-0.078
Mof_C 	C 	0.8605	0.5176	0.8613	-0.163
Mof_H 	H 	0.875	0.4876	0.8726	0.09
Mof_C 	C 	0.9677	0.3815	0.8402	-0.052
Mof_C 	C 	0.9897	0.3203	0.8412	0.068
Mof_C 	C 	0.9263	0.6586	0.85572	-0.183
Mof_H 	H 	0.9071	0.6535	0.8665	0.097
Mof_C 	C 	0.0237	0.2062	0.8446	-0.088
Mof_C 	C 	0.0477	0.1447	0.8442	0.354
Mof_C 	C 	0.8011	0.5635	0.8469	-0.076
Mof_C 	C 	0.9924	0.2143	0.82563	0.03
Mof_H 	H 	0.9833	0.1829	0.8122	0.039
Mof_C 	C 	0.02323	0.3103	0.8618	-0.114
Mof_H 	H 	0.0339	0.3426	0.8741	0.068
Mof_C 	C 	0.972	0.2712	0.8252	-0.119
Mof_H 	H 	0.9479	0.2746	0.8146	0.071
Mof_C 	C 	0.9823	0.6711	0.8243	0.044
Mof_H 	H 	0.0007	0.6755	0.8126	0.014
Mof_C 	C 	0.9327	0.3896	0.8236	0.03
Mof_H 	H 	0.9214	0.3577	0.8115	0.016
Mof_C 	C 	0.0407	0.2518	0.8639	0.02
Mof_H 	H 	0.0625	0.2444	0.8776	0.029
Mof_C 	C 	0.9321	0.497	0.8387	0.147
Mof_C 	C 	0.9342	0.6107	0.8386	0.16
Mof_C 	C 	0.8757	0.5567	0.841	0.131
Mof_C 	C 	0.966	0.4921	0.8553	-0.161
Mof_H 	H 	0.9772	0.5249	0.8668	0.091
Mof_C 	C 	0.9149	0.4438	0.8249	-0.159
Mof_H 	H 	0.89	0.4459	0.8163	0.089
Mof_C 	C 	0.8139	0.6066	0.8261	0.011
Mof_H 	H 	0.7987	0.6368	0.8157	0.023
Mof_C 	C 	0.9438	0.7124	0.85829	0.055
Mof_H 	H 	0.936	0.7441	0.8697	0.01
Mof_C 	C 	0.9628	0.6173	0.823	-0.175
Mof_H 	H 	0.969	0.5846	0.8114	0.094
Mof_C 	C 	0.9847	0.4322	0.8546	0.014
Mof_H 	H 	0.0092	0.4288	0.8644	0.023
Mof_C 	C 	0.8526	0.5992	0.8228	-0.14
Mof_H 	H 	0.862	0.6228	0.8086	0.083
Mof_C 	C 	0.05078	0.9568	0.8494	0.386
Mof_C 	C 	0.8257	0.5247	0.8638	0.046
Mof_H 	H 	0.8171	0.5011	0.8785	0.016
Mof_C 	C 	0.6459	0.5633	0.8549	0.496
Mof_N 	N 	0.91354	0.5544	0.83868	-0.179
Mof_O 	O 	0.05836	0.9732	0.82255	-0.49
Mof_O 	O 	0.05751	0.9831	0.87342	-0.48
Mof_O 	O 	0.03602	0.1145	0.8225	-0.491
Mof_O 	O 	0.63612	0.5476	0.87679	-0.531
Mof_O 	O 	0.62524	0.5742	0.82894	-0.513
Mof_O 	O 	0.06846	0.1287	0.87009	-0.444
Mof_Zn	Zn	0.07344	0.05406	0.81796	1.227
Mof_Zn	Zn	0.08959	0.04844	0.89877	1.218
Mof_C 	C 	0.54863	0.5146	0.7543	0.096
Mof_H 	H 	0.5323	0.4901	0.7627	-0.009
Mof_C 	C 	0.56777	0.5557	0.70985	0.098
Mof_C 	C 	0.59303	0.5876	0.75968	0.093
Mof_H 	H 	0.6109	0.6119	0.7716	-0.011
Mof_C 	C 	0.566	0.5507	0.67579	-0.02
Mof_C 	C 	0.534	0.5327	0.62558	-0.064
Mof_H 	H 	0.5123	0.5226	0.6123	0.07
Mof_C 	C 	0.5097	0.3367	0.4724	0.108
Mof_H 	H 	0.5184	0.3566	0.4907	0.008
Mof_C 	C 	0.17411	0.0173	0.4552	-0.14
Mof_C 	C 	0.42914	0.8581	0.43318	0.039
Mof_H 	H 	0.4181	0.8232	0.4233	0.012
Mof_C 	C 	0.45525	0.1899	0.4444	-0.114
Mof_C 	C 	0.4234	0.9669	0.4465	0.16
Mof_C 	C 	0.56524	0.544	0.6153	-0.004
Mof_C 	C 	0.52732	0.6894	0.45404	-0.126
Mof_C 	C 	0.51475	0.3593	0.4464	-0.148
Mof_C 	C 	0.54199	0.5036	0.56215	-0.187
Mof_H 	H 	0.526	0.4792	0.5709	0.108
Mof_C 	C 	0.4351	0.1789	0.46571	0.083
Mof_H 	H 	0.4326	0.2097	0.4797	0.003
Mof_C 	C 	0.5481	0.6326	0.4592	0.31
Mof_C 	C 	0.48961	0.6867	0.44855	0.058
Mof_H 	H 	0.4775	0.6489	0.4462	0.022
Mof_C 	C 	0.42057	0.0792	0.4464	0.187
Mof_C 	C 	0.50156	0.3335	0.418	0.085
Mof_H 	H 	0.5045	0.3521	0.3999	0.02
Mof_C 	C 	0.46997	0.7412	0.44663	-0.153
Mof_H 	H 	0.4444	0.7382	0.4438	0.082
Mof_C 	C 	0.46655	0.8561	0.4503	-0.08
Mof_C 	C 	0.54226	0.4978	0.53209	0.098
Mof_H 	H 	0.5273	0.4689	0.5204	-0.003
Mof_C 	C 	0.56415	0.5434	0.57961	0.125
Mof_C 	C 	0.48498	0.7994	0.44855	0.099
Mof_C 	C 	0.4587	0.9627	0.4621	-0.182
Mof_H 	H 	0.4691	0.9975	0.4725	0.096
Mof_C 	C 	0.225	0.0518	0.4296	-0.131
Mof_H 	H 	0.2333	0.0719	0.4137	0.078
Mof_C 	C 	0.6002	0.5604	0.66338	-0.04
Mof_H 	H 	0.6229	0.5681	0.6757	0.042
Mof_C 	C 	0.49027	0.2803	0.47129	-0.205
Mof_H 	H 	0.4865	0.2614	0.4892	0.11
Mof_C 	C 	0.45939	0.1423	0.42364	0.079
Mof_H 	H 	0.4745	0.1489	0.4094	0.002
Mof_C 	C 	0.48243	0.2738	0.41938	-0.212
Mof_H 	H 	0.4745	0.2514	0.4016	0.11
Mof_C 	C 	0.4771	0.2539	0.44394	0.174
Mof_C 	C 	0.52507	0.802	0.45423	-0.141
Mof_H 	H 	0.5372	0.8399	0.4561	0.079
Mof_C 	C 	0.54625	0.5089	0.72304	-0.157
Mof_H 	H 	0.5324	0.4785	0.7115	0.088
Mof_C 	C 	0.18632	0.0488	0.4296	0.045
Mof_H 	H 	0.1693	0.0663	0.4139	0.029
Mof_C 	C 	0.4105	0.9139	0.43207	-0.173
Mof_H 	H 	0.3869	0.9152	0.4204	0.092
Mof_C 	C 	0.34975	0.9739	0.4619	-0.143
Mof_H 	H 	0.3643	0.9406	0.4699	0.083
Mof_C 	C 	0.4793	0.9114	0.4634	0.058
Mof_H 	H 	0.5036	0.9132	0.4738	0.008
Mof_C 	C 	0.5448	0.7479	0.45673	0.051
Mof_H 	H 	0.5705	0.7497	0.4603	0.027
Mof_C 	C 	0.34193	0.0689	0.4354	-0.167
Mof_H 	H 	0.3517	0.1023	0.4265	0.091
Mof_C 	C 	0.59609	0.5571	0.63376	-0.049
Mof_H 	H 	0.6168	0.5648	0.6251	0.046
Mof_C 	C 	0.53956	0.4204	0.4468	0.4
Mof_C 	C 	0.1327	0.0177	0.4524	0.363
Mof_C 	C 	0.28951	0.0238	0.45165	-0.068
Mof_C 	C 	0.41788	0.1233	0.46758	-0.213
Mof_H 	H 	0.4046	0.1158	0.4831	0.108
Mof_C 	C 	0.3654	0.0217	0.4469	0.14
Mof_C 	C 	0.31049	0.9761	0.4651	0.013
Mof_H 	H 	0.3004	0.9459	0.476	0.022
Mof_C 	C 	0.44213	0.0877	0.4239	-0.209
Mof_H 	H 	0.4444	0.057	0.4099	0.109
Mof_C 	C 	0.30607	0.0696	0.4364	0.042
Mof_H 	H 	0.2915	0.1014	0.4267	0.015
Mof_C 	C 	0.1984	0.9932	0.4766	0.084
Mof_H 	H 	0.1906	0.9734	0.4928	0.013
Mof_C 	C 	0.53511	0.5365	0.6568	-0.024
Mof_H 	H 	0.5137	0.5289	0.6645	0.042
Mof_C 	C 	0.25088	0.0253	0.4529	0.095
Mof_C 	C 	0.236	0.9964	0.4759	-0.153
Mof_H 	H 	0.2522	0.9781	0.4918	0.083
Mof_C 	C 	0.58996	0.5907	0.7295	-0.173
Mof_H 	H 	0.6045	0.6195	0.7217	0.089
Mof_C 	C 	0.58646	0.5814	0.56706	-0.202
Mof_H 	H 	0.6013	0.6107	0.5786	0.103
Mof_C 	C 	0.586	0.5746	0.5371	0.136
Mof_H 	H 	0.6018	0.5997	0.5284	-0.017
Mof_N 	N 	0.57122	0.5504	0.77416	-0.272
Mof_N 	N 	0.4038	0.0235	0.44735	-0.194
Mof_N 	N 	0.56552	0.5363	0.5191	-0.257
Mof_O 	O 	0.53282	0.581	0.45376	-0.444
Mof_O 	O 	0.55148	0.4414	0.47175	-0.501
Mof_O 	O 	0.58329	0.63495	0.47082	-0.321
Mof_O 	O 	0.11026	0.0207	0.42992	-0.503
Mof_O 	O 	0.54375	0.4365	0.42057	-0.463
Mof_O 	O 	0.12544	0.0117	0.48039	-0.432
Mof_Zn	Zn	0.57097	0.52452	0.47374	1.227
Mof_C 	C 	0.1874	0.0694	0.8524	-0.24
Mof_C 	C 	0.197	0.0826	0.8258	0.146
Mof_H 	H 	0.1791	0.0895	0.8086	-0.007
Mof_C 	C 	0.5268	0.3575	0.82227	0.066
Mof_H 	H 	0.535	0.3733	0.8053	0.022
Mof_C 	C 	0.53353	0.3909	0.8493	-0.128
Mof_C 	C 	0.5087	0.3025	0.8197	-0.151
Mof_H 	H 	0.5059	0.2804	0.8016	0.083
Mof_C 	C 	0.5013	0.3115	0.8718	-0.144
Mof_H 	H 	0.4936	0.2961	0.8891	0.089
Mof_C 	C 	0.2488	0.062	0.8773	-0.214
Mof_H 	H 	0.2654	0.0592	0.8957	0.107
Mof_C 	C 	0.5208	0.3699	0.87308	0.063
Mof_H 	H 	0.5243	0.3928	0.891	0.031
Mof_C 	C 	0.2113	0.0605	0.8763	0.17
Mof_H 	H 	0.2029	0.0523	0.8943	-0.017
Mof_C 	C 	0.2349	0.0859	0.8241	-0.199
Mof_H 	H 	0.2423	0.1001	0.8065	0.099
Mof_C 	C 	0.49424	0.2788	0.84472	0.104
Mof_C 	C 	0.2613	0.068	0.8491	0.133
Mof_C 	C 	0.47471	0.2213	0.84348	-0.078
Mof_C 	C 	0.3605	0.0176	0.8613	-0.164
Mof_H 	H 	0.375	0.9876	0.8726	0.09
Mof_C 	C 	0.4677	0.8815	0.8402	-0.052
Mof_C 	C 	0.4897	0.8203	0.8412	0.068
Mof_C 	C 	0.4263	0.1586	0.85572	-0.183
Mof_H 	H 	0.4071	0.1535	0.8665	0.097
Mof_C 	C 	0.5237	0.7062	0.8446	-0.088
Mof_C 	C 	0.5477	0.6447	0.8442	0.354
Mof_C 	C 	0.3011	0.0635	0.8469	-0.076
Mof_C 	C 	0.4924	0.7143	0.82563	0.03
Mof_H 	H 	0.4833	0.6829	0.8122	0.039
Mof_C 	C 	0.52323	0.8103	0.8618	-0.114
Mof_H 	H 	0.5339	0.8426	0.8741	0.068
Mof_C 	C 	0.472	0.7712	0.8252	-0.119
Mof_H 	H 	0.4479	0.7746	0.8146	0.071
Mof_C 	C 	0.4823	0.1711	0.8243	0.044
Mof_H 	H 	0.5007	0.1755	0.8126	0.014
Mof_C 	C 	0.4327	0.8896	0.8236	0.03
Mof_H 	H 	0.4214	0.8577	0.8115	0.016
Mof_C 	C 	0.5407	0.7518	0.8639	0.02
Mof_H 	H 	0.5625	0.7444	0.8776	0.029
Mof_C 	C 	0.4321	0.997	0.8387	0.147
Mof_C 	C 	0.4342	0.1107	0.8386	0.16
Mof_C 	C 	0.3757	0.0567	0.841	0.131
Mof_C 	C 	0.466	0.9921	0.8553	-0.161
Mof_H 	H 	0.4772	0.0249	0.8668	0.091
Mof_C 	C 	0.4149	0.9438	0.8249	-0.159
Mof_H 	H 	0.39	0.9459	0.8163	0.089
Mof_C 	C 	0.3139	0.1066	0.8261	0.011
Mof_H 	H 	0.2987	0.1368	0.8157	0.023
Mof_C 	C 	0.4438	0.2124	0.85829	0.055
Mof_H 	H 	0.436	0.2441	0.8697	0.01
Mof_C 	C 	0.4628	0.1173	0.823	-0.175
Mof_H 	H 	0.469	0.0846	0.8114	0.094
Mof_C 	C 	0.4847	0.9322	0.8546	0.013
Mof_H 	H 	0.5092	0.9288	0.8644	0.023
Mof_C 	C 	0.3526	0.0992	0.8228	-0.14
Mof_H 	H 	0.362	0.1228	0.8086	0.083
Mof_C 	C 	0.55078	0.4568	0.8494	0.386
Mof_C 	C 	0.3257	0.0247	0.8638	0.047
Mof_H 	H 	0.3171	0.0011	0.8785	0.016
Mof_C 	C 	0.1459	0.0633	0.8549	0.496
Mof_N 	N 	0.41354	0.0544	0.83868	-0.179
Mof_O 	O 	0.55836	0.4732	0.82255	-0.49
Mof_O 	O 	0.55751	0.4831	0.87342	-0.48
Mof_O 	O 	0.53602	0.6145	0.8225	-0.491
Mof_O 	O 	0.13612	0.0476	0.87679	-0.531
Mof_O 	O 	0.12524	0.0742	0.82894	-0.513
Mof_O 	O 	0.56846	0.6287	0.87009	-0.444
Mof_Zn	Zn	0.57344	0.55406	0.81796	1.227
Mof_Zn	Zn	0.58959	0.54844	0.89877	1.218
Mof_C 	C 	0.04863	0.9854	0.2543	0.096
Mof_H 	H 	0.0323	0.0099	0.2627	-0.008
Mof_C 	C 	0.06777	0.9443	0.20985	0.098
Mof_C 	C 	0.09303	0.9124	0.25968	0.093
Mof_H 	H 	0.1109	0.8881	0.2716	-0.011
Mof_C 	C 	0.066	0.9493	0.17579	-0.021
Mof_C 	C 	0.034	0.9673	0.12558	-0.064
Mof_H 	H 	0.0123	0.9774	0.1123	0.07
Mof_C 	C 	0.0097	0.1633	0.9724	0.108
Mof_H 	H 	0.0184	0.1434	0.9907	0.008
Mof_C 	C 	0.67411	0.4827	0.9552	-0.14
Mof_C 	C 	0.92914	0.6419	0.93318	0.04
Mof_H 	H 	0.9181	0.6768	0.9233	0.012
Mof_C 	C 	0.95525	0.3101	0.9444	-0.114
Mof_C 	C 	0.9234	0.5331	0.9465	0.16
Mof_C 	C 	0.06524	0.956	0.1153	-0.004
Mof_C 	C 	0.02732	0.8106	0.95404	-0.126
Mof_C 	C 	0.01475	0.1407	0.9464	-0.148
Mof_C 	C 	0.04199	0.9964	0.06215	-0.188
Mof_H 	H 	0.026	0.0208	0.0709	0.108
Mof_C 	C 	0.9351	0.3211	0.96571	0.083
Mof_H 	H 	0.9326	0.2903	0.9797	0.003
Mof_C 	C 	0.0481	0.8674	0.9592	0.31
Mof_C 	C 	0.98961	0.8133	0.94855	0.058
Mof_H 	H 	0.9775	0.8511	0.9462	0.022
Mof_C 	C 	0.92057	0.4208	0.9464	0.187
Mof_C 	C 	0.00156	0.1665	0.918	0.084
Mof_H 	H 	0.0045	0.1479	0.8999	0.02
Mof_C 	C 	0.96997	0.7588	0.94663	-0.153
Mof_H 	H 	0.9444	0.7618	0.9438	0.082
Mof_C 	C 	0.96655	0.6439	0.9503	-0.08
Mof_C 	C 	0.04226	0.0022	0.03209	0.098
Mof_H 	H 	0.0273	0.0311	0.0204	-0.003
Mof_C 	C 	0.06415	0.9566	0.07961	0.125
Mof_C 	C 	0.98498	0.7006	0.94855	0.099
Mof_C 	C 	0.9587	0.5373	0.9621	-0.182
Mof_H 	H 	0.9691	0.5025	0.9725	0.096
Mof_C 	C 	0.725	0.4482	0.9296	-0.131
Mof_H 	H 	0.7333	0.4281	0.9137	0.078
Mof_C 	C 	0.1002	0.9396	0.16338	-0.04
Mof_H 	H 	0.1229	0.9319	0.1757	0.042
Mof_C 	C 	0.99027	0.2197	0.97129	-0.205
Mof_H 	H 	0.9865	0.2386	0.9892	0.11
Mof_C 	C 	0.95939	0.3577	0.92364	0.079
Mof_H 	H 	0.9745	0.3511	0.9094	0.002
Mof_C 	C 	0.98243	0.2262	0.91938	-0.212
Mof_H 	H 	0.9745	0.2486	0.9016	0.11
Mof_C 	C 	0.9771	0.2461	0.94394	0.174
Mof_C 	C 	0.02507	0.698	0.95423	-0.141
Mof_H 	H 	0.0372	0.6601	0.9561	0.079
Mof_C 	C 	0.04625	0.9911	0.22304	-0.158
Mof_H 	H 	0.0324	0.0215	0.2115	0.088
Mof_C 	C 	0.68632	0.4512	0.9296	0.045
Mof_H 	H 	0.6693	0.4337	0.9139	0.029
Mof_C 	C 	0.9105	0.5861	0.93207	-0.174
Mof_H 	H 	0.8869	0.5848	0.9204	0.092
Mof_C 	C 	0.84975	0.5261	0.9619	-0.143
Mof_H 	H 	0.8643	0.5594	0.9699	0.083
Mof_C 	C 	0.9793	0.5886	0.9634	0.058
Mof_H 	H 	0.0036	0.5868	0.9738	0.008
Mof_C 	C 	0.0448	0.7521	0.95673	0.051
Mof_H 	H 	0.0705	0.7503	0.9603	0.027
Mof_C 	C 	0.84193	0.4311	0.9354	-0.167
Mof_H 	H 	0.8517	0.3977	0.9265	0.091
Mof_C 	C 	0.09609	0.9429	0.13376	-0.049
Mof_H 	H 	0.1168	0.9352	0.1251	0.046
Mof_C 	C 	0.03956	0.0796	0.9468	0.4
Mof_C 	C 	0.6327	0.4823	0.9524	0.363
Mof_C 	C 	0.78951	0.4762	0.95165	-0.068
Mof_C 	C 	0.91788	0.3767	0.96758	-0.213
Mof_H 	H 	0.9046	0.3842	0.9831	0.108
Mof_C 	C 	0.8654	0.4783	0.9469	0.14
Mof_C 	C 	0.81049	0.5239	0.9651	0.013
Mof_H 	H 	0.8004	0.5541	0.976	0.022
Mof_C 	C 	0.94213	0.4123	0.9239	-0.209
Mof_H 	H 	0.9444	0.443	0.9099	0.109
Mof_C 	C 	0.80607	0.4304	0.9364	0.041
Mof_H 	H 	0.7915	0.3986	0.9267	0.015
Mof_C 	C 	0.6984	0.5068	0.9766	0.084
Mof_H 	H 	0.6906	0.5266	0.9928	0.013
Mof_C 	C 	0.03511	0.9635	0.1568	-0.024
Mof_H 	H 	0.0137	0.9711	0.1645	0.042
Mof_C 	C 	0.75088	0.4747	0.9529	0.095
Mof_C 	C 	0.736	0.5036	0.9759	-0.153
Mof_H 	H 	0.7522	0.5219	0.9918	0.083
Mof_C 	C 	0.08996	0.9093	0.2295	-0.173
Mof_H 	H 	0.1045	0.8805	0.2217	0.089
Mof_C 	C 	0.08646	0.9186	0.06706	-0.202
Mof_H 	H 	0.1013	0.8893	0.0786	0.103
Mof_C 	C 	0.086	0.9254	0.0371	0.136
Mof_H 	H 	0.1018	0.9003	0.0284	-0.017
Mof_N 	N 	0.07122	0.9496	0.27416	-0.272
Mof_N 	N 	0.9038	0.4765	0.94735	-0.194
Mof_N 	N 	0.06552	0.9637	0.0191	-0.257
Mof_O 	O 	0.03282	0.919	0.95376	-0.444
Mof_O 	O 	0.05148	0.0586	0.97175	-0.501
Mof_O 	O 	0.08329	0.86505	0.97082	-0.321
Mof_O 	O 	0.61026	0.4793	0.92992	-0.503
Mof_O 	O 	0.04375	0.0635	0.92057	-0.463
Mof_O 	O 	0.62544	0.4883	0.98039	-0.432
Mof_Zn	Zn	0.07097	0.97548	0.97374	1.227
Mof_C 	C 	0.6874	0.4306	0.3524	-0.24
Mof_C 	C 	0.697	0.4174	0.3258	0.146
Mof_H 	H 	0.6791	0.4105	0.3086	-0.007
Mof_C 	C 	0.0268	0.1425	0.32227	0.066
Mof_H 	H 	0.035	0.1267	0.3053	0.022
Mof_C 	C 	0.03353	0.1091	0.3493	-0.128
Mof_C 	C 	0.0087	0.1975	0.3197	-0.151
Mof_H 	H 	0.0059	0.2196	0.3016	0.083
Mof_C 	C 	0.0013	0.1885	0.3718	-0.144
Mof_H 	H 	0.9936	0.2039	0.3891	0.089
Mof_C 	C 	0.7488	0.438	0.3773	-0.214
Mof_H 	H 	0.7654	0.4408	0.3957	0.107
Mof_C 	C 	0.0208	0.1301	0.37308	0.063
Mof_H 	H 	0.0243	0.1072	0.391	0.031
Mof_C 	C 	0.7113	0.4395	0.3763	0.17
Mof_H 	H 	0.7029	0.4477	0.3943	-0.017
Mof_C 	C 	0.7349	0.4141	0.3241	-0.199
Mof_H 	H 	0.7423	0.3999	0.3065	0.099
Mof_C 	C 	0.99424	0.2212	0.34472	0.104
Mof_C 	C 	0.7613	0.432	0.3491	0.133
Mof_C 	C 	0.97471	0.2787	0.34348	-0.078
Mof_C 	C 	0.8605	0.4824	0.3613	-0.163
Mof_H 	H 	0.875	0.5124	0.3726	0.09
Mof_C 	C 	0.9677	0.6185	0.3402	-0.052
Mof_C 	C 	0.9897	0.6797	0.3412	0.068
Mof_C 	C 	0.9263	0.3414	0.35572	-0.183
Mof_H 	H 	0.9071	0.3465	0.3665	0.097
Mof_C 	C 	0.0237	0.7938	0.3446	-0.088
Mof_C 	C 	0.0477	0.8553	0.3442	0.354
Mof_C 	C 	0.8011	0.4365	0.3469	-0.076
Mof_C 	C 	0.9924	0.7857	0.32563	0.03
Mof_H 	H 	0.9833	0.8171	0.3122	0.039
Mof_C 	C 	0.02323	0.6897	0.3618	-0.114
Mof_H 	H 	0.0339	0.6574	0.3741	0.068
Mof_C 	C 	0.972	0.7288	0.3252	-0.119
Mof_H 	H 	0.9479	0.7254	0.3146	0.071
Mof_C 	C 	0.9823	0.3289	0.3243	0.044
Mof_H 	H 	0.0007	0.3245	0.3126	0.014
Mof_C 	C 	0.9327	0.6104	0.3236	0.03
Mof_H 	H 	0.9214	0.6423	0.3115	0.016
Mof_C 	C 	0.0407	0.7482	0.3639	0.02
Mof_H 	H 	0.0625	0.7556	0.3776	0.029
Mof_C 	C 	0.9321	0.503	0.3387	0.147
Mof_C 	C 	0.9342	0.3893	0.3386	0.16
Mof_C 	C 	0.8757	0.4433	0.341	0.131
Mof_C 	C 	0.966	0.5079	0.3553	-0.161
Mof_H 	H 	0.9772	0.4751	0.3668	0.091
Mof_C 	C 	0.9149	0.5562	0.3249	-0.159
Mof_H 	H 	0.89	0.5541	0.3163	0.089
Mof_C 	C 	0.8139	0.3934	0.3261	0.011
Mof_H 	H 	0.7987	0.3632	0.3157	0.023
Mof_C 	C 	0.9438	0.2876	0.35829	0.055
Mof_H 	H 	0.936	0.2559	0.3697	0.01
Mof_C 	C 	0.9628	0.3827	0.323	-0.175
Mof_H 	H 	0.969	0.4154	0.3114	0.094
Mof_C 	C 	0.9847	0.5678	0.3546	0.014
Mof_H 	H 	0.0092	0.5712	0.3644	0.023
Mof_C 	C 	0.8526	0.4008	0.3228	-0.14
Mof_H 	H 	0.862	0.3772	0.3086	0.083
Mof_C 	C 	0.05078	0.0432	0.3494	0.386
Mof_C 	C 	0.8257	0.4753	0.3638	0.046
Mof_H 	H 	0.8171	0.4989	0.3785	0.016
Mof_C 	C 	0.6459	0.4367	0.3549	0.496
Mof_N 	N 	0.91354	0.4456	0.33868	-0.179
Mof_O 	O 	0.05836	0.0268	0.32255	-0.49
Mof_O 	O 	0.05751	0.0169	0.37342	-0.48
Mof_O 	O 	0.03602	0.8855	0.3225	-0.491
Mof_O 	O 	0.63612	0.4524	0.37679	-0.531
Mof_O 	O 	0.62524	0.4258	0.32894	-0.513
Mof_O 	O 	0.06846	0.8713	0.37009	-0.444
Mof_Zn	Zn	0.07344	0.94594	0.31796	1.227
Mof_Zn	Zn	0.08959	0.95156	0.39877	1.218
Mof_C 	C 	0.54863	0.4854	0.2543	0.096
Mof_H 	H 	0.5323	0.5099	0.2627	-0.009
Mof_C 	C 	0.56777	0.4443	0.20985	0.098
Mof_C 	C 	0.59303	0.4124	0.25968	0.093
Mof_H 	H 	0.6109	0.3881	0.2716	-0.011
Mof_C 	C 	0.566	0.4493	0.17579	-0.02
Mof_C 	C 	0.534	0.4673	0.12558	-0.064
Mof_H 	H 	0.5123	0.4774	0.1123	0.07
Mof_C 	C 	0.5097	0.6633	0.9724	0.108
Mof_H 	H 	0.5184	0.6434	0.9907	0.008
Mof_C 	C 	0.17411	0.9827	0.9552	-0.14
Mof_C 	C 	0.42914	0.1419	0.93318	0.039
Mof_H 	H 	0.4181	0.1768	0.9233	0.012
Mof_C 	C 	0.45525	0.8101	0.9444	-0.114
Mof_C 	C 	0.4234	0.0331	0.9465	0.16
Mof_C 	C 	0.56524	0.456	0.1153	-0.004
Mof_C 	C 	0.52732	0.3106	0.95404	-0.126
Mof_C 	C 	0.51475	0.6407	0.9464	-0.148
Mof_C 	C 	0.54199	0.4964	0.06215	-0.187
Mof_H 	H 	0.526	0.5208	0.0709	0.108
Mof_C 	C 	0.4351	0.8211	0.96571	0.083
Mof_H 	H 	0.4326	0.7903	0.9797	0.003
Mof_C 	C 	0.5481	0.3674	0.9592	0.31
Mof_C 	C 	0.48961	0.3133	0.94855	0.058
Mof_H 	H 	0.4775	0.3511	0.9462	0.022
Mof_C 	C 	0.42057	0.9208	0.9464	0.187
Mof_C 	C 	0.50156	0.6665	0.918	0.085
Mof_H 	H 	0.5045	0.6479	0.8999	0.02
Mof_C 	C 	0.46997	0.2588	0.94663	-0.153
Mof_H 	H 	0.4444	0.2618	0.9438	0.082
Mof_C 	C 	0.46655	0.1439	0.9503	-0.08
Mof_C 	C 	0.54226	0.5022	0.03209	0.098
Mof_H 	H 	0.5273	0.5311	0.0204	-0.003
Mof_C 	C 	0.56415	0.4566	0.07961	0.125
Mof_C 	C 	0.48498	0.2006	0.94855	0.099
Mof_C 	C 	0.4587	0.0373	0.9621	-0.182
Mof_H 	H 	0.4691	0.0025	0.9725	0.096
Mof_C 	C 	0.225	0.9482	0.9296	-0.131
Mof_H 	H 	0.2333	0.9281	0.9137	0.078
Mof_C 	C 	0.6002	0.4396	0.16338	-0.04
Mof_H 	H 	0.6229	0.4319	0.1757	0.042
Mof_C 	C 	0.49027	0.7197	0.97129	-0.205
Mof_H 	H 	0.4865	0.7386	0.9892	0.11
Mof_C 	C 	0.45939	0.8577	0.92364	0.079
Mof_H 	H 	0.4745	0.8511	0.9094	0.002
Mof_C 	C 	0.48243	0.7262	0.91938	-0.212
Mof_H 	H 	0.4745	0.7486	0.9016	0.11
Mof_C 	C 	0.4771	0.7461	0.94394	0.174
Mof_C 	C 	0.52507	0.198	0.95423	-0.141
Mof_H 	H 	0.5372	0.1601	0.9561	0.079
Mof_C 	C 	0.54625	0.4911	0.22304	-0.157
Mof_H 	H 	0.5324	0.5215	0.2115	0.088
Mof_C 	C 	0.18632	0.9512	0.9296	0.045
Mof_H 	H 	0.1693	0.9337	0.9139	0.029
Mof_C 	C 	0.4105	0.0861	0.93207	-0.173
Mof_H 	H 	0.3869	0.0848	0.9204	0.092
Mof_C 	C 	0.34975	0.0261	0.9619	-0.143
Mof_H 	H 	0.3643	0.0594	0.9699	0.083
Mof_C 	C 	0.4793	0.0886	0.9634	0.058
Mof_H 	H 	0.5036	0.0868	0.9738	0.008
Mof_C 	C 	0.5448	0.2521	0.95673	0.051
Mof_H 	H 	0.5705	0.2503	0.9603	0.027
Mof_C 	C 	0.34193	0.9311	0.9354	-0.167
Mof_H 	H 	0.3517	0.8977	0.9265	0.091
Mof_C 	C 	0.59609	0.4429	0.13376	-0.049
Mof_H 	H 	0.6168	0.4352	0.1251	0.046
Mof_C 	C 	0.53956	0.5796	0.9468	0.4
Mof_C 	C 	0.1327	0.9823	0.9524	0.363
Mof_C 	C 	0.28951	0.9762	0.95165	-0.068
Mof_C 	C 	0.41788	0.8767	0.96758	-0.213
Mof_H 	H 	0.4046	0.8842	0.9831	0.108
Mof_C 	C 	0.3654	0.9783	0.9469	0.14
Mof_C 	C 	0.31049	0.0239	0.9651	0.013
Mof_H 	H 	0.3004	0.0541	0.976	0.022
Mof_C 	C 	0.44213	0.9123	0.9239	-0.209
Mof_H 	H 	0.4444	0.943	0.9099	0.109
Mof_C 	C 	0.30607	0.9304	0.9364	0.042
Mof_H 	H 	0.2915	0.8986	0.9267	0.015
Mof_C 	C 	0.1984	0.0068	0.9766	0.084
Mof_H 	H 	0.1906	0.0266	0.9928	0.013
Mof_C 	C 	0.53511	0.4635	0.1568	-0.024
Mof_H 	H 	0.5137	0.4711	0.1645	0.042
Mof_C 	C 	0.25088	0.9747	0.9529	0.095
Mof_C 	C 	0.236	0.0036	0.9759	-0.153
Mof_H 	H 	0.2522	0.0219	0.9918	0.083
Mof_C 	C 	0.58996	0.4093	0.2295	-0.173
Mof_H 	H 	0.6045	0.3805	0.2217	0.089
Mof_C 	C 	0.58646	0.4186	0.06706	-0.202
Mof_H 	H 	0.6013	0.3893	0.0786	0.103
Mof_C 	C 	0.586	0.4254	0.0371	0.136
Mof_H 	H 	0.6018	0.4003	0.0284	-0.017
Mof_N 	N 	0.57122	0.4496	0.27416	-0.272
Mof_N 	N 	0.4038	0.9765	0.94735	-0.194
Mof_N 	N 	0.56552	0.4637	0.0191	-0.257
Mof_O 	O 	0.53282	0.419	0.95376	-0.444
Mof_O 	O 	0.55148	0.5586	0.97175	-0.501
Mof_O 	O 	0.58329	0.36505	0.97082	-0.321
Mof_O 	O 	0.11026	0.9793	0.92992	-0.503
Mof_O 	O 	0.54375	0.5635	0.92057	-0.463
Mof_O 	O 	0.12544	0.9883	0.98039	-0.432
Mof_Zn	Zn	0.57097	0.47548	0.97374	1.227
Mof_C 	C 	0.1874	0.9306	0.3524	-0.24
Mof_C 	C 	0.197	0.9174	0.3258	0.146
Mof_H 	H 	0.1791	0.9105	0.3086	-0.007
Mof_C 	C 	0.5268	0.6425	0.32227	0.066
Mof_H 	H 	0.535	0.6267	0.3053	0.022
Mof_C 	C 	0.53353	0.6091	0.3493	-0.128
Mof_C 	C 	0.5087	0.6975	0.3197	-0.151
Mof_H 	H 	0.5059	0.7196	0.3016	0.083
Mof_C 	C 	0.5013	0.6885	0.3718	-0.144
Mof_H 	H 	0.4936	0.7039	0.3891	0.089
Mof_C 	C 	0.2488	0.938	0.3773	-0.214
Mof_H 	H 	0.2654	0.9408	0.3957	0.107
Mof_C 	C 	0.5208	0.6301	0.37308	0.063
Mof_H 	H 	0.5243	0.6072	0.391	0.031
Mof_C 	C 	0.2113	0.9395	0.3763	0.17
Mof_H 	H 	0.2029	0.9477	0.3943	-0.017
Mof_C 	C 	0.2349	0.9141	0.3241	-0.199
Mof_H 	H 	0.2423	0.8999	0.3065	0.099
Mof_C 	C 	0.49424	0.7212	0.34472	0.104
Mof_C 	C 	0.2613	0.932	0.3491	0.133
Mof_C 	C 	0.47471	0.7787	0.34348	-0.078
Mof_C 	C 	0.3605	0.9824	0.3613	-0.164
Mof_H 	H 	0.375	0.0124	0.3726	0.09
Mof_C 	C 	0.4677	0.1185	0.3402	-0.052
Mof_C 	C 	0.4897	0.1797	0.3412	0.068
Mof_C 	C 	0.4263	0.8414	0.35572	-0.183
Mof_H 	H 	0.4071	0.8465	0.3665	0.097
Mof_C 	C 	0.5237	0.2938	0.3446	-0.088
Mof_C 	C 	0.5477	0.3553	0.3442	0.354
Mof_C 	C 	0.3011	0.9365	0.3469	-0.076
Mof_C 	C 	0.4924	0.2857	0.32563	0.03
Mof_H 	H 	0.4833	0.3171	0.3122	0.039
Mof_C 	C 	0.52323	0.1897	0.3618	-0.114
Mof_H 	H 	0.5339	0.1574	0.3741	0.068
Mof_C 	C 	0.472	0.2288	0.3252	-0.119
Mof_H 	H 	0.4479	0.2254	0.3146	0.071
Mof_C 	C 	0.4823	0.8289	0.3243	0.044
Mof_H 	H 	0.5007	0.8245	0.3126	0.014
Mof_C 	C 	0.4327	0.1104	0.3236	0.03
Mof_H 	H 	0.4214	0.1423	0.3115	0.016
Mof_C 	C 	0.5407	0.2482	0.3639	0.02
Mof_H 	H 	0.5625	0.2556	0.3776	0.029
Mof_C 	C 	0.4321	0.003	0.3387	0.147
Mof_C 	C 	0.4342	0.8893	0.3386	0.16
Mof_C 	C 	0.3757	0.9433	0.341	0.131
Mof_C 	C 	0.466	0.0079	0.3553	-0.161
Mof_H 	H 	0.4772	0.9751	0.3668	0.091
Mof_C 	C 	0.4149	0.0562	0.3249	-0.159
Mof_H 	H 	0.39	0.0541	0.3163	0.089
Mof_C 	C 	0.3139	0.8934	0.3261	0.011
Mof_H 	H 	0.2987	0.8632	0.3157	0.023
Mof_C 	C 	0.4438	0.7876	0.35829	0.055
Mof_H 	H 	0.436	0.7559	0.3697	0.01
Mof_C 	C 	0.4628	0.8827	0.323	-0.175
Mof_H 	H 	0.469	0.9154	0.3114	0.094
Mof_C 	C 	0.4847	0.0678	0.3546	0.013
Mof_H 	H 	0.5092	0.0712	0.3644	0.023
Mof_C 	C 	0.3526	0.9008	0.3228	-0.14
Mof_H 	H 	0.362	0.8772	0.3086	0.083
Mof_C 	C 	0.55078	0.5432	0.3494	0.386
Mof_C 	C 	0.3257	0.9753	0.3638	0.047
Mof_H 	H 	0.3171	0.9989	0.3785	0.016
Mof_C 	C 	0.1459	0.9367	0.3549	0.496
Mof_N 	N 	0.41354	0.9456	0.33868	-0.179
Mof_O 	O 	0.55836	0.5268	0.32255	-0.49
Mof_O 	O 	0.55751	0.5169	0.37342	-0.48
Mof_O 	O 	0.53602	0.3855	0.3225	-0.491
Mof_O 	O 	0.13612	0.9524	0.37679	-0.531
Mof_O 	O 	0.12524	0.9258	0.32894	-0.513
Mof_O 	O 	0.56846	0.3713	0.37009	-0.444
Mof_Zn	Zn	0.57344	0.44594	0.31796	1.227
Mof_Zn	Zn	0.58959	0.45156	0.39877	1.218
_end
