# CIF file generated by openbabel 3.1.0, see https://openbabel.org
data_I
_chemical_name_common 'image0'
_cell_length_a 15.52
_cell_length_b 13.89
_cell_length_c 13.0769
_cell_angle_alpha 90
_cell_angle_beta 90
_cell_angle_gamma 90
_space_group_name_H-M_alt 'P 1'
_space_group_name_Hall 'P 1'
loop_
    _symmetry_equiv_pos_as_xyz
    x,y,z
loop_
    _atom_site_label
    _atom_site_type_symbol
    _atom_site_fract_x
    _atom_site_fract_y
    _atom_site_fract_z
    _atom_site_occupancy
    U1       U        0.26136    0.98959    0.43733    1.000
    U2       U        0.27438    0.73750    0.58520    1.000
    P1       P        0.27580    0.51870    0.17570    1.000
    P2       P        0.31290    0.73950    0.34590    1.000
    O1       O        0.30510    0.82500    0.42040    1.000
    O2       O        0.23300    0.59360    0.10390    1.000
    O3       O        0.27980    0.43140    0.10210    1.000
    O4       O        0.28460    0.65370    0.41440    1.000
    O5       O        0.21740    0.49460    0.26480    1.000
    O6       O        0.24910    0.75210    0.25540    1.000
    O7       O        0.40460    0.72760    0.30870    1.000
    O8       O        0.36330    0.54970    0.20960    1.000
    U3       U        0.76136    0.48959    0.43733    1.000
    U4       U        0.77438    0.23750    0.58520    1.000
    P3       P        0.77580    0.01870    0.17570    1.000
    P4       P        0.81290    0.23950    0.34590    1.000
    O9       O        0.80510    0.32500    0.42040    1.000
    O10      O        0.73300    0.09360    0.10390    1.000
    O11      O        0.77980    0.93140    0.10210    1.000
    O12      O        0.78460    0.15370    0.41440    1.000
    O13      O        0.71740    0.99460    0.26480    1.000
    O14      O        0.74910    0.25210    0.25540    1.000
    O15      O        0.90460    0.22760    0.30870    1.000
    O16      O        0.86330    0.04970    0.20960    1.000
    U5       U        0.73864    0.01041    0.93733    1.000
    U6       U        0.72562    0.26250    0.08520    1.000
    P5       P        0.72420    0.48130    0.67570    1.000
    P6       P        0.68710    0.26050    0.84590    1.000
    O17      O        0.69490    0.17500    0.92040    1.000
    O18      O        0.76700    0.40640    0.60390    1.000
    O19      O        0.72020    0.56860    0.60210    1.000
    O20      O        0.71540    0.34630    0.91440    1.000
    O21      O        0.78260    0.50540    0.76480    1.000
    O22      O        0.75090    0.24790    0.75540    1.000
    O23      O        0.59540    0.27240    0.80870    1.000
    O24      O        0.63670    0.45030    0.70960    1.000
    U7       U        0.23864    0.51041    0.93733    1.000
    U8       U        0.22562    0.76250    0.08520    1.000
    P7       P        0.22420    0.98130    0.67570    1.000
    P8       P        0.18710    0.76050    0.84590    1.000
    O25      O        0.19490    0.67500    0.92040    1.000
    O26      O        0.26700    0.90640    0.60390    1.000
    O27      O        0.22020    0.06860    0.60210    1.000
    O28      O        0.21540    0.84630    0.91440    1.000
    O29      O        0.28260    0.00540    0.76480    1.000
    O30      O        0.25090    0.74790    0.75540    1.000
    O31      O        0.09540    0.77240    0.80870    1.000
    O32      O        0.13670    0.95030    0.70960    1.000
    U9       U        0.26136    0.01041    0.93733    1.000
    U10      U        0.27438    0.26250    0.08520    1.000
    P9       P        0.27580    0.48130    0.67570    1.000
    P10      P        0.31290    0.26050    0.84590    1.000
    O33      O        0.30510    0.17500    0.92040    1.000
    O34      O        0.23300    0.40640    0.60390    1.000
    O35      O        0.27980    0.56860    0.60210    1.000
    O36      O        0.28460    0.34630    0.91440    1.000
    O37      O        0.21740    0.50540    0.76480    1.000
    O38      O        0.24910    0.24790    0.75540    1.000
    O39      O        0.40460    0.27240    0.80870    1.000
    O40      O        0.36330    0.45030    0.70960    1.000
    U11      U        0.76136    0.51041    0.93733    1.000
    U12      U        0.77438    0.76250    0.08520    1.000
    P11      P        0.77580    0.98130    0.67570    1.000
    P12      P        0.81290    0.76050    0.84590    1.000
    O41      O        0.80510    0.67500    0.92040    1.000
    O42      O        0.73300    0.90640    0.60390    1.000
    O43      O        0.77980    0.06860    0.60210    1.000
    O44      O        0.78460    0.84630    0.91440    1.000
    O45      O        0.71740    0.00540    0.76480    1.000
    O46      O        0.74910    0.74790    0.75540    1.000
    O47      O        0.90460    0.77240    0.80870    1.000
    O48      O        0.86330    0.95030    0.70960    1.000
    U13      U        0.73864    0.98959    0.43733    1.000
    U14      U        0.72562    0.73750    0.58520    1.000
    P13      P        0.72420    0.51870    0.17570    1.000
    P14      P        0.68710    0.73950    0.34590    1.000
    O49      O        0.69490    0.82500    0.42040    1.000
    O50      O        0.76700    0.59360    0.10390    1.000
    O51      O        0.72020    0.43140    0.10210    1.000
    O52      O        0.71540    0.65370    0.41440    1.000
    O53      O        0.78260    0.49460    0.26480    1.000
    O54      O        0.75090    0.75210    0.25540    1.000
    O55      O        0.59540    0.72760    0.30870    1.000
    O56      O        0.63670    0.54970    0.20960    1.000
    U15      U        0.23864    0.48959    0.43733    1.000
    U16      U        0.22562    0.23750    0.58520    1.000
    P15      P        0.22420    0.01870    0.17570    1.000
    P16      P        0.18710    0.23950    0.34590    1.000
    O57      O        0.19490    0.32500    0.42040    1.000
    O58      O        0.26700    0.09360    0.10390    1.000
    O59      O        0.22020    0.93140    0.10210    1.000
    O60      O        0.21540    0.15370    0.41440    1.000
    O61      O        0.28260    0.99460    0.26480    1.000
    O62      O        0.25090    0.25210    0.25540    1.000
    O63      O        0.09540    0.22760    0.30870    1.000
    O64      O        0.13670    0.04970    0.20960    1.000
    U17      U        0.50000    0.61003    0.24730    1.000
    U18      U        0.00000    0.11003    0.24730    1.000
    U19      U        0.50000    0.38997    0.74730    1.000
    U20      U        0.00000    0.88997    0.74730    1.000
