data_functionalizedCrystal
_audit_creation_method	'EQeq! by Chris Wilmer'
_symmetry_space_group_name_H-M	'P1'
_symmetry_Int_Tables_number	1
_symmetry_cell_setting	triclinic
loop_
_symmetry_equiv_pos_as_xyz
  x,y,z
_cell_length_a	21.6971
_cell_length_b	19.7886
_cell_length_c	17.5075
_cell_angle_alpha	90
_cell_angle_beta	98.12
_cell_angle_gamma	90
loop_
_atom_site_label
_atom_site_type_symbol
_atom_site_fract_x
_atom_site_fract_y
_atom_site_fract_z
_atom_site_charge
Mof_Cu	Cu	0.3327	0.0015	0.9986	0.751
Mof_Cu	Cu	0.3419	0.252	0.9904	0.825
Mof_Cu	Cu	0.348	0.3694	0.7361	0.787
Mof_Cu	Cu	0.3225	0.3776	0.2349	0.809
Mof_Cu	Cu	0.3234	0.7521	0.9826	0.818
Mof_Cu	Cu	0.4443	0.0002	0.1116	0.796
Mof_Cu	Cu	0.4348	0.3683	0.6246	0.802
Mof_N 	N 	0.4252	0.9315	0.1926	-0.236
Mof_N 	N 	0.4219	0.0651	0.1935	-0.237
Mof_N 	N 	0.4624	0.32	0.5291	-0.238
Mof_N 	N 	0.4206	0.4441	0.5472	-0.248
Mof_C 	C 	0.3263	0.8492	0.9921	-0.216
Mof_N 	N 	0.3289	0.9084	0.9955	-0.266
Mof_C 	C 	0.3362	0.0951	0.9988	-0.292
Mof_N 	N 	0.3387	0.1534	0.9971	-0.192
Mof_C 	C 	0.335	0.2959	0.087	-0.217
Mof_N 	N 	0.3472	0.2945	0.8931	-0.219
Mof_C 	C 	0.3492	0.3202	0.8333	-0.214
Mof_N 	N 	0.3357	0.6811	0.1395	-0.271
Mof_C 	C 	0.3404	0.4674	0.7428	-0.252
Mof_N 	N 	0.3341	0.5248	0.7428	-0.221
Mof_N 	N 	0.3285	0.3253	0.142	-0.22
Mof_N 	N 	0.3209	0.6725	0.8308	-0.216
Mof_C 	C 	0.3208	0.7031	0.8879	-0.222
Mof_C 	C 	0.3269	0.7102	0.0828	-0.26
Mof_C 	C 	0.4859	0.0002	0.0259	-0.311
Mof_N 	N 	0.4824	0.3619	0.7217	-0.262
Mof_C 	C 	0.417	0.1328	0.1889	0.053
Mof_C 	C 	0.4054	0.1726	0.2505	-0.11
Mof_C 	C 	0.398	0.1426	0.3197	0.009
Mof_C 	C 	0.4026	0.0723	0.3253	-0.093
Mof_C 	C 	0.4143	0.0345	0.2609	-0.008
Mof_C 	C 	0.4174	0.9595	0.2605	0.049
Mof_C 	C 	0.4107	0.9201	0.325	-0.126
Mof_C 	C 	0.4122	0.8503	0.3186	0.025
Mof_C 	C 	0.4197	0.8213	0.2479	-0.118
Mof_C 	C 	0.4257	0.8636	0.1864	0.055
Mof_C 	C 	0.4842	0.2571	0.5243	0.015
Mof_C 	C 	0.5049	0.2309	0.4591	-0.14
Mof_C 	C 	0.5035	0.2731	0.396	-0.009
Mof_C 	C 	0.482	0.34	0.3994	-0.105
Mof_C 	C 	0.4613	0.3614	0.4671	0.016
Mof_C 	C 	0.4379	0.4301	0.4772	0.039
Mof_C 	C 	0.4345	0.4785	0.4187	-0.125
Mof_C 	C 	0.4145	0.5424	0.4328	0.024
Mof_C 	C 	0.3971	0.5578	0.5048	-0.13
Mof_C 	C 	0.4004	0.5078	0.5598	0.044
Mof_H 	H 	0.4216	0.1538	0.1425	-0.029
Mof_H 	H 	0.4025	0.2193	0.2451	0.047
Mof_H 	H 	0.3902	0.1686	0.3616	-0.006
Mof_H 	H 	0.3978	0.0507	0.3713	-0.005
Mof_H 	H 	0.4052	0.9404	0.3715	0.025
Mof_H 	H 	0.4083	0.8231	0.361	-0.011
Mof_H 	H 	0.4208	0.7746	0.2422	0.026
Mof_H 	H 	0.4301	0.8445	0.139	-0.034
Mof_H 	H 	0.4856	0.2293	0.5674	-0.023
Mof_H 	H 	0.5191	0.1866	0.4578	0.036
Mof_H 	H 	0.5169	0.2572	0.3511	0.01
Mof_H 	H 	0.4816	0.3691	0.3577	0.034
Mof_H 	H 	0.4457	0.4675	0.3709	0.04
Mof_H 	H 	0.4125	0.5754	0.3947	-0.026
Mof_H 	H 	0.3835	0.601	0.5153	0.034
Mof_H 	H 	0.3885	0.5178	0.6075	-0.046
Mof_Cu	Cu	0.6673	0.0015	0.5014	0.747
Mof_Cu	Cu	0.6581	0.252	0.5096	0.821
Mof_Cu	Cu	0.652	0.3694	0.7639	0.789
Mof_Cu	Cu	0.6775	0.3776	0.2651	0.812
Mof_Cu	Cu	0.6766	0.7521	0.5174	0.818
Mof_Cu	Cu	0.5557	0.0002	0.3884	0.795
Mof_Cu	Cu	0.5652	0.3683	0.8754	0.802
Mof_N 	N 	0.5748	0.9315	0.3074	-0.237
Mof_N 	N 	0.5781	0.0651	0.3065	-0.237
Mof_N 	N 	0.5376	0.32	0.9709	-0.238
Mof_N 	N 	0.5794	0.4441	0.9528	-0.242
Mof_C 	C 	0.6737	0.8492	0.5079	-0.216
Mof_N 	N 	0.6711	0.9084	0.5045	-0.266
Mof_C 	C 	0.6638	0.0951	0.5012	-0.297
Mof_N 	N 	0.6613	0.1534	0.5029	-0.193
Mof_C 	C 	0.665	0.2959	0.413	-0.211
Mof_N 	N 	0.6528	0.2945	0.6069	-0.22
Mof_C 	C 	0.6508	0.3202	0.6667	-0.211
Mof_N 	N 	0.6643	0.6811	0.3605	-0.27
Mof_C 	C 	0.6596	0.4674	0.7572	-0.244
Mof_N 	N 	0.6659	0.5248	0.7572	-0.218
Mof_N 	N 	0.6715	0.3253	0.358	-0.219
Mof_N 	N 	0.6791	0.6725	0.6692	-0.213
Mof_C 	C 	0.6792	0.7031	0.6121	-0.217
Mof_C 	C 	0.6731	0.7102	0.4172	-0.25
Mof_C 	C 	0.5141	0.0002	0.4741	-0.299
Mof_N 	N 	0.5176	0.3619	0.7783	-0.262
Mof_C 	C 	0.583	0.1328	0.3111	0.053
Mof_C 	C 	0.5946	0.1726	0.2495	-0.11
Mof_C 	C 	0.602	0.1426	0.1803	0.009
Mof_C 	C 	0.5974	0.0723	0.1747	-0.093
Mof_C 	C 	0.5857	0.0345	0.2391	-0.008
Mof_C 	C 	0.5826	0.9595	0.2395	0.049
Mof_C 	C 	0.5893	0.9201	0.175	-0.125
Mof_C 	C 	0.5878	0.8503	0.1814	0.025
Mof_C 	C 	0.5803	0.8213	0.2521	-0.118
Mof_C 	C 	0.5743	0.8636	0.3136	0.055
Mof_C 	C 	0.5158	0.2571	0.9757	0.031
Mof_C 	C 	0.4951	0.2309	0.0409	-0.158
Mof_C 	C 	0.4965	0.2731	0.104	-0
Mof_C 	C 	0.518	0.34	0.1006	-0.111
Mof_C 	C 	0.5387	0.3614	0.0329	0.015
Mof_C 	C 	0.5621	0.4301	0.0228	0.031
Mof_C 	C 	0.5655	0.4785	0.0813	-0.113
Mof_C 	C 	0.5855	0.5424	0.0672	0.007
Mof_C 	C 	0.6029	0.5578	0.9952	-0.112
Mof_C 	C 	0.5996	0.5078	0.9402	0.039
Mof_H 	H 	0.5784	0.1538	0.3575	-0.028
Mof_H 	H 	0.5975	0.2193	0.2549	0.047
Mof_H 	H 	0.6098	0.1686	0.1384	-0.006
Mof_H 	H 	0.6022	0.0507	0.1287	-0.006
Mof_H 	H 	0.5948	0.9404	0.1285	0.024
Mof_H 	H 	0.5917	0.8231	0.139	-0.011
Mof_H 	H 	0.5792	0.7746	0.2578	0.026
Mof_H 	H 	0.5699	0.8445	0.361	-0.033
Mof_H 	H 	0.5144	0.2293	0.9326	-0.027
Mof_H 	H 	0.4809	0.1866	0.0422	0.04
Mof_H 	H 	0.4831	0.2572	0.1489	0.007
Mof_H 	H 	0.5184	0.3691	0.1423	0.036
Mof_H 	H 	0.5543	0.4675	0.1291	0.036
Mof_H 	H 	0.5875	0.5754	0.1053	-0.021
Mof_H 	H 	0.6165	0.601	0.9847	0.031
Mof_H 	H 	0.6115	0.5178	0.8925	-0.042
Mof_Cu	Cu	0.6673	0.9985	0.0014	0.759
Mof_Cu	Cu	0.6581	0.748	0.0096	0.82
Mof_Cu	Cu	0.652	0.6306	0.2639	0.788
Mof_Cu	Cu	0.6775	0.6224	0.7651	0.812
Mof_Cu	Cu	0.6766	0.2479	0.0174	0.815
Mof_Cu	Cu	0.5557	0.9998	0.8884	0.801
Mof_Cu	Cu	0.5652	0.6317	0.3754	0.801
Mof_N 	N 	0.5748	0.0685	0.8074	-0.237
Mof_N 	N 	0.5781	0.9349	0.8065	-0.242
Mof_N 	N 	0.5376	0.68	0.4709	-0.238
Mof_N 	N 	0.5794	0.5559	0.4528	-0.248
Mof_C 	C 	0.6737	0.1508	0.0079	-0.221
Mof_N 	N 	0.6711	0.0916	0.0045	-0.277
Mof_C 	C 	0.6638	0.9049	0.0012	-0.293
Mof_N 	N 	0.6613	0.8466	0.0029	-0.195
Mof_C 	C 	0.665	0.7041	0.913	-0.208
Mof_N 	N 	0.6528	0.7055	0.1069	-0.22
Mof_C 	C 	0.6508	0.6798	0.1667	-0.212
Mof_N 	N 	0.6643	0.3189	0.8605	-0.27
Mof_C 	C 	0.6596	0.5326	0.2572	-0.245
Mof_N 	N 	0.6659	0.4752	0.2572	-0.218
Mof_N 	N 	0.6715	0.6747	0.858	-0.219
Mof_N 	N 	0.6791	0.3275	0.1692	-0.213
Mof_C 	C 	0.6792	0.2969	0.1121	-0.219
Mof_C 	C 	0.6731	0.2898	0.9172	-0.246
Mof_C 	C 	0.5141	0.9998	0.9741	-0.224
Mof_N 	N 	0.5176	0.6381	0.2783	-0.262
Mof_C 	C 	0.583	0.8672	0.8111	0.061
Mof_C 	C 	0.5946	0.8274	0.7495	-0.123
Mof_C 	C 	0.602	0.8574	0.6803	0.028
Mof_C 	C 	0.5974	0.9277	0.6747	-0.12
Mof_C 	C 	0.5857	0.9655	0.7391	0.036
Mof_C 	C 	0.5826	0.0405	0.7395	0.003
Mof_C 	C 	0.5893	0.0799	0.675	-0.101
Mof_C 	C 	0.5878	0.1497	0.6814	0.006
Mof_C 	C 	0.5803	0.1787	0.7521	-0.105
Mof_C 	C 	0.5743	0.1364	0.8136	0.047
Mof_C 	C 	0.5158	0.7429	0.4757	0.015
Mof_C 	C 	0.4951	0.7691	0.5409	-0.14
Mof_C 	C 	0.4965	0.7269	0.604	-0.009
Mof_C 	C 	0.518	0.66	0.6006	-0.105
Mof_C 	C 	0.5387	0.6386	0.5329	0.016
Mof_C 	C 	0.5621	0.5699	0.5228	0.041
Mof_C 	C 	0.5655	0.5215	0.5813	-0.124
Mof_C 	C 	0.5855	0.4576	0.5672	0.026
Mof_C 	C 	0.6029	0.4422	0.4952	-0.129
Mof_C 	C 	0.5996	0.4922	0.4402	0.046
Mof_H 	H 	0.5784	0.8462	0.8575	-0.03
Mof_H 	H 	0.5975	0.7807	0.7549	0.051
Mof_H 	H 	0.6098	0.8314	0.6384	-0.012
Mof_H 	H 	0.6022	0.9493	0.6287	0.014
Mof_H 	H 	0.5948	0.0596	0.6285	0.007
Mof_H 	H 	0.5917	0.1769	0.639	-0.005
Mof_H 	H 	0.5792	0.2254	0.7578	0.022
Mof_H 	H 	0.5699	0.1555	0.861	-0.032
Mof_H 	H 	0.5144	0.7707	0.4326	-0.022
Mof_H 	H 	0.4809	0.8134	0.5422	0.037
Mof_H 	H 	0.4831	0.7428	0.6489	0.01
Mof_H 	H 	0.5184	0.6309	0.6423	0.034
Mof_H 	H 	0.5543	0.5325	0.6291	0.04
Mof_H 	H 	0.5875	0.4246	0.6053	-0.026
Mof_H 	H 	0.6165	0.399	0.4847	0.035
Mof_H 	H 	0.6115	0.4822	0.3925	-0.045
Mof_Cu	Cu	0.3327	0.9985	0.4986	0.76
Mof_Cu	Cu	0.3419	0.748	0.4904	0.821
Mof_Cu	Cu	0.348	0.6306	0.2361	0.786
Mof_Cu	Cu	0.3225	0.6224	0.7349	0.808
Mof_Cu	Cu	0.3234	0.2479	0.4826	0.815
Mof_Cu	Cu	0.4443	0.9998	0.6116	0.802
Mof_Cu	Cu	0.4348	0.6317	0.1246	0.801
Mof_N 	N 	0.4252	0.0685	0.6926	-0.238
Mof_N 	N 	0.4219	0.9349	0.6935	-0.242
Mof_N 	N 	0.4624	0.68	0.0291	-0.238
Mof_N 	N 	0.4206	0.5559	0.0472	-0.254
Mof_C 	C 	0.3263	0.1508	0.4921	-0.221
Mof_N 	N 	0.3289	0.0916	0.4955	-0.275
Mof_C 	C 	0.3362	0.9049	0.4988	-0.291
Mof_N 	N 	0.3387	0.8466	0.4971	-0.194
Mof_C 	C 	0.335	0.7041	0.587	-0.213
Mof_N 	N 	0.3472	0.7055	0.3931	-0.22
Mof_C 	C 	0.3492	0.6798	0.3333	-0.215
Mof_N 	N 	0.3357	0.3189	0.6395	-0.271
Mof_C 	C 	0.3404	0.5326	0.2428	-0.252
Mof_N 	N 	0.3341	0.4752	0.2428	-0.221
Mof_N 	N 	0.3285	0.6747	0.642	-0.221
Mof_N 	N 	0.3209	0.3275	0.3308	-0.215
Mof_C 	C 	0.3208	0.2969	0.3879	-0.224
Mof_C 	C 	0.3269	0.2898	0.5828	-0.258
Mof_C 	C 	0.4859	0.9998	0.5259	-0.233
Mof_N 	N 	0.4824	0.6381	0.2217	-0.262
Mof_C 	C 	0.417	0.8672	0.6889	0.061
Mof_C 	C 	0.4054	0.8274	0.7505	-0.123
Mof_C 	C 	0.398	0.8574	0.8197	0.028
Mof_C 	C 	0.4026	0.9277	0.8253	-0.12
Mof_C 	C 	0.4143	0.9655	0.7609	0.036
Mof_C 	C 	0.4174	0.0405	0.7605	0.003
Mof_C 	C 	0.4107	0.0799	0.825	-0.101
Mof_C 	C 	0.4122	0.1497	0.8186	0.007
Mof_C 	C 	0.4197	0.1787	0.7479	-0.105
Mof_C 	C 	0.4257	0.1364	0.6864	0.047
Mof_C 	C 	0.4842	0.7429	0.0243	0.005
Mof_C 	C 	0.5049	0.7691	0.9591	-0.129
Mof_C 	C 	0.5035	0.7269	0.896	-0.015
Mof_C 	C 	0.482	0.66	0.8994	-0.101
Mof_C 	C 	0.4613	0.6386	0.9671	0.016
Mof_C 	C 	0.4379	0.5699	0.9772	0.049
Mof_C 	C 	0.4345	0.5215	0.9187	-0.137
Mof_C 	C 	0.4145	0.4576	0.9328	0.045
Mof_C 	C 	0.3971	0.4422	0.0048	-0.149
Mof_C 	C 	0.4004	0.4922	0.0598	0.052
Mof_H 	H 	0.4216	0.8462	0.6425	-0.03
Mof_H 	H 	0.4025	0.7807	0.7451	0.051
Mof_H 	H 	0.3902	0.8314	0.8616	-0.012
Mof_H 	H 	0.3978	0.9493	0.8713	0.014
Mof_H 	H 	0.4052	0.0596	0.8715	0.008
Mof_H 	H 	0.4083	0.1769	0.861	-0.005
Mof_H 	H 	0.4208	0.2254	0.7422	0.022
Mof_H 	H 	0.4301	0.1555	0.639	-0.033
Mof_H 	H 	0.4856	0.7707	0.0674	-0.019
Mof_H 	H 	0.5191	0.8134	0.9578	0.034
Mof_H 	H 	0.5169	0.7428	0.8511	0.012
Mof_H 	H 	0.4816	0.6309	0.8577	0.032
Mof_H 	H 	0.4457	0.5325	0.8709	0.044
Mof_H 	H 	0.4125	0.4246	0.8947	-0.032
Mof_H 	H 	0.3835	0.399	0.0153	0.039
Mof_H 	H 	0.3885	0.4822	0.1075	-0.049
Mof_Cu	Cu	0.0087	0.2499	0.0046	0.797
Mof_Cu	Cu	0.1135	0.0147	0.1099	0.791
Mof_Cu	Cu	0.2201	0.9843	0.8849	0.801
Mof_N 	N 	0.0914	0.9449	0.1889	-0.242
Mof_N 	N 	0.0927	0.0785	0.1932	-0.244
Mof_N 	N 	0.245	0.0526	0.8071	-0.24
Mof_N 	N 	0.2379	0.9195	0.8005	-0.244
Mof_N 	N 	0.0034	0.3273	0.1564	-0.237
Mof_C 	C 	0.0074	0.2972	0.0997	-0.273
Mof_N 	N 	0.0065	0.1522	0.004	-0.211
Mof_C 	C 	0.0033	0.0933	0.0025	-0.35
Mof_N 	N 	0.009	0.2916	0.9057	-0.232
Mof_C 	C 	0.0069	0.3196	0.8464	-0.277
Mof_C 	C 	0.1532	0.0045	0.0233	-0.323
Mof_N 	N 	0.18	0.9953	0.9712	-0.221
Mof_C 	C 	0.09	0.8766	0.1814	0.042
Mof_C 	C 	0.0784	0.8343	0.2408	-0.131
Mof_C 	C 	0.0692	0.8626	0.3105	0.015
Mof_C 	C 	0.0708	0.9319	0.3191	-0.126
Mof_C 	C 	0.0818	0.9723	0.2574	0.034
Mof_C 	C 	0.0825	0.0476	0.2597	-0.014
Mof_C 	C 	0.0709	0.0845	0.3241	-0.113
Mof_C 	C 	0.0697	0.155	0.3202	0.006
Mof_C 	C 	0.0804	0.1865	0.2525	-0.134
Mof_C 	C 	0.0917	0.1459	0.191	0.058
Mof_C 	C 	0.2498	0.1206	0.815	0.046
Mof_C 	C 	0.2628	0.1631	0.7566	-0.112
Mof_C 	C 	0.2701	0.1346	0.6861	-0
Mof_C 	C 	0.2654	0.0653	0.6759	-0.089
Mof_C 	C 	0.2496	0.9501	0.7352	0.043
Mof_C 	C 	0.2529	0.0247	0.7381	-0.01
Mof_C 	C 	0.2588	0.9133	0.6696	-0.13
Mof_C 	C 	0.2566	0.843	0.672	0.024
Mof_C 	C 	0.2452	0.8111	0.7397	-0.131
Mof_C 	C 	0.236	0.8517	0.8022	0.066
Mof_H 	H 	0.097	0.8576	0.1348	-0.05
Mof_H 	H 	0.0768	0.7877	0.234	0.021
Mof_H 	H 	0.062	0.835	0.3513	-0.019
Mof_H 	H 	0.0646	0.9514	0.3657	0.012
Mof_H 	H 	0.0641	0.0624	0.3691	-0.008
Mof_H 	H 	0.0619	0.1805	0.3624	-0.038
Mof_H 	H 	0.0801	0.2333	0.2483	0.026
Mof_H 	H 	0.0989	0.1671	0.1456	-0.05
Mof_H 	H 	0.244	0.1396	0.8621	-0.04
Mof_H 	H 	0.2666	0.2095	0.7644	0.032
Mof_H 	H 	0.2782	0.1621	0.6456	-0.006
Mof_H 	H 	0.2704	0.0458	0.6288	-0.011
Mof_H 	H 	0.2663	0.9354	0.625	0.019
Mof_H 	H 	0.2627	0.8176	0.629	-0.018
Mof_H 	H 	0.2437	0.7642	0.743	0.031
Mof_H 	H 	0.2282	0.8308	0.8474	-0.054
Mof_Cu	Cu	0.9913	0.2499	0.4954	0.823
Mof_Cu	Cu	0.8865	0.0147	0.3901	0.802
Mof_Cu	Cu	0.7799	0.9843	0.6151	0.801
Mof_N 	N 	0.9086	0.9449	0.3111	-0.233
Mof_N 	N 	0.9073	0.0785	0.3068	-0.237
Mof_N 	N 	0.755	0.0526	0.6929	-0.241
Mof_N 	N 	0.7621	0.9195	0.6995	-0.243
Mof_N 	N 	0.9966	0.3273	0.3436	-0.2
Mof_C 	C 	0.9926	0.2972	0.4003	-0.218
Mof_N 	N 	0.9935	0.1522	0.496	-0.199
Mof_C 	C 	0.9967	0.0933	0.4975	-0.257
Mof_N 	N 	0.991	0.2916	0.5943	-0.225
Mof_C 	C 	0.9931	0.3196	0.6536	-0.191
Mof_C 	C 	0.8468	0.0045	0.4767	-0.298
Mof_N 	N 	0.82	0.9953	0.5288	-0.227
Mof_C 	C 	0.91	0.8766	0.3186	0.067
Mof_C 	C 	0.9216	0.8343	0.2592	-0.123
Mof_C 	C 	0.9308	0.8626	0.1895	0.04
Mof_C 	C 	0.9292	0.9319	0.1809	-0.118
Mof_C 	C 	0.9182	0.9723	0.2426	0.052
Mof_C 	C 	0.9175	0.0476	0.2403	0.006
Mof_C 	C 	0.9291	0.0845	0.1759	-0.098
Mof_C 	C 	0.9303	0.155	0.1798	0.023
Mof_C 	C 	0.9196	0.1865	0.2475	-0.119
Mof_C 	C 	0.9083	0.1459	0.309	0.074
Mof_C 	C 	0.7502	0.1206	0.685	0.046
Mof_C 	C 	0.7372	0.1631	0.7434	-0.112
Mof_C 	C 	0.7299	0.1346	0.8139	0.002
Mof_C 	C 	0.7346	0.0653	0.8241	-0.089
Mof_C 	C 	0.7504	0.9501	0.7648	0.04
Mof_C 	C 	0.7471	0.0247	0.7619	-0.008
Mof_C 	C 	0.7412	0.9133	0.8304	-0.128
Mof_C 	C 	0.7434	0.843	0.828	0.023
Mof_C 	C 	0.7548	0.8111	0.7603	-0.13
Mof_C 	C 	0.764	0.8517	0.6978	0.064
Mof_H 	H 	0.903	0.8576	0.3652	-0.028
Mof_H 	H 	0.9232	0.7877	0.266	0.051
Mof_H 	H 	0.938	0.835	0.1487	-0.011
Mof_H 	H 	0.9354	0.9514	0.1343	0.027
Mof_H 	H 	0.9359	0.0624	0.1309	0.017
Mof_H 	H 	0.9381	0.1805	0.1376	0.002
Mof_H 	H 	0.9199	0.2333	0.2517	0.045
Mof_H 	H 	0.9011	0.1671	0.3544	-0.048
Mof_H 	H 	0.756	0.1396	0.6379	-0.04
Mof_H 	H 	0.7334	0.2095	0.7356	0.035
Mof_H 	H 	0.7218	0.1621	0.8544	-0.002
Mof_H 	H 	0.7296	0.0458	0.8712	-0.008
Mof_H 	H 	0.7337	0.9354	0.875	0.019
Mof_H 	H 	0.7373	0.8176	0.871	-0.016
Mof_H 	H 	0.7563	0.7642	0.757	0.034
Mof_H 	H 	0.7718	0.8308	0.6526	-0.049
Mof_Cu	Cu	0.9913	0.7501	0.9954	0.824
Mof_Cu	Cu	0.8865	0.9853	0.8901	0.809
Mof_Cu	Cu	0.7799	0.0157	0.1151	0.79
Mof_N 	N 	0.9086	0.0551	0.8111	-0.233
Mof_N 	N 	0.9073	0.9215	0.8068	-0.241
Mof_N 	N 	0.755	0.9474	0.1929	-0.24
Mof_N 	N 	0.7621	0.0805	0.1995	-0.24
Mof_N 	N 	0.9966	0.6727	0.8436	-0.2
Mof_C 	C 	0.9926	0.7028	0.9003	-0.217
Mof_N 	N 	0.9935	0.8478	0.996	-0.2
Mof_C 	C 	0.9967	0.9067	0.9975	-0.245
Mof_N 	N 	0.991	0.7084	0.0943	-0.226
Mof_C 	C 	0.9931	0.6804	0.1536	-0.192
Mof_C 	C 	0.8468	0.9955	0.9767	-0.252
Mof_N 	N 	0.82	0.0047	0.0288	-0.263
Mof_C 	C 	0.91	0.1234	0.8186	0.06
Mof_C 	C 	0.9216	0.1657	0.7592	-0.111
Mof_C 	C 	0.9308	0.1374	0.6895	0.022
Mof_C 	C 	0.9292	0.0681	0.6809	-0.093
Mof_C 	C 	0.9182	0.0277	0.7426	0.009
Mof_C 	C 	0.9175	0.9524	0.7403	0.046
Mof_C 	C 	0.9291	0.9155	0.6759	-0.122
Mof_C 	C 	0.9303	0.845	0.6798	0.04
Mof_C 	C 	0.9196	0.8135	0.7475	-0.131
Mof_C 	C 	0.9083	0.8541	0.809	0.08
Mof_C 	C 	0.7502	0.8794	0.185	0.054
Mof_C 	C 	0.7372	0.8369	0.2434	-0.124
Mof_C 	C 	0.7299	0.8654	0.3139	0.021
Mof_C 	C 	0.7346	0.9347	0.3241	-0.113
Mof_C 	C 	0.7504	0.0499	0.2648	-0.001
Mof_C 	C 	0.7471	0.9753	0.2619	0.036
Mof_C 	C 	0.7412	0.0867	0.3304	-0.104
Mof_C 	C 	0.7434	0.157	0.328	0.006
Mof_C 	C 	0.7548	0.1889	0.2603	-0.119
Mof_C 	C 	0.764	0.1483	0.1978	0.058
Mof_H 	H 	0.903	0.1424	0.8652	-0.026
Mof_H 	H 	0.9232	0.2123	0.766	0.047
Mof_H 	H 	0.938	0.165	0.6487	-0.004
Mof_H 	H 	0.9354	0.0486	0.6343	0.011
Mof_H 	H 	0.9359	0.9376	0.6309	0.034
Mof_H 	H 	0.9381	0.8195	0.6376	-0.003
Mof_H 	H 	0.9199	0.7667	0.7517	0.049
Mof_H 	H 	0.9011	0.8329	0.8544	-0.049
Mof_H 	H 	0.756	0.8604	0.1379	-0.041
Mof_H 	H 	0.7334	0.7905	0.2356	0.04
Mof_H 	H 	0.7218	0.8379	0.3544	-0.009
Mof_H 	H 	0.7296	0.9542	0.3712	0.01
Mof_H 	H 	0.7337	0.0646	0.375	0.003
Mof_H 	H 	0.7373	0.1824	0.371	-0.011
Mof_H 	H 	0.7563	0.2358	0.257	0.03
Mof_H 	H 	0.7718	0.1692	0.1526	-0.048
Mof_Cu	Cu	0.0087	0.7501	0.5046	0.8
Mof_Cu	Cu	0.1135	0.9853	0.6099	0.799
Mof_Cu	Cu	0.2201	0.0157	0.3849	0.789
Mof_N 	N 	0.0914	0.0551	0.6889	-0.244
Mof_N 	N 	0.0927	0.9215	0.6932	-0.248
Mof_N 	N 	0.245	0.9474	0.3071	-0.24
Mof_N 	N 	0.2379	0.0805	0.3005	-0.239
Mof_N 	N 	0.0034	0.6727	0.6564	-0.237
Mof_C 	C 	0.0074	0.7028	0.5997	-0.271
Mof_N 	N 	0.0065	0.8478	0.504	-0.212
Mof_C 	C 	0.0033	0.9067	0.5025	-0.334
Mof_N 	N 	0.009	0.7084	0.4057	-0.234
Mof_C 	C 	0.0069	0.6804	0.3464	-0.279
Mof_C 	C 	0.1532	0.9955	0.5233	-0.269
Mof_N 	N 	0.18	0.0047	0.4712	-0.259
Mof_C 	C 	0.09	0.1234	0.6814	0.033
Mof_C 	C 	0.0784	0.1657	0.7408	-0.117
Mof_C 	C 	0.0692	0.1374	0.8105	-0.006
Mof_C 	C 	0.0708	0.0681	0.8191	-0.098
Mof_C 	C 	0.0818	0.0277	0.7574	-0.015
Mof_C 	C 	0.0825	0.9524	0.7597	0.033
Mof_C 	C 	0.0709	0.9155	0.8241	-0.141
Mof_C 	C 	0.0697	0.845	0.8202	0.025
Mof_C 	C 	0.0804	0.8135	0.7525	-0.147
Mof_C 	C 	0.0917	0.8541	0.691	0.066
Mof_C 	C 	0.2498	0.8794	0.315	0.055
Mof_C 	C 	0.2628	0.8369	0.2566	-0.125
Mof_C 	C 	0.2701	0.8654	0.1861	0.02
Mof_C 	C 	0.2654	0.9347	0.1759	-0.115
Mof_C 	C 	0.2496	0.0499	0.2352	-0.002
Mof_C 	C 	0.2529	0.9753	0.2381	0.04
Mof_C 	C 	0.2588	0.0867	0.1696	-0.103
Mof_C 	C 	0.2566	0.157	0.172	0.005
Mof_C 	C 	0.2452	0.1889	0.2397	-0.119
Mof_C 	C 	0.236	0.1483	0.3022	0.059
Mof_H 	H 	0.097	0.1424	0.6348	-0.05
Mof_H 	H 	0.0768	0.2123	0.734	0.017
Mof_H 	H 	0.062	0.165	0.8513	-0.011
Mof_H 	H 	0.0646	0.0486	0.8657	-0.005
Mof_H 	H 	0.0641	0.9376	0.8691	0.012
Mof_H 	H 	0.0619	0.8195	0.8624	-0.042
Mof_H 	H 	0.0801	0.7667	0.7483	0.031
Mof_H 	H 	0.0989	0.8329	0.6456	-0.052
Mof_H 	H 	0.244	0.8604	0.3621	-0.041
Mof_H 	H 	0.2666	0.7905	0.2644	0.036
Mof_H 	H 	0.2782	0.8379	0.1456	-0.013
Mof_H 	H 	0.2704	0.9542	0.1288	0.01
Mof_H 	H 	0.2663	0.0646	0.125	0.001
Mof_H 	H 	0.2627	0.1824	0.129	-0.013
Mof_H 	H 	0.2437	0.2358	0.243	0.026
Mof_H 	H 	0.2282	0.1692	0.3474	-0.052
Mof_Cu	Cu	-3.81931e-18	0.3791	0.25	0.779
Mof_Cu	Cu	8.63185e-34	0.633	0.25	0.779
Mof_C 	C 	8.63185e-34	0.4771	0.25	-0.297
Mof_N 	N 	8.63185e-34	0.5349	0.25	-0.243
Mof_Cu	Cu	2.58955e-33	0.6209	0.75	0.78
Mof_Cu	Cu	2.58955e-33	0.367	0.75	0.779
Mof_C 	C 	2.58955e-33	0.5229	0.75	-0.295
Mof_N 	N 	2.58955e-33	0.4651	0.75	-0.243
Mof_Cu	Cu	-0	0	-0	0.719
Mof_Cu	Cu	1.72637e-33	0	0.5	0.72
_end
