# CIF file generated by openbabel 3.1.0, see https://openbabel.org
data_I
_chemical_name_common 'WAFKAQ_clean'
_cell_length_a 14.3547
_cell_length_b 14.3547
_cell_length_c 14.3547
_cell_angle_alpha 63.292
_cell_angle_beta 84.1968
_cell_angle_gamma 116.708
_space_group_name_H-M_alt 'P 1'
_space_group_name_Hall 'P 1'
loop_
    _symmetry_equiv_pos_as_xyz
    x,y,z
loop_
    _atom_site_label
    _atom_site_type_symbol
    _atom_site_fract_x
    _atom_site_fract_y
    _atom_site_fract_z
    _atom_site_occupancy
    Zn1      Zn       0.42331    0.00000    0.57669    1.000
    Zn2      Zn       0.07669    0.00000    0.92331    1.000
    Zn3      Zn       0.57669    0.00000    0.42331    1.000
    Zn4      Zn       0.92331    0.00000    0.07669    1.000
    H1       H        0.24660    0.09320    0.36260    1.000
    H2       H        0.42500    0.07300    0.74200    1.000
    H3       H        0.33100    0.91700    0.81800    1.000
    H4       H        0.54420    0.90680    0.84660    1.000
    H5       H        0.18500    0.92700    0.64800    1.000
    H6       H        0.26500    0.08300    0.58600    1.000
    H7       H        0.15340    0.60920    0.75340    1.000
    H8       H        0.35200    0.16700    0.57500    1.000
    H9       H        0.41400    0.14900    0.66900    1.000
    H10      H        0.63740    0.39080    0.45580    1.000
    H11      H        0.25800    0.83300    0.81500    1.000
    H12      H        0.18200    0.85100    0.73500    1.000
    H13      H        0.95580    0.60920    0.13740    1.000
    H14      H        0.31500    0.16700    0.75800    1.000
    H15      H        0.23500    0.14900    0.68200    1.000
    H16      H        0.25340    0.39080    0.65340    1.000
    H17      H        0.07500    0.83300    0.85200    1.000
    H18      H        0.16900    0.85100    0.91400    1.000
    H19      H        0.86260    0.90680    0.74660    1.000
    H20      H        0.24200    0.92700    0.92500    1.000
    H21      H        0.31800    0.08300    0.83100    1.000
    H22      H        0.34660    0.09320    0.04420    1.000
    H23      H        0.14800    0.07300    0.68500    1.000
    H24      H        0.08600    0.91700    0.76500    1.000
    H25      H        0.75340    0.90680    0.63740    1.000
    H26      H        0.57500    0.92700    0.25800    1.000
    H27      H        0.66900    0.08300    0.18200    1.000
    H28      H        0.45580    0.09320    0.15340    1.000
    H29      H        0.81500    0.07300    0.35200    1.000
    H30      H        0.73500    0.91700    0.41400    1.000
    H31      H        0.84660    0.39080    0.24660    1.000
    H32      H        0.64800    0.83300    0.42500    1.000
    H33      H        0.58600    0.85100    0.33100    1.000
    H34      H        0.36260    0.60920    0.54420    1.000
    H35      H        0.74200    0.16700    0.18500    1.000
    H36      H        0.81800    0.14900    0.26500    1.000
    H37      H        0.04420    0.39080    0.86260    1.000
    H38      H        0.68500    0.83300    0.24200    1.000
    H39      H        0.76500    0.85100    0.31800    1.000
    H40      H        0.74660    0.60920    0.34660    1.000
    H41      H        0.92500    0.16700    0.14800    1.000
    H42      H        0.83100    0.14900    0.08600    1.000
    H43      H        0.13740    0.09320    0.25340    1.000
    H44      H        0.75800    0.07300    0.07500    1.000
    H45      H        0.68200    0.91700    0.16900    1.000
    H46      H        0.65340    0.90680    0.95580    1.000
    H47      H        0.85200    0.92700    0.31500    1.000
    H48      H        0.91400    0.08300    0.23500    1.000
    C1       C        0.26580    0.09102    0.29940    1.000
    C2       C        0.36690    0.02850    0.75560    1.000
    C3       C        0.60958    0.90898    0.82522    1.000
    C4       C        0.21590    0.97150    0.66160    1.000
    C5       C        0.17478    0.56520    0.73420    1.000
    C6       C        0.33840    0.12250    0.63310    1.000
    C7       C        0.70060    0.43480    0.39042    1.000
    C8       C        0.24440    0.87750    0.78410    1.000
    C9       C        0.89042    0.56520    0.20060    1.000
    C10      C        0.28410    0.12250    0.74440    1.000
    C11      C        0.23420    0.43480    0.67478    1.000
    C12      C        0.13310    0.87750    0.83840    1.000
    C13      C        0.79940    0.90898    0.76580    1.000
    C14      C        0.25560    0.97150    0.86690    1.000
    C15      C        0.32522    0.09102    0.10958    1.000
    C16      C        0.16160    0.02850    0.71590    1.000
    C17      C        0.73420    0.90898    0.70060    1.000
    C18      C        0.63310    0.97150    0.24440    1.000
    C19      C        0.39042    0.09102    0.17478    1.000
    C20      C        0.78410    0.02850    0.33840    1.000
    C21      C        0.82522    0.43480    0.26580    1.000
    C22      C        0.66160    0.87750    0.36690    1.000
    C23      C        0.29940    0.56520    0.60958    1.000
    C24      C        0.75560    0.12250    0.21590    1.000
    C25      C        0.10958    0.43480    0.79940    1.000
    C26      C        0.71590    0.87750    0.25560    1.000
    C27      C        0.76580    0.56520    0.32522    1.000
    C28      C        0.86690    0.12250    0.16160    1.000
    C29      C        0.20060    0.09102    0.23420    1.000
    C30      C        0.74440    0.02850    0.13310    1.000
    C31      C        0.67478    0.90898    0.89042    1.000
    C32      C        0.83840    0.97150    0.28410    1.000
    C33      C        0.35912    0.08781    0.27131    1.000
    C34      C        0.42122    0.07168    0.34954    1.000
    C35      C        0.64088    0.91219    0.72869    1.000
    C36      C        0.57878    0.92832    0.65046    1.000
    C37      C        0.27131    0.63043    0.64088    1.000
    C38      C        0.34954    0.77076    0.57878    1.000
    C39      C        0.72869    0.36957    0.35912    1.000
    C40      C        0.65046    0.22924    0.42122    1.000
    C41      C        0.85912    0.63043    0.22869    1.000
    C42      C        0.92122    0.77076    0.15046    1.000
    C43      C        0.14088    0.36957    0.77131    1.000
    C44      C        0.07878    0.22924    0.84954    1.000
    C45      C        0.77131    0.91219    0.85912    1.000
    C46      C        0.84954    0.92832    0.92122    1.000
    C47      C        0.22869    0.08781    0.14088    1.000
    C48      C        0.15046    0.07168    0.07878    1.000
    N1       N        0.31711    0.00000    0.68289    1.000
    N2       N        0.18289    0.00000    0.81711    1.000
    N3       N        0.68289    0.00000    0.31711    1.000
    N4       N        0.81711    0.00000    0.18289    1.000
    O1       O        0.38674    0.06477    0.43721    1.000
    O2       O        0.49802    0.93523    0.67803    1.000
    O3       O        0.32197    0.82395    0.61326    1.000
    O4       O        0.56279    0.17605    0.50198    1.000
    O5       O        0.00198    0.82395    0.06279    1.000
    O6       O        0.11326    0.17605    0.82197    1.000
    O7       O        0.93721    0.93523    0.88674    1.000
    O8       O        0.17803    0.06477    0.99802    1.000
    O9       O        0.61326    0.93523    0.56279    1.000
    O10      O        0.50198    0.06477    0.32197    1.000
    O11      O        0.67803    0.17605    0.38674    1.000
    O12      O        0.43721    0.82395    0.49802    1.000
    O13      O        0.99802    0.17605    0.93721    1.000
    O14      O        0.88674    0.82395    0.17803    1.000
    O15      O        0.06279    0.06477    0.11326    1.000
    O16      O        0.82197    0.93523    0.00198    1.000
