data_functionalizedCrystal
_audit_creation_method	'EQeq! by Chris Wilmer'
_symmetry_space_group_name_H-M	'P1'
_symmetry_Int_Tables_number	1
_symmetry_cell_setting	triclinic
loop_
_symmetry_equiv_pos_as_xyz
  x,y,z
_cell_length_a	27.083
_cell_length_b	27.083
_cell_length_c	27.083
_cell_angle_alpha	90
_cell_angle_beta	90
_cell_angle_gamma	90
loop_
_atom_site_label
_atom_site_type_symbol
_atom_site_fract_x
_atom_site_fract_y
_atom_site_fract_z
_atom_site_charge
Mof_O 	O 	0.1729	0.08	0.4533	-0.626
Mof_O 	O 	0.1853	0.9807	0.4421	-0.741
Mof_C 	C 	0.2347	0.1026	0.6094	-0.384
Mof_O 	O 	0.2112	0.1753	0.5638	-0.378
Mof_C 	C 	0.1663	0.1316	0.4486	0.382
Mof_C 	C 	0.1505	0.0577	0.5766	0.173
Mof_H 	H 	0.1188	0.0427	0.5677	-0.124
Mof_C 	C 	0.2008	0.1281	0.5786	0.212
Mof_C 	C 	0.1398	0.155	0.4827	-0.372
Mof_C 	C 	0.1351	0.0539	0.4309	-0.094
Mof_H 	H 	0.1303	0.0662	0.3976	0.025
Mof_H 	H 	0.1047	0.0591	0.4492	0.016
Mof_C 	C 	0.1687	0.978	0.6224	1.095
Mof_C 	C 	0.1299	0.2045	0.4735	0.389
Mof_H 	H 	0.1113	0.2224	0.4962	-0.163
Mof_C 	C 	0.1865	0.1534	0.4076	-0.433
Mof_C 	C 	0.1821	0.0302	0.6071	-0.704
Mof_C 	C 	0.1584	0.1032	0.5618	-0.379
Mof_C 	C 	0.2227	0.0528	0.6207	0.178
Mof_H 	H 	0.2435	0.036	0.645	-0.111
Mof_O 	O 	0.109	0.9737	0.4083	-0.469
Mof_C 	C 	0.1469	0.9977	0.4291	0.405
Mof_C 	C 	0.1476	0.2287	0.4296	-0.776
Mof_C 	C 	0.1744	0.2033	0.3998	0.549
Mof_H 	H 	0.1864	0.2187	0.3716	-0.213
Mof_C 	C 	0.1196	0.1317	0.5294	0.232
Mof_H 	H 	0.0936	0.1088	0.5202	-0.09
Mof_H 	H 	0.1048	0.1574	0.5494	-0.082
Mof_C 	C 	0.1844	0.3129	0.4241	-1.817
Mof_H 	H 	0.1791	0.3477	0.4198	0.535
Mof_H 	H 	0.2049	0.3008	0.3979	0.551
Mof_H 	H 	0.2002	0.3071	0.4553	0.536
Mof_C 	C 	0.2178	0.1277	0.373	0.299
Mof_H 	H 	0.227	0.1512	0.3476	-0.086
Mof_H 	H 	0.1978	0.1026	0.3572	-0.102
Mof_C 	C 	0.1807	0.9445	0.5758	-1.193
Mof_H 	H 	0.16	0.9541	0.5487	0.297
Mof_H 	H 	0.1747	0.9105	0.5838	0.342
Mof_H 	H 	0.2147	0.9486	0.5667	0.21
Mof_C 	C 	0.2024	0.9582	0.6661	-1.334
Mof_H 	H 	0.1927	0.9252	0.6745	0.371
Mof_H 	H 	0.1985	0.9792	0.6944	0.383
Mof_H 	H 	0.2363	0.9584	0.6559	0.382
Mof_C 	C 	0.0925	0.3044	0.4558	-2.264
Mof_H 	H 	0.0865	0.3383	0.4475	0.648
Mof_H 	H 	0.1033	0.3022	0.4895	0.656
Mof_H 	H 	0.0626	0.2858	0.4518	0.637
Mof_C 	C 	0.1126	0.2863	0.3734	-2.432
Mof_H 	H 	0.1019	0.3194	0.3663	0.729
Mof_H 	H 	0.0851	0.2641	0.3702	0.702
Mof_H 	H 	0.1381	0.277	0.3508	0.741
Mof_C 	C 	0.1184	0.9688	0.6358	-1.74
Mof_H 	H 	0.097	0.9793	0.6095	0.52
Mof_H 	H 	0.1105	0.9868	0.6653	0.496
Mof_H 	H 	0.1138	0.9341	0.6415	0.518
Mof_C 	C 	0.1312	0.2841	0.423	1.647
Mof_C 	C 	0.1985	0.2131	0.5874	0.385
Mof_H 	H 	0.2088	0.242	0.5698	-0.126
Mof_H 	H 	0.2137	0.2126	0.6194	-0.116
Mof_H 	H 	0.1633	0.2134	0.5911	-0.124
Mof_O 	O 	0.6729	0.58	0.9533	-0.602
Mof_O 	O 	0.6853	0.4807	0.9421	-0.723
Mof_C 	C 	0.7347	0.6026	0.1094	-0.326
Mof_O 	O 	0.7112	0.6753	0.0638	-0.383
Mof_C 	C 	0.6663	0.6316	0.9486	0.347
Mof_C 	C 	0.6505	0.5577	0.0766	0.055
Mof_H 	H 	0.6188	0.5427	0.0677	-0.072
Mof_C 	C 	0.7008	0.6281	0.0786	0.166
Mof_C 	C 	0.6398	0.655	0.9827	-0.286
Mof_C 	C 	0.6351	0.5539	0.9309	-0.043
Mof_H 	H 	0.6303	0.5662	0.8976	0.011
Mof_H 	H 	0.6047	0.5591	0.9492	0.02
Mof_C 	C 	0.6687	0.478	0.1224	0.795
Mof_C 	C 	0.6299	0.7045	0.9735	0.358
Mof_H 	H 	0.6113	0.7224	0.9962	-0.138
Mof_C 	C 	0.6865	0.6534	0.9076	-0.408
Mof_C 	C 	0.6821	0.5302	0.1071	-0.506
Mof_C 	C 	0.6584	0.6032	0.0618	-0.305
Mof_C 	C 	0.7227	0.5528	0.1207	0.064
Mof_H 	H 	0.7435	0.536	0.145	-0.056
Mof_O 	O 	0.609	0.4737	0.9083	-0.47
Mof_C 	C 	0.6469	0.4977	0.9291	0.361
Mof_C 	C 	0.6476	0.7287	0.9296	-0.784
Mof_C 	C 	0.6744	0.7033	0.8998	0.539
Mof_H 	H 	0.6864	0.7187	0.8716	-0.214
Mof_C 	C 	0.6196	0.6317	0.0294	0.117
Mof_H 	H 	0.5936	0.6088	0.0202	-0.067
Mof_H 	H 	0.6048	0.6574	0.0494	-0.058
Mof_C 	C 	0.6844	0.8129	0.9241	-1.915
Mof_H 	H 	0.6791	0.8477	0.9198	0.572
Mof_H 	H 	0.7049	0.8008	0.8979	0.582
Mof_H 	H 	0.7002	0.8071	0.9553	0.578
Mof_C 	C 	0.7178	0.6277	0.873	0.261
Mof_H 	H 	0.727	0.6512	0.8476	-0.078
Mof_H 	H 	0.6978	0.6026	0.8572	-0.09
Mof_C 	C 	0.6807	0.4445	0.0758	-0.907
Mof_H 	H 	0.66	0.4541	0.0487	0.192
Mof_H 	H 	0.6747	0.4105	0.0838	0.254
Mof_H 	H 	0.7147	0.4486	0.0667	0.112
Mof_C 	C 	0.7024	0.4582	0.1661	-1.047
Mof_H 	H 	0.6927	0.4252	0.1745	0.286
Mof_H 	H 	0.6985	0.4792	0.1944	0.281
Mof_H 	H 	0.7363	0.4584	0.1559	0.285
Mof_C 	C 	0.5925	0.8044	0.9558	-2.415
Mof_H 	H 	0.5865	0.8383	0.9475	0.708
Mof_H 	H 	0.6033	0.8022	0.9895	0.718
Mof_H 	H 	0.5626	0.7858	0.9518	0.697
Mof_C 	C 	0.6126	0.7863	0.8734	-2.545
Mof_H 	H 	0.6019	0.8194	0.8663	0.766
Mof_H 	H 	0.5851	0.7641	0.8702	0.738
Mof_H 	H 	0.6381	0.777	0.8508	0.772
Mof_C 	C 	0.6184	0.4688	0.1358	-1.353
Mof_H 	H 	0.597	0.4793	0.1095	0.391
Mof_H 	H 	0.6105	0.4868	0.1653	0.366
Mof_H 	H 	0.6138	0.4341	0.1415	0.403
Mof_C 	C 	0.6312	0.7841	0.923	1.736
Mof_C 	C 	0.6985	0.7131	0.0874	0.404
Mof_H 	H 	0.7088	0.742	0.0698	-0.141
Mof_H 	H 	0.7137	0.7126	0.1194	-0.122
Mof_H 	H 	0.6633	0.7134	0.0911	-0.136
Mof_O 	O 	0.3271	0.92	0.9533	-0.628
Mof_O 	O 	0.3147	0.0193	0.9421	-0.743
Mof_C 	C 	0.2653	0.8974	0.1094	-0.262
Mof_O 	O 	0.2888	0.8247	0.0638	-0.369
Mof_C 	C 	0.3337	0.8684	0.9486	0.332
Mof_C 	C 	0.3495	0.9423	0.0766	-0.06
Mof_H 	H 	0.3812	0.9573	0.0677	-0.019
Mof_C 	C 	0.2992	0.8719	0.0786	0.113
Mof_C 	C 	0.3602	0.845	0.9827	-0.267
Mof_C 	C 	0.3649	0.9461	0.9309	0.023
Mof_H 	H 	0.3697	0.9338	0.8976	-0.003
Mof_H 	H 	0.3953	0.9409	0.9492	0.009
Mof_C 	C 	0.3313	0.022	0.1224	0.507
Mof_C 	C 	0.3701	0.7955	0.9735	0.339
Mof_H 	H 	0.3887	0.7776	0.9962	-0.132
Mof_C 	C 	0.3135	0.8466	0.9076	-0.385
Mof_C 	C 	0.3179	0.9698	0.1071	-0.317
Mof_C 	C 	0.3416	0.8968	0.0618	-0.244
Mof_C 	C 	0.2773	0.9472	0.1207	-0.063
Mof_H 	H 	0.2565	0.964	0.145	0.001
Mof_O 	O 	0.391	0.0263	0.9083	-0.474
Mof_C 	C 	0.3531	0.0023	0.9291	0.312
Mof_C 	C 	0.3524	0.7713	0.9296	-0.762
Mof_C 	C 	0.3256	0.7967	0.8998	0.514
Mof_H 	H 	0.3136	0.7813	0.8716	-0.205
Mof_C 	C 	0.3804	0.8683	0.0294	0.078
Mof_H 	H 	0.4064	0.8912	0.0202	-0.053
Mof_H 	H 	0.3952	0.8426	0.0494	-0.046
Mof_C 	C 	0.3156	0.6871	0.9241	-1.881
Mof_H 	H 	0.3209	0.6523	0.9198	0.558
Mof_H 	H 	0.2951	0.6992	0.8979	0.57
Mof_H 	H 	0.2998	0.6929	0.9553	0.565
Mof_C 	C 	0.2822	0.8723	0.873	0.215
Mof_H 	H 	0.273	0.8488	0.8476	-0.065
Mof_H 	H 	0.3022	0.8974	0.8572	-0.074
Mof_C 	C 	0.3193	0.0555	0.0758	-0.636
Mof_H 	H 	0.34	0.0459	0.0487	0.099
Mof_H 	H 	0.3253	0.0895	0.0838	0.175
Mof_H 	H 	0.2853	0.0514	0.0667	0.015
Mof_C 	C 	0.2976	0.0418	0.1661	-0.77
Mof_H 	H 	0.3073	0.0748	0.1745	0.205
Mof_H 	H 	0.3015	0.0208	0.1944	0.183
Mof_H 	H 	0.2637	0.0416	0.1559	0.193
Mof_C 	C 	0.4075	0.6956	0.9558	-2.373
Mof_H 	H 	0.4135	0.6617	0.9475	0.694
Mof_H 	H 	0.3967	0.6978	0.9895	0.703
Mof_H 	H 	0.4374	0.7142	0.9518	0.685
Mof_C 	C 	0.3874	0.7137	0.8734	-2.507
Mof_H 	H 	0.3981	0.6806	0.8663	0.756
Mof_H 	H 	0.4149	0.7359	0.8702	0.726
Mof_H 	H 	0.3619	0.723	0.8508	0.761
Mof_C 	C 	0.3816	0.0312	0.1358	-0.977
Mof_H 	H 	0.403	0.0207	0.1095	0.265
Mof_H 	H 	0.3895	0.0132	0.1653	0.24
Mof_H 	H 	0.3862	0.0659	0.1415	0.292
Mof_C 	C 	0.3688	0.7159	0.923	1.703
Mof_C 	C 	0.3015	0.7869	0.0874	0.385
Mof_H 	H 	0.2912	0.758	0.0698	-0.135
Mof_H 	H 	0.2863	0.7874	0.1194	-0.117
Mof_H 	H 	0.3367	0.7866	0.0911	-0.131
Mof_O 	O 	0.8271	0.42	0.4533	-0.654
Mof_O 	O 	0.8147	0.5193	0.4421	-0.76
Mof_C 	C 	0.7653	0.3974	0.6094	-0.327
Mof_O 	O 	0.7888	0.3247	0.5638	-0.364
Mof_C 	C 	0.8337	0.3684	0.4486	0.379
Mof_C 	C 	0.8495	0.4423	0.5766	0.059
Mof_H 	H 	0.8812	0.4573	0.5677	-0.067
Mof_C 	C 	0.7992	0.3719	0.5786	0.163
Mof_C 	C 	0.8602	0.345	0.4827	-0.367
Mof_C 	C 	0.8649	0.4461	0.4309	-0.025
Mof_H 	H 	0.8697	0.4338	0.3976	0.001
Mof_H 	H 	0.8953	0.4409	0.4492	0.004
Mof_C 	C 	0.8313	0.522	0.6224	0.807
Mof_C 	C 	0.8701	0.2955	0.4735	0.393
Mof_H 	H 	0.8887	0.2776	0.4962	-0.162
Mof_C 	C 	0.8135	0.3466	0.4076	-0.438
Mof_C 	C 	0.8179	0.4698	0.6071	-0.517
Mof_C 	C 	0.8416	0.3968	0.5618	-0.319
Mof_C 	C 	0.7773	0.4472	0.6207	0.055
Mof_H 	H 	0.7565	0.464	0.645	-0.056
Mof_O 	O 	0.891	0.5263	0.4083	-0.473
Mof_C 	C 	0.8531	0.5023	0.4291	0.355
Mof_C 	C 	0.8524	0.2713	0.4296	-0.808
Mof_C 	C 	0.8256	0.2967	0.3998	0.56
Mof_H 	H 	0.8136	0.2813	0.3716	-0.222
Mof_C 	C 	0.8804	0.3683	0.5294	0.194
Mof_H 	H 	0.9064	0.3912	0.5202	-0.069
Mof_H 	H 	0.8952	0.3426	0.5494	-0.065
Mof_C 	C 	0.8156	0.1871	0.4241	-1.884
Mof_H 	H 	0.8209	0.1523	0.4198	0.551
Mof_H 	H 	0.7951	0.1992	0.3979	0.569
Mof_H 	H 	0.7998	0.1929	0.4553	0.553
Mof_C 	C 	0.7822	0.3723	0.373	0.277
Mof_H 	H 	0.773	0.3488	0.3476	-0.082
Mof_H 	H 	0.8022	0.3974	0.3572	-0.098
Mof_C 	C 	0.8193	0.5555	0.5758	-0.923
Mof_H 	H 	0.84	0.5459	0.5487	0.203
Mof_H 	H 	0.8253	0.5895	0.5838	0.262
Mof_H 	H 	0.7853	0.5514	0.5667	0.112
Mof_C 	C 	0.7976	0.5418	0.6661	-1.053
Mof_H 	H 	0.8073	0.5748	0.6745	0.287
Mof_H 	H 	0.8015	0.5208	0.6944	0.281
Mof_H 	H 	0.7637	0.5416	0.6559	0.286
Mof_C 	C 	0.9075	0.1956	0.4558	-2.409
Mof_H 	H 	0.9135	0.1617	0.4475	0.705
Mof_H 	H 	0.8967	0.1978	0.4895	0.706
Mof_H 	H 	0.9374	0.2142	0.4518	0.703
Mof_C 	C 	0.8874	0.2137	0.3734	-2.55
Mof_H 	H 	0.8981	0.1806	0.3663	0.773
Mof_H 	H 	0.9149	0.2359	0.3702	0.744
Mof_H 	H 	0.8619	0.223	0.3508	0.774
Mof_C 	C 	0.8816	0.5312	0.6358	-1.375
Mof_H 	H 	0.903	0.5207	0.6095	0.404
Mof_H 	H 	0.8895	0.5132	0.6653	0.374
Mof_H 	H 	0.8862	0.5659	0.6415	0.411
Mof_C 	C 	0.8688	0.2159	0.423	1.733
Mof_C 	C 	0.8015	0.2869	0.5874	0.365
Mof_H 	H 	0.7912	0.258	0.5698	-0.12
Mof_H 	H 	0.7863	0.2874	0.6194	-0.111
Mof_H 	H 	0.8367	0.2866	0.5911	-0.117
Mof_O 	O 	0.8271	0.58	0.0467	-0.645
Mof_O 	O 	0.8147	0.4807	0.0579	-0.743
Mof_C 	C 	0.7653	0.6026	0.8906	-0.327
Mof_O 	O 	0.7888	0.6753	0.9362	-0.336
Mof_C 	C 	0.8337	0.6316	0.0514	0.402
Mof_C 	C 	0.8495	0.5577	0.9234	0.098
Mof_H 	H 	0.8812	0.5427	0.9323	-0.071
Mof_C 	C 	0.7992	0.6281	0.9214	0.178
Mof_C 	C 	0.8602	0.655	0.0173	-0.437
Mof_C 	C 	0.8649	0.5539	0.0691	-0.022
Mof_H 	H 	0.8697	0.5662	0.1024	0
Mof_H 	H 	0.8953	0.5591	0.0508	-0.005
Mof_C 	C 	0.8313	0.478	0.8776	0.882
Mof_C 	C 	0.8701	0.7045	0.0265	0.423
Mof_H 	H 	0.8887	0.7224	0.0038	-0.185
Mof_C 	C 	0.8135	0.6534	0.0924	-0.453
Mof_C 	C 	0.8179	0.5302	0.8929	-0.546
Mof_C 	C 	0.8416	0.6032	0.9382	-0.33
Mof_C 	C 	0.7773	0.5528	0.8793	0.089
Mof_H 	H 	0.7565	0.536	0.855	-0.065
Mof_O 	O 	0.891	0.4737	0.0917	-0.475
Mof_C 	C 	0.8531	0.4977	0.0709	0.347
Mof_C 	C 	0.8524	0.7287	0.0704	-0.825
Mof_C 	C 	0.8256	0.7033	0.1002	0.575
Mof_H 	H 	0.8136	0.7187	0.1284	-0.227
Mof_C 	C 	0.8804	0.6317	0.9706	0.27
Mof_H 	H 	0.9064	0.6088	0.9798	-0.072
Mof_H 	H 	0.8952	0.6574	0.9506	-0.076
Mof_C 	C 	0.8156	0.8129	0.0759	-1.879
Mof_H 	H 	0.8209	0.8477	0.0802	0.552
Mof_H 	H 	0.7951	0.8008	0.1021	0.567
Mof_H 	H 	0.7998	0.8071	0.0447	0.546
Mof_C 	C 	0.7822	0.6277	0.127	0.283
Mof_H 	H 	0.773	0.6512	0.1524	-0.083
Mof_H 	H 	0.8022	0.6026	0.1428	-0.099
Mof_C 	C 	0.8193	0.4445	0.9242	-1.031
Mof_H 	H 	0.84	0.4541	0.9513	0.255
Mof_H 	H 	0.8253	0.4105	0.9162	0.301
Mof_H 	H 	0.7853	0.4486	0.9333	0.164
Mof_C 	C 	0.7976	0.4582	0.8339	-1.127
Mof_H 	H 	0.8073	0.4252	0.8255	0.31
Mof_H 	H 	0.8015	0.4792	0.8056	0.304
Mof_H 	H 	0.7637	0.4584	0.8441	0.31
Mof_C 	C 	0.9075	0.8044	0.0442	-2.395
Mof_H 	H 	0.9135	0.8383	0.0525	0.701
Mof_H 	H 	0.8967	0.8022	0.0105	0.696
Mof_H 	H 	0.9374	0.7858	0.0482	0.696
Mof_C 	C 	0.8874	0.7863	0.1266	-2.543
Mof_H 	H 	0.8981	0.8194	0.1337	0.77
Mof_H 	H 	0.9149	0.7641	0.1298	0.742
Mof_H 	H 	0.8619	0.777	0.1492	0.772
Mof_C 	C 	0.8816	0.4688	0.8642	-1.474
Mof_H 	H 	0.903	0.4793	0.8905	0.437
Mof_H 	H 	0.8895	0.4868	0.8347	0.403
Mof_H 	H 	0.8862	0.4341	0.8585	0.441
Mof_C 	C 	0.8688	0.7841	0.077	1.729
Mof_C 	C 	0.8015	0.7131	0.9126	0.305
Mof_H 	H 	0.7912	0.742	0.9302	-0.09
Mof_H 	H 	0.7863	0.7126	0.8806	-0.092
Mof_H 	H 	0.8367	0.7134	0.9089	-0.091
Mof_O 	O 	0.3271	0.08	0.5467	-0.627
Mof_O 	O 	0.3147	0.9807	0.5579	-0.74
Mof_C 	C 	0.2653	0.1026	0.3906	-0.379
Mof_O 	O 	0.2888	0.1753	0.4362	-0.374
Mof_C 	C 	0.3337	0.1316	0.5514	0.388
Mof_C 	C 	0.3495	0.0577	0.4234	0.173
Mof_H 	H 	0.3812	0.0427	0.4323	-0.122
Mof_C 	C 	0.2992	0.1281	0.4214	0.211
Mof_C 	C 	0.3602	0.155	0.5173	-0.379
Mof_C 	C 	0.3649	0.0539	0.5691	-0.093
Mof_H 	H 	0.3697	0.0662	0.6024	0.02
Mof_H 	H 	0.3953	0.0591	0.5508	0.015
Mof_C 	C 	0.3313	0.978	0.3776	1.102
Mof_C 	C 	0.3701	0.2045	0.5265	0.401
Mof_H 	H 	0.3887	0.2224	0.5038	-0.166
Mof_C 	C 	0.3135	0.1534	0.5924	-0.447
Mof_C 	C 	0.3179	0.0302	0.3929	-0.705
Mof_C 	C 	0.3416	0.1032	0.4382	-0.378
Mof_C 	C 	0.2773	0.0528	0.3793	0.176
Mof_H 	H 	0.2565	0.036	0.355	-0.11
Mof_O 	O 	0.391	0.9737	0.5917	-0.468
Mof_C 	C 	0.3531	0.9977	0.5709	0.405
Mof_C 	C 	0.3524	0.2287	0.5704	-0.803
Mof_C 	C 	0.3256	0.2033	0.6002	0.567
Mof_H 	H 	0.3136	0.2187	0.6284	-0.222
Mof_C 	C 	0.3804	0.1317	0.4706	0.233
Mof_H 	H 	0.4064	0.1088	0.4798	-0.087
Mof_H 	H 	0.3952	0.1574	0.4506	-0.08
Mof_C 	C 	0.3156	0.3129	0.5759	-1.867
Mof_H 	H 	0.3209	0.3477	0.5802	0.55
Mof_H 	H 	0.2951	0.3008	0.6021	0.565
Mof_H 	H 	0.2998	0.3071	0.5447	0.551
Mof_C 	C 	0.2822	0.1277	0.627	0.31
Mof_H 	H 	0.273	0.1512	0.6524	-0.09
Mof_H 	H 	0.3022	0.1026	0.6428	-0.108
Mof_C 	C 	0.3193	0.9445	0.4242	-1.2
Mof_H 	H 	0.34	0.9541	0.4513	0.299
Mof_H 	H 	0.3253	0.9105	0.4162	0.344
Mof_H 	H 	0.2853	0.9486	0.4333	0.212
Mof_C 	C 	0.2976	0.9582	0.3339	-1.342
Mof_H 	H 	0.3073	0.9252	0.3255	0.374
Mof_H 	H 	0.3015	0.9792	0.3056	0.386
Mof_H 	H 	0.2637	0.9584	0.3441	0.385
Mof_C 	C 	0.4075	0.3044	0.5442	-2.358
Mof_H 	H 	0.4135	0.3383	0.5525	0.684
Mof_H 	H 	0.3967	0.3022	0.5105	0.688
Mof_H 	H 	0.4374	0.2858	0.5482	0.677
Mof_C 	C 	0.3874	0.2863	0.6266	-2.51
Mof_H 	H 	0.3981	0.3194	0.6337	0.757
Mof_H 	H 	0.4149	0.2641	0.6298	0.729
Mof_H 	H 	0.3619	0.277	0.6492	0.763
Mof_C 	C 	0.3816	0.9688	0.3642	-1.754
Mof_H 	H 	0.403	0.9793	0.3905	0.528
Mof_H 	H 	0.3895	0.9868	0.3347	0.501
Mof_H 	H 	0.3862	0.9341	0.3585	0.523
Mof_C 	C 	0.3688	0.2841	0.577	1.706
Mof_C 	C 	0.3015	0.2131	0.4126	0.378
Mof_H 	H 	0.2912	0.242	0.4302	-0.123
Mof_H 	H 	0.2863	0.2126	0.3806	-0.113
Mof_H 	H 	0.3367	0.2134	0.4089	-0.121
Mof_O 	O 	0.6729	0.42	0.5467	-0.652
Mof_O 	O 	0.6853	0.5193	0.5579	-0.76
Mof_C 	C 	0.7347	0.3974	0.3906	-0.331
Mof_O 	O 	0.7112	0.3247	0.4362	-0.366
Mof_C 	C 	0.6663	0.3684	0.5514	0.374
Mof_C 	C 	0.6505	0.4423	0.4234	0.06
Mof_H 	H 	0.6188	0.4573	0.4323	-0.069
Mof_C 	C 	0.7008	0.3719	0.4214	0.166
Mof_C 	C 	0.6398	0.345	0.5173	-0.36
Mof_C 	C 	0.6351	0.4461	0.5691	-0.028
Mof_H 	H 	0.6303	0.4338	0.6024	0.006
Mof_H 	H 	0.6047	0.4409	0.5508	0.004
Mof_C 	C 	0.6687	0.522	0.3776	0.804
Mof_C 	C 	0.6299	0.2955	0.5265	0.381
Mof_H 	H 	0.6113	0.2776	0.5038	-0.159
Mof_C 	C 	0.6865	0.3466	0.5924	-0.424
Mof_C 	C 	0.6821	0.4698	0.3929	-0.518
Mof_C 	C 	0.6584	0.3968	0.4382	-0.322
Mof_C 	C 	0.7227	0.4472	0.3793	0.057
Mof_H 	H 	0.7435	0.464	0.355	-0.057
Mof_O 	O 	0.609	0.5263	0.5917	-0.474
Mof_C 	C 	0.6469	0.5023	0.5709	0.356
Mof_C 	C 	0.6476	0.2713	0.5704	-0.78
Mof_C 	C 	0.6744	0.2967	0.6002	0.542
Mof_H 	H 	0.6864	0.2813	0.6284	-0.213
Mof_C 	C 	0.6196	0.3683	0.4706	0.194
Mof_H 	H 	0.5936	0.3912	0.4798	-0.073
Mof_H 	H 	0.6048	0.3426	0.4506	-0.069
Mof_C 	C 	0.6844	0.1871	0.5759	-1.831
Mof_H 	H 	0.6791	0.1523	0.5802	0.536
Mof_H 	H 	0.7049	0.1992	0.6021	0.553
Mof_H 	H 	0.7002	0.1929	0.5447	0.537
Mof_C 	C 	0.7178	0.3723	0.627	0.266
Mof_H 	H 	0.727	0.3488	0.6524	-0.078
Mof_H 	H 	0.6978	0.3974	0.6428	-0.092
Mof_C 	C 	0.6807	0.5555	0.4242	-0.919
Mof_H 	H 	0.66	0.5459	0.4513	0.201
Mof_H 	H 	0.6747	0.5895	0.4162	0.262
Mof_H 	H 	0.7147	0.5514	0.4333	0.111
Mof_C 	C 	0.7024	0.5418	0.3339	-1.052
Mof_H 	H 	0.6927	0.5748	0.3255	0.288
Mof_H 	H 	0.6985	0.5208	0.3056	0.282
Mof_H 	H 	0.7363	0.5416	0.3441	0.286
Mof_C 	C 	0.5925	0.1956	0.5442	-2.311
Mof_H 	H 	0.5865	0.1617	0.5525	0.668
Mof_H 	H 	0.6033	0.1978	0.5105	0.672
Mof_H 	H 	0.5626	0.2142	0.5482	0.662
Mof_C 	C 	0.6126	0.2137	0.6266	-2.467
Mof_H 	H 	0.6019	0.1806	0.6337	0.743
Mof_H 	H 	0.5851	0.2359	0.6298	0.716
Mof_H 	H 	0.6381	0.223	0.6492	0.75
Mof_C 	C 	0.6184	0.5312	0.3642	-1.366
Mof_H 	H 	0.597	0.5207	0.3905	0.397
Mof_H 	H 	0.6105	0.5132	0.3347	0.37
Mof_H 	H 	0.6138	0.5659	0.3585	0.407
Mof_C 	C 	0.6312	0.2159	0.577	1.67
Mof_C 	C 	0.6985	0.2869	0.4126	0.372
Mof_H 	H 	0.7088	0.258	0.4302	-0.123
Mof_H 	H 	0.7137	0.2874	0.3806	-0.113
Mof_H 	H 	0.6633	0.2866	0.4089	-0.12
Mof_O 	O 	0.1729	0.92	0.0467	-0.666
Mof_O 	O 	0.1853	0.0193	0.0579	-0.763
Mof_C 	C 	0.2347	0.8974	0.8906	-0.269
Mof_O 	O 	0.2112	0.8247	0.9362	-0.328
Mof_C 	C 	0.1663	0.8684	0.0514	0.376
Mof_C 	C 	0.1505	0.9423	0.9234	-0.019
Mof_H 	H 	0.1188	0.9573	0.9323	-0.02
Mof_C 	C 	0.2008	0.8719	0.9214	0.129
Mof_C 	C 	0.1398	0.845	0.0173	-0.402
Mof_C 	C 	0.1351	0.9461	0.0691	0.034
Mof_H 	H 	0.1303	0.9338	0.1024	-0.001
Mof_H 	H 	0.1047	0.9409	0.0508	-0.013
Mof_C 	C 	0.1687	0.022	0.8776	0.572
Mof_C 	C 	0.1299	0.7955	0.0265	0.379
Mof_H 	H 	0.1113	0.7776	0.0038	-0.172
Mof_C 	C 	0.1865	0.8466	0.0924	-0.401
Mof_C 	C 	0.1821	0.9698	0.8929	-0.35
Mof_C 	C 	0.1584	0.8968	0.9382	-0.271
Mof_C 	C 	0.2227	0.9472	0.8793	-0.038
Mof_H 	H 	0.2435	0.964	0.855	-0.007
Mof_O 	O 	0.109	0.0263	0.0917	-0.48
Mof_C 	C 	0.1469	0.0023	0.0709	0.303
Mof_C 	C 	0.1476	0.7713	0.0704	-0.749
Mof_C 	C 	0.1744	0.7967	0.1002	0.513
Mof_H 	H 	0.1864	0.7813	0.1284	-0.2
Mof_C 	C 	0.1196	0.8683	0.9706	0.226
Mof_H 	H 	0.0936	0.8912	0.9798	-0.063
Mof_H 	H 	0.1048	0.8426	0.9506	-0.069
Mof_C 	C 	0.1844	0.6871	0.0759	-1.744
Mof_H 	H 	0.1791	0.6523	0.0802	0.509
Mof_H 	H 	0.2049	0.6992	0.1021	0.526
Mof_H 	H 	0.2002	0.6929	0.0447	0.504
Mof_C 	C 	0.2178	0.8723	0.127	0.217
Mof_H 	H 	0.227	0.8488	0.1524	-0.062
Mof_H 	H 	0.1978	0.8974	0.1428	-0.071
Mof_C 	C 	0.1807	0.0555	0.9242	-0.738
Mof_H 	H 	0.16	0.0459	0.9513	0.152
Mof_H 	H 	0.1747	0.0895	0.9162	0.215
Mof_H 	H 	0.2147	0.0514	0.9333	0.059
Mof_C 	C 	0.2024	0.0418	0.8339	-0.83
Mof_H 	H 	0.1927	0.0748	0.8255	0.224
Mof_H 	H 	0.1985	0.0208	0.8056	0.2
Mof_H 	H 	0.2363	0.0416	0.8441	0.211
Mof_C 	C 	0.0925	0.6956	0.0442	-2.166
Mof_H 	H 	0.0865	0.6617	0.0525	0.614
Mof_H 	H 	0.1033	0.6978	0.0105	0.616
Mof_H 	H 	0.0626	0.7142	0.0482	0.604
Mof_C 	C 	0.1126	0.7137	0.1266	-2.346
Mof_H 	H 	0.1019	0.6806	0.1337	0.703
Mof_H 	H 	0.0851	0.7359	0.1298	0.676
Mof_H 	H 	0.1381	0.723	0.1492	0.714
Mof_C 	C 	0.1184	0.0312	0.8642	-1.061
Mof_H 	H 	0.097	0.0207	0.8905	0.294
Mof_H 	H 	0.1105	0.0132	0.8347	0.264
Mof_H 	H 	0.1138	0.0659	0.8585	0.317
Mof_C 	C 	0.1312	0.7159	0.077	1.578
Mof_C 	C 	0.1985	0.7869	0.9126	0.301
Mof_H 	H 	0.2088	0.758	0.9302	-0.092
Mof_H 	H 	0.2137	0.7874	0.8806	-0.092
Mof_H 	H 	0.1633	0.7866	0.9089	-0.094
Mof_O 	O 	0.4533	0.1729	0.08	-0.625
Mof_O 	O 	0.4421	0.1853	0.9807	-0.74
Mof_C 	C 	0.6094	0.2347	0.1026	-0.383
Mof_O 	O 	0.5638	0.2112	0.1753	-0.377
Mof_C 	C 	0.4486	0.1663	0.1316	0.383
Mof_C 	C 	0.5766	0.1505	0.0577	0.174
Mof_H 	H 	0.5677	0.1188	0.0427	-0.123
Mof_C 	C 	0.5786	0.2008	0.1281	0.213
Mof_C 	C 	0.4827	0.1398	0.155	-0.372
Mof_C 	C 	0.4309	0.1351	0.0539	-0.094
Mof_H 	H 	0.3976	0.1303	0.0662	0.025
Mof_H 	H 	0.4492	0.1047	0.0591	0.016
Mof_C 	C 	0.6224	0.1687	0.978	1.095
Mof_C 	C 	0.4735	0.1299	0.2045	0.389
Mof_H 	H 	0.4962	0.1113	0.2224	-0.163
Mof_C 	C 	0.4076	0.1865	0.1534	-0.433
Mof_C 	C 	0.6071	0.1821	0.0302	-0.704
Mof_C 	C 	0.5618	0.1584	0.1032	-0.379
Mof_C 	C 	0.6207	0.2227	0.0528	0.178
Mof_H 	H 	0.645	0.2435	0.036	-0.111
Mof_O 	O 	0.4083	0.109	0.9737	-0.469
Mof_C 	C 	0.4291	0.1469	0.9977	0.405
Mof_C 	C 	0.4296	0.1476	0.2287	-0.776
Mof_C 	C 	0.3998	0.1744	0.2033	0.549
Mof_H 	H 	0.3716	0.1864	0.2187	-0.213
Mof_C 	C 	0.5294	0.1196	0.1317	0.232
Mof_H 	H 	0.5202	0.0936	0.1088	-0.09
Mof_H 	H 	0.5494	0.1048	0.1574	-0.082
Mof_C 	C 	0.4241	0.1844	0.3129	-1.817
Mof_H 	H 	0.4198	0.1791	0.3477	0.535
Mof_H 	H 	0.3979	0.2049	0.3008	0.551
Mof_H 	H 	0.4553	0.2002	0.3071	0.536
Mof_C 	C 	0.373	0.2178	0.1277	0.299
Mof_H 	H 	0.3476	0.227	0.1512	-0.086
Mof_H 	H 	0.3572	0.1978	0.1026	-0.102
Mof_C 	C 	0.5758	0.1807	0.9445	-1.193
Mof_H 	H 	0.5487	0.16	0.9541	0.297
Mof_H 	H 	0.5838	0.1747	0.9105	0.342
Mof_H 	H 	0.5667	0.2147	0.9486	0.21
Mof_C 	C 	0.6661	0.2024	0.9582	-1.334
Mof_H 	H 	0.6745	0.1927	0.9252	0.371
Mof_H 	H 	0.6944	0.1985	0.9792	0.383
Mof_H 	H 	0.6559	0.2363	0.9584	0.382
Mof_C 	C 	0.4558	0.0925	0.3044	-2.264
Mof_H 	H 	0.4475	0.0865	0.3383	0.648
Mof_H 	H 	0.4895	0.1033	0.3022	0.656
Mof_H 	H 	0.4518	0.0626	0.2858	0.637
Mof_C 	C 	0.3734	0.1126	0.2863	-2.432
Mof_H 	H 	0.3663	0.1019	0.3194	0.729
Mof_H 	H 	0.3702	0.0851	0.2641	0.702
Mof_H 	H 	0.3508	0.1381	0.277	0.741
Mof_C 	C 	0.6358	0.1184	0.9688	-1.74
Mof_H 	H 	0.6095	0.097	0.9793	0.52
Mof_H 	H 	0.6653	0.1105	0.9868	0.496
Mof_H 	H 	0.6415	0.1138	0.9341	0.518
Mof_C 	C 	0.423	0.1312	0.2841	1.647
Mof_C 	C 	0.5874	0.1985	0.2131	0.385
Mof_H 	H 	0.5698	0.2088	0.242	-0.126
Mof_H 	H 	0.6194	0.2137	0.2126	-0.116
Mof_H 	H 	0.5911	0.1633	0.2134	-0.124
Mof_O 	O 	0.9533	0.6729	0.58	-0.602
Mof_O 	O 	0.9421	0.6853	0.4807	-0.723
Mof_C 	C 	0.1094	0.7347	0.6026	-0.326
Mof_O 	O 	0.0638	0.7112	0.6753	-0.383
Mof_C 	C 	0.9486	0.6663	0.6316	0.347
Mof_C 	C 	0.0766	0.6505	0.5577	0.055
Mof_H 	H 	0.0677	0.6188	0.5427	-0.072
Mof_C 	C 	0.0786	0.7008	0.6281	0.166
Mof_C 	C 	0.9827	0.6398	0.655	-0.286
Mof_C 	C 	0.9309	0.6351	0.5539	-0.043
Mof_H 	H 	0.8976	0.6303	0.5662	0.011
Mof_H 	H 	0.9492	0.6047	0.5591	0.02
Mof_C 	C 	0.1224	0.6687	0.478	0.795
Mof_C 	C 	0.9735	0.6299	0.7045	0.358
Mof_H 	H 	0.9962	0.6113	0.7224	-0.138
Mof_C 	C 	0.9076	0.6865	0.6534	-0.408
Mof_C 	C 	0.1071	0.6821	0.5302	-0.506
Mof_C 	C 	0.0618	0.6584	0.6032	-0.305
Mof_C 	C 	0.1207	0.7227	0.5528	0.064
Mof_H 	H 	0.145	0.7435	0.536	-0.056
Mof_O 	O 	0.9083	0.609	0.4737	-0.47
Mof_C 	C 	0.9291	0.6469	0.4977	0.361
Mof_C 	C 	0.9296	0.6476	0.7287	-0.784
Mof_C 	C 	0.8998	0.6744	0.7033	0.539
Mof_H 	H 	0.8716	0.6864	0.7187	-0.214
Mof_C 	C 	0.0294	0.6196	0.6317	0.117
Mof_H 	H 	0.0202	0.5936	0.6088	-0.067
Mof_H 	H 	0.0494	0.6048	0.6574	-0.058
Mof_C 	C 	0.9241	0.6844	0.8129	-1.915
Mof_H 	H 	0.9198	0.6791	0.8477	0.572
Mof_H 	H 	0.8979	0.7049	0.8008	0.582
Mof_H 	H 	0.9553	0.7002	0.8071	0.578
Mof_C 	C 	0.873	0.7178	0.6277	0.261
Mof_H 	H 	0.8476	0.727	0.6512	-0.078
Mof_H 	H 	0.8572	0.6978	0.6026	-0.09
Mof_C 	C 	0.0758	0.6807	0.4445	-0.907
Mof_H 	H 	0.0487	0.66	0.4541	0.192
Mof_H 	H 	0.0838	0.6747	0.4105	0.254
Mof_H 	H 	0.0667	0.7147	0.4486	0.112
Mof_C 	C 	0.1661	0.7024	0.4582	-1.047
Mof_H 	H 	0.1745	0.6927	0.4252	0.286
Mof_H 	H 	0.1944	0.6985	0.4792	0.281
Mof_H 	H 	0.1559	0.7363	0.4584	0.285
Mof_C 	C 	0.9558	0.5925	0.8044	-2.415
Mof_H 	H 	0.9475	0.5865	0.8383	0.708
Mof_H 	H 	0.9895	0.6033	0.8022	0.718
Mof_H 	H 	0.9518	0.5626	0.7858	0.697
Mof_C 	C 	0.8734	0.6126	0.7863	-2.545
Mof_H 	H 	0.8663	0.6019	0.8194	0.766
Mof_H 	H 	0.8702	0.5851	0.7641	0.738
Mof_H 	H 	0.8508	0.6381	0.777	0.772
Mof_C 	C 	0.1358	0.6184	0.4688	-1.353
Mof_H 	H 	0.1095	0.597	0.4793	0.391
Mof_H 	H 	0.1653	0.6105	0.4868	0.366
Mof_H 	H 	0.1415	0.6138	0.4341	0.403
Mof_C 	C 	0.923	0.6312	0.7841	1.736
Mof_C 	C 	0.0874	0.6985	0.7131	0.404
Mof_H 	H 	0.0698	0.7088	0.742	-0.141
Mof_H 	H 	0.1194	0.7137	0.7126	-0.122
Mof_H 	H 	0.0911	0.6633	0.7134	-0.136
Mof_O 	O 	0.9533	0.3271	0.92	-0.628
Mof_O 	O 	0.9421	0.3147	0.0193	-0.743
Mof_C 	C 	0.1094	0.2653	0.8974	-0.262
Mof_O 	O 	0.0638	0.2888	0.8247	-0.369
Mof_C 	C 	0.9486	0.3337	0.8684	0.332
Mof_C 	C 	0.0766	0.3495	0.9423	-0.06
Mof_H 	H 	0.0677	0.3812	0.9573	-0.019
Mof_C 	C 	0.0786	0.2992	0.8719	0.113
Mof_C 	C 	0.9827	0.3602	0.845	-0.267
Mof_C 	C 	0.9309	0.3649	0.9461	0.023
Mof_H 	H 	0.8976	0.3697	0.9338	-0.003
Mof_H 	H 	0.9492	0.3953	0.9409	0.009
Mof_C 	C 	0.1224	0.3313	0.022	0.507
Mof_C 	C 	0.9735	0.3701	0.7955	0.339
Mof_H 	H 	0.9962	0.3887	0.7776	-0.132
Mof_C 	C 	0.9076	0.3135	0.8466	-0.385
Mof_C 	C 	0.1071	0.3179	0.9698	-0.317
Mof_C 	C 	0.0618	0.3416	0.8968	-0.244
Mof_C 	C 	0.1207	0.2773	0.9472	-0.063
Mof_H 	H 	0.145	0.2565	0.964	0.001
Mof_O 	O 	0.9083	0.391	0.0263	-0.474
Mof_C 	C 	0.9291	0.3531	0.0023	0.312
Mof_C 	C 	0.9296	0.3524	0.7713	-0.762
Mof_C 	C 	0.8998	0.3256	0.7967	0.514
Mof_H 	H 	0.8716	0.3136	0.7813	-0.205
Mof_C 	C 	0.0294	0.3804	0.8683	0.078
Mof_H 	H 	0.0202	0.4064	0.8912	-0.053
Mof_H 	H 	0.0494	0.3952	0.8426	-0.046
Mof_C 	C 	0.9241	0.3156	0.6871	-1.881
Mof_H 	H 	0.9198	0.3209	0.6523	0.558
Mof_H 	H 	0.8979	0.2951	0.6992	0.57
Mof_H 	H 	0.9553	0.2998	0.6929	0.565
Mof_C 	C 	0.873	0.2822	0.8723	0.215
Mof_H 	H 	0.8476	0.273	0.8488	-0.065
Mof_H 	H 	0.8572	0.3022	0.8974	-0.074
Mof_C 	C 	0.0758	0.3193	0.0555	-0.636
Mof_H 	H 	0.0487	0.34	0.0459	0.099
Mof_H 	H 	0.0838	0.3253	0.0895	0.175
Mof_H 	H 	0.0667	0.2853	0.0514	0.015
Mof_C 	C 	0.1661	0.2976	0.0418	-0.77
Mof_H 	H 	0.1745	0.3073	0.0748	0.205
Mof_H 	H 	0.1944	0.3015	0.0208	0.183
Mof_H 	H 	0.1559	0.2637	0.0416	0.193
Mof_C 	C 	0.9558	0.4075	0.6956	-2.373
Mof_H 	H 	0.9475	0.4135	0.6617	0.694
Mof_H 	H 	0.9895	0.3967	0.6978	0.703
Mof_H 	H 	0.9518	0.4374	0.7142	0.685
Mof_C 	C 	0.8734	0.3874	0.7137	-2.507
Mof_H 	H 	0.8663	0.3981	0.6806	0.756
Mof_H 	H 	0.8702	0.4149	0.7359	0.726
Mof_H 	H 	0.8508	0.3619	0.723	0.761
Mof_C 	C 	0.1358	0.3816	0.0312	-0.977
Mof_H 	H 	0.1095	0.403	0.0207	0.265
Mof_H 	H 	0.1653	0.3895	0.0132	0.24
Mof_H 	H 	0.1415	0.3862	0.0659	0.292
Mof_C 	C 	0.923	0.3688	0.7159	1.703
Mof_C 	C 	0.0874	0.3015	0.7869	0.385
Mof_H 	H 	0.0698	0.2912	0.758	-0.135
Mof_H 	H 	0.1194	0.2863	0.7874	-0.117
Mof_H 	H 	0.0911	0.3367	0.7866	-0.131
Mof_O 	O 	0.4533	0.8271	0.42	-0.654
Mof_O 	O 	0.4421	0.8147	0.5193	-0.76
Mof_C 	C 	0.6094	0.7653	0.3974	-0.327
Mof_O 	O 	0.5638	0.7888	0.3247	-0.364
Mof_C 	C 	0.4486	0.8337	0.3684	0.379
Mof_C 	C 	0.5766	0.8495	0.4423	0.059
Mof_H 	H 	0.5677	0.8812	0.4573	-0.067
Mof_C 	C 	0.5786	0.7992	0.3719	0.163
Mof_C 	C 	0.4827	0.8602	0.345	-0.367
Mof_C 	C 	0.4309	0.8649	0.4461	-0.025
Mof_H 	H 	0.3976	0.8697	0.4338	0.001
Mof_H 	H 	0.4492	0.8953	0.4409	0.004
Mof_C 	C 	0.6224	0.8313	0.522	0.807
Mof_C 	C 	0.4735	0.8701	0.2955	0.393
Mof_H 	H 	0.4962	0.8887	0.2776	-0.162
Mof_C 	C 	0.4076	0.8135	0.3466	-0.438
Mof_C 	C 	0.6071	0.8179	0.4698	-0.517
Mof_C 	C 	0.5618	0.8416	0.3968	-0.319
Mof_C 	C 	0.6207	0.7773	0.4472	0.055
Mof_H 	H 	0.645	0.7565	0.464	-0.056
Mof_O 	O 	0.4083	0.891	0.5263	-0.473
Mof_C 	C 	0.4291	0.8531	0.5023	0.355
Mof_C 	C 	0.4296	0.8524	0.2713	-0.808
Mof_C 	C 	0.3998	0.8256	0.2967	0.56
Mof_H 	H 	0.3716	0.8136	0.2813	-0.222
Mof_C 	C 	0.5294	0.8804	0.3683	0.194
Mof_H 	H 	0.5202	0.9064	0.3912	-0.069
Mof_H 	H 	0.5494	0.8952	0.3426	-0.065
Mof_C 	C 	0.4241	0.8156	0.1871	-1.884
Mof_H 	H 	0.4198	0.8209	0.1523	0.551
Mof_H 	H 	0.3979	0.7951	0.1992	0.569
Mof_H 	H 	0.4553	0.7998	0.1929	0.553
Mof_C 	C 	0.373	0.7822	0.3723	0.277
Mof_H 	H 	0.3476	0.773	0.3488	-0.082
Mof_H 	H 	0.3572	0.8022	0.3974	-0.098
Mof_C 	C 	0.5758	0.8193	0.5555	-0.923
Mof_H 	H 	0.5487	0.84	0.5459	0.203
Mof_H 	H 	0.5838	0.8253	0.5895	0.262
Mof_H 	H 	0.5667	0.7853	0.5514	0.112
Mof_C 	C 	0.6661	0.7976	0.5418	-1.053
Mof_H 	H 	0.6745	0.8073	0.5748	0.287
Mof_H 	H 	0.6944	0.8015	0.5208	0.281
Mof_H 	H 	0.6559	0.7637	0.5416	0.286
Mof_C 	C 	0.4558	0.9075	0.1956	-2.409
Mof_H 	H 	0.4475	0.9135	0.1617	0.705
Mof_H 	H 	0.4895	0.8967	0.1978	0.706
Mof_H 	H 	0.4518	0.9374	0.2142	0.703
Mof_C 	C 	0.3734	0.8874	0.2137	-2.55
Mof_H 	H 	0.3663	0.8981	0.1806	0.773
Mof_H 	H 	0.3702	0.9149	0.2359	0.744
Mof_H 	H 	0.3508	0.8619	0.223	0.774
Mof_C 	C 	0.6358	0.8816	0.5312	-1.375
Mof_H 	H 	0.6095	0.903	0.5207	0.404
Mof_H 	H 	0.6653	0.8895	0.5132	0.374
Mof_H 	H 	0.6415	0.8862	0.5659	0.411
Mof_C 	C 	0.423	0.8688	0.2159	1.733
Mof_C 	C 	0.5874	0.8015	0.2869	0.365
Mof_H 	H 	0.5698	0.7912	0.258	-0.12
Mof_H 	H 	0.6194	0.7863	0.2874	-0.111
Mof_H 	H 	0.5911	0.8367	0.2866	-0.117
Mof_O 	O 	0.0467	0.8271	0.58	-0.645
Mof_O 	O 	0.0579	0.8147	0.4807	-0.743
Mof_C 	C 	0.8906	0.7653	0.6026	-0.327
Mof_O 	O 	0.9362	0.7888	0.6753	-0.336
Mof_C 	C 	0.0514	0.8337	0.6316	0.402
Mof_C 	C 	0.9234	0.8495	0.5577	0.098
Mof_H 	H 	0.9323	0.8812	0.5427	-0.071
Mof_C 	C 	0.9214	0.7992	0.6281	0.178
Mof_C 	C 	0.0173	0.8602	0.655	-0.437
Mof_C 	C 	0.0691	0.8649	0.5539	-0.022
Mof_H 	H 	0.1024	0.8697	0.5662	0
Mof_H 	H 	0.0508	0.8953	0.5591	-0.005
Mof_C 	C 	0.8776	0.8313	0.478	0.882
Mof_C 	C 	0.0265	0.8701	0.7045	0.423
Mof_H 	H 	0.0038	0.8887	0.7224	-0.185
Mof_C 	C 	0.0924	0.8135	0.6534	-0.453
Mof_C 	C 	0.8929	0.8179	0.5302	-0.546
Mof_C 	C 	0.9382	0.8416	0.6032	-0.33
Mof_C 	C 	0.8793	0.7773	0.5528	0.089
Mof_H 	H 	0.855	0.7565	0.536	-0.065
Mof_O 	O 	0.0917	0.891	0.4737	-0.475
Mof_C 	C 	0.0709	0.8531	0.4977	0.347
Mof_C 	C 	0.0704	0.8524	0.7287	-0.825
Mof_C 	C 	0.1002	0.8256	0.7033	0.575
Mof_H 	H 	0.1284	0.8136	0.7187	-0.227
Mof_C 	C 	0.9706	0.8804	0.6317	0.27
Mof_H 	H 	0.9798	0.9064	0.6088	-0.072
Mof_H 	H 	0.9506	0.8952	0.6574	-0.076
Mof_C 	C 	0.0759	0.8156	0.8129	-1.879
Mof_H 	H 	0.0802	0.8209	0.8477	0.552
Mof_H 	H 	0.1021	0.7951	0.8008	0.567
Mof_H 	H 	0.0447	0.7998	0.8071	0.546
Mof_C 	C 	0.127	0.7822	0.6277	0.283
Mof_H 	H 	0.1524	0.773	0.6512	-0.083
Mof_H 	H 	0.1428	0.8022	0.6026	-0.099
Mof_C 	C 	0.9242	0.8193	0.4445	-1.031
Mof_H 	H 	0.9513	0.84	0.4541	0.255
Mof_H 	H 	0.9162	0.8253	0.4105	0.301
Mof_H 	H 	0.9333	0.7853	0.4486	0.164
Mof_C 	C 	0.8339	0.7976	0.4582	-1.127
Mof_H 	H 	0.8255	0.8073	0.4252	0.31
Mof_H 	H 	0.8056	0.8015	0.4792	0.304
Mof_H 	H 	0.8441	0.7637	0.4584	0.31
Mof_C 	C 	0.0442	0.9075	0.8044	-2.395
Mof_H 	H 	0.0525	0.9135	0.8383	0.701
Mof_H 	H 	0.0105	0.8967	0.8022	0.696
Mof_H 	H 	0.0482	0.9374	0.7858	0.696
Mof_C 	C 	0.1266	0.8874	0.7863	-2.543
Mof_H 	H 	0.1337	0.8981	0.8194	0.77
Mof_H 	H 	0.1298	0.9149	0.7641	0.742
Mof_H 	H 	0.1492	0.8619	0.777	0.772
Mof_C 	C 	0.8642	0.8816	0.4688	-1.474
Mof_H 	H 	0.8905	0.903	0.4793	0.437
Mof_H 	H 	0.8347	0.8895	0.4868	0.403
Mof_H 	H 	0.8585	0.8862	0.4341	0.441
Mof_C 	C 	0.077	0.8688	0.7841	1.729
Mof_C 	C 	0.9126	0.8015	0.7131	0.305
Mof_H 	H 	0.9302	0.7912	0.742	-0.09
Mof_H 	H 	0.8806	0.7863	0.7126	-0.092
Mof_H 	H 	0.9089	0.8367	0.7134	-0.091
Mof_O 	O 	0.5467	0.3271	0.08	-0.627
Mof_O 	O 	0.5579	0.3147	0.9807	-0.74
Mof_C 	C 	0.3906	0.2653	0.1026	-0.379
Mof_O 	O 	0.4362	0.2888	0.1753	-0.374
Mof_C 	C 	0.5514	0.3337	0.1316	0.388
Mof_C 	C 	0.4234	0.3495	0.0577	0.173
Mof_H 	H 	0.4323	0.3812	0.0427	-0.122
Mof_C 	C 	0.4214	0.2992	0.1281	0.211
Mof_C 	C 	0.5173	0.3602	0.155	-0.379
Mof_C 	C 	0.5691	0.3649	0.0539	-0.093
Mof_H 	H 	0.6024	0.3697	0.0662	0.02
Mof_H 	H 	0.5508	0.3953	0.0591	0.015
Mof_C 	C 	0.3776	0.3313	0.978	1.102
Mof_C 	C 	0.5265	0.3701	0.2045	0.401
Mof_H 	H 	0.5038	0.3887	0.2224	-0.166
Mof_C 	C 	0.5924	0.3135	0.1534	-0.447
Mof_C 	C 	0.3929	0.3179	0.0302	-0.705
Mof_C 	C 	0.4382	0.3416	0.1032	-0.378
Mof_C 	C 	0.3793	0.2773	0.0528	0.176
Mof_H 	H 	0.355	0.2565	0.036	-0.11
Mof_O 	O 	0.5917	0.391	0.9737	-0.468
Mof_C 	C 	0.5709	0.3531	0.9977	0.405
Mof_C 	C 	0.5704	0.3524	0.2287	-0.803
Mof_C 	C 	0.6002	0.3256	0.2033	0.567
Mof_H 	H 	0.6284	0.3136	0.2187	-0.222
Mof_C 	C 	0.4706	0.3804	0.1317	0.233
Mof_H 	H 	0.4798	0.4064	0.1088	-0.087
Mof_H 	H 	0.4506	0.3952	0.1574	-0.08
Mof_C 	C 	0.5759	0.3156	0.3129	-1.867
Mof_H 	H 	0.5802	0.3209	0.3477	0.55
Mof_H 	H 	0.6021	0.2951	0.3008	0.565
Mof_H 	H 	0.5447	0.2998	0.3071	0.551
Mof_C 	C 	0.627	0.2822	0.1277	0.31
Mof_H 	H 	0.6524	0.273	0.1512	-0.09
Mof_H 	H 	0.6428	0.3022	0.1026	-0.108
Mof_C 	C 	0.4242	0.3193	0.9445	-1.2
Mof_H 	H 	0.4513	0.34	0.9541	0.299
Mof_H 	H 	0.4162	0.3253	0.9105	0.344
Mof_H 	H 	0.4333	0.2853	0.9486	0.212
Mof_C 	C 	0.3339	0.2976	0.9582	-1.342
Mof_H 	H 	0.3255	0.3073	0.9252	0.374
Mof_H 	H 	0.3056	0.3015	0.9792	0.386
Mof_H 	H 	0.3441	0.2637	0.9584	0.385
Mof_C 	C 	0.5442	0.4075	0.3044	-2.358
Mof_H 	H 	0.5525	0.4135	0.3383	0.684
Mof_H 	H 	0.5105	0.3967	0.3022	0.688
Mof_H 	H 	0.5482	0.4374	0.2858	0.677
Mof_C 	C 	0.6266	0.3874	0.2863	-2.51
Mof_H 	H 	0.6337	0.3981	0.3194	0.757
Mof_H 	H 	0.6298	0.4149	0.2641	0.729
Mof_H 	H 	0.6492	0.3619	0.277	0.763
Mof_C 	C 	0.3642	0.3816	0.9688	-1.754
Mof_H 	H 	0.3905	0.403	0.9793	0.528
Mof_H 	H 	0.3347	0.3895	0.9868	0.501
Mof_H 	H 	0.3585	0.3862	0.9341	0.523
Mof_C 	C 	0.577	0.3688	0.2841	1.706
Mof_C 	C 	0.4126	0.3015	0.2131	0.378
Mof_H 	H 	0.4302	0.2912	0.242	-0.123
Mof_H 	H 	0.3806	0.2863	0.2126	-0.113
Mof_H 	H 	0.4089	0.3367	0.2134	-0.121
Mof_O 	O 	0.5467	0.6729	0.42	-0.652
Mof_O 	O 	0.5579	0.6853	0.5193	-0.76
Mof_C 	C 	0.3906	0.7347	0.3974	-0.331
Mof_O 	O 	0.4362	0.7112	0.3247	-0.366
Mof_C 	C 	0.5514	0.6663	0.3684	0.374
Mof_C 	C 	0.4234	0.6505	0.4423	0.06
Mof_H 	H 	0.4323	0.6188	0.4573	-0.069
Mof_C 	C 	0.4214	0.7008	0.3719	0.166
Mof_C 	C 	0.5173	0.6398	0.345	-0.36
Mof_C 	C 	0.5691	0.6351	0.4461	-0.028
Mof_H 	H 	0.6024	0.6303	0.4338	0.006
Mof_H 	H 	0.5508	0.6047	0.4409	0.004
Mof_C 	C 	0.3776	0.6687	0.522	0.804
Mof_C 	C 	0.5265	0.6299	0.2955	0.381
Mof_H 	H 	0.5038	0.6113	0.2776	-0.159
Mof_C 	C 	0.5924	0.6865	0.3466	-0.424
Mof_C 	C 	0.3929	0.6821	0.4698	-0.518
Mof_C 	C 	0.4382	0.6584	0.3968	-0.322
Mof_C 	C 	0.3793	0.7227	0.4472	0.057
Mof_H 	H 	0.355	0.7435	0.464	-0.057
Mof_O 	O 	0.5917	0.609	0.5263	-0.474
Mof_C 	C 	0.5709	0.6469	0.5023	0.356
Mof_C 	C 	0.5704	0.6476	0.2713	-0.78
Mof_C 	C 	0.6002	0.6744	0.2967	0.542
Mof_H 	H 	0.6284	0.6864	0.2813	-0.213
Mof_C 	C 	0.4706	0.6196	0.3683	0.194
Mof_H 	H 	0.4798	0.5936	0.3912	-0.073
Mof_H 	H 	0.4506	0.6048	0.3426	-0.069
Mof_C 	C 	0.5759	0.6844	0.1871	-1.831
Mof_H 	H 	0.5802	0.6791	0.1523	0.536
Mof_H 	H 	0.6021	0.7049	0.1992	0.553
Mof_H 	H 	0.5447	0.7002	0.1929	0.537
Mof_C 	C 	0.627	0.7178	0.3723	0.266
Mof_H 	H 	0.6524	0.727	0.3488	-0.078
Mof_H 	H 	0.6428	0.6978	0.3974	-0.092
Mof_C 	C 	0.4242	0.6807	0.5555	-0.919
Mof_H 	H 	0.4513	0.66	0.5459	0.201
Mof_H 	H 	0.4162	0.6747	0.5895	0.262
Mof_H 	H 	0.4333	0.7147	0.5514	0.111
Mof_C 	C 	0.3339	0.7024	0.5418	-1.052
Mof_H 	H 	0.3255	0.6927	0.5748	0.288
Mof_H 	H 	0.3056	0.6985	0.5208	0.282
Mof_H 	H 	0.3441	0.7363	0.5416	0.286
Mof_C 	C 	0.5442	0.5925	0.1956	-2.311
Mof_H 	H 	0.5525	0.5865	0.1617	0.668
Mof_H 	H 	0.5105	0.6033	0.1978	0.672
Mof_H 	H 	0.5482	0.5626	0.2142	0.662
Mof_C 	C 	0.6266	0.6126	0.2137	-2.467
Mof_H 	H 	0.6337	0.6019	0.1806	0.743
Mof_H 	H 	0.6298	0.5851	0.2359	0.716
Mof_H 	H 	0.6492	0.6381	0.223	0.75
Mof_C 	C 	0.3642	0.6184	0.5312	-1.366
Mof_H 	H 	0.3905	0.597	0.5207	0.397
Mof_H 	H 	0.3347	0.6105	0.5132	0.37
Mof_H 	H 	0.3585	0.6138	0.5659	0.407
Mof_C 	C 	0.577	0.6312	0.2159	1.67
Mof_C 	C 	0.4126	0.6985	0.2869	0.372
Mof_H 	H 	0.4302	0.7088	0.258	-0.123
Mof_H 	H 	0.3806	0.7137	0.2874	-0.113
Mof_H 	H 	0.4089	0.6633	0.2866	-0.12
Mof_O 	O 	0.0467	0.1729	0.92	-0.666
Mof_O 	O 	0.0579	0.1853	0.0193	-0.763
Mof_C 	C 	0.8906	0.2347	0.8974	-0.269
Mof_O 	O 	0.9362	0.2112	0.8247	-0.328
Mof_C 	C 	0.0514	0.1663	0.8684	0.376
Mof_C 	C 	0.9234	0.1505	0.9423	-0.019
Mof_H 	H 	0.9323	0.1188	0.9573	-0.02
Mof_C 	C 	0.9214	0.2008	0.8719	0.129
Mof_C 	C 	0.0173	0.1398	0.845	-0.402
Mof_C 	C 	0.0691	0.1351	0.9461	0.034
Mof_H 	H 	0.1024	0.1303	0.9338	-0.001
Mof_H 	H 	0.0508	0.1047	0.9409	-0.013
Mof_C 	C 	0.8776	0.1687	0.022	0.572
Mof_C 	C 	0.0265	0.1299	0.7955	0.379
Mof_H 	H 	0.0038	0.1113	0.7776	-0.172
Mof_C 	C 	0.0924	0.1865	0.8466	-0.401
Mof_C 	C 	0.8929	0.1821	0.9698	-0.35
Mof_C 	C 	0.9382	0.1584	0.8968	-0.271
Mof_C 	C 	0.8793	0.2227	0.9472	-0.038
Mof_H 	H 	0.855	0.2435	0.964	-0.007
Mof_O 	O 	0.0917	0.109	0.0263	-0.48
Mof_C 	C 	0.0709	0.1469	0.0023	0.303
Mof_C 	C 	0.0704	0.1476	0.7713	-0.749
Mof_C 	C 	0.1002	0.1744	0.7967	0.513
Mof_H 	H 	0.1284	0.1864	0.7813	-0.2
Mof_C 	C 	0.9706	0.1196	0.8683	0.226
Mof_H 	H 	0.9798	0.0936	0.8912	-0.063
Mof_H 	H 	0.9506	0.1048	0.8426	-0.069
Mof_C 	C 	0.0759	0.1844	0.6871	-1.744
Mof_H 	H 	0.0802	0.1791	0.6523	0.509
Mof_H 	H 	0.1021	0.2049	0.6992	0.526
Mof_H 	H 	0.0447	0.2002	0.6929	0.504
Mof_C 	C 	0.127	0.2178	0.8723	0.217
Mof_H 	H 	0.1524	0.227	0.8488	-0.062
Mof_H 	H 	0.1428	0.1978	0.8974	-0.071
Mof_C 	C 	0.9242	0.1807	0.0555	-0.738
Mof_H 	H 	0.9513	0.16	0.0459	0.152
Mof_H 	H 	0.9162	0.1747	0.0895	0.215
Mof_H 	H 	0.9333	0.2147	0.0514	0.059
Mof_C 	C 	0.8339	0.2024	0.0418	-0.83
Mof_H 	H 	0.8255	0.1927	0.0748	0.224
Mof_H 	H 	0.8056	0.1985	0.0208	0.2
Mof_H 	H 	0.8441	0.2363	0.0416	0.211
Mof_C 	C 	0.0442	0.0925	0.6956	-2.166
Mof_H 	H 	0.0525	0.0865	0.6617	0.614
Mof_H 	H 	0.0105	0.1033	0.6978	0.616
Mof_H 	H 	0.0482	0.0626	0.7142	0.604
Mof_C 	C 	0.1266	0.1126	0.7137	-2.346
Mof_H 	H 	0.1337	0.1019	0.6806	0.703
Mof_H 	H 	0.1298	0.0851	0.7359	0.676
Mof_H 	H 	0.1492	0.1381	0.723	0.714
Mof_C 	C 	0.8642	0.1184	0.0312	-1.061
Mof_H 	H 	0.8905	0.097	0.0207	0.294
Mof_H 	H 	0.8347	0.1105	0.0132	0.264
Mof_H 	H 	0.8585	0.1138	0.0659	0.317
Mof_C 	C 	0.077	0.1312	0.7159	1.578
Mof_C 	C 	0.9126	0.1985	0.7869	0.301
Mof_H 	H 	0.9302	0.2088	0.758	-0.092
Mof_H 	H 	0.8806	0.2137	0.7874	-0.092
Mof_H 	H 	0.9089	0.1633	0.7866	-0.094
Mof_O 	O 	0.08	0.4533	0.1729	-0.625
Mof_O 	O 	0.9807	0.4421	0.1853	-0.74
Mof_C 	C 	0.1026	0.6094	0.2347	-0.383
Mof_O 	O 	0.1753	0.5638	0.2112	-0.377
Mof_C 	C 	0.1316	0.4486	0.1663	0.383
Mof_C 	C 	0.0577	0.5766	0.1505	0.174
Mof_H 	H 	0.0427	0.5677	0.1188	-0.123
Mof_C 	C 	0.1281	0.5786	0.2008	0.213
Mof_C 	C 	0.155	0.4827	0.1398	-0.372
Mof_C 	C 	0.0539	0.4309	0.1351	-0.094
Mof_H 	H 	0.0662	0.3976	0.1303	0.025
Mof_H 	H 	0.0591	0.4492	0.1047	0.016
Mof_C 	C 	0.978	0.6224	0.1687	1.095
Mof_C 	C 	0.2045	0.4735	0.1299	0.389
Mof_H 	H 	0.2224	0.4962	0.1113	-0.163
Mof_C 	C 	0.1534	0.4076	0.1865	-0.433
Mof_C 	C 	0.0302	0.6071	0.1821	-0.704
Mof_C 	C 	0.1032	0.5618	0.1584	-0.379
Mof_C 	C 	0.0528	0.6207	0.2227	0.178
Mof_H 	H 	0.036	0.645	0.2435	-0.111
Mof_O 	O 	0.9737	0.4083	0.109	-0.469
Mof_C 	C 	0.9977	0.4291	0.1469	0.405
Mof_C 	C 	0.2287	0.4296	0.1476	-0.776
Mof_C 	C 	0.2033	0.3998	0.1744	0.549
Mof_H 	H 	0.2187	0.3716	0.1864	-0.213
Mof_C 	C 	0.1317	0.5294	0.1196	0.232
Mof_H 	H 	0.1088	0.5202	0.0936	-0.09
Mof_H 	H 	0.1574	0.5494	0.1048	-0.082
Mof_C 	C 	0.3129	0.4241	0.1844	-1.817
Mof_H 	H 	0.3477	0.4198	0.1791	0.535
Mof_H 	H 	0.3008	0.3979	0.2049	0.551
Mof_H 	H 	0.3071	0.4553	0.2002	0.536
Mof_C 	C 	0.1277	0.373	0.2178	0.299
Mof_H 	H 	0.1512	0.3476	0.227	-0.086
Mof_H 	H 	0.1026	0.3572	0.1978	-0.102
Mof_C 	C 	0.9445	0.5758	0.1807	-1.193
Mof_H 	H 	0.9541	0.5487	0.16	0.297
Mof_H 	H 	0.9105	0.5838	0.1747	0.342
Mof_H 	H 	0.9486	0.5667	0.2147	0.21
Mof_C 	C 	0.9582	0.6661	0.2024	-1.334
Mof_H 	H 	0.9252	0.6745	0.1927	0.371
Mof_H 	H 	0.9792	0.6944	0.1985	0.383
Mof_H 	H 	0.9584	0.6559	0.2363	0.382
Mof_C 	C 	0.3044	0.4558	0.0925	-2.264
Mof_H 	H 	0.3383	0.4475	0.0865	0.648
Mof_H 	H 	0.3022	0.4895	0.1033	0.656
Mof_H 	H 	0.2858	0.4518	0.0626	0.637
Mof_C 	C 	0.2863	0.3734	0.1126	-2.432
Mof_H 	H 	0.3194	0.3663	0.1019	0.729
Mof_H 	H 	0.2641	0.3702	0.0851	0.702
Mof_H 	H 	0.277	0.3508	0.1381	0.741
Mof_C 	C 	0.9688	0.6358	0.1184	-1.74
Mof_H 	H 	0.9793	0.6095	0.097	0.52
Mof_H 	H 	0.9868	0.6653	0.1105	0.496
Mof_H 	H 	0.9341	0.6415	0.1138	0.518
Mof_C 	C 	0.2841	0.423	0.1312	1.647
Mof_C 	C 	0.2131	0.5874	0.1985	0.385
Mof_H 	H 	0.242	0.5698	0.2088	-0.126
Mof_H 	H 	0.2126	0.6194	0.2137	-0.116
Mof_H 	H 	0.2134	0.5911	0.1633	-0.124
Mof_O 	O 	0.58	0.9533	0.6729	-0.602
Mof_O 	O 	0.4807	0.9421	0.6853	-0.723
Mof_C 	C 	0.6026	0.1094	0.7347	-0.326
Mof_O 	O 	0.6753	0.0638	0.7112	-0.383
Mof_C 	C 	0.6316	0.9486	0.6663	0.347
Mof_C 	C 	0.5577	0.0766	0.6505	0.055
Mof_H 	H 	0.5427	0.0677	0.6188	-0.072
Mof_C 	C 	0.6281	0.0786	0.7008	0.166
Mof_C 	C 	0.655	0.9827	0.6398	-0.286
Mof_C 	C 	0.5539	0.9309	0.6351	-0.043
Mof_H 	H 	0.5662	0.8976	0.6303	0.011
Mof_H 	H 	0.5591	0.9492	0.6047	0.02
Mof_C 	C 	0.478	0.1224	0.6687	0.795
Mof_C 	C 	0.7045	0.9735	0.6299	0.358
Mof_H 	H 	0.7224	0.9962	0.6113	-0.138
Mof_C 	C 	0.6534	0.9076	0.6865	-0.408
Mof_C 	C 	0.5302	0.1071	0.6821	-0.506
Mof_C 	C 	0.6032	0.0618	0.6584	-0.305
Mof_C 	C 	0.5528	0.1207	0.7227	0.064
Mof_H 	H 	0.536	0.145	0.7435	-0.056
Mof_O 	O 	0.4737	0.9083	0.609	-0.47
Mof_C 	C 	0.4977	0.9291	0.6469	0.361
Mof_C 	C 	0.7287	0.9296	0.6476	-0.784
Mof_C 	C 	0.7033	0.8998	0.6744	0.539
Mof_H 	H 	0.7187	0.8716	0.6864	-0.214
Mof_C 	C 	0.6317	0.0294	0.6196	0.117
Mof_H 	H 	0.6088	0.0202	0.5936	-0.067
Mof_H 	H 	0.6574	0.0494	0.6048	-0.058
Mof_C 	C 	0.8129	0.9241	0.6844	-1.915
Mof_H 	H 	0.8477	0.9198	0.6791	0.572
Mof_H 	H 	0.8008	0.8979	0.7049	0.582
Mof_H 	H 	0.8071	0.9553	0.7002	0.578
Mof_C 	C 	0.6277	0.873	0.7178	0.261
Mof_H 	H 	0.6512	0.8476	0.727	-0.078
Mof_H 	H 	0.6026	0.8572	0.6978	-0.09
Mof_C 	C 	0.4445	0.0758	0.6807	-0.907
Mof_H 	H 	0.4541	0.0487	0.66	0.192
Mof_H 	H 	0.4105	0.0838	0.6747	0.254
Mof_H 	H 	0.4486	0.0667	0.7147	0.112
Mof_C 	C 	0.4582	0.1661	0.7024	-1.047
Mof_H 	H 	0.4252	0.1745	0.6927	0.286
Mof_H 	H 	0.4792	0.1944	0.6985	0.281
Mof_H 	H 	0.4584	0.1559	0.7363	0.285
Mof_C 	C 	0.8044	0.9558	0.5925	-2.415
Mof_H 	H 	0.8383	0.9475	0.5865	0.708
Mof_H 	H 	0.8022	0.9895	0.6033	0.718
Mof_H 	H 	0.7858	0.9518	0.5626	0.697
Mof_C 	C 	0.7863	0.8734	0.6126	-2.545
Mof_H 	H 	0.8194	0.8663	0.6019	0.766
Mof_H 	H 	0.7641	0.8702	0.5851	0.738
Mof_H 	H 	0.777	0.8508	0.6381	0.772
Mof_C 	C 	0.4688	0.1358	0.6184	-1.353
Mof_H 	H 	0.4793	0.1095	0.597	0.391
Mof_H 	H 	0.4868	0.1653	0.6105	0.366
Mof_H 	H 	0.4341	0.1415	0.6138	0.403
Mof_C 	C 	0.7841	0.923	0.6312	1.736
Mof_C 	C 	0.7131	0.0874	0.6985	0.404
Mof_H 	H 	0.742	0.0698	0.7088	-0.141
Mof_H 	H 	0.7126	0.1194	0.7137	-0.122
Mof_H 	H 	0.7134	0.0911	0.6633	-0.136
Mof_O 	O 	0.92	0.9533	0.3271	-0.628
Mof_O 	O 	0.0193	0.9421	0.3147	-0.743
Mof_C 	C 	0.8974	0.1094	0.2653	-0.262
Mof_O 	O 	0.8247	0.0638	0.2888	-0.369
Mof_C 	C 	0.8684	0.9486	0.3337	0.332
Mof_C 	C 	0.9423	0.0766	0.3495	-0.06
Mof_H 	H 	0.9573	0.0677	0.3812	-0.019
Mof_C 	C 	0.8719	0.0786	0.2992	0.113
Mof_C 	C 	0.845	0.9827	0.3602	-0.267
Mof_C 	C 	0.9461	0.9309	0.3649	0.023
Mof_H 	H 	0.9338	0.8976	0.3697	-0.003
Mof_H 	H 	0.9409	0.9492	0.3953	0.009
Mof_C 	C 	0.022	0.1224	0.3313	0.507
Mof_C 	C 	0.7955	0.9735	0.3701	0.339
Mof_H 	H 	0.7776	0.9962	0.3887	-0.132
Mof_C 	C 	0.8466	0.9076	0.3135	-0.385
Mof_C 	C 	0.9698	0.1071	0.3179	-0.317
Mof_C 	C 	0.8968	0.0618	0.3416	-0.244
Mof_C 	C 	0.9472	0.1207	0.2773	-0.063
Mof_H 	H 	0.964	0.145	0.2565	0.001
Mof_O 	O 	0.0263	0.9083	0.391	-0.474
Mof_C 	C 	0.0023	0.9291	0.3531	0.312
Mof_C 	C 	0.7713	0.9296	0.3524	-0.762
Mof_C 	C 	0.7967	0.8998	0.3256	0.514
Mof_H 	H 	0.7813	0.8716	0.3136	-0.205
Mof_C 	C 	0.8683	0.0294	0.3804	0.078
Mof_H 	H 	0.8912	0.0202	0.4064	-0.053
Mof_H 	H 	0.8426	0.0494	0.3952	-0.046
Mof_C 	C 	0.6871	0.9241	0.3156	-1.881
Mof_H 	H 	0.6523	0.9198	0.3209	0.558
Mof_H 	H 	0.6992	0.8979	0.2951	0.57
Mof_H 	H 	0.6929	0.9553	0.2998	0.565
Mof_C 	C 	0.8723	0.873	0.2822	0.215
Mof_H 	H 	0.8488	0.8476	0.273	-0.065
Mof_H 	H 	0.8974	0.8572	0.3022	-0.074
Mof_C 	C 	0.0555	0.0758	0.3193	-0.636
Mof_H 	H 	0.0459	0.0487	0.34	0.099
Mof_H 	H 	0.0895	0.0838	0.3253	0.175
Mof_H 	H 	0.0514	0.0667	0.2853	0.015
Mof_C 	C 	0.0418	0.1661	0.2976	-0.77
Mof_H 	H 	0.0748	0.1745	0.3073	0.205
Mof_H 	H 	0.0208	0.1944	0.3015	0.183
Mof_H 	H 	0.0416	0.1559	0.2637	0.193
Mof_C 	C 	0.6956	0.9558	0.4075	-2.373
Mof_H 	H 	0.6617	0.9475	0.4135	0.694
Mof_H 	H 	0.6978	0.9895	0.3967	0.703
Mof_H 	H 	0.7142	0.9518	0.4374	0.685
Mof_C 	C 	0.7137	0.8734	0.3874	-2.507
Mof_H 	H 	0.6806	0.8663	0.3981	0.756
Mof_H 	H 	0.7359	0.8702	0.4149	0.726
Mof_H 	H 	0.723	0.8508	0.3619	0.761
Mof_C 	C 	0.0312	0.1358	0.3816	-0.977
Mof_H 	H 	0.0207	0.1095	0.403	0.265
Mof_H 	H 	0.0132	0.1653	0.3895	0.24
Mof_H 	H 	0.0659	0.1415	0.3862	0.292
Mof_C 	C 	0.7159	0.923	0.3688	1.703
Mof_C 	C 	0.7869	0.0874	0.3015	0.385
Mof_H 	H 	0.758	0.0698	0.2912	-0.135
Mof_H 	H 	0.7874	0.1194	0.2863	-0.117
Mof_H 	H 	0.7866	0.0911	0.3367	-0.131
Mof_O 	O 	0.42	0.4533	0.8271	-0.654
Mof_O 	O 	0.5193	0.4421	0.8147	-0.76
Mof_C 	C 	0.3974	0.6094	0.7653	-0.327
Mof_O 	O 	0.3247	0.5638	0.7888	-0.364
Mof_C 	C 	0.3684	0.4486	0.8337	0.379
Mof_C 	C 	0.4423	0.5766	0.8495	0.059
Mof_H 	H 	0.4573	0.5677	0.8812	-0.067
Mof_C 	C 	0.3719	0.5786	0.7992	0.163
Mof_C 	C 	0.345	0.4827	0.8602	-0.367
Mof_C 	C 	0.4461	0.4309	0.8649	-0.025
Mof_H 	H 	0.4338	0.3976	0.8697	0.001
Mof_H 	H 	0.4409	0.4492	0.8953	0.004
Mof_C 	C 	0.522	0.6224	0.8313	0.807
Mof_C 	C 	0.2955	0.4735	0.8701	0.393
Mof_H 	H 	0.2776	0.4962	0.8887	-0.162
Mof_C 	C 	0.3466	0.4076	0.8135	-0.438
Mof_C 	C 	0.4698	0.6071	0.8179	-0.517
Mof_C 	C 	0.3968	0.5618	0.8416	-0.319
Mof_C 	C 	0.4472	0.6207	0.7773	0.055
Mof_H 	H 	0.464	0.645	0.7565	-0.056
Mof_O 	O 	0.5263	0.4083	0.891	-0.473
Mof_C 	C 	0.5023	0.4291	0.8531	0.355
Mof_C 	C 	0.2713	0.4296	0.8524	-0.808
Mof_C 	C 	0.2967	0.3998	0.8256	0.56
Mof_H 	H 	0.2813	0.3716	0.8136	-0.222
Mof_C 	C 	0.3683	0.5294	0.8804	0.194
Mof_H 	H 	0.3912	0.5202	0.9064	-0.069
Mof_H 	H 	0.3426	0.5494	0.8952	-0.065
Mof_C 	C 	0.1871	0.4241	0.8156	-1.884
Mof_H 	H 	0.1523	0.4198	0.8209	0.551
Mof_H 	H 	0.1992	0.3979	0.7951	0.569
Mof_H 	H 	0.1929	0.4553	0.7998	0.553
Mof_C 	C 	0.3723	0.373	0.7822	0.277
Mof_H 	H 	0.3488	0.3476	0.773	-0.082
Mof_H 	H 	0.3974	0.3572	0.8022	-0.098
Mof_C 	C 	0.5555	0.5758	0.8193	-0.923
Mof_H 	H 	0.5459	0.5487	0.84	0.203
Mof_H 	H 	0.5895	0.5838	0.8253	0.262
Mof_H 	H 	0.5514	0.5667	0.7853	0.112
Mof_C 	C 	0.5418	0.6661	0.7976	-1.053
Mof_H 	H 	0.5748	0.6745	0.8073	0.287
Mof_H 	H 	0.5208	0.6944	0.8015	0.281
Mof_H 	H 	0.5416	0.6559	0.7637	0.286
Mof_C 	C 	0.1956	0.4558	0.9075	-2.409
Mof_H 	H 	0.1617	0.4475	0.9135	0.705
Mof_H 	H 	0.1978	0.4895	0.8967	0.706
Mof_H 	H 	0.2142	0.4518	0.9374	0.703
Mof_C 	C 	0.2137	0.3734	0.8874	-2.55
Mof_H 	H 	0.1806	0.3663	0.8981	0.773
Mof_H 	H 	0.2359	0.3702	0.9149	0.744
Mof_H 	H 	0.223	0.3508	0.8619	0.774
Mof_C 	C 	0.5312	0.6358	0.8816	-1.375
Mof_H 	H 	0.5207	0.6095	0.903	0.404
Mof_H 	H 	0.5132	0.6653	0.8895	0.374
Mof_H 	H 	0.5659	0.6415	0.8862	0.411
Mof_C 	C 	0.2159	0.423	0.8688	1.733
Mof_C 	C 	0.2869	0.5874	0.8015	0.365
Mof_H 	H 	0.258	0.5698	0.7912	-0.12
Mof_H 	H 	0.2874	0.6194	0.7863	-0.111
Mof_H 	H 	0.2866	0.5911	0.8367	-0.117
Mof_O 	O 	0.58	0.0467	0.8271	-0.645
Mof_O 	O 	0.4807	0.0579	0.8147	-0.743
Mof_C 	C 	0.6026	0.8906	0.7653	-0.327
Mof_O 	O 	0.6753	0.9362	0.7888	-0.336
Mof_C 	C 	0.6316	0.0514	0.8337	0.402
Mof_C 	C 	0.5577	0.9234	0.8495	0.098
Mof_H 	H 	0.5427	0.9323	0.8812	-0.071
Mof_C 	C 	0.6281	0.9214	0.7992	0.178
Mof_C 	C 	0.655	0.0173	0.8602	-0.437
Mof_C 	C 	0.5539	0.0691	0.8649	-0.022
Mof_H 	H 	0.5662	0.1024	0.8697	0
Mof_H 	H 	0.5591	0.0508	0.8953	-0.005
Mof_C 	C 	0.478	0.8776	0.8313	0.882
Mof_C 	C 	0.7045	0.0265	0.8701	0.423
Mof_H 	H 	0.7224	0.0038	0.8887	-0.185
Mof_C 	C 	0.6534	0.0924	0.8135	-0.453
Mof_C 	C 	0.5302	0.8929	0.8179	-0.546
Mof_C 	C 	0.6032	0.9382	0.8416	-0.33
Mof_C 	C 	0.5528	0.8793	0.7773	0.089
Mof_H 	H 	0.536	0.855	0.7565	-0.065
Mof_O 	O 	0.4737	0.0917	0.891	-0.475
Mof_C 	C 	0.4977	0.0709	0.8531	0.347
Mof_C 	C 	0.7287	0.0704	0.8524	-0.825
Mof_C 	C 	0.7033	0.1002	0.8256	0.575
Mof_H 	H 	0.7187	0.1284	0.8136	-0.227
Mof_C 	C 	0.6317	0.9706	0.8804	0.27
Mof_H 	H 	0.6088	0.9798	0.9064	-0.072
Mof_H 	H 	0.6574	0.9506	0.8952	-0.076
Mof_C 	C 	0.8129	0.0759	0.8156	-1.879
Mof_H 	H 	0.8477	0.0802	0.8209	0.552
Mof_H 	H 	0.8008	0.1021	0.7951	0.567
Mof_H 	H 	0.8071	0.0447	0.7998	0.546
Mof_C 	C 	0.6277	0.127	0.7822	0.283
Mof_H 	H 	0.6512	0.1524	0.773	-0.083
Mof_H 	H 	0.6026	0.1428	0.8022	-0.099
Mof_C 	C 	0.4445	0.9242	0.8193	-1.031
Mof_H 	H 	0.4541	0.9513	0.84	0.255
Mof_H 	H 	0.4105	0.9162	0.8253	0.301
Mof_H 	H 	0.4486	0.9333	0.7853	0.164
Mof_C 	C 	0.4582	0.8339	0.7976	-1.127
Mof_H 	H 	0.4252	0.8255	0.8073	0.31
Mof_H 	H 	0.4792	0.8056	0.8015	0.304
Mof_H 	H 	0.4584	0.8441	0.7637	0.31
Mof_C 	C 	0.8044	0.0442	0.9075	-2.395
Mof_H 	H 	0.8383	0.0525	0.9135	0.701
Mof_H 	H 	0.8022	0.0105	0.8967	0.696
Mof_H 	H 	0.7858	0.0482	0.9374	0.696
Mof_C 	C 	0.7863	0.1266	0.8874	-2.543
Mof_H 	H 	0.8194	0.1337	0.8981	0.77
Mof_H 	H 	0.7641	0.1298	0.9149	0.742
Mof_H 	H 	0.777	0.1492	0.8619	0.772
Mof_C 	C 	0.4688	0.8642	0.8816	-1.474
Mof_H 	H 	0.4793	0.8905	0.903	0.437
Mof_H 	H 	0.4868	0.8347	0.8895	0.403
Mof_H 	H 	0.4341	0.8585	0.8862	0.441
Mof_C 	C 	0.7841	0.077	0.8688	1.729
Mof_C 	C 	0.7131	0.9126	0.8015	0.305
Mof_H 	H 	0.742	0.9302	0.7912	-0.09
Mof_H 	H 	0.7126	0.8806	0.7863	-0.092
Mof_H 	H 	0.7134	0.9089	0.8367	-0.091
Mof_O 	O 	0.08	0.5467	0.3271	-0.627
Mof_O 	O 	0.9807	0.5579	0.3147	-0.74
Mof_C 	C 	0.1026	0.3906	0.2653	-0.379
Mof_O 	O 	0.1753	0.4362	0.2888	-0.374
Mof_C 	C 	0.1316	0.5514	0.3337	0.388
Mof_C 	C 	0.0577	0.4234	0.3495	0.173
Mof_H 	H 	0.0427	0.4323	0.3812	-0.122
Mof_C 	C 	0.1281	0.4214	0.2992	0.211
Mof_C 	C 	0.155	0.5173	0.3602	-0.379
Mof_C 	C 	0.0539	0.5691	0.3649	-0.093
Mof_H 	H 	0.0662	0.6024	0.3697	0.02
Mof_H 	H 	0.0591	0.5508	0.3953	0.015
Mof_C 	C 	0.978	0.3776	0.3313	1.102
Mof_C 	C 	0.2045	0.5265	0.3701	0.401
Mof_H 	H 	0.2224	0.5038	0.3887	-0.166
Mof_C 	C 	0.1534	0.5924	0.3135	-0.447
Mof_C 	C 	0.0302	0.3929	0.3179	-0.705
Mof_C 	C 	0.1032	0.4382	0.3416	-0.378
Mof_C 	C 	0.0528	0.3793	0.2773	0.176
Mof_H 	H 	0.036	0.355	0.2565	-0.11
Mof_O 	O 	0.9737	0.5917	0.391	-0.468
Mof_C 	C 	0.9977	0.5709	0.3531	0.405
Mof_C 	C 	0.2287	0.5704	0.3524	-0.803
Mof_C 	C 	0.2033	0.6002	0.3256	0.567
Mof_H 	H 	0.2187	0.6284	0.3136	-0.222
Mof_C 	C 	0.1317	0.4706	0.3804	0.233
Mof_H 	H 	0.1088	0.4798	0.4064	-0.087
Mof_H 	H 	0.1574	0.4506	0.3952	-0.08
Mof_C 	C 	0.3129	0.5759	0.3156	-1.867
Mof_H 	H 	0.3477	0.5802	0.3209	0.55
Mof_H 	H 	0.3008	0.6021	0.2951	0.565
Mof_H 	H 	0.3071	0.5447	0.2998	0.551
Mof_C 	C 	0.1277	0.627	0.2822	0.31
Mof_H 	H 	0.1512	0.6524	0.273	-0.09
Mof_H 	H 	0.1026	0.6428	0.3022	-0.108
Mof_C 	C 	0.9445	0.4242	0.3193	-1.2
Mof_H 	H 	0.9541	0.4513	0.34	0.299
Mof_H 	H 	0.9105	0.4162	0.3253	0.344
Mof_H 	H 	0.9486	0.4333	0.2853	0.212
Mof_C 	C 	0.9582	0.3339	0.2976	-1.342
Mof_H 	H 	0.9252	0.3255	0.3073	0.374
Mof_H 	H 	0.9792	0.3056	0.3015	0.386
Mof_H 	H 	0.9584	0.3441	0.2637	0.385
Mof_C 	C 	0.3044	0.5442	0.4075	-2.358
Mof_H 	H 	0.3383	0.5525	0.4135	0.684
Mof_H 	H 	0.3022	0.5105	0.3967	0.688
Mof_H 	H 	0.2858	0.5482	0.4374	0.677
Mof_C 	C 	0.2863	0.6266	0.3874	-2.51
Mof_H 	H 	0.3194	0.6337	0.3981	0.757
Mof_H 	H 	0.2641	0.6298	0.4149	0.729
Mof_H 	H 	0.277	0.6492	0.3619	0.763
Mof_C 	C 	0.9688	0.3642	0.3816	-1.754
Mof_H 	H 	0.9793	0.3905	0.403	0.528
Mof_H 	H 	0.9868	0.3347	0.3895	0.501
Mof_H 	H 	0.9341	0.3585	0.3862	0.523
Mof_C 	C 	0.2841	0.577	0.3688	1.706
Mof_C 	C 	0.2131	0.4126	0.3015	0.378
Mof_H 	H 	0.242	0.4302	0.2912	-0.123
Mof_H 	H 	0.2126	0.3806	0.2863	-0.113
Mof_H 	H 	0.2134	0.4089	0.3367	-0.121
Mof_O 	O 	0.42	0.5467	0.6729	-0.652
Mof_O 	O 	0.5193	0.5579	0.6853	-0.76
Mof_C 	C 	0.3974	0.3906	0.7347	-0.331
Mof_O 	O 	0.3247	0.4362	0.7112	-0.366
Mof_C 	C 	0.3684	0.5514	0.6663	0.374
Mof_C 	C 	0.4423	0.4234	0.6505	0.06
Mof_H 	H 	0.4573	0.4323	0.6188	-0.069
Mof_C 	C 	0.3719	0.4214	0.7008	0.166
Mof_C 	C 	0.345	0.5173	0.6398	-0.36
Mof_C 	C 	0.4461	0.5691	0.6351	-0.028
Mof_H 	H 	0.4338	0.6024	0.6303	0.006
Mof_H 	H 	0.4409	0.5508	0.6047	0.004
Mof_C 	C 	0.522	0.3776	0.6687	0.804
Mof_C 	C 	0.2955	0.5265	0.6299	0.381
Mof_H 	H 	0.2776	0.5038	0.6113	-0.159
Mof_C 	C 	0.3466	0.5924	0.6865	-0.424
Mof_C 	C 	0.4698	0.3929	0.6821	-0.518
Mof_C 	C 	0.3968	0.4382	0.6584	-0.322
Mof_C 	C 	0.4472	0.3793	0.7227	0.057
Mof_H 	H 	0.464	0.355	0.7435	-0.057
Mof_O 	O 	0.5263	0.5917	0.609	-0.474
Mof_C 	C 	0.5023	0.5709	0.6469	0.356
Mof_C 	C 	0.2713	0.5704	0.6476	-0.78
Mof_C 	C 	0.2967	0.6002	0.6744	0.542
Mof_H 	H 	0.2813	0.6284	0.6864	-0.213
Mof_C 	C 	0.3683	0.4706	0.6196	0.194
Mof_H 	H 	0.3912	0.4798	0.5936	-0.073
Mof_H 	H 	0.3426	0.4506	0.6048	-0.069
Mof_C 	C 	0.1871	0.5759	0.6844	-1.831
Mof_H 	H 	0.1523	0.5802	0.6791	0.536
Mof_H 	H 	0.1992	0.6021	0.7049	0.553
Mof_H 	H 	0.1929	0.5447	0.7002	0.537
Mof_C 	C 	0.3723	0.627	0.7178	0.266
Mof_H 	H 	0.3488	0.6524	0.727	-0.078
Mof_H 	H 	0.3974	0.6428	0.6978	-0.092
Mof_C 	C 	0.5555	0.4242	0.6807	-0.919
Mof_H 	H 	0.5459	0.4513	0.66	0.201
Mof_H 	H 	0.5895	0.4162	0.6747	0.262
Mof_H 	H 	0.5514	0.4333	0.7147	0.111
Mof_C 	C 	0.5418	0.3339	0.7024	-1.052
Mof_H 	H 	0.5748	0.3255	0.6927	0.288
Mof_H 	H 	0.5208	0.3056	0.6985	0.282
Mof_H 	H 	0.5416	0.3441	0.7363	0.286
Mof_C 	C 	0.1956	0.5442	0.5925	-2.311
Mof_H 	H 	0.1617	0.5525	0.5865	0.668
Mof_H 	H 	0.1978	0.5105	0.6033	0.672
Mof_H 	H 	0.2142	0.5482	0.5626	0.662
Mof_C 	C 	0.2137	0.6266	0.6126	-2.467
Mof_H 	H 	0.1806	0.6337	0.6019	0.743
Mof_H 	H 	0.2359	0.6298	0.5851	0.716
Mof_H 	H 	0.223	0.6492	0.6381	0.75
Mof_C 	C 	0.5312	0.3642	0.6184	-1.366
Mof_H 	H 	0.5207	0.3905	0.597	0.397
Mof_H 	H 	0.5132	0.3347	0.6105	0.37
Mof_H 	H 	0.5659	0.3585	0.6138	0.407
Mof_C 	C 	0.2159	0.577	0.6312	1.67
Mof_C 	C 	0.2869	0.4126	0.6985	0.372
Mof_H 	H 	0.258	0.4302	0.7088	-0.123
Mof_H 	H 	0.2874	0.3806	0.7137	-0.113
Mof_H 	H 	0.2866	0.4089	0.6633	-0.12
Mof_O 	O 	0.92	0.0467	0.1729	-0.666
Mof_O 	O 	0.0193	0.0579	0.1853	-0.763
Mof_C 	C 	0.8974	0.8906	0.2347	-0.269
Mof_O 	O 	0.8247	0.9362	0.2112	-0.328
Mof_C 	C 	0.8684	0.0514	0.1663	0.376
Mof_C 	C 	0.9423	0.9234	0.1505	-0.019
Mof_H 	H 	0.9573	0.9323	0.1188	-0.02
Mof_C 	C 	0.8719	0.9214	0.2008	0.129
Mof_C 	C 	0.845	0.0173	0.1398	-0.402
Mof_C 	C 	0.9461	0.0691	0.1351	0.034
Mof_H 	H 	0.9338	0.1024	0.1303	-0.001
Mof_H 	H 	0.9409	0.0508	0.1047	-0.013
Mof_C 	C 	0.022	0.8776	0.1687	0.572
Mof_C 	C 	0.7955	0.0265	0.1299	0.379
Mof_H 	H 	0.7776	0.0038	0.1113	-0.172
Mof_C 	C 	0.8466	0.0924	0.1865	-0.401
Mof_C 	C 	0.9698	0.8929	0.1821	-0.35
Mof_C 	C 	0.8968	0.9382	0.1584	-0.271
Mof_C 	C 	0.9472	0.8793	0.2227	-0.038
Mof_H 	H 	0.964	0.855	0.2435	-0.007
Mof_O 	O 	0.0263	0.0917	0.109	-0.48
Mof_C 	C 	0.0023	0.0709	0.1469	0.303
Mof_C 	C 	0.7713	0.0704	0.1476	-0.749
Mof_C 	C 	0.7967	0.1002	0.1744	0.513
Mof_H 	H 	0.7813	0.1284	0.1864	-0.2
Mof_C 	C 	0.8683	0.9706	0.1196	0.226
Mof_H 	H 	0.8912	0.9798	0.0936	-0.063
Mof_H 	H 	0.8426	0.9506	0.1048	-0.069
Mof_C 	C 	0.6871	0.0759	0.1844	-1.744
Mof_H 	H 	0.6523	0.0802	0.1791	0.509
Mof_H 	H 	0.6992	0.1021	0.2049	0.526
Mof_H 	H 	0.6929	0.0447	0.2002	0.504
Mof_C 	C 	0.8723	0.127	0.2178	0.217
Mof_H 	H 	0.8488	0.1524	0.227	-0.062
Mof_H 	H 	0.8974	0.1428	0.1978	-0.071
Mof_C 	C 	0.0555	0.9242	0.1807	-0.738
Mof_H 	H 	0.0459	0.9513	0.16	0.152
Mof_H 	H 	0.0895	0.9162	0.1747	0.215
Mof_H 	H 	0.0514	0.9333	0.2147	0.059
Mof_C 	C 	0.0418	0.8339	0.2024	-0.83
Mof_H 	H 	0.0748	0.8255	0.1927	0.224
Mof_H 	H 	0.0208	0.8056	0.1985	0.2
Mof_H 	H 	0.0416	0.8441	0.2363	0.211
Mof_C 	C 	0.6956	0.0442	0.0925	-2.166
Mof_H 	H 	0.6617	0.0525	0.0865	0.614
Mof_H 	H 	0.6978	0.0105	0.1033	0.616
Mof_H 	H 	0.7142	0.0482	0.0626	0.604
Mof_C 	C 	0.7137	0.1266	0.1126	-2.346
Mof_H 	H 	0.6806	0.1337	0.1019	0.703
Mof_H 	H 	0.7359	0.1298	0.0851	0.676
Mof_H 	H 	0.723	0.1492	0.1381	0.714
Mof_C 	C 	0.0312	0.8642	0.1184	-1.061
Mof_H 	H 	0.0207	0.8905	0.097	0.294
Mof_H 	H 	0.0132	0.8347	0.1105	0.264
Mof_H 	H 	0.0659	0.8585	0.1138	0.317
Mof_C 	C 	0.7159	0.077	0.1312	1.578
Mof_C 	C 	0.7869	0.9126	0.1985	0.301
Mof_H 	H 	0.758	0.9302	0.2088	-0.092
Mof_H 	H 	0.7874	0.8806	0.2137	-0.092
Mof_H 	H 	0.7866	0.9089	0.1633	-0.094
Mof_Rb	Rb	0.25	0.03401	0.5	3.836
Mof_Rb	Rb	0.25	0.96599	-0	4.076
Mof_Rb	Rb	0.75	0.53401	-0	3.82
Mof_Rb	Rb	0.75	0.46599	0.5	4.084
Mof_Rb	Rb	0.5	0.25	0.03401	3.836
Mof_Rb	Rb	-6.54412e-33	0.25	0.96599	4.076
Mof_Rb	Rb	-1.83298e-32	0.75	0.53401	3.82
Mof_Rb	Rb	0.5	0.75	0.46599	4.084
Mof_Rb	Rb	0.03401	0.5	0.25	3.836
Mof_Rb	Rb	0.96599	-2.5415e-33	0.25	4.076
Mof_Rb	Rb	0.53401	0	0.75	3.82
Mof_Rb	Rb	0.46599	0.5	0.75	4.084
Mof_Co	Co	0.10067	0.89933	0.39933	1.073
Mof_Co	Co	0.60067	0.39933	0.89933	1.074
Mof_Co	Co	0.39933	0.10067	0.89933	1.073
Mof_Co	Co	0.89933	0.60067	0.39933	1.074
Mof_Co	Co	0.89933	0.39933	0.10067	1.073
Mof_Co	Co	0.39933	0.89933	0.60067	1.074
Mof_Co	Co	0.60067	0.60067	0.60067	1.073
Mof_Co	Co	0.10067	0.10067	0.10067	1.071
_end
