# CIF file generated by openbabel 3.1.0, see https://openbabel.org
data_I
_chemical_name_common 'LAJLEP_charged'
_cell_length_a 26.9152
_cell_length_b 26.9152
_cell_length_c 26.9152
_cell_angle_alpha 109.471
_cell_angle_beta 109.471
_cell_angle_gamma 109.471
_space_group_name_H-M_alt 'P 1'
_space_group_name_Hall 'P 1'
loop_
    _symmetry_equiv_pos_as_xyz
    x,y,z
loop_
    _atom_site_label
    _atom_site_type_symbol
    _atom_site_fract_x
    _atom_site_fract_y
    _atom_site_fract_z
    _atom_site_occupancy
    Rb1      Rb       0.68662    0.00000    0.31338    1.000
    Rb2      Rb       0.68662    0.37324    0.68662    1.000
    Rb3      Rb       0.31338    0.00000    0.68662    1.000
    Rb4      Rb       0.31338    0.62676    0.31338    1.000
    Rb5      Rb       0.68662    0.31338    0.00000    1.000
    Rb6      Rb       0.31338    0.31338    0.62676    1.000
    Rb7      Rb       0.31338    0.68662    0.00000    1.000
    Rb8      Rb       0.68662    0.68662    0.37324    1.000
    Rb9      Rb       0.37324    0.68662    0.68662    1.000
    Rb10     Rb       0.00000    0.31338    0.68662    1.000
    Rb11     Rb       0.62676    0.31338    0.31338    1.000
    Rb12     Rb       0.00000    0.68662    0.31338    1.000
    H1       H        0.46400    0.91010    0.12610    1.000
    H2       H        0.53030    0.91550    0.23200    1.000
    H3       H        0.56080    0.99580    0.19020    1.000
    H4       H        0.62860    0.04780    0.32880    1.000
    H5       H        0.53100    0.01330    0.28430    1.000
    H6       H        0.54920    0.08940    0.22980    1.000
    H7       H        0.43510    0.01220    0.21710    1.000
    H8       H        0.48380    0.13790    0.17050    1.000
    H9       H        0.39120    0.03540    0.14060    1.000
    H10      H        0.43380    0.09520    0.20660    1.000
    H11      H        0.59820    0.17450    0.29690    1.000
    H12      H        0.62800    0.13260    0.36200    1.000
    H13      H        0.64870    0.24660    0.39510    1.000
    H14      H        0.62150    0.27560    0.50910    1.000
    H15      H        0.55930    0.17570    0.41320    1.000
    H16      H        0.58480    0.29110    0.41850    1.000
    H17      H        0.48000    0.17410    0.32750    1.000
    H18      H        0.50050    0.32510    0.32480    1.000
    H19      H        0.45300    0.22220    0.27280    1.000
    H20      H        0.45190    0.24780    0.33530    1.000
    H21      H        0.78400    0.33790    0.87390    1.000
    H22      H        0.68350    0.29830    0.76800    1.000
    H23      H        0.80560    0.37060    0.80980    1.000
    H24      H        0.71900    0.29980    0.67120    1.000
    H25      H        0.72900    0.24670    0.71570    1.000
    H26      H        0.85960    0.31940    0.77020    1.000
    H27      H        0.79510    0.21800    0.78290    1.000
    H28      H        0.96740    0.31330    0.82950    1.000
    H29      H        0.89480    0.25060    0.85940    1.000
    H30      H        0.88860    0.22720    0.79340    1.000
    H31      H        0.87760    0.30130    0.70310    1.000
    H32      H        0.77060    0.26600    0.63800    1.000
    H33      H        0.85150    0.25360    0.60490    1.000
    H34      H        0.76650    0.11240    0.49090    1.000
    H35      H        0.76250    0.14610    0.58680    1.000
    H36      H        0.87260    0.16630    0.58150    1.000
    H37      H        0.84660    0.15250    0.67250    1.000
    H38      H        0.00030    0.17570    0.67520    1.000
    H39      H        0.94940    0.18020    0.72720    1.000
    H40      H        0.91250    0.11660    0.66470    1.000
    H41      H        0.21600    0.08990    0.55390    1.000
    H42      H        0.31650    0.08450    0.61480    1.000
    H43      H        0.19440    0.00420    0.56500    1.000
    H44      H        0.28100    0.95220    0.58080    1.000
    H45      H        0.27100    0.98670    0.51770    1.000
    H46      H        0.14040    0.91060    0.45980    1.000
    H47      H        0.20490    0.98780    0.42290    1.000
    H48      H        0.03260    0.86210    0.34590    1.000
    H49      H        0.10520    0.96460    0.35580    1.000
    H50      H        0.11140    0.90480    0.33860    1.000
    H51      H        0.12240    0.82550    0.42370    1.000
    H52      H        0.22940    0.86740    0.49540    1.000
    H53      H        0.14850    0.75340    0.40210    1.000
    H54      H        0.23350    0.72440    0.34590    1.000
    H55      H        0.23750    0.82430    0.38360    1.000
    H56      H        0.12740    0.70890    0.29370    1.000
    H57      H        0.15340    0.82590    0.30590    1.000
    H58      H        0.99970    0.67490    0.17540    1.000
    H59      H        0.05060    0.77780    0.23080    1.000
    H60      H        0.08750    0.75220    0.20410    1.000
    H61      H        0.53600    0.66210    0.44610    1.000
    H62      H        0.46970    0.70170    0.38520    1.000
    H63      H        0.43920    0.62940    0.43500    1.000
    H64      H        0.37140    0.70020    0.41920    1.000
    H65      H        0.46900    0.75330    0.48230    1.000
    H66      H        0.45080    0.68060    0.54020    1.000
    H67      H        0.56490    0.78200    0.57710    1.000
    H68      H        0.51620    0.68670    0.65410    1.000
    H69      H        0.60880    0.74940    0.64420    1.000
    H70      H        0.56620    0.77280    0.66140    1.000
    H71      H        0.40180    0.69870    0.57630    1.000
    H72      H        0.37200    0.73400    0.50460    1.000
    H73      H        0.35130    0.74640    0.59790    1.000
    H74      H        0.37850    0.88760    0.65410    1.000
    H75      H        0.44070    0.85390    0.61640    1.000
    H76      H        0.41520    0.83370    0.70630    1.000
    H77      H        0.52000    0.84750    0.69410    1.000
    H78      H        0.49950    0.82430    0.82460    1.000
    H79      H        0.54700    0.81980    0.76920    1.000
    H80      H        0.54810    0.88340    0.79590    1.000
    H81      H        0.55390    0.21600    0.08990    1.000
    H82      H        0.61480    0.31650    0.08450    1.000
    H83      H        0.56500    0.19440    0.00420    1.000
    H84      H        0.58080    0.28100    0.95220    1.000
    H85      H        0.51770    0.27100    0.98670    1.000
    H86      H        0.45980    0.14040    0.91060    1.000
    H87      H        0.42290    0.20490    0.98780    1.000
    H88      H        0.34590    0.03260    0.86210    1.000
    H89      H        0.35580    0.10520    0.96460    1.000
    H90      H        0.33860    0.11140    0.90480    1.000
    H91      H        0.42370    0.12240    0.82550    1.000
    H92      H        0.49540    0.22940    0.86740    1.000
    H93      H        0.40210    0.14850    0.75340    1.000
    H94      H        0.34590    0.23350    0.72440    1.000
    H95      H        0.38360    0.23750    0.82430    1.000
    H96      H        0.29370    0.12740    0.70890    1.000
    H97      H        0.30590    0.15340    0.82590    1.000
    H98      H        0.17540    0.99970    0.67490    1.000
    H99      H        0.23080    0.05060    0.77780    1.000
    H100     H        0.20410    0.08750    0.75220    1.000
    H101     H        0.44610    0.53600    0.66210    1.000
    H102     H        0.38520    0.46970    0.70170    1.000
    H103     H        0.43500    0.43920    0.62940    1.000
    H104     H        0.41920    0.37140    0.70020    1.000
    H105     H        0.48230    0.46900    0.75330    1.000
    H106     H        0.54020    0.45080    0.68060    1.000
    H107     H        0.57710    0.56490    0.78200    1.000
    H108     H        0.65410    0.51620    0.68670    1.000
    H109     H        0.64420    0.60880    0.74940    1.000
    H110     H        0.66140    0.56620    0.77280    1.000
    H111     H        0.57630    0.40180    0.69870    1.000
    H112     H        0.50460    0.37200    0.73400    1.000
    H113     H        0.59790    0.35130    0.74640    1.000
    H114     H        0.65410    0.37850    0.88760    1.000
    H115     H        0.61640    0.44070    0.85390    1.000
    H116     H        0.70630    0.41520    0.83370    1.000
    H117     H        0.69410    0.52000    0.84750    1.000
    H118     H        0.82460    0.49950    0.82430    1.000
    H119     H        0.76920    0.54700    0.81980    1.000
    H120     H        0.79590    0.54810    0.88340    1.000
    H121     H        0.12610    0.46400    0.91010    1.000
    H122     H        0.23200    0.53030    0.91550    1.000
    H123     H        0.19020    0.56080    0.99580    1.000
    H124     H        0.32880    0.62860    0.04780    1.000
    H125     H        0.28430    0.53100    0.01330    1.000
    H126     H        0.22980    0.54920    0.08940    1.000
    H127     H        0.21710    0.43510    0.01220    1.000
    H128     H        0.17050    0.48380    0.13790    1.000
    H129     H        0.14060    0.39120    0.03540    1.000
    H130     H        0.20660    0.43380    0.09520    1.000
    H131     H        0.29690    0.59820    0.17450    1.000
    H132     H        0.36200    0.62800    0.13260    1.000
    H133     H        0.39510    0.64870    0.24660    1.000
    H134     H        0.50910    0.62150    0.27560    1.000
    H135     H        0.41320    0.55930    0.17570    1.000
    H136     H        0.41850    0.58480    0.29110    1.000
    H137     H        0.32750    0.48000    0.17410    1.000
    H138     H        0.32480    0.50050    0.32510    1.000
    H139     H        0.27280    0.45300    0.22220    1.000
    H140     H        0.33530    0.45190    0.24780    1.000
    H141     H        0.87390    0.78400    0.33790    1.000
    H142     H        0.76800    0.68350    0.29830    1.000
    H143     H        0.80980    0.80560    0.37060    1.000
    H144     H        0.67120    0.71900    0.29980    1.000
    H145     H        0.71570    0.72900    0.24670    1.000
    H146     H        0.77020    0.85960    0.31940    1.000
    H147     H        0.78290    0.79510    0.21800    1.000
    H148     H        0.82950    0.96740    0.31330    1.000
    H149     H        0.85940    0.89480    0.25060    1.000
    H150     H        0.79340    0.88860    0.22720    1.000
    H151     H        0.70310    0.87760    0.30130    1.000
    H152     H        0.63800    0.77060    0.26600    1.000
    H153     H        0.60490    0.85150    0.25360    1.000
    H154     H        0.49090    0.76650    0.11240    1.000
    H155     H        0.58680    0.76250    0.14610    1.000
    H156     H        0.58150    0.87260    0.16630    1.000
    H157     H        0.67250    0.84660    0.15250    1.000
    H158     H        0.67520    0.00030    0.17570    1.000
    H159     H        0.72720    0.94940    0.18020    1.000
    H160     H        0.66470    0.91250    0.11660    1.000
    H161     H        0.33790    0.87390    0.78400    1.000
    H162     H        0.29830    0.76800    0.68350    1.000
    H163     H        0.37060    0.80980    0.80560    1.000
    H164     H        0.29980    0.67120    0.71900    1.000
    H165     H        0.24670    0.71570    0.72900    1.000
    H166     H        0.31940    0.77020    0.85960    1.000
    H167     H        0.21800    0.78290    0.79510    1.000
    H168     H        0.31330    0.82950    0.96740    1.000
    H169     H        0.25060    0.85940    0.89480    1.000
    H170     H        0.22720    0.79340    0.88860    1.000
    H171     H        0.30130    0.70310    0.87760    1.000
    H172     H        0.26600    0.63800    0.77060    1.000
    H173     H        0.25360    0.60490    0.85150    1.000
    H174     H        0.11240    0.49090    0.76650    1.000
    H175     H        0.14610    0.58680    0.76250    1.000
    H176     H        0.16630    0.58150    0.87260    1.000
    H177     H        0.15250    0.67250    0.84660    1.000
    H178     H        0.17570    0.67520    0.00030    1.000
    H179     H        0.18020    0.72720    0.94940    1.000
    H180     H        0.11660    0.66470    0.91250    1.000
    H181     H        0.91010    0.12610    0.46400    1.000
    H182     H        0.91550    0.23200    0.53030    1.000
    H183     H        0.99580    0.19020    0.56080    1.000
    H184     H        0.04780    0.32880    0.62860    1.000
    H185     H        0.01330    0.28430    0.53100    1.000
    H186     H        0.08940    0.22980    0.54920    1.000
    H187     H        0.01220    0.21710    0.43510    1.000
    H188     H        0.13790    0.17050    0.48380    1.000
    H189     H        0.03540    0.14060    0.39120    1.000
    H190     H        0.09520    0.20660    0.43380    1.000
    H191     H        0.17450    0.29690    0.59820    1.000
    H192     H        0.13260    0.36200    0.62800    1.000
    H193     H        0.24660    0.39510    0.64870    1.000
    H194     H        0.27560    0.50910    0.62150    1.000
    H195     H        0.17570    0.41320    0.55930    1.000
    H196     H        0.29110    0.41850    0.58480    1.000
    H197     H        0.17410    0.32750    0.48000    1.000
    H198     H        0.32510    0.32480    0.50050    1.000
    H199     H        0.22220    0.27280    0.45300    1.000
    H200     H        0.24780    0.33530    0.45190    1.000
    H201     H        0.66210    0.44610    0.53600    1.000
    H202     H        0.70170    0.38520    0.46970    1.000
    H203     H        0.62940    0.43500    0.43920    1.000
    H204     H        0.70020    0.41920    0.37140    1.000
    H205     H        0.75330    0.48230    0.46900    1.000
    H206     H        0.68060    0.54020    0.45080    1.000
    H207     H        0.78200    0.57710    0.56490    1.000
    H208     H        0.68670    0.65410    0.51620    1.000
    H209     H        0.74940    0.64420    0.60880    1.000
    H210     H        0.77280    0.66140    0.56620    1.000
    H211     H        0.69870    0.57630    0.40180    1.000
    H212     H        0.73400    0.50460    0.37200    1.000
    H213     H        0.74640    0.59790    0.35130    1.000
    H214     H        0.88760    0.65410    0.37850    1.000
    H215     H        0.85390    0.61640    0.44070    1.000
    H216     H        0.83370    0.70630    0.41520    1.000
    H217     H        0.84750    0.69410    0.52000    1.000
    H218     H        0.82430    0.82460    0.49950    1.000
    H219     H        0.81980    0.76920    0.54700    1.000
    H220     H        0.88340    0.79590    0.54810    1.000
    H221     H        0.08990    0.55390    0.21600    1.000
    H222     H        0.08450    0.61480    0.31650    1.000
    H223     H        0.00420    0.56500    0.19440    1.000
    H224     H        0.95220    0.58080    0.28100    1.000
    H225     H        0.98670    0.51770    0.27100    1.000
    H226     H        0.91060    0.45980    0.14040    1.000
    H227     H        0.98780    0.42290    0.20490    1.000
    H228     H        0.86210    0.34590    0.03260    1.000
    H229     H        0.96460    0.35580    0.10520    1.000
    H230     H        0.90480    0.33860    0.11140    1.000
    H231     H        0.82550    0.42370    0.12240    1.000
    H232     H        0.86740    0.49540    0.22940    1.000
    H233     H        0.75340    0.40210    0.14850    1.000
    H234     H        0.72440    0.34590    0.23350    1.000
    H235     H        0.82430    0.38360    0.23750    1.000
    H236     H        0.70890    0.29370    0.12740    1.000
    H237     H        0.82590    0.30590    0.15340    1.000
    H238     H        0.67490    0.17540    0.99970    1.000
    H239     H        0.77780    0.23080    0.05060    1.000
    H240     H        0.75220    0.20410    0.08750    1.000
    H241     H        0.08990    0.53600    0.87390    1.000
    H242     H        0.08450    0.46970    0.76800    1.000
    H243     H        0.00420    0.43920    0.80980    1.000
    H244     H        0.95220    0.37140    0.67120    1.000
    H245     H        0.98670    0.46900    0.71570    1.000
    H246     H        0.91060    0.45080    0.77020    1.000
    H247     H        0.98780    0.56490    0.78290    1.000
    H248     H        0.86210    0.51620    0.82950    1.000
    H249     H        0.96460    0.60880    0.85940    1.000
    H250     H        0.90480    0.56620    0.79340    1.000
    H251     H        0.82550    0.40180    0.70310    1.000
    H252     H        0.86740    0.37200    0.63800    1.000
    H253     H        0.75340    0.35130    0.60490    1.000
    H254     H        0.72440    0.37850    0.49090    1.000
    H255     H        0.82430    0.44070    0.58680    1.000
    H256     H        0.70890    0.41520    0.58150    1.000
    H257     H        0.82590    0.52000    0.67250    1.000
    H258     H        0.67490    0.49950    0.67520    1.000
    H259     H        0.77780    0.54700    0.72720    1.000
    H260     H        0.75220    0.54810    0.66470    1.000
    H261     H        0.66210    0.21600    0.12610    1.000
    H262     H        0.70170    0.31650    0.23200    1.000
    H263     H        0.62940    0.19440    0.19020    1.000
    H264     H        0.70020    0.28100    0.32880    1.000
    H265     H        0.75330    0.27100    0.28430    1.000
    H266     H        0.68060    0.14040    0.22980    1.000
    H267     H        0.78200    0.20490    0.21710    1.000
    H268     H        0.68670    0.03260    0.17050    1.000
    H269     H        0.74940    0.10520    0.14060    1.000
    H270     H        0.77280    0.11140    0.20660    1.000
    H271     H        0.69870    0.12240    0.29690    1.000
    H272     H        0.73400    0.22940    0.36200    1.000
    H273     H        0.74640    0.14850    0.39510    1.000
    H274     H        0.88760    0.23350    0.50910    1.000
    H275     H        0.85390    0.23750    0.41320    1.000
    H276     H        0.83370    0.12740    0.41850    1.000
    H277     H        0.84750    0.15340    0.32750    1.000
    H278     H        0.82430    0.99970    0.32480    1.000
    H279     H        0.81980    0.05060    0.27280    1.000
    H280     H        0.88340    0.08750    0.33530    1.000
    H281     H        0.91010    0.78400    0.44610    1.000
    H282     H        0.91550    0.68350    0.38520    1.000
    H283     H        0.99580    0.80560    0.43500    1.000
    H284     H        0.04780    0.71900    0.41920    1.000
    H285     H        0.01330    0.72900    0.48230    1.000
    H286     H        0.08940    0.85960    0.54020    1.000
    H287     H        0.01220    0.79510    0.57710    1.000
    H288     H        0.13790    0.96740    0.65410    1.000
    H289     H        0.03540    0.89480    0.64420    1.000
    H290     H        0.09520    0.88860    0.66140    1.000
    H291     H        0.17450    0.87760    0.57630    1.000
    H292     H        0.13260    0.77060    0.50460    1.000
    H293     H        0.24660    0.85150    0.59790    1.000
    H294     H        0.27560    0.76650    0.65410    1.000
    H295     H        0.17570    0.76250    0.61640    1.000
    H296     H        0.29110    0.87260    0.70630    1.000
    H297     H        0.17410    0.84660    0.69410    1.000
    H298     H        0.32510    0.00030    0.82460    1.000
    H299     H        0.22220    0.94940    0.76920    1.000
    H300     H        0.24780    0.91250    0.79590    1.000
    H301     H        0.33790    0.46400    0.55390    1.000
    H302     H        0.29830    0.53030    0.61480    1.000
    H303     H        0.37060    0.56080    0.56500    1.000
    H304     H        0.29980    0.62860    0.58080    1.000
    H305     H        0.24670    0.53100    0.51770    1.000
    H306     H        0.31940    0.54920    0.45980    1.000
    H307     H        0.21800    0.43510    0.42290    1.000
    H308     H        0.31330    0.48380    0.34590    1.000
    H309     H        0.25060    0.39120    0.35580    1.000
    H310     H        0.22720    0.43380    0.33860    1.000
    H311     H        0.30130    0.59820    0.42370    1.000
    H312     H        0.26600    0.62800    0.49540    1.000
    H313     H        0.25360    0.64870    0.40210    1.000
    H314     H        0.11240    0.62150    0.34590    1.000
    H315     H        0.14610    0.55930    0.38360    1.000
    H316     H        0.16630    0.58480    0.29370    1.000
    H317     H        0.15250    0.48000    0.30590    1.000
    H318     H        0.17570    0.50050    0.17540    1.000
    H319     H        0.18020    0.45300    0.23080    1.000
    H320     H        0.11660    0.45190    0.20410    1.000
    H321     H        0.78400    0.44610    0.91010    1.000
    H322     H        0.68350    0.38520    0.91550    1.000
    H323     H        0.80560    0.43500    0.99580    1.000
    H324     H        0.71900    0.41920    0.04780    1.000
    H325     H        0.72900    0.48230    0.01330    1.000
    H326     H        0.85960    0.54020    0.08940    1.000
    H327     H        0.79510    0.57710    0.01220    1.000
    H328     H        0.96740    0.65410    0.13790    1.000
    H329     H        0.89480    0.64420    0.03540    1.000
    H330     H        0.88860    0.66140    0.09520    1.000
    H331     H        0.87760    0.57630    0.17450    1.000
    H332     H        0.77060    0.50460    0.13260    1.000
    H333     H        0.85150    0.59790    0.24660    1.000
    H334     H        0.76650    0.65410    0.27560    1.000
    H335     H        0.76250    0.61640    0.17570    1.000
    H336     H        0.87260    0.70630    0.29110    1.000
    H337     H        0.84660    0.69410    0.17410    1.000
    H338     H        0.00030    0.82460    0.32510    1.000
    H339     H        0.94940    0.76920    0.22220    1.000
    H340     H        0.91250    0.79590    0.24780    1.000
    H341     H        0.46400    0.55390    0.33790    1.000
    H342     H        0.53030    0.61480    0.29830    1.000
    H343     H        0.56080    0.56500    0.37060    1.000
    H344     H        0.62860    0.58080    0.29980    1.000
    H345     H        0.53100    0.51770    0.24670    1.000
    H346     H        0.54920    0.45980    0.31940    1.000
    H347     H        0.43510    0.42290    0.21800    1.000
    H348     H        0.48380    0.34590    0.31330    1.000
    H349     H        0.39120    0.35580    0.25060    1.000
    H350     H        0.43380    0.33860    0.22720    1.000
    H351     H        0.59820    0.42370    0.30130    1.000
    H352     H        0.62800    0.49540    0.26600    1.000
    H353     H        0.64870    0.40210    0.25360    1.000
    H354     H        0.62150    0.34590    0.11240    1.000
    H355     H        0.55930    0.38360    0.14610    1.000
    H356     H        0.58480    0.29370    0.16630    1.000
    H357     H        0.48000    0.30590    0.15250    1.000
    H358     H        0.50050    0.17540    0.17570    1.000
    H359     H        0.45300    0.23080    0.18020    1.000
    H360     H        0.45190    0.20410    0.11660    1.000
    H361     H        0.53600    0.87390    0.08990    1.000
    H362     H        0.46970    0.76800    0.08450    1.000
    H363     H        0.43920    0.80980    0.00420    1.000
    H364     H        0.37140    0.67120    0.95220    1.000
    H365     H        0.46900    0.71570    0.98670    1.000
    H366     H        0.45080    0.77020    0.91060    1.000
    H367     H        0.56490    0.78290    0.98780    1.000
    H368     H        0.51620    0.82950    0.86210    1.000
    H369     H        0.60880    0.85940    0.96460    1.000
    H370     H        0.56620    0.79340    0.90480    1.000
    H371     H        0.40180    0.70310    0.82550    1.000
    H372     H        0.37200    0.63800    0.86740    1.000
    H373     H        0.35130    0.60490    0.75340    1.000
    H374     H        0.37850    0.49090    0.72440    1.000
    H375     H        0.44070    0.58680    0.82430    1.000
    H376     H        0.41520    0.58150    0.70890    1.000
    H377     H        0.52000    0.67250    0.82590    1.000
    H378     H        0.49950    0.67520    0.67490    1.000
    H379     H        0.54700    0.72720    0.77780    1.000
    H380     H        0.54810    0.66470    0.75220    1.000
    H381     H        0.21600    0.12610    0.66210    1.000
    H382     H        0.31650    0.23200    0.70170    1.000
    H383     H        0.19440    0.19020    0.62940    1.000
    H384     H        0.28100    0.32880    0.70020    1.000
    H385     H        0.27100    0.28430    0.75330    1.000
    H386     H        0.14040    0.22980    0.68060    1.000
    H387     H        0.20490    0.21710    0.78200    1.000
    H388     H        0.03260    0.17050    0.68670    1.000
    H389     H        0.10520    0.14060    0.74940    1.000
    H390     H        0.11140    0.20660    0.77280    1.000
    H391     H        0.12240    0.29690    0.69870    1.000
    H392     H        0.22940    0.36200    0.73400    1.000
    H393     H        0.14850    0.39510    0.74640    1.000
    H394     H        0.23350    0.50910    0.88760    1.000
    H395     H        0.23750    0.41320    0.85390    1.000
    H396     H        0.12740    0.41850    0.83370    1.000
    H397     H        0.15340    0.32750    0.84750    1.000
    H398     H        0.99970    0.32480    0.82430    1.000
    H399     H        0.05060    0.27280    0.81980    1.000
    H400     H        0.08750    0.33530    0.88340    1.000
    H401     H        0.12610    0.66210    0.21600    1.000
    H402     H        0.23200    0.70170    0.31650    1.000
    H403     H        0.19020    0.62940    0.19440    1.000
    H404     H        0.32880    0.70020    0.28100    1.000
    H405     H        0.28430    0.75330    0.27100    1.000
    H406     H        0.22980    0.68060    0.14040    1.000
    H407     H        0.21710    0.78200    0.20490    1.000
    H408     H        0.17050    0.68670    0.03260    1.000
    H409     H        0.14060    0.74940    0.10520    1.000
    H410     H        0.20660    0.77280    0.11140    1.000
    H411     H        0.29690    0.69870    0.12240    1.000
    H412     H        0.36200    0.73400    0.22940    1.000
    H413     H        0.39510    0.74640    0.14850    1.000
    H414     H        0.50910    0.88760    0.23350    1.000
    H415     H        0.41320    0.85390    0.23750    1.000
    H416     H        0.41850    0.83370    0.12740    1.000
    H417     H        0.32750    0.84750    0.15340    1.000
    H418     H        0.32480    0.82430    0.99970    1.000
    H419     H        0.27280    0.81980    0.05060    1.000
    H420     H        0.33530    0.88340    0.08750    1.000
    H421     H        0.87390    0.08990    0.53600    1.000
    H422     H        0.76800    0.08450    0.46970    1.000
    H423     H        0.80980    0.00420    0.43920    1.000
    H424     H        0.67120    0.95220    0.37140    1.000
    H425     H        0.71570    0.98670    0.46900    1.000
    H426     H        0.77020    0.91060    0.45080    1.000
    H427     H        0.78290    0.98780    0.56490    1.000
    H428     H        0.82950    0.86210    0.51620    1.000
    H429     H        0.85940    0.96460    0.60880    1.000
    H430     H        0.79340    0.90480    0.56620    1.000
    H431     H        0.70310    0.82550    0.40180    1.000
    H432     H        0.63800    0.86740    0.37200    1.000
    H433     H        0.60490    0.75340    0.35130    1.000
    H434     H        0.49090    0.72440    0.37850    1.000
    H435     H        0.58680    0.82430    0.44070    1.000
    H436     H        0.58150    0.70890    0.41520    1.000
    H437     H        0.67250    0.82590    0.52000    1.000
    H438     H        0.67520    0.67490    0.49950    1.000
    H439     H        0.72720    0.77780    0.54700    1.000
    H440     H        0.66470    0.75220    0.54810    1.000
    H441     H        0.55390    0.33790    0.46400    1.000
    H442     H        0.61480    0.29830    0.53030    1.000
    H443     H        0.56500    0.37060    0.56080    1.000
    H444     H        0.58080    0.29980    0.62860    1.000
    H445     H        0.51770    0.24670    0.53100    1.000
    H446     H        0.45980    0.31940    0.54920    1.000
    H447     H        0.42290    0.21800    0.43510    1.000
    H448     H        0.34590    0.31330    0.48380    1.000
    H449     H        0.35580    0.25060    0.39120    1.000
    H450     H        0.33860    0.22720    0.43380    1.000
    H451     H        0.42370    0.30130    0.59820    1.000
    H452     H        0.49540    0.26600    0.62800    1.000
    H453     H        0.40210    0.25360    0.64870    1.000
    H454     H        0.34590    0.11240    0.62150    1.000
    H455     H        0.38360    0.14610    0.55930    1.000
    H456     H        0.29370    0.16630    0.58480    1.000
    H457     H        0.30590    0.15250    0.48000    1.000
    H458     H        0.17540    0.17570    0.50050    1.000
    H459     H        0.23080    0.18020    0.45300    1.000
    H460     H        0.20410    0.11660    0.45190    1.000
    H461     H        0.44610    0.91010    0.78400    1.000
    H462     H        0.38520    0.91550    0.68350    1.000
    H463     H        0.43500    0.99580    0.80560    1.000
    H464     H        0.41920    0.04780    0.71900    1.000
    H465     H        0.48230    0.01330    0.72900    1.000
    H466     H        0.54020    0.08940    0.85960    1.000
    H467     H        0.57710    0.01220    0.79510    1.000
    H468     H        0.65410    0.13790    0.96740    1.000
    H469     H        0.64420    0.03540    0.89480    1.000
    H470     H        0.66140    0.09520    0.88860    1.000
    H471     H        0.57630    0.17450    0.87760    1.000
    H472     H        0.50460    0.13260    0.77060    1.000
    H473     H        0.59790    0.24660    0.85150    1.000
    H474     H        0.65410    0.27560    0.76650    1.000
    H475     H        0.61640    0.17570    0.76250    1.000
    H476     H        0.70630    0.29110    0.87260    1.000
    H477     H        0.69410    0.17410    0.84660    1.000
    H478     H        0.82460    0.32510    0.00030    1.000
    H479     H        0.76920    0.22220    0.94940    1.000
    H480     H        0.79590    0.24780    0.91250    1.000
    C1       C        0.47140    0.94320    0.16360    1.000
    C2       C        0.53840    0.97870    0.20890    1.000
    C3       C        0.55150    0.03010    0.26420    1.000
    C4       C        0.52670    0.06970    0.24700    1.000
    C5       C        0.45870    0.02930    0.19920    1.000
    C6       C        0.43380    0.06390    0.17410    1.000
    C7       C        0.57490    0.17510    0.31920    1.000
    C8       C        0.61760    0.20550    0.38370    1.000
    C9       C        0.58890    0.21580    0.42150    1.000
    C10      C        0.55490    0.24890    0.40580    1.000
    C11      C        0.51100    0.21500    0.33880    1.000
    C12      C        0.47870    0.24570    0.31780    1.000
    C13      C        0.77960    0.30780    0.83640    1.000
    C14      C        0.76980    0.32950    0.79110    1.000
    C15      C        0.76590    0.28730    0.73580    1.000
    C16      C        0.82270    0.27970    0.75300    1.000
    C17      C        0.83010    0.25950    0.80080    1.000
    C18      C        0.88980    0.25970    0.82590    1.000
    C19      C        0.85590    0.25570    0.68080    1.000
    C20      C        0.82180    0.23390    0.61630    1.000
    C21      C        0.79430    0.16740    0.57850    1.000
    C22      C        0.84310    0.14910    0.59420    1.000
    C23      C        0.87620    0.17220    0.66120    1.000
    C24      C        0.92790    0.16090    0.68220    1.000
    C25      C        0.22040    0.05680    0.52820    1.000
    C26      C        0.23020    0.02130    0.55970    1.000
    C27      C        0.23410    0.96990    0.52140    1.000
    C28      C        0.17730    0.93030    0.45700    1.000
    C29      C        0.16990    0.97070    0.42940    1.000
    C30      C        0.11020    0.93610    0.36990    1.000
    C31      C        0.14410    0.82490    0.39980    1.000
    C32      C        0.17820    0.79450    0.41210    1.000
    C33      C        0.20570    0.78420    0.37310    1.000
    C34      C        0.15690    0.75110    0.30600    1.000
    C35      C        0.12380    0.78500    0.29600    1.000
    C36      C        0.07210    0.75430    0.23300    1.000
    C37      C        0.52860    0.69220    0.47180    1.000
    C38      C        0.46160    0.67050    0.44030    1.000
    C39      C        0.44850    0.71270    0.47860    1.000
    C40      C        0.47330    0.72030    0.54300    1.000
    C41      C        0.54130    0.74050    0.57060    1.000
    C42      C        0.56620    0.74030    0.63010    1.000
    C43      C        0.42510    0.74430    0.60020    1.000
    C44      C        0.38240    0.76610    0.58790    1.000
    C45      C        0.41110    0.83260    0.62690    1.000
    C46      C        0.44510    0.85090    0.69400    1.000
    C47      C        0.48900    0.82780    0.70400    1.000
    C48      C        0.52130    0.83910    0.76700    1.000
    C49      C        0.52820    0.22040    0.05680    1.000
    C50      C        0.55970    0.23020    0.02130    1.000
    C51      C        0.52140    0.23410    0.96990    1.000
    C52      C        0.45700    0.17730    0.93030    1.000
    C53      C        0.42940    0.16990    0.97070    1.000
    C54      C        0.36990    0.11020    0.93610    1.000
    C55      C        0.39980    0.14410    0.82490    1.000
    C56      C        0.41210    0.17820    0.79450    1.000
    C57      C        0.37310    0.20570    0.78420    1.000
    C58      C        0.30600    0.15690    0.75110    1.000
    C59      C        0.29600    0.12380    0.78500    1.000
    C60      C        0.23300    0.07210    0.75430    1.000
    C61      C        0.47180    0.52860    0.69220    1.000
    C62      C        0.44030    0.46160    0.67050    1.000
    C63      C        0.47860    0.44850    0.71270    1.000
    C64      C        0.54300    0.47330    0.72030    1.000
    C65      C        0.57060    0.54130    0.74050    1.000
    C66      C        0.63010    0.56620    0.74030    1.000
    C67      C        0.60020    0.42510    0.74430    1.000
    C68      C        0.58790    0.38240    0.76610    1.000
    C69      C        0.62690    0.41110    0.83260    1.000
    C70      C        0.69400    0.44510    0.85090    1.000
    C71      C        0.70400    0.48900    0.82780    1.000
    C72      C        0.76700    0.52130    0.83910    1.000
    C73      C        0.16360    0.47140    0.94320    1.000
    C74      C        0.20890    0.53840    0.97870    1.000
    C75      C        0.26420    0.55150    0.03010    1.000
    C76      C        0.24700    0.52670    0.06970    1.000
    C77      C        0.19920    0.45870    0.02930    1.000
    C78      C        0.17410    0.43380    0.06390    1.000
    C79      C        0.31920    0.57490    0.17510    1.000
    C80      C        0.38370    0.61760    0.20550    1.000
    C81      C        0.42150    0.58890    0.21580    1.000
    C82      C        0.40580    0.55490    0.24890    1.000
    C83      C        0.33880    0.51100    0.21500    1.000
    C84      C        0.31780    0.47870    0.24570    1.000
    C85      C        0.83640    0.77960    0.30780    1.000
    C86      C        0.79110    0.76980    0.32950    1.000
    C87      C        0.73580    0.76590    0.28730    1.000
    C88      C        0.75300    0.82270    0.27970    1.000
    C89      C        0.80080    0.83010    0.25950    1.000
    C90      C        0.82590    0.88980    0.25970    1.000
    C91      C        0.68080    0.85590    0.25570    1.000
    C92      C        0.61630    0.82180    0.23390    1.000
    C93      C        0.57850    0.79430    0.16740    1.000
    C94      C        0.59420    0.84310    0.14910    1.000
    C95      C        0.66120    0.87620    0.17220    1.000
    C96      C        0.68220    0.92790    0.16090    1.000
    C97      C        0.30780    0.83640    0.77960    1.000
    C98      C        0.32950    0.79110    0.76980    1.000
    C99      C        0.28730    0.73580    0.76590    1.000
    C100     C        0.27970    0.75300    0.82270    1.000
    C101     C        0.25950    0.80080    0.83010    1.000
    C102     C        0.25970    0.82590    0.88980    1.000
    C103     C        0.25570    0.68080    0.85590    1.000
    C104     C        0.23390    0.61630    0.82180    1.000
    C105     C        0.16740    0.57850    0.79430    1.000
    C106     C        0.14910    0.59420    0.84310    1.000
    C107     C        0.17220    0.66120    0.87620    1.000
    C108     C        0.16090    0.68220    0.92790    1.000
    C109     C        0.94320    0.16360    0.47140    1.000
    C110     C        0.97870    0.20890    0.53840    1.000
    C111     C        0.03010    0.26420    0.55150    1.000
    C112     C        0.06970    0.24700    0.52670    1.000
    C113     C        0.02930    0.19920    0.45870    1.000
    C114     C        0.06390    0.17410    0.43380    1.000
    C115     C        0.17510    0.31920    0.57490    1.000
    C116     C        0.20550    0.38370    0.61760    1.000
    C117     C        0.21580    0.42150    0.58890    1.000
    C118     C        0.24890    0.40580    0.55490    1.000
    C119     C        0.21500    0.33880    0.51100    1.000
    C120     C        0.24570    0.31780    0.47870    1.000
    C121     C        0.69220    0.47180    0.52860    1.000
    C122     C        0.67050    0.44030    0.46160    1.000
    C123     C        0.71270    0.47860    0.44850    1.000
    C124     C        0.72030    0.54300    0.47330    1.000
    C125     C        0.74050    0.57060    0.54130    1.000
    C126     C        0.74030    0.63010    0.56620    1.000
    C127     C        0.74430    0.60020    0.42510    1.000
    C128     C        0.76610    0.58790    0.38240    1.000
    C129     C        0.83260    0.62690    0.41110    1.000
    C130     C        0.85090    0.69400    0.44510    1.000
    C131     C        0.82780    0.70400    0.48900    1.000
    C132     C        0.83910    0.76700    0.52130    1.000
    C133     C        0.05680    0.52820    0.22040    1.000
    C134     C        0.02130    0.55970    0.23020    1.000
    C135     C        0.96990    0.52140    0.23410    1.000
    C136     C        0.93030    0.45700    0.17730    1.000
    C137     C        0.97070    0.42940    0.16990    1.000
    C138     C        0.93610    0.36990    0.11020    1.000
    C139     C        0.82490    0.39980    0.14410    1.000
    C140     C        0.79450    0.41210    0.17820    1.000
    C141     C        0.78420    0.37310    0.20570    1.000
    C142     C        0.75110    0.30600    0.15690    1.000
    C143     C        0.78500    0.29600    0.12380    1.000
    C144     C        0.75430    0.23300    0.07210    1.000
    C145     C        0.05680    0.52860    0.83640    1.000
    C146     C        0.02130    0.46160    0.79110    1.000
    C147     C        0.96990    0.44850    0.73580    1.000
    C148     C        0.93030    0.47330    0.75300    1.000
    C149     C        0.97070    0.54130    0.80080    1.000
    C150     C        0.93610    0.56620    0.82590    1.000
    C151     C        0.82490    0.42510    0.68080    1.000
    C152     C        0.79450    0.38240    0.61630    1.000
    C153     C        0.78420    0.41110    0.57850    1.000
    C154     C        0.75110    0.44510    0.59420    1.000
    C155     C        0.78500    0.48900    0.66120    1.000
    C156     C        0.75430    0.52130    0.68220    1.000
    C157     C        0.69220    0.22040    0.16360    1.000
    C158     C        0.67050    0.23020    0.20890    1.000
    C159     C        0.71270    0.23410    0.26420    1.000
    C160     C        0.72030    0.17730    0.24700    1.000
    C161     C        0.74050    0.16990    0.19920    1.000
    C162     C        0.74030    0.11020    0.17410    1.000
    C163     C        0.74430    0.14410    0.31920    1.000
    C164     C        0.76610    0.17820    0.38370    1.000
    C165     C        0.83260    0.20570    0.42150    1.000
    C166     C        0.85090    0.15690    0.40580    1.000
    C167     C        0.82780    0.12380    0.33880    1.000
    C168     C        0.83910    0.07210    0.31780    1.000
    C169     C        0.94320    0.77960    0.47180    1.000
    C170     C        0.97870    0.76980    0.44030    1.000
    C171     C        0.03010    0.76590    0.47860    1.000
    C172     C        0.06970    0.82270    0.54300    1.000
    C173     C        0.02930    0.83010    0.57060    1.000
    C174     C        0.06390    0.88980    0.63010    1.000
    C175     C        0.17510    0.85590    0.60020    1.000
    C176     C        0.20550    0.82180    0.58790    1.000
    C177     C        0.21580    0.79430    0.62690    1.000
    C178     C        0.24890    0.84310    0.69400    1.000
    C179     C        0.21500    0.87620    0.70400    1.000
    C180     C        0.24570    0.92790    0.76700    1.000
    C181     C        0.30780    0.47140    0.52820    1.000
    C182     C        0.32950    0.53840    0.55970    1.000
    C183     C        0.28730    0.55150    0.52140    1.000
    C184     C        0.27970    0.52670    0.45700    1.000
    C185     C        0.25950    0.45870    0.42940    1.000
    C186     C        0.25970    0.43380    0.36990    1.000
    C187     C        0.25570    0.57490    0.39980    1.000
    C188     C        0.23390    0.61760    0.41210    1.000
    C189     C        0.16740    0.58890    0.37310    1.000
    C190     C        0.14910    0.55490    0.30600    1.000
    C191     C        0.17220    0.51100    0.29600    1.000
    C192     C        0.16090    0.47870    0.23300    1.000
    C193     C        0.77960    0.47180    0.94320    1.000
    C194     C        0.76980    0.44030    0.97870    1.000
    C195     C        0.76590    0.47860    0.03010    1.000
    C196     C        0.82270    0.54300    0.06970    1.000
    C197     C        0.83010    0.57060    0.02930    1.000
    C198     C        0.88980    0.63010    0.06390    1.000
    C199     C        0.85590    0.60020    0.17510    1.000
    C200     C        0.82180    0.58790    0.20550    1.000
    C201     C        0.79430    0.62690    0.21580    1.000
    C202     C        0.84310    0.69400    0.24890    1.000
    C203     C        0.87620    0.70400    0.21500    1.000
    C204     C        0.92790    0.76700    0.24570    1.000
    C205     C        0.47140    0.52820    0.30780    1.000
    C206     C        0.53840    0.55970    0.32950    1.000
    C207     C        0.55150    0.52140    0.28730    1.000
    C208     C        0.52670    0.45700    0.27970    1.000
    C209     C        0.45870    0.42940    0.25950    1.000
    C210     C        0.43380    0.36990    0.25970    1.000
    C211     C        0.57490    0.39980    0.25570    1.000
    C212     C        0.61760    0.41210    0.23390    1.000
    C213     C        0.58890    0.37310    0.16740    1.000
    C214     C        0.55490    0.30600    0.14910    1.000
    C215     C        0.51100    0.29600    0.17220    1.000
    C216     C        0.47870    0.23300    0.16090    1.000
    C217     C        0.52860    0.83640    0.05680    1.000
    C218     C        0.46160    0.79110    0.02130    1.000
    C219     C        0.44850    0.73580    0.96990    1.000
    C220     C        0.47330    0.75300    0.93030    1.000
    C221     C        0.54130    0.80080    0.97070    1.000
    C222     C        0.56620    0.82590    0.93610    1.000
    C223     C        0.42510    0.68080    0.82490    1.000
    C224     C        0.38240    0.61630    0.79450    1.000
    C225     C        0.41110    0.57850    0.78420    1.000
    C226     C        0.44510    0.59420    0.75110    1.000
    C227     C        0.48900    0.66120    0.78500    1.000
    C228     C        0.52130    0.68220    0.75430    1.000
    C229     C        0.22040    0.16360    0.69220    1.000
    C230     C        0.23020    0.20890    0.67050    1.000
    C231     C        0.23410    0.26420    0.71270    1.000
    C232     C        0.17730    0.24700    0.72030    1.000
    C233     C        0.16990    0.19920    0.74050    1.000
    C234     C        0.11020    0.17410    0.74030    1.000
    C235     C        0.14410    0.31920    0.74430    1.000
    C236     C        0.17820    0.38370    0.76610    1.000
    C237     C        0.20570    0.42150    0.83260    1.000
    C238     C        0.15690    0.40580    0.85090    1.000
    C239     C        0.12380    0.33880    0.82780    1.000
    C240     C        0.07210    0.31780    0.83910    1.000
    C241     C        0.16360    0.69220    0.22040    1.000
    C242     C        0.20890    0.67050    0.23020    1.000
    C243     C        0.26420    0.71270    0.23410    1.000
    C244     C        0.24700    0.72030    0.17730    1.000
    C245     C        0.19920    0.74050    0.16990    1.000
    C246     C        0.17410    0.74030    0.11020    1.000
    C247     C        0.31920    0.74430    0.14410    1.000
    C248     C        0.38370    0.76610    0.17820    1.000
    C249     C        0.42150    0.83260    0.20570    1.000
    C250     C        0.40580    0.85090    0.15690    1.000
    C251     C        0.33880    0.82780    0.12380    1.000
    C252     C        0.31780    0.83910    0.07210    1.000
    C253     C        0.83640    0.05680    0.52860    1.000
    C254     C        0.79110    0.02130    0.46160    1.000
    C255     C        0.73580    0.96990    0.44850    1.000
    C256     C        0.75300    0.93030    0.47330    1.000
    C257     C        0.80080    0.97070    0.54130    1.000
    C258     C        0.82590    0.93610    0.56620    1.000
    C259     C        0.68080    0.82490    0.42510    1.000
    C260     C        0.61630    0.79450    0.38240    1.000
    C261     C        0.57850    0.78420    0.41110    1.000
    C262     C        0.59420    0.75110    0.44510    1.000
    C263     C        0.66120    0.78500    0.48900    1.000
    C264     C        0.68220    0.75430    0.52130    1.000
    C265     C        0.52820    0.30780    0.47140    1.000
    C266     C        0.55970    0.32950    0.53840    1.000
    C267     C        0.52140    0.28730    0.55150    1.000
    C268     C        0.45700    0.27970    0.52670    1.000
    C269     C        0.42940    0.25950    0.45870    1.000
    C270     C        0.36990    0.25970    0.43380    1.000
    C271     C        0.39980    0.25570    0.57490    1.000
    C272     C        0.41210    0.23390    0.61760    1.000
    C273     C        0.37310    0.16740    0.58890    1.000
    C274     C        0.30600    0.14910    0.55490    1.000
    C275     C        0.29600    0.17220    0.51100    1.000
    C276     C        0.23300    0.16090    0.47870    1.000
    C277     C        0.47180    0.94320    0.77960    1.000
    C278     C        0.44030    0.97870    0.76980    1.000
    C279     C        0.47860    0.03010    0.76590    1.000
    C280     C        0.54300    0.06970    0.82270    1.000
    C281     C        0.57060    0.02930    0.83010    1.000
    C282     C        0.63010    0.06390    0.88980    1.000
    C283     C        0.60020    0.17510    0.85590    1.000
    C284     C        0.58790    0.20550    0.82180    1.000
    C285     C        0.62690    0.21580    0.79430    1.000
    C286     C        0.69400    0.24890    0.84310    1.000
    C287     C        0.70400    0.21500    0.87620    1.000
    C288     C        0.76700    0.24570    0.92790    1.000
    O1       O        0.45020    0.98010    0.14710    1.000
    O2       O        0.55860    0.94080    0.22380    1.000
    O3       O        0.61550    0.06730    0.30620    1.000
    O4       O        0.53339    0.11509    0.29850    1.000
    O5       O        0.47070    0.09440    0.15090    1.000
    O6       O        0.54274    0.20698    0.30604    1.000
    O7       O        0.64980    0.17400    0.39660    1.000
    O8       O        0.63540    0.25240    0.48620    1.000
    O9       O        0.43934    0.91634    0.18760    1.000
    O10      O        0.52130    0.30370    0.33620    1.000
    O11      O        0.83300    0.30310    0.85290    1.000
    O12      O        0.71700    0.33480    0.77620    1.000
    O13      O        0.76110    0.30930    0.69380    1.000
    O14      O        0.81659    0.23489    0.70150    1.000
    O15      O        0.94350    0.31980    0.84910    1.000
    O16      O        0.90094    0.23670    0.69396    1.000
    O17      O        0.77740    0.25320    0.60340    1.000
    O18      O        0.76620    0.14920    0.51380    1.000
    O19      O        0.72874    0.25174    0.81240    1.000
    O20      O        0.96750    0.18510    0.66380    1.000
    O21      O        0.16700    0.01990    0.47010    1.000
    O22      O        0.28300    0.05920    0.61780    1.000
    O23      O        0.23890    0.93270    0.54820    1.000
    O24      O        0.18341    0.88491    0.41830    1.000
    O25      O        0.05650    0.90560    0.37630    1.000
    O26      O        0.09906    0.79302    0.33576    1.000
    O27      O        0.22260    0.82600    0.47580    1.000
    O28      O        0.23380    0.74760    0.38300    1.000
    O29      O        0.27126    0.08366    0.52300    1.000
    O30      O        0.03250    0.69630    0.21760    1.000
    O31      O        0.54980    0.69690    0.52990    1.000
    O32      O        0.44140    0.66520    0.38220    1.000
    O33      O        0.38450    0.69070    0.45180    1.000
    O34      O        0.46661    0.76511    0.58170    1.000
    O35      O        0.52930    0.68020    0.62370    1.000
    O36      O        0.45726    0.76330    0.66424    1.000
    O37      O        0.35020    0.74680    0.52420    1.000
    O38      O        0.36460    0.85080    0.61700    1.000
    O39      O        0.56066    0.74826    0.47700    1.000
    O40      O        0.47870    0.81490    0.78240    1.000
    O41      O        0.47010    0.16700    0.01990    1.000
    O42      O        0.61780    0.28300    0.05920    1.000
    O43      O        0.54820    0.23890    0.93270    1.000
    O44      O        0.41830    0.18341    0.88491    1.000
    O45      O        0.37630    0.05650    0.90560    1.000
    O46      O        0.33576    0.09906    0.79302    1.000
    O47      O        0.47580    0.22260    0.82600    1.000
    O48      O        0.38300    0.23380    0.74760    1.000
    O49      O        0.52300    0.27126    0.08366    1.000
    O50      O        0.21760    0.03250    0.69630    1.000
    O51      O        0.52990    0.54980    0.69690    1.000
    O52      O        0.38220    0.44140    0.66520    1.000
    O53      O        0.45180    0.38450    0.69070    1.000
    O54      O        0.58170    0.46661    0.76511    1.000
    O55      O        0.62370    0.52930    0.68020    1.000
    O56      O        0.66424    0.45726    0.76330    1.000
    O57      O        0.52420    0.35020    0.74680    1.000
    O58      O        0.61700    0.36460    0.85080    1.000
    O59      O        0.47700    0.56066    0.74826    1.000
    O60      O        0.78240    0.47870    0.81490    1.000
    O61      O        0.14710    0.45020    0.98010    1.000
    O62      O        0.22380    0.55860    0.94080    1.000
    O63      O        0.30620    0.61550    0.06730    1.000
    O64      O        0.29850    0.53339    0.11509    1.000
    O65      O        0.15090    0.47070    0.09440    1.000
    O66      O        0.30604    0.54274    0.20698    1.000
    O67      O        0.39660    0.64980    0.17400    1.000
    O68      O        0.48620    0.63540    0.25240    1.000
    O69      O        0.18760    0.43934    0.91634    1.000
    O70      O        0.33620    0.52130    0.30370    1.000
    O71      O        0.85290    0.83300    0.30310    1.000
    O72      O        0.77620    0.71700    0.33480    1.000
    O73      O        0.69380    0.76110    0.30930    1.000
    O74      O        0.70150    0.81659    0.23489    1.000
    O75      O        0.84910    0.94350    0.31980    1.000
    O76      O        0.69396    0.90094    0.23670    1.000
    O77      O        0.60340    0.77740    0.25320    1.000
    O78      O        0.51380    0.76620    0.14920    1.000
    O79      O        0.81240    0.72874    0.25174    1.000
    O80      O        0.66380    0.96750    0.18510    1.000
    O81      O        0.30310    0.85290    0.83300    1.000
    O82      O        0.33480    0.77620    0.71700    1.000
    O83      O        0.30930    0.69380    0.76110    1.000
    O84      O        0.23489    0.70150    0.81659    1.000
    O85      O        0.31980    0.84910    0.94350    1.000
    O86      O        0.23670    0.69396    0.90094    1.000
    O87      O        0.25320    0.60340    0.77740    1.000
    O88      O        0.14920    0.51380    0.76620    1.000
    O89      O        0.25174    0.81240    0.72874    1.000
    O90      O        0.18510    0.66380    0.96750    1.000
    O91      O        0.98010    0.14710    0.45020    1.000
    O92      O        0.94080    0.22380    0.55860    1.000
    O93      O        0.06730    0.30620    0.61550    1.000
    O94      O        0.11509    0.29850    0.53339    1.000
    O95      O        0.09440    0.15090    0.47070    1.000
    O96      O        0.20698    0.30604    0.54274    1.000
    O97      O        0.17400    0.39660    0.64980    1.000
    O98      O        0.25240    0.48620    0.63540    1.000
    O99      O        0.91634    0.18760    0.43934    1.000
    O100     O        0.30370    0.33620    0.52130    1.000
    O101     O        0.69690    0.52990    0.54980    1.000
    O102     O        0.66520    0.38220    0.44140    1.000
    O103     O        0.69070    0.45180    0.38450    1.000
    O104     O        0.76511    0.58170    0.46661    1.000
    O105     O        0.68020    0.62370    0.52930    1.000
    O106     O        0.76330    0.66424    0.45726    1.000
    O107     O        0.74680    0.52420    0.35020    1.000
    O108     O        0.85080    0.61700    0.36460    1.000
    O109     O        0.74826    0.47700    0.56066    1.000
    O110     O        0.81490    0.78240    0.47870    1.000
    O111     O        0.01990    0.47010    0.16700    1.000
    O112     O        0.05920    0.61780    0.28300    1.000
    O113     O        0.93270    0.54820    0.23890    1.000
    O114     O        0.88491    0.41830    0.18341    1.000
    O115     O        0.90560    0.37630    0.05650    1.000
    O116     O        0.79302    0.33576    0.09906    1.000
    O117     O        0.82600    0.47580    0.22260    1.000
    O118     O        0.74760    0.38300    0.23380    1.000
    O119     O        0.08366    0.52300    0.27126    1.000
    O120     O        0.69630    0.21760    0.03250    1.000
    O121     O        0.01990    0.54980    0.85290    1.000
    O122     O        0.05920    0.44140    0.77620    1.000
    O123     O        0.93270    0.38450    0.69380    1.000
    O124     O        0.88491    0.46661    0.70150    1.000
    O125     O        0.90560    0.52930    0.84910    1.000
    O126     O        0.79302    0.45726    0.69396    1.000
    O127     O        0.82600    0.35020    0.60340    1.000
    O128     O        0.74760    0.36460    0.51380    1.000
    O129     O        0.08366    0.56066    0.81240    1.000
    O130     O        0.69630    0.47870    0.66380    1.000
    O131     O        0.69690    0.16700    0.14710    1.000
    O132     O        0.66520    0.28300    0.22380    1.000
    O133     O        0.69070    0.23890    0.30620    1.000
    O134     O        0.76511    0.18341    0.29850    1.000
    O135     O        0.68020    0.05650    0.15090    1.000
    O136     O        0.76330    0.09906    0.30604    1.000
    O137     O        0.74680    0.22260    0.39660    1.000
    O138     O        0.85080    0.23380    0.48620    1.000
    O139     O        0.74826    0.27126    0.18760    1.000
    O140     O        0.81490    0.03250    0.33620    1.000
    O141     O        0.98010    0.83300    0.52990    1.000
    O142     O        0.94080    0.71700    0.38220    1.000
    O143     O        0.06730    0.76110    0.45180    1.000
    O144     O        0.11509    0.81659    0.58170    1.000
    O145     O        0.09440    0.94350    0.62370    1.000
    O146     O        0.20698    0.90094    0.66424    1.000
    O147     O        0.17400    0.77740    0.52420    1.000
    O148     O        0.25240    0.76620    0.61700    1.000
    O149     O        0.91634    0.72874    0.47700    1.000
    O150     O        0.30370    0.96750    0.78240    1.000
    O151     O        0.30310    0.45020    0.47010    1.000
    O152     O        0.33480    0.55860    0.61780    1.000
    O153     O        0.30930    0.61550    0.54820    1.000
    O154     O        0.23489    0.53339    0.41830    1.000
    O155     O        0.31980    0.47070    0.37630    1.000
    O156     O        0.23670    0.54274    0.33576    1.000
    O157     O        0.25320    0.64980    0.47580    1.000
    O158     O        0.14920    0.63540    0.38300    1.000
    O159     O        0.25174    0.43934    0.52300    1.000
    O160     O        0.18510    0.52130    0.21760    1.000
    O161     O        0.83300    0.52990    0.98010    1.000
    O162     O        0.71700    0.38220    0.94080    1.000
    O163     O        0.76110    0.45180    0.06730    1.000
    O164     O        0.81659    0.58170    0.11509    1.000
    O165     O        0.94350    0.62370    0.09440    1.000
    O166     O        0.90094    0.66424    0.20698    1.000
    O167     O        0.77740    0.52420    0.17400    1.000
    O168     O        0.76620    0.61700    0.25240    1.000
    O169     O        0.72874    0.47700    0.91634    1.000
    O170     O        0.96750    0.78240    0.30370    1.000
    O171     O        0.45020    0.47010    0.30310    1.000
    O172     O        0.55860    0.61780    0.33480    1.000
    O173     O        0.61550    0.54820    0.30930    1.000
    O174     O        0.53339    0.41830    0.23489    1.000
    O175     O        0.47070    0.37630    0.31980    1.000
    O176     O        0.54274    0.33576    0.23670    1.000
    O177     O        0.64980    0.47580    0.25320    1.000
    O178     O        0.63540    0.38300    0.14920    1.000
    O179     O        0.43934    0.52300    0.25174    1.000
    O180     O        0.52130    0.21760    0.18510    1.000
    O181     O        0.54980    0.85290    0.01990    1.000
    O182     O        0.44140    0.77620    0.05920    1.000
    O183     O        0.38450    0.69380    0.93270    1.000
    O184     O        0.46661    0.70150    0.88491    1.000
    O185     O        0.52930    0.84910    0.90560    1.000
    O186     O        0.45726    0.69396    0.79302    1.000
    O187     O        0.35020    0.60340    0.82600    1.000
    O188     O        0.36460    0.51380    0.74760    1.000
    O189     O        0.56066    0.81240    0.08366    1.000
    O190     O        0.47870    0.66380    0.69630    1.000
    O191     O        0.16700    0.14710    0.69690    1.000
    O192     O        0.28300    0.22380    0.66520    1.000
    O193     O        0.23890    0.30620    0.69070    1.000
    O194     O        0.18341    0.29850    0.76511    1.000
    O195     O        0.05650    0.15090    0.68020    1.000
    O196     O        0.09906    0.30604    0.76330    1.000
    O197     O        0.22260    0.39660    0.74680    1.000
    O198     O        0.23380    0.48620    0.85080    1.000
    O199     O        0.27126    0.18760    0.74826    1.000
    O200     O        0.03250    0.33620    0.81490    1.000
    O201     O        0.14710    0.69690    0.16700    1.000
    O202     O        0.22380    0.66520    0.28300    1.000
    O203     O        0.30620    0.69070    0.23890    1.000
    O204     O        0.29850    0.76511    0.18341    1.000
    O205     O        0.15090    0.68020    0.05650    1.000
    O206     O        0.30604    0.76330    0.09906    1.000
    O207     O        0.39660    0.74680    0.22260    1.000
    O208     O        0.48620    0.85080    0.23380    1.000
    O209     O        0.18760    0.74826    0.27126    1.000
    O210     O        0.33620    0.81490    0.03250    1.000
    O211     O        0.85290    0.01990    0.54980    1.000
    O212     O        0.77620    0.05920    0.44140    1.000
    O213     O        0.69380    0.93270    0.38450    1.000
    O214     O        0.70150    0.88491    0.46661    1.000
    O215     O        0.84910    0.90560    0.52930    1.000
    O216     O        0.69396    0.79302    0.45726    1.000
    O217     O        0.60340    0.82600    0.35020    1.000
    O218     O        0.51380    0.74760    0.36460    1.000
    O219     O        0.81240    0.08366    0.56066    1.000
    O220     O        0.66380    0.69630    0.47870    1.000
    O221     O        0.47010    0.30310    0.45020    1.000
    O222     O        0.61780    0.33480    0.55860    1.000
    O223     O        0.54820    0.30930    0.61550    1.000
    O224     O        0.41830    0.23489    0.53339    1.000
    O225     O        0.37630    0.31980    0.47070    1.000
    O226     O        0.33576    0.23670    0.54274    1.000
    O227     O        0.47580    0.25320    0.64980    1.000
    O228     O        0.38300    0.14920    0.63540    1.000
    O229     O        0.52300    0.25174    0.43934    1.000
    O230     O        0.21760    0.18510    0.52130    1.000
    O231     O        0.52990    0.98010    0.83300    1.000
    O232     O        0.38220    0.94080    0.71700    1.000
    O233     O        0.45180    0.06730    0.76110    1.000
    O234     O        0.58170    0.11509    0.81659    1.000
    O235     O        0.62370    0.09440    0.94350    1.000
    O236     O        0.66424    0.20698    0.90094    1.000
    O237     O        0.52420    0.17400    0.77740    1.000
    O238     O        0.61700    0.25240    0.76620    1.000
    O239     O        0.47700    0.91634    0.72874    1.000
    O240     O        0.78240    0.30370    0.96750    1.000
