data_functionalizedCrystal
_audit_creation_method	'EQeq! by Chris Wilmer'
_symmetry_space_group_name_H-M	'P1'
_symmetry_Int_Tables_number	1
_symmetry_cell_setting	triclinic
loop_
_symmetry_equiv_pos_as_xyz
  x,y,z
_cell_length_a	21.5669
_cell_length_b	21.5669
_cell_length_c	7.7969
_cell_angle_alpha	90
_cell_angle_beta	90
_cell_angle_gamma	120
loop_
_atom_site_label
_atom_site_type_symbol
_atom_site_fract_x
_atom_site_fract_y
_atom_site_fract_z
_atom_site_charge
Mof_F 	F 	0.4067	0.05394	0.5284	-0.486
Mof_F 	F 	0.3076	0.9954	0.6698	-0.396
Mof_F 	F 	0.3625	0.11042	0.6577	-0.444
Mof_O 	O 	0.42226	0.00073	0.8378	-0.223
Mof_O 	O 	0.50349	0.08603	0.1406	-0.308
Mof_N 	N 	0.49523	0.42559	0.8356	-0.194
Mof_C 	C 	0.486	0.4326	0.6676	0.132
Mof_H 	H 	0.4804	0.4708	0.6324	0.038
Mof_C 	C 	0.4843	0.3861	0.5466	-0.128
Mof_H 	H 	0.4773	0.3926	0.4319	0.121
Mof_C 	C 	0.4931	0.3288	0.5952	0.107
Mof_C 	C 	0.5047	0.3712	0.8822	0.116
Mof_H 	H 	0.5119	0.3661	0.9977	0.03
Mof_C 	C 	0.5043	0.3227	0.768	-0.137
Mof_H 	H 	0.5116	0.286	0.8061	0.104
Mof_C 	C 	0.4904	0.2775	0.4645	0.031
Mof_C 	C 	0.4447	0.2596	0.3244	-0.053
Mof_H 	H 	0.4178	0.2821	0.3107	0.115
Mof_C 	C 	0.4383	0.2097	0.2056	-0.008
Mof_H 	H 	0.4059	0.1975	0.1156	0.06
Mof_C 	C 	0.4805	0.177	0.2198	-0.006
Mof_C 	C 	0.5292	0.1977	0.3563	0.001
Mof_H 	H 	0.5586	0.1778	0.3655	0.054
Mof_C 	C 	0.5343	0.2466	0.4769	-0.051
Mof_H 	H 	0.5668	0.2592	0.5667	0.056
Mof_C 	C 	0.4741	0.1218	0.0969	0.127
Mof_C 	C 	0.4365	0.112	0.9391	-0.06
Mof_H 	H 	0.4262	0.1475	0.9076	0.121
Mof_C 	C 	0.4145	0.055	0.8306	0.03
Mof_C 	C 	0.3738	0.055	0.6711	0.795
Mof_F 	F 	0.94606	0.35276	0.5284	-0.477
Mof_F 	F 	0.0046	0.3122	0.6698	-0.442
Mof_F 	F 	0.88958	0.25208	0.6577	-0.443
Mof_O 	O 	0.99927	0.42153	0.8378	-0.188
Mof_O 	O 	0.91397	0.41746	0.1406	-0.288
Mof_N 	N 	0.57441	0.06964	0.8356	-0.198
Mof_C 	C 	0.5674	0.0534	0.6676	0.132
Mof_H 	H 	0.5292	0.0096	0.6324	0.025
Mof_C 	C 	0.6139	0.0982	0.5466	-0.131
Mof_H 	H 	0.6074	0.0847	0.4319	0.115
Mof_C 	C 	0.6712	0.1643	0.5952	0.109
Mof_C 	C 	0.6288	0.1335	0.8822	0.116
Mof_H 	H 	0.6339	0.1458	0.9977	0.028
Mof_C 	C 	0.6773	0.1816	0.768	-0.139
Mof_H 	H 	0.714	0.2256	0.8061	0.104
Mof_C 	C 	0.7225	0.2129	0.4645	0.027
Mof_C 	C 	0.7404	0.1851	0.3244	-0.046
Mof_H 	H 	0.7179	0.1357	0.3107	0.111
Mof_C 	C 	0.7903	0.2286	0.2056	-0.013
Mof_H 	H 	0.8025	0.2084	0.1156	0.065
Mof_C 	C 	0.823	0.3035	0.2198	0.003
Mof_C 	C 	0.8023	0.3315	0.3563	-0.005
Mof_H 	H 	0.8222	0.3808	0.3655	0.058
Mof_C 	C 	0.7534	0.2877	0.4769	-0.046
Mof_H 	H 	0.7408	0.3076	0.5667	0.054
Mof_C 	C 	0.8782	0.3523	0.0969	0.12
Mof_C 	C 	0.888	0.3245	0.9391	-0.042
Mof_H 	H 	0.8525	0.2787	0.9076	0.116
Mof_C 	C 	0.945	0.3595	0.8306	0.017
Mof_C 	C 	0.945	0.3188	0.6711	0.842
Mof_F 	F 	0.64724	0.5933	0.5284	-0.48
Mof_F 	F 	0.6878	0.6924	0.6698	-0.415
Mof_F 	F 	0.74792	0.6375	0.6577	-0.437
Mof_O 	O 	0.57847	0.57774	0.8378	-0.206
Mof_O 	O 	0.58254	0.49651	0.1406	-0.299
Mof_N 	N 	0.93036	0.50477	0.8356	-0.188
Mof_C 	C 	0.9466	0.514	0.6676	0.134
Mof_H 	H 	0.9904	0.5196	0.6324	0.048
Mof_C 	C 	0.9018	0.5157	0.5466	-0.126
Mof_H 	H 	0.9153	0.5227	0.4319	0.127
Mof_C 	C 	0.8357	0.5069	0.5952	0.109
Mof_C 	C 	0.8665	0.4953	0.8822	0.118
Mof_H 	H 	0.8542	0.4881	0.9977	0.031
Mof_C 	C 	0.8184	0.4957	0.768	-0.136
Mof_H 	H 	0.7744	0.4884	0.8061	0.104
Mof_C 	C 	0.7871	0.5096	0.4645	0.031
Mof_C 	C 	0.8149	0.5553	0.3244	-0.049
Mof_H 	H 	0.8643	0.5822	0.3107	0.119
Mof_C 	C 	0.7714	0.5617	0.2056	-0.009
Mof_H 	H 	0.7916	0.5941	0.1156	0.067
Mof_C 	C 	0.6965	0.5195	0.2198	-0.001
Mof_C 	C 	0.6685	0.4708	0.3563	-0.001
Mof_H 	H 	0.6192	0.4414	0.3655	0.056
Mof_C 	C 	0.7123	0.4657	0.4769	-0.049
Mof_H 	H 	0.6924	0.4332	0.5667	0.055
Mof_C 	C 	0.6477	0.5259	0.0969	0.125
Mof_C 	C 	0.6755	0.5635	0.9391	-0.051
Mof_H 	H 	0.7213	0.5738	0.9076	0.121
Mof_C 	C 	0.6405	0.5855	0.8306	0.025
Mof_C 	C 	0.6812	0.6262	0.6711	0.82
Mof_F 	F 	0.5933	0.94606	0.4716	-0.468
Mof_F 	F 	0.6924	0.0046	0.3302	-0.449
Mof_F 	F 	0.6375	0.88958	0.3423	-0.444
Mof_O 	O 	0.57774	0.99927	0.1622	-0.247
Mof_O 	O 	0.49651	0.91397	0.8594	-0.287
Mof_N 	N 	0.50477	0.57441	0.1644	-0.219
Mof_C 	C 	0.514	0.5674	0.3324	0.13
Mof_H 	H 	0.5196	0.5292	0.3676	0.035
Mof_C 	C 	0.5157	0.6139	0.4534	-0.13
Mof_H 	H 	0.5227	0.6074	0.5681	0.127
Mof_C 	C 	0.5069	0.6712	0.4048	0.103
Mof_C 	C 	0.4953	0.6288	0.1178	0.108
Mof_H 	H 	0.4881	0.6339	0.0023	-0.022
Mof_C 	C 	0.4957	0.6773	0.232	-0.147
Mof_H 	H 	0.4884	0.714	0.1939	0.085
Mof_C 	C 	0.5096	0.7225	0.5355	0.046
Mof_C 	C 	0.5553	0.7404	0.6756	-0.062
Mof_H 	H 	0.5822	0.7179	0.6893	0.133
Mof_C 	C 	0.5617	0.7903	0.7944	0.041
Mof_H 	H 	0.5941	0.8025	0.8844	0.091
Mof_C 	C 	0.5195	0.823	0.7802	-0.044
Mof_C 	C 	0.4708	0.8023	0.6437	0.04
Mof_H 	H 	0.4414	0.8222	0.6345	0.049
Mof_C 	C 	0.4657	0.7534	0.5231	-0.067
Mof_H 	H 	0.4332	0.7408	0.4333	0.058
Mof_C 	C 	0.5259	0.8782	0.9031	0.311
Mof_C 	C 	0.5635	0.888	0.0609	-0.271
Mof_H 	H 	0.5738	0.8525	0.0924	0.159
Mof_C 	C 	0.5855	0.945	0.1694	0.087
Mof_C 	C 	0.6262	0.945	0.3289	0.821
Mof_F 	F 	0.05394	0.64724	0.4716	-0.477
Mof_F 	F 	0.9954	0.6878	0.3302	-0.401
Mof_F 	F 	0.11042	0.74792	0.3423	-0.445
Mof_O 	O 	0.00073	0.57847	0.1622	-0.284
Mof_O 	O 	0.08603	0.58254	0.8594	-0.308
Mof_N 	N 	0.42559	0.93036	0.1644	-0.211
Mof_C 	C 	0.4326	0.9466	0.3324	0.13
Mof_H 	H 	0.4708	0.9904	0.3676	0.048
Mof_C 	C 	0.3861	0.9018	0.4534	-0.126
Mof_H 	H 	0.3926	0.9153	0.5681	0.132
Mof_C 	C 	0.3288	0.8357	0.4048	0.101
Mof_C 	C 	0.3712	0.8665	0.1178	0.108
Mof_H 	H 	0.3661	0.8542	0.0023	-0.019
Mof_C 	C 	0.3227	0.8184	0.232	-0.145
Mof_H 	H 	0.286	0.7744	0.1939	0.084
Mof_C 	C 	0.2775	0.7871	0.5355	0.051
Mof_C 	C 	0.2596	0.8149	0.6756	-0.07
Mof_H 	H 	0.2821	0.8643	0.6893	0.137
Mof_C 	C 	0.2097	0.7714	0.7944	0.047
Mof_H 	H 	0.1975	0.7916	0.8844	0.086
Mof_C 	C 	0.177	0.6965	0.7802	-0.055
Mof_C 	C 	0.1977	0.6685	0.6437	0.047
Mof_H 	H 	0.1778	0.6192	0.6345	0.045
Mof_C 	C 	0.2466	0.7123	0.5231	-0.073
Mof_H 	H 	0.2592	0.6924	0.4333	0.06
Mof_C 	C 	0.1218	0.6477	0.9031	0.321
Mof_C 	C 	0.112	0.6755	0.0609	-0.293
Mof_H 	H 	0.1475	0.7213	0.0924	0.165
Mof_C 	C 	0.055	0.6405	0.1694	0.102
Mof_C 	C 	0.055	0.6812	0.3289	0.772
Mof_F 	F 	0.35276	0.4067	0.4716	-0.474
Mof_F 	F 	0.3122	0.3076	0.3302	-0.429
Mof_F 	F 	0.25208	0.3625	0.3423	-0.45
Mof_O 	O 	0.42153	0.42226	0.1622	-0.27
Mof_O 	O 	0.41746	0.50349	0.8594	-0.301
Mof_N 	N 	0.06964	0.49523	0.1644	-0.222
Mof_C 	C 	0.0534	0.486	0.3324	0.127
Mof_H 	H 	0.0096	0.4804	0.3676	0.025
Mof_C 	C 	0.0982	0.4843	0.4534	-0.132
Mof_H 	H 	0.0847	0.4773	0.5681	0.121
Mof_C 	C 	0.1643	0.4931	0.4048	0.101
Mof_C 	C 	0.1335	0.5047	0.1178	0.106
Mof_H 	H 	0.1458	0.5119	0.0023	-0.024
Mof_C 	C 	0.1816	0.5043	0.232	-0.148
Mof_H 	H 	0.2256	0.5116	0.1939	0.085
Mof_C 	C 	0.2129	0.4904	0.5355	0.047
Mof_C 	C 	0.1851	0.4447	0.6756	-0.067
Mof_H 	H 	0.1357	0.4178	0.6893	0.129
Mof_C 	C 	0.2286	0.4383	0.7944	0.043
Mof_H 	H 	0.2084	0.4059	0.8844	0.084
Mof_C 	C 	0.3035	0.4805	0.7802	-0.051
Mof_C 	C 	0.3315	0.5292	0.6437	0.043
Mof_H 	H 	0.3808	0.5586	0.6345	0.047
Mof_C 	C 	0.2877	0.5343	0.5231	-0.07
Mof_H 	H 	0.3076	0.5668	0.4333	0.059
Mof_C 	C 	0.3523	0.4741	0.9031	0.317
Mof_C 	C 	0.3245	0.4365	0.0609	-0.285
Mof_H 	H 	0.2787	0.4262	0.0924	0.161
Mof_C 	C 	0.3595	0.4145	0.1694	0.094
Mof_C 	C 	0.3188	0.3738	0.3289	0.794
Mof_Cu	Cu	0.5	0	-0	0.885
Mof_Cu	Cu	-0	0.5	-0	0.888
Mof_Cu	Cu	0.5	0.5	-0	0.9
_end
