data_functionalizedCrystal
_audit_creation_method	'EQeq! by Chris Wilmer'
_symmetry_space_group_name_H-M	'P1'
_symmetry_Int_Tables_number	1
_symmetry_cell_setting	triclinic
loop_
_symmetry_equiv_pos_as_xyz
  x,y,z
_cell_length_a	17.6956
_cell_length_b	6.8745
_cell_length_c	11.9303
_cell_angle_alpha	90
_cell_angle_beta	90
_cell_angle_gamma	90
loop_
_atom_site_label
_atom_site_type_symbol
_atom_site_fract_x
_atom_site_fract_y
_atom_site_fract_z
_atom_site_charge
Mof_O 	O 	0.07407	0.0864	0.8831	-0.533
Mof_O 	O 	0.41147	0.0859	0.591	-0.576
Mof_C 	C 	0.2068	0.0743	0.7606	-0.001
Mof_C 	C 	0.2743	0.0743	0.7029	-0.005
Mof_O 	O 	0.42593	0.9136	0.3831	-0.418
Mof_O 	O 	0.08853	0.9141	0.091	-0.501
Mof_C 	C 	0.2932	0.9257	0.2606	0.092
Mof_C 	C 	0.2257	0.9257	0.2029	0.071
Mof_O 	O 	0.92593	0.5864	0.1169	-0.48
Mof_O 	O 	0.58853	0.5859	0.409	-0.518
Mof_C 	C 	0.7932	0.5743	0.2394	0.01
Mof_C 	C 	0.7257	0.5743	0.2971	0.014
Mof_O 	O 	0.57407	0.4136	0.6169	-0.487
Mof_O 	O 	0.91147	0.4141	0.909	-0.344
Mof_C 	C 	0.7068	0.4257	0.7394	0.092
Mof_C 	C 	0.7743	0.4257	0.7971	0.105
Mof_O 	O 	0.92593	0.9136	0.1169	-0.379
Mof_O 	O 	0.58853	0.9141	0.409	-0.414
Mof_C 	C 	0.7932	0.9257	0.2394	0.096
Mof_C 	C 	0.7257	0.9257	0.2971	0.1
Mof_O 	O 	0.57407	0.0864	0.6169	-0.567
Mof_O 	O 	0.91147	0.0859	0.909	-0.423
Mof_C 	C 	0.7068	0.0743	0.7394	0.006
Mof_C 	C 	0.7743	0.0743	0.7971	0.021
Mof_O 	O 	0.07407	0.4136	0.8831	-0.456
Mof_O 	O 	0.41147	0.4141	0.591	-0.495
Mof_C 	C 	0.2068	0.4257	0.7606	0.084
Mof_C 	C 	0.2743	0.4257	0.7029	0.081
Mof_O 	O 	0.42593	0.5864	0.3831	-0.521
Mof_O 	O 	0.08853	0.5859	0.091	-0.606
Mof_C 	C 	0.2932	0.5743	0.2606	0.005
Mof_C 	C 	0.2257	0.5743	0.2029	-0.017
Mof_V 	V 	-0	0	-0	1.554
Mof_V 	V 	0.5	8.69686e-33	0.5	1.721
Mof_V 	V 	-0	0.5	-0	1.634
Mof_V 	V 	0.5	0.5	0.5	1.801
Mof_O 	O 	0.0064	0.25	0.0738	-0.833
Mof_C 	C 	0.1009	0.25	0.8571	0.44
Mof_C 	C 	0.1726	0.25	0.7896	-0.119
Mof_C 	C 	0.3083	0.25	0.6747	-0.116
Mof_C 	C 	0.3836	0.25	0.6136	0.439
Mof_O 	O 	0.4936	0.75	0.5738	-0.505
Mof_C 	C 	0.3991	0.75	0.3571	0.423
Mof_C 	C 	0.3274	0.75	0.2896	-0.113
Mof_C 	C 	0.1917	0.75	0.1747	-0.114
Mof_C 	C 	0.1164	0.75	0.1136	0.401
Mof_O 	O 	0.9936	0.75	0.9262	-0.254
Mof_C 	C 	0.8991	0.75	0.1429	0.399
Mof_C 	C 	0.8274	0.75	0.2104	-0.098
Mof_C 	C 	0.6917	0.75	0.3253	-0.103
Mof_C 	C 	0.6164	0.75	0.3864	0.423
Mof_O 	O 	0.5064	0.25	0.4262	-0.682
Mof_C 	C 	0.6009	0.25	0.6429	0.445
Mof_C 	C 	0.6726	0.25	0.7104	-0.117
Mof_C 	C 	0.8083	0.25	0.8253	-0.095
Mof_C 	C 	0.8836	0.25	0.8864	0.433
_end
