data_functionalizedCrystal
_audit_creation_method	'EQeq! by Chris Wilmer'
_symmetry_space_group_name_H-M	'P1'
_symmetry_Int_Tables_number	1
_symmetry_cell_setting	triclinic
loop_
_symmetry_equiv_pos_as_xyz
  x,y,z
_cell_length_a	14.1985
_cell_length_b	12.0745
_cell_length_c	16.5616
_cell_angle_alpha	90
_cell_angle_beta	90
_cell_angle_gamma	90
loop_
_atom_site_label
_atom_site_type_symbol
_atom_site_fract_x
_atom_site_fract_y
_atom_site_fract_z
_atom_site_charge
Mof_Mn	Mn	0.60887	0.47342	0.56774	0.944
Mof_O 	O 	0.7928	0.5241	0.9676	-0.334
Mof_O 	O 	0.7903	0.3774	0.0457	-0.297
Mof_O 	O 	0.6019	0.3225	0.6506	-0.292
Mof_O 	O 	0.4963	0.0668	0.8674	-0.331
Mof_C 	C 	0.644	0.2816	0.9513	0.048
Mof_H 	H 	0.6427	0.2609	0.0054	0.04
Mof_O 	O 	0.5094	0.119	0.9954	-0.365
Mof_C 	C 	0.7644	0.4282	0.9847	0.318
Mof_C 	C 	0.6964	0.4046	0.8465	0.019
Mof_H 	H 	0.7287	0.4681	0.831	0.067
Mof_C 	C 	0.6456	0.3804	0.7026	0.29
Mof_C 	C 	0.6985	0.3701	0.9274	-0.074
Mof_C 	C 	0.5277	0.1313	0.9205	0.335
Mof_O 	O 	0.6879	0.468	0.6838	-0.299
Mof_C 	C 	0.5934	0.2541	0.8135	0.028
Mof_H 	H 	0.5595	0.214	0.7754	0.065
Mof_C 	C 	0.5905	0.2227	0.8948	-0.089
Mof_C 	C 	0.6461	0.3442	0.7896	-0.06
Mof_Mn	Mn	0.89113	0.52658	0.06774	0.942
Mof_O 	O 	0.7072	0.4759	0.4676	-0.334
Mof_O 	O 	0.7097	0.6226	0.5457	-0.295
Mof_O 	O 	0.8981	0.6775	0.1506	-0.293
Mof_O 	O 	0.0037	0.9332	0.3674	-0.329
Mof_C 	C 	0.856	0.7184	0.4513	0.035
Mof_H 	H 	0.8573	0.7391	0.5054	0.047
Mof_O 	O 	0.9906	0.881	0.4954	-0.369
Mof_C 	C 	0.7356	0.5718	0.4847	0.312
Mof_C 	C 	0.8036	0.5954	0.3465	0.015
Mof_H 	H 	0.7713	0.5319	0.331	0.068
Mof_C 	C 	0.8544	0.6196	0.2026	0.289
Mof_C 	C 	0.8015	0.6299	0.4274	-0.068
Mof_C 	C 	0.9723	0.8687	0.4205	0.33
Mof_O 	O 	0.8121	0.532	0.1838	-0.299
Mof_C 	C 	0.9066	0.7459	0.3135	0.024
Mof_H 	H 	0.9405	0.786	0.2754	0.065
Mof_C 	C 	0.9095	0.7773	0.3948	-0.083
Mof_C 	C 	0.8539	0.6558	0.2896	-0.057
Mof_Mn	Mn	0.39113	0.97342	0.93226	0.932
Mof_O 	O 	0.2072	0.0241	0.5324	-0.334
Mof_O 	O 	0.2097	0.8774	0.4543	-0.294
Mof_O 	O 	0.3981	0.8225	0.8494	-0.293
Mof_O 	O 	0.5037	0.5668	0.6326	-0.335
Mof_C 	C 	0.356	0.7816	0.5487	0.037
Mof_H 	H 	0.3573	0.7609	0.4946	0.047
Mof_O 	O 	0.4906	0.619	0.5046	-0.37
Mof_C 	C 	0.2356	0.9282	0.5153	0.314
Mof_C 	C 	0.3036	0.9046	0.6535	0.016
Mof_H 	H 	0.2713	0.9681	0.669	0.068
Mof_C 	C 	0.3544	0.8804	0.7974	0.29
Mof_C 	C 	0.3015	0.8701	0.5726	-0.069
Mof_C 	C 	0.4723	0.6313	0.5795	0.335
Mof_O 	O 	0.3121	0.968	0.8162	-0.3
Mof_C 	C 	0.4066	0.7541	0.6865	0.025
Mof_H 	H 	0.4405	0.714	0.7246	0.065
Mof_C 	C 	0.4095	0.7227	0.6052	-0.085
Mof_C 	C 	0.3539	0.8442	0.7104	-0.059
Mof_Mn	Mn	0.10887	0.02658	0.43226	0.94
Mof_O 	O 	0.2928	0.9759	0.0324	-0.32
Mof_O 	O 	0.2903	0.1226	0.9543	-0.285
Mof_O 	O 	0.1019	0.1775	0.3494	-0.293
Mof_O 	O 	0.9963	0.4332	0.1326	-0.335
Mof_C 	C 	0.144	0.2184	0.0487	0.026
Mof_H 	H 	0.1427	0.2391	0.9946	0.053
Mof_O 	O 	0.0094	0.381	0.0046	-0.37
Mof_C 	C 	0.2644	0.0718	0.0153	0.293
Mof_C 	C 	0.1964	0.0954	0.1535	0.009
Mof_H 	H 	0.2287	0.0319	0.169	0.068
Mof_C 	C 	0.1456	0.1196	0.2974	0.288
Mof_C 	C 	0.1985	0.1299	0.0726	-0.06
Mof_C 	C 	0.0277	0.3687	0.0795	0.334
Mof_O 	O 	0.1879	0.032	0.3162	-0.3
Mof_C 	C 	0.0934	0.2459	0.1865	0.021
Mof_H 	H 	0.0595	0.286	0.2246	0.066
Mof_C 	C 	0.0905	0.2773	0.1052	-0.081
Mof_C 	C 	0.1461	0.1558	0.2104	-0.055
Mof_Mn	Mn	0.39113	0.52658	0.43226	0.943
Mof_O 	O 	0.2072	0.4759	0.0324	-0.335
Mof_O 	O 	0.2097	0.6226	0.9543	-0.298
Mof_O 	O 	0.3981	0.6775	0.3494	-0.293
Mof_O 	O 	0.5037	0.9332	0.1326	-0.331
Mof_C 	C 	0.356	0.7184	0.0487	0.048
Mof_H 	H 	0.3573	0.7391	0.9946	0.04
Mof_O 	O 	0.4906	0.881	0.0046	-0.365
Mof_C 	C 	0.2356	0.5718	0.0153	0.318
Mof_C 	C 	0.3036	0.5954	0.1535	0.019
Mof_H 	H 	0.2713	0.5319	0.169	0.067
Mof_C 	C 	0.3544	0.6196	0.2974	0.29
Mof_C 	C 	0.3015	0.6299	0.0726	-0.074
Mof_C 	C 	0.4723	0.8687	0.0795	0.335
Mof_O 	O 	0.3121	0.532	0.3162	-0.299
Mof_C 	C 	0.4066	0.7459	0.1865	0.028
Mof_H 	H 	0.4405	0.786	0.2246	0.065
Mof_C 	C 	0.4095	0.7773	0.1052	-0.089
Mof_C 	C 	0.3539	0.6558	0.2104	-0.06
Mof_Mn	Mn	0.10887	0.47342	0.93226	0.942
Mof_O 	O 	0.2928	0.5241	0.5324	-0.334
Mof_O 	O 	0.2903	0.3774	0.4543	-0.295
Mof_O 	O 	0.1019	0.3225	0.8494	-0.293
Mof_O 	O 	0.9963	0.0668	0.6326	-0.329
Mof_C 	C 	0.144	0.2816	0.5487	0.035
Mof_H 	H 	0.1427	0.2609	0.4946	0.047
Mof_O 	O 	0.0094	0.119	0.5046	-0.369
Mof_C 	C 	0.2644	0.4282	0.5153	0.312
Mof_C 	C 	0.1964	0.4046	0.6535	0.015
Mof_H 	H 	0.2287	0.4681	0.669	0.068
Mof_C 	C 	0.1456	0.3804	0.7974	0.289
Mof_C 	C 	0.1985	0.3701	0.5726	-0.068
Mof_C 	C 	0.0277	0.1313	0.5795	0.33
Mof_O 	O 	0.1879	0.468	0.8162	-0.299
Mof_C 	C 	0.0934	0.2541	0.6865	0.024
Mof_H 	H 	0.0595	0.214	0.7246	0.065
Mof_C 	C 	0.0905	0.2227	0.6052	-0.083
Mof_C 	C 	0.1461	0.3442	0.7104	-0.057
Mof_Mn	Mn	0.60887	0.02658	0.06774	0.932
Mof_O 	O 	0.7928	0.9759	0.4676	-0.334
Mof_O 	O 	0.7903	0.1226	0.5457	-0.294
Mof_O 	O 	0.6019	0.1775	0.1506	-0.293
Mof_O 	O 	0.4963	0.4332	0.3674	-0.335
Mof_C 	C 	0.644	0.2184	0.4513	0.037
Mof_H 	H 	0.6427	0.2391	0.5054	0.047
Mof_O 	O 	0.5094	0.381	0.4954	-0.37
Mof_C 	C 	0.7644	0.0718	0.4847	0.314
Mof_C 	C 	0.6964	0.0954	0.3465	0.016
Mof_H 	H 	0.7287	0.0319	0.331	0.068
Mof_C 	C 	0.6456	0.1196	0.2026	0.29
Mof_C 	C 	0.6985	0.1299	0.4274	-0.069
Mof_C 	C 	0.5277	0.3687	0.4205	0.335
Mof_O 	O 	0.6879	0.032	0.1838	-0.3
Mof_C 	C 	0.5934	0.2459	0.3135	0.025
Mof_H 	H 	0.5595	0.286	0.2754	0.065
Mof_C 	C 	0.5905	0.2773	0.3948	-0.085
Mof_C 	C 	0.6461	0.1558	0.2896	-0.059
Mof_Mn	Mn	0.89113	0.97342	0.56774	0.94
Mof_O 	O 	0.7072	0.0241	0.9676	-0.32
Mof_O 	O 	0.7097	0.8774	0.0457	-0.285
Mof_O 	O 	0.8981	0.8225	0.6506	-0.293
Mof_O 	O 	0.0037	0.5668	0.8674	-0.335
Mof_C 	C 	0.856	0.7816	0.9513	0.026
Mof_H 	H 	0.8573	0.7609	0.0054	0.053
Mof_O 	O 	0.9906	0.619	0.9954	-0.37
Mof_C 	C 	0.7356	0.9282	0.9847	0.293
Mof_C 	C 	0.8036	0.9046	0.8465	0.009
Mof_H 	H 	0.7713	0.9681	0.831	0.068
Mof_C 	C 	0.8544	0.8804	0.7026	0.288
Mof_C 	C 	0.8015	0.8701	0.9274	-0.06
Mof_C 	C 	0.9723	0.6313	0.9205	0.334
Mof_O 	O 	0.8121	0.968	0.6838	-0.3
Mof_C 	C 	0.9066	0.7541	0.8135	0.021
Mof_H 	H 	0.9405	0.714	0.7754	0.066
Mof_C 	C 	0.9095	0.7227	0.8948	-0.081
Mof_C 	C 	0.8539	0.8442	0.7896	-0.055
_end
