data_functionalizedCrystal
_audit_creation_method	'EQeq! by Chris Wilmer'
_symmetry_space_group_name_H-M	'P1'
_symmetry_Int_Tables_number	1
_symmetry_cell_setting	triclinic
loop_
_symmetry_equiv_pos_as_xyz
  x,y,z
_cell_length_a	16.2019
_cell_length_b	16.2019
_cell_length_c	6.8947
_cell_angle_alpha	90
_cell_angle_beta	90
_cell_angle_gamma	90
loop_
_atom_site_label
_atom_site_type_symbol
_atom_site_fract_x
_atom_site_fract_y
_atom_site_fract_z
_atom_site_charge
Mof_O 	O 	0.4274	0.0179	0.5679	-0.329
Mof_O 	O 	0.3299	0.0802	0.7394	-0.453
Mof_N 	N 	0.319	0.9726	0.2845	-0.132
Mof_C 	C 	0.3532	0.0388	0.595	0.357
Mof_C 	C 	0.2925	0.0105	0.4514	-0.022
Mof_H 	H 	0.298	0.9268	0.9271	-0.166
Mof_H 	H 	0.2984	0.8034	0.0935	-0.146
Mof_H 	H 	0.3699	0.0919	0.8066	0.28
Mof_H 	H 	0.2879	0.8641	0.0003	-0.287
Mof_H 	H 	0.2698	0.9487	0.9045	0.106
Mof_C 	C 	0.1765	0.878	0.915	0.343
Mof_H 	H 	0.1889	0.8529	0.7924	-0.071
Mof_H 	H 	0.1377	0.9218	0.8973	-0.052
Mof_H 	H 	0.1533	0.8371	0.0006	-0.005
Mof_O 	O 	0.0726	0.4821	0.5679	-0.327
Mof_O 	O 	0.1701	0.4198	0.7394	-0.451
Mof_N 	N 	0.181	0.5274	0.2845	-0.129
Mof_C 	C 	0.1468	0.4612	0.595	0.36
Mof_C 	C 	0.2075	0.4895	0.4514	-0.021
Mof_H 	H 	0.202	0.5732	0.9271	-0.115
Mof_H 	H 	0.2016	0.6966	0.0935	-0.132
Mof_H 	H 	0.1301	0.4081	0.8066	0.28
Mof_H 	H 	0.2121	0.6359	0.0003	-0.346
Mof_H 	H 	0.2302	0.5513	0.9045	-0.021
Mof_C 	C 	0.3235	0.622	0.915	0.217
Mof_H 	H 	0.3111	0.6471	0.7924	-0.027
Mof_H 	H 	0.3623	0.5782	0.8973	-0.005
Mof_H 	H 	0.3467	0.6629	0.0006	0.023
Mof_O 	O 	0.4821	0.4274	0.0679	-0.328
Mof_O 	O 	0.4198	0.3299	0.2394	-0.451
Mof_N 	N 	0.5274	0.319	0.7845	-0.128
Mof_C 	C 	0.4612	0.3532	0.095	0.359
Mof_C 	C 	0.4895	0.2925	0.9514	-0.021
Mof_H 	H 	0.5732	0.298	0.4271	-0.115
Mof_H 	H 	0.6966	0.2984	0.5935	-0.139
Mof_H 	H 	0.4081	0.3699	0.3066	0.28
Mof_H 	H 	0.6359	0.2879	0.5003	-0.339
Mof_H 	H 	0.5513	0.2698	0.4045	-0.005
Mof_C 	C 	0.622	0.1765	0.415	0.218
Mof_H 	H 	0.6471	0.1889	0.2924	-0.032
Mof_H 	H 	0.5782	0.1377	0.3973	-0.008
Mof_H 	H 	0.6629	0.1533	0.5006	0.023
Mof_O 	O 	0.0179	0.0726	0.0679	-0.324
Mof_O 	O 	0.0802	0.1701	0.2394	-0.451
Mof_N 	N 	0.9726	0.181	0.7845	-0.128
Mof_C 	C 	0.0388	0.1468	0.095	0.359
Mof_C 	C 	0.0105	0.2075	0.9514	-0.02
Mof_H 	H 	0.9268	0.202	0.4271	-0.151
Mof_H 	H 	0.8034	0.2016	0.5935	-0.14
Mof_H 	H 	0.0919	0.1301	0.3066	0.28
Mof_H 	H 	0.8641	0.2121	0.5003	-0.31
Mof_H 	H 	0.9487	0.2302	0.4045	0.063
Mof_C 	C 	0.878	0.3235	0.415	0.287
Mof_H 	H 	0.8529	0.3111	0.2924	-0.047
Mof_H 	H 	0.9218	0.3623	0.3973	-0.031
Mof_H 	H 	0.8371	0.3467	0.5006	0.009
Mof_O 	O 	0.5726	0.5179	0.4321	-0.327
Mof_O 	O 	0.6701	0.5802	0.2606	-0.452
Mof_N 	N 	0.681	0.4726	0.7155	-0.129
Mof_C 	C 	0.6468	0.5388	0.405	0.358
Mof_C 	C 	0.7075	0.5105	0.5486	-0.021
Mof_H 	H 	0.702	0.4268	0.0729	-0.165
Mof_H 	H 	0.7016	0.3034	0.9065	-0.143
Mof_H 	H 	0.6301	0.5919	0.1934	0.28
Mof_H 	H 	0.7121	0.3641	0.9997	-0.292
Mof_H 	H 	0.7302	0.4487	0.0955	0.098
Mof_C 	C 	0.8235	0.378	0.085	0.334
Mof_H 	H 	0.8111	0.3529	0.2076	-0.065
Mof_H 	H 	0.8623	0.4218	0.1027	-0.047
Mof_H 	H 	0.8467	0.3371	0.9994	-0.003
Mof_O 	O 	0.9274	0.9821	0.4321	-0.326
Mof_O 	O 	0.8299	0.9198	0.2606	-0.451
Mof_N 	N 	0.819	0.0274	0.7155	-0.131
Mof_C 	C 	0.8532	0.9612	0.405	0.36
Mof_C 	C 	0.7925	0.9895	0.5486	-0.02
Mof_H 	H 	0.798	0.0732	0.0729	-0.108
Mof_H 	H 	0.7984	0.1966	0.9065	-0.134
Mof_H 	H 	0.8699	0.9081	0.1934	0.281
Mof_H 	H 	0.7879	0.1359	0.9997	-0.349
Mof_H 	H 	0.7698	0.0513	0.0955	-0.03
Mof_C 	C 	0.6765	0.122	0.085	0.208
Mof_H 	H 	0.6889	0.1471	0.2076	-0.028
Mof_H 	H 	0.6377	0.0782	0.1027	-0.003
Mof_H 	H 	0.6533	0.1629	0.9994	0.024
Mof_O 	O 	0.5179	0.9274	0.9321	-0.329
Mof_O 	O 	0.5802	0.8299	0.7606	-0.452
Mof_N 	N 	0.4726	0.819	0.2155	-0.129
Mof_C 	C 	0.5388	0.8532	0.905	0.358
Mof_C 	C 	0.5105	0.7925	0.0486	-0.021
Mof_H 	H 	0.4268	0.798	0.5729	-0.148
Mof_H 	H 	0.3034	0.7984	0.4065	-0.146
Mof_H 	H 	0.5919	0.8699	0.6934	0.28
Mof_H 	H 	0.3641	0.7879	0.4997	-0.304
Mof_H 	H 	0.4487	0.7698	0.5955	0.072
Mof_C 	C 	0.378	0.6765	0.585	0.294
Mof_H 	H 	0.3529	0.6889	0.7076	-0.056
Mof_H 	H 	0.4218	0.6377	0.6027	-0.035
Mof_H 	H 	0.3371	0.6533	0.4994	0.007
Mof_O 	O 	0.9821	0.5726	0.9321	-0.326
Mof_O 	O 	0.9198	0.6701	0.7606	-0.451
Mof_N 	N 	0.0274	0.681	0.2155	-0.127
Mof_C 	C 	0.9612	0.6468	0.905	0.36
Mof_C 	C 	0.9895	0.7075	0.0486	-0.021
Mof_H 	H 	0.0732	0.702	0.5729	-0.126
Mof_H 	H 	0.1966	0.7016	0.4065	-0.134
Mof_H 	H 	0.9081	0.6301	0.6934	0.28
Mof_H 	H 	0.1359	0.7121	0.4997	-0.336
Mof_H 	H 	0.0513	0.7302	0.5955	0.003
Mof_C 	C 	0.122	0.8235	0.585	0.229
Mof_H 	H 	0.1471	0.8111	0.7076	-0.028
Mof_H 	H 	0.0782	0.8623	0.6027	-0.011
Mof_H 	H 	0.1629	0.8467	0.4994	0.022
Mof_O 	O 	0.5726	0.9821	0.4321	-0.328
Mof_O 	O 	0.6701	0.9198	0.2606	-0.452
Mof_N 	N 	0.681	0.0274	0.7155	-0.131
Mof_C 	C 	0.6468	0.9612	0.405	0.358
Mof_C 	C 	0.7075	0.9895	0.5486	-0.021
Mof_H 	H 	0.702	0.0732	0.0729	-0.165
Mof_H 	H 	0.7016	0.1966	0.9065	-0.146
Mof_H 	H 	0.6301	0.9081	0.1934	0.28
Mof_H 	H 	0.7121	0.1359	0.9997	-0.287
Mof_H 	H 	0.7302	0.0513	0.0955	0.106
Mof_C 	C 	0.8235	0.122	0.085	0.343
Mof_H 	H 	0.8111	0.1471	0.2076	-0.071
Mof_H 	H 	0.8623	0.0782	0.1027	-0.052
Mof_H 	H 	0.8467	0.1629	0.9994	-0.005
Mof_O 	O 	0.9274	0.5179	0.4321	-0.327
Mof_O 	O 	0.8299	0.5802	0.2606	-0.451
Mof_N 	N 	0.819	0.4726	0.7155	-0.129
Mof_C 	C 	0.8532	0.5388	0.405	0.36
Mof_C 	C 	0.7925	0.5105	0.5486	-0.021
Mof_H 	H 	0.798	0.4268	0.0729	-0.115
Mof_H 	H 	0.7984	0.3034	0.9065	-0.132
Mof_H 	H 	0.8699	0.5919	0.1934	0.28
Mof_H 	H 	0.7879	0.3641	0.9997	-0.346
Mof_H 	H 	0.7698	0.4487	0.0955	-0.021
Mof_C 	C 	0.6765	0.378	0.085	0.217
Mof_H 	H 	0.6889	0.3529	0.2076	-0.027
Mof_H 	H 	0.6377	0.4218	0.1027	-0.005
Mof_H 	H 	0.6533	0.3371	0.9994	0.023
Mof_O 	O 	0.5179	0.5726	0.9321	-0.328
Mof_O 	O 	0.5802	0.6701	0.7606	-0.451
Mof_N 	N 	0.4726	0.681	0.2155	-0.128
Mof_C 	C 	0.5388	0.6468	0.905	0.359
Mof_C 	C 	0.5105	0.7075	0.0486	-0.021
Mof_H 	H 	0.4268	0.702	0.5729	-0.115
Mof_H 	H 	0.3034	0.7016	0.4065	-0.139
Mof_H 	H 	0.5919	0.6301	0.6934	0.28
Mof_H 	H 	0.3641	0.7121	0.4997	-0.339
Mof_H 	H 	0.4487	0.7302	0.5955	-0.005
Mof_C 	C 	0.378	0.8235	0.585	0.218
Mof_H 	H 	0.3529	0.8111	0.7076	-0.032
Mof_H 	H 	0.4218	0.8623	0.6027	-0.008
Mof_H 	H 	0.3371	0.8467	0.4994	0.023
Mof_O 	O 	0.9821	0.9274	0.9321	-0.324
Mof_O 	O 	0.9198	0.8299	0.7606	-0.451
Mof_N 	N 	0.0274	0.819	0.2155	-0.128
Mof_C 	C 	0.9612	0.8532	0.905	0.359
Mof_C 	C 	0.9895	0.7925	0.0486	-0.02
Mof_H 	H 	0.0732	0.798	0.5729	-0.151
Mof_H 	H 	0.1966	0.7984	0.4065	-0.14
Mof_H 	H 	0.9081	0.8699	0.6934	0.28
Mof_H 	H 	0.1359	0.7879	0.4997	-0.31
Mof_H 	H 	0.0513	0.7698	0.5955	0.063
Mof_C 	C 	0.122	0.6765	0.585	0.287
Mof_H 	H 	0.1471	0.6889	0.7076	-0.047
Mof_H 	H 	0.0782	0.6377	0.6027	-0.031
Mof_H 	H 	0.1629	0.6533	0.4994	0.009
Mof_O 	O 	0.4274	0.4821	0.5679	-0.327
Mof_O 	O 	0.3299	0.4198	0.7394	-0.452
Mof_N 	N 	0.319	0.5274	0.2845	-0.129
Mof_C 	C 	0.3532	0.4612	0.595	0.358
Mof_C 	C 	0.2925	0.4895	0.4514	-0.021
Mof_H 	H 	0.298	0.5732	0.9271	-0.165
Mof_H 	H 	0.2984	0.6966	0.0935	-0.143
Mof_H 	H 	0.3699	0.4081	0.8066	0.28
Mof_H 	H 	0.2879	0.6359	0.0003	-0.292
Mof_H 	H 	0.2698	0.5513	0.9045	0.098
Mof_C 	C 	0.1765	0.622	0.915	0.334
Mof_H 	H 	0.1889	0.6471	0.7924	-0.065
Mof_H 	H 	0.1377	0.5782	0.8973	-0.047
Mof_H 	H 	0.1533	0.6629	0.0006	-0.003
Mof_O 	O 	0.0726	0.0179	0.5679	-0.326
Mof_O 	O 	0.1701	0.0802	0.7394	-0.451
Mof_N 	N 	0.181	0.9726	0.2845	-0.131
Mof_C 	C 	0.1468	0.0388	0.595	0.36
Mof_C 	C 	0.2075	0.0105	0.4514	-0.02
Mof_H 	H 	0.202	0.9268	0.9271	-0.108
Mof_H 	H 	0.2016	0.8034	0.0935	-0.134
Mof_H 	H 	0.1301	0.0919	0.8066	0.281
Mof_H 	H 	0.2121	0.8641	0.0003	-0.349
Mof_H 	H 	0.2302	0.9487	0.9045	-0.03
Mof_C 	C 	0.3235	0.878	0.915	0.208
Mof_H 	H 	0.3111	0.8529	0.7924	-0.028
Mof_H 	H 	0.3623	0.9218	0.8973	-0.003
Mof_H 	H 	0.3467	0.8371	0.0006	0.024
Mof_O 	O 	0.4821	0.0726	0.0679	-0.329
Mof_O 	O 	0.4198	0.1701	0.2394	-0.452
Mof_N 	N 	0.5274	0.181	0.7845	-0.129
Mof_C 	C 	0.4612	0.1468	0.095	0.358
Mof_C 	C 	0.4895	0.2075	0.9514	-0.021
Mof_H 	H 	0.5732	0.202	0.4271	-0.148
Mof_H 	H 	0.6966	0.2016	0.5935	-0.146
Mof_H 	H 	0.4081	0.1301	0.3066	0.28
Mof_H 	H 	0.6359	0.2121	0.5003	-0.304
Mof_H 	H 	0.5513	0.2302	0.4045	0.072
Mof_C 	C 	0.622	0.3235	0.415	0.294
Mof_H 	H 	0.6471	0.3111	0.2924	-0.056
Mof_H 	H 	0.5782	0.3623	0.3973	-0.035
Mof_H 	H 	0.6629	0.3467	0.5006	0.007
Mof_O 	O 	0.0179	0.4274	0.0679	-0.326
Mof_O 	O 	0.0802	0.3299	0.2394	-0.451
Mof_N 	N 	0.9726	0.319	0.7845	-0.127
Mof_C 	C 	0.0388	0.3532	0.095	0.36
Mof_C 	C 	0.0105	0.2925	0.9514	-0.021
Mof_H 	H 	0.9268	0.298	0.4271	-0.126
Mof_H 	H 	0.8034	0.2984	0.5935	-0.134
Mof_H 	H 	0.0919	0.3699	0.3066	0.28
Mof_H 	H 	0.8641	0.2879	0.5003	-0.336
Mof_H 	H 	0.9487	0.2698	0.4045	0.003
Mof_C 	C 	0.878	0.1765	0.415	0.229
Mof_H 	H 	0.8529	0.1889	0.2924	-0.028
Mof_H 	H 	0.9218	0.1377	0.3973	-0.011
Mof_H 	H 	0.8371	0.1533	0.5006	0.022
Mof_Cd	Cd	0.45735	0.95735	0.25	0.433
Mof_Cd	Cd	0.04265	0.54265	0.25	0.437
Mof_Cd	Cd	0.54265	0.45735	0.75	0.435
Mof_Cd	Cd	0.95735	0.04265	0.75	0.433
Mof_Cd	Cd	0.54265	0.04265	0.75	0.433
Mof_Cd	Cd	0.95735	0.45735	0.75	0.437
Mof_Cd	Cd	0.45735	0.54265	0.25	0.435
Mof_Cd	Cd	0.04265	0.95735	0.25	0.433
Mof_C 	C 	0.25	0.9514	0.1875	0.056
Mof_C 	C 	0.25	0.9096	0.9982	0.276
Mof_C 	C 	0.25	0.8192	0.022	0.659
Mof_H 	H 	0.25	0.7922	0.8983	-0.156
Mof_C 	C 	0.25	0.5486	0.1875	0.054
Mof_C 	C 	0.25	0.5904	0.9982	0.286
Mof_C 	C 	0.25	0.6808	0.022	0.65
Mof_H 	H 	0.25	0.7078	0.8983	-0.153
Mof_C 	C 	0.5486	0.25	0.6875	0.05
Mof_C 	C 	0.5904	0.25	0.4982	0.295
Mof_C 	C 	0.6808	0.25	0.522	0.662
Mof_H 	H 	0.7078	0.25	0.3983	-0.156
Mof_C 	C 	0.9514	0.25	0.6875	0.045
Mof_C 	C 	0.9096	0.25	0.4982	0.312
Mof_C 	C 	0.8192	0.25	0.522	0.647
Mof_H 	H 	0.7922	0.25	0.3983	-0.151
Mof_C 	C 	0.75	0.4514	0.8125	0.054
Mof_C 	C 	0.75	0.4096	0.0018	0.286
Mof_C 	C 	0.75	0.3192	0.978	0.65
Mof_H 	H 	0.75	0.2922	0.1017	-0.153
Mof_C 	C 	0.75	0.0486	0.8125	0.056
Mof_C 	C 	0.75	0.0904	0.0018	0.276
Mof_C 	C 	0.75	0.1808	0.978	0.659
Mof_H 	H 	0.75	0.2078	0.1017	-0.156
Mof_C 	C 	0.4514	0.75	0.3125	0.05
Mof_C 	C 	0.4096	0.75	0.5018	0.295
Mof_C 	C 	0.3192	0.75	0.478	0.662
Mof_H 	H 	0.2922	0.75	0.6017	-0.156
Mof_C 	C 	0.0486	0.75	0.3125	0.045
Mof_C 	C 	0.0904	0.75	0.5018	0.312
Mof_C 	C 	0.1808	0.75	0.478	0.647
Mof_H 	H 	0.2078	0.75	0.6017	-0.151
_end
