# CIF file generated by openbabel 3.1.0, see https://openbabel.org
data_I
_chemical_name_common 'image0'
_cell_length_a 30.342
_cell_length_b 16.219
_cell_length_c 21.787
_cell_angle_alpha 90
_cell_angle_beta 134.13
_cell_angle_gamma 90
_space_group_name_H-M_alt 'P 1'
_space_group_name_Hall 'P 1'
loop_
    _symmetry_equiv_pos_as_xyz
    x,y,z
loop_
    _atom_site_label
    _atom_site_type_symbol
    _atom_site_fract_x
    _atom_site_fract_y
    _atom_site_fract_z
    _atom_site_occupancy
    Tb1      Tb       0.17220    0.12932    0.54317    1.000
    Tb2      Tb       0.11072    0.12213    0.20103    1.000
    O1       O        0.15150    0.12470    0.34460    1.000
    O2       O        0.13670    0.01900    0.14720    1.000
    O3       O        0.24820    0.27260    0.35420    1.000
    O4       O        0.21720    0.15250    0.28620    1.000
    N1       N        0.16770    0.99770    0.29120    1.000
    N2       N        0.36120    0.24340    0.43850    1.000
    O5       O        0.17720    0.05860    0.45290    1.000
    C1       C        0.18810    0.99090    0.36960    1.000
    C2       C        0.34050    0.11390    0.37170    1.000
    H1       H        0.31200    0.07340    0.33380    1.000
    O6       O        0.43430    0.36100    0.54330    1.000
    C3       C        0.22370    0.92660    0.42370    1.000
    H2       H        0.23770    0.92540    0.47760    1.000
    C4       C        0.32250    0.18440    0.38460    1.000
    C5       C        0.21860    0.86950    0.31730    1.000
    H3       H        0.22830    0.82890    0.29820    1.000
    C6       C        0.25730    0.20460    0.33760    1.000
    C7       C        0.18390    0.93750    0.26790    1.000
    C8       C        0.42240    0.23260    0.48490    1.000
    C9       C        0.44400    0.16280    0.47640    1.000
    H4       H        0.48580    0.15510    0.51020    1.000
    C10      C        0.46200    0.30150    0.54690    1.000
    C11      C        0.23890    0.86470    0.39940    1.000
    H5       H        0.26190    0.82000    0.43530    1.000
    C12      C        0.17270    0.06410    0.39220    1.000
    C13      C        0.40150    0.10450    0.41600    1.000
    H6       H        0.41420    0.05920    0.40540    1.000
    O7       O        0.51780    0.29710    0.59320    1.000
    O8       O        0.17710    0.89880    0.15560    1.000
    C14      C        0.16300    0.95330    0.18130    1.000
    Tb3      Tb       0.67220    0.62932    0.54317    1.000
    Tb4      Tb       0.61072    0.62213    0.20103    1.000
    O9       O        0.65150    0.62470    0.34460    1.000
    O10      O        0.63670    0.51900    0.14720    1.000
    O11      O        0.74820    0.77260    0.35420    1.000
    O12      O        0.71720    0.65250    0.28620    1.000
    N3       N        0.66770    0.49770    0.29120    1.000
    N4       N        0.86120    0.74340    0.43850    1.000
    O13      O        0.67720    0.55860    0.45290    1.000
    C15      C        0.68810    0.49090    0.36960    1.000
    C16      C        0.84050    0.61390    0.37170    1.000
    H7       H        0.81200    0.57340    0.33380    1.000
    O14      O        0.93430    0.86100    0.54330    1.000
    C17      C        0.72370    0.42660    0.42370    1.000
    H8       H        0.73770    0.42540    0.47760    1.000
    C18      C        0.82250    0.68440    0.38460    1.000
    C19      C        0.71860    0.36950    0.31730    1.000
    H9       H        0.72830    0.32890    0.29820    1.000
    C20      C        0.75730    0.70460    0.33760    1.000
    C21      C        0.68390    0.43750    0.26790    1.000
    C22      C        0.92240    0.73260    0.48490    1.000
    C23      C        0.94400    0.66280    0.47640    1.000
    H10      H        0.98580    0.65510    0.51020    1.000
    C24      C        0.96200    0.80150    0.54690    1.000
    C25      C        0.73890    0.36470    0.39940    1.000
    H11      H        0.76190    0.32000    0.43530    1.000
    C26      C        0.67270    0.56410    0.39220    1.000
    C27      C        0.90150    0.60450    0.41600    1.000
    H12      H        0.91420    0.55920    0.40540    1.000
    O15      O        0.01780    0.79710    0.59320    1.000
    O16      O        0.67710    0.39880    0.15560    1.000
    C28      C        0.66300    0.45330    0.18130    1.000
    Tb5      Tb       0.82780    0.12932    0.95683    1.000
    Tb6      Tb       0.88928    0.12213    0.29897    1.000
    O17      O        0.84850    0.12470    0.15540    1.000
    O18      O        0.86330    0.01900    0.35280    1.000
    O19      O        0.75180    0.27260    0.14580    1.000
    O20      O        0.78280    0.15250    0.21380    1.000
    N5       N        0.83230    0.99770    0.20880    1.000
    N6       N        0.63880    0.24340    0.06150    1.000
    O21      O        0.82280    0.05860    0.04710    1.000
    C29      C        0.81190    0.99090    0.13040    1.000
    C30      C        0.65950    0.11390    0.12830    1.000
    H13      H        0.68800    0.07340    0.16620    1.000
    O22      O        0.56570    0.36100    0.95670    1.000
    C31      C        0.77630    0.92660    0.07630    1.000
    H14      H        0.76230    0.92540    0.02240    1.000
    C32      C        0.67750    0.18440    0.11540    1.000
    C33      C        0.78140    0.86950    0.18270    1.000
    H15      H        0.77170    0.82890    0.20180    1.000
    C34      C        0.74270    0.20460    0.16240    1.000
    C35      C        0.81610    0.93750    0.23210    1.000
    C36      C        0.57760    0.23260    0.01510    1.000
    C37      C        0.55600    0.16280    0.02360    1.000
    H16      H        0.51420    0.15510    0.98980    1.000
    C38      C        0.53800    0.30150    0.95310    1.000
    C39      C        0.76110    0.86470    0.10060    1.000
    H17      H        0.73810    0.82000    0.06470    1.000
    C40      C        0.82730    0.06410    0.10780    1.000
    C41      C        0.59850    0.10450    0.08400    1.000
    H18      H        0.58580    0.05920    0.09460    1.000
    O23      O        0.48220    0.29710    0.90680    1.000
    O24      O        0.82290    0.89880    0.34440    1.000
    C42      C        0.83700    0.95330    0.31870    1.000
    Tb7      Tb       0.32780    0.62932    0.95683    1.000
    Tb8      Tb       0.38928    0.62213    0.29897    1.000
    O25      O        0.34850    0.62470    0.15540    1.000
    O26      O        0.36330    0.51900    0.35280    1.000
    O27      O        0.25180    0.77260    0.14580    1.000
    O28      O        0.28280    0.65250    0.21380    1.000
    N7       N        0.33230    0.49770    0.20880    1.000
    N8       N        0.13880    0.74340    0.06150    1.000
    O29      O        0.32280    0.55860    0.04710    1.000
    C43      C        0.31190    0.49090    0.13040    1.000
    C44      C        0.15950    0.61390    0.12830    1.000
    H19      H        0.18800    0.57340    0.16620    1.000
    O30      O        0.06570    0.86100    0.95670    1.000
    C45      C        0.27630    0.42660    0.07630    1.000
    H20      H        0.26230    0.42540    0.02240    1.000
    C46      C        0.17750    0.68440    0.11540    1.000
    C47      C        0.28140    0.36950    0.18270    1.000
    H21      H        0.27170    0.32890    0.20180    1.000
    C48      C        0.24270    0.70460    0.16240    1.000
    C49      C        0.31610    0.43750    0.23210    1.000
    C50      C        0.07760    0.73260    0.01510    1.000
    C51      C        0.05600    0.66280    0.02360    1.000
    H22      H        0.01420    0.65510    0.98980    1.000
    C52      C        0.03800    0.80150    0.95310    1.000
    C53      C        0.26110    0.36470    0.10060    1.000
    H23      H        0.23810    0.32000    0.06470    1.000
    C54      C        0.32730    0.56410    0.10780    1.000
    C55      C        0.09850    0.60450    0.08400    1.000
    H24      H        0.08580    0.55920    0.09460    1.000
    O31      O        0.98220    0.79710    0.90680    1.000
    O32      O        0.32290    0.39880    0.34440    1.000
    C56      C        0.33700    0.45330    0.31870    1.000
    Tb9      Tb       0.82780    0.87068    0.45683    1.000
    Tb10     Tb       0.88928    0.87787    0.79897    1.000
    O33      O        0.84850    0.87530    0.65540    1.000
    O34      O        0.86330    0.98100    0.85280    1.000
    O35      O        0.75180    0.72740    0.64580    1.000
    O36      O        0.78280    0.84750    0.71380    1.000
    N9       N        0.83230    0.00230    0.70880    1.000
    N10      N        0.63880    0.75660    0.56150    1.000
    O37      O        0.82280    0.94140    0.54710    1.000
    C57      C        0.81190    0.00910    0.63040    1.000
    C58      C        0.65950    0.88610    0.62830    1.000
    H25      H        0.68800    0.92660    0.66620    1.000
    O38      O        0.56570    0.63900    0.45670    1.000
    C59      C        0.77630    0.07340    0.57630    1.000
    H26      H        0.76230    0.07460    0.52240    1.000
    C60      C        0.67750    0.81560    0.61540    1.000
    C61      C        0.78140    0.13050    0.68270    1.000
    H27      H        0.77170    0.17110    0.70180    1.000
    C62      C        0.74270    0.79540    0.66240    1.000
    C63      C        0.81610    0.06250    0.73210    1.000
    C64      C        0.57760    0.76740    0.51510    1.000
    C65      C        0.55600    0.83720    0.52360    1.000
    H28      H        0.51420    0.84490    0.48980    1.000
    C66      C        0.53800    0.69850    0.45310    1.000
    C67      C        0.76110    0.13530    0.60060    1.000
    H29      H        0.73810    0.18000    0.56470    1.000
    C68      C        0.82730    0.93590    0.60780    1.000
    C69      C        0.59850    0.89550    0.58400    1.000
    H30      H        0.58580    0.94080    0.59460    1.000
    O39      O        0.48220    0.70290    0.40680    1.000
    O40      O        0.82290    0.10120    0.84440    1.000
    C70      C        0.83700    0.04670    0.81870    1.000
    Tb11     Tb       0.32780    0.37068    0.45683    1.000
    Tb12     Tb       0.38928    0.37787    0.79897    1.000
    O41      O        0.34850    0.37530    0.65540    1.000
    O42      O        0.36330    0.48100    0.85280    1.000
    O43      O        0.25180    0.22740    0.64580    1.000
    O44      O        0.28280    0.34750    0.71380    1.000
    N11      N        0.33230    0.50230    0.70880    1.000
    N12      N        0.13880    0.25660    0.56150    1.000
    O45      O        0.32280    0.44140    0.54710    1.000
    C71      C        0.31190    0.50910    0.63040    1.000
    C72      C        0.15950    0.38610    0.62830    1.000
    H31      H        0.18800    0.42660    0.66620    1.000
    O46      O        0.06570    0.13900    0.45670    1.000
    C73      C        0.27630    0.57340    0.57630    1.000
    H32      H        0.26230    0.57460    0.52240    1.000
    C74      C        0.17750    0.31560    0.61540    1.000
    C75      C        0.28140    0.63050    0.68270    1.000
    H33      H        0.27170    0.67110    0.70180    1.000
    C76      C        0.24270    0.29540    0.66240    1.000
    C77      C        0.31610    0.56250    0.73210    1.000
    C78      C        0.07760    0.26740    0.51510    1.000
    C79      C        0.05600    0.33720    0.52360    1.000
    H34      H        0.01420    0.34490    0.48980    1.000
    C80      C        0.03800    0.19850    0.45310    1.000
    C81      C        0.26110    0.63530    0.60060    1.000
    H35      H        0.23810    0.68000    0.56470    1.000
    C82      C        0.32730    0.43590    0.60780    1.000
    C83      C        0.09850    0.39550    0.58400    1.000
    H36      H        0.08580    0.44080    0.59460    1.000
    O47      O        0.98220    0.20290    0.40680    1.000
    O48      O        0.32290    0.60120    0.84440    1.000
    C84      C        0.33700    0.54670    0.81870    1.000
    Tb13     Tb       0.17220    0.87068    0.04317    1.000
    Tb14     Tb       0.11072    0.87787    0.70103    1.000
    O49      O        0.15150    0.87530    0.84460    1.000
    O50      O        0.13670    0.98100    0.64720    1.000
    O51      O        0.24820    0.72740    0.85420    1.000
    O52      O        0.21720    0.84750    0.78620    1.000
    N13      N        0.16770    0.00230    0.79120    1.000
    N14      N        0.36120    0.75660    0.93850    1.000
    O53      O        0.17720    0.94140    0.95290    1.000
    C85      C        0.18810    0.00910    0.86960    1.000
    C86      C        0.34050    0.88610    0.87170    1.000
    H37      H        0.31200    0.92660    0.83380    1.000
    O54      O        0.43430    0.63900    0.04330    1.000
    C87      C        0.22370    0.07340    0.92370    1.000
    H38      H        0.23770    0.07460    0.97760    1.000
    C88      C        0.32250    0.81560    0.88460    1.000
    C89      C        0.21860    0.13050    0.81730    1.000
    H39      H        0.22830    0.17110    0.79820    1.000
    C90      C        0.25730    0.79540    0.83760    1.000
    C91      C        0.18390    0.06250    0.76790    1.000
    C92      C        0.42240    0.76740    0.98490    1.000
    C93      C        0.44400    0.83720    0.97640    1.000
    H40      H        0.48580    0.84490    0.01020    1.000
    C94      C        0.46200    0.69850    0.04690    1.000
    C95      C        0.23890    0.13530    0.89940    1.000
    H41      H        0.26190    0.18000    0.93530    1.000
    C96      C        0.17270    0.93590    0.89220    1.000
    C97      C        0.40150    0.89550    0.91600    1.000
    H42      H        0.41420    0.94080    0.90540    1.000
    O55      O        0.51780    0.70290    0.09320    1.000
    O56      O        0.17710    0.10120    0.65560    1.000
    C98      C        0.16300    0.04670    0.68130    1.000
    Tb15     Tb       0.67220    0.37068    0.04317    1.000
    Tb16     Tb       0.61072    0.37787    0.70103    1.000
    O57      O        0.65150    0.37530    0.84460    1.000
    O58      O        0.63670    0.48100    0.64720    1.000
    O59      O        0.74820    0.22740    0.85420    1.000
    O60      O        0.71720    0.34750    0.78620    1.000
    N15      N        0.66770    0.50230    0.79120    1.000
    N16      N        0.86120    0.25660    0.93850    1.000
    O61      O        0.67720    0.44140    0.95290    1.000
    C99      C        0.68810    0.50910    0.86960    1.000
    C100     C        0.84050    0.38610    0.87170    1.000
    H43      H        0.81200    0.42660    0.83380    1.000
    O62      O        0.93430    0.13900    0.04330    1.000
    C101     C        0.72370    0.57340    0.92370    1.000
    H44      H        0.73770    0.57460    0.97760    1.000
    C102     C        0.82250    0.31560    0.88460    1.000
    C103     C        0.71860    0.63050    0.81730    1.000
    H45      H        0.72830    0.67110    0.79820    1.000
    C104     C        0.75730    0.29540    0.83760    1.000
    C105     C        0.68390    0.56250    0.76790    1.000
    C106     C        0.92240    0.26740    0.98490    1.000
    C107     C        0.94400    0.33720    0.97640    1.000
    H46      H        0.98580    0.34490    0.01020    1.000
    C108     C        0.96200    0.19850    0.04690    1.000
    C109     C        0.73890    0.63530    0.89940    1.000
    H47      H        0.76190    0.68000    0.93530    1.000
    C110     C        0.67270    0.43590    0.89220    1.000
    C111     C        0.90150    0.39550    0.91600    1.000
    H48      H        0.91420    0.44080    0.90540    1.000
    O63      O        0.01780    0.20290    0.09320    1.000
    O64      O        0.67710    0.60120    0.65560    1.000
    C112     C        0.66300    0.54670    0.68130    1.000
