data_functionalizedCrystal
_audit_creation_method	'EQeq! by Chris Wilmer'
_symmetry_space_group_name_H-M	'P1'
_symmetry_Int_Tables_number	1
_symmetry_cell_setting	triclinic
loop_
_symmetry_equiv_pos_as_xyz
  x,y,z
_cell_length_a	10.9619
_cell_length_b	16.0098
_cell_length_c	23.383
_cell_angle_alpha	90
_cell_angle_beta	90
_cell_angle_gamma	90
loop_
_atom_site_label
_atom_site_type_symbol
_atom_site_fract_x
_atom_site_fract_y
_atom_site_fract_z
_atom_site_charge
Mof_O 	O 	0.873	0.911	0.0468	-0.428
Mof_C 	C 	0.6596	0.6964	0.95	-0.098
Mof_H 	H 	0.6331	0.6726	0.915	0.085
Mof_C 	C 	0.7287	0.7713	0.9494	0.097
Mof_H 	H 	0.7505	0.7967	0.9141	0.035
Mof_C 	C 	0.419	0.925	0.353	-0.517
Mof_H 	H 	0.4333	0.8897	0.3188	0.069
Mof_H 	H 	0.4275	0.8969	0.3894	0.085
Mof_H 	H 	0.335	0.9405	0.3456	0.121
Mof_H 	H 	0.6261	0.0446	0.2934	0.064
Mof_H 	H 	0.5075	0.007	0.2629	0.346
Mof_H 	H 	0.608	0.9456	0.2894	0.136
Mof_H 	H 	0.4361	0.8927	0.3872	0.115
Mof_H 	H 	0.3331	0.9427	0.3529	0.078
Mof_H 	H 	0.4454	0.885	0.3219	0.07
Mof_O 	O 	0.127	0.089	0.0468	-0.503
Mof_C 	C 	0.3404	0.3036	0.95	-0.122
Mof_H 	H 	0.3669	0.3274	0.915	0.084
Mof_C 	C 	0.2713	0.2287	0.9494	0.11
Mof_H 	H 	0.2495	0.2033	0.9141	0.009
Mof_C 	C 	0.581	0.075	0.353	-0.555
Mof_H 	H 	0.5667	0.1103	0.3188	0.066
Mof_H 	H 	0.5725	0.1031	0.3894	0.087
Mof_H 	H 	0.665	0.0595	0.3456	0.106
Mof_H 	H 	0.3739	0.9554	0.2934	0.114
Mof_H 	H 	0.4925	0.993	0.2629	-0.174
Mof_H 	H 	0.392	0.0544	0.2894	0.119
Mof_H 	H 	0.5639	0.1073	0.3872	0.111
Mof_H 	H 	0.6669	0.0573	0.3529	0.079
Mof_H 	H 	0.5546	0.115	0.3219	0.069
Mof_O 	O 	0.127	0.911	0.9532	-0.438
Mof_C 	C 	0.3404	0.6964	0.05	-0.135
Mof_H 	H 	0.3669	0.6726	0.085	0.086
Mof_C 	C 	0.2713	0.7713	0.0506	0.078
Mof_H 	H 	0.2495	0.7967	0.0859	0.027
Mof_C 	C 	0.581	0.925	0.647	-0.526
Mof_H 	H 	0.5667	0.8897	0.6812	0.071
Mof_H 	H 	0.5725	0.8969	0.6106	0.088
Mof_H 	H 	0.665	0.9405	0.6544	0.125
Mof_H 	H 	0.3739	0.0446	0.7066	0.065
Mof_H 	H 	0.4925	0.007	0.7371	0.346
Mof_H 	H 	0.392	0.9456	0.7106	0.135
Mof_H 	H 	0.5639	0.8927	0.6128	0.118
Mof_H 	H 	0.6669	0.9427	0.6471	0.082
Mof_H 	H 	0.5546	0.885	0.6781	0.073
Mof_O 	O 	0.873	0.089	0.9532	-0.447
Mof_C 	C 	0.6596	0.3036	0.05	-0.134
Mof_H 	H 	0.6331	0.3274	0.085	0.086
Mof_C 	C 	0.7287	0.2287	0.0506	0.082
Mof_H 	H 	0.7505	0.2033	0.0859	0.024
Mof_C 	C 	0.419	0.075	0.647	-0.548
Mof_H 	H 	0.4333	0.1103	0.6812	0.065
Mof_H 	H 	0.4275	0.1031	0.6106	0.085
Mof_H 	H 	0.335	0.0595	0.6544	0.102
Mof_H 	H 	0.6261	0.9554	0.7066	0.115
Mof_H 	H 	0.5075	0.993	0.7371	-0.173
Mof_H 	H 	0.608	0.0544	0.7106	0.122
Mof_H 	H 	0.4361	0.1073	0.6128	0.108
Mof_H 	H 	0.3331	0.0573	0.6471	0.075
Mof_H 	H 	0.4454	0.115	0.6781	0.067
Mof_O 	O 	0.127	0.089	0.9532	-0.483
Mof_C 	C 	0.3404	0.3036	0.05	-0.147
Mof_H 	H 	0.3669	0.3274	0.085	0.086
Mof_C 	C 	0.2713	0.2287	0.0506	0.087
Mof_H 	H 	0.2495	0.2033	0.0859	0.012
Mof_C 	C 	0.581	0.075	0.647	-0.556
Mof_H 	H 	0.5667	0.1103	0.6812	0.067
Mof_H 	H 	0.5725	0.1031	0.6106	0.087
Mof_H 	H 	0.665	0.0595	0.6544	0.106
Mof_H 	H 	0.3739	0.9554	0.7066	0.115
Mof_H 	H 	0.4925	0.993	0.7371	-0.174
Mof_H 	H 	0.392	0.0544	0.7106	0.119
Mof_H 	H 	0.5639	0.1073	0.6128	0.111
Mof_H 	H 	0.6669	0.0573	0.6471	0.079
Mof_H 	H 	0.5546	0.115	0.6781	0.07
Mof_O 	O 	0.873	0.911	0.9532	-0.406
Mof_C 	C 	0.6596	0.6964	0.05	-0.122
Mof_H 	H 	0.6331	0.6726	0.085	0.087
Mof_C 	C 	0.7287	0.7713	0.0506	0.074
Mof_H 	H 	0.7505	0.7967	0.0859	0.038
Mof_C 	C 	0.419	0.925	0.647	-0.518
Mof_H 	H 	0.4333	0.8897	0.6812	0.069
Mof_H 	H 	0.4275	0.8969	0.6106	0.086
Mof_H 	H 	0.335	0.9405	0.6544	0.121
Mof_H 	H 	0.6261	0.0446	0.7066	0.065
Mof_H 	H 	0.5075	0.007	0.7371	0.346
Mof_H 	H 	0.608	0.9456	0.7106	0.137
Mof_H 	H 	0.4361	0.8927	0.6128	0.116
Mof_H 	H 	0.3331	0.9427	0.6471	0.078
Mof_H 	H 	0.4454	0.885	0.6781	0.071
Mof_O 	O 	0.873	0.089	0.0468	-0.468
Mof_C 	C 	0.6596	0.3036	0.95	-0.109
Mof_H 	H 	0.6331	0.3274	0.915	0.085
Mof_C 	C 	0.7287	0.2287	0.9494	0.105
Mof_H 	H 	0.7505	0.2033	0.9141	0.021
Mof_C 	C 	0.419	0.075	0.353	-0.547
Mof_H 	H 	0.4333	0.1103	0.3188	0.064
Mof_H 	H 	0.4275	0.1031	0.3894	0.084
Mof_H 	H 	0.335	0.0595	0.3456	0.102
Mof_H 	H 	0.6261	0.9554	0.2934	0.114
Mof_H 	H 	0.5075	0.993	0.2629	-0.174
Mof_H 	H 	0.608	0.0544	0.2894	0.122
Mof_H 	H 	0.4361	0.1073	0.3872	0.108
Mof_H 	H 	0.3331	0.0573	0.3529	0.074
Mof_H 	H 	0.4454	0.115	0.3219	0.067
Mof_O 	O 	0.127	0.911	0.0468	-0.459
Mof_C 	C 	0.3404	0.6964	0.95	-0.11
Mof_H 	H 	0.3669	0.6726	0.915	0.084
Mof_C 	C 	0.2713	0.7713	0.9494	0.101
Mof_H 	H 	0.2495	0.7967	0.9141	0.024
Mof_C 	C 	0.581	0.925	0.353	-0.525
Mof_H 	H 	0.5667	0.8897	0.3188	0.071
Mof_H 	H 	0.5725	0.8969	0.3894	0.087
Mof_H 	H 	0.665	0.9405	0.3456	0.124
Mof_H 	H 	0.3739	0.0446	0.2934	0.064
Mof_H 	H 	0.4925	0.007	0.2629	0.345
Mof_H 	H 	0.392	0.9456	0.2894	0.134
Mof_H 	H 	0.5639	0.8927	0.3872	0.118
Mof_H 	H 	0.6669	0.9427	0.3529	0.082
Mof_H 	H 	0.5546	0.885	0.3219	0.073
Mof_Zn	Zn	5.02508e-34	7.68933e-34	0.06283	1.199
Mof_N 	N 	4.18984e-33	0	0.1393	-0.333
Mof_C 	C 	2.19302e-33	0	0.2742	0.097
Mof_C 	C 	2.63211e-33	0	0.3291	-0.174
Mof_C 	C 	-3.12986e-33	-6.15146e-33	0.3778	0.131
Mof_C 	C 	3.46229e-33	0	0.4329	-0.187
Mof_Zn	Zn	7.49539e-33	0	0.93717	1.203
Mof_N 	N 	6.88379e-33	0	0.8607	-0.333
Mof_C 	C 	1.81078e-32	0	0.7258	0.097
Mof_C 	C 	-6.93713e-33	-1.23029e-32	0.6709	-0.173
Mof_C 	C 	1.72792e-32	0	0.6222	0.131
Mof_C 	C 	4.53561e-33	0	0.5671	-0.186
Mof_Br	Br	0.79771	0.5	-0	-0.211
Mof_C 	C 	0.6281	0.5	-0	0.098
Mof_Br	Br	0.20229	0.5	-0	-0.264
Mof_C 	C 	0.3719	0.5	-0	0.107
Mof_C 	C 	0.6307	0.6583	-0	0.086
Mof_C 	C 	0.7636	0.8064	-0	-0.144
Mof_C 	C 	0.8456	0.8837	-0	0.411
Mof_C 	C 	0.5649	0.5766	-0	-0.042
Mof_C 	C 	0.3693	0.3417	-0	0.098
Mof_C 	C 	0.2364	0.1936	-0	-0.183
Mof_C 	C 	0.1544	0.1163	-0	0.427
Mof_C 	C 	0.4351	0.4234	-0	-0.054
Mof_C 	C 	0.3693	0.6583	-0	0.092
Mof_C 	C 	0.2364	0.8064	-0	-0.161
Mof_C 	C 	0.1544	0.8837	-0	0.414
Mof_C 	C 	0.4351	0.5766	-0	-0.052
Mof_C 	C 	0.6307	0.3417	-0	0.092
Mof_C 	C 	0.7636	0.1936	-0	-0.165
Mof_C 	C 	0.8456	0.1163	-0	0.422
Mof_C 	C 	0.5649	0.4234	-0	-0.044
Mof_C 	C 	0.0955	0	0.1777	0.07
Mof_H 	H 	0.174	0	0.1605	-0.013
Mof_C 	C 	0.0973	-3.07573e-33	0.2367	-0.172
Mof_H 	H 	0.1759	0	0.2538	0.064
Mof_C 	C 	0.9029	0	0.47049	0.156
Mof_O 	O 	0.7802	0	0.4473	-0.26
Mof_C 	C 	0.648	0	0.4519	0.372
Mof_O 	O 	0.5862	0	0.3973	-0.353
Mof_C 	C 	0.566	0	0.2941	-0.682
Mof_C 	C 	0.9045	0	0.1777	0.131
Mof_H 	H 	0.826	0	0.1605	-0.023
Mof_C 	C 	0.9027	-3.07573e-33	0.2367	-0.113
Mof_H 	H 	0.8241	0	0.2538	0.057
Mof_C 	C 	0.0971	0	0.47049	0.103
Mof_O 	O 	0.2198	0	0.4473	-0.264
Mof_C 	C 	0.352	0	0.4519	0.367
Mof_O 	O 	0.4138	0	0.3973	-0.355
Mof_C 	C 	0.434	0	0.2941	-0.684
Mof_C 	C 	0.9045	-1.23029e-32	0.8223	0.132
Mof_H 	H 	0.826	1.23029e-32	0.8395	-0.021
Mof_C 	C 	0.9027	0	0.7633	-0.112
Mof_H 	H 	0.8241	-1.23029e-32	0.7462	0.058
Mof_C 	C 	0.0971	0	0.52951	0.103
Mof_O 	O 	0.2198	-6.15146e-33	0.5527	-0.264
Mof_C 	C 	0.352	0	0.5481	0.367
Mof_O 	O 	0.4138	0	0.6027	-0.356
Mof_C 	C 	0.434	0	0.7059	-0.685
Mof_C 	C 	0.0955	-1.23029e-32	0.8223	0.07
Mof_H 	H 	0.174	1.23029e-32	0.8395	-0.011
Mof_C 	C 	0.0973	0	0.7633	-0.171
Mof_H 	H 	0.1759	-1.23029e-32	0.7462	0.064
Mof_C 	C 	0.9029	0	0.52951	0.156
Mof_O 	O 	0.7802	-6.15146e-33	0.5527	-0.26
Mof_C 	C 	0.648	0	0.5481	0.372
Mof_O 	O 	0.5862	0	0.6027	-0.353
Mof_C 	C 	0.566	0	0.7059	-0.683
Mof_O 	O 	0.591	-6.15146e-33	0.5	-0.336
Mof_O 	O 	0.409	-6.15146e-33	0.5	-0.335
Mof_C 	C 	0.5	6.15146e-33	0.3503	1.05
Mof_C 	C 	0.5	0	0.6497	1.051
_end
