data_functionalizedCrystal
_audit_creation_method	'EQeq! by Chris Wilmer'
_symmetry_space_group_name_H-M	'P1'
_symmetry_Int_Tables_number	1
_symmetry_cell_setting	triclinic
loop_
_symmetry_equiv_pos_as_xyz
  x,y,z
_cell_length_a	15.371
_cell_length_b	15.371
_cell_length_c	15.371
_cell_angle_alpha	90
_cell_angle_beta	90
_cell_angle_gamma	90
loop_
_atom_site_label
_atom_site_type_symbol
_atom_site_fract_x
_atom_site_fract_y
_atom_site_fract_z
_atom_site_charge
Mof_O 	O 	0.9889	0.6363	0.8789	-0.324
Mof_O 	O 	0.4889	0.1363	0.3789	-0.325
Mof_O 	O 	0.5111	0.3637	0.3789	-0.324
Mof_O 	O 	0.0111	0.8637	0.8789	-0.324
Mof_O 	O 	0.0111	0.1363	0.6211	-0.325
Mof_O 	O 	0.5111	0.6363	0.1211	-0.324
Mof_O 	O 	0.4889	0.8637	0.1211	-0.324
Mof_O 	O 	0.9889	0.3637	0.6211	-0.324
Mof_O 	O 	0.8789	0.9889	0.6363	-0.324
Mof_O 	O 	0.3789	0.4889	0.1363	-0.324
Mof_O 	O 	0.3789	0.5111	0.3637	-0.323
Mof_O 	O 	0.8789	0.0111	0.8637	-0.323
Mof_O 	O 	0.6211	0.0111	0.1363	-0.324
Mof_O 	O 	0.1211	0.5111	0.6363	-0.323
Mof_O 	O 	0.1211	0.4889	0.8637	-0.323
Mof_O 	O 	0.6211	0.9889	0.3637	-0.323
Mof_O 	O 	0.6363	0.8789	0.9889	-0.323
Mof_O 	O 	0.1363	0.3789	0.4889	-0.324
Mof_O 	O 	0.3637	0.3789	0.5111	-0.323
Mof_O 	O 	0.8637	0.8789	0.0111	-0.323
Mof_O 	O 	0.1363	0.6211	0.0111	-0.324
Mof_O 	O 	0.6363	0.1211	0.5111	-0.323
Mof_O 	O 	0.8637	0.1211	0.4889	-0.323
Mof_O 	O 	0.3637	0.6211	0.9889	-0.323
Mof_O 	O 	0.3863	0.2389	0.3711	-0.324
Mof_O 	O 	0.8863	0.7389	0.8711	-0.323
Mof_O 	O 	0.1137	0.7611	0.8711	-0.323
Mof_O 	O 	0.6137	0.2611	0.3711	-0.323
Mof_O 	O 	0.8863	0.2611	0.6289	-0.323
Mof_O 	O 	0.3863	0.7611	0.1289	-0.323
Mof_O 	O 	0.6137	0.7389	0.1289	-0.323
Mof_O 	O 	0.1137	0.2389	0.6289	-0.323
Mof_O 	O 	0.7389	0.1289	0.6137	-0.323
Mof_O 	O 	0.2389	0.6289	0.1137	-0.323
Mof_O 	O 	0.2611	0.6289	0.8863	-0.323
Mof_O 	O 	0.7611	0.1289	0.3863	-0.323
Mof_O 	O 	0.7611	0.8711	0.1137	-0.323
Mof_O 	O 	0.2611	0.3711	0.6137	-0.323
Mof_O 	O 	0.2389	0.3711	0.3863	-0.324
Mof_O 	O 	0.7389	0.8711	0.8863	-0.323
Mof_O 	O 	0.6289	0.8863	0.2611	-0.323
Mof_O 	O 	0.1289	0.3863	0.7611	-0.323
Mof_O 	O 	0.1289	0.6137	0.7389	-0.323
Mof_O 	O 	0.6289	0.1137	0.2389	-0.323
Mof_O 	O 	0.3711	0.3863	0.2389	-0.324
Mof_O 	O 	0.8711	0.8863	0.7389	-0.323
Mof_O 	O 	0.8711	0.1137	0.7611	-0.323
Mof_O 	O 	0.3711	0.6137	0.2611	-0.323
Mof_Zn	Zn	0.125	0.625	0.875	1.239
Mof_Zn	Zn	0.625	0.125	0.375	1.239
Mof_Zn	Zn	0.375	0.375	0.375	1.239
Mof_Zn	Zn	0.875	0.875	0.875	1.239
Mof_Zn	Zn	0.875	0.125	0.625	1.239
Mof_Zn	Zn	0.375	0.625	0.125	1.239
Mof_Zn	Zn	0.625	0.875	0.125	1.239
Mof_Zn	Zn	0.125	0.375	0.625	1.239
Mof_C 	C 	0.9633	0.7133	0.875	0.234
Mof_C 	C 	0.5367	0.2867	0.375	0.234
Mof_C 	C 	0.0367	0.2133	0.625	0.233
Mof_C 	C 	0.4633	0.7867	0.125	0.234
Mof_C 	C 	0.875	0.9633	0.7133	0.234
Mof_C 	C 	0.375	0.5367	0.2867	0.234
Mof_C 	C 	0.625	0.0367	0.2133	0.233
Mof_C 	C 	0.125	0.4633	0.7867	0.234
Mof_C 	C 	0.7133	0.875	0.9633	0.234
Mof_C 	C 	0.2867	0.375	0.5367	0.234
Mof_C 	C 	0.2133	0.625	0.0367	0.233
Mof_C 	C 	0.7867	0.125	0.4633	0.234
Mof_C 	C 	0.4633	0.2133	0.375	0.234
Mof_C 	C 	0.0367	0.7867	0.875	0.233
Mof_C 	C 	0.9633	0.2867	0.625	0.234
Mof_C 	C 	0.5367	0.7133	0.125	0.234
Mof_C 	C 	0.7133	0.125	0.5367	0.234
Mof_C 	C 	0.2867	0.625	0.9633	0.234
Mof_C 	C 	0.7867	0.875	0.0367	0.233
Mof_C 	C 	0.2133	0.375	0.4633	0.234
Mof_C 	C 	0.625	0.9633	0.2867	0.234
Mof_C 	C 	0.125	0.5367	0.7133	0.234
Mof_C 	C 	0.375	0.4633	0.2133	0.234
Mof_C 	C 	0.875	0.0367	0.7867	0.233
_end
