data_functionalizedCrystal
_audit_creation_method	'EQeq! by Chris Wilmer'
_symmetry_space_group_name_H-M	'P1'
_symmetry_Int_Tables_number	1
_symmetry_cell_setting	triclinic
loop_
_symmetry_equiv_pos_as_xyz
  x,y,z
_cell_length_a	24.001
_cell_length_b	24.1423
_cell_length_c	24.3564
_cell_angle_alpha	85.626
_cell_angle_beta	61.319
_cell_angle_gamma	60.944
loop_
_atom_site_label
_atom_site_type_symbol
_atom_site_fract_x
_atom_site_fract_y
_atom_site_fract_z
_atom_site_charge
Mof_Er	Er	0.36359	0.84524	0.19891	1.911
Mof_O 	O 	0.2529	0.8742	0.2055	-0.309
Mof_O 	O 	0.2972	0.9593	0.2201	-0.294
Mof_O 	O 	0.3823	0.8699	0.0981	-0.294
Mof_O 	O 	0.4544	0.8723	0.1608	-0.309
Mof_O 	O 	0.4032	0.752	0.1332	-0.299
Mof_O 	O 	0.3421	0.8797	0.2972	-0.307
Mof_O 	O 	0.4642	0.7616	0.205	-0.298
Mof_O 	O 	0.3116	0.7909	0.2722	-0.293
Mof_N 	N 	0.2137	0.845	0.2286	-0.059
Mof_N 	N 	0.2326	0.9974	0.2235	-0.066
Mof_N 	N 	0.3669	0.8492	0.0604	-0.067
Mof_N 	N 	0.4667	0.9071	0.1167	-0.06
Mof_N 	N 	0.4473	0.6918	0.1376	-0.073
Mof_C 	C 	0.2333	0.7918	0.1935	0.047
Mof_C 	C 	0.1551	0.871	0.2889	0.059
Mof_C 	C 	0.2322	0.0173	0.1717	0.059
Mof_C 	C 	0.1714	0.0139	0.2792	0.058
Mof_C 	C 	0.2967	0.8795	0.0735	0.059
Mof_C 	C 	0.4206	0.7979	0.0134	0.064
Mof_C 	C 	0.4277	0.9745	0.135	0.046
Mof_C 	C 	0.5166	0.8773	0.0578	0.06
Mof_C 	C 	0.4171	0.6617	0.1783	0.063
Mof_C 	C 	0.5209	0.665	0.1001	0.072
Mof_H 	H 	0.276	0.7738	0.1519	0.034
Mof_C 	C 	0.1902	0.7631	0.2186	-0.095
Mof_C 	C 	0.1132	0.8431	0.3145	-0.101
Mof_H 	H 	0.1435	0.908	0.313	0.017
Mof_H 	H 	0.2773	0.0056	0.1332	0.028
Mof_C 	C 	0.1659	0.055	0.174	-0.108
Mof_C 	C 	0.1025	0.0525	0.2838	-0.105
Mof_H 	H 	0.1743	0.9997	0.3157	0.016
Mof_H 	H 	0.2592	0.9151	0.1086	0.031
Mof_C 	C 	0.2791	0.8593	0.0364	-0.109
Mof_C 	C 	0.4036	0.7762	0.9754	-0.107
Mof_H 	H 	0.4697	0.7764	0.0056	0.021
Mof_H 	H 	0.3929	0.9956	0.1786	0.034
Mof_C 	C 	0.4414	0.0092	0.0879	-0.099
Mof_C 	C 	0.5324	0.9128	0.0078	-0.101
Mof_H 	H 	0.5433	0.8314	0.0475	0.019
Mof_H 	H 	0.365	0.68	0.2012	0.027
Mof_C 	C 	0.4617	0.6041	0.187	-0.11
Mof_C 	C 	0.5666	0.6091	0.1073	-0.111
Mof_H 	H 	0.5404	0.6861	0.0683	0.012
Mof_H 	H 	0.2023	0.7268	0.193	0.062
Mof_C 	C 	0.1293	0.787	0.281	0.033
Mof_H 	H 	0.0714	0.8619	0.3565	0.061
Mof_H 	H 	0.1659	0.0698	0.1367	0.067
Mof_C 	C 	0.0983	0.0724	0.2294	0.039
Mof_H 	H 	0.0584	0.0653	0.3238	0.063
Mof_H 	H 	0.2296	0.8829	0.045	0.066
Mof_C 	C 	0.3307	0.8057	0.9869	0.047
Mof_H 	H 	0.4423	0.7404	0.9407	0.067
Mof_H 	H 	0.415	0.055	0.0999	0.063
Mof_C 	C 	0.4919	0.9806	0.0236	0.042
Mof_H 	H 	0.5696	0.8906	0.9649	0.063
Mof_H 	H 	0.4399	0.5823	0.2158	0.068
Mof_C 	C 	0.5387	0.576	0.1546	0.04
Mof_H 	H 	0.6185	0.5909	0.0807	0.067
Mof_C 	C 	0.0807	0.7581	0.3077	0.06
Mof_C 	C 	0.028	0.1057	0.2303	0.051
Mof_C 	C 	0.3106	0.7818	0.9507	0.035
Mof_C 	C 	0.5884	0.5205	0.1707	0.056
Mof_C 	C 	0.1018	0.7001	0.2807	-0.125
Mof_C 	C 	0.0099	0.7931	0.363	-0.121
Mof_C 	C 	0.0182	0.0901	0.1832	-0.127
Mof_C 	C 	0.9612	0.1521	0.286	-0.12
Mof_C 	C 	0.2431	0.8223	0.9529	-0.101
Mof_C 	C 	0.3571	0.7161	0.9103	-0.105
Mof_C 	C 	0.657	0.4758	0.1276	-0.115
Mof_C 	C 	0.5671	0.5183	0.2341	-0.117
Mof_C 	C 	0.0558	0.6757	0.3075	0.074
Mof_H 	H 	0.1486	0.6758	0.243	0.072
Mof_H 	H 	0.9938	0.8347	0.3827	0.068
Mof_C 	C 	0.9664	0.7695	0.3876	0.063
Mof_C 	C 	0.9506	0.1176	0.1911	0.08
Mof_H 	H 	0.0599	0.0596	0.1451	0.072
Mof_H 	H 	0.964	0.1653	0.32	0.07
Mof_C 	C 	0.8968	0.1763	0.2908	0.069
Mof_C 	C 	0.2202	0.7991	0.9225	0.056
Mof_H 	H 	0.2129	0.866	0.9754	0.062
Mof_H 	H 	0.4048	0.6872	0.9046	0.066
Mof_C 	C 	0.3314	0.6984	0.8827	0.058
Mof_C 	C 	0.7052	0.4265	0.1434	0.057
Mof_H 	H 	0.6739	0.4777	0.0837	0.068
Mof_H 	H 	0.5189	0.5503	0.2663	0.07
Mof_C 	C 	0.613	0.4716	0.2518	0.066
Mof_N 	N 	0.9882	0.7094	0.359	-0.068
Mof_H 	H 	0.0724	0.6336	0.2889	0.017
Mof_H 	H 	0.9194	0.7936	0.4253	0.025
Mof_N 	N 	0.891	0.1578	0.2439	-0.071
Mof_H 	H 	0.9456	0.1077	0.1573	0.011
Mof_H 	H 	0.8535	0.2074	0.3279	0.029
Mof_N 	N 	0.2646	0.737	0.8883	-0.059
Mof_H 	H 	0.1736	0.8263	0.9255	0.017
Mof_H 	H 	0.3615	0.656	0.8572	0.032
Mof_N 	N 	0.6828	0.4262	0.2057	-0.06
Mof_H 	H 	0.7527	0.3939	0.1111	0.031
Mof_H 	H 	0.5967	0.4705	0.2957	0.015
Mof_O 	O 	0.9426	0.6865	0.3823	-0.296
Mof_O 	O 	0.8229	0.1813	0.2528	-0.301
Mof_O 	O 	0.2395	0.716	0.862	-0.307
Mof_O 	O 	0.7274	0.3831	0.2238	-0.302
Mof_Er	Er	0.85074	0.71492	0.35619	1.905
Mof_Er	Er	0.7447	0.2806	0.23961	1.919
Mof_O 	O 	0.8814	0.6128	0.3798	-0.307
Mof_O 	O 	0.7806	0.7339	0.4705	-0.284
Mof_O 	O 	0.7935	0.7904	0.306	-0.296
Mof_O 	O 	0.8218	0.8172	0.3957	-0.298
Mof_O 	O 	0.7478	0.7098	0.3819	-0.312
Mof_O 	O 	0.9484	0.7187	0.2703	-0.309
Mof_O 	O 	0.8874	0.6495	0.2645	-0.292
Mof_O 	O 	0.7201	0.2044	0.2183	-0.3
Mof_O 	O 	0.7736	0.3098	0.3067	-0.306
Mof_O 	O 	0.6669	0.2765	0.3422	-0.308
Mof_O 	O 	0.6223	0.3453	0.2592	-0.294
Mof_O 	O 	0.8655	0.2607	0.1734	-0.297
Mof_N 	N 	0.9141	0.5838	0.4128	-0.062
Mof_N 	N 	0.7633	0.7833	0.5098	-0.074
Mof_N 	N 	0.7479	0.7907	0.2893	-0.067
Mof_N 	N 	0.8065	0.8696	0.3697	-0.066
Mof_N 	N 	0.7028	0.6993	0.4346	-0.056
Mof_N 	N 	0.9667	0.718	0.2086	-0.062
Mof_N 	N 	0.7311	0.15	0.2424	-0.067
Mof_N 	N 	0.7932	0.3547	0.3004	-0.065
Mof_N 	N 	0.6778	0.2675	0.3909	-0.054
Mof_N 	N 	0.5634	0.3446	0.305	-0.066
Mof_N 	N 	0.106	0.7328	0.8861	-0.06
Mof_C 	C 	0.9886	0.5435	0.3825	0.071
Mof_C 	C 	0.8737	0.5931	0.4768	0.057
Mof_C 	C 	0.8122	0.779	0.5247	0.068
Mof_C 	C 	0.6968	0.8363	0.5324	0.074
Mof_C 	C 	0.6761	0.8241	0.3283	0.068
Mof_C 	C 	0.7758	0.7583	0.2312	0.056
Mof_C 	C 	0.8626	0.8755	0.3231	0.054
Mof_C 	C 	0.7371	0.9159	0.392	0.063
Mof_C 	C 	0.6365	0.7512	0.4793	0.056
Mof_C 	C 	0.7227	0.6375	0.4422	0.045
Mof_C 	C 	0.9303	0.771	0.192	0.052
Mof_C 	C 	0.0224	0.6624	0.1649	0.062
Mof_C 	C 	0.6808	0.1524	0.2998	0.056
Mof_C 	C 	0.7949	0.0938	0.2046	0.062
Mof_C 	C 	0.864	0.3376	0.264	0.056
Mof_C 	C 	0.7391	0.4154	0.3323	0.056
Mof_C 	C 	0.7207	0.2055	0.3962	0.038
Mof_C 	C 	0.6437	0.3199	0.4363	0.054
Mof_C 	C 	0.5496	0.3015	0.2941	0.059
Mof_C 	C 	0.5243	0.3831	0.3621	0.058
Mof_C 	C 	0.1084	0.6764	0.9019	0.056
Mof_C 	C 	0.0738	0.784	0.9326	0.059
Mof_H 	H 	0.0176	0.5375	0.3374	0.013
Mof_C 	C 	0.0205	0.5129	0.4153	-0.119
Mof_C 	C 	0.9073	0.561	0.5106	-0.11
Mof_H 	H 	0.8216	0.6219	0.4985	0.033
Mof_H 	H 	0.8585	0.7401	0.51	0.024
Mof_C 	C 	0.7944	0.8306	0.5607	-0.121
Mof_C 	C 	0.6801	0.8874	0.5696	-0.124
Mof_H 	H 	0.6619	0.8385	0.5228	0.01
Mof_H 	H 	0.6569	0.8493	0.3679	0.015
Mof_C 	C 	0.6282	0.8234	0.3133	-0.112
Mof_C 	C 	0.7318	0.7554	0.213	-0.106
Mof_H 	H 	0.8276	0.737	0.2021	0.031
Mof_H 	H 	0.9121	0.8421	0.3091	0.029
Mof_C 	C 	0.8499	0.9283	0.2956	-0.109
Mof_C 	C 	0.7185	0.9715	0.3669	-0.107
Mof_H 	H 	0.6989	0.9112	0.4262	0.017
Mof_H 	H 	0.6244	0.7942	0.4738	0.017
Mof_C 	C 	0.5886	0.7405	0.5312	-0.107
Mof_C 	C 	0.6719	0.6276	0.4969	-0.102
Mof_H 	H 	0.7692	0.6021	0.4117	0.037
Mof_H 	H 	0.8875	0.8081	0.2236	0.033
Mof_C 	C 	0.9557	0.772	0.127	-0.106
Mof_C 	C 	0.0492	0.6606	0.1012	-0.112
Mof_H 	H 	0.0433	0.6238	0.1791	0.021
Mof_H 	H 	0.6364	0.1925	0.324	0.03
Mof_C 	C 	0.692	0.0973	0.3249	-0.105
Mof_C 	C 	0.8098	0.0377	0.228	-0.106
Mof_H 	H 	0.8288	0.0933	0.1626	0.017
Mof_H 	H 	0.9007	0.2933	0.2449	0.034
Mof_C 	C 	0.885	0.3837	0.2534	-0.104
Mof_C 	C 	0.7575	0.4649	0.3252	-0.102
Mof_H 	H 	0.6894	0.4255	0.3591	0.018
Mof_H 	H 	0.747	0.1692	0.363	0.038
Mof_C 	C 	0.7239	0.1982	0.4528	-0.096
Mof_C 	C 	0.6489	0.313	0.4919	-0.104
Mof_H 	H 	0.6159	0.3619	0.4306	0.02
Mof_H 	H 	0.5781	0.2749	0.2529	0.03
Mof_C 	C 	0.4921	0.2953	0.3444	-0.114
Mof_C 	C 	0.4654	0.378	0.4141	-0.107
Mof_H 	H 	0.5355	0.414	0.3683	0.015
Mof_H 	H 	0.1292	0.6413	0.8695	0.03
Mof_C 	C 	0.0815	0.6706	0.9631	-0.111
Mof_C 	C 	0.042	0.7793	0.9959	-0.108
Mof_H 	H 	0.0732	0.8228	0.9215	0.014
Mof_H 	H 	0.0729	0.4868	0.3932	0.069
Mof_C 	C 	0.9812	0.5169	0.481	0.05
Mof_H 	H 	0.8785	0.5697	0.5559	0.067
Mof_H 	H 	0.8294	0.8273	0.5707	0.071
Mof_C 	C 	0.7278	0.8883	0.584	0.058
Mof_H 	H 	0.6322	0.9248	0.5866	0.07
Mof_H 	H 	0.5766	0.8481	0.343	0.066
Mof_C 	C 	0.6526	0.788	0.2562	0.042
Mof_H 	H 	0.753	0.732	0.1718	0.066
Mof_H 	H 	0.8904	0.9307	0.262	0.067
Mof_C 	C 	0.7779	0.9786	0.3164	0.042
Mof_H 	H 	0.6682	0.0039	0.3824	0.064
Mof_H 	H 	0.5424	0.7763	0.5615	0.066
Mof_C 	C 	0.6059	0.6771	0.5413	0.041
Mof_H 	H 	0.6847	0.5846	0.5028	0.065
Mof_H 	H 	0.9315	0.8106	0.1144	0.065
Mof_C 	C 	0.0157	0.717	0.0809	0.043
Mof_H 	H 	0.09	0.6217	0.0709	0.067
Mof_H 	H 	0.6554	0.0996	0.3662	0.064
Mof_C 	C 	0.7589	0.0368	0.2887	0.041
Mof_H 	H 	0.8554	0.9988	0.2025	0.064
Mof_H 	H 	0.9351	0.3716	0.2249	0.066
Mof_C 	C 	0.8313	0.448	0.2851	0.039
Mof_H 	H 	0.7202	0.5083	0.3473	0.064
Mof_H 	H 	0.7508	0.1561	0.459	0.063
Mof_C 	C 	0.6881	0.2521	0.4995	0.038
Mof_H 	H 	0.6257	0.3499	0.5234	0.063
Mof_H 	H 	0.4817	0.2647	0.336	0.069
Mof_C 	C 	0.4515	0.3309	0.4035	0.05
Mof_H 	H 	0.4364	0.4059	0.4548	0.066
Mof_H 	H 	0.0877	0.6299	0.9731	0.067
Mof_C 	C 	0.0452	0.7219	0.0122	0.046
Mof_H 	H 	0.0179	0.8155	0.0285	0.064
Mof_C 	C 	0.7081	0.9486	0.619	0.039
Mof_C 	C 	0.6035	0.7827	0.2415	0.041
Mof_C 	C 	0.848	0.5002	0.2768	0.051
Mof_C 	C 	0.6897	0.2421	0.5606	0.055
Mof_C 	C 	0.6405	0.9886	0.6709	-0.107
Mof_C 	C 	0.7615	0.9677	0.597	-0.108
Mof_C 	C 	0.6241	0.762	0.1785	-0.105
Mof_C 	C 	0.5353	0.795	0.2903	-0.1
Mof_C 	C 	0.9144	0.4899	0.2655	-0.113
Mof_C 	C 	0.7968	0.5616	0.2811	-0.111
Mof_C 	C 	0.6313	0.284	0.6158	-0.114
Mof_C 	C 	0.7496	0.1898	0.5622	-0.124
Mof_C 	C 	0.6242	0.0442	0.6999	0.052
Mof_H 	H 	0.6037	0.977	0.6872	0.066
Mof_H 	H 	0.8101	0.9398	0.5625	0.066
Mof_C 	C 	0.7454	0.0234	0.6233	0.057
Mof_C 	C 	0.5746	0.7593	0.1669	0.06
Mof_H 	H 	0.6723	0.7498	0.1441	0.065
Mof_H 	H 	0.5202	0.8095	0.333	0.065
Mof_C 	C 	0.4882	0.7868	0.2788	0.046
Mof_C 	C 	0.9296	0.5396	0.2588	0.064
Mof_H 	H 	0.9512	0.4474	0.2622	0.069
Mof_H 	H 	0.7511	0.5699	0.287	0.07
Mof_C 	C 	0.8097	0.6124	0.2772	0.055
Mof_C 	C 	0.6322	0.2706	0.6738	0.054
Mof_H 	H 	0.5907	0.3214	0.6163	0.067
Mof_H 	H 	0.7917	0.1605	0.5235	0.07
Mof_C 	C 	0.7488	0.1802	0.6174	0.073
Mof_N 	N 	0.6756	0.0627	0.6756	-0.061
Mof_H 	H 	0.5773	0.0703	0.737	0.031
Mof_H 	H 	0.7812	0.0362	0.6066	0.017
Mof_N 	N 	0.5095	0.7691	0.2164	-0.06
Mof_H 	H 	0.5861	0.7506	0.1242	0.021
Mof_H 	H 	0.4424	0.7933	0.3131	0.037
Mof_N 	N 	0.8768	0.5997	0.266	-0.066
Mof_H 	H 	0.9768	0.5309	0.2493	0.019
Mof_H 	H 	0.7724	0.6553	0.2822	0.035
Mof_N 	N 	0.6898	0.2194	0.6728	-0.066
Mof_H 	H 	0.5911	0.2988	0.7134	0.032
Mof_H 	H 	0.7908	0.1449	0.6172	0.013
Mof_Er	Er	0.63641	0.15476	0.80109	1.911
Mof_O 	O 	0.7471	0.1258	0.7945	-0.309
Mof_O 	O 	0.7028	0.0407	0.7799	-0.294
Mof_O 	O 	0.6177	0.1301	0.9019	-0.294
Mof_O 	O 	0.5456	0.1277	0.8392	-0.309
Mof_O 	O 	0.5968	0.248	0.8668	-0.299
Mof_O 	O 	0.6579	0.1203	0.7028	-0.307
Mof_O 	O 	0.5358	0.2384	0.795	-0.298
Mof_O 	O 	0.6884	0.2091	0.7278	-0.293
Mof_N 	N 	0.7863	0.155	0.7714	-0.059
Mof_N 	N 	0.7674	0.0026	0.7765	-0.066
Mof_N 	N 	0.6331	0.1508	0.9396	-0.067
Mof_N 	N 	0.5333	0.0929	0.8833	-0.06
Mof_N 	N 	0.5527	0.3082	0.8624	-0.073
Mof_C 	C 	0.7667	0.2082	0.8065	0.047
Mof_C 	C 	0.8449	0.129	0.7111	0.059
Mof_C 	C 	0.7678	0.9827	0.8283	0.059
Mof_C 	C 	0.8286	0.9861	0.7208	0.058
Mof_C 	C 	0.7033	0.1205	0.9265	0.059
Mof_C 	C 	0.5794	0.2021	0.9866	0.064
Mof_C 	C 	0.5723	0.0255	0.865	0.046
Mof_C 	C 	0.4834	0.1227	0.9422	0.06
Mof_C 	C 	0.5829	0.3383	0.8217	0.063
Mof_C 	C 	0.4791	0.335	0.8999	0.072
Mof_H 	H 	0.724	0.2262	0.8481	0.034
Mof_C 	C 	0.8098	0.2369	0.7814	-0.095
Mof_C 	C 	0.8868	0.1569	0.6855	-0.101
Mof_H 	H 	0.8565	0.092	0.687	0.017
Mof_H 	H 	0.7227	0.9944	0.8668	0.028
Mof_C 	C 	0.8341	0.945	0.826	-0.108
Mof_C 	C 	0.8975	0.9475	0.7162	-0.105
Mof_H 	H 	0.8257	0.0003	0.6843	0.016
Mof_H 	H 	0.7408	0.0849	0.8914	0.031
Mof_C 	C 	0.7209	0.1407	0.9636	-0.109
Mof_C 	C 	0.5964	0.2238	0.0246	-0.107
Mof_H 	H 	0.5303	0.2236	0.9944	0.021
Mof_H 	H 	0.6071	0.0044	0.8214	0.034
Mof_C 	C 	0.5586	0.9908	0.9121	-0.099
Mof_C 	C 	0.4676	0.0872	0.9922	-0.101
Mof_H 	H 	0.4567	0.1686	0.9525	0.019
Mof_H 	H 	0.635	0.32	0.7988	0.027
Mof_C 	C 	0.5383	0.3959	0.813	-0.11
Mof_C 	C 	0.4334	0.3909	0.8927	-0.111
Mof_H 	H 	0.4596	0.3139	0.9317	0.012
Mof_H 	H 	0.7977	0.2732	0.807	0.062
Mof_C 	C 	0.8707	0.213	0.719	0.033
Mof_H 	H 	0.9286	0.1381	0.6435	0.061
Mof_H 	H 	0.8341	0.9302	0.8633	0.067
Mof_C 	C 	0.9017	0.9276	0.7706	0.039
Mof_H 	H 	0.9416	0.9347	0.6762	0.063
Mof_H 	H 	0.7704	0.1171	0.955	0.066
Mof_C 	C 	0.6693	0.1943	0.0131	0.047
Mof_H 	H 	0.5577	0.2596	0.0593	0.067
Mof_H 	H 	0.585	0.945	0.9001	0.063
Mof_C 	C 	0.5081	0.0194	0.9764	0.042
Mof_H 	H 	0.4304	0.1094	0.0351	0.063
Mof_H 	H 	0.5601	0.4177	0.7842	0.068
Mof_C 	C 	0.4613	0.424	0.8454	0.04
Mof_H 	H 	0.3815	0.4091	0.9193	0.067
Mof_C 	C 	0.9193	0.2419	0.6923	0.06
Mof_C 	C 	0.972	0.8943	0.7697	0.051
Mof_C 	C 	0.6894	0.2182	0.0493	0.035
Mof_C 	C 	0.4116	0.4795	0.8293	0.056
Mof_C 	C 	0.8982	0.2999	0.7193	-0.125
Mof_C 	C 	0.9901	0.2069	0.637	-0.121
Mof_C 	C 	0.9818	0.9099	0.8168	-0.127
Mof_C 	C 	0.0388	0.8479	0.714	-0.12
Mof_C 	C 	0.7569	0.1777	0.0471	-0.101
Mof_C 	C 	0.6429	0.2839	0.0897	-0.105
Mof_C 	C 	0.343	0.5242	0.8724	-0.115
Mof_C 	C 	0.4329	0.4817	0.7659	-0.117
Mof_C 	C 	0.9442	0.3243	0.6925	0.074
Mof_H 	H 	0.8514	0.3242	0.757	0.072
Mof_H 	H 	0.0062	0.1653	0.6173	0.068
Mof_C 	C 	0.0336	0.2305	0.6124	0.063
Mof_C 	C 	0.0494	0.8824	0.8089	0.08
Mof_H 	H 	0.9401	0.9404	0.8549	0.072
Mof_H 	H 	0.036	0.8347	0.68	0.07
Mof_C 	C 	0.1032	0.8237	0.7092	0.069
Mof_C 	C 	0.7798	0.2009	0.0775	0.056
Mof_H 	H 	0.7871	0.134	0.0246	0.062
Mof_H 	H 	0.5952	0.3128	0.0954	0.066
Mof_C 	C 	0.6686	0.3016	0.1173	0.058
Mof_C 	C 	0.2948	0.5735	0.8566	0.057
Mof_H 	H 	0.3261	0.5223	0.9163	0.068
Mof_H 	H 	0.4811	0.4497	0.7337	0.07
Mof_C 	C 	0.387	0.5284	0.7482	0.066
Mof_N 	N 	0.0118	0.2906	0.641	-0.068
Mof_H 	H 	0.9276	0.3664	0.7111	0.017
Mof_H 	H 	0.0806	0.2064	0.5747	0.025
Mof_N 	N 	0.109	0.8422	0.7561	-0.071
Mof_H 	H 	0.0544	0.8923	0.8427	0.011
Mof_H 	H 	0.1465	0.7926	0.6721	0.029
Mof_N 	N 	0.7354	0.263	0.1117	-0.059
Mof_H 	H 	0.8264	0.1737	0.0745	0.017
Mof_H 	H 	0.6385	0.344	0.1428	0.032
Mof_N 	N 	0.3172	0.5738	0.7943	-0.06
Mof_H 	H 	0.2473	0.6061	0.8889	0.031
Mof_H 	H 	0.4033	0.5295	0.7043	0.015
Mof_O 	O 	0.0574	0.3135	0.6177	-0.296
Mof_O 	O 	0.1771	0.8187	0.7472	-0.301
Mof_O 	O 	0.7605	0.284	0.138	-0.307
Mof_O 	O 	0.2726	0.6169	0.7762	-0.302
Mof_Er	Er	0.14926	0.28508	0.64381	1.905
Mof_Er	Er	0.2553	0.7194	0.76039	1.919
Mof_O 	O 	0.1186	0.3872	0.6202	-0.307
Mof_O 	O 	0.2194	0.2661	0.5295	-0.284
Mof_O 	O 	0.2065	0.2096	0.694	-0.296
Mof_O 	O 	0.1782	0.1828	0.6043	-0.298
Mof_O 	O 	0.2522	0.2902	0.6181	-0.312
Mof_O 	O 	0.0516	0.2813	0.7297	-0.309
Mof_O 	O 	0.1126	0.3505	0.7355	-0.292
Mof_O 	O 	0.2799	0.7956	0.7817	-0.3
Mof_O 	O 	0.2264	0.6902	0.6933	-0.306
Mof_O 	O 	0.3331	0.7235	0.6578	-0.308
Mof_O 	O 	0.3777	0.6547	0.7408	-0.294
Mof_O 	O 	0.1345	0.7393	0.8266	-0.297
Mof_N 	N 	0.0859	0.4162	0.5872	-0.062
Mof_N 	N 	0.2367	0.2167	0.4902	-0.074
Mof_N 	N 	0.2521	0.2093	0.7107	-0.067
Mof_N 	N 	0.1935	0.1304	0.6303	-0.066
Mof_N 	N 	0.2972	0.3007	0.5654	-0.056
Mof_N 	N 	0.0333	0.282	0.7914	-0.062
Mof_N 	N 	0.2689	0.85	0.7576	-0.067
Mof_N 	N 	0.2068	0.6453	0.6996	-0.065
Mof_N 	N 	0.3222	0.7325	0.6091	-0.054
Mof_N 	N 	0.4366	0.6554	0.695	-0.066
Mof_N 	N 	0.894	0.2672	0.1139	-0.06
Mof_C 	C 	0.0114	0.4565	0.6175	0.071
Mof_C 	C 	0.1263	0.4069	0.5232	0.057
Mof_C 	C 	0.1878	0.221	0.4753	0.068
Mof_C 	C 	0.3032	0.1637	0.4676	0.074
Mof_C 	C 	0.3239	0.1759	0.6717	0.068
Mof_C 	C 	0.2242	0.2417	0.7688	0.056
Mof_C 	C 	0.1374	0.1245	0.6769	0.054
Mof_C 	C 	0.2629	0.0841	0.608	0.063
Mof_C 	C 	0.3635	0.2488	0.5207	0.056
Mof_C 	C 	0.2773	0.3625	0.5578	0.045
Mof_C 	C 	0.0697	0.229	0.808	0.052
Mof_C 	C 	0.9776	0.3376	0.8351	0.062
Mof_C 	C 	0.3192	0.8476	0.7002	0.056
Mof_C 	C 	0.2051	0.9062	0.7954	0.062
Mof_C 	C 	0.136	0.6624	0.736	0.056
Mof_C 	C 	0.2609	0.5846	0.6677	0.056
Mof_C 	C 	0.2793	0.7945	0.6038	0.038
Mof_C 	C 	0.3563	0.6801	0.5637	0.054
Mof_C 	C 	0.4504	0.6985	0.7059	0.059
Mof_C 	C 	0.4757	0.6169	0.6379	0.058
Mof_C 	C 	0.8916	0.3236	0.0981	0.056
Mof_C 	C 	0.9262	0.216	0.0674	0.059
Mof_H 	H 	0.9824	0.4625	0.6626	0.013
Mof_C 	C 	0.9795	0.4871	0.5847	-0.119
Mof_C 	C 	0.0927	0.439	0.4894	-0.11
Mof_H 	H 	0.1784	0.3781	0.5015	0.033
Mof_H 	H 	0.1415	0.2599	0.49	0.024
Mof_C 	C 	0.2056	0.1694	0.4393	-0.121
Mof_C 	C 	0.3199	0.1126	0.4304	-0.124
Mof_H 	H 	0.3381	0.1615	0.4772	0.01
Mof_H 	H 	0.3431	0.1507	0.6321	0.015
Mof_C 	C 	0.3718	0.1766	0.6867	-0.112
Mof_C 	C 	0.2682	0.2446	0.787	-0.106
Mof_H 	H 	0.1724	0.263	0.7979	0.031
Mof_H 	H 	0.0879	0.1579	0.6909	0.029
Mof_C 	C 	0.1501	0.0717	0.7044	-0.109
Mof_C 	C 	0.2815	0.0285	0.6331	-0.107
Mof_H 	H 	0.3011	0.0888	0.5738	0.017
Mof_H 	H 	0.3756	0.2058	0.5262	0.017
Mof_C 	C 	0.4114	0.2595	0.4688	-0.107
Mof_C 	C 	0.3281	0.3724	0.5031	-0.102
Mof_H 	H 	0.2308	0.3979	0.5883	0.037
Mof_H 	H 	0.1125	0.1919	0.7764	0.033
Mof_C 	C 	0.0443	0.228	0.873	-0.106
Mof_C 	C 	0.9508	0.3394	0.8988	-0.112
Mof_H 	H 	0.9567	0.3762	0.8209	0.021
Mof_H 	H 	0.3636	0.8075	0.676	0.03
Mof_C 	C 	0.308	0.9027	0.6751	-0.105
Mof_C 	C 	0.1902	0.9623	0.772	-0.106
Mof_H 	H 	0.1712	0.9067	0.8374	0.017
Mof_H 	H 	0.0993	0.7067	0.7551	0.034
Mof_C 	C 	0.115	0.6163	0.7466	-0.104
Mof_C 	C 	0.2425	0.5351	0.6748	-0.102
Mof_H 	H 	0.3106	0.5745	0.6409	0.018
Mof_H 	H 	0.253	0.8308	0.637	0.038
Mof_C 	C 	0.2761	0.8018	0.5472	-0.096
Mof_C 	C 	0.3511	0.687	0.5081	-0.104
Mof_H 	H 	0.3841	0.6381	0.5694	0.02
Mof_H 	H 	0.4219	0.7251	0.7471	0.03
Mof_C 	C 	0.5079	0.7047	0.6556	-0.114
Mof_C 	C 	0.5346	0.622	0.5859	-0.107
Mof_H 	H 	0.4645	0.586	0.6317	0.015
Mof_H 	H 	0.8708	0.3587	0.1305	0.03
Mof_C 	C 	0.9185	0.3294	0.0369	-0.111
Mof_C 	C 	0.958	0.2207	0.0041	-0.108
Mof_H 	H 	0.9268	0.1772	0.0785	0.014
Mof_H 	H 	0.9271	0.5132	0.6068	0.069
Mof_C 	C 	0.0188	0.4831	0.519	0.05
Mof_H 	H 	0.1215	0.4303	0.4441	0.067
Mof_H 	H 	0.1706	0.1727	0.4293	0.071
Mof_C 	C 	0.2722	0.1117	0.416	0.058
Mof_H 	H 	0.3678	0.0752	0.4134	0.07
Mof_H 	H 	0.4234	0.1519	0.657	0.066
Mof_C 	C 	0.3474	0.212	0.7438	0.042
Mof_H 	H 	0.247	0.268	0.8282	0.066
Mof_H 	H 	0.1096	0.0693	0.738	0.067
Mof_C 	C 	0.2221	0.0214	0.6836	0.042
Mof_H 	H 	0.3318	0.9961	0.6176	0.064
Mof_H 	H 	0.4576	0.2237	0.4385	0.066
Mof_C 	C 	0.3941	0.3229	0.4587	0.041
Mof_H 	H 	0.3153	0.4154	0.4972	0.065
Mof_H 	H 	0.0685	0.1894	0.8856	0.065
Mof_C 	C 	0.9843	0.283	0.9191	0.043
Mof_H 	H 	0.91	0.3783	0.9291	0.067
Mof_H 	H 	0.3446	0.9004	0.6338	0.064
Mof_C 	C 	0.2411	0.9632	0.7113	0.041
Mof_H 	H 	0.1446	0.0012	0.7975	0.064
Mof_H 	H 	0.0649	0.6284	0.7751	0.066
Mof_C 	C 	0.1687	0.552	0.7149	0.039
Mof_H 	H 	0.2798	0.4917	0.6527	0.064
Mof_H 	H 	0.2492	0.8439	0.541	0.063
Mof_C 	C 	0.3119	0.7479	0.5005	0.038
Mof_H 	H 	0.3743	0.6501	0.4766	0.063
Mof_H 	H 	0.5183	0.7353	0.664	0.069
Mof_C 	C 	0.5485	0.6691	0.5965	0.05
Mof_H 	H 	0.5636	0.5941	0.5452	0.066
Mof_H 	H 	0.9123	0.3701	0.0269	0.067
Mof_C 	C 	0.9548	0.2781	0.9878	0.046
Mof_H 	H 	0.9821	0.1845	0.9715	0.064
Mof_C 	C 	0.2919	0.0514	0.381	0.039
Mof_C 	C 	0.3965	0.2173	0.7585	0.041
Mof_C 	C 	0.152	0.4998	0.7232	0.051
Mof_C 	C 	0.3103	0.7579	0.4394	0.055
Mof_C 	C 	0.3595	0.0114	0.3291	-0.107
Mof_C 	C 	0.2385	0.0323	0.403	-0.108
Mof_C 	C 	0.3759	0.238	0.8215	-0.105
Mof_C 	C 	0.4647	0.205	0.7097	-0.1
Mof_C 	C 	0.0856	0.5101	0.7345	-0.113
Mof_C 	C 	0.2032	0.4384	0.7189	-0.111
Mof_C 	C 	0.3687	0.716	0.3842	-0.114
Mof_C 	C 	0.2504	0.8102	0.4378	-0.124
Mof_C 	C 	0.3758	0.9558	0.3001	0.052
Mof_H 	H 	0.3963	0.023	0.3128	0.066
Mof_H 	H 	0.1899	0.0602	0.4375	0.066
Mof_C 	C 	0.2546	0.9766	0.3767	0.057
Mof_C 	C 	0.4254	0.2407	0.8331	0.06
Mof_H 	H 	0.3277	0.2502	0.8559	0.065
Mof_H 	H 	0.4798	0.1905	0.667	0.065
Mof_C 	C 	0.5118	0.2132	0.7212	0.046
Mof_C 	C 	0.0704	0.4604	0.7412	0.064
Mof_H 	H 	0.0488	0.5526	0.7378	0.069
Mof_H 	H 	0.2489	0.4301	0.713	0.07
Mof_C 	C 	0.1903	0.3876	0.7228	0.055
Mof_C 	C 	0.3678	0.7294	0.3262	0.054
Mof_H 	H 	0.4093	0.6786	0.3837	0.067
Mof_H 	H 	0.2083	0.8395	0.4765	0.07
Mof_C 	C 	0.2512	0.8198	0.3826	0.073
Mof_N 	N 	0.3244	0.9373	0.3244	-0.061
Mof_H 	H 	0.4227	0.9297	0.263	0.031
Mof_H 	H 	0.2188	0.9638	0.3934	0.017
Mof_N 	N 	0.4905	0.2309	0.7836	-0.06
Mof_H 	H 	0.4139	0.2494	0.8758	0.021
Mof_H 	H 	0.5576	0.2067	0.6869	0.037
Mof_N 	N 	0.1232	0.4003	0.734	-0.066
Mof_H 	H 	0.0232	0.4691	0.7507	0.019
Mof_H 	H 	0.2276	0.3447	0.7178	0.035
Mof_N 	N 	0.3102	0.7806	0.3272	-0.066
Mof_H 	H 	0.4089	0.7012	0.2866	0.032
Mof_H 	H 	0.2092	0.8551	0.3828	0.013
_end
