# CIF file generated by openbabel 3.1.0, see https://openbabel.org
data_I
_chemical_name_common 'TOTVUV_clean'
_cell_length_a 7.3781
_cell_length_b 13.574
_cell_length_c 13.578
_cell_angle_alpha 113.181
_cell_angle_beta 103.841
_cell_angle_gamma 90.952
_space_group_name_H-M_alt 'P 1'
_space_group_name_Hall 'P 1'
loop_
    _symmetry_equiv_pos_as_xyz
    x,y,z
loop_
    _atom_site_label
    _atom_site_type_symbol
    _atom_site_fract_x
    _atom_site_fract_y
    _atom_site_fract_z
    _atom_site_occupancy
    Cd1      Cd       0.31565    0.22785    0.98577    1.000
    Cd2      Cd       0.36573    0.76845    0.60502    1.000
    Cd3      Cd       0.82032    0.24499    0.00416    1.000
    Cd4      Cd       0.60071    0.43771    0.23774    1.000
    Cd5      Cd       0.17968    0.75501    0.99584    1.000
    Cd6      Cd       0.39929    0.56229    0.76226    1.000
    Cd7      Cd       0.68435    0.77215    0.01423    1.000
    Cd8      Cd       0.63427    0.23155    0.39498    1.000
    Cd9      Cd       0.50000    0.50000    0.50000    1.000
    H1       H        0.08040    0.22530    0.51850    1.000
    H2       H        0.78380    0.40020    0.75360    1.000
    H3       H        0.80650    0.71690    0.35630    1.000
    H4       H        0.90460    0.40520    0.86730    1.000
    H5       H        0.82580    0.89370    0.73380    1.000
    H6       H        0.07060    0.99920    0.16540    1.000
    H7       H        0.09540    0.59480    0.13270    1.000
    H8       H        0.91960    0.77470    0.48150    1.000
    H9       H        0.17420    0.10630    0.26620    1.000
    H10      H        0.21620    0.59980    0.24640    1.000
    H11      H        0.92940    0.00080    0.83460    1.000
    H12      H        0.19350    0.28310    0.64370    1.000
    C1       C        0.95890    0.61760    0.41170    1.000
    C2       C        0.37160    0.59680    0.14250    1.000
    C3       C        0.83090    0.94140    0.80990    1.000
    C4       C        0.66690    0.69390    0.46040    1.000
    C5       C        0.62840    0.40320    0.85750    1.000
    C6       C        0.16910    0.05860    0.19010    1.000
    C7       C        0.64680    0.98450    0.81400    1.000
    C8       C        0.19880    0.56540    0.16660    1.000
    C9       C        0.15700    0.29140    0.57410    1.000
    C10      C        0.14020    0.44490    0.12800    1.000
    C11      C        0.33310    0.30610    0.53960    1.000
    C12      C        0.35320    0.01550    0.18600    1.000
    C13      C        0.80120    0.43460    0.83340    1.000
    C14      C        0.85980    0.55510    0.87200    1.000
    C15      C        0.12230    0.12060    0.11610    1.000
    C16      C        0.04110    0.38240    0.58830    1.000
    C17      C        0.84300    0.70860    0.42590    1.000
    C18      C        0.87770    0.87940    0.88390    1.000
    N1       N        0.62660    0.08220    0.88290    1.000
    N2       N        0.65830    0.60690    0.13200    1.000
    N3       N        0.34830    0.98920    0.79440    1.000
    N4       N        0.04810    0.81440    0.21130    1.000
    N5       N        0.88490    0.16650    0.69880    1.000
    N6       N        0.18900    0.52750    0.43190    1.000
    N7       N        0.43770    0.08230    0.86870    1.000
    N8       N        0.04290    0.45810    0.36450    1.000
    N9       N        0.65170    0.01080    0.20560    1.000
    N10      N        0.98540    0.79130    0.11540    1.000
    N11      N        0.10200    0.48610    0.64860    1.000
    N12      N        0.61460    0.33490    0.90410    1.000
    N13      N        0.34170    0.39310    0.86800    1.000
    N14      N        0.37340    0.91780    0.11710    1.000
    N15      N        0.95190    0.18560    0.78870    1.000
    N16      N        0.53790    0.55910    0.16470    1.000
    N17      N        0.11510    0.83350    0.30120    1.000
    N18      N        0.56570    0.66920    0.09040    1.000
    N19      N        0.95710    0.54190    0.63550    1.000
    N20      N        0.46210    0.44090    0.83530    1.000
    N21      N        0.81100    0.47250    0.56810    1.000
    N22      N        0.38540    0.66510    0.09590    1.000
    N23      N        0.86010    0.37200    0.53740    1.000
    N24      N        0.56230    0.91770    0.13130    1.000
    N25      N        0.89800    0.51390    0.35140    1.000
    N26      N        0.01460    0.20870    0.88460    1.000
    N27      N        0.13990    0.62800    0.46260    1.000
    N28      N        0.52040    0.07360    0.24210    1.000
    N29      N        0.47960    0.92640    0.75790    1.000
    N30      N        0.43430    0.33080    0.90960    1.000
    O1       O        0.57310    0.60100    0.41150    1.000
    O2       O        0.62060    0.77370    0.53040    1.000
    O3       O        0.02880    0.83760    0.88500    1.000
    O4       O        0.42690    0.39900    0.58850    1.000
    O5       O        0.26950    0.38470    0.13350    1.000
    O6       O        0.50280    0.64110    0.66060    1.000
    O7       O        0.37940    0.22630    0.46960    1.000
    O8       O        0.61020    0.27610    0.10800    1.000
    O9       O        0.76510    0.87700    0.93770    1.000
    O10      O        0.23490    0.12300    0.06230    1.000
    O11      O        0.97010    0.41440    0.09600    1.000
    O12      O        0.49720    0.35890    0.33940    1.000
    O13      O        0.73050    0.61530    0.86650    1.000
    O14      O        0.02990    0.58560    0.90400    1.000
    O15      O        0.38980    0.72390    0.89200    1.000
    O16      O        0.97120    0.16240    0.11500    1.000
