# CIF file generated by openbabel 3.1.0, see https://openbabel.org
data_I
_chemical_name_common 'image0'
_cell_length_a 23.068
_cell_length_b 19.934
_cell_length_c 22.714
_cell_angle_alpha 90
_cell_angle_beta 115.85
_cell_angle_gamma 90
_space_group_name_H-M_alt 'P 1'
_space_group_name_Hall 'P 1'
loop_
    _symmetry_equiv_pos_as_xyz
    x,y,z
loop_
    _atom_site_label
    _atom_site_type_symbol
    _atom_site_fract_x
    _atom_site_fract_y
    _atom_site_fract_z
    _atom_site_occupancy
    Eu1      Eu       0.79100    0.09130    0.25077    1.000
    O1       O        0.79610    0.99490    0.18910    1.000
    O2       O        0.85130    0.13970    0.19820    1.000
    O3       O        0.77350    0.99660    0.32210    1.000
    O4       O        0.78540    0.09600    0.36320    1.000
    O5       O        0.67190    0.02150    0.18610    1.000
    O6       O        0.67550    0.10770    0.24260    1.000
    O7       O        0.71000    0.12870    0.12970    1.000
    O8       O        0.73720    0.20990    0.19870    1.000
    O9       O        0.89370    0.05170    0.33530    1.000
    C1       C        0.83160    0.96400    0.16910    1.000
    C2       C        0.89860    0.13700    0.18820    1.000
    N1       N        0.77800    0.03400    0.36790    1.000
    N2       N        0.64600    0.06370    0.20710    1.000
    N3       N        0.70880    0.19180    0.14030    1.000
    C3       C        0.79830    0.92930    0.10340    1.000
    O10      O        0.89030    0.95690    0.19960    1.000
    C4       C        0.91560    0.19460    0.15510    1.000
    O11      O        0.94820    0.09830    0.22210    1.000
    O12      O        0.77740    0.01130    0.41810    1.000
    O13      O        0.58510    0.06200    0.18740    1.000
    O14      O        0.68100    0.23050    0.09390    1.000
    O15      O        0.98610    0.00560    0.34880    1.000
    C5       C        0.83620    0.90060    0.07650    1.000
    C6       C        0.73260    0.92450    0.07190    1.000
    C7       C        0.87120    0.24520    0.12800    1.000
    C8       C        0.97360    0.19790    0.15190    1.000
    H1       H        0.88080    0.90320    0.09860    1.000
    C9       C        0.80750    0.86830    0.01710    1.000
    C10      C        0.70270    0.88910    0.01300    1.000
    H2       H        0.70760    0.94500    0.08970    1.000
    O16      O        0.99990    0.87280    0.29790    1.000
    H3       H        0.83180    0.24330    0.13000    1.000
    C11      C        0.88580    0.30030    0.09720    1.000
    C12      C        0.98840    0.25120    0.12110    1.000
    H4       H        0.00370    0.16390    0.17070    1.000
    H5       H        0.83250    0.85090    0.99780    1.000
    C13      C        0.74090    0.86190    0.98640    1.000
    H6       H        0.65820    0.88410    0.99240    1.000
    H7       H        0.85630    0.33470    0.07840    1.000
    C14      C        0.94420    0.30140    0.09600    1.000
    H8       H        0.02720    0.25250    0.11790    1.000
    N4       N        0.71190    0.82510    0.92460    1.000
    N5       N        0.96030    0.35940    0.06760    1.000
    C15      C        0.74400    0.77450    0.91360    1.000
    C16      C        0.65340    0.84260    0.87840    1.000
    C17      C        0.92090    0.38130    0.00630    1.000
    C18      C        0.01730    0.38950    0.09920    1.000
    H9       H        0.78330    0.76110    0.94680    1.000
    C19      C        0.72030    0.74190    0.85440    1.000
    C20      C        0.62650    0.80980    0.81940    1.000
    H10      H        0.63090    0.87720    0.88660    1.000
    H11      H        0.88280    0.35820    0.98190    1.000
    C21      C        0.93510    0.43510    0.98000    1.000
    C22      C        0.03480    0.44400    0.07430    1.000
    H12      H        0.04610    0.37280    0.13970    1.000
    H13      H        0.74410    0.70790    0.84720    1.000
    C23      C        0.66110    0.75970    0.80570    1.000
    H14      H        0.58530    0.82100    0.78850    1.000
    H15      H        0.90680    0.44880    0.93810    1.000
    C24      C        0.99070    0.47050    0.01390    1.000
    H16      H        0.07530    0.46320    0.09680    1.000
    C25      C        0.63350    0.72560    0.73970    1.000
    C26      C        0.65300    0.66210    0.73320    1.000
    C27      C        0.58700    0.75660    0.68550    1.000
    H17      H        0.68560    0.64090    0.76870    1.000
    C28      C        0.62370    0.62980    0.67340    1.000
    C29      C        0.56080    0.72410    0.62670    1.000
    H18      H        0.57350    0.79980    0.68900    1.000
    H19      H        0.63560    0.58610    0.66930    1.000
    N6       N        0.57860    0.66050    0.62180    1.000
    H20      H        0.53060    0.74570    0.58980    1.000
    C30      C        0.54650    0.62680    0.55820    1.000
    C31      C        0.58320    0.59280    0.53350    1.000
    C32      C        0.48090    0.62940    0.52590    1.000
    H21      H        0.62760    0.58960    0.55740    1.000
    C33      C        0.55190    0.56350    0.47170    1.000
    C34      C        0.45070    0.60060    0.46460    1.000
    H22      H        0.45700    0.65010    0.54470    1.000
    H23      H        0.57580    0.54070    0.45400    1.000
    C35      C        0.48570    0.56810    0.43650    1.000
    H24      H        0.40610    0.60300    0.44170    1.000
    C36      C        0.45260    0.53990    0.36850    1.000
    O17      O        0.92270    0.07800    0.18320    1.000
    Eu2      Eu       0.29100    0.59130    0.25077    1.000
    O18      O        0.29610    0.49490    0.18910    1.000
    O19      O        0.35130    0.63970    0.19820    1.000
    O20      O        0.27350    0.49660    0.32210    1.000
    O21      O        0.28540    0.59600    0.36320    1.000
    O22      O        0.17190    0.52150    0.18610    1.000
    O23      O        0.17550    0.60770    0.24260    1.000
    O24      O        0.21000    0.62870    0.12970    1.000
    O25      O        0.23720    0.70990    0.19870    1.000
    O26      O        0.39370    0.55170    0.33530    1.000
    C37      C        0.33160    0.46400    0.16910    1.000
    C38      C        0.39860    0.63700    0.18820    1.000
    N7       N        0.27800    0.53400    0.36790    1.000
    N8       N        0.14600    0.56370    0.20710    1.000
    N9       N        0.20880    0.69180    0.14030    1.000
    C39      C        0.29830    0.42930    0.10340    1.000
    O27      O        0.39030    0.45690    0.19960    1.000
    C40      C        0.41560    0.69460    0.15510    1.000
    O28      O        0.44820    0.59830    0.22210    1.000
    O29      O        0.27740    0.51130    0.41810    1.000
    O30      O        0.08510    0.56200    0.18740    1.000
    O31      O        0.18100    0.73050    0.09390    1.000
    O32      O        0.48610    0.50560    0.34880    1.000
    C41      C        0.33620    0.40060    0.07650    1.000
    C42      C        0.23260    0.42450    0.07190    1.000
    C43      C        0.37120    0.74520    0.12800    1.000
    C44      C        0.47360    0.69790    0.15190    1.000
    H25      H        0.38080    0.40320    0.09860    1.000
    C45      C        0.30750    0.36830    0.01710    1.000
    C46      C        0.20270    0.38910    0.01300    1.000
    H26      H        0.20760    0.44500    0.08970    1.000
    O33      O        0.49990    0.37280    0.29790    1.000
    H27      H        0.33180    0.74330    0.13000    1.000
    C47      C        0.38580    0.80030    0.09720    1.000
    C48      C        0.48840    0.75120    0.12110    1.000
    H28      H        0.50370    0.66390    0.17070    1.000
    H29      H        0.33250    0.35090    0.99780    1.000
    C49      C        0.24090    0.36190    0.98640    1.000
    H30      H        0.15820    0.38410    0.99240    1.000
    H31      H        0.35630    0.83470    0.07840    1.000
    C50      C        0.44420    0.80140    0.09600    1.000
    H32      H        0.52720    0.75250    0.11790    1.000
    N10      N        0.21190    0.32510    0.92460    1.000
    N11      N        0.46030    0.85940    0.06760    1.000
    C51      C        0.24400    0.27450    0.91360    1.000
    C52      C        0.15340    0.34260    0.87840    1.000
    C53      C        0.42090    0.88130    0.00630    1.000
    C54      C        0.51730    0.88950    0.09920    1.000
    H33      H        0.28330    0.26110    0.94680    1.000
    C55      C        0.22030    0.24190    0.85440    1.000
    C56      C        0.12650    0.30980    0.81940    1.000
    H34      H        0.13090    0.37720    0.88660    1.000
    H35      H        0.38280    0.85820    0.98190    1.000
    C57      C        0.43510    0.93510    0.98000    1.000
    C58      C        0.53480    0.94400    0.07430    1.000
    H36      H        0.54610    0.87280    0.13970    1.000
    H37      H        0.24410    0.20790    0.84720    1.000
    C59      C        0.16110    0.25970    0.80570    1.000
    H38      H        0.08530    0.32100    0.78850    1.000
    H39      H        0.40680    0.94880    0.93810    1.000
    C60      C        0.49070    0.97050    0.01390    1.000
    H40      H        0.57530    0.96320    0.09680    1.000
    C61      C        0.13350    0.22560    0.73970    1.000
    C62      C        0.15300    0.16210    0.73320    1.000
    C63      C        0.08700    0.25660    0.68550    1.000
    H41      H        0.18560    0.14090    0.76870    1.000
    C64      C        0.12370    0.12980    0.67340    1.000
    C65      C        0.06080    0.22410    0.62670    1.000
    H42      H        0.07350    0.29980    0.68900    1.000
    H43      H        0.13560    0.08610    0.66930    1.000
    N12      N        0.07860    0.16050    0.62180    1.000
    H44      H        0.03060    0.24570    0.58980    1.000
    C66      C        0.04650    0.12680    0.55820    1.000
    C67      C        0.08320    0.09280    0.53350    1.000
    C68      C        0.98090    0.12940    0.52590    1.000
    H45      H        0.12760    0.08960    0.55740    1.000
    C69      C        0.05190    0.06350    0.47170    1.000
    C70      C        0.95070    0.10060    0.46460    1.000
    H46      H        0.95700    0.15010    0.54470    1.000
    H47      H        0.07580    0.04070    0.45400    1.000
    C71      C        0.98570    0.06810    0.43650    1.000
    H48      H        0.90610    0.10300    0.44170    1.000
    C72      C        0.95260    0.03990    0.36850    1.000
    O34      O        0.42270    0.57800    0.18320    1.000
    Eu3      Eu       0.20900    0.09130    0.24923    1.000
    O35      O        0.20390    0.99490    0.31090    1.000
    O36      O        0.14870    0.13970    0.30180    1.000
    O37      O        0.22650    0.99660    0.17790    1.000
    O38      O        0.21460    0.09600    0.13680    1.000
    O39      O        0.32810    0.02150    0.31390    1.000
    O40      O        0.32450    0.10770    0.25740    1.000
    O41      O        0.29000    0.12870    0.37030    1.000
    O42      O        0.26280    0.20990    0.30130    1.000
    O43      O        0.10630    0.05170    0.16470    1.000
    C73      C        0.16840    0.96400    0.33090    1.000
    C74      C        0.10140    0.13700    0.31180    1.000
    N13      N        0.22200    0.03400    0.13210    1.000
    N14      N        0.35400    0.06370    0.29290    1.000
    N15      N        0.29120    0.19180    0.35970    1.000
    C75      C        0.20170    0.92930    0.39660    1.000
    O44      O        0.10970    0.95690    0.30040    1.000
    C76      C        0.08440    0.19460    0.34490    1.000
    O45      O        0.05180    0.09830    0.27790    1.000
    O46      O        0.22260    0.01130    0.08190    1.000
    O47      O        0.41490    0.06200    0.31260    1.000
    O48      O        0.31900    0.23050    0.40610    1.000
    O49      O        0.01390    0.00560    0.15120    1.000
    C77      C        0.16380    0.90060    0.42350    1.000
    C78      C        0.26740    0.92450    0.42810    1.000
    C79      C        0.12880    0.24520    0.37200    1.000
    C80      C        0.02640    0.19790    0.34810    1.000
    H49      H        0.11920    0.90320    0.40140    1.000
    C81      C        0.19250    0.86830    0.48290    1.000
    C82      C        0.29730    0.88910    0.48700    1.000
    H50      H        0.29240    0.94500    0.41030    1.000
    O50      O        0.00010    0.87280    0.20210    1.000
    H51      H        0.16820    0.24330    0.37000    1.000
    C83      C        0.11420    0.30030    0.40280    1.000
    C84      C        0.01160    0.25120    0.37890    1.000
    H52      H        0.99630    0.16390    0.32930    1.000
    H53      H        0.16750    0.85090    0.50220    1.000
    C85      C        0.25910    0.86190    0.51360    1.000
    H54      H        0.34180    0.88410    0.50760    1.000
    H55      H        0.14370    0.33470    0.42160    1.000
    C86      C        0.05580    0.30140    0.40400    1.000
    H56      H        0.97280    0.25250    0.38210    1.000
    N16      N        0.28810    0.82510    0.57540    1.000
    N17      N        0.03970    0.35940    0.43240    1.000
    C87      C        0.25600    0.77450    0.58640    1.000
    C88      C        0.34660    0.84260    0.62160    1.000
    C89      C        0.07910    0.38130    0.49370    1.000
    C90      C        0.98270    0.38950    0.40080    1.000
    H57      H        0.21670    0.76110    0.55320    1.000
    C91      C        0.27970    0.74190    0.64560    1.000
    C92      C        0.37350    0.80980    0.68060    1.000
    H58      H        0.36910    0.87720    0.61340    1.000
    H59      H        0.11720    0.35820    0.51810    1.000
    C93      C        0.06490    0.43510    0.52000    1.000
    C94      C        0.96520    0.44400    0.42570    1.000
    H60      H        0.95390    0.37280    0.36030    1.000
    H61      H        0.25590    0.70790    0.65280    1.000
    C95      C        0.33890    0.75970    0.69430    1.000
    H62      H        0.41470    0.82100    0.71150    1.000
    H63      H        0.09320    0.44880    0.56190    1.000
    C96      C        0.00930    0.47050    0.48610    1.000
    H64      H        0.92470    0.46320    0.40320    1.000
    C97      C        0.36650    0.72560    0.76030    1.000
    C98      C        0.34700    0.66210    0.76680    1.000
    C99      C        0.41300    0.75660    0.81450    1.000
    H65      H        0.31440    0.64090    0.73130    1.000
    C100     C        0.37630    0.62980    0.82660    1.000
    C101     C        0.43920    0.72410    0.87330    1.000
    H66      H        0.42650    0.79980    0.81100    1.000
    H67      H        0.36440    0.58610    0.83070    1.000
    N18      N        0.42140    0.66050    0.87820    1.000
    H68      H        0.46940    0.74570    0.91020    1.000
    C102     C        0.45350    0.62680    0.94180    1.000
    C103     C        0.41680    0.59280    0.96650    1.000
    C104     C        0.51910    0.62940    0.97410    1.000
    H69      H        0.37240    0.58960    0.94260    1.000
    C105     C        0.44810    0.56350    0.02830    1.000
    C106     C        0.54930    0.60060    0.03540    1.000
    H70      H        0.54300    0.65010    0.95530    1.000
    H71      H        0.42420    0.54070    0.04600    1.000
    C107     C        0.51430    0.56810    0.06350    1.000
    H72      H        0.59390    0.60300    0.05830    1.000
    C108     C        0.54740    0.53990    0.13150    1.000
    O51      O        0.07730    0.07800    0.31680    1.000
    Eu4      Eu       0.70900    0.59130    0.24923    1.000
    O52      O        0.70390    0.49490    0.31090    1.000
    O53      O        0.64870    0.63970    0.30180    1.000
    O54      O        0.72650    0.49660    0.17790    1.000
    O55      O        0.71460    0.59600    0.13680    1.000
    O56      O        0.82810    0.52150    0.31390    1.000
    O57      O        0.82450    0.60770    0.25740    1.000
    O58      O        0.79000    0.62870    0.37030    1.000
    O59      O        0.76280    0.70990    0.30130    1.000
    O60      O        0.60630    0.55170    0.16470    1.000
    C109     C        0.66840    0.46400    0.33090    1.000
    C110     C        0.60140    0.63700    0.31180    1.000
    N19      N        0.72200    0.53400    0.13210    1.000
    N20      N        0.85400    0.56370    0.29290    1.000
    N21      N        0.79120    0.69180    0.35970    1.000
    C111     C        0.70170    0.42930    0.39660    1.000
    O61      O        0.60970    0.45690    0.30040    1.000
    C112     C        0.58440    0.69460    0.34490    1.000
    O62      O        0.55180    0.59830    0.27790    1.000
    O63      O        0.72260    0.51130    0.08190    1.000
    O64      O        0.91490    0.56200    0.31260    1.000
    O65      O        0.81900    0.73050    0.40610    1.000
    O66      O        0.51390    0.50560    0.15120    1.000
    C113     C        0.66380    0.40060    0.42350    1.000
    C114     C        0.76740    0.42450    0.42810    1.000
    C115     C        0.62880    0.74520    0.37200    1.000
    C116     C        0.52640    0.69790    0.34810    1.000
    H73      H        0.61920    0.40320    0.40140    1.000
    C117     C        0.69250    0.36830    0.48290    1.000
    C118     C        0.79730    0.38910    0.48700    1.000
    H74      H        0.79240    0.44500    0.41030    1.000
    O67      O        0.50010    0.37280    0.20210    1.000
    H75      H        0.66820    0.74330    0.37000    1.000
    C119     C        0.61420    0.80030    0.40280    1.000
    C120     C        0.51160    0.75120    0.37890    1.000
    H76      H        0.49630    0.66390    0.32930    1.000
    H77      H        0.66750    0.35090    0.50220    1.000
    C121     C        0.75910    0.36190    0.51360    1.000
    H78      H        0.84180    0.38410    0.50760    1.000
    H79      H        0.64370    0.83470    0.42160    1.000
    C122     C        0.55580    0.80140    0.40400    1.000
    H80      H        0.47280    0.75250    0.38210    1.000
    N22      N        0.78810    0.32510    0.57540    1.000
    N23      N        0.53970    0.85940    0.43240    1.000
    C123     C        0.75600    0.27450    0.58640    1.000
    C124     C        0.84660    0.34260    0.62160    1.000
    C125     C        0.57910    0.88130    0.49370    1.000
    C126     C        0.48270    0.88950    0.40080    1.000
    H81      H        0.71670    0.26110    0.55320    1.000
    C127     C        0.77970    0.24190    0.64560    1.000
    C128     C        0.87350    0.30980    0.68060    1.000
    H82      H        0.86910    0.37720    0.61340    1.000
    H83      H        0.61720    0.85820    0.51810    1.000
    C129     C        0.56490    0.93510    0.52000    1.000
    C130     C        0.46520    0.94400    0.42570    1.000
    H84      H        0.45390    0.87280    0.36030    1.000
    H85      H        0.75590    0.20790    0.65280    1.000
    C131     C        0.83890    0.25970    0.69430    1.000
    H86      H        0.91470    0.32100    0.71150    1.000
    H87      H        0.59320    0.94880    0.56190    1.000
    C132     C        0.50930    0.97050    0.48610    1.000
    H88      H        0.42470    0.96320    0.40320    1.000
    C133     C        0.86650    0.22560    0.76030    1.000
    C134     C        0.84700    0.16210    0.76680    1.000
    C135     C        0.91300    0.25660    0.81450    1.000
    H89      H        0.81440    0.14090    0.73130    1.000
    C136     C        0.87630    0.12980    0.82660    1.000
    C137     C        0.93920    0.22410    0.87330    1.000
    H90      H        0.92650    0.29980    0.81100    1.000
    H91      H        0.86440    0.08610    0.83070    1.000
    N24      N        0.92140    0.16050    0.87820    1.000
    H92      H        0.96940    0.24570    0.91020    1.000
    C138     C        0.95350    0.12680    0.94180    1.000
    C139     C        0.91680    0.09280    0.96650    1.000
    C140     C        0.01910    0.12940    0.97410    1.000
    H93      H        0.87240    0.08960    0.94260    1.000
    C141     C        0.94810    0.06350    0.02830    1.000
    C142     C        0.04930    0.10060    0.03540    1.000
    H94      H        0.04300    0.15010    0.95530    1.000
    H95      H        0.92420    0.04070    0.04600    1.000
    C143     C        0.01430    0.06810    0.06350    1.000
    H96      H        0.09390    0.10300    0.05830    1.000
    C144     C        0.04740    0.03990    0.13150    1.000
    O68      O        0.57730    0.57800    0.31680    1.000
    Eu5      Eu       0.20900    0.90870    0.74923    1.000
    O69      O        0.20390    0.00510    0.81090    1.000
    O70      O        0.14870    0.86030    0.80180    1.000
    O71      O        0.22650    0.00340    0.67790    1.000
    O72      O        0.21460    0.90400    0.63680    1.000
    O73      O        0.32810    0.97850    0.81390    1.000
    O74      O        0.32450    0.89230    0.75740    1.000
    O75      O        0.29000    0.87130    0.87030    1.000
    O76      O        0.26280    0.79010    0.80130    1.000
    O77      O        0.10630    0.94830    0.66470    1.000
    C145     C        0.16840    0.03600    0.83090    1.000
    C146     C        0.10140    0.86300    0.81180    1.000
    N25      N        0.22200    0.96600    0.63210    1.000
    N26      N        0.35400    0.93630    0.79290    1.000
    N27      N        0.29120    0.80820    0.85970    1.000
    C147     C        0.20170    0.07070    0.89660    1.000
    O78      O        0.10970    0.04310    0.80040    1.000
    C148     C        0.08440    0.80540    0.84490    1.000
    O79      O        0.05180    0.90170    0.77790    1.000
    O80      O        0.22260    0.98870    0.58190    1.000
    O81      O        0.41490    0.93800    0.81260    1.000
    O82      O        0.31900    0.76950    0.90610    1.000
    O83      O        0.01390    0.99440    0.65120    1.000
    C149     C        0.16380    0.09940    0.92350    1.000
    C150     C        0.26740    0.07550    0.92810    1.000
    C151     C        0.12880    0.75480    0.87200    1.000
    C152     C        0.02640    0.80210    0.84810    1.000
    H97      H        0.11920    0.09680    0.90140    1.000
    C153     C        0.19250    0.13170    0.98290    1.000
    C154     C        0.29730    0.11090    0.98700    1.000
    H98      H        0.29240    0.05500    0.91030    1.000
    O84      O        0.00010    0.12720    0.70210    1.000
    H99      H        0.16820    0.75670    0.87000    1.000
    C155     C        0.11420    0.69970    0.90280    1.000
    C156     C        0.01160    0.74880    0.87890    1.000
    H100     H        0.99630    0.83610    0.82930    1.000
    H101     H        0.16750    0.14910    0.00220    1.000
    C157     C        0.25910    0.13810    0.01360    1.000
    H102     H        0.34180    0.11590    0.00760    1.000
    H103     H        0.14370    0.66530    0.92160    1.000
    C158     C        0.05580    0.69860    0.90400    1.000
    H104     H        0.97280    0.74750    0.88210    1.000
    N28      N        0.28810    0.17490    0.07540    1.000
    N29      N        0.03970    0.64060    0.93240    1.000
    C159     C        0.25600    0.22550    0.08640    1.000
    C160     C        0.34660    0.15740    0.12160    1.000
    C161     C        0.07910    0.61870    0.99370    1.000
    C162     C        0.98270    0.61050    0.90080    1.000
    H105     H        0.21670    0.23890    0.05320    1.000
    C163     C        0.27970    0.25810    0.14560    1.000
    C164     C        0.37350    0.19020    0.18060    1.000
    H106     H        0.36910    0.12280    0.11340    1.000
    H107     H        0.11720    0.64180    0.01810    1.000
    C165     C        0.06490    0.56490    0.02000    1.000
    C166     C        0.96520    0.55600    0.92570    1.000
    H108     H        0.95390    0.62720    0.86030    1.000
    H109     H        0.25590    0.29210    0.15280    1.000
    C167     C        0.33890    0.24030    0.19430    1.000
    H110     H        0.41470    0.17900    0.21150    1.000
    H111     H        0.09320    0.55120    0.06190    1.000
    C168     C        0.00930    0.52950    0.98610    1.000
    H112     H        0.92470    0.53680    0.90320    1.000
    C169     C        0.36650    0.27440    0.26030    1.000
    C170     C        0.34700    0.33790    0.26680    1.000
    C171     C        0.41300    0.24340    0.31450    1.000
    H113     H        0.31440    0.35910    0.23130    1.000
    C172     C        0.37630    0.37020    0.32660    1.000
    C173     C        0.43920    0.27590    0.37330    1.000
    H114     H        0.42650    0.20020    0.31100    1.000
    H115     H        0.36440    0.41390    0.33070    1.000
    N30      N        0.42140    0.33950    0.37820    1.000
    H116     H        0.46940    0.25430    0.41020    1.000
    C174     C        0.45350    0.37320    0.44180    1.000
    C175     C        0.41680    0.40720    0.46650    1.000
    C176     C        0.51910    0.37060    0.47410    1.000
    H117     H        0.37240    0.41040    0.44260    1.000
    C177     C        0.44810    0.43650    0.52830    1.000
    C178     C        0.54930    0.39940    0.53540    1.000
    H118     H        0.54300    0.34990    0.45530    1.000
    H119     H        0.42420    0.45930    0.54600    1.000
    C179     C        0.51430    0.43190    0.56350    1.000
    H120     H        0.59390    0.39700    0.55830    1.000
    C180     C        0.54740    0.46010    0.63150    1.000
    O85      O        0.07730    0.92200    0.81680    1.000
    Eu6      Eu       0.70900    0.40870    0.74923    1.000
    O86      O        0.70390    0.50510    0.81090    1.000
    O87      O        0.64870    0.36030    0.80180    1.000
    O88      O        0.72650    0.50340    0.67790    1.000
    O89      O        0.71460    0.40400    0.63680    1.000
    O90      O        0.82810    0.47850    0.81390    1.000
    O91      O        0.82450    0.39230    0.75740    1.000
    O92      O        0.79000    0.37130    0.87030    1.000
    O93      O        0.76280    0.29010    0.80130    1.000
    O94      O        0.60630    0.44830    0.66470    1.000
    C181     C        0.66840    0.53600    0.83090    1.000
    C182     C        0.60140    0.36300    0.81180    1.000
    N31      N        0.72200    0.46600    0.63210    1.000
    N32      N        0.85400    0.43630    0.79290    1.000
    N33      N        0.79120    0.30820    0.85970    1.000
    C183     C        0.70170    0.57070    0.89660    1.000
    O95      O        0.60970    0.54310    0.80040    1.000
    C184     C        0.58440    0.30540    0.84490    1.000
    O96      O        0.55180    0.40170    0.77790    1.000
    O97      O        0.72260    0.48870    0.58190    1.000
    O98      O        0.91490    0.43800    0.81260    1.000
    O99      O        0.81900    0.26950    0.90610    1.000
    O100     O        0.51390    0.49440    0.65120    1.000
    C185     C        0.66380    0.59940    0.92350    1.000
    C186     C        0.76740    0.57550    0.92810    1.000
    C187     C        0.62880    0.25480    0.87200    1.000
    C188     C        0.52640    0.30210    0.84810    1.000
    H121     H        0.61920    0.59680    0.90140    1.000
    C189     C        0.69250    0.63170    0.98290    1.000
    C190     C        0.79730    0.61090    0.98700    1.000
    H122     H        0.79240    0.55500    0.91030    1.000
    O101     O        0.50010    0.62720    0.70210    1.000
    H123     H        0.66820    0.25670    0.87000    1.000
    C191     C        0.61420    0.19970    0.90280    1.000
    C192     C        0.51160    0.24880    0.87890    1.000
    H124     H        0.49630    0.33610    0.82930    1.000
    H125     H        0.66750    0.64910    0.00220    1.000
    C193     C        0.75910    0.63810    0.01360    1.000
    H126     H        0.84180    0.61590    0.00760    1.000
    H127     H        0.64370    0.16530    0.92160    1.000
    C194     C        0.55580    0.19860    0.90400    1.000
    H128     H        0.47280    0.24750    0.88210    1.000
    N34      N        0.78810    0.67490    0.07540    1.000
    N35      N        0.53970    0.14060    0.93240    1.000
    C195     C        0.75600    0.72550    0.08640    1.000
    C196     C        0.84660    0.65740    0.12160    1.000
    C197     C        0.57910    0.11870    0.99370    1.000
    C198     C        0.48270    0.11050    0.90080    1.000
    H129     H        0.71670    0.73890    0.05320    1.000
    C199     C        0.77970    0.75810    0.14560    1.000
    C200     C        0.87350    0.69020    0.18060    1.000
    H130     H        0.86910    0.62280    0.11340    1.000
    H131     H        0.61720    0.14180    0.01810    1.000
    C201     C        0.56490    0.06490    0.02000    1.000
    C202     C        0.46520    0.05600    0.92570    1.000
    H132     H        0.45390    0.12720    0.86030    1.000
    H133     H        0.75590    0.79210    0.15280    1.000
    C203     C        0.83890    0.74030    0.19430    1.000
    H134     H        0.91470    0.67900    0.21150    1.000
    H135     H        0.59320    0.05120    0.06190    1.000
    C204     C        0.50930    0.02950    0.98610    1.000
    H136     H        0.42470    0.03680    0.90320    1.000
    C205     C        0.86650    0.77440    0.26030    1.000
    C206     C        0.84700    0.83790    0.26680    1.000
    C207     C        0.91300    0.74340    0.31450    1.000
    H137     H        0.81440    0.85910    0.23130    1.000
    C208     C        0.87630    0.87020    0.32660    1.000
    C209     C        0.93920    0.77590    0.37330    1.000
    H138     H        0.92650    0.70020    0.31100    1.000
    H139     H        0.86440    0.91390    0.33070    1.000
    N36      N        0.92140    0.83950    0.37820    1.000
    H140     H        0.96940    0.75430    0.41020    1.000
    C210     C        0.95350    0.87320    0.44180    1.000
    C211     C        0.91680    0.90720    0.46650    1.000
    C212     C        0.01910    0.87060    0.47410    1.000
    H141     H        0.87240    0.91040    0.44260    1.000
    C213     C        0.94810    0.93650    0.52830    1.000
    C214     C        0.04930    0.89940    0.53540    1.000
    H142     H        0.04300    0.84990    0.45530    1.000
    H143     H        0.92420    0.95930    0.54600    1.000
    C215     C        0.01430    0.93190    0.56350    1.000
    H144     H        0.09390    0.89700    0.55830    1.000
    C216     C        0.04740    0.96010    0.63150    1.000
    O102     O        0.57730    0.42200    0.81680    1.000
    Eu7      Eu       0.79100    0.90870    0.75077    1.000
    O103     O        0.79610    0.00510    0.68910    1.000
    O104     O        0.85130    0.86030    0.69820    1.000
    O105     O        0.77350    0.00340    0.82210    1.000
    O106     O        0.78540    0.90400    0.86320    1.000
    O107     O        0.67190    0.97850    0.68610    1.000
    O108     O        0.67550    0.89230    0.74260    1.000
    O109     O        0.71000    0.87130    0.62970    1.000
    O110     O        0.73720    0.79010    0.69870    1.000
    O111     O        0.89370    0.94830    0.83530    1.000
    C217     C        0.83160    0.03600    0.66910    1.000
    C218     C        0.89860    0.86300    0.68820    1.000
    N37      N        0.77800    0.96600    0.86790    1.000
    N38      N        0.64600    0.93630    0.70710    1.000
    N39      N        0.70880    0.80820    0.64030    1.000
    C219     C        0.79830    0.07070    0.60340    1.000
    O112     O        0.89030    0.04310    0.69960    1.000
    C220     C        0.91560    0.80540    0.65510    1.000
    O113     O        0.94820    0.90170    0.72210    1.000
    O114     O        0.77740    0.98870    0.91810    1.000
    O115     O        0.58510    0.93800    0.68740    1.000
    O116     O        0.68100    0.76950    0.59390    1.000
    O117     O        0.98610    0.99440    0.84880    1.000
    C221     C        0.83620    0.09940    0.57650    1.000
    C222     C        0.73260    0.07550    0.57190    1.000
    C223     C        0.87120    0.75480    0.62800    1.000
    C224     C        0.97360    0.80210    0.65190    1.000
    H145     H        0.88080    0.09680    0.59860    1.000
    C225     C        0.80750    0.13170    0.51710    1.000
    C226     C        0.70270    0.11090    0.51300    1.000
    H146     H        0.70760    0.05500    0.58970    1.000
    O118     O        0.99990    0.12720    0.79790    1.000
    H147     H        0.83180    0.75670    0.63000    1.000
    C227     C        0.88580    0.69970    0.59720    1.000
    C228     C        0.98840    0.74880    0.62110    1.000
    H148     H        0.00370    0.83610    0.67070    1.000
    H149     H        0.83250    0.14910    0.49780    1.000
    C229     C        0.74090    0.13810    0.48640    1.000
    H150     H        0.65820    0.11590    0.49240    1.000
    H151     H        0.85630    0.66530    0.57840    1.000
    C230     C        0.94420    0.69860    0.59600    1.000
    H152     H        0.02720    0.74750    0.61790    1.000
    N40      N        0.71190    0.17490    0.42460    1.000
    N41      N        0.96030    0.64060    0.56760    1.000
    C231     C        0.74400    0.22550    0.41360    1.000
    C232     C        0.65340    0.15740    0.37840    1.000
    C233     C        0.92090    0.61870    0.50630    1.000
    C234     C        0.01730    0.61050    0.59920    1.000
    H153     H        0.78330    0.23890    0.44680    1.000
    C235     C        0.72030    0.25810    0.35440    1.000
    C236     C        0.62650    0.19020    0.31940    1.000
    H154     H        0.63090    0.12280    0.38660    1.000
    H155     H        0.88280    0.64180    0.48190    1.000
    C237     C        0.93510    0.56490    0.48000    1.000
    C238     C        0.03480    0.55600    0.57430    1.000
    H156     H        0.04610    0.62720    0.63970    1.000
    H157     H        0.74410    0.29210    0.34720    1.000
    C239     C        0.66110    0.24030    0.30570    1.000
    H158     H        0.58530    0.17900    0.28850    1.000
    H159     H        0.90680    0.55120    0.43810    1.000
    C240     C        0.99070    0.52950    0.51390    1.000
    H160     H        0.07530    0.53680    0.59680    1.000
    C241     C        0.63350    0.27440    0.23970    1.000
    C242     C        0.65300    0.33790    0.23320    1.000
    C243     C        0.58700    0.24340    0.18550    1.000
    H161     H        0.68560    0.35910    0.26870    1.000
    C244     C        0.62370    0.37020    0.17340    1.000
    C245     C        0.56080    0.27590    0.12670    1.000
    H162     H        0.57350    0.20020    0.18900    1.000
    H163     H        0.63560    0.41390    0.16930    1.000
    N42      N        0.57860    0.33950    0.12180    1.000
    H164     H        0.53060    0.25430    0.08980    1.000
    C246     C        0.54650    0.37320    0.05820    1.000
    C247     C        0.58320    0.40720    0.03350    1.000
    C248     C        0.48090    0.37060    0.02590    1.000
    H165     H        0.62760    0.41040    0.05740    1.000
    C249     C        0.55190    0.43650    0.97170    1.000
    C250     C        0.45070    0.39940    0.96460    1.000
    H166     H        0.45700    0.34990    0.04470    1.000
    H167     H        0.57580    0.45930    0.95400    1.000
    C251     C        0.48570    0.43190    0.93650    1.000
    H168     H        0.40610    0.39700    0.94170    1.000
    C252     C        0.45260    0.46010    0.86850    1.000
    O119     O        0.92270    0.92200    0.68320    1.000
    Eu8      Eu       0.29100    0.40870    0.75077    1.000
    O120     O        0.29610    0.50510    0.68910    1.000
    O121     O        0.35130    0.36030    0.69820    1.000
    O122     O        0.27350    0.50340    0.82210    1.000
    O123     O        0.28540    0.40400    0.86320    1.000
    O124     O        0.17190    0.47850    0.68610    1.000
    O125     O        0.17550    0.39230    0.74260    1.000
    O126     O        0.21000    0.37130    0.62970    1.000
    O127     O        0.23720    0.29010    0.69870    1.000
    O128     O        0.39370    0.44830    0.83530    1.000
    C253     C        0.33160    0.53600    0.66910    1.000
    C254     C        0.39860    0.36300    0.68820    1.000
    N43      N        0.27800    0.46600    0.86790    1.000
    N44      N        0.14600    0.43630    0.70710    1.000
    N45      N        0.20880    0.30820    0.64030    1.000
    C255     C        0.29830    0.57070    0.60340    1.000
    O129     O        0.39030    0.54310    0.69960    1.000
    C256     C        0.41560    0.30540    0.65510    1.000
    O130     O        0.44820    0.40170    0.72210    1.000
    O131     O        0.27740    0.48870    0.91810    1.000
    O132     O        0.08510    0.43800    0.68740    1.000
    O133     O        0.18100    0.26950    0.59390    1.000
    O134     O        0.48610    0.49440    0.84880    1.000
    C257     C        0.33620    0.59940    0.57650    1.000
    C258     C        0.23260    0.57550    0.57190    1.000
    C259     C        0.37120    0.25480    0.62800    1.000
    C260     C        0.47360    0.30210    0.65190    1.000
    H169     H        0.38080    0.59680    0.59860    1.000
    C261     C        0.30750    0.63170    0.51710    1.000
    C262     C        0.20270    0.61090    0.51300    1.000
    H170     H        0.20760    0.55500    0.58970    1.000
    O135     O        0.49990    0.62720    0.79790    1.000
    H171     H        0.33180    0.25670    0.63000    1.000
    C263     C        0.38580    0.19970    0.59720    1.000
    C264     C        0.48840    0.24880    0.62110    1.000
    H172     H        0.50370    0.33610    0.67070    1.000
    H173     H        0.33250    0.64910    0.49780    1.000
    C265     C        0.24090    0.63810    0.48640    1.000
    H174     H        0.15820    0.61590    0.49240    1.000
    H175     H        0.35630    0.16530    0.57840    1.000
    C266     C        0.44420    0.19860    0.59600    1.000
    H176     H        0.52720    0.24750    0.61790    1.000
    N46      N        0.21190    0.67490    0.42460    1.000
    N47      N        0.46030    0.14060    0.56760    1.000
    C267     C        0.24400    0.72550    0.41360    1.000
    C268     C        0.15340    0.65740    0.37840    1.000
    C269     C        0.42090    0.11870    0.50630    1.000
    C270     C        0.51730    0.11050    0.59920    1.000
    H177     H        0.28330    0.73890    0.44680    1.000
    C271     C        0.22030    0.75810    0.35440    1.000
    C272     C        0.12650    0.69020    0.31940    1.000
    H178     H        0.13090    0.62280    0.38660    1.000
    H179     H        0.38280    0.14180    0.48190    1.000
    C273     C        0.43510    0.06490    0.48000    1.000
    C274     C        0.53480    0.05600    0.57430    1.000
    H180     H        0.54610    0.12720    0.63970    1.000
    H181     H        0.24410    0.79210    0.34720    1.000
    C275     C        0.16110    0.74030    0.30570    1.000
    H182     H        0.08530    0.67900    0.28850    1.000
    H183     H        0.40680    0.05120    0.43810    1.000
    C276     C        0.49070    0.02950    0.51390    1.000
    H184     H        0.57530    0.03680    0.59680    1.000
    C277     C        0.13350    0.77440    0.23970    1.000
    C278     C        0.15300    0.83790    0.23320    1.000
    C279     C        0.08700    0.74340    0.18550    1.000
    H185     H        0.18560    0.85910    0.26870    1.000
    C280     C        0.12370    0.87020    0.17340    1.000
    C281     C        0.06080    0.77590    0.12670    1.000
    H186     H        0.07350    0.70020    0.18900    1.000
    H187     H        0.13560    0.91390    0.16930    1.000
    N48      N        0.07860    0.83950    0.12180    1.000
    H188     H        0.03060    0.75430    0.08980    1.000
    C282     C        0.04650    0.87320    0.05820    1.000
    C283     C        0.08320    0.90720    0.03350    1.000
    C284     C        0.98090    0.87060    0.02590    1.000
    H189     H        0.12760    0.91040    0.05740    1.000
    C285     C        0.05190    0.93650    0.97170    1.000
    C286     C        0.95070    0.89940    0.96460    1.000
    H190     H        0.95700    0.84990    0.04470    1.000
    H191     H        0.07580    0.95930    0.95400    1.000
    C287     C        0.98570    0.93190    0.93650    1.000
    H192     H        0.90610    0.89700    0.94170    1.000
    C288     C        0.95260    0.96010    0.86850    1.000
    O136     O        0.42270    0.42200    0.68320    1.000
    Eu9      Eu       0.00000    0.99227    0.25000    1.000
    N49      N        0.00000    0.84110    0.25000    1.000
    O137     O        0.00000    0.77760    0.25000    1.000
    Eu10     Eu       0.50000    0.49227    0.25000    1.000
    N50      N        0.50000    0.34110    0.25000    1.000
    O138     O        0.50000    0.27760    0.25000    1.000
    Eu11     Eu       0.00000    0.00773    0.75000    1.000
    N51      N        0.00000    0.15890    0.75000    1.000
    O139     O        0.00000    0.22240    0.75000    1.000
    Eu12     Eu       0.50000    0.50773    0.75000    1.000
    N52      N        0.50000    0.65890    0.75000    1.000
    O140     O        0.50000    0.72240    0.75000    1.000
