# CIF file generated by openbabel 3.1.0, see https://openbabel.org
data_I
_chemical_name_common 'image0'
_cell_length_a 6.4059
_cell_length_b 16.3502
_cell_length_c 17.8196
_cell_angle_alpha 98.109
_cell_angle_beta 94.056
_cell_angle_gamma 95.651
_space_group_name_H-M_alt 'P 1'
_space_group_name_Hall 'P 1'
loop_
    _symmetry_equiv_pos_as_xyz
    x,y,z
loop_
    _atom_site_label
    _atom_site_type_symbol
    _atom_site_fract_x
    _atom_site_fract_y
    _atom_site_fract_z
    _atom_site_occupancy
    Na1      Na       0.57075    0.39640    0.51929    1.000
    Na2      Na       0.87431    0.50879    0.41351    1.000
    Na3      Na       0.84960    0.41205    0.72859    1.000
    Na4      Na       0.27340    0.31100    0.64102    1.000
    O1       O        0.21930    0.51455    0.37420    1.000
    O2       O        0.51230    0.46547    0.41404    1.000
    O3       O        0.90610    0.39056    0.46913    1.000
    O4       O        0.20110    0.35814    0.52434    1.000
    O5       O        0.19560    0.45561    0.70761    1.000
    O6       O        0.49100    0.40385    0.73876    1.000
    O7       O        0.92020    0.27910    0.67965    1.000
    O8       O        0.14850    0.18940    0.69730    1.000
    O9       O        0.57820    0.27503    0.57860    1.000
    H1       H        0.69210    0.27980    0.61210    1.000
    H2       H        0.54560    0.22710    0.54660    1.000
    N1       N        0.13330    0.95369    0.90141    1.000
    H3       H        0.07570    0.97370    0.94270    1.000
    N2       N        0.23460    0.09506    0.02316    1.000
    C1       C        0.34370    0.45905    0.37258    1.000
    C2       C        0.28690    0.38064    0.31548    1.000
    C3       C        0.03600    0.34001    0.47952    1.000
    C4       C        0.42490    0.32026    0.30693    1.000
    H4       H        0.55340    0.32700    0.33830    1.000
    C5       C        0.04690    0.29840    0.21680    1.000
    H5       H        0.91590    0.29070    0.18680    1.000
    C6       C        0.18700    0.23890    0.20640    1.000
    C7       C        0.29820    0.99520    0.87190    1.000
    C8       C        0.09680    0.36930    0.27090    1.000
    H6       H        0.00050    0.40980    0.27730    1.000
    C9       C        0.36400    0.45690    0.74890    1.000
    C10      C        0.38950    0.11370    0.97700    1.000
    C11      C        0.41810    0.06870    0.90630    1.000
    C12      C        0.04580    0.88770    0.84840    1.000
    C13      C        0.13380    0.16570    0.14510    1.000
    C14      C        0.37560    0.25030    0.25280    1.000
    H7       H        0.47130    0.20940    0.24720    1.000
    C15      C        0.16500    0.88630    0.78400    1.000
    H8       H        0.14150    0.84660    0.73900    1.000
    C16      C        0.26430    0.15720    0.08470    1.000
    C17      C        0.57240    0.10770    0.85850    1.000
    C18      C        0.31910    0.95180    0.79770    1.000
    H9       H        0.42130    0.96590    0.76420    1.000
    C19      C        0.98030    0.21870    0.70930    1.000
    C20      C        0.84010    0.17990    0.76230    1.000
    C21      C        0.52110    0.18780    0.01090    1.000
    H10      H        0.64030    0.21270    0.99040    1.000
    C22      C        0.44440    0.21530    0.07680    1.000
    H11      H        0.49800    0.26350    0.11160    1.000
    C23      C        0.99470    0.25350    0.43580    1.000
    H12      H        0.84420    0.23440    0.43330    1.000
    H13      H        0.07530    0.21590    0.46150    1.000
    H14      H        0.03790    0.25370    0.38410    1.000
    C24      C        0.41140    0.52670    0.81540    1.000
    H15      H        0.32290    0.51550    0.85620    1.000
    H16      H        0.38200    0.57930    0.79870    1.000
    H17      H        0.56010    0.53040    0.83420    1.000
    C25      C        0.76370    0.07780    0.84460    1.000
    H18      H        0.80420    0.03230    0.86780    1.000
    C26      C        0.89590    0.11370    0.79710    1.000
    H19      H        0.02640    0.09260    0.78830    1.000
    C27      C        0.65160    0.21130    0.77790    1.000
    H20      H        0.61300    0.25820    0.75640    1.000
    C28      C        0.52020    0.17450    0.82470    1.000
    H21      H        0.39010    0.19590    0.83380    1.000
    Na5      Na       0.42925    0.60360    0.48071    1.000
    Na6      Na       0.12569    0.49121    0.58649    1.000
    Na7      Na       0.15040    0.58795    0.27141    1.000
    Na8      Na       0.72660    0.68900    0.35898    1.000
    O10      O        0.78070    0.48545    0.62580    1.000
    O11      O        0.48770    0.53453    0.58596    1.000
    O12      O        0.09390    0.60944    0.53087    1.000
    O13      O        0.79890    0.64186    0.47566    1.000
    O14      O        0.80440    0.54439    0.29239    1.000
    O15      O        0.50900    0.59615    0.26124    1.000
    O16      O        0.07980    0.72090    0.32035    1.000
    O17      O        0.85150    0.81060    0.30270    1.000
    O18      O        0.42180    0.72497    0.42140    1.000
    H22      H        0.30790    0.72020    0.38790    1.000
    H23      H        0.45440    0.77290    0.45340    1.000
    N3       N        0.86670    0.04631    0.09859    1.000
    H24      H        0.92430    0.02630    0.05730    1.000
    N4       N        0.76540    0.90494    0.97684    1.000
    C29      C        0.65630    0.54095    0.62742    1.000
    C30      C        0.71310    0.61936    0.68452    1.000
    C31      C        0.96400    0.65999    0.52048    1.000
    C32      C        0.57510    0.67974    0.69307    1.000
    H25      H        0.44660    0.67300    0.66170    1.000
    C33      C        0.95310    0.70160    0.78320    1.000
    H26      H        0.08410    0.70930    0.81320    1.000
    C34      C        0.81300    0.76110    0.79360    1.000
    C35      C        0.70180    0.00480    0.12810    1.000
    C36      C        0.90320    0.63070    0.72910    1.000
    H27      H        0.99950    0.59020    0.72270    1.000
    C37      C        0.63600    0.54310    0.25110    1.000
    C38      C        0.61050    0.88630    0.02300    1.000
    C39      C        0.58190    0.93130    0.09370    1.000
    C40      C        0.95420    0.11230    0.15160    1.000
    C41      C        0.86620    0.83430    0.85490    1.000
    C42      C        0.62440    0.74970    0.74720    1.000
    H28      H        0.52870    0.79060    0.75280    1.000
    C43      C        0.83500    0.11370    0.21600    1.000
    H29      H        0.85850    0.15340    0.26100    1.000
    C44      C        0.73570    0.84280    0.91530    1.000
    C45      C        0.42760    0.89230    0.14150    1.000
    C46      C        0.68090    0.04820    0.20230    1.000
    H30      H        0.57870    0.03410    0.23580    1.000
    C47      C        0.01970    0.78130    0.29070    1.000
    C48      C        0.15990    0.82010    0.23770    1.000
    C49      C        0.47890    0.81220    0.98910    1.000
    H31      H        0.35970    0.78730    0.00960    1.000
    C50      C        0.55560    0.78470    0.92320    1.000
    H32      H        0.50200    0.73650    0.88840    1.000
    C51      C        0.00530    0.74650    0.56420    1.000
    H33      H        0.15580    0.76560    0.56670    1.000
    H34      H        0.92470    0.78410    0.53850    1.000
    H35      H        0.96210    0.74630    0.61590    1.000
    C52      C        0.58860    0.47330    0.18460    1.000
    H36      H        0.67710    0.48450    0.14380    1.000
    H37      H        0.61800    0.42070    0.20130    1.000
    H38      H        0.43990    0.46960    0.16580    1.000
    C53      C        0.23630    0.92220    0.15540    1.000
    H39      H        0.19580    0.96770    0.13220    1.000
    C54      C        0.10410    0.88630    0.20290    1.000
    H40      H        0.97360    0.90740    0.21170    1.000
    C55      C        0.34840    0.78870    0.22210    1.000
    H41      H        0.38700    0.74180    0.24360    1.000
    C56      C        0.47980    0.82550    0.17530    1.000
    H42      H        0.60990    0.80410    0.16620    1.000
