# CIF file generated by openbabel 3.1.0, see https://openbabel.org
data_I
_chemical_name_common 'image0'
_cell_length_a 29.4645
_cell_length_b 29.4645
_cell_length_c 14.2632
_cell_angle_alpha 90
_cell_angle_beta 90
_cell_angle_gamma 120
_space_group_name_H-M_alt 'P 1'
_space_group_name_Hall 'P 1'
loop_
    _symmetry_equiv_pos_as_xyz
    x,y,z
loop_
    _atom_site_label
    _atom_site_type_symbol
    _atom_site_fract_x
    _atom_site_fract_y
    _atom_site_fract_z
    _atom_site_occupancy
    Ag1      Ag       0.46208    0.07037    0.74835    1.000
    C1       C        0.44910    0.16430    0.65530    1.000
    H1       H        0.48340    0.16630    0.64630    1.000
    H2       H        0.44990    0.19390    0.62100    1.000
    N1       N        0.44840    0.13950    0.81680    1.000
    C2       C        0.44090    0.16900    0.75670    1.000
    C3       C        0.42650    0.20530    0.78910    1.000
    H3       H        0.42010    0.22540    0.74450    1.000
    N2       N        0.42150    0.21230    0.88020    1.000
    C4       C        0.42860    0.18140    0.93910    1.000
    H4       H        0.42410    0.18420    0.00440    1.000
    C5       C        0.44220    0.14530    0.90780    1.000
    H5       H        0.44730    0.12420    0.95220    1.000
    N3       N        0.40580    0.06920    0.63780    1.000
    C6       C        0.40630    0.11310    0.61520    1.000
    C7       C        0.36770    0.11140    0.55530    1.000
    H6       H        0.36790    0.14300    0.54120    1.000
    N4       N        0.33090    0.06700    0.51780    1.000
    C8       C        0.33020    0.02300    0.54330    1.000
    H7       H        0.30340    0.99020    0.52040    1.000
    C9       C        0.36800    0.02490    0.60260    1.000
    H8       H        0.36690    0.99310    0.61880    1.000
    Ag2      Ag       0.12875    0.40370    0.08168    1.000
    C10      C        0.11577    0.49763    0.98863    1.000
    H9       H        0.15007    0.49963    0.97963    1.000
    H10      H        0.11657    0.52723    0.95433    1.000
    N5       N        0.11507    0.47283    0.15013    1.000
    C11      C        0.10757    0.50233    0.09003    1.000
    C12      C        0.09317    0.53863    0.12243    1.000
    H11      H        0.08677    0.55873    0.07783    1.000
    N6       N        0.08817    0.54563    0.21353    1.000
    C13      C        0.09527    0.51473    0.27243    1.000
    H12      H        0.09077    0.51753    0.33773    1.000
    C14      C        0.10887    0.47863    0.24113    1.000
    H13      H        0.11397    0.45753    0.28553    1.000
    N7       N        0.07247    0.40253    0.97113    1.000
    C15      C        0.07297    0.44643    0.94853    1.000
    C16      C        0.03437    0.44473    0.88863    1.000
    H14      H        0.03457    0.47633    0.87453    1.000
    N8       N        0.99757    0.40033    0.85113    1.000
    C17      C        0.99687    0.35633    0.87663    1.000
    H15      H        0.97007    0.32353    0.85373    1.000
    C18      C        0.03467    0.35823    0.93593    1.000
    H16      H        0.03357    0.32643    0.95213    1.000
    Ag3      Ag       0.79541    0.73704    0.41502    1.000
    C19      C        0.78243    0.83097    0.32197    1.000
    H17      H        0.81673    0.83297    0.31297    1.000
    H18      H        0.78323    0.86057    0.28767    1.000
    N9       N        0.78173    0.80617    0.48347    1.000
    C20      C        0.77423    0.83567    0.42337    1.000
    C21      C        0.75983    0.87197    0.45577    1.000
    H19      H        0.75343    0.89207    0.41117    1.000
    N10      N        0.75483    0.87897    0.54687    1.000
    C22      C        0.76193    0.84807    0.60577    1.000
    H20      H        0.75743    0.85087    0.67107    1.000
    C23      C        0.77553    0.81197    0.57447    1.000
    H21      H        0.78063    0.79087    0.61887    1.000
    N11      N        0.73913    0.73587    0.30447    1.000
    C24      C        0.73963    0.77977    0.28187    1.000
    C25      C        0.70103    0.77807    0.22197    1.000
    H22      H        0.70123    0.80967    0.20787    1.000
    N12      N        0.66423    0.73367    0.18447    1.000
    C26      C        0.66353    0.68967    0.20997    1.000
    H23      H        0.63673    0.65687    0.18707    1.000
    C27      C        0.70133    0.69157    0.26927    1.000
    H24      H        0.70023    0.65977    0.28547    1.000
    Ag4      Ag       0.92963    0.39171    0.74835    1.000
    C28      C        0.83570    0.28480    0.65530    1.000
    H25      H        0.83370    0.31710    0.64630    1.000
    H26      H        0.80610    0.25600    0.62100    1.000
    N13      N        0.86050    0.30890    0.81680    1.000
    C29      C        0.83100    0.27190    0.75670    1.000
    C30      C        0.79470    0.22120    0.78910    1.000
    H27      H        0.77460    0.19470    0.74450    1.000
    N14      N        0.78770    0.20920    0.88020    1.000
    C31      C        0.81860    0.24720    0.93910    1.000
    H28      H        0.81580    0.23990    0.00440    1.000
    C32      C        0.85470    0.29690    0.90780    1.000
    H29      H        0.87580    0.32310    0.95220    1.000
    N15      N        0.93080    0.33660    0.63780    1.000
    C33      C        0.88690    0.29320    0.61520    1.000
    C34      C        0.88860    0.25630    0.55530    1.000
    H30      H        0.85700    0.22490    0.54120    1.000
    N16      N        0.93300    0.26390    0.51780    1.000
    C35      C        0.97700    0.30720    0.54330    1.000
    H31      H        0.00980    0.31320    0.52040    1.000
    C36      C        0.97510    0.34310    0.60260    1.000
    H32      H        0.00690    0.37380    0.61880    1.000
    Ag5      Ag       0.59630    0.72504    0.08168    1.000
    C37      C        0.50237    0.61813    0.98863    1.000
    H33      H        0.50037    0.65043    0.97963    1.000
    H34      H        0.47277    0.58933    0.95433    1.000
    N17      N        0.52717    0.64223    0.15013    1.000
    C38      C        0.49767    0.60523    0.09003    1.000
    C39      C        0.46137    0.55453    0.12243    1.000
    H35      H        0.44127    0.52803    0.07783    1.000
    N18      N        0.45437    0.54253    0.21353    1.000
    C40      C        0.48527    0.58053    0.27243    1.000
    H36      H        0.48247    0.57323    0.33773    1.000
    C41      C        0.52137    0.63023    0.24113    1.000
    H37      H        0.54247    0.65643    0.28553    1.000
    N19      N        0.59747    0.66993    0.97113    1.000
    C42      C        0.55357    0.62653    0.94853    1.000
    C43      C        0.55527    0.58963    0.88863    1.000
    H38      H        0.52367    0.55823    0.87453    1.000
    N20      N        0.59967    0.59723    0.85113    1.000
    C44      C        0.64367    0.64053    0.87663    1.000
    H39      H        0.67647    0.64653    0.85373    1.000
    C45      C        0.64177    0.67643    0.93593    1.000
    H40      H        0.67357    0.70713    0.95213    1.000
    Ag6      Ag       0.26296    0.05838    0.41502    1.000
    C46      C        0.16903    0.95147    0.32197    1.000
    H41      H        0.16703    0.98377    0.31297    1.000
    H42      H        0.13943    0.92267    0.28767    1.000
    N21      N        0.19383    0.97557    0.48347    1.000
    C47      C        0.16433    0.93857    0.42337    1.000
    C48      C        0.12803    0.88787    0.45577    1.000
    H43      H        0.10793    0.86137    0.41117    1.000
    N22      N        0.12103    0.87587    0.54687    1.000
    C49      C        0.15193    0.91387    0.60577    1.000
    H44      H        0.14913    0.90657    0.67107    1.000
    C50      C        0.18803    0.96357    0.57447    1.000
    H45      H        0.20913    0.98977    0.61887    1.000
    N23      N        0.26413    0.00327    0.30447    1.000
    C51      C        0.22023    0.95987    0.28187    1.000
    C52      C        0.22193    0.92297    0.22197    1.000
    H46      H        0.19033    0.89157    0.20787    1.000
    N24      N        0.26633    0.93057    0.18447    1.000
    C53      C        0.31033    0.97387    0.20997    1.000
    H47      H        0.34313    0.97987    0.18707    1.000
    C54      C        0.30843    0.00977    0.26927    1.000
    H48      H        0.34023    0.04047    0.28547    1.000
    Ag7      Ag       0.60829    0.53792    0.74835    1.000
    C55      C        0.71520    0.55090    0.65530    1.000
    H49      H        0.68290    0.51660    0.64630    1.000
    H50      H        0.74400    0.55010    0.62100    1.000
    N25      N        0.69110    0.55160    0.81680    1.000
    C56      C        0.72810    0.55910    0.75670    1.000
    C57      C        0.77880    0.57350    0.78910    1.000
    H51      H        0.80530    0.57990    0.74450    1.000
    N26      N        0.79080    0.57850    0.88020    1.000
    C58      C        0.75280    0.57140    0.93910    1.000
    H52      H        0.76010    0.57590    0.00440    1.000
    C59      C        0.70310    0.55780    0.90780    1.000
    H53      H        0.67690    0.55270    0.95220    1.000
    N27      N        0.66340    0.59420    0.63780    1.000
    C60      C        0.70680    0.59370    0.61520    1.000
    C61      C        0.74370    0.63230    0.55530    1.000
    H54      H        0.77510    0.63210    0.54120    1.000
    N28      N        0.73610    0.66910    0.51780    1.000
    C62      C        0.69280    0.66980    0.54330    1.000
    H55      H        0.68680    0.69660    0.52040    1.000
    C63      C        0.65690    0.63200    0.60260    1.000
    H56      H        0.62620    0.63310    0.61880    1.000
    Ag8      Ag       0.27496    0.87125    0.08168    1.000
    C64      C        0.38187    0.88423    0.98863    1.000
    H57      H        0.34957    0.84993    0.97963    1.000
    H58      H        0.41067    0.88343    0.95433    1.000
    N29      N        0.35777    0.88493    0.15013    1.000
    C65      C        0.39477    0.89243    0.09003    1.000
    C66      C        0.44547    0.90683    0.12243    1.000
    H59      H        0.47197    0.91323    0.07783    1.000
    N30      N        0.45747    0.91183    0.21353    1.000
    C67      C        0.41947    0.90473    0.27243    1.000
    H60      H        0.42677    0.90923    0.33773    1.000
    C68      C        0.36977    0.89113    0.24113    1.000
    H61      H        0.34357    0.88603    0.28553    1.000
    N31      N        0.33007    0.92753    0.97113    1.000
    C69      C        0.37347    0.92703    0.94853    1.000
    C70      C        0.41037    0.96563    0.88863    1.000
    H62      H        0.44177    0.96543    0.87453    1.000
    N32      N        0.40277    0.00243    0.85113    1.000
    C71      C        0.35947    0.00313    0.87663    1.000
    H63      H        0.35347    0.02993    0.85373    1.000
    C72      C        0.32357    0.96533    0.93593    1.000
    H64      H        0.29287    0.96643    0.95213    1.000
    Ag9      Ag       0.94162    0.20459    0.41502    1.000
    C73      C        0.04853    0.21757    0.32197    1.000
    H65      H        0.01623    0.18327    0.31297    1.000
    H66      H        0.07733    0.21677    0.28767    1.000
    N33      N        0.02443    0.21827    0.48347    1.000
    C74      C        0.06143    0.22577    0.42337    1.000
    C75      C        0.11213    0.24017    0.45577    1.000
    H67      H        0.13863    0.24657    0.41117    1.000
    N34      N        0.12413    0.24517    0.54687    1.000
    C76      C        0.08613    0.23807    0.60577    1.000
    H68      H        0.09343    0.24257    0.67107    1.000
    C77      C        0.03643    0.22447    0.57447    1.000
    H69      H        0.01023    0.21937    0.61887    1.000
    N35      N        0.99673    0.26087    0.30447    1.000
    C78      C        0.04013    0.26037    0.28187    1.000
    C79      C        0.07703    0.29897    0.22197    1.000
    H70      H        0.10843    0.29877    0.20787    1.000
    N36      N        0.06943    0.33577    0.18447    1.000
    C80      C        0.02613    0.33647    0.20997    1.000
    H71      H        0.02013    0.36327    0.18707    1.000
    C81      C        0.99023    0.29867    0.26927    1.000
    H72      H        0.95953    0.29977    0.28547    1.000
    Ag10     Ag       0.53792    0.92963    0.25165    1.000
    C82      C        0.55090    0.83570    0.34470    1.000
    H73      H        0.51660    0.83370    0.35370    1.000
    H74      H        0.55010    0.80610    0.37900    1.000
    N37      N        0.55160    0.86050    0.18320    1.000
    C83      C        0.55910    0.83100    0.24330    1.000
    C84      C        0.57350    0.79470    0.21090    1.000
    H75      H        0.57990    0.77460    0.25550    1.000
    N38      N        0.57850    0.78770    0.11980    1.000
    C85      C        0.57140    0.81860    0.06090    1.000
    H76      H        0.57590    0.81580    0.99560    1.000
    C86      C        0.55780    0.85470    0.09220    1.000
    H77      H        0.55270    0.87580    0.04780    1.000
    N39      N        0.59420    0.93080    0.36220    1.000
    C87      C        0.59370    0.88690    0.38480    1.000
    C88      C        0.63230    0.88860    0.44470    1.000
    H78      H        0.63210    0.85700    0.45880    1.000
    N40      N        0.66910    0.93300    0.48220    1.000
    C89      C        0.66980    0.97700    0.45670    1.000
    H79      H        0.69660    0.00980    0.47960    1.000
    C90      C        0.63200    0.97510    0.39740    1.000
    H80      H        0.63310    0.00690    0.38120    1.000
    Ag11     Ag       0.20459    0.26296    0.58498    1.000
    C91      C        0.21757    0.16903    0.67803    1.000
    H81      H        0.18327    0.16703    0.68703    1.000
    H82      H        0.21677    0.13943    0.71233    1.000
    N41      N        0.21827    0.19383    0.51653    1.000
    C92      C        0.22577    0.16433    0.57663    1.000
    C93      C        0.24017    0.12803    0.54423    1.000
    H83      H        0.24657    0.10793    0.58883    1.000
    N42      N        0.24517    0.12103    0.45313    1.000
    C94      C        0.23807    0.15193    0.39423    1.000
    H84      H        0.24257    0.14913    0.32893    1.000
    C95      C        0.22447    0.18803    0.42553    1.000
    H85      H        0.21937    0.20913    0.38113    1.000
    N43      N        0.26087    0.26413    0.69553    1.000
    C96      C        0.26037    0.22023    0.71813    1.000
    C97      C        0.29897    0.22193    0.77803    1.000
    H86      H        0.29877    0.19033    0.79213    1.000
    N44      N        0.33577    0.26633    0.81553    1.000
    C98      C        0.33647    0.31033    0.79003    1.000
    H87      H        0.36327    0.34313    0.81293    1.000
    C99      C        0.29867    0.30843    0.73073    1.000
    H88      H        0.29977    0.34023    0.71453    1.000
    Ag12     Ag       0.87125    0.59630    0.91832    1.000
    C100     C        0.88423    0.50237    0.01137    1.000
    H89      H        0.84993    0.50037    0.02037    1.000
    H90      H        0.88343    0.47277    0.04567    1.000
    N45      N        0.88493    0.52717    0.84987    1.000
    C101     C        0.89243    0.49767    0.90997    1.000
    C102     C        0.90683    0.46137    0.87757    1.000
    H91      H        0.91323    0.44127    0.92217    1.000
    N46      N        0.91183    0.45437    0.78647    1.000
    C103     C        0.90473    0.48527    0.72757    1.000
    H92      H        0.90923    0.48247    0.66227    1.000
    C104     C        0.89113    0.52137    0.75887    1.000
    H93      H        0.88603    0.54247    0.71447    1.000
    N47      N        0.92753    0.59747    0.02887    1.000
    C105     C        0.92703    0.55357    0.05147    1.000
    C106     C        0.96563    0.55527    0.11137    1.000
    H94      H        0.96543    0.52367    0.12547    1.000
    N48      N        0.00243    0.59967    0.14887    1.000
    C107     C        0.00313    0.64367    0.12337    1.000
    H95      H        0.02993    0.67647    0.14627    1.000
    C108     C        0.96533    0.64177    0.06407    1.000
    H96      H        0.96643    0.67357    0.04787    1.000
    Ag13     Ag       0.07037    0.60829    0.25165    1.000
    C109     C        0.16430    0.71520    0.34470    1.000
    H97      H        0.16630    0.68290    0.35370    1.000
    H98      H        0.19390    0.74400    0.37900    1.000
    N49      N        0.13950    0.69110    0.18320    1.000
    C110     C        0.16900    0.72810    0.24330    1.000
    C111     C        0.20530    0.77880    0.21090    1.000
    H99      H        0.22540    0.80530    0.25550    1.000
    N50      N        0.21230    0.79080    0.11980    1.000
    C112     C        0.18140    0.75280    0.06090    1.000
    H100     H        0.18420    0.76010    0.99560    1.000
    C113     C        0.14530    0.70310    0.09220    1.000
    H101     H        0.12420    0.67690    0.04780    1.000
    N51      N        0.06920    0.66340    0.36220    1.000
    C114     C        0.11310    0.70680    0.38480    1.000
    C115     C        0.11140    0.74370    0.44470    1.000
    H102     H        0.14300    0.77510    0.45880    1.000
    N52      N        0.06700    0.73610    0.48220    1.000
    C116     C        0.02300    0.69280    0.45670    1.000
    H103     H        0.99020    0.68680    0.47960    1.000
    C117     C        0.02490    0.65690    0.39740    1.000
    H104     H        0.99310    0.62620    0.38120    1.000
    Ag14     Ag       0.73704    0.94162    0.58498    1.000
    C118     C        0.83097    0.04853    0.67803    1.000
    H105     H        0.83297    0.01623    0.68703    1.000
    H106     H        0.86057    0.07733    0.71233    1.000
    N53      N        0.80617    0.02443    0.51653    1.000
    C119     C        0.83567    0.06143    0.57663    1.000
    C120     C        0.87197    0.11213    0.54423    1.000
    H107     H        0.89207    0.13863    0.58883    1.000
    N54      N        0.87897    0.12413    0.45313    1.000
    C121     C        0.84807    0.08613    0.39423    1.000
    H108     H        0.85087    0.09343    0.32893    1.000
    C122     C        0.81197    0.03643    0.42553    1.000
    H109     H        0.79087    0.01023    0.38113    1.000
    N55      N        0.73587    0.99673    0.69553    1.000
    C123     C        0.77977    0.04013    0.71813    1.000
    C124     C        0.77807    0.07703    0.77803    1.000
    H110     H        0.80967    0.10843    0.79213    1.000
    N56      N        0.73367    0.06943    0.81553    1.000
    C125     C        0.68967    0.02613    0.79003    1.000
    H111     H        0.65687    0.02013    0.81293    1.000
    C126     C        0.69157    0.99023    0.73073    1.000
    H112     H        0.65977    0.95953    0.71453    1.000
    Ag15     Ag       0.40370    0.27496    0.91832    1.000
    C127     C        0.49763    0.38187    0.01137    1.000
    H113     H        0.49963    0.34957    0.02037    1.000
    H114     H        0.52723    0.41067    0.04567    1.000
    N57      N        0.47283    0.35777    0.84987    1.000
    C128     C        0.50233    0.39477    0.90997    1.000
    C129     C        0.53863    0.44547    0.87757    1.000
    H115     H        0.55873    0.47197    0.92217    1.000
    N58      N        0.54563    0.45747    0.78647    1.000
    C130     C        0.51473    0.41947    0.72757    1.000
    H116     H        0.51753    0.42677    0.66227    1.000
    C131     C        0.47863    0.36977    0.75887    1.000
    H117     H        0.45753    0.34357    0.71447    1.000
    N59      N        0.40253    0.33007    0.02887    1.000
    C132     C        0.44643    0.37347    0.05147    1.000
    C133     C        0.44473    0.41037    0.11137    1.000
    H118     H        0.47633    0.44177    0.12547    1.000
    N60      N        0.40033    0.40277    0.14887    1.000
    C134     C        0.35633    0.35947    0.12337    1.000
    H119     H        0.32353    0.35347    0.14627    1.000
    C135     C        0.35823    0.32357    0.06407    1.000
    H120     H        0.32643    0.29287    0.04787    1.000
    Ag16     Ag       0.39171    0.46208    0.25165    1.000
    C136     C        0.28480    0.44910    0.34470    1.000
    H121     H        0.31710    0.48340    0.35370    1.000
    H122     H        0.25600    0.44990    0.37900    1.000
    N61      N        0.30890    0.44840    0.18320    1.000
    C137     C        0.27190    0.44090    0.24330    1.000
    C138     C        0.22120    0.42650    0.21090    1.000
    H123     H        0.19470    0.42010    0.25550    1.000
    N62      N        0.20920    0.42150    0.11980    1.000
    C139     C        0.24720    0.42860    0.06090    1.000
    H124     H        0.23990    0.42410    0.99560    1.000
    C140     C        0.29690    0.44220    0.09220    1.000
    H125     H        0.32310    0.44730    0.04780    1.000
    N63      N        0.33660    0.40580    0.36220    1.000
    C141     C        0.29320    0.40630    0.38480    1.000
    C142     C        0.25630    0.36770    0.44470    1.000
    H126     H        0.22490    0.36790    0.45880    1.000
    N64      N        0.26390    0.33090    0.48220    1.000
    C143     C        0.30720    0.33020    0.45670    1.000
    H127     H        0.31320    0.30340    0.47960    1.000
    C144     C        0.34310    0.36800    0.39740    1.000
    H128     H        0.37380    0.36690    0.38120    1.000
    Ag17     Ag       0.05838    0.79541    0.58498    1.000
    C145     C        0.95147    0.78243    0.67803    1.000
    H129     H        0.98377    0.81673    0.68703    1.000
    H130     H        0.92267    0.78323    0.71233    1.000
    N65      N        0.97557    0.78173    0.51653    1.000
    C146     C        0.93857    0.77423    0.57663    1.000
    C147     C        0.88787    0.75983    0.54423    1.000
    H131     H        0.86137    0.75343    0.58883    1.000
    N66      N        0.87587    0.75483    0.45313    1.000
    C148     C        0.91387    0.76193    0.39423    1.000
    H132     H        0.90657    0.75743    0.32893    1.000
    C149     C        0.96357    0.77553    0.42553    1.000
    H133     H        0.98977    0.78063    0.38113    1.000
    N67      N        0.00327    0.73913    0.69553    1.000
    C150     C        0.95987    0.73963    0.71813    1.000
    C151     C        0.92297    0.70103    0.77803    1.000
    H134     H        0.89157    0.70123    0.79213    1.000
    N68      N        0.93057    0.66423    0.81553    1.000
    C152     C        0.97387    0.66353    0.79003    1.000
    H135     H        0.97987    0.63673    0.81293    1.000
    C153     C        0.00977    0.70133    0.73073    1.000
    H136     H        0.04047    0.70023    0.71453    1.000
    Ag18     Ag       0.72504    0.12875    0.91832    1.000
    C154     C        0.61813    0.11577    0.01137    1.000
    H137     H        0.65043    0.15007    0.02037    1.000
    H138     H        0.58933    0.11657    0.04567    1.000
    N69      N        0.64223    0.11507    0.84987    1.000
    C155     C        0.60523    0.10757    0.90997    1.000
    C156     C        0.55453    0.09317    0.87757    1.000
    H139     H        0.52803    0.08677    0.92217    1.000
    N70      N        0.54253    0.08817    0.78647    1.000
    C157     C        0.58053    0.09527    0.72757    1.000
    H140     H        0.57323    0.09077    0.66227    1.000
    C158     C        0.63023    0.10887    0.75887    1.000
    H141     H        0.65643    0.11397    0.71447    1.000
    N71      N        0.66993    0.07247    0.02887    1.000
    C159     C        0.62653    0.07297    0.05147    1.000
    C160     C        0.58963    0.03437    0.11137    1.000
    H142     H        0.55823    0.03457    0.12547    1.000
    N72      N        0.59723    0.99757    0.14887    1.000
    C161     C        0.64053    0.99687    0.12337    1.000
    H143     H        0.64653    0.97007    0.14627    1.000
    C162     C        0.67643    0.03467    0.06407    1.000
    H144     H        0.70713    0.03357    0.04787    1.000
