data_functionalizedCrystal
_audit_creation_method	'EQeq! by Chris Wilmer'
_symmetry_space_group_name_H-M	'P1'
_symmetry_Int_Tables_number	1
_symmetry_cell_setting	triclinic
loop_
_symmetry_equiv_pos_as_xyz
  x,y,z
_cell_length_a	8.655
_cell_length_b	14.105
_cell_length_c	15.1056
_cell_angle_alpha	115.144
_cell_angle_beta	106.647
_cell_angle_gamma	90
loop_
_atom_site_label
_atom_site_type_symbol
_atom_site_fract_x
_atom_site_fract_y
_atom_site_fract_z
_atom_site_charge
Mof_Eu	Eu	0.50507	0.00551	0.54554	2.424
Mof_Eu	Eu	0.95953	0.99449	0.45446	2.322
Mof_H 	H 	0.4452	0.8016	0.6646	-0.035
Mof_H 	H 	0.4497	0.6464	0.6896	0.075
Mof_H 	H 	0.9772	0.5592	0.5318	0.032
Mof_H 	H 	0.9644	0.7195	0.524	-0.069
Mof_H 	H 	0.4214	0.5311	0.7464	0.073
Mof_H 	H 	0.4574	0.3626	0.736	0.011
Mof_H 	H 	0.0665	0.2334	0.4852	-0.037
Mof_H 	H 	0.0475	0.3949	0.48	0.098
Mof_H 	H 	0.3964	0.716	0.228	-0.058
Mof_H 	H 	0.3323	0.568	0.0668	0.126
Mof_H 	H 	0.8587	0.5806	0.0528	0.193
Mof_H 	H 	0.9409	0.7154	0.218	-0.175
Mof_H 	H 	0.7806	0.1984	0.3354	-0.039
Mof_H 	H 	0.7601	0.3536	0.3104	0.073
Mof_H 	H 	0.4454	0.4408	0.4682	0.092
Mof_H 	H 	0.4404	0.2805	0.476	-0.01
Mof_H 	H 	0.675	0.4689	0.2536	0.066
Mof_H 	H 	0.7214	0.6374	0.264	0.011
Mof_H 	H 	0.5813	0.7666	0.5148	-0.052
Mof_H 	H 	0.5675	0.6051	0.52	0.077
Mof_H 	H 	0.1684	0.284	0.772	-0.04
Mof_H 	H 	0.2655	0.432	0.9332	0.1
Mof_H 	H 	0.8059	0.4194	0.9472	0.113
Mof_H 	H 	0.7229	0.2846	0.782	-0.044
Mof_C 	C 	0.1998	0.8724	0.5746	0.569
Mof_C 	C 	0.2016	0.772	0.5894	-0.253
Mof_C 	C 	0.3512	0.7539	0.6396	0.122
Mof_C 	C 	0.3537	0.6582	0.651	-0.162
Mof_C 	C 	0.2196	0.584	0.6066	0.057
Mof_C 	C 	0.0716	0.6074	0.5592	-0.109
Mof_C 	C 	0.0646	0.7028	0.5532	0.201
Mof_C 	C 	0.2285	0.4784	0.611	0.068
Mof_C 	C 	0.3542	0.4712	0.692	-0.142
Mof_C 	C 	0.3722	0.3702	0.6864	0.077
Mof_C 	C 	0.2686	0.2828	0.6094	-0.168
Mof_C 	C 	0.1417	0.2923	0.5346	0.116
Mof_C 	C 	0.1269	0.3897	0.5336	-0.164
Mof_C 	C 	0.3088	0.1731	0.5984	0.433
Mof_C 	C 	0.2218	0.8336	0.3328	0.658
Mof_C 	C 	0.1755	0.7358	0.2354	-0.46
Mof_C 	C 	0.2876	0.6874	0.1922	0.295
Mof_C 	C 	0.2521	0.5962	0.0962	-0.296
Mof_C 	C 	0.0792	0.5491	0.0464	0.241
Mof_C 	C 	0.9692	0.6022	0.0888	-0.529
Mof_C 	C 	0.0188	0.6887	0.1858	0.52
Mof_C 	C 	0.6252	0.1276	0.4254	0.56
Mof_C 	C 	0.6122	0.228	0.4106	-0.238
Mof_C 	C 	0.7116	0.2461	0.3604	0.113
Mof_C 	C 	0.7027	0.3418	0.349	-0.174
Mof_C 	C 	0.613	0.416	0.3934	0.078
Mof_C 	C 	0.5124	0.3926	0.4408	-0.177
Mof_C 	C 	0.5114	0.2972	0.4468	0.131
Mof_C 	C 	0.6175	0.5216	0.389	0.047
Mof_C 	C 	0.6622	0.5288	0.308	-0.135
Mof_C 	C 	0.6858	0.6298	0.3136	0.069
Mof_C 	C 	0.6592	0.7172	0.3906	-0.172
Mof_C 	C 	0.6071	0.7077	0.4654	0.108
Mof_C 	C 	0.5933	0.6103	0.4664	-0.158
Mof_C 	C 	0.7104	0.8269	0.4016	0.431
Mof_C 	C 	0.889	0.1664	0.6672	0.625
Mof_C 	C 	0.9401	0.2642	0.7646	-0.391
Mof_C 	C 	0.0954	0.3126	0.8078	0.263
Mof_C 	C 	0.1559	0.4038	0.9038	-0.215
Mof_C 	C 	0.0328	0.4509	0.9536	0.107
Mof_C 	C 	0.8804	0.3978	0.9112	-0.284
Mof_C 	C 	0.833	0.3113	0.8142	0.231
Mof_O 	O 	0.3287	0.9178	0.583	-0.661
Mof_O 	O 	0.0604	0.9019	0.5538	-0.528
Mof_O 	O 	0.2295	0.094	0.5192	-0.637
Mof_O 	O 	0.4347	0.1691	0.664	-0.502
Mof_O 	O 	0.3676	0.8716	0.378	-0.613
Mof_O 	O 	0.1062	0.8768	0.3616	-0.618
Mof_O 	O 	0.7457	0.0822	0.417	-0.662
Mof_O 	O 	0.5066	0.0981	0.4462	-0.57
Mof_O 	O 	0.7103	0.906	0.4808	-0.652
Mof_O 	O 	0.7707	0.8309	0.336	-0.5
Mof_O 	O 	0.9896	0.1284	0.622	-0.626
Mof_O 	O 	0.7446	0.1232	0.6384	-0.651
_end
