data_functionalizedCrystal
_audit_creation_method	'EQeq! by Chris Wilmer'
_symmetry_space_group_name_H-M	'P1'
_symmetry_Int_Tables_number	1
_symmetry_cell_setting	triclinic
loop_
_symmetry_equiv_pos_as_xyz
  x,y,z
_cell_length_a	18.3149
_cell_length_b	18.3149
_cell_length_c	18.3149
_cell_angle_alpha	60.3295
_cell_angle_beta	60.3295
_cell_angle_gamma	60.3295
loop_
_atom_site_label
_atom_site_type_symbol
_atom_site_fract_x
_atom_site_fract_y
_atom_site_fract_z
_atom_site_charge
Mof_Zn	Zn	0.20609	0.20609	0.20609	1.205
Mof_Zn	Zn	0.79391	0.79391	0.79391	1.205
Mof_Zn	Zn	0.20677	0.37952	0.20677	1.216
Mof_Zn	Zn	0.20677	0.20677	0.37952	1.216
Mof_Zn	Zn	0.37952	0.20677	0.20677	1.216
Mof_Zn	Zn	0.62048	0.79323	0.79323	1.216
Mof_Zn	Zn	0.79323	0.79323	0.62048	1.216
Mof_Zn	Zn	0.79323	0.62048	0.79323	1.216
Mof_H 	H 	0.0426	0.3435	0.5653	0.051
Mof_H 	H 	0.5653	0.0426	0.3435	0.051
Mof_H 	H 	0.3435	0.5653	0.0426	0.051
Mof_H 	H 	0.6565	0.9574	0.4347	0.051
Mof_H 	H 	0.9574	0.4347	0.6565	0.051
Mof_H 	H 	0.4347	0.6565	0.9574	0.051
Mof_H 	H 	0.9574	0.6565	0.4347	0.051
Mof_H 	H 	0.4347	0.9574	0.6565	0.051
Mof_H 	H 	0.6565	0.4347	0.9574	0.051
Mof_H 	H 	0.3435	0.0426	0.5653	0.051
Mof_H 	H 	0.0426	0.5653	0.3435	0.051
Mof_H 	H 	0.5653	0.3435	0.0426	0.051
Mof_H 	H 	0.0488	0.5586	0.0488	0.055
Mof_H 	H 	0.0417	0.3445	0.0417	0.051
Mof_H 	H 	0.0488	0.0488	0.5586	0.055
Mof_H 	H 	0.0417	0.0417	0.3445	0.051
Mof_H 	H 	0.5586	0.0488	0.0488	0.055
Mof_H 	H 	0.3445	0.0417	0.0417	0.051
Mof_H 	H 	0.4414	0.9512	0.9512	0.055
Mof_H 	H 	0.6555	0.9583	0.9583	0.051
Mof_H 	H 	0.9512	0.9512	0.4414	0.055
Mof_H 	H 	0.9583	0.9583	0.6555	0.051
Mof_H 	H 	0.9512	0.4414	0.9512	0.055
Mof_H 	H 	0.9583	0.6555	0.9583	0.051
Mof_C 	C 	0.0277	0.4051	0.5387	-0.017
Mof_C 	C 	0.5387	0.0277	0.4051	-0.017
Mof_C 	C 	0.4051	0.5387	0.0277	-0.017
Mof_C 	C 	0.5949	0.9723	0.4613	-0.017
Mof_C 	C 	0.9723	0.4613	0.5949	-0.017
Mof_C 	C 	0.4613	0.5949	0.9723	-0.017
Mof_C 	C 	0.9723	0.5949	0.4613	-0.017
Mof_C 	C 	0.4613	0.9723	0.5949	-0.017
Mof_C 	C 	0.5949	0.4613	0.9723	-0.017
Mof_C 	C 	0.4051	0.0277	0.5387	-0.017
Mof_C 	C 	0.0277	0.5387	0.4051	-0.017
Mof_C 	C 	0.5387	0.4051	0.0277	-0.017
Mof_C 	C 	0.1113	0.3901	0.1113	0.34
Mof_C 	C 	0.0539	0.444	0.0539	-0.069
Mof_C 	C 	0.0294	0.5353	0.0294	-0.025
Mof_C 	C 	0.0252	0.406	0.0252	-0.02
Mof_C 	C 	0.1113	0.1113	0.3901	0.34
Mof_C 	C 	0.0539	0.0539	0.444	-0.069
Mof_C 	C 	0.0294	0.0294	0.5353	-0.025
Mof_C 	C 	0.0252	0.0252	0.406	-0.02
Mof_C 	C 	0.3901	0.1113	0.1113	0.34
Mof_C 	C 	0.444	0.0539	0.0539	-0.069
Mof_C 	C 	0.5353	0.0294	0.0294	-0.025
Mof_C 	C 	0.406	0.0252	0.0252	-0.02
Mof_C 	C 	0.6099	0.8887	0.8887	0.34
Mof_C 	C 	0.556	0.9461	0.9461	-0.069
Mof_C 	C 	0.4647	0.9706	0.9706	-0.025
Mof_C 	C 	0.594	0.9748	0.9748	-0.02
Mof_C 	C 	0.8887	0.8887	0.6099	0.34
Mof_C 	C 	0.9461	0.9461	0.556	-0.069
Mof_C 	C 	0.9706	0.9706	0.4647	-0.025
Mof_C 	C 	0.9748	0.9748	0.594	-0.02
Mof_C 	C 	0.8887	0.6099	0.8887	0.34
Mof_C 	C 	0.9461	0.556	0.9461	-0.069
Mof_C 	C 	0.9706	0.4647	0.9706	-0.025
Mof_C 	C 	0.9748	0.594	0.9748	-0.02
Mof_C 	C 	0.1117	0.3894	0.3894	0.324
Mof_C 	C 	0.0599	0.44245	0.44245	-0.088
Mof_C 	C 	0.3894	0.1117	0.3894	0.324
Mof_C 	C 	0.44245	0.0599	0.44245	-0.088
Mof_C 	C 	0.3894	0.3894	0.1117	0.324
Mof_C 	C 	0.44245	0.44245	0.0599	-0.088
Mof_C 	C 	0.6106	0.8883	0.6106	0.324
Mof_C 	C 	0.55755	0.9401	0.55755	-0.088
Mof_C 	C 	0.8883	0.6106	0.6106	0.324
Mof_C 	C 	0.9401	0.55755	0.55755	-0.088
Mof_C 	C 	0.6106	0.6106	0.8883	0.324
Mof_C 	C 	0.55755	0.55755	0.9401	-0.088
Mof_O 	O 	0.13529	0.42759	0.30119	-0.479
Mof_O 	O 	0.30119	0.13529	0.42759	-0.479
Mof_O 	O 	0.42759	0.30119	0.13529	-0.479
Mof_O 	O 	0.57241	0.86471	0.69881	-0.479
Mof_O 	O 	0.86471	0.69881	0.57241	-0.479
Mof_O 	O 	0.69881	0.57241	0.86471	-0.479
Mof_O 	O 	0.86471	0.57241	0.69881	-0.479
Mof_O 	O 	0.69881	0.86471	0.57241	-0.479
Mof_O 	O 	0.57241	0.69881	0.86471	-0.479
Mof_O 	O 	0.42759	0.13529	0.30119	-0.479
Mof_O 	O 	0.13529	0.30119	0.42759	-0.479
Mof_O 	O 	0.30119	0.42759	0.13529	-0.479
Mof_O 	O 	0.25153	0.25153	0.25153	-0.956
Mof_O 	O 	0.74847	0.74847	0.74847	-0.956
Mof_O 	O 	0.1341	0.3022	0.1341	-0.483
Mof_O 	O 	0.1338	0.4282	0.1338	-0.494
Mof_O 	O 	0.1341	0.1341	0.3022	-0.483
Mof_O 	O 	0.1338	0.1338	0.4282	-0.494
Mof_O 	O 	0.3022	0.1341	0.1341	-0.483
Mof_O 	O 	0.4282	0.1338	0.1338	-0.494
Mof_O 	O 	0.6978	0.8659	0.8659	-0.483
Mof_O 	O 	0.5718	0.8662	0.8662	-0.494
Mof_O 	O 	0.8659	0.8659	0.6978	-0.483
Mof_O 	O 	0.8662	0.8662	0.5718	-0.494
Mof_O 	O 	0.8659	0.6978	0.8659	-0.483
Mof_O 	O 	0.8662	0.5718	0.8662	-0.494
_end
