data_functionalizedCrystal
_audit_creation_method	'EQeq! by Chris Wilmer'
_symmetry_space_group_name_H-M	'P1'
_symmetry_Int_Tables_number	1
_symmetry_cell_setting	triclinic
loop_
_symmetry_equiv_pos_as_xyz
  x,y,z
_cell_length_a	21.8529
_cell_length_b	15.5019
_cell_length_c	16.8985
_cell_angle_alpha	90
_cell_angle_beta	90
_cell_angle_gamma	90
loop_
_atom_site_label
_atom_site_type_symbol
_atom_site_fract_x
_atom_site_fract_y
_atom_site_fract_z
_atom_site_charge
Mof_Ag	Ag	0.14122	0.29449	0.4534	0.589
Mof_Ag	Ag	0.14678	0.9668	0.2401	0.594
Mof_N 	N 	0.1148	0.2368	0.3305	-0.211
Mof_N 	N 	0.1106	0.1097	0.2516	-0.207
Mof_N 	N 	0.2313	0.3732	0.4453	-0.209
Mof_N 	N 	0.3105	0.4323	0.3667	-0.203
Mof_N 	N 	0.0542	0.3195	0.5243	-0.211
Mof_N 	N 	0.0548	0.8953	0.2728	-0.2
Mof_C 	C 	0.0936	0.281	0.2707	0.105
Mof_H 	H 	0.0866	0.3411	0.2771	-0.027
Mof_C 	C 	0.0808	0.2434	0.1981	-0.181
Mof_H 	H 	0.0669	0.2765	0.1543	0.085
Mof_C 	C 	0.0894	0.1569	0.1928	0.106
Mof_H 	H 	0.0795	0.1289	0.1445	-0.021
Mof_C 	C 	0.1225	0.1534	0.3184	0.105
Mof_H 	H 	0.1382	0.1208	0.3615	-0.031
Mof_C 	C 	0.2668	0.3813	0.5085	0.094
Mof_H 	H 	0.2521	0.3617	0.5583	-0.024
Mof_C 	C 	0.3243	0.4171	0.5043	-0.167
Mof_H 	H 	0.3489	0.4253	0.5501	0.069
Mof_C 	C 	0.3442	0.4405	0.4301	0.098
Mof_H 	H 	0.3842	0.4637	0.4248	-0.02
Mof_C 	C 	0.2537	0.401	0.3774	0.106
Mof_H 	H 	0.2276	0.3987	0.3325	-0.035
Mof_C 	C 	0.0542	0.3501	0.5974	0.088
Mof_H 	H 	0.092	0.3614	0.623	-0.025
Mof_C 	C 	0.0536	0.8186	0.31	0.083
Mof_H 	H 	0.0914	0.792	0.3233	-0.015
Mof_Ag	Ag	0.64122	0.79449	0.4534	0.587
Mof_Ag	Ag	0.64678	0.4668	0.2401	0.595
Mof_N 	N 	0.6148	0.7368	0.3305	-0.211
Mof_N 	N 	0.6106	0.6097	0.2516	-0.208
Mof_N 	N 	0.7313	0.8732	0.4453	-0.209
Mof_N 	N 	0.8105	0.9323	0.3667	-0.203
Mof_N 	N 	0.5542	0.8195	0.5243	-0.212
Mof_N 	N 	0.5548	0.3953	0.2728	-0.2
Mof_C 	C 	0.5936	0.781	0.2707	0.105
Mof_H 	H 	0.5866	0.8411	0.2771	-0.028
Mof_C 	C 	0.5808	0.7434	0.1981	-0.181
Mof_H 	H 	0.5669	0.7765	0.1543	0.084
Mof_C 	C 	0.5894	0.6569	0.1928	0.106
Mof_H 	H 	0.5795	0.6289	0.1445	-0.022
Mof_C 	C 	0.6225	0.6534	0.3184	0.105
Mof_H 	H 	0.6382	0.6208	0.3615	-0.032
Mof_C 	C 	0.7668	0.8813	0.5085	0.094
Mof_H 	H 	0.7521	0.8617	0.5583	-0.024
Mof_C 	C 	0.8243	0.9171	0.5043	-0.167
Mof_H 	H 	0.8489	0.9253	0.5501	0.068
Mof_C 	C 	0.8442	0.9405	0.4301	0.098
Mof_H 	H 	0.8842	0.9637	0.4248	-0.02
Mof_C 	C 	0.7537	0.901	0.3774	0.106
Mof_H 	H 	0.7276	0.8987	0.3325	-0.035
Mof_C 	C 	0.5542	0.8501	0.5974	0.09
Mof_H 	H 	0.592	0.8614	0.623	-0.025
Mof_C 	C 	0.5536	0.3186	0.31	0.085
Mof_H 	H 	0.5914	0.292	0.3233	-0.016
Mof_N 	N 	0.8041	0.8247	0.0202	-0.192
Mof_N 	N 	0.8008	0.9137	0.1361	-0.218
Mof_C 	C 	0.7444	0.8422	0.0066	0.171
Mof_H 	H 	0.725	0.8183	0.9613	-0.068
Mof_C 	C 	0.7111	0.8941	0.0571	-0.204
Mof_H 	H 	0.6691	0.9061	0.0476	0.094
Mof_C 	C 	0.7411	0.9281	0.122	0.108
Mof_H 	H 	0.7187	0.963	0.158	-0.029
Mof_C 	C 	0.8282	0.8627	0.0841	0.109
Mof_H 	H 	0.8704	0.8517	0.0934	-0.029
Mof_N 	N 	0.3041	0.3247	0.0202	-0.192
Mof_N 	N 	0.3008	0.4137	0.1361	-0.218
Mof_C 	C 	0.2444	0.3422	0.0066	0.174
Mof_H 	H 	0.225	0.3183	0.9613	-0.07
Mof_C 	C 	0.2111	0.3941	0.0571	-0.206
Mof_H 	H 	0.1691	0.4061	0.0476	0.095
Mof_C 	C 	0.2411	0.4281	0.122	0.109
Mof_H 	H 	0.2187	0.463	0.158	-0.029
Mof_C 	C 	0.3282	0.3627	0.0841	0.11
Mof_H 	H 	0.3704	0.3517	0.0934	-0.028
Mof_N 	N 	0.1959	0.8247	0.0202	-0.192
Mof_N 	N 	0.1992	0.9137	0.1361	-0.218
Mof_C 	C 	0.2556	0.8422	0.0066	0.171
Mof_H 	H 	0.275	0.8183	0.9613	-0.068
Mof_C 	C 	0.2889	0.8941	0.0571	-0.204
Mof_H 	H 	0.3309	0.9061	0.0476	0.094
Mof_C 	C 	0.2589	0.9281	0.122	0.108
Mof_H 	H 	0.2813	0.963	0.158	-0.029
Mof_C 	C 	0.1718	0.8627	0.0841	0.109
Mof_H 	H 	0.1296	0.8517	0.0934	-0.029
Mof_N 	N 	0.6959	0.3247	0.0202	-0.192
Mof_N 	N 	0.6992	0.4137	0.1361	-0.218
Mof_C 	C 	0.7556	0.3422	0.0066	0.174
Mof_H 	H 	0.775	0.3183	0.9613	-0.07
Mof_C 	C 	0.7889	0.3941	0.0571	-0.206
Mof_H 	H 	0.8309	0.4061	0.0476	0.095
Mof_C 	C 	0.7589	0.4281	0.122	0.109
Mof_H 	H 	0.7813	0.463	0.158	-0.029
Mof_C 	C 	0.6718	0.3627	0.0841	0.11
Mof_H 	H 	0.6296	0.3517	0.0934	-0.028
Mof_Ag	Ag	0.85878	0.29449	0.4534	0.586
Mof_Ag	Ag	0.85322	0.9668	0.2401	0.592
Mof_N 	N 	0.8852	0.2368	0.3305	-0.211
Mof_N 	N 	0.8894	0.1097	0.2516	-0.207
Mof_N 	N 	0.7687	0.3732	0.4453	-0.209
Mof_N 	N 	0.6895	0.4323	0.3667	-0.203
Mof_N 	N 	0.9458	0.3195	0.5243	-0.212
Mof_N 	N 	0.9452	0.8953	0.2728	-0.201
Mof_C 	C 	0.9064	0.281	0.2707	0.104
Mof_H 	H 	0.9134	0.3411	0.2771	-0.028
Mof_C 	C 	0.9192	0.2434	0.1981	-0.181
Mof_H 	H 	0.9331	0.2765	0.1543	0.083
Mof_C 	C 	0.9106	0.1569	0.1928	0.105
Mof_H 	H 	0.9205	0.1289	0.1445	-0.022
Mof_C 	C 	0.8775	0.1534	0.3184	0.105
Mof_H 	H 	0.8618	0.1208	0.3615	-0.031
Mof_C 	C 	0.7332	0.3813	0.5085	0.094
Mof_H 	H 	0.7479	0.3617	0.5583	-0.024
Mof_C 	C 	0.6757	0.4171	0.5043	-0.167
Mof_H 	H 	0.6511	0.4253	0.5501	0.069
Mof_C 	C 	0.6558	0.4405	0.4301	0.098
Mof_H 	H 	0.6158	0.4637	0.4248	-0.02
Mof_C 	C 	0.7463	0.401	0.3774	0.106
Mof_H 	H 	0.7724	0.3987	0.3325	-0.035
Mof_C 	C 	0.9458	0.3501	0.5974	0.084
Mof_H 	H 	0.908	0.3614	0.623	-0.024
Mof_C 	C 	0.9464	0.8186	0.31	0.079
Mof_H 	H 	0.9086	0.792	0.3233	-0.014
Mof_Ag	Ag	0.35878	0.79449	0.4534	0.587
Mof_Ag	Ag	0.35322	0.4668	0.2401	0.595
Mof_N 	N 	0.3852	0.7368	0.3305	-0.211
Mof_N 	N 	0.3894	0.6097	0.2516	-0.208
Mof_N 	N 	0.2687	0.8732	0.4453	-0.209
Mof_N 	N 	0.1895	0.9323	0.3667	-0.203
Mof_N 	N 	0.4458	0.8195	0.5243	-0.212
Mof_N 	N 	0.4452	0.3953	0.2728	-0.2
Mof_C 	C 	0.4064	0.781	0.2707	0.105
Mof_H 	H 	0.4134	0.8411	0.2771	-0.028
Mof_C 	C 	0.4192	0.7434	0.1981	-0.181
Mof_H 	H 	0.4331	0.7765	0.1543	0.084
Mof_C 	C 	0.4106	0.6569	0.1928	0.106
Mof_H 	H 	0.4205	0.6289	0.1445	-0.022
Mof_C 	C 	0.3775	0.6534	0.3184	0.105
Mof_H 	H 	0.3618	0.6208	0.3615	-0.032
Mof_C 	C 	0.2332	0.8813	0.5085	0.094
Mof_H 	H 	0.2479	0.8617	0.5583	-0.024
Mof_C 	C 	0.1757	0.9171	0.5043	-0.167
Mof_H 	H 	0.1511	0.9253	0.5501	0.069
Mof_C 	C 	0.1558	0.9405	0.4301	0.098
Mof_H 	H 	0.1158	0.9637	0.4248	-0.02
Mof_C 	C 	0.2463	0.901	0.3774	0.106
Mof_H 	H 	0.2724	0.8987	0.3325	-0.035
Mof_C 	C 	0.4458	0.8501	0.5974	0.09
Mof_H 	H 	0.408	0.8614	0.623	-0.025
Mof_C 	C 	0.4464	0.3186	0.31	0.085
Mof_H 	H 	0.4086	0.292	0.3233	-0.016
Mof_C 	C 	6.25716e-33	0.3659	0.6372	-0.163
Mof_H 	H 	2.00055e-33	0.3869	0.69	0.071
Mof_C 	C 	-7.39783e-33	0.3054	0.4903	0.103
Mof_H 	H 	5.67903e-33	0.2837	0.4378	-0.034
Mof_C 	C 	9.55626e-34	0.7769	0.3296	-0.156
Mof_H 	H 	-7.78924e-33	0.7224	0.3553	0.07
Mof_C 	C 	-1.45188e-33	0.9304	0.2597	0.108
Mof_H 	H 	2.89634e-33	0.9871	0.2385	-0.027
Mof_C 	C 	0.5	0.8659	0.6372	-0.169
Mof_H 	H 	0.5	0.8869	0.69	0.072
Mof_C 	C 	0.5	0.8054	0.4903	0.1
Mof_H 	H 	0.5	0.7837	0.4378	-0.035
Mof_C 	C 	0.5	0.2769	0.3296	-0.162
Mof_H 	H 	0.5	0.2224	0.3553	0.071
Mof_C 	C 	0.5	0.4304	0.2597	0.105
Mof_H 	H 	0.5	0.4871	0.2385	-0.027
Mof_N 	N 	0.1959	0.1753	0.5202	-0.192
Mof_N 	N 	0.1992	0.0863	0.6361	-0.212
Mof_C 	C 	0.2556	0.1578	0.5066	0.081
Mof_H 	H 	0.275	0.1817	0.4613	-0.012
Mof_C 	C 	0.2889	0.1059	0.5571	-0.157
Mof_H 	H 	0.3309	0.0939	0.5476	0.069
Mof_C 	C 	0.2589	0.0719	0.622	0.084
Mof_H 	H 	0.2813	0.037	0.658	-0.022
Mof_C 	C 	0.1718	0.1373	0.5841	0.104
Mof_H 	H 	0.1296	0.1483	0.5934	-0.034
Mof_N 	N 	0.6959	0.6753	0.5202	-0.192
Mof_N 	N 	0.6992	0.5863	0.6361	-0.212
Mof_C 	C 	0.7556	0.6578	0.5066	0.08
Mof_H 	H 	0.775	0.6817	0.4613	-0.012
Mof_C 	C 	0.7889	0.6059	0.5571	-0.158
Mof_H 	H 	0.8309	0.5939	0.5476	0.068
Mof_C 	C 	0.7589	0.5719	0.622	0.083
Mof_H 	H 	0.7813	0.537	0.658	-0.023
Mof_C 	C 	0.6718	0.6373	0.5841	0.104
Mof_H 	H 	0.6296	0.6483	0.5934	-0.034
Mof_Ag	Ag	0.85878	0.70551	0.9534	0.528
Mof_Ag	Ag	0.85322	0.0332	0.7401	0.587
Mof_N 	N 	0.8852	0.7632	0.8305	-0.209
Mof_N 	N 	0.8894	0.8903	0.7516	-0.208
Mof_N 	N 	0.7687	0.6268	0.9453	-0.224
Mof_N 	N 	0.6895	0.5677	0.8667	-0.193
Mof_N 	N 	0.9458	0.6805	0.0243	-0.169
Mof_N 	N 	0.9452	0.1047	0.7728	-0.201
Mof_C 	C 	0.9064	0.719	0.7707	0.102
Mof_H 	H 	0.9134	0.6589	0.7771	-0.029
Mof_C 	C 	0.9192	0.7566	0.6981	-0.182
Mof_H 	H 	0.9331	0.7235	0.6543	0.079
Mof_C 	C 	0.9106	0.8431	0.6928	0.104
Mof_H 	H 	0.9205	0.8711	0.6445	-0.027
Mof_C 	C 	0.8775	0.8466	0.8184	0.103
Mof_H 	H 	0.8618	0.8792	0.8615	-0.036
Mof_C 	C 	0.7332	0.6187	0.0085	0.113
Mof_H 	H 	0.7479	0.6383	0.0583	-0.023
Mof_C 	C 	0.6757	0.5829	0.0043	-0.104
Mof_H 	H 	0.6511	0.5747	0.0501	0.054
Mof_C 	C 	0.6558	0.5595	0.9301	0.031
Mof_H 	H 	0.6158	0.5363	0.9248	-0.007
Mof_C 	C 	0.7463	0.599	0.8774	0.096
Mof_H 	H 	0.7724	0.6013	0.8325	-0.033
Mof_C 	C 	0.9458	0.6499	0.0974	0.078
Mof_H 	H 	0.908	0.6386	0.123	-0.015
Mof_C 	C 	0.9464	0.1814	0.81	0.075
Mof_H 	H 	0.9086	0.208	0.8233	-0.017
Mof_Ag	Ag	0.35878	0.20551	0.9534	0.528
Mof_Ag	Ag	0.35322	0.5332	0.7401	0.587
Mof_N 	N 	0.3852	0.2632	0.8305	-0.209
Mof_N 	N 	0.3894	0.3903	0.7516	-0.208
Mof_N 	N 	0.2687	0.1268	0.9453	-0.224
Mof_N 	N 	0.1895	0.0677	0.8667	-0.193
Mof_N 	N 	0.4458	0.1805	0.0243	-0.166
Mof_N 	N 	0.4452	0.6047	0.7728	-0.2
Mof_C 	C 	0.4064	0.219	0.7707	0.102
Mof_H 	H 	0.4134	0.1589	0.7771	-0.028
Mof_C 	C 	0.4192	0.2566	0.6981	-0.181
Mof_H 	H 	0.4331	0.2235	0.6543	0.08
Mof_C 	C 	0.4106	0.3431	0.6928	0.105
Mof_H 	H 	0.4205	0.3711	0.6445	-0.026
Mof_C 	C 	0.3775	0.3466	0.8184	0.103
Mof_H 	H 	0.3618	0.3792	0.8615	-0.036
Mof_C 	C 	0.2332	0.1187	0.0085	0.114
Mof_H 	H 	0.2479	0.1383	0.0583	-0.023
Mof_C 	C 	0.1757	0.0829	0.0043	-0.103
Mof_H 	H 	0.1511	0.0747	0.0501	0.055
Mof_C 	C 	0.1558	0.0595	0.9301	0.031
Mof_H 	H 	0.1158	0.0363	0.9248	-0.007
Mof_C 	C 	0.2463	0.099	0.8774	0.096
Mof_H 	H 	0.2724	0.1013	0.8325	-0.033
Mof_C 	C 	0.4458	0.1499	0.0974	0.084
Mof_H 	H 	0.408	0.1386	0.123	-0.016
Mof_C 	C 	0.4464	0.6814	0.81	0.081
Mof_H 	H 	0.4086	0.708	0.8233	-0.018
Mof_Ag	Ag	0.14122	0.70551	0.9534	0.529
Mof_Ag	Ag	0.14678	0.0332	0.7401	0.589
Mof_N 	N 	0.1148	0.7632	0.8305	-0.209
Mof_N 	N 	0.1106	0.8903	0.7516	-0.208
Mof_N 	N 	0.2313	0.6268	0.9453	-0.224
Mof_N 	N 	0.3105	0.5677	0.8667	-0.193
Mof_N 	N 	0.0542	0.6805	0.0243	-0.168
Mof_N 	N 	0.0548	0.1047	0.7728	-0.2
Mof_C 	C 	0.0936	0.719	0.7707	0.103
Mof_H 	H 	0.0866	0.6589	0.7771	-0.028
Mof_C 	C 	0.0808	0.7566	0.6981	-0.181
Mof_H 	H 	0.0669	0.7235	0.6543	0.08
Mof_C 	C 	0.0894	0.8431	0.6928	0.105
Mof_H 	H 	0.0795	0.8711	0.6445	-0.026
Mof_C 	C 	0.1225	0.8466	0.8184	0.104
Mof_H 	H 	0.1382	0.8792	0.8615	-0.036
Mof_C 	C 	0.2668	0.6187	0.0085	0.113
Mof_H 	H 	0.2521	0.6383	0.0583	-0.023
Mof_C 	C 	0.3243	0.5829	0.0043	-0.104
Mof_H 	H 	0.3489	0.5747	0.0501	0.054
Mof_C 	C 	0.3442	0.5595	0.9301	0.031
Mof_H 	H 	0.3842	0.5363	0.9248	-0.007
Mof_C 	C 	0.2537	0.599	0.8774	0.096
Mof_H 	H 	0.2276	0.6013	0.8325	-0.033
Mof_C 	C 	0.0542	0.6499	0.0974	0.082
Mof_H 	H 	0.092	0.6386	0.123	-0.016
Mof_C 	C 	0.0536	0.1814	0.81	0.079
Mof_H 	H 	0.0914	0.208	0.8233	-0.017
Mof_Ag	Ag	0.64122	0.20551	0.9534	0.528
Mof_Ag	Ag	0.64678	0.5332	0.7401	0.587
Mof_N 	N 	0.6148	0.2632	0.8305	-0.209
Mof_N 	N 	0.6106	0.3903	0.7516	-0.208
Mof_N 	N 	0.7313	0.1268	0.9453	-0.224
Mof_N 	N 	0.8105	0.0677	0.8667	-0.193
Mof_N 	N 	0.5542	0.1805	0.0243	-0.166
Mof_N 	N 	0.5548	0.6047	0.7728	-0.2
Mof_C 	C 	0.5936	0.219	0.7707	0.102
Mof_H 	H 	0.5866	0.1589	0.7771	-0.028
Mof_C 	C 	0.5808	0.2566	0.6981	-0.181
Mof_H 	H 	0.5669	0.2235	0.6543	0.08
Mof_C 	C 	0.5894	0.3431	0.6928	0.105
Mof_H 	H 	0.5795	0.3711	0.6445	-0.026
Mof_C 	C 	0.6225	0.3466	0.8184	0.103
Mof_H 	H 	0.6382	0.3792	0.8615	-0.036
Mof_C 	C 	0.7668	0.1187	0.0085	0.115
Mof_H 	H 	0.7521	0.1383	0.0583	-0.023
Mof_C 	C 	0.8243	0.0829	0.0043	-0.103
Mof_H 	H 	0.8489	0.0747	0.0501	0.054
Mof_C 	C 	0.8442	0.0595	0.9301	0.031
Mof_H 	H 	0.8842	0.0363	0.9248	-0.007
Mof_C 	C 	0.7537	0.099	0.8774	0.096
Mof_H 	H 	0.7276	0.1013	0.8325	-0.033
Mof_C 	C 	0.5542	0.1499	0.0974	0.084
Mof_H 	H 	0.592	0.1386	0.123	-0.016
Mof_C 	C 	0.5536	0.6814	0.81	0.081
Mof_H 	H 	0.5914	0.708	0.8233	-0.018
Mof_N 	N 	0.8041	0.1753	0.5202	-0.192
Mof_N 	N 	0.8008	0.0863	0.6361	-0.212
Mof_C 	C 	0.7444	0.1578	0.5066	0.081
Mof_H 	H 	0.725	0.1817	0.4613	-0.012
Mof_C 	C 	0.7111	0.1059	0.5571	-0.157
Mof_H 	H 	0.6691	0.0939	0.5476	0.069
Mof_C 	C 	0.7411	0.0719	0.622	0.084
Mof_H 	H 	0.7187	0.037	0.658	-0.022
Mof_C 	C 	0.8282	0.1373	0.5841	0.104
Mof_H 	H 	0.8704	0.1483	0.5934	-0.035
Mof_N 	N 	0.3041	0.6753	0.5202	-0.192
Mof_N 	N 	0.3008	0.5863	0.6361	-0.212
Mof_C 	C 	0.2444	0.6578	0.5066	0.08
Mof_H 	H 	0.225	0.6817	0.4613	-0.012
Mof_C 	C 	0.2111	0.6059	0.5571	-0.158
Mof_H 	H 	0.1691	0.5939	0.5476	0.069
Mof_C 	C 	0.2411	0.5719	0.622	0.084
Mof_H 	H 	0.2187	0.537	0.658	-0.023
Mof_C 	C 	0.3282	0.6373	0.5841	0.104
Mof_H 	H 	0.3704	0.6483	0.5934	-0.034
Mof_C 	C 	2.60264e-33	0.6341	0.1372	-0.145
Mof_H 	H 	-1.65397e-33	0.6131	0.19	0.068
Mof_C 	C 	2.87123e-33	0.6946	0.9903	0.016
Mof_H 	H 	-6.10037e-33	0.7163	0.9378	-0.011
Mof_C 	C 	2.4053e-33	0.2231	0.8296	-0.157
Mof_H 	H 	2.47981e-33	0.2776	0.8553	0.063
Mof_C 	C 	2.20264e-33	0.0696	0.7597	0.104
Mof_H 	H 	-2.26852e-33	0.0129	0.7385	-0.027
Mof_C 	C 	0.5	0.1341	0.1372	-0.151
Mof_H 	H 	0.5	0.1131	0.19	0.07
Mof_C 	C 	0.5	0.1946	0.9903	0.01
Mof_H 	H 	0.5	0.2163	0.9378	-0.01
Mof_C 	C 	0.5	0.7231	0.8296	-0.163
Mof_H 	H 	0.5	0.7776	0.8553	0.065
Mof_C 	C 	0.5	0.5696	0.7597	0.101
Mof_H 	H 	0.5	0.5129	0.7385	-0.028
_end
