data_functionalizedCrystal
_audit_creation_method	'EQeq! by Chris Wilmer'
_symmetry_space_group_name_H-M	'P1'
_symmetry_Int_Tables_number	1
_symmetry_cell_setting	triclinic
loop_
_symmetry_equiv_pos_as_xyz
  x,y,z
_cell_length_a	7.2351
_cell_length_b	10.1999
_cell_length_c	13.055
_cell_angle_alpha	90
_cell_angle_beta	90
_cell_angle_gamma	100.427
loop_
_atom_site_label
_atom_site_type_symbol
_atom_site_fract_x
_atom_site_fract_y
_atom_site_fract_z
_atom_site_charge
Mof_Sm	Sm	0.16364	0.28216	0.90595	2.192
Mof_Sm	Sm	0.83636	0.21784	0.40595	2.316
Mof_Sm	Sm	0.83636	0.71784	0.09405	2.296
Mof_Sm	Sm	0.16364	0.78216	0.59405	2.194
Mof_P 	P 	0.78841	0.06941	0.0491	0.52
Mof_P 	P 	0.21159	0.43059	0.5491	0.545
Mof_P 	P 	0.21159	0.93059	0.9509	0.536
Mof_P 	P 	0.78841	0.56941	0.4509	0.526
Mof_H 	H 	0.593	0.1861	0.0441	0.287
Mof_H 	H 	0.8659	0.9993	0.2601	0.297
Mof_H 	H 	0.0573	0.0851	0.1507	-0.024
Mof_H 	H 	0.407	0.3139	0.5441	0.283
Mof_H 	H 	0.1341	0.5007	0.7601	0.267
Mof_H 	H 	0.9427	0.4149	0.6507	0.103
Mof_H 	H 	0.407	0.8139	0.9559	0.283
Mof_H 	H 	0.1341	0.0007	0.7399	0.273
Mof_H 	H 	0.9427	0.9149	0.8493	0.103
Mof_H 	H 	0.593	0.6861	0.4559	0.288
Mof_H 	H 	0.8659	0.4993	0.2399	0.301
Mof_H 	H 	0.0573	0.5851	0.3493	-0.03
Mof_C 	C 	0.9437	0.1243	0.157	0.011
Mof_C 	C 	-2.2097e-17	0.2744	0.1638	0.309
Mof_C 	C 	0.4532	0.5549	0.9758	0.27
Mof_C 	C 	0.0563	0.3757	0.657	-0.192
Mof_C 	C 	-1.45581e-17	0.2256	0.6638	0.388
Mof_C 	C 	0.5468	0.9451	0.4758	0.26
Mof_C 	C 	0.0563	0.8757	0.843	-0.191
Mof_C 	C 	-2.28172e-17	0.7256	0.8362	0.38
Mof_C 	C 	0.5468	0.4451	0.0242	0.261
Mof_C 	C 	0.9437	0.6243	0.343	0.022
Mof_C 	C 	-4.53542e-17	0.7744	0.3362	0.302
Mof_C 	C 	0.4532	0.0549	0.5242	0.27
Mof_O 	O 	0.6037	0.1218	0.0799	-0.454
Mof_O 	O 	0.8717	0.1318	0.9516	-0.453
Mof_O 	O 	0.7465	0.9205	0.0537	-0.506
Mof_O 	O 	0.8446	0.0739	0.2475	-0.593
Mof_O 	O 	0.0813	0.3336	0.0874	-0.492
Mof_O 	O 	0.961	0.3306	0.245	-0.458
Mof_O 	O 	0.3031	0.5183	0.9281	-0.485
Mof_O 	O 	0.534	0.6727	0.9905	-0.454
Mof_O 	O 	0.3963	0.3782	0.5799	-0.451
Mof_O 	O 	0.1283	0.3682	0.4516	-0.526
Mof_O 	O 	0.2535	0.5795	0.5537	-0.506
Mof_O 	O 	0.1554	0.4261	0.7475	-0.537
Mof_O 	O 	0.9187	0.1664	0.5874	-0.463
Mof_O 	O 	0.039	0.1694	0.745	-0.517
Mof_O 	O 	0.6969	0.9817	0.4281	-0.483
Mof_O 	O 	0.466	0.8273	0.4905	-0.445
Mof_O 	O 	0.3963	0.8782	0.9201	-0.45
Mof_O 	O 	0.1283	0.8682	0.0484	-0.52
Mof_O 	O 	0.2535	0.0795	0.9463	-0.502
Mof_O 	O 	0.1554	0.9261	0.7525	-0.544
Mof_O 	O 	0.9187	0.6664	0.9126	-0.454
Mof_O 	O 	0.039	0.6694	0.755	-0.516
Mof_O 	O 	0.6969	0.4817	0.0719	-0.482
Mof_O 	O 	0.466	0.3273	0.0095	-0.445
Mof_O 	O 	0.6037	0.6218	0.4201	-0.455
Mof_O 	O 	0.8717	0.6318	0.5484	-0.462
Mof_O 	O 	0.7465	0.4205	0.4463	-0.504
Mof_O 	O 	0.8446	0.5739	0.2525	-0.598
Mof_O 	O 	0.0813	0.8336	0.4126	-0.494
Mof_O 	O 	0.961	0.8306	0.255	-0.455
Mof_O 	O 	0.3031	0.0183	0.5719	-0.484
Mof_O 	O 	0.534	0.1727	0.5095	-0.458
_end
