data_functionalizedCrystal
_audit_creation_method	'EQeq! by Chris Wilmer'
_symmetry_space_group_name_H-M	'P1'
_symmetry_Int_Tables_number	1
_symmetry_cell_setting	triclinic
loop_
_symmetry_equiv_pos_as_xyz
  x,y,z
_cell_length_a	13.675
_cell_length_b	27.881
_cell_length_c	45.714
_cell_angle_alpha	90
_cell_angle_beta	90
_cell_angle_gamma	90
loop_
_atom_site_label
_atom_site_type_symbol
_atom_site_fract_x
_atom_site_fract_y
_atom_site_fract_z
_atom_site_charge
Mof_Zn	Zn	0.1448	0.74404	0.18894	1.165
Mof_Zn	Zn	0.16089	0.55725	0.92953	1.164
Mof_Zn	Zn	0.35031	0.52777	0.0872	1.165
Mof_Zn	Zn	0.8552	0.75596	0.68894	1.164
Mof_Zn	Zn	0.83911	0.94275	0.42953	1.163
Mof_Zn	Zn	0.64969	0.97223	0.5872	1.163
Mof_Zn	Zn	0.6448	0.25596	0.31106	1.164
Mof_Zn	Zn	0.66089	0.44275	0.57047	1.163
Mof_Zn	Zn	0.85031	0.47223	0.4128	1.164
Mof_Zn	Zn	0.3552	0.24404	0.81106	1.164
Mof_Zn	Zn	0.33911	0.05725	0.07046	1.163
Mof_Zn	Zn	0.14969	0.02777	0.9128	1.163
Mof_H 	H 	0.1824	0.6889	0.1358	-0.009
Mof_H 	H 	0.1008	0.6535	0.0965	0.082
Mof_H 	H 	0.9331	0.7186	0.1745	-0.014
Mof_H 	H 	0.845	0.6829	0.1369	0.08
Mof_H 	H 	0.4992	0.587	0.1194	-0.004
Mof_H 	H 	0.655	0.6171	0.1136	0.093
Mof_H 	H 	0.5	0.5357	0.0389	-0.002
Mof_H 	H 	0.6564	0.5649	0.0309	0.085
Mof_H 	H 	0.9616	0.5375	0.9554	-0.009
Mof_H 	H 	0.8672	0.5578	0.9954	0.088
Mof_H 	H 	0.1908	0.6038	0.9882	-0.006
Mof_H 	H 	0.1018	0.6272	0.029	0.076
Mof_H 	H 	0.8458	0.8357	0.4385	-0.016
Mof_H 	H 	0.8767	0.7655	0.4131	0.08
Mof_H 	H 	0.9124	0.9139	0.3697	-0.008
Mof_H 	H 	0.9395	0.8461	0.3417	0.08
Mof_H 	H 	0.0295	0.8032	0.2321	0.002
Mof_H 	H 	0.9697	0.7958	0.2796	0.08
Mof_H 	H 	0.0835	0.6643	0.2284	-0.009
Mof_H 	H 	0.0213	0.6533	0.2753	0.079
Mof_H 	H 	0.893	0.5127	0.3529	-0.006
Mof_H 	H 	0.9212	0.5858	0.33	0.08
Mof_H 	H 	0.8825	0.5753	0.43	-0.005
Mof_H 	H 	0.9065	0.6497	0.4088	0.08
Mof_H 	H 	0.8176	0.8111	0.6358	-0.009
Mof_H 	H 	0.8992	0.8465	0.5965	0.082
Mof_H 	H 	0.0669	0.7814	0.6745	-0.015
Mof_H 	H 	0.155	0.8171	0.6369	0.08
Mof_H 	H 	0.5008	0.913	0.6194	-0.004
Mof_H 	H 	0.345	0.8829	0.6136	0.093
Mof_H 	H 	0.5	0.9643	0.5389	-0.002
Mof_H 	H 	0.3436	0.9351	0.5309	0.085
Mof_H 	H 	0.0384	0.9625	0.4554	-0.009
Mof_H 	H 	0.1328	0.9422	0.4954	0.088
Mof_H 	H 	0.8092	0.8962	0.4882	-0.006
Mof_H 	H 	0.8982	0.8728	0.529	0.076
Mof_H 	H 	0.1542	0.6643	0.9385	-0.016
Mof_H 	H 	0.1233	0.7345	0.9131	0.08
Mof_H 	H 	0.0876	0.5861	0.8697	-0.008
Mof_H 	H 	0.0605	0.6539	0.8417	0.08
Mof_H 	H 	0.9705	0.6968	0.7321	0.002
Mof_H 	H 	0.0303	0.7042	0.7796	0.08
Mof_H 	H 	0.9165	0.8357	0.7284	-0.009
Mof_H 	H 	0.9787	0.8467	0.7753	0.079
Mof_H 	H 	0.107	0.9873	0.8529	-0.006
Mof_H 	H 	0.0788	0.9142	0.83	0.08
Mof_H 	H 	0.1175	0.9247	0.93	-0.005
Mof_H 	H 	0.0935	0.8503	0.9088	0.081
Mof_H 	H 	0.6824	0.3111	0.3642	-0.009
Mof_H 	H 	0.6008	0.3465	0.4035	0.082
Mof_H 	H 	0.4331	0.2814	0.3255	-0.014
Mof_H 	H 	0.345	0.3171	0.3631	0.08
Mof_H 	H 	0.9992	0.413	0.3806	-0.004
Mof_H 	H 	0.155	0.3829	0.3864	0.093
Mof_H 	H 	5.77935e-33	0.4643	0.4611	-0.002
Mof_H 	H 	0.1564	0.4351	0.4691	0.084
Mof_H 	H 	0.4616	0.4625	0.5446	-0.009
Mof_H 	H 	0.3672	0.4422	0.5046	0.088
Mof_H 	H 	0.6908	0.3962	0.5118	-0.006
Mof_H 	H 	0.6018	0.3728	0.471	0.076
Mof_H 	H 	0.3458	0.1643	0.0615	-0.016
Mof_H 	H 	0.3767	0.2345	0.0869	0.08
Mof_H 	H 	0.4124	0.0861	0.1303	-0.008
Mof_H 	H 	0.4395	0.1539	0.1583	0.08
Mof_H 	H 	0.5295	0.1968	0.2679	0.002
Mof_H 	H 	0.4697	0.2042	0.2204	0.08
Mof_H 	H 	0.5835	0.3357	0.2716	-0.009
Mof_H 	H 	0.5213	0.3467	0.2247	0.079
Mof_H 	H 	0.393	0.4873	0.1471	-0.006
Mof_H 	H 	0.4212	0.4142	0.17	0.08
Mof_H 	H 	0.3825	0.4247	0.07	-0.005
Mof_H 	H 	0.4065	0.3503	0.0912	0.08
Mof_H 	H 	0.3176	0.1889	0.8642	-0.009
Mof_H 	H 	0.3992	0.1535	0.9035	0.082
Mof_H 	H 	0.5669	0.2186	0.8255	-0.014
Mof_H 	H 	0.655	0.1829	0.8631	0.08
Mof_H 	H 	0.0008	0.087	0.8806	-0.005
Mof_H 	H 	0.845	0.1171	0.8864	0.093
Mof_H 	H 	3.52194e-32	0.0357	0.9611	-0.003
Mof_H 	H 	0.8436	0.0649	0.9691	0.085
Mof_H 	H 	0.5384	0.0375	0.0446	-0.009
Mof_H 	H 	0.6328	0.0578	0.0046	0.088
Mof_H 	H 	0.3092	0.1038	0.0118	-0.006
Mof_H 	H 	0.3982	0.1272	0.971	0.076
Mof_H 	H 	0.6542	0.3357	0.5615	-0.016
Mof_H 	H 	0.6233	0.2655	0.5869	0.08
Mof_H 	H 	0.5876	0.4139	0.6303	-0.008
Mof_H 	H 	0.5605	0.3461	0.6583	0.08
Mof_H 	H 	0.4705	0.3032	0.7679	0.002
Mof_H 	H 	0.5303	0.2958	0.7204	0.08
Mof_H 	H 	0.4165	0.1643	0.7716	-0.009
Mof_H 	H 	0.4787	0.1533	0.7247	0.079
Mof_H 	H 	0.607	0.0127	0.6471	-0.006
Mof_H 	H 	0.5788	0.0858	0.67	0.08
Mof_H 	H 	0.6175	0.0753	0.57	-0.005
Mof_H 	H 	0.5935	0.1497	0.5912	0.08
Mof_C 	C 	0.113	0.6883	0.1357	0.066
Mof_C 	C 	0.0648	0.66677	0.11229	-0.11
Mof_C 	C 	0.9674	0.7054	0.1583	0.074
Mof_C 	C 	0.9143	0.68423	0.13601	-0.121
Mof_C 	C 	0.9643	0.66501	0.11243	0.059
Mof_C 	C 	0.9116	0.6422	0.08762	0.109
Mof_C 	C 	0.5321	0.5822	0.1013	0.065
Mof_C 	C 	0.6247	0.6002	0.09807	-0.121
Mof_C 	C 	0.5326	0.55225	0.05421	0.067
Mof_C 	C 	0.6255	0.5694	0.04929	-0.122
Mof_C 	C 	0.6736	0.59346	0.07176	0.05
Mof_C 	C 	0.7766	0.60938	0.06828	0.101
Mof_C 	C 	0.99	0.55625	0.97049	0.069
Mof_C 	C 	0.9332	0.56827	0.99419	-0.121
Mof_C 	C 	0.1237	0.5951	0.98952	0.065
Mof_C 	C 	0.0712	0.609	0.01399	-0.111
Mof_C 	C 	0.974	0.59614	0.01642	0.05
Mof_C 	C 	0.9162	0.60981	0.04268	0.103
Mof_C 	C 	0.8658	0.8376	0.41858	0.071
Mof_C 	C 	0.8828	0.79561	0.40357	-0.12
Mof_C 	C 	0.9039	0.88327	0.37839	0.061
Mof_C 	C 	0.9205	0.84312	0.36157	-0.116
Mof_C 	C 	0.909	0.79818	0.37427	0.052
Mof_C 	C 	0.9239	0.75396	0.35678	0.102
Mof_C 	C 	0.0294	0.77256	0.24127	0.059
Mof_C 	C 	0.9932	0.76838	0.26946	-0.11
Mof_C 	C 	0.0605	0.69128	0.23904	0.061
Mof_C 	C 	0.024	0.68453	0.26701	-0.113
Mof_C 	C 	0.9918	0.72379	0.28268	0.049
Mof_C 	C 	0.9605	0.71901	0.31372	0.102
Mof_C 	C 	0.896	0.54095	0.36446	0.064
Mof_C 	C 	0.912	0.58452	0.35057	-0.115
Mof_C 	C 	0.8893	0.57737	0.4094	0.065
Mof_C 	C 	0.9038	0.62188	0.39681	-0.113
Mof_C 	C 	0.9142	0.62594	0.36715	0.052
Mof_C 	C 	0.9266	0.67329	0.35318	0.101
Mof_C 	C 	0.887	0.8117	0.6357	0.067
Mof_C 	C 	0.9352	0.83323	0.61229	-0.112
Mof_C 	C 	0.0326	0.7946	0.6583	0.075
Mof_C 	C 	0.0857	0.81577	0.63601	-0.122
Mof_C 	C 	0.0357	0.83499	0.61243	0.06
Mof_C 	C 	0.0884	0.8578	0.58762	0.108
Mof_C 	C 	0.4679	0.9178	0.6013	0.065
Mof_C 	C 	0.3753	0.8998	0.59807	-0.121
Mof_C 	C 	0.4674	0.94775	0.55421	0.067
Mof_C 	C 	0.3745	0.9306	0.54929	-0.122
Mof_C 	C 	0.3264	0.90654	0.57176	0.05
Mof_C 	C 	0.2234	0.89062	0.56828	0.101
Mof_C 	C 	0.01	0.94375	0.47049	0.07
Mof_C 	C 	0.0668	0.93173	0.49419	-0.122
Mof_C 	C 	0.8763	0.9049	0.48952	0.066
Mof_C 	C 	0.9288	0.891	0.51399	-0.113
Mof_C 	C 	0.026	0.90386	0.51642	0.051
Mof_C 	C 	0.0838	0.89019	0.54268	0.103
Mof_C 	C 	0.1342	0.6624	0.91858	0.071
Mof_C 	C 	0.1172	0.70439	0.90357	-0.12
Mof_C 	C 	0.0961	0.61673	0.87839	0.061
Mof_C 	C 	0.0795	0.65688	0.86157	-0.116
Mof_C 	C 	0.091	0.70182	0.87427	0.052
Mof_C 	C 	0.0761	0.74604	0.85678	0.102
Mof_C 	C 	0.9706	0.72744	0.74127	0.058
Mof_C 	C 	0.0068	0.73162	0.76946	-0.109
Mof_C 	C 	0.9395	0.80872	0.73904	0.061
Mof_C 	C 	0.976	0.81547	0.76701	-0.114
Mof_C 	C 	0.0082	0.77621	0.78268	0.05
Mof_C 	C 	0.0395	0.78099	0.81372	0.102
Mof_C 	C 	0.104	0.95905	0.86446	0.064
Mof_C 	C 	0.088	0.91548	0.85057	-0.115
Mof_C 	C 	0.1107	0.92263	0.9094	0.065
Mof_C 	C 	0.0962	0.87812	0.89681	-0.113
Mof_C 	C 	0.0858	0.87406	0.86715	0.053
Mof_C 	C 	0.0734	0.82671	0.85318	0.101
Mof_C 	C 	0.613	0.3117	0.3643	0.066
Mof_C 	C 	0.5648	0.33323	0.38771	-0.11
Mof_C 	C 	0.4674	0.2946	0.3417	0.074
Mof_C 	C 	0.4143	0.31577	0.36399	-0.121
Mof_C 	C 	0.4643	0.33499	0.38757	0.059
Mof_C 	C 	0.4116	0.3578	0.41238	0.109
Mof_C 	C 	0.0321	0.4178	0.3987	0.064
Mof_C 	C 	0.1247	0.3998	0.40193	-0.12
Mof_C 	C 	0.0326	0.44775	0.44579	0.067
Mof_C 	C 	0.1255	0.4306	0.45071	-0.121
Mof_C 	C 	0.1736	0.40654	0.42824	0.049
Mof_C 	C 	0.2766	0.39062	0.43172	0.101
Mof_C 	C 	0.49	0.44375	0.52951	0.069
Mof_C 	C 	0.4332	0.43173	0.50581	-0.121
Mof_C 	C 	0.6237	0.4049	0.51048	0.065
Mof_C 	C 	0.5712	0.391	0.48601	-0.112
Mof_C 	C 	0.474	0.40386	0.48358	0.05
Mof_C 	C 	0.4162	0.39019	0.45732	0.103
Mof_C 	C 	0.3658	0.1624	0.08142	0.071
Mof_C 	C 	0.3828	0.20439	0.09643	-0.12
Mof_C 	C 	0.4039	0.11673	0.12161	0.061
Mof_C 	C 	0.4205	0.15688	0.13843	-0.116
Mof_C 	C 	0.409	0.20182	0.12573	0.052
Mof_C 	C 	0.4239	0.24604	0.14322	0.102
Mof_C 	C 	0.5294	0.22744	0.25873	0.059
Mof_C 	C 	0.4932	0.23162	0.23054	-0.11
Mof_C 	C 	0.5605	0.30872	0.26096	0.061
Mof_C 	C 	0.524	0.31547	0.23299	-0.113
Mof_C 	C 	0.4918	0.27621	0.21732	0.049
Mof_C 	C 	0.4605	0.28099	0.18628	0.102
Mof_C 	C 	0.396	0.45905	0.13554	0.064
Mof_C 	C 	0.412	0.41548	0.14943	-0.115
Mof_C 	C 	0.3893	0.42263	0.0906	0.065
Mof_C 	C 	0.4038	0.37812	0.10319	-0.113
Mof_C 	C 	0.4142	0.37406	0.13285	0.052
Mof_C 	C 	0.4266	0.32671	0.14682	0.101
Mof_C 	C 	0.387	0.1883	0.8643	0.066
Mof_C 	C 	0.4352	0.16677	0.88771	-0.11
Mof_C 	C 	0.5326	0.2054	0.8417	0.074
Mof_C 	C 	0.5857	0.18423	0.86399	-0.121
Mof_C 	C 	0.5357	0.16501	0.88757	0.059
Mof_C 	C 	0.5884	0.1422	0.91238	0.109
Mof_C 	C 	0.9679	0.0822	0.8987	0.065
Mof_C 	C 	0.8753	0.1002	0.90193	-0.121
Mof_C 	C 	0.9674	0.05225	0.94579	0.068
Mof_C 	C 	0.8745	0.0694	0.95071	-0.122
Mof_C 	C 	0.8264	0.09346	0.92824	0.05
Mof_C 	C 	0.7234	0.10938	0.93172	0.101
Mof_C 	C 	0.51	0.05625	0.02951	0.069
Mof_C 	C 	0.5668	0.06827	0.00581	-0.121
Mof_C 	C 	0.3763	0.0951	0.01048	0.065
Mof_C 	C 	0.4288	0.109	0.98601	-0.112
Mof_C 	C 	0.526	0.09614	0.98358	0.05
Mof_C 	C 	0.5838	0.10981	0.95732	0.103
Mof_C 	C 	0.6342	0.3376	0.58142	0.071
Mof_C 	C 	0.6172	0.29561	0.59643	-0.12
Mof_C 	C 	0.5961	0.38327	0.62161	0.061
Mof_C 	C 	0.5795	0.34312	0.63843	-0.116
Mof_C 	C 	0.591	0.29818	0.62573	0.052
Mof_C 	C 	0.5761	0.25396	0.64322	0.102
Mof_C 	C 	0.4706	0.27256	0.75873	0.059
Mof_C 	C 	0.5068	0.26838	0.73054	-0.11
Mof_C 	C 	0.4395	0.19128	0.76096	0.061
Mof_C 	C 	0.476	0.18453	0.73299	-0.113
Mof_C 	C 	0.5082	0.22379	0.71732	0.049
Mof_C 	C 	0.5395	0.21901	0.68628	0.102
Mof_C 	C 	0.604	0.04095	0.63554	0.064
Mof_C 	C 	0.588	0.08452	0.64943	-0.115
Mof_C 	C 	0.6107	0.07737	0.5906	0.065
Mof_C 	C 	0.5962	0.12188	0.60319	-0.113
Mof_C 	C 	0.5858	0.12594	0.63285	0.052
Mof_C 	C 	0.5734	0.17329	0.64682	0.101
Mof_I 	I 	0.30308	0.69652	0.19544	-0.372
Mof_I 	I 	0.15294	0.83302	0.17684	-0.375
Mof_I 	I 	0.34189	0.56653	0.9414	-0.381
Mof_I 	I 	0.07902	0.4893	0.90204	-0.367
Mof_I 	I 	0.27402	0.51072	0.03748	-0.391
Mof_I 	I 	0.26602	0.57649	0.12691	-0.365
Mof_I 	I 	0.69692	0.80348	0.69544	-0.372
Mof_I 	I 	0.84706	0.66698	0.67684	-0.375
Mof_I 	I 	0.65811	0.93347	0.4414	-0.381
Mof_I 	I 	0.92098	0.0107	0.40204	-0.366
Mof_I 	I 	0.72598	0.98928	0.53748	-0.392
Mof_I 	I 	0.73398	0.92351	0.62691	-0.366
Mof_I 	I 	0.80308	0.30348	0.30456	-0.371
Mof_I 	I 	0.65294	0.16698	0.32316	-0.374
Mof_I 	I 	0.84189	0.43347	0.5586	-0.381
Mof_I 	I 	0.57902	0.5107	0.59796	-0.367
Mof_I 	I 	0.77402	0.48928	0.46252	-0.391
Mof_I 	I 	0.76602	0.42351	0.37309	-0.365
Mof_I 	I 	0.19692	0.19652	0.80456	-0.372
Mof_I 	I 	0.34706	0.33302	0.82316	-0.375
Mof_I 	I 	0.15811	0.06653	0.0586	-0.381
Mof_I 	I 	0.42098	0.9893	0.09796	-0.367
Mof_I 	I 	0.22598	0.01072	0.96252	-0.392
Mof_I 	I 	0.23398	0.07649	0.87309	-0.365
Mof_N 	N 	0.0649	0.70801	0.15794	-0.274
Mof_N 	N 	0.4859	0.55795	0.07991	-0.272
Mof_N 	N 	0.0837	0.56985	0.96773	-0.27
Mof_N 	N 	0.8168	0.6323	0.09088	-0.135
Mof_N 	N 	0.8219	0.59791	0.04341	-0.143
Mof_N 	N 	0.9649	0.63208	0.06399	-0.138
Mof_N 	N 	0.8761	0.88099	0.4065	-0.27
Mof_N 	N 	0.0642	0.73478	0.22656	-0.27
Mof_N 	N 	0.8845	0.53702	0.39346	-0.27
Mof_N 	N 	0.9478	0.75982	0.32852	-0.139
Mof_N 	N 	0.9512	0.67472	0.32483	-0.139
Mof_N 	N 	0.9127	0.71192	0.37017	-0.139
Mof_N 	N 	0.9351	0.79199	0.65794	-0.275
Mof_N 	N 	0.5141	0.94205	0.57991	-0.272
Mof_N 	N 	0.9163	0.93015	0.46773	-0.271
Mof_N 	N 	0.1832	0.8677	0.59088	-0.135
Mof_N 	N 	0.1781	0.90209	0.54341	-0.143
Mof_N 	N 	0.0351	0.86792	0.56399	-0.138
Mof_N 	N 	0.1239	0.61901	0.9065	-0.27
Mof_N 	N 	0.9358	0.76522	0.72656	-0.27
Mof_N 	N 	0.1155	0.96298	0.89346	-0.27
Mof_N 	N 	0.0522	0.74018	0.82852	-0.139
Mof_N 	N 	0.0488	0.82528	0.82483	-0.139
Mof_N 	N 	0.0873	0.78808	0.87017	-0.139
Mof_N 	N 	0.5649	0.29199	0.34206	-0.274
Mof_N 	N 	0.9859	0.44205	0.42009	-0.271
Mof_N 	N 	0.5837	0.43015	0.53227	-0.27
Mof_N 	N 	0.3168	0.3677	0.40912	-0.135
Mof_N 	N 	0.3219	0.40209	0.45659	-0.143
Mof_N 	N 	0.4649	0.36792	0.43601	-0.138
Mof_N 	N 	0.3761	0.11901	0.0935	-0.27
Mof_N 	N 	0.5642	0.26522	0.27344	-0.27
Mof_N 	N 	0.3845	0.46298	0.10654	-0.27
Mof_N 	N 	0.4478	0.24018	0.17148	-0.139
Mof_N 	N 	0.4512	0.32528	0.17517	-0.139
Mof_N 	N 	0.4127	0.28808	0.12983	-0.139
Mof_N 	N 	0.4351	0.20801	0.84206	-0.274
Mof_N 	N 	0.0141	0.05795	0.92009	-0.272
Mof_N 	N 	0.4163	0.06985	0.03227	-0.271
Mof_N 	N 	0.6832	0.1323	0.90912	-0.135
Mof_N 	N 	0.6781	0.09791	0.95659	-0.143
Mof_N 	N 	0.5351	0.13208	0.93601	-0.138
Mof_N 	N 	0.6239	0.38099	0.5935	-0.27
Mof_N 	N 	0.4358	0.23478	0.77344	-0.27
Mof_N 	N 	0.6155	0.03702	0.60654	-0.27
Mof_N 	N 	0.5522	0.25982	0.67148	-0.139
Mof_N 	N 	0.5488	0.17472	0.67517	-0.139
Mof_N 	N 	0.5873	0.21192	0.62983	-0.139
Mof_Zn	Zn	0.8552	0.25596	0.81106	1.164
Mof_Zn	Zn	0.83911	0.44275	0.07046	1.163
Mof_Zn	Zn	0.64969	0.47223	0.9128	1.164
Mof_Zn	Zn	0.1448	0.24404	0.31106	1.164
Mof_Zn	Zn	0.16089	0.05725	0.57047	1.163
Mof_Zn	Zn	0.35031	0.02777	0.4128	1.163
Mof_Zn	Zn	0.3552	0.74404	0.68894	1.164
Mof_Zn	Zn	0.33911	0.55725	0.42953	1.163
Mof_Zn	Zn	0.14969	0.52777	0.5872	1.164
Mof_Zn	Zn	0.6448	0.75596	0.18894	1.164
Mof_Zn	Zn	0.66089	0.94275	0.92953	1.163
Mof_Zn	Zn	0.85031	0.97223	0.0872	1.163
Mof_H 	H 	0.8176	0.3111	0.8642	-0.009
Mof_H 	H 	0.8992	0.3465	0.9035	0.082
Mof_H 	H 	0.0669	0.2814	0.8255	-0.014
Mof_H 	H 	0.155	0.3171	0.8631	0.08
Mof_H 	H 	0.5008	0.413	0.8806	-0.004
Mof_H 	H 	0.345	0.3829	0.8864	0.093
Mof_H 	H 	0.5	0.4643	0.9611	-0.002
Mof_H 	H 	0.3436	0.4351	0.9691	0.085
Mof_H 	H 	0.0384	0.4625	0.0446	-0.009
Mof_H 	H 	0.1328	0.4422	0.0046	0.088
Mof_H 	H 	0.8092	0.3962	0.0118	-0.006
Mof_H 	H 	0.8982	0.3728	0.971	0.076
Mof_H 	H 	0.1542	0.1643	0.5615	-0.016
Mof_H 	H 	0.1233	0.2345	0.5869	0.08
Mof_H 	H 	0.0876	0.0861	0.6303	-0.008
Mof_H 	H 	0.0605	0.1539	0.6583	0.08
Mof_H 	H 	0.9705	0.1968	0.7679	0.002
Mof_H 	H 	0.0303	0.2042	0.7204	0.08
Mof_H 	H 	0.9165	0.3357	0.7716	-0.009
Mof_H 	H 	0.9787	0.3467	0.7247	0.079
Mof_H 	H 	0.107	0.4873	0.6471	-0.006
Mof_H 	H 	0.0788	0.4142	0.67	0.08
Mof_H 	H 	0.1175	0.4247	0.57	-0.005
Mof_H 	H 	0.0935	0.3503	0.5912	0.08
Mof_H 	H 	0.1824	0.1889	0.3642	-0.009
Mof_H 	H 	0.1008	0.1535	0.4035	0.082
Mof_H 	H 	0.9331	0.2186	0.3255	-0.014
Mof_H 	H 	0.845	0.1829	0.3631	0.08
Mof_H 	H 	0.4992	0.087	0.3806	-0.004
Mof_H 	H 	0.655	0.1171	0.3864	0.093
Mof_H 	H 	0.5	0.0357	0.4611	-0.002
Mof_H 	H 	0.6564	0.0649	0.4691	0.085
Mof_H 	H 	0.9616	0.0375	0.5446	-0.009
Mof_H 	H 	0.8672	0.0578	0.5046	0.088
Mof_H 	H 	0.1908	0.1038	0.5118	-0.006
Mof_H 	H 	0.1018	0.1272	0.471	0.076
Mof_H 	H 	0.8458	0.3357	0.0615	-0.016
Mof_H 	H 	0.8767	0.2655	0.0869	0.08
Mof_H 	H 	0.9124	0.4139	0.1303	-0.008
Mof_H 	H 	0.9395	0.3461	0.1583	0.08
Mof_H 	H 	0.0295	0.3032	0.2679	0.002
Mof_H 	H 	0.9697	0.2958	0.2204	0.08
Mof_H 	H 	0.0835	0.1643	0.2716	-0.009
Mof_H 	H 	0.0213	0.1533	0.2247	0.079
Mof_H 	H 	0.893	0.0127	0.1471	-0.006
Mof_H 	H 	0.9212	0.0858	0.17	0.08
Mof_H 	H 	0.8825	0.0753	0.07	-0.005
Mof_H 	H 	0.9065	0.1497	0.0912	0.08
Mof_H 	H 	0.3176	0.6889	0.6358	-0.009
Mof_H 	H 	0.3992	0.6535	0.5965	0.082
Mof_H 	H 	0.5669	0.7186	0.6745	-0.014
Mof_H 	H 	0.655	0.6829	0.6369	0.08
Mof_H 	H 	0.0008	0.587	0.6194	-0.004
Mof_H 	H 	0.845	0.6171	0.6136	0.093
Mof_H 	H 	2.99277e-32	0.5357	0.5389	-0.002
Mof_H 	H 	0.8436	0.5649	0.5309	0.084
Mof_H 	H 	0.5384	0.5375	0.4554	-0.009
Mof_H 	H 	0.6328	0.5578	0.4954	0.088
Mof_H 	H 	0.3092	0.6038	0.4882	-0.006
Mof_H 	H 	0.3982	0.6272	0.529	0.076
Mof_H 	H 	0.6542	0.8357	0.9385	-0.016
Mof_H 	H 	0.6233	0.7655	0.9131	0.08
Mof_H 	H 	0.5876	0.9139	0.8697	-0.008
Mof_H 	H 	0.5605	0.8461	0.8417	0.08
Mof_H 	H 	0.4705	0.8032	0.7321	0.002
Mof_H 	H 	0.5303	0.7958	0.7796	0.08
Mof_H 	H 	0.4165	0.6643	0.7284	-0.009
Mof_H 	H 	0.4787	0.6533	0.7753	0.079
Mof_H 	H 	0.607	0.5127	0.8529	-0.006
Mof_H 	H 	0.5788	0.5858	0.83	0.08
Mof_H 	H 	0.6175	0.5753	0.93	-0.005
Mof_H 	H 	0.5935	0.6497	0.9088	0.08
Mof_H 	H 	0.6824	0.8111	0.1358	-0.009
Mof_H 	H 	0.6008	0.8465	0.0965	0.082
Mof_H 	H 	0.4331	0.7814	0.1745	-0.014
Mof_H 	H 	0.345	0.8171	0.1369	0.08
Mof_H 	H 	0.9992	0.913	0.1194	-0.005
Mof_H 	H 	0.155	0.8829	0.1136	0.093
Mof_H 	H 	1.64191e-32	0.9643	0.0389	-0.002
Mof_H 	H 	0.1564	0.9351	0.0309	0.085
Mof_H 	H 	0.4616	0.9625	0.9554	-0.009
Mof_H 	H 	0.3672	0.9422	0.9954	0.088
Mof_H 	H 	0.6908	0.8962	0.9882	-0.006
Mof_H 	H 	0.6018	0.8728	0.029	0.076
Mof_H 	H 	0.3458	0.6643	0.4385	-0.016
Mof_H 	H 	0.3767	0.7345	0.4131	0.08
Mof_H 	H 	0.4124	0.5861	0.3697	-0.008
Mof_H 	H 	0.4395	0.6539	0.3417	0.08
Mof_H 	H 	0.5295	0.6968	0.2321	0.002
Mof_H 	H 	0.4697	0.7042	0.2796	0.08
Mof_H 	H 	0.5835	0.8357	0.2284	-0.009
Mof_H 	H 	0.5213	0.8467	0.2753	0.079
Mof_H 	H 	0.393	0.9873	0.3529	-0.006
Mof_H 	H 	0.4212	0.9142	0.33	0.08
Mof_H 	H 	0.3825	0.9247	0.43	-0.005
Mof_H 	H 	0.4065	0.8503	0.4088	0.08
Mof_C 	C 	0.887	0.3117	0.8643	0.066
Mof_C 	C 	0.9352	0.33323	0.88771	-0.111
Mof_C 	C 	0.0326	0.2946	0.8417	0.074
Mof_C 	C 	0.0857	0.31577	0.86399	-0.121
Mof_C 	C 	0.0357	0.33499	0.88757	0.059
Mof_C 	C 	0.0884	0.3578	0.91238	0.109
Mof_C 	C 	0.4679	0.4178	0.8987	0.065
Mof_C 	C 	0.3753	0.3998	0.90193	-0.121
Mof_C 	C 	0.4674	0.44775	0.94579	0.067
Mof_C 	C 	0.3745	0.4306	0.95071	-0.122
Mof_C 	C 	0.3264	0.40654	0.92824	0.05
Mof_C 	C 	0.2234	0.39062	0.93172	0.101
Mof_C 	C 	0.01	0.44375	0.02951	0.069
Mof_C 	C 	0.0668	0.43173	0.00581	-0.121
Mof_C 	C 	0.8763	0.4049	0.01048	0.065
Mof_C 	C 	0.9288	0.391	0.98601	-0.112
Mof_C 	C 	0.026	0.40386	0.98358	0.05
Mof_C 	C 	0.0838	0.39019	0.95732	0.103
Mof_C 	C 	0.1342	0.1624	0.58142	0.071
Mof_C 	C 	0.1172	0.20439	0.59643	-0.12
Mof_C 	C 	0.0961	0.11673	0.62161	0.061
Mof_C 	C 	0.0795	0.15688	0.63843	-0.116
Mof_C 	C 	0.091	0.20182	0.62573	0.052
Mof_C 	C 	0.0761	0.24604	0.64322	0.102
Mof_C 	C 	0.9706	0.22744	0.75873	0.059
Mof_C 	C 	0.0068	0.23162	0.73054	-0.11
Mof_C 	C 	0.9395	0.30872	0.76096	0.061
Mof_C 	C 	0.976	0.31547	0.73299	-0.114
Mof_C 	C 	0.0082	0.27621	0.71732	0.049
Mof_C 	C 	0.0395	0.28099	0.68628	0.102
Mof_C 	C 	0.104	0.45905	0.63554	0.064
Mof_C 	C 	0.088	0.41548	0.64943	-0.115
Mof_C 	C 	0.1107	0.42263	0.5906	0.065
Mof_C 	C 	0.0962	0.37812	0.60319	-0.113
Mof_C 	C 	0.0858	0.37406	0.63285	0.052
Mof_C 	C 	0.0734	0.32671	0.64682	0.101
Mof_C 	C 	0.113	0.1883	0.3643	0.067
Mof_C 	C 	0.0648	0.16677	0.38771	-0.112
Mof_C 	C 	0.9674	0.2054	0.3417	0.075
Mof_C 	C 	0.9143	0.18423	0.36399	-0.122
Mof_C 	C 	0.9643	0.16501	0.38757	0.06
Mof_C 	C 	0.9116	0.1422	0.41238	0.108
Mof_C 	C 	0.5321	0.0822	0.3987	0.065
Mof_C 	C 	0.6247	0.1002	0.40193	-0.121
Mof_C 	C 	0.5326	0.05225	0.44579	0.067
Mof_C 	C 	0.6255	0.0694	0.45071	-0.122
Mof_C 	C 	0.6736	0.09346	0.42824	0.05
Mof_C 	C 	0.7766	0.10938	0.43172	0.101
Mof_C 	C 	0.99	0.05625	0.52951	0.07
Mof_C 	C 	0.9332	0.06827	0.50581	-0.121
Mof_C 	C 	0.1237	0.0951	0.51048	0.066
Mof_C 	C 	0.0712	0.109	0.48601	-0.113
Mof_C 	C 	0.974	0.09614	0.48358	0.051
Mof_C 	C 	0.9162	0.10981	0.45732	0.103
Mof_C 	C 	0.8658	0.3376	0.08142	0.071
Mof_C 	C 	0.8828	0.29561	0.09643	-0.12
Mof_C 	C 	0.9039	0.38327	0.12161	0.061
Mof_C 	C 	0.9205	0.34312	0.13843	-0.116
Mof_C 	C 	0.909	0.29818	0.12573	0.052
Mof_C 	C 	0.9239	0.25396	0.14322	0.102
Mof_C 	C 	0.0294	0.27256	0.25873	0.058
Mof_C 	C 	0.9932	0.26838	0.23054	-0.109
Mof_C 	C 	0.0605	0.19128	0.26096	0.061
Mof_C 	C 	0.024	0.18453	0.23299	-0.114
Mof_C 	C 	0.9918	0.22379	0.21732	0.05
Mof_C 	C 	0.9605	0.21901	0.18628	0.102
Mof_C 	C 	0.896	0.04095	0.13554	0.064
Mof_C 	C 	0.912	0.08452	0.14943	-0.115
Mof_C 	C 	0.8893	0.07737	0.0906	0.065
Mof_C 	C 	0.9038	0.12188	0.10319	-0.113
Mof_C 	C 	0.9142	0.12594	0.13285	0.053
Mof_C 	C 	0.9266	0.17329	0.14682	0.101
Mof_C 	C 	0.387	0.6883	0.6357	0.066
Mof_C 	C 	0.4352	0.66677	0.61229	-0.11
Mof_C 	C 	0.5326	0.7054	0.6583	0.074
Mof_C 	C 	0.5857	0.68423	0.63601	-0.121
Mof_C 	C 	0.5357	0.66501	0.61243	0.059
Mof_C 	C 	0.5884	0.6422	0.58762	0.109
Mof_C 	C 	0.9679	0.5822	0.6013	0.063
Mof_C 	C 	0.8753	0.6002	0.59807	-0.12
Mof_C 	C 	0.9674	0.55225	0.55421	0.066
Mof_C 	C 	0.8745	0.5694	0.54929	-0.121
Mof_C 	C 	0.8264	0.59346	0.57176	0.049
Mof_C 	C 	0.7234	0.60938	0.56828	0.101
Mof_C 	C 	0.51	0.55625	0.47049	0.069
Mof_C 	C 	0.5668	0.56827	0.49419	-0.121
Mof_C 	C 	0.3763	0.5951	0.48952	0.065
Mof_C 	C 	0.4288	0.609	0.51399	-0.112
Mof_C 	C 	0.526	0.59614	0.51642	0.05
Mof_C 	C 	0.5838	0.60981	0.54268	0.103
Mof_C 	C 	0.6342	0.8376	0.91858	0.071
Mof_C 	C 	0.6172	0.79561	0.90357	-0.12
Mof_C 	C 	0.5961	0.88327	0.87839	0.061
Mof_C 	C 	0.5795	0.84312	0.86157	-0.116
Mof_C 	C 	0.591	0.79818	0.87427	0.052
Mof_C 	C 	0.5761	0.75396	0.85678	0.102
Mof_C 	C 	0.4706	0.77256	0.74127	0.059
Mof_C 	C 	0.5068	0.76838	0.76946	-0.11
Mof_C 	C 	0.4395	0.69128	0.73904	0.061
Mof_C 	C 	0.476	0.68453	0.76701	-0.113
Mof_C 	C 	0.5082	0.72379	0.78268	0.049
Mof_C 	C 	0.5395	0.71901	0.81372	0.102
Mof_C 	C 	0.604	0.54095	0.86446	0.064
Mof_C 	C 	0.588	0.58452	0.85057	-0.115
Mof_C 	C 	0.6107	0.57737	0.9094	0.065
Mof_C 	C 	0.5962	0.62188	0.89681	-0.113
Mof_C 	C 	0.5858	0.62594	0.86715	0.052
Mof_C 	C 	0.5734	0.67329	0.85318	0.101
Mof_C 	C 	0.613	0.8117	0.1357	0.066
Mof_C 	C 	0.5648	0.83323	0.11229	-0.11
Mof_C 	C 	0.4674	0.7946	0.1583	0.074
Mof_C 	C 	0.4143	0.81577	0.13601	-0.121
Mof_C 	C 	0.4643	0.83499	0.11243	0.059
Mof_C 	C 	0.4116	0.8578	0.08762	0.109
Mof_C 	C 	0.0321	0.9178	0.1013	0.066
Mof_C 	C 	0.1247	0.8998	0.09807	-0.121
Mof_C 	C 	0.0326	0.94775	0.05421	0.068
Mof_C 	C 	0.1255	0.9306	0.04929	-0.122
Mof_C 	C 	0.1736	0.90654	0.07176	0.05
Mof_C 	C 	0.2766	0.89062	0.06828	0.101
Mof_C 	C 	0.49	0.94375	0.97049	0.069
Mof_C 	C 	0.4332	0.93173	0.99419	-0.121
Mof_C 	C 	0.6237	0.9049	0.98952	0.065
Mof_C 	C 	0.5712	0.891	0.01399	-0.112
Mof_C 	C 	0.474	0.90386	0.01642	0.05
Mof_C 	C 	0.4162	0.89019	0.04268	0.103
Mof_C 	C 	0.3658	0.6624	0.41858	0.071
Mof_C 	C 	0.3828	0.70439	0.40357	-0.12
Mof_C 	C 	0.4039	0.61673	0.37839	0.061
Mof_C 	C 	0.4205	0.65688	0.36157	-0.116
Mof_C 	C 	0.409	0.70182	0.37427	0.052
Mof_C 	C 	0.4239	0.74604	0.35678	0.102
Mof_C 	C 	0.5294	0.72744	0.24127	0.059
Mof_C 	C 	0.4932	0.73162	0.26946	-0.11
Mof_C 	C 	0.5605	0.80872	0.23904	0.061
Mof_C 	C 	0.524	0.81547	0.26701	-0.113
Mof_C 	C 	0.4918	0.77621	0.28268	0.049
Mof_C 	C 	0.4605	0.78099	0.31372	0.102
Mof_C 	C 	0.396	0.95905	0.36446	0.064
Mof_C 	C 	0.412	0.91548	0.35057	-0.115
Mof_C 	C 	0.3893	0.92263	0.4094	0.065
Mof_C 	C 	0.4038	0.87812	0.39681	-0.113
Mof_C 	C 	0.4142	0.87406	0.36715	0.052
Mof_C 	C 	0.4266	0.82671	0.35318	0.101
Mof_I 	I 	0.69692	0.30348	0.80456	-0.372
Mof_I 	I 	0.84706	0.16698	0.82316	-0.375
Mof_I 	I 	0.65811	0.43347	0.0586	-0.381
Mof_I 	I 	0.92098	0.5107	0.09796	-0.367
Mof_I 	I 	0.72598	0.48928	0.96252	-0.391
Mof_I 	I 	0.73398	0.42351	0.87309	-0.365
Mof_I 	I 	0.30308	0.19652	0.30456	-0.372
Mof_I 	I 	0.15294	0.33302	0.32316	-0.375
Mof_I 	I 	0.34189	0.06653	0.5586	-0.381
Mof_I 	I 	0.07902	0.9893	0.59796	-0.366
Mof_I 	I 	0.27402	0.01072	0.46252	-0.392
Mof_I 	I 	0.26602	0.07649	0.37309	-0.366
Mof_I 	I 	0.19692	0.69652	0.69544	-0.371
Mof_I 	I 	0.34706	0.83302	0.67684	-0.374
Mof_I 	I 	0.15811	0.56653	0.4414	-0.381
Mof_I 	I 	0.42098	0.4893	0.40204	-0.367
Mof_I 	I 	0.22598	0.51072	0.53748	-0.391
Mof_I 	I 	0.23398	0.57649	0.62691	-0.365
Mof_I 	I 	0.80308	0.80348	0.19544	-0.372
Mof_I 	I 	0.65294	0.66698	0.17684	-0.375
Mof_I 	I 	0.84189	0.93347	0.9414	-0.381
Mof_I 	I 	0.57902	0.0107	0.90204	-0.367
Mof_I 	I 	0.77402	0.98928	0.03748	-0.392
Mof_I 	I 	0.76602	0.92351	0.12691	-0.365
Mof_N 	N 	0.9351	0.29199	0.84206	-0.275
Mof_N 	N 	0.5141	0.44205	0.92009	-0.272
Mof_N 	N 	0.9163	0.43015	0.03227	-0.27
Mof_N 	N 	0.1832	0.3677	0.90912	-0.135
Mof_N 	N 	0.1781	0.40209	0.95659	-0.143
Mof_N 	N 	0.0351	0.36792	0.93601	-0.138
Mof_N 	N 	0.1239	0.11901	0.5935	-0.27
Mof_N 	N 	0.9358	0.26522	0.77344	-0.27
Mof_N 	N 	0.1155	0.46298	0.60654	-0.27
Mof_N 	N 	0.0522	0.24018	0.67148	-0.139
Mof_N 	N 	0.0488	0.32528	0.67517	-0.139
Mof_N 	N 	0.0873	0.28808	0.62983	-0.139
Mof_N 	N 	0.0649	0.20801	0.34206	-0.275
Mof_N 	N 	0.4859	0.05795	0.42009	-0.272
Mof_N 	N 	0.0837	0.06985	0.53227	-0.271
Mof_N 	N 	0.8168	0.1323	0.40912	-0.135
Mof_N 	N 	0.8219	0.09791	0.45659	-0.143
Mof_N 	N 	0.9649	0.13208	0.43601	-0.138
Mof_N 	N 	0.8761	0.38099	0.0935	-0.27
Mof_N 	N 	0.0642	0.23478	0.27344	-0.27
Mof_N 	N 	0.8845	0.03702	0.10654	-0.27
Mof_N 	N 	0.9478	0.25982	0.17148	-0.139
Mof_N 	N 	0.9512	0.17472	0.17517	-0.139
Mof_N 	N 	0.9127	0.21192	0.12983	-0.139
Mof_N 	N 	0.4351	0.70801	0.65794	-0.274
Mof_N 	N 	0.0141	0.55795	0.57991	-0.271
Mof_N 	N 	0.4163	0.56985	0.46773	-0.27
Mof_N 	N 	0.6832	0.6323	0.59088	-0.135
Mof_N 	N 	0.6781	0.59791	0.54341	-0.143
Mof_N 	N 	0.5351	0.63208	0.56399	-0.138
Mof_N 	N 	0.6239	0.88099	0.9065	-0.27
Mof_N 	N 	0.4358	0.73478	0.72656	-0.27
Mof_N 	N 	0.6155	0.53702	0.89346	-0.27
Mof_N 	N 	0.5522	0.75982	0.82852	-0.139
Mof_N 	N 	0.5488	0.67472	0.82483	-0.139
Mof_N 	N 	0.5873	0.71192	0.87017	-0.139
Mof_N 	N 	0.5649	0.79199	0.15794	-0.274
Mof_N 	N 	0.9859	0.94205	0.07991	-0.272
Mof_N 	N 	0.5837	0.93015	0.96773	-0.271
Mof_N 	N 	0.3168	0.8677	0.09088	-0.135
Mof_N 	N 	0.3219	0.90209	0.04341	-0.143
Mof_N 	N 	0.4649	0.86792	0.06399	-0.138
Mof_N 	N 	0.3761	0.61901	0.4065	-0.27
Mof_N 	N 	0.5642	0.76522	0.22656	-0.27
Mof_N 	N 	0.3845	0.96298	0.39346	-0.27
Mof_N 	N 	0.4478	0.74018	0.32852	-0.139
Mof_N 	N 	0.4512	0.82528	0.32483	-0.139
Mof_N 	N 	0.4127	0.78808	0.37017	-0.139
_end
