data_functionalizedCrystal
_audit_creation_method	'EQeq! by Chris Wilmer'
_symmetry_space_group_name_H-M	'P1'
_symmetry_Int_Tables_number	1
_symmetry_cell_setting	triclinic
loop_
_symmetry_equiv_pos_as_xyz
  x,y,z
_cell_length_a	22.1396
_cell_length_b	14.5936
_cell_length_c	28.1238
_cell_angle_alpha	90
_cell_angle_beta	116.317
_cell_angle_gamma	90
loop_
_atom_site_label
_atom_site_type_symbol
_atom_site_fract_x
_atom_site_fract_y
_atom_site_fract_z
_atom_site_charge
Mof_Ni	Ni	0.24601	0.67163	0.2443	1.066
Mof_Ni	Ni	0.21899	0.99414	0.53944	1.035
Mof_O 	O 	0.7841	0.9279	0.34863	-0.31
Mof_O 	O 	0.2131	0.7604	0.28401	-0.429
Mof_O 	O 	0.1352	0.9496	0.47232	-0.409
Mof_O 	O 	0.8475	0.9881	0.428	-0.426
Mof_O 	O 	0.2229	0.0829	0.2955	-0.435
Mof_O 	O 	0.1648	0.6752	0.3231	-0.309
Mof_N 	N 	0.3427	0.6711	0.308	-0.233
Mof_O 	O 	0.173	0.1649	0.3347	-0.286
Mof_N 	N 	0.2795	0.9695	0.5027	-0.256
Mof_N 	N 	0.6512	0.8246	0.6805	-0.232
Mof_N 	N 	0.5678	0.7991	0.6011	-0.137
Mof_N 	N 	0.4267	0.699	0.386	-0.135
Mof_C 	C 	0.0216	0.9642	0.4053	-0.125
Mof_O 	O 	0.0879	0.0885	0.4502	-0.293
Mof_C 	C 	0.5264	0.7637	0.4594	-0.061
Mof_H 	H 	0.5455	0.7737	0.4362	0.062
Mof_C 	C 	0.0986	0.839	0.3356	-0.008
Mof_H 	H 	0.0791	0.784	0.3384	0.04
Mof_N 	N 	0.3682	0.9686	0.4864	-0.139
Mof_C 	C 	0.075	0.9207	0.346	-0.03
Mof_C 	C 	0.4861	0.0005	0.543	-0.074
Mof_H 	H 	0.4767	0.0006	0.5722	0.058
Mof_C 	C 	0.0165	0.9242	0.3588	0.084
Mof_C 	C 	0.1793	0.9205	0.3159	0.03
Mof_H 	H 	0.2138	0.9203	0.3055	0.041
Mof_C 	C 	0.4701	0.7321	0.5288	-0.079
Mof_H 	H 	0.4517	0.7216	0.5523	0.071
Mof_C 	C 	0.5613	0.7883	0.5122	-0.079
Mof_H 	H 	0.6038	0.8148	0.5245	0.062
Mof_C 	C 	0.36	0.6947	0.3572	0.107
Mof_H 	H 	0.3292	0.7069	0.3706	-0.016
Mof_C 	C 	0.4635	0.7243	0.4411	0.089
Mof_C 	C 	0.8966	0.9032	0.3291	0.058
Mof_H 	H 	0.8549	0.8837	0.3034	0.02
Mof_C 	C 	0.8401	0.9535	0.3854	0.346
Mof_C 	C 	0.5333	0.7737	0.5464	0.096
Mof_C 	C 	0.6347	0.7997	0.6307	0.101
Mof_H 	H 	0.6658	0.7848	0.618	-0.008
Mof_C 	C 	0.4354	0.9836	0.4936	0.088
Mof_C 	C 	0.3434	0.9903	0.5206	0.093
Mof_H 	H 	0.3688	0.0172	0.5535	-0.031
Mof_C 	C 	0.261	0.9324	0.4542	0.003
Mof_H 	H 	0.2181	0.9113	0.4317	0.032
Mof_C 	C 	0.9532	0.8931	0.3206	-0.134
Mof_H 	H 	0.9494	0.8657	0.2896	0.084
Mof_C 	C 	0.0873	0.0038	0.4458	0.347
Mof_C 	C 	0.4545	0.6758	0.3526	0.002
Mof_H 	H 	0.5001	0.6729	0.361	0.046
Mof_C 	C 	0.4486	0.9826	0.4498	-0.071
Mof_H 	H 	0.4143	0.9707	0.4161	0.061
Mof_C 	C 	0.1565	0.0037	0.326	-0.102
Mof_C 	C 	0.9016	0.9427	0.3762	-0.121
Mof_C 	C 	0.1052	0.0016	0.342	-0.005
Mof_H 	H 	0.0908	0.0565	0.3504	0.049
Mof_C 	C 	0.4344	0.706	0.4749	-0.064
Mof_H 	H 	0.3926	0.6775	0.4625	0.055
Mof_C 	C 	0.1515	0.8377	0.321	-0.101
Mof_C 	C 	0.964	0.9727	0.414	0.064
Mof_H 	H 	0.9677	0.9987	0.4454	0.035
Mof_C 	C 	0.4019	0.6579	0.3051	0.008
Mof_H 	H 	0.4056	0.6393	0.2749	0.029
Mof_C 	C 	0.5913	0.8412	0.6816	0.003
Mof_H 	H 	0.5867	0.8605	0.7113	0.022
Mof_C 	C 	0.5391	0.8258	0.6332	0.004
Mof_H 	H 	0.4934	0.8321	0.6238	0.029
Mof_C 	C 	0.1866	0.0898	0.3187	0.346
Mof_C 	C 	0.3161	0.9309	0.4433	0.002
Mof_H 	H 	0.3174	0.9087	0.4128	0.033
Mof_C 	C 	0.1775	0.7505	0.3083	0.342
Mof_Ni	Ni	0.25399	0.17163	0.2557	1.065
Mof_Ni	Ni	0.28101	0.49414	0.96056	1.034
Mof_O 	O 	0.7159	0.4279	0.15137	-0.311
Mof_O 	O 	0.2869	0.2604	0.21599	-0.43
Mof_O 	O 	0.3648	0.4496	0.02768	-0.41
Mof_O 	O 	0.6525	0.4881	0.072	-0.426
Mof_O 	O 	0.2771	0.5829	0.2045	-0.435
Mof_O 	O 	0.3352	0.1752	0.1769	-0.309
Mof_N 	N 	0.1573	0.1711	0.192	-0.233
Mof_O 	O 	0.327	0.6649	0.1653	-0.285
Mof_N 	N 	0.2205	0.4695	0.9973	-0.256
Mof_N 	N 	0.8488	0.3246	0.8195	-0.232
Mof_N 	N 	0.9322	0.2991	0.8989	-0.136
Mof_N 	N 	0.0733	0.199	0.114	-0.136
Mof_C 	C 	0.4784	0.4642	0.0947	-0.125
Mof_O 	O 	0.4121	0.5885	0.0498	-0.292
Mof_C 	C 	0.9736	0.2637	0.0406	-0.064
Mof_H 	H 	0.9545	0.2737	0.0638	0.063
Mof_C 	C 	0.4014	0.339	0.1644	-0.008
Mof_H 	H 	0.4209	0.284	0.1616	0.04
Mof_N 	N 	0.1318	0.4686	0.0136	-0.139
Mof_C 	C 	0.425	0.4207	0.154	-0.031
Mof_C 	C 	0.0139	0.5005	0.957	-0.074
Mof_H 	H 	0.0233	0.5006	0.9278	0.057
Mof_C 	C 	0.4835	0.4242	0.1412	0.085
Mof_C 	C 	0.3207	0.4205	0.1841	0.029
Mof_H 	H 	0.2862	0.4203	0.1945	0.041
Mof_C 	C 	0.0299	0.2321	0.9712	-0.073
Mof_H 	H 	0.0483	0.2216	0.9477	0.069
Mof_C 	C 	0.9387	0.2883	0.9878	-0.075
Mof_H 	H 	0.8962	0.3148	0.9755	0.061
Mof_C 	C 	0.14	0.1947	0.1428	0.107
Mof_H 	H 	0.1708	0.2069	0.1294	-0.016
Mof_C 	C 	0.0365	0.2243	0.0589	0.09
Mof_C 	C 	0.6034	0.4032	0.1709	0.058
Mof_H 	H 	0.6451	0.3837	0.1966	0.02
Mof_C 	C 	0.6599	0.4535	0.1146	0.346
Mof_C 	C 	0.9667	0.2737	0.9536	0.093
Mof_C 	C 	0.8653	0.2997	0.8693	0.101
Mof_H 	H 	0.8342	0.2848	0.882	-0.008
Mof_C 	C 	0.0646	0.4836	0.0064	0.087
Mof_C 	C 	0.1566	0.4903	0.9794	0.094
Mof_H 	H 	0.1312	0.5172	0.9465	-0.032
Mof_C 	C 	0.239	0.4324	0.0458	0.003
Mof_H 	H 	0.2819	0.4113	0.0683	0.032
Mof_C 	C 	0.5468	0.3931	0.1794	-0.135
Mof_H 	H 	0.5506	0.3657	0.2104	0.084
Mof_C 	C 	0.4127	0.5038	0.0542	0.347
Mof_C 	C 	0.0455	0.1758	0.1474	0.002
Mof_H 	H 	0.9999	0.1729	0.139	0.045
Mof_C 	C 	0.0514	0.4826	0.0502	-0.072
Mof_H 	H 	0.0857	0.4707	0.0839	0.061
Mof_C 	C 	0.3435	0.5037	0.174	-0.101
Mof_C 	C 	0.5984	0.4427	0.1238	-0.122
Mof_C 	C 	0.3948	0.5016	0.158	-0.005
Mof_H 	H 	0.4092	0.5565	0.1496	0.049
Mof_C 	C 	0.0656	0.206	0.0251	-0.069
Mof_H 	H 	0.1074	0.1775	0.0375	0.056
Mof_C 	C 	0.3485	0.3377	0.179	-0.101
Mof_C 	C 	0.536	0.4727	0.086	0.064
Mof_H 	H 	0.5323	0.4987	0.0546	0.035
Mof_C 	C 	0.0981	0.1579	0.1949	0.008
Mof_H 	H 	0.0944	0.1393	0.2251	0.029
Mof_C 	C 	0.9087	0.3412	0.8184	0.003
Mof_H 	H 	0.9133	0.3605	0.7887	0.022
Mof_C 	C 	0.9609	0.3258	0.8668	0.002
Mof_H 	H 	0.0066	0.3321	0.8762	0.03
Mof_C 	C 	0.3134	0.5898	0.1813	0.346
Mof_C 	C 	0.1839	0.4309	0.0567	0.002
Mof_H 	H 	0.1826	0.4087	0.0872	0.033
Mof_C 	C 	0.3225	0.2505	0.1917	0.342
Mof_Ni	Ni	0.75399	0.32837	0.7557	1.065
Mof_Ni	Ni	0.78101	0.00586	0.46056	1.034
Mof_O 	O 	0.2159	0.0721	0.65137	-0.31
Mof_O 	O 	0.7869	0.2396	0.71599	-0.429
Mof_O 	O 	0.8648	0.0504	0.52768	-0.409
Mof_O 	O 	0.1525	0.0119	0.572	-0.426
Mof_O 	O 	0.7771	0.9171	0.7045	-0.435
Mof_O 	O 	0.8352	0.3248	0.6769	-0.309
Mof_N 	N 	0.6573	0.3289	0.692	-0.233
Mof_O 	O 	0.827	0.8351	0.6653	-0.286
Mof_N 	N 	0.7205	0.0305	0.4973	-0.256
Mof_N 	N 	0.3488	0.1754	0.3195	-0.232
Mof_N 	N 	0.4322	0.2009	0.3989	-0.137
Mof_N 	N 	0.5733	0.301	0.614	-0.135
Mof_C 	C 	0.9784	0.0358	0.5947	-0.125
Mof_O 	O 	0.9121	0.9115	0.5498	-0.293
Mof_C 	C 	0.4736	0.2363	0.5406	-0.061
Mof_H 	H 	0.4545	0.2263	0.5638	0.062
Mof_C 	C 	0.9014	0.161	0.6644	-0.008
Mof_H 	H 	0.9209	0.216	0.6616	0.04
Mof_N 	N 	0.6318	0.0314	0.5136	-0.139
Mof_C 	C 	0.925	0.0793	0.654	-0.03
Mof_C 	C 	0.5139	0.9995	0.457	-0.074
Mof_H 	H 	0.5233	0.9994	0.4278	0.058
Mof_C 	C 	0.9835	0.0758	0.6412	0.084
Mof_C 	C 	0.8207	0.0795	0.6841	0.03
Mof_H 	H 	0.7862	0.0797	0.6945	0.041
Mof_C 	C 	0.5299	0.2679	0.4712	-0.079
Mof_H 	H 	0.5483	0.2784	0.4477	0.071
Mof_C 	C 	0.4387	0.2117	0.4878	-0.079
Mof_H 	H 	0.3962	0.1852	0.4755	0.062
Mof_C 	C 	0.64	0.3053	0.6428	0.107
Mof_H 	H 	0.6708	0.2931	0.6294	-0.016
Mof_C 	C 	0.5365	0.2757	0.5589	0.089
Mof_C 	C 	0.1034	0.0968	0.6709	0.058
Mof_H 	H 	0.1451	0.1163	0.6966	0.02
Mof_C 	C 	0.1599	0.0465	0.6146	0.346
Mof_C 	C 	0.4667	0.2263	0.4536	0.096
Mof_C 	C 	0.3653	0.2003	0.3693	0.101
Mof_H 	H 	0.3342	0.2152	0.382	-0.008
Mof_C 	C 	0.5646	0.0164	0.5064	0.088
Mof_C 	C 	0.6566	0.0097	0.4794	0.093
Mof_H 	H 	0.6312	0.9828	0.4465	-0.031
Mof_C 	C 	0.739	0.0676	0.5458	0.003
Mof_H 	H 	0.7819	0.0887	0.5683	0.032
Mof_C 	C 	0.0468	0.1069	0.6794	-0.134
Mof_H 	H 	0.0506	0.1343	0.7104	0.084
Mof_C 	C 	0.9127	0.9962	0.5542	0.347
Mof_C 	C 	0.5455	0.3242	0.6474	0.002
Mof_H 	H 	0.4999	0.3271	0.639	0.046
Mof_C 	C 	0.5514	0.0174	0.5502	-0.071
Mof_H 	H 	0.5857	0.0293	0.5839	0.061
Mof_C 	C 	0.8435	0.9963	0.674	-0.102
Mof_C 	C 	0.0984	0.0573	0.6238	-0.121
Mof_C 	C 	0.8948	0.9984	0.658	-0.005
Mof_H 	H 	0.9092	0.9435	0.6496	0.049
Mof_C 	C 	0.5656	0.294	0.5251	-0.064
Mof_H 	H 	0.6074	0.3225	0.5375	0.055
Mof_C 	C 	0.8485	0.1623	0.679	-0.101
Mof_C 	C 	0.036	0.0273	0.586	0.064
Mof_H 	H 	0.0323	0.0013	0.5546	0.035
Mof_C 	C 	0.5981	0.3421	0.6949	0.008
Mof_H 	H 	0.5944	0.3607	0.7251	0.029
Mof_C 	C 	0.4087	0.1588	0.3184	0.003
Mof_H 	H 	0.4133	0.1395	0.2887	0.022
Mof_C 	C 	0.4609	0.1742	0.3668	0.004
Mof_H 	H 	0.5066	0.1679	0.3762	0.029
Mof_C 	C 	0.8134	0.9102	0.6813	0.346
Mof_C 	C 	0.6839	0.0691	0.5567	0.002
Mof_H 	H 	0.6826	0.0913	0.5872	0.033
Mof_C 	C 	0.8225	0.2495	0.6917	0.342
Mof_Ni	Ni	0.74601	0.82837	0.7443	1.065
Mof_Ni	Ni	0.71899	0.50586	0.03944	1.034
Mof_O 	O 	0.2841	0.5721	0.84863	-0.311
Mof_O 	O 	0.7131	0.7396	0.78401	-0.43
Mof_O 	O 	0.6352	0.5504	0.97232	-0.41
Mof_O 	O 	0.3475	0.5119	0.928	-0.426
Mof_O 	O 	0.7229	0.4171	0.7955	-0.435
Mof_O 	O 	0.6648	0.8248	0.8231	-0.309
Mof_N 	N 	0.8427	0.8289	0.808	-0.233
Mof_O 	O 	0.673	0.3351	0.8347	-0.285
Mof_N 	N 	0.7795	0.5305	0.0027	-0.256
Mof_N 	N 	0.1512	0.6754	0.1805	-0.232
Mof_N 	N 	0.0678	0.7009	0.1011	-0.136
Mof_N 	N 	0.9267	0.801	0.886	-0.136
Mof_C 	C 	0.5216	0.5358	0.9053	-0.125
Mof_O 	O 	0.5879	0.4115	0.9502	-0.292
Mof_C 	C 	0.0264	0.7363	0.9594	-0.064
Mof_H 	H 	0.0455	0.7263	0.9362	0.063
Mof_C 	C 	0.5986	0.661	0.8356	-0.008
Mof_H 	H 	0.5791	0.716	0.8384	0.04
Mof_N 	N 	0.8682	0.5314	0.9864	-0.139
Mof_C 	C 	0.575	0.5793	0.846	-0.031
Mof_C 	C 	0.9861	0.4995	0.043	-0.074
Mof_H 	H 	0.9767	0.4994	0.0722	0.057
Mof_C 	C 	0.5165	0.5758	0.8588	0.085
Mof_C 	C 	0.6793	0.5795	0.8159	0.029
Mof_H 	H 	0.7138	0.5797	0.8055	0.041
Mof_C 	C 	0.9701	0.7679	0.0288	-0.073
Mof_H 	H 	0.9517	0.7784	0.0523	0.069
Mof_C 	C 	0.0613	0.7117	0.0122	-0.075
Mof_H 	H 	0.1038	0.6852	0.0245	0.061
Mof_C 	C 	0.86	0.8053	0.8572	0.107
Mof_H 	H 	0.8292	0.7931	0.8706	-0.016
Mof_C 	C 	0.9635	0.7757	0.9411	0.09
Mof_C 	C 	0.3966	0.5968	0.8291	0.058
Mof_H 	H 	0.3549	0.6163	0.8034	0.02
Mof_C 	C 	0.3401	0.5465	0.8854	0.346
Mof_C 	C 	0.0333	0.7263	0.0464	0.093
Mof_C 	C 	0.1347	0.7003	0.1307	0.101
Mof_H 	H 	0.1658	0.7152	0.118	-0.008
Mof_C 	C 	0.9354	0.5164	0.9936	0.087
Mof_C 	C 	0.8434	0.5097	0.0206	0.094
Mof_H 	H 	0.8688	0.4828	0.0535	-0.032
Mof_C 	C 	0.761	0.5676	0.9542	0.003
Mof_H 	H 	0.7181	0.5887	0.9317	0.032
Mof_C 	C 	0.4532	0.6069	0.8206	-0.135
Mof_H 	H 	0.4494	0.6343	0.7896	0.084
Mof_C 	C 	0.5873	0.4962	0.9458	0.347
Mof_C 	C 	0.9545	0.8242	0.8526	0.002
Mof_H 	H 	0.0001	0.8271	0.861	0.045
Mof_C 	C 	0.9486	0.5174	0.9498	-0.072
Mof_H 	H 	0.9143	0.5293	0.9161	0.061
Mof_C 	C 	0.6565	0.4963	0.826	-0.101
Mof_C 	C 	0.4016	0.5573	0.8762	-0.122
Mof_C 	C 	0.6052	0.4984	0.842	-0.005
Mof_H 	H 	0.5908	0.4435	0.8504	0.049
Mof_C 	C 	0.9344	0.794	0.9749	-0.069
Mof_H 	H 	0.8926	0.8225	0.9625	0.056
Mof_C 	C 	0.6515	0.6623	0.821	-0.101
Mof_C 	C 	0.464	0.5273	0.914	0.064
Mof_H 	H 	0.4677	0.5013	0.9454	0.035
Mof_C 	C 	0.9019	0.8421	0.8051	0.008
Mof_H 	H 	0.9056	0.8607	0.7749	0.029
Mof_C 	C 	0.0913	0.6588	0.1816	0.003
Mof_H 	H 	0.0867	0.6395	0.2113	0.022
Mof_C 	C 	0.0391	0.6742	0.1332	0.002
Mof_H 	H 	0.9934	0.6679	0.1238	0.03
Mof_C 	C 	0.6866	0.4102	0.8187	0.346
Mof_C 	C 	0.8161	0.5691	0.9433	0.002
Mof_H 	H 	0.8174	0.5913	0.9128	0.033
Mof_C 	C 	0.6775	0.7495	0.8083	0.342
Mof_Ni	Ni	0.74601	0.17163	0.2443	1.065
Mof_Ni	Ni	0.71899	0.49414	0.53944	1.034
Mof_O 	O 	0.2841	0.4279	0.34863	-0.311
Mof_O 	O 	0.7131	0.2604	0.28401	-0.43
Mof_O 	O 	0.6352	0.4496	0.47232	-0.409
Mof_O 	O 	0.3475	0.4881	0.428	-0.426
Mof_O 	O 	0.7229	0.5829	0.2955	-0.435
Mof_O 	O 	0.6648	0.1752	0.3231	-0.309
Mof_N 	N 	0.8427	0.1711	0.308	-0.233
Mof_O 	O 	0.673	0.6649	0.3347	-0.285
Mof_N 	N 	0.7795	0.4695	0.5027	-0.256
Mof_N 	N 	0.1512	0.3246	0.6805	-0.232
Mof_N 	N 	0.0678	0.2991	0.6011	-0.137
Mof_N 	N 	0.9267	0.199	0.386	-0.135
Mof_C 	C 	0.5216	0.4642	0.4053	-0.125
Mof_O 	O 	0.5879	0.5885	0.4502	-0.293
Mof_C 	C 	0.0264	0.2637	0.4594	-0.061
Mof_H 	H 	0.0455	0.2737	0.4362	0.062
Mof_C 	C 	0.5986	0.339	0.3356	-0.008
Mof_H 	H 	0.5791	0.284	0.3384	0.04
Mof_N 	N 	0.8682	0.4686	0.4864	-0.139
Mof_C 	C 	0.575	0.4207	0.346	-0.031
Mof_C 	C 	0.9861	0.5005	0.543	-0.075
Mof_H 	H 	0.9767	0.5006	0.5722	0.057
Mof_C 	C 	0.5165	0.4242	0.3588	0.085
Mof_C 	C 	0.6793	0.4205	0.3159	0.029
Mof_H 	H 	0.7138	0.4203	0.3055	0.041
Mof_C 	C 	0.9701	0.2321	0.5288	-0.079
Mof_H 	H 	0.9517	0.2216	0.5523	0.071
Mof_C 	C 	0.0613	0.2883	0.5122	-0.079
Mof_H 	H 	0.1038	0.3148	0.5245	0.062
Mof_C 	C 	0.86	0.1947	0.3572	0.107
Mof_H 	H 	0.8292	0.2069	0.3706	-0.016
Mof_C 	C 	0.9635	0.2243	0.4411	0.088
Mof_C 	C 	0.3966	0.4032	0.3291	0.058
Mof_H 	H 	0.3549	0.3837	0.3034	0.02
Mof_C 	C 	0.3401	0.4535	0.3854	0.346
Mof_C 	C 	0.0333	0.2737	0.5464	0.097
Mof_C 	C 	0.1347	0.2997	0.6307	0.101
Mof_H 	H 	0.1658	0.2848	0.618	-0.008
Mof_C 	C 	0.9354	0.4836	0.4936	0.088
Mof_C 	C 	0.8434	0.4903	0.5206	0.093
Mof_H 	H 	0.8688	0.5172	0.5535	-0.032
Mof_C 	C 	0.761	0.4324	0.4542	0.003
Mof_H 	H 	0.7181	0.4113	0.4317	0.032
Mof_C 	C 	0.4532	0.3931	0.3206	-0.135
Mof_H 	H 	0.4494	0.3657	0.2896	0.084
Mof_C 	C 	0.5873	0.5038	0.4458	0.347
Mof_C 	C 	0.9545	0.1758	0.3526	0.002
Mof_H 	H 	0.0001	0.1729	0.361	0.046
Mof_C 	C 	0.9486	0.4826	0.4498	-0.072
Mof_H 	H 	0.9143	0.4707	0.4161	0.061
Mof_C 	C 	0.6565	0.5037	0.326	-0.101
Mof_C 	C 	0.4016	0.4427	0.3762	-0.122
Mof_C 	C 	0.6052	0.5016	0.342	-0.005
Mof_H 	H 	0.5908	0.5565	0.3504	0.049
Mof_C 	C 	0.9344	0.206	0.4749	-0.063
Mof_H 	H 	0.8926	0.1775	0.4625	0.055
Mof_C 	C 	0.6515	0.3377	0.321	-0.101
Mof_C 	C 	0.464	0.4727	0.414	0.064
Mof_H 	H 	0.4677	0.4987	0.4454	0.035
Mof_C 	C 	0.9019	0.1579	0.3051	0.008
Mof_H 	H 	0.9056	0.1393	0.2749	0.029
Mof_C 	C 	0.0913	0.3412	0.6816	0.002
Mof_H 	H 	0.0867	0.3605	0.7113	0.022
Mof_C 	C 	0.0391	0.3258	0.6332	0.004
Mof_H 	H 	0.9934	0.3321	0.6238	0.029
Mof_C 	C 	0.6866	0.5898	0.3187	0.346
Mof_C 	C 	0.8161	0.4309	0.4433	0.002
Mof_H 	H 	0.8174	0.4087	0.4128	0.033
Mof_C 	C 	0.6775	0.2505	0.3083	0.342
Mof_Ni	Ni	0.75399	0.67163	0.2557	1.065
Mof_Ni	Ni	0.78101	0.99414	0.96056	1.033
Mof_O 	O 	0.2159	0.9279	0.15137	-0.31
Mof_O 	O 	0.7869	0.7604	0.21599	-0.429
Mof_O 	O 	0.8648	0.9496	0.02768	-0.406
Mof_O 	O 	0.1525	0.9881	0.072	-0.425
Mof_O 	O 	0.7771	0.0829	0.2045	-0.435
Mof_O 	O 	0.8352	0.6752	0.1769	-0.309
Mof_N 	N 	0.6573	0.6711	0.192	-0.233
Mof_O 	O 	0.827	0.1649	0.1653	-0.286
Mof_N 	N 	0.7205	0.9695	0.9973	-0.256
Mof_N 	N 	0.3488	0.8246	0.8195	-0.232
Mof_N 	N 	0.4322	0.7991	0.8989	-0.137
Mof_N 	N 	0.5733	0.699	0.114	-0.135
Mof_C 	C 	0.9784	0.9642	0.0947	-0.12
Mof_O 	O 	0.9121	0.0885	0.0498	-0.292
Mof_C 	C 	0.4736	0.7637	0.0406	-0.056
Mof_H 	H 	0.4545	0.7737	0.0638	0.061
Mof_C 	C 	0.9014	0.839	0.1644	-0.009
Mof_H 	H 	0.9209	0.784	0.1616	0.04
Mof_N 	N 	0.6318	0.9686	0.0136	-0.136
Mof_C 	C 	0.925	0.9207	0.154	-0.027
Mof_C 	C 	0.5139	0.0005	0.957	-0.074
Mof_H 	H 	0.5233	0.0006	0.9278	0.058
Mof_C 	C 	0.9835	0.9242	0.1412	0.083
Mof_C 	C 	0.8207	0.9205	0.1841	0.031
Mof_H 	H 	0.7862	0.9203	0.1945	0.041
Mof_C 	C 	0.5299	0.7321	0.9712	-0.083
Mof_H 	H 	0.5483	0.7216	0.9477	0.072
Mof_C 	C 	0.4387	0.7883	0.9878	-0.083
Mof_H 	H 	0.3962	0.8148	0.9755	0.063
Mof_C 	C 	0.64	0.6947	0.1428	0.107
Mof_H 	H 	0.6708	0.7069	0.1294	-0.015
Mof_C 	C 	0.5365	0.7243	0.0589	0.086
Mof_C 	C 	0.1034	0.9032	0.1709	0.056
Mof_H 	H 	0.1451	0.8837	0.1966	0.021
Mof_C 	C 	0.1599	0.9535	0.1146	0.345
Mof_C 	C 	0.4667	0.7737	0.9536	0.099
Mof_C 	C 	0.3653	0.7997	0.8693	0.101
Mof_H 	H 	0.3342	0.7848	0.882	-0.008
Mof_C 	C 	0.5646	0.9836	0.0064	0.088
Mof_C 	C 	0.6566	0.9903	0.9794	0.087
Mof_H 	H 	0.6312	0.0172	0.9465	-0.028
Mof_C 	C 	0.739	0.9324	0.0458	0.007
Mof_H 	H 	0.7819	0.9113	0.0683	0.031
Mof_C 	C 	0.0468	0.8931	0.1794	-0.133
Mof_H 	H 	0.0506	0.8657	0.2104	0.083
Mof_C 	C 	0.9127	0.0038	0.0542	0.341
Mof_C 	C 	0.5455	0.6758	0.1474	0.002
Mof_H 	H 	0.4999	0.6729	0.139	0.046
Mof_C 	C 	0.5514	0.9826	0.0502	-0.071
Mof_H 	H 	0.5857	0.9707	0.0839	0.061
Mof_C 	C 	0.8435	0.0037	0.174	-0.102
Mof_C 	C 	0.0984	0.9427	0.1238	-0.12
Mof_C 	C 	0.8948	0.0016	0.158	-0.007
Mof_H 	H 	0.9092	0.0565	0.1496	0.049
Mof_C 	C 	0.5656	0.706	0.0251	-0.06
Mof_H 	H 	0.6074	0.6775	0.0375	0.054
Mof_C 	C 	0.8485	0.8377	0.179	-0.1
Mof_C 	C 	0.036	0.9727	0.086	0.06
Mof_H 	H 	0.0323	0.9987	0.0546	0.037
Mof_C 	C 	0.5981	0.6579	0.1949	0.008
Mof_H 	H 	0.5944	0.6393	0.2251	0.029
Mof_C 	C 	0.4087	0.8412	0.8184	0.003
Mof_H 	H 	0.4133	0.8605	0.7887	0.022
Mof_C 	C 	0.4609	0.8258	0.8668	0.003
Mof_H 	H 	0.5066	0.8321	0.8762	0.029
Mof_C 	C 	0.8134	0.0898	0.1813	0.346
Mof_C 	C 	0.6839	0.9309	0.0567	0.001
Mof_H 	H 	0.6826	0.9087	0.0872	0.033
Mof_C 	C 	0.8225	0.7505	0.1917	0.341
Mof_Ni	Ni	0.25399	0.82837	0.7557	1.065
Mof_Ni	Ni	0.28101	0.50586	0.46056	1.034
Mof_O 	O 	0.7159	0.5721	0.65137	-0.311
Mof_O 	O 	0.2869	0.7396	0.71599	-0.43
Mof_O 	O 	0.3648	0.5504	0.52768	-0.409
Mof_O 	O 	0.6525	0.5119	0.572	-0.426
Mof_O 	O 	0.2771	0.4171	0.7045	-0.435
Mof_O 	O 	0.3352	0.8248	0.6769	-0.309
Mof_N 	N 	0.1573	0.8289	0.692	-0.233
Mof_O 	O 	0.327	0.3351	0.6653	-0.285
Mof_N 	N 	0.2205	0.5305	0.4973	-0.256
Mof_N 	N 	0.8488	0.6754	0.3195	-0.232
Mof_N 	N 	0.9322	0.7009	0.3989	-0.137
Mof_N 	N 	0.0733	0.801	0.614	-0.135
Mof_C 	C 	0.4784	0.5358	0.5947	-0.125
Mof_O 	O 	0.4121	0.4115	0.5498	-0.293
Mof_C 	C 	0.9736	0.7363	0.5406	-0.061
Mof_H 	H 	0.9545	0.7263	0.5638	0.062
Mof_C 	C 	0.4014	0.661	0.6644	-0.008
Mof_H 	H 	0.4209	0.716	0.6616	0.04
Mof_N 	N 	0.1318	0.5314	0.5136	-0.139
Mof_C 	C 	0.425	0.5793	0.654	-0.031
Mof_C 	C 	0.0139	0.4995	0.457	-0.075
Mof_H 	H 	0.0233	0.4994	0.4278	0.057
Mof_C 	C 	0.4835	0.5758	0.6412	0.085
Mof_C 	C 	0.3207	0.5795	0.6841	0.029
Mof_H 	H 	0.2862	0.5797	0.6945	0.041
Mof_C 	C 	0.0299	0.7679	0.4712	-0.079
Mof_H 	H 	0.0483	0.7784	0.4477	0.071
Mof_C 	C 	0.9387	0.7117	0.4878	-0.079
Mof_H 	H 	0.8962	0.6852	0.4755	0.062
Mof_C 	C 	0.14	0.8053	0.6428	0.107
Mof_H 	H 	0.1708	0.7931	0.6294	-0.016
Mof_C 	C 	0.0365	0.7757	0.5589	0.088
Mof_C 	C 	0.6034	0.5968	0.6709	0.058
Mof_H 	H 	0.6451	0.6163	0.6966	0.02
Mof_C 	C 	0.6599	0.5465	0.6146	0.346
Mof_C 	C 	0.9667	0.7263	0.4536	0.097
Mof_C 	C 	0.8653	0.7003	0.3693	0.101
Mof_H 	H 	0.8342	0.7152	0.382	-0.008
Mof_C 	C 	0.0646	0.5164	0.5064	0.088
Mof_C 	C 	0.1566	0.5097	0.4794	0.093
Mof_H 	H 	0.1312	0.4828	0.4465	-0.032
Mof_C 	C 	0.239	0.5676	0.5458	0.003
Mof_H 	H 	0.2819	0.5887	0.5683	0.032
Mof_C 	C 	0.5468	0.6069	0.6794	-0.135
Mof_H 	H 	0.5506	0.6343	0.7104	0.084
Mof_C 	C 	0.4127	0.4962	0.5542	0.347
Mof_C 	C 	0.0455	0.8242	0.6474	0.002
Mof_H 	H 	0.9999	0.8271	0.639	0.046
Mof_C 	C 	0.0514	0.5174	0.5502	-0.072
Mof_H 	H 	0.0857	0.5293	0.5839	0.061
Mof_C 	C 	0.3435	0.4963	0.674	-0.101
Mof_C 	C 	0.5984	0.5573	0.6238	-0.122
Mof_C 	C 	0.3948	0.4984	0.658	-0.005
Mof_H 	H 	0.4092	0.4435	0.6496	0.049
Mof_C 	C 	0.0656	0.794	0.5251	-0.063
Mof_H 	H 	0.1074	0.8225	0.5375	0.055
Mof_C 	C 	0.3485	0.6623	0.679	-0.101
Mof_C 	C 	0.536	0.5273	0.586	0.064
Mof_H 	H 	0.5323	0.5013	0.5546	0.035
Mof_C 	C 	0.0981	0.8421	0.6949	0.008
Mof_H 	H 	0.0944	0.8607	0.7251	0.029
Mof_C 	C 	0.9087	0.6588	0.3184	0.002
Mof_H 	H 	0.9133	0.6395	0.2887	0.022
Mof_C 	C 	0.9609	0.6742	0.3668	0.004
Mof_H 	H 	0.0066	0.6679	0.3762	0.029
Mof_C 	C 	0.3134	0.4102	0.6813	0.346
Mof_C 	C 	0.1839	0.5691	0.5567	0.002
Mof_H 	H 	0.1826	0.5913	0.5872	0.033
Mof_C 	C 	0.3225	0.7495	0.6917	0.342
Mof_Ni	Ni	0.24601	0.32837	0.7443	1.065
Mof_Ni	Ni	0.21899	0.00586	0.03944	1.033
Mof_O 	O 	0.7841	0.0721	0.84863	-0.31
Mof_O 	O 	0.2131	0.2396	0.78401	-0.429
Mof_O 	O 	0.1352	0.0504	0.97232	-0.406
Mof_O 	O 	0.8475	0.0119	0.928	-0.425
Mof_O 	O 	0.2229	0.9171	0.7955	-0.435
Mof_O 	O 	0.1648	0.3248	0.8231	-0.309
Mof_N 	N 	0.3427	0.3289	0.808	-0.233
Mof_O 	O 	0.173	0.8351	0.8347	-0.286
Mof_N 	N 	0.2795	0.0305	0.0027	-0.256
Mof_N 	N 	0.6512	0.1754	0.1805	-0.232
Mof_N 	N 	0.5678	0.2009	0.1011	-0.137
Mof_N 	N 	0.4267	0.301	0.886	-0.135
Mof_C 	C 	0.0216	0.0358	0.9053	-0.12
Mof_O 	O 	0.0879	0.9115	0.9502	-0.292
Mof_C 	C 	0.5264	0.2363	0.9594	-0.056
Mof_H 	H 	0.5455	0.2263	0.9362	0.061
Mof_C 	C 	0.0986	0.161	0.8356	-0.009
Mof_H 	H 	0.0791	0.216	0.8384	0.04
Mof_N 	N 	0.3682	0.0314	0.9864	-0.136
Mof_C 	C 	0.075	0.0793	0.846	-0.027
Mof_C 	C 	0.4861	0.9995	0.043	-0.074
Mof_H 	H 	0.4767	0.9994	0.0722	0.058
Mof_C 	C 	0.0165	0.0758	0.8588	0.083
Mof_C 	C 	0.1793	0.0795	0.8159	0.031
Mof_H 	H 	0.2138	0.0797	0.8055	0.041
Mof_C 	C 	0.4701	0.2679	0.0288	-0.083
Mof_H 	H 	0.4517	0.2784	0.0523	0.072
Mof_C 	C 	0.5613	0.2117	0.0122	-0.083
Mof_H 	H 	0.6038	0.1852	0.0245	0.063
Mof_C 	C 	0.36	0.3053	0.8572	0.107
Mof_H 	H 	0.3292	0.2931	0.8706	-0.015
Mof_C 	C 	0.4635	0.2757	0.9411	0.086
Mof_C 	C 	0.8966	0.0968	0.8291	0.056
Mof_H 	H 	0.8549	0.1163	0.8034	0.021
Mof_C 	C 	0.8401	0.0465	0.8854	0.345
Mof_C 	C 	0.5333	0.2263	0.0464	0.099
Mof_C 	C 	0.6347	0.2003	0.1307	0.101
Mof_H 	H 	0.6658	0.2152	0.118	-0.008
Mof_C 	C 	0.4354	0.0164	0.9936	0.088
Mof_C 	C 	0.3434	0.0097	0.0206	0.087
Mof_H 	H 	0.3688	0.9828	0.0535	-0.028
Mof_C 	C 	0.261	0.0676	0.9542	0.007
Mof_H 	H 	0.2181	0.0887	0.9317	0.031
Mof_C 	C 	0.9532	0.1069	0.8206	-0.133
Mof_H 	H 	0.9494	0.1343	0.7896	0.083
Mof_C 	C 	0.0873	0.9962	0.9458	0.341
Mof_C 	C 	0.4545	0.3242	0.8526	0.002
Mof_H 	H 	0.5001	0.3271	0.861	0.046
Mof_C 	C 	0.4486	0.0174	0.9498	-0.071
Mof_H 	H 	0.4143	0.0293	0.9161	0.061
Mof_C 	C 	0.1565	0.9963	0.826	-0.102
Mof_C 	C 	0.9016	0.0573	0.8762	-0.12
Mof_C 	C 	0.1052	0.9984	0.842	-0.007
Mof_H 	H 	0.0908	0.9435	0.8504	0.049
Mof_C 	C 	0.4344	0.294	0.9749	-0.06
Mof_H 	H 	0.3926	0.3225	0.9625	0.054
Mof_C 	C 	0.1515	0.1623	0.821	-0.1
Mof_C 	C 	0.964	0.0273	0.914	0.06
Mof_H 	H 	0.9677	0.0013	0.9454	0.037
Mof_C 	C 	0.4019	0.3421	0.8051	0.008
Mof_H 	H 	0.4056	0.3607	0.7749	0.029
Mof_C 	C 	0.5913	0.1588	0.1816	0.003
Mof_H 	H 	0.5867	0.1395	0.2113	0.022
Mof_C 	C 	0.5391	0.1742	0.1332	0.003
Mof_H 	H 	0.4934	0.1679	0.1238	0.029
Mof_C 	C 	0.1866	0.9102	0.8187	0.346
Mof_C 	C 	0.3161	0.0691	0.9433	0.001
Mof_H 	H 	0.3174	0.0913	0.9128	0.033
Mof_C 	C 	0.1775	0.2495	0.8083	0.341
_end
