# CIF file generated by openbabel 3.1.0, see https://openbabel.org
data_I
_chemical_name_common 'ROJNEJ_clean'
_cell_length_a 7.113
_cell_length_b 9.959
_cell_length_c 9.959
_cell_angle_alpha 90
_cell_angle_beta 90
_cell_angle_gamma 90
_space_group_name_H-M_alt 'P 1'
_space_group_name_Hall 'P 1'
loop_
    _symmetry_equiv_pos_as_xyz
    x,y,z
loop_
    _atom_site_label
    _atom_site_type_symbol
    _atom_site_fract_x
    _atom_site_fract_y
    _atom_site_fract_z
    _atom_site_occupancy
    V1       V        0.50000    0.60910    0.89090    1.000
    V2       V        0.50000    0.39090    0.10910    1.000
    V3       V        0.50000    0.10910    0.60910    1.000
    V4       V        0.50000    0.89090    0.39090    1.000
    H1       H        0.50000    0.35630    0.85630    1.000
    H2       H        0.50000    0.64370    0.14370    1.000
    H3       H        0.50000    0.14370    0.35630    1.000
    H4       H        0.50000    0.85630    0.64370    1.000
    C1       C        0.50000    0.44220    0.41440    1.000
    C2       C        0.50000    0.55780    0.58560    1.000
    C3       C        0.50000    0.58560    0.44220    1.000
    C4       C        0.50000    0.41440    0.55780    1.000
    C5       C        0.50000    0.05780    0.91440    1.000
    C6       C        0.50000    0.94220    0.08560    1.000
    C7       C        0.50000    0.91440    0.94220    1.000
    C8       C        0.50000    0.08560    0.05780    1.000
    C9       C        0.10100    0.55160    0.94840    1.000
    C10      C        0.10100    0.44840    0.05160    1.000
    C11      C        0.10100    0.05160    0.55160    1.000
    C12      C        0.10100    0.94840    0.44840    1.000
    C13      C        0.89900    0.94840    0.44840    1.000
    C14      C        0.89900    0.05160    0.55160    1.000
    C15      C        0.89900    0.44840    0.05160    1.000
    C16      C        0.89900    0.55160    0.94840    1.000
    O1       O        0.50000    0.62990    0.68790    1.000
    O2       O        0.50000    0.37010    0.31210    1.000
    O3       O        0.50000    0.31210    0.62990    1.000
    O4       O        0.50000    0.68790    0.37010    1.000
    O5       O        0.50000    0.87010    0.18790    1.000
    O6       O        0.50000    0.12990    0.81210    1.000
    O7       O        0.50000    0.18790    0.12990    1.000
    O8       O        0.50000    0.81210    0.87010    1.000
    O9       O        0.22030    0.61750    0.88250    1.000
    O10      O        0.22030    0.38250    0.11750    1.000
    O11      O        0.22030    0.11750    0.61750    1.000
    O12      O        0.22030    0.88250    0.38250    1.000
    O13      O        0.77970    0.88250    0.38250    1.000
    O14      O        0.77970    0.11750    0.61750    1.000
    O15      O        0.77970    0.38250    0.11750    1.000
    O16      O        0.77970    0.61750    0.88250    1.000
    O17      O        0.50000    0.58620    0.08620    1.000
    O18      O        0.50000    0.41380    0.91380    1.000
    O19      O        0.50000    0.91380    0.58620    1.000
    O20      O        0.50000    0.08620    0.41380    1.000
