# CIF file generated by openbabel 3.1.0, see https://openbabel.org
data_I
_chemical_name_common 'image0'
_cell_length_a 11.857
_cell_length_b 12.554
_cell_length_c 12.515
_cell_angle_alpha 119.12
_cell_angle_beta 98.44
_cell_angle_gamma 108.27
_space_group_name_H-M_alt 'P 1'
_space_group_name_Hall 'P 1'
loop_
    _symmetry_equiv_pos_as_xyz
    x,y,z
loop_
    _atom_site_label
    _atom_site_type_symbol
    _atom_site_fract_x
    _atom_site_fract_y
    _atom_site_fract_z
    _atom_site_occupancy
    La1      La       0.47975    0.01103    0.17795    1.000
    La2      La       0.80285    0.23593    0.75610    1.000
    O1       O        0.59260    0.16150    0.41580    1.000
    O2       O        0.66850    0.28300    0.63228    1.000
    O3       O        0.57240    0.80200    0.79650    1.000
    O4       O        0.52900    0.88670    0.97680    1.000
    O5       O        0.26660    0.85350    0.99710    1.000
    O6       O        0.10980    0.72670    0.02430    1.000
    O7       O        0.30500    0.99980    0.27820    1.000
    O8       O        0.11590    0.95020    0.29400    1.000
    O9       O        0.39490    0.11090    0.76490    1.000
    O10      O        0.60170    0.19830    0.81240    1.000
    O11      O        0.94030    0.36090    0.66710    1.000
    O12      O        0.04330    0.36820    0.83360    1.000
    O13      O        0.42560    0.97500    0.46680    1.000
    C1       C        0.73350    0.53320    0.66680    1.000
    C2       C        0.65620    0.57230    0.73640    1.000
    H1       H        0.56640    0.51900    0.69620    1.000
    C3       C        0.70900    0.68900    0.86460    1.000
    C4       C        0.84070    0.76670    0.92180    1.000
    H2       H        0.87750    0.84470    0.00970    1.000
    C5       C        0.91890    0.73190    0.85240    1.000
    C6       C        0.86460    0.61380    0.72530    1.000
    H3       H        0.91780    0.58800    0.67820    1.000
    C7       C        0.67320    0.40260    0.52980    1.000
    H4       H        0.59340    0.39540    0.48280    1.000
    H5       H        0.73160    0.40820    0.48170    1.000
    C8       C        0.64300    0.27450    0.52690    1.000
    C9       C        0.62380    0.73360    0.93720    1.000
    H6       H        0.67270    0.79170    0.03270    1.000
    H7       H        0.55180    0.65220    0.91750    1.000
    C10      C        0.57200    0.81190    0.90010    1.000
    C11      C        0.06020    0.82510    0.91120    1.000
    H8       H        0.07270    0.91880    0.97400    1.000
    H9       H        0.08720    0.82420    0.83970    1.000
    C12      C        0.14990    0.79680    0.98150    1.000
    C13      C        0.27220    0.25940    0.51270    1.000
    C14      C        0.36330    0.25590    0.59360    1.000
    H10      H        0.40640    0.20310    0.55610    1.000
    C15      C        0.39210    0.32900    0.72910    1.000
    C16      C        0.32700    0.40450    0.78250    1.000
    H11      H        0.34310    0.45110    0.87390    1.000
    C17      C        0.23870    0.41300    0.70430    1.000
    C18      C        0.21190    0.34070    0.56990    1.000
    H12      H        0.15200    0.34650    0.51610    1.000
    C19      C        0.24130    0.18060    0.36520    1.000
    H13      H        0.16450    0.18150    0.32280    1.000
    H14      H        0.31290    0.22580    0.34660    1.000
    C20      C        0.21810    0.03450    0.30780    1.000
    C21      C        0.50110    0.33830    0.81820    1.000
    H15      H        0.50630    0.39560    0.90950    1.000
    H16      H        0.58100    0.38650    0.81170    1.000
    C22      C        0.49640    0.20590    0.79350    1.000
    C23      C        0.16810    0.49610    0.76340    1.000
    H17      H        0.22040    0.57090    0.85640    1.000
    H18      H        0.15200    0.53670    0.71550    1.000
    C24      C        0.04320    0.40410    0.75400    1.000
    La3      La       0.52025    0.98897    0.82205    1.000
    La4      La       0.19715    0.76407    0.24390    1.000
    O14      O        0.40740    0.83850    0.58420    1.000
    O15      O        0.33150    0.71700    0.36772    1.000
    O16      O        0.42760    0.19800    0.20350    1.000
    O17      O        0.47100    0.11330    0.02320    1.000
    O18      O        0.73340    0.14650    0.00290    1.000
    O19      O        0.89020    0.27330    0.97570    1.000
    O20      O        0.69500    0.00020    0.72180    1.000
    O21      O        0.88410    0.04980    0.70600    1.000
    O22      O        0.60510    0.88910    0.23510    1.000
    O23      O        0.39830    0.80170    0.18760    1.000
    O24      O        0.05970    0.63910    0.33290    1.000
    O25      O        0.95670    0.63180    0.16640    1.000
    O26      O        0.57440    0.02500    0.53320    1.000
    C25      C        0.26650    0.46680    0.33320    1.000
    C26      C        0.34380    0.42770    0.26360    1.000
    H19      H        0.43360    0.48100    0.30380    1.000
    C27      C        0.29100    0.31100    0.13540    1.000
    C28      C        0.15930    0.23330    0.07820    1.000
    H20      H        0.12250    0.15530    0.99030    1.000
    C29      C        0.08110    0.26810    0.14760    1.000
    C30      C        0.13540    0.38620    0.27470    1.000
    H21      H        0.08220    0.41200    0.32180    1.000
    C31      C        0.32680    0.59740    0.47020    1.000
    H22      H        0.40660    0.60460    0.51720    1.000
    H23      H        0.26840    0.59180    0.51830    1.000
    C32      C        0.35700    0.72550    0.47310    1.000
    C33      C        0.37620    0.26640    0.06280    1.000
    H24      H        0.32730    0.20830    0.96730    1.000
    H25      H        0.44820    0.34780    0.08250    1.000
    C34      C        0.42800    0.18810    0.09990    1.000
    C35      C        0.93980    0.17490    0.08880    1.000
    H26      H        0.92730    0.08120    0.02600    1.000
    H27      H        0.91280    0.17580    0.16030    1.000
    C36      C        0.85010    0.20320    0.01850    1.000
    C37      C        0.72780    0.74060    0.48730    1.000
    C38      C        0.63670    0.74410    0.40640    1.000
    H28      H        0.59360    0.79690    0.44390    1.000
    C39      C        0.60790    0.67100    0.27090    1.000
    C40      C        0.67300    0.59550    0.21750    1.000
    H29      H        0.65690    0.54890    0.12610    1.000
    C41      C        0.76130    0.58700    0.29570    1.000
    C42      C        0.78810    0.65930    0.43010    1.000
    H30      H        0.84800    0.65350    0.48390    1.000
    C43      C        0.75870    0.81940    0.63480    1.000
    H31      H        0.83550    0.81850    0.67720    1.000
    H32      H        0.68710    0.77420    0.65340    1.000
    C44      C        0.78190    0.96550    0.69220    1.000
    C45      C        0.49890    0.66170    0.18180    1.000
    H33      H        0.49370    0.60440    0.09050    1.000
    H34      H        0.41900    0.61350    0.18830    1.000
    C46      C        0.50360    0.79410    0.20650    1.000
    C47      C        0.83190    0.50390    0.23660    1.000
    H35      H        0.77960    0.42910    0.14360    1.000
    H36      H        0.84800    0.46330    0.28450    1.000
    C48      C        0.95680    0.59590    0.24600    1.000
