data_functionalizedCrystal
_audit_creation_method	'EQeq! by Chris Wilmer'
_symmetry_space_group_name_H-M	'P1'
_symmetry_Int_Tables_number	1
_symmetry_cell_setting	triclinic
loop_
_symmetry_equiv_pos_as_xyz
  x,y,z
_cell_length_a	18.559
_cell_length_b	18.559
_cell_length_c	10.98
_cell_angle_alpha	90
_cell_angle_beta	90
_cell_angle_gamma	120
loop_
_atom_site_label
_atom_site_type_symbol
_atom_site_fract_x
_atom_site_fract_y
_atom_site_fract_z
_atom_site_charge
Mof_S 	S 	0.0586	0.2277	0.0489	0.004
Mof_O 	O 	0.37154	0.48137	0.5098	-0.407
Mof_O 	O 	0.41101	0.4402	0.3438	-0.4
Mof_C 	C 	0.3592	0.4504	0.4059	0.357
Mof_C 	C 	0.2764	0.4232	0.3476	-0.074
Mof_C 	C 	0.2547	0.3814	0.237	-0.026
Mof_H 	H 	0.2917	0.3668	0.1993	0.061
Mof_S 	S 	0.7723	0.8309	0.0489	0.004
Mof_O 	O 	0.51863	0.89017	0.5098	-0.408
Mof_O 	O 	0.5598	0.97081	0.3438	-0.401
Mof_C 	C 	0.5496	0.9088	0.4059	0.356
Mof_C 	C 	0.5768	0.8532	0.3476	-0.074
Mof_C 	C 	0.6186	0.8733	0.237	-0.027
Mof_H 	H 	0.6332	0.9249	0.1993	0.06
Mof_S 	S 	0.1691	0.9414	0.0489	0.004
Mof_O 	O 	0.10983	0.62846	0.5098	-0.408
Mof_O 	O 	0.02919	0.58899	0.3438	-0.401
Mof_C 	C 	0.0912	0.6408	0.4059	0.356
Mof_C 	C 	0.1468	0.7236	0.3476	-0.074
Mof_C 	C 	0.1267	0.7453	0.237	-0.027
Mof_H 	H 	0.0751	0.7083	0.1993	0.061
Mof_S 	S 	0.2277	0.0586	0.9511	0.003
Mof_O 	O 	0.48137	0.37154	0.4902	-0.408
Mof_O 	O 	0.4402	0.41101	0.6562	-0.401
Mof_C 	C 	0.4504	0.3592	0.5941	0.356
Mof_C 	C 	0.4232	0.2764	0.6524	-0.075
Mof_C 	C 	0.3814	0.2547	0.763	-0.027
Mof_H 	H 	0.3668	0.2917	0.8007	0.06
Mof_S 	S 	0.8309	0.7723	0.9511	0.003
Mof_O 	O 	0.89017	0.51863	0.4902	-0.408
Mof_O 	O 	0.97081	0.5598	0.6562	-0.401
Mof_C 	C 	0.9088	0.5496	0.5941	0.356
Mof_C 	C 	0.8532	0.5768	0.6524	-0.074
Mof_C 	C 	0.8733	0.6186	0.763	-0.027
Mof_H 	H 	0.9249	0.6332	0.8007	0.06
Mof_S 	S 	0.9414	0.1691	0.9511	0.004
Mof_O 	O 	0.62846	0.10983	0.4902	-0.408
Mof_O 	O 	0.58899	0.02919	0.6562	-0.401
Mof_C 	C 	0.6408	0.0912	0.5941	0.356
Mof_C 	C 	0.7236	0.1468	0.6524	-0.074
Mof_C 	C 	0.7453	0.1267	0.763	-0.027
Mof_H 	H 	0.7083	0.0751	0.8007	0.061
Mof_S 	S 	0.9414	0.7723	0.9511	0.003
Mof_O 	O 	0.62846	0.51863	0.4902	-0.408
Mof_O 	O 	0.58899	0.5598	0.6562	-0.401
Mof_C 	C 	0.6408	0.5496	0.5941	0.356
Mof_C 	C 	0.7236	0.5768	0.6524	-0.075
Mof_C 	C 	0.7453	0.6186	0.763	-0.027
Mof_H 	H 	0.7083	0.6332	0.8007	0.06
Mof_S 	S 	0.2277	0.1691	0.9511	0.003
Mof_O 	O 	0.48137	0.10983	0.4902	-0.408
Mof_O 	O 	0.4402	0.02919	0.6562	-0.401
Mof_C 	C 	0.4504	0.0912	0.5941	0.356
Mof_C 	C 	0.4232	0.1468	0.6524	-0.074
Mof_C 	C 	0.3814	0.1267	0.763	-0.027
Mof_H 	H 	0.3668	0.0751	0.8007	0.06
Mof_S 	S 	0.8309	0.0586	0.9511	0.004
Mof_O 	O 	0.89017	0.37154	0.4902	-0.408
Mof_O 	O 	0.97081	0.41101	0.6562	-0.401
Mof_C 	C 	0.9088	0.3592	0.5941	0.356
Mof_C 	C 	0.8532	0.2764	0.6524	-0.074
Mof_C 	C 	0.8733	0.2547	0.763	-0.027
Mof_H 	H 	0.9249	0.2917	0.8007	0.061
Mof_S 	S 	0.7723	0.9414	0.0489	0.003
Mof_O 	O 	0.51863	0.62846	0.5098	-0.408
Mof_O 	O 	0.5598	0.58899	0.3438	-0.401
Mof_C 	C 	0.5496	0.6408	0.4059	0.356
Mof_C 	C 	0.5768	0.7236	0.3476	-0.075
Mof_C 	C 	0.6186	0.7453	0.237	-0.027
Mof_H 	H 	0.6332	0.7083	0.1993	0.06
Mof_S 	S 	0.1691	0.2277	0.0489	0.003
Mof_O 	O 	0.10983	0.48137	0.5098	-0.408
Mof_O 	O 	0.02919	0.4402	0.3438	-0.401
Mof_C 	C 	0.0912	0.4504	0.4059	0.356
Mof_C 	C 	0.1468	0.4232	0.3476	-0.074
Mof_C 	C 	0.1267	0.3814	0.237	-0.027
Mof_H 	H 	0.0751	0.3668	0.1993	0.06
Mof_S 	S 	0.0586	0.8309	0.0489	0.004
Mof_O 	O 	0.37154	0.89017	0.5098	-0.408
Mof_O 	O 	0.41101	0.97081	0.3438	-0.401
Mof_C 	C 	0.3592	0.9088	0.4059	0.356
Mof_C 	C 	0.2764	0.8532	0.3476	-0.074
Mof_C 	C 	0.2547	0.8733	0.237	-0.027
Mof_H 	H 	0.2917	0.9249	0.1993	0.061
Mof_Cu	Cu	0.47617	0.52383	0.5981	0.907
Mof_Cu	Cu	0.47617	0.95234	0.5981	0.906
Mof_Cu	Cu	0.04766	0.52383	0.5981	0.906
Mof_Cu	Cu	0.52383	0.47617	0.4019	0.907
Mof_Cu	Cu	0.95234	0.47617	0.4019	0.906
Mof_Cu	Cu	0.52383	0.04766	0.4019	0.906
Mof_C 	C 	0.18045	0.3609	0.1808	0.019
Mof_C 	C 	0.2217	0.4434	0.4035	0.02
Mof_H 	H 	0.2355	0.471	0.48	0.056
Mof_C 	C 	0.08215	0.1643	0.1671	-0.004
Mof_C 	C 	0.1588	0.3176	0.0549	-0.017
Mof_C 	C 	0.6391	0.81955	0.1808	0.019
Mof_C 	C 	0.5566	0.7783	0.4035	0.02
Mof_H 	H 	0.529	0.7645	0.48	0.056
Mof_C 	C 	0.8357	0.91785	0.1671	-0.004
Mof_C 	C 	0.6824	0.8412	0.0549	-0.017
Mof_C 	C 	0.18045	0.81955	0.1808	0.019
Mof_C 	C 	0.2217	0.7783	0.4035	0.02
Mof_H 	H 	0.2355	0.7645	0.48	0.056
Mof_C 	C 	0.08215	0.91785	0.1671	-0.004
Mof_C 	C 	0.1588	0.8412	0.0549	-0.018
Mof_C 	C 	0.3609	0.18045	0.8192	0.019
Mof_C 	C 	0.4434	0.2217	0.5965	0.02
Mof_H 	H 	0.471	0.2355	0.52	0.056
Mof_C 	C 	0.1643	0.08215	0.8329	-0.004
Mof_C 	C 	0.3176	0.1588	0.9451	-0.017
Mof_C 	C 	0.81955	0.6391	0.8192	0.019
Mof_C 	C 	0.7783	0.5566	0.5965	0.02
Mof_H 	H 	0.7645	0.529	0.52	0.056
Mof_C 	C 	0.91785	0.8357	0.8329	-0.004
Mof_C 	C 	0.8412	0.6824	0.9451	-0.017
Mof_C 	C 	0.81955	0.18045	0.8192	0.019
Mof_C 	C 	0.7783	0.2217	0.5965	0.02
Mof_H 	H 	0.7645	0.2355	0.52	0.056
Mof_C 	C 	0.91785	0.08215	0.8329	-0.004
Mof_C 	C 	0.8412	0.1588	0.9451	-0.018
_end
