# CIF file generated by openbabel 3.1.0, see https://openbabel.org
data_I
_chemical_name_common 'image0'
_cell_length_a 11.0788
_cell_length_b 12.6965
_cell_length_c 12.7879
_cell_angle_alpha 65.776
_cell_angle_beta 86.62
_cell_angle_gamma 83.387
_space_group_name_H-M_alt 'P 1'
_space_group_name_Hall 'P 1'
loop_
    _symmetry_equiv_pos_as_xyz
    x,y,z
loop_
    _atom_site_label
    _atom_site_type_symbol
    _atom_site_fract_x
    _atom_site_fract_y
    _atom_site_fract_z
    _atom_site_occupancy
    Co1      Co       0.75045    0.11533    0.05159    1.000
    Co2      Co       0.10216    0.81873    0.23137    1.000
    C1       C        0.02390    0.09110    0.29570    1.000
    C2       C        0.94780    0.13630    0.36070    1.000
    H1       H        0.86550    0.15530    0.34400    1.000
    C3       C        0.99390    0.15330    0.45030    1.000
    C4       C        0.11670    0.12500    0.47440    1.000
    H2       H        0.14850    0.13510    0.53510    1.000
    C5       C        0.19180    0.08170    0.40780    1.000
    C6       C        0.14670    0.06360    0.31910    1.000
    H3       H        0.19800    0.03350    0.27570    1.000
    C7       C        0.97050    0.06900    0.20200    1.000
    C8       C        0.90920    0.19190    0.52830    1.000
    C9       C        0.38940    0.98310    0.40200    1.000
    H4       H        0.33950    0.93290    0.38710    1.000
    H5       H        0.44600    0.93450    0.46200    1.000
    C10      C        0.48560    0.14390    0.12430    1.000
    H6       H        0.47240    0.19230    0.04750    1.000
    C11      C        0.57570    0.03760    0.27660    1.000
    H7       H        0.63450    0.99490    0.33110    1.000
    C12      C        0.51050    0.18420    0.76820    1.000
    C13      C        0.40070    0.15380    0.82520    1.000
    H8       H        0.39940    0.11030    0.90410    1.000
    C14      C        0.29370    0.18830    0.76470    1.000
    C15      C        0.29420    0.25680    0.64640    1.000
    H9       H        0.22180    0.28240    0.60620    1.000
    C16      C        0.40440    0.28570    0.59030    1.000
    C17      C        0.51170    0.24920    0.65020    1.000
    H10      H        0.58520    0.26810    0.61150    1.000
    C18      C        0.62990    0.14820    0.83050    1.000
    C19      C        0.17270    0.15490    0.82270    1.000
    C20      C        0.32780    0.35990    0.39770    1.000
    H11      H        0.28480    0.29100    0.43030    1.000
    H12      H        0.36610    0.36270    0.32660    1.000
    C21      C        0.08220    0.56060    0.37820    1.000
    H13      H        0.00390    0.58240    0.39730    1.000
    C22      C        0.24980    0.57020    0.30030    1.000
    H14      H        0.31760    0.59620    0.25430    1.000
    N1       N        0.45680    0.04690    0.29840    1.000
    N2       N        0.39780    0.11540    0.19980    1.000
    N3       N        0.59800    0.09750    0.16640    1.000
    N4       N        0.24160    0.46130    0.37340    1.000
    N5       N        0.13230    0.45380    0.42530    1.000
    N6       N        0.15090    0.63640    0.30090    1.000
    O1       O        0.03940    0.01720    0.15120    1.000
    O2       O        0.86110    0.10440    0.18010    1.000
    O3       O        0.80160    0.22400    0.50160    1.000
    O4       O        0.95780    0.18250    0.61860    1.000
    O5       O        0.31490    0.05830    0.43960    1.000
    O6       O        0.72300    0.14800    0.77060    1.000
    O7       O        0.62520    0.12300    0.93630    1.000
    O8       O        0.17230    0.06360    0.91550    1.000
    O9       O        0.08140    0.22000    0.77550    1.000
    O10      O        0.41790    0.35190    0.47400    1.000
    H15      H        0.07700    0.79600    0.05000    1.000
    O11      O        0.10630    0.84820    0.06270    1.000
    Co3      Co       0.24955    0.88467    0.94841    1.000
    Co4      Co       0.89784    0.18127    0.76863    1.000
    C23      C        0.97610    0.90890    0.70430    1.000
    C24      C        0.05220    0.86370    0.63930    1.000
    H16      H        0.13450    0.84470    0.65600    1.000
    C25      C        0.00610    0.84670    0.54970    1.000
    C26      C        0.88330    0.87500    0.52560    1.000
    H17      H        0.85150    0.86490    0.46490    1.000
    C27      C        0.80820    0.91830    0.59220    1.000
    C28      C        0.85330    0.93640    0.68090    1.000
    H18      H        0.80200    0.96650    0.72430    1.000
    C29      C        0.02950    0.93100    0.79800    1.000
    C30      C        0.09080    0.80810    0.47170    1.000
    C31      C        0.61060    0.01690    0.59800    1.000
    H19      H        0.66050    0.06710    0.61290    1.000
    H20      H        0.55400    0.06550    0.53800    1.000
    C32      C        0.51440    0.85610    0.87570    1.000
    H21      H        0.52760    0.80770    0.95250    1.000
    C33      C        0.42430    0.96240    0.72340    1.000
    H22      H        0.36550    0.00510    0.66890    1.000
    C34      C        0.48950    0.81580    0.23180    1.000
    C35      C        0.59930    0.84620    0.17480    1.000
    H23      H        0.60060    0.88970    0.09590    1.000
    C36      C        0.70630    0.81170    0.23530    1.000
    C37      C        0.70580    0.74320    0.35360    1.000
    H24      H        0.77820    0.71760    0.39380    1.000
    C38      C        0.59560    0.71430    0.40970    1.000
    C39      C        0.48830    0.75080    0.34980    1.000
    H25      H        0.41480    0.73190    0.38850    1.000
    C40      C        0.37010    0.85180    0.16950    1.000
    C41      C        0.82730    0.84510    0.17730    1.000
    C42      C        0.67220    0.64010    0.60230    1.000
    H26      H        0.71520    0.70900    0.56970    1.000
    H27      H        0.63390    0.63730    0.67340    1.000
    C43      C        0.91780    0.43940    0.62180    1.000
    H28      H        0.99610    0.41760    0.60270    1.000
    C44      C        0.75020    0.42980    0.69970    1.000
    H29      H        0.68240    0.40380    0.74570    1.000
    N7       N        0.54320    0.95310    0.70160    1.000
    N8       N        0.60220    0.88460    0.80020    1.000
    N9       N        0.40200    0.90250    0.83360    1.000
    N10      N        0.75840    0.53870    0.62660    1.000
    N11      N        0.86770    0.54620    0.57470    1.000
    N12      N        0.84910    0.36360    0.69910    1.000
    O12      O        0.96060    0.98280    0.84880    1.000
    O13      O        0.13890    0.89560    0.81990    1.000
    O14      O        0.19840    0.77600    0.49840    1.000
    O15      O        0.04220    0.81750    0.38140    1.000
    O16      O        0.68510    0.94170    0.56040    1.000
    O17      O        0.27700    0.85200    0.22940    1.000
    O18      O        0.37480    0.87700    0.06370    1.000
    O19      O        0.82770    0.93640    0.08450    1.000
    O20      O        0.91860    0.78000    0.22450    1.000
    O21      O        0.58210    0.64810    0.52600    1.000
    H30      H        0.92300    0.20400    0.95000    1.000
    O22      O        0.89370    0.15180    0.93730    1.000
    Co5      Co       0.00000    0.00000    0.00000    1.000
