data_functionalizedCrystal
_audit_creation_method	'EQeq! by Chris Wilmer'
_symmetry_space_group_name_H-M	'P1'
_symmetry_Int_Tables_number	1
_symmetry_cell_setting	triclinic
loop_
_symmetry_equiv_pos_as_xyz
  x,y,z
_cell_length_a	26.315
_cell_length_b	26.315
_cell_length_c	26.315
_cell_angle_alpha	90
_cell_angle_beta	90
_cell_angle_gamma	90
loop_
_atom_site_label
_atom_site_type_symbol
_atom_site_fract_x
_atom_site_fract_y
_atom_site_fract_z
_atom_site_charge
Mof_O 	O 	0.81701	0.24328	0.55253	-0.401
Mof_O 	O 	0.81701	0.74328	0.05253	-0.414
Mof_O 	O 	0.31701	0.24328	0.05253	-0.423
Mof_O 	O 	0.31701	0.74328	0.55253	-0.403
Mof_O 	O 	0.18299	0.75672	0.55253	-0.408
Mof_O 	O 	0.18299	0.25672	0.05253	-0.428
Mof_O 	O 	0.68299	0.75672	0.05253	-0.42
Mof_O 	O 	0.68299	0.25672	0.55253	-0.407
Mof_O 	O 	0.18299	0.24328	0.44747	-0.411
Mof_O 	O 	0.18299	0.74328	0.94747	-0.375
Mof_O 	O 	0.68299	0.24328	0.94747	-0.374
Mof_O 	O 	0.68299	0.74328	0.44747	-0.402
Mof_O 	O 	0.81701	0.75672	0.44747	-0.398
Mof_O 	O 	0.81701	0.25672	0.94747	-0.369
Mof_O 	O 	0.31701	0.75672	0.94747	-0.371
Mof_O 	O 	0.31701	0.25672	0.44747	-0.407
Mof_O 	O 	0.55253	0.81701	0.24328	-0.401
Mof_O 	O 	0.55253	0.31701	0.74328	-0.403
Mof_O 	O 	0.05253	0.81701	0.74328	-0.414
Mof_O 	O 	0.05253	0.31701	0.24328	-0.423
Mof_O 	O 	0.55253	0.18299	0.75672	-0.408
Mof_O 	O 	0.55253	0.68299	0.25672	-0.408
Mof_O 	O 	0.05253	0.18299	0.25672	-0.429
Mof_O 	O 	0.05253	0.68299	0.75672	-0.421
Mof_O 	O 	0.44747	0.18299	0.24328	-0.412
Mof_O 	O 	0.44747	0.68299	0.74328	-0.403
Mof_O 	O 	0.94747	0.18299	0.74328	-0.376
Mof_O 	O 	0.94747	0.68299	0.24328	-0.375
Mof_O 	O 	0.44747	0.81701	0.75672	-0.399
Mof_O 	O 	0.44747	0.31701	0.25672	-0.408
Mof_O 	O 	0.94747	0.81701	0.25672	-0.37
Mof_O 	O 	0.94747	0.31701	0.75672	-0.372
Mof_O 	O 	0.24328	0.55253	0.81701	-0.402
Mof_O 	O 	0.24328	0.05253	0.31701	-0.424
Mof_O 	O 	0.74328	0.55253	0.31701	-0.404
Mof_O 	O 	0.74328	0.05253	0.81701	-0.415
Mof_O 	O 	0.75672	0.55253	0.18299	-0.409
Mof_O 	O 	0.75672	0.05253	0.68299	-0.421
Mof_O 	O 	0.25672	0.55253	0.68299	-0.408
Mof_O 	O 	0.25672	0.05253	0.18299	-0.429
Mof_O 	O 	0.24328	0.44747	0.18299	-0.412
Mof_O 	O 	0.24328	0.94747	0.68299	-0.375
Mof_O 	O 	0.74328	0.44747	0.68299	-0.403
Mof_O 	O 	0.74328	0.94747	0.18299	-0.376
Mof_O 	O 	0.75672	0.44747	0.81701	-0.399
Mof_O 	O 	0.75672	0.94747	0.31701	-0.372
Mof_O 	O 	0.25672	0.44747	0.31701	-0.408
Mof_O 	O 	0.25672	0.94747	0.81701	-0.37
Mof_O 	O 	0.24328	0.81701	0.44747	-0.402
Mof_O 	O 	0.24328	0.31701	0.94747	-0.375
Mof_O 	O 	0.74328	0.81701	0.94747	-0.366
Mof_O 	O 	0.74328	0.31701	0.44747	-0.404
Mof_O 	O 	0.75672	0.18299	0.44747	-0.409
Mof_O 	O 	0.75672	0.68299	0.94747	-0.372
Mof_O 	O 	0.25672	0.18299	0.94747	-0.381
Mof_O 	O 	0.25672	0.68299	0.44747	-0.408
Mof_O 	O 	0.24328	0.18299	0.55253	-0.412
Mof_O 	O 	0.24328	0.68299	0.05253	-0.424
Mof_O 	O 	0.74328	0.18299	0.05253	-0.425
Mof_O 	O 	0.74328	0.68299	0.55253	-0.403
Mof_O 	O 	0.75672	0.81701	0.55253	-0.399
Mof_O 	O 	0.75672	0.31701	0.05253	-0.421
Mof_O 	O 	0.25672	0.81701	0.05253	-0.419
Mof_O 	O 	0.25672	0.31701	0.55253	-0.408
Mof_O 	O 	0.81701	0.55253	0.75672	-0.399
Mof_O 	O 	0.81701	0.05253	0.25672	-0.419
Mof_O 	O 	0.31701	0.55253	0.25672	-0.408
Mof_O 	O 	0.31701	0.05253	0.75672	-0.421
Mof_O 	O 	0.18299	0.55253	0.24328	-0.412
Mof_O 	O 	0.18299	0.05253	0.74328	-0.425
Mof_O 	O 	0.68299	0.55253	0.74328	-0.403
Mof_O 	O 	0.68299	0.05253	0.24328	-0.424
Mof_O 	O 	0.18299	0.44747	0.75672	-0.409
Mof_O 	O 	0.18299	0.94747	0.25672	-0.381
Mof_O 	O 	0.68299	0.44747	0.25672	-0.408
Mof_O 	O 	0.68299	0.94747	0.75672	-0.372
Mof_O 	O 	0.81701	0.44747	0.24328	-0.402
Mof_O 	O 	0.81701	0.94747	0.74328	-0.366
Mof_O 	O 	0.31701	0.44747	0.74328	-0.404
Mof_O 	O 	0.31701	0.94747	0.24328	-0.375
Mof_O 	O 	0.55253	0.24328	0.18299	-0.412
Mof_O 	O 	0.55253	0.74328	0.68299	-0.403
Mof_O 	O 	0.05253	0.24328	0.68299	-0.424
Mof_O 	O 	0.05253	0.74328	0.18299	-0.425
Mof_O 	O 	0.55253	0.75672	0.81701	-0.399
Mof_O 	O 	0.55253	0.25672	0.31701	-0.408
Mof_O 	O 	0.05253	0.75672	0.31701	-0.421
Mof_O 	O 	0.05253	0.25672	0.81701	-0.419
Mof_O 	O 	0.44747	0.24328	0.81701	-0.402
Mof_O 	O 	0.44747	0.74328	0.31701	-0.404
Mof_O 	O 	0.94747	0.24328	0.31701	-0.375
Mof_O 	O 	0.94747	0.74328	0.81701	-0.366
Mof_O 	O 	0.44747	0.75672	0.18299	-0.409
Mof_O 	O 	0.44747	0.25672	0.68299	-0.408
Mof_O 	O 	0.94747	0.75672	0.68299	-0.372
Mof_O 	O 	0.94747	0.25672	0.18299	-0.381
Mof_O 	O 	0.18299	0.75672	0.44747	-0.409
Mof_O 	O 	0.18299	0.25672	0.94747	-0.381
Mof_O 	O 	0.68299	0.75672	0.94747	-0.372
Mof_O 	O 	0.68299	0.25672	0.44747	-0.408
Mof_O 	O 	0.81701	0.24328	0.44747	-0.402
Mof_O 	O 	0.81701	0.74328	0.94747	-0.366
Mof_O 	O 	0.31701	0.24328	0.94747	-0.375
Mof_O 	O 	0.31701	0.74328	0.44747	-0.404
Mof_O 	O 	0.81701	0.75672	0.55253	-0.399
Mof_O 	O 	0.81701	0.25672	0.05253	-0.419
Mof_O 	O 	0.31701	0.75672	0.05253	-0.421
Mof_O 	O 	0.31701	0.25672	0.55253	-0.408
Mof_O 	O 	0.18299	0.24328	0.55253	-0.412
Mof_O 	O 	0.18299	0.74328	0.05253	-0.425
Mof_O 	O 	0.68299	0.24328	0.05253	-0.424
Mof_O 	O 	0.68299	0.74328	0.55253	-0.403
Mof_O 	O 	0.44747	0.18299	0.75672	-0.409
Mof_O 	O 	0.44747	0.68299	0.25672	-0.408
Mof_O 	O 	0.94747	0.18299	0.25672	-0.381
Mof_O 	O 	0.94747	0.68299	0.75672	-0.372
Mof_O 	O 	0.44747	0.81701	0.24328	-0.402
Mof_O 	O 	0.44747	0.31701	0.74328	-0.404
Mof_O 	O 	0.94747	0.81701	0.74328	-0.366
Mof_O 	O 	0.94747	0.31701	0.24328	-0.375
Mof_O 	O 	0.55253	0.81701	0.75672	-0.399
Mof_O 	O 	0.55253	0.31701	0.25672	-0.408
Mof_O 	O 	0.05253	0.81701	0.25672	-0.419
Mof_O 	O 	0.05253	0.31701	0.75672	-0.421
Mof_O 	O 	0.55253	0.18299	0.24328	-0.412
Mof_O 	O 	0.55253	0.68299	0.74328	-0.403
Mof_O 	O 	0.05253	0.18299	0.74328	-0.425
Mof_O 	O 	0.05253	0.68299	0.24328	-0.424
Mof_O 	O 	0.75672	0.44747	0.18299	-0.409
Mof_O 	O 	0.75672	0.94747	0.68299	-0.372
Mof_O 	O 	0.25672	0.44747	0.68299	-0.408
Mof_O 	O 	0.25672	0.94747	0.18299	-0.381
Mof_O 	O 	0.24328	0.44747	0.81701	-0.402
Mof_O 	O 	0.24328	0.94747	0.31701	-0.375
Mof_O 	O 	0.74328	0.44747	0.31701	-0.404
Mof_O 	O 	0.74328	0.94747	0.81701	-0.366
Mof_O 	O 	0.75672	0.55253	0.81701	-0.399
Mof_O 	O 	0.75672	0.05253	0.31701	-0.421
Mof_O 	O 	0.25672	0.55253	0.31701	-0.408
Mof_O 	O 	0.25672	0.05253	0.81701	-0.419
Mof_O 	O 	0.24328	0.55253	0.18299	-0.412
Mof_O 	O 	0.24328	0.05253	0.68299	-0.424
Mof_O 	O 	0.74328	0.55253	0.68299	-0.403
Mof_O 	O 	0.74328	0.05253	0.18299	-0.425
Mof_O 	O 	0.75672	0.18299	0.55253	-0.409
Mof_O 	O 	0.75672	0.68299	0.05253	-0.421
Mof_O 	O 	0.25672	0.18299	0.05253	-0.429
Mof_O 	O 	0.25672	0.68299	0.55253	-0.408
Mof_O 	O 	0.24328	0.81701	0.55253	-0.402
Mof_O 	O 	0.24328	0.31701	0.05253	-0.424
Mof_O 	O 	0.74328	0.81701	0.05253	-0.415
Mof_O 	O 	0.74328	0.31701	0.55253	-0.404
Mof_O 	O 	0.75672	0.81701	0.44747	-0.399
Mof_O 	O 	0.75672	0.31701	0.94747	-0.372
Mof_O 	O 	0.25672	0.81701	0.94747	-0.37
Mof_O 	O 	0.25672	0.31701	0.44747	-0.408
Mof_O 	O 	0.24328	0.18299	0.44747	-0.412
Mof_O 	O 	0.24328	0.68299	0.94747	-0.375
Mof_O 	O 	0.74328	0.18299	0.94747	-0.376
Mof_O 	O 	0.74328	0.68299	0.44747	-0.403
Mof_O 	O 	0.18299	0.44747	0.24328	-0.412
Mof_O 	O 	0.18299	0.94747	0.74328	-0.376
Mof_O 	O 	0.68299	0.44747	0.74328	-0.403
Mof_O 	O 	0.68299	0.94747	0.24328	-0.375
Mof_O 	O 	0.81701	0.44747	0.75672	-0.399
Mof_O 	O 	0.81701	0.94747	0.25672	-0.37
Mof_O 	O 	0.31701	0.44747	0.25672	-0.408
Mof_O 	O 	0.31701	0.94747	0.75672	-0.372
Mof_O 	O 	0.81701	0.55253	0.24328	-0.402
Mof_O 	O 	0.81701	0.05253	0.74328	-0.415
Mof_O 	O 	0.31701	0.55253	0.74328	-0.404
Mof_O 	O 	0.31701	0.05253	0.24328	-0.424
Mof_O 	O 	0.18299	0.55253	0.75672	-0.409
Mof_O 	O 	0.18299	0.05253	0.25672	-0.429
Mof_O 	O 	0.68299	0.55253	0.25672	-0.408
Mof_O 	O 	0.68299	0.05253	0.75672	-0.421
Mof_O 	O 	0.44747	0.75672	0.81701	-0.399
Mof_O 	O 	0.44747	0.25672	0.31701	-0.408
Mof_O 	O 	0.94747	0.75672	0.31701	-0.372
Mof_O 	O 	0.94747	0.25672	0.81701	-0.37
Mof_O 	O 	0.44747	0.24328	0.18299	-0.412
Mof_O 	O 	0.44747	0.74328	0.68299	-0.403
Mof_O 	O 	0.94747	0.24328	0.68299	-0.375
Mof_O 	O 	0.94747	0.74328	0.18299	-0.376
Mof_O 	O 	0.55253	0.75672	0.18299	-0.409
Mof_O 	O 	0.55253	0.25672	0.68299	-0.408
Mof_O 	O 	0.05253	0.75672	0.68299	-0.421
Mof_O 	O 	0.05253	0.25672	0.18299	-0.429
Mof_O 	O 	0.55253	0.24328	0.81701	-0.402
Mof_O 	O 	0.55253	0.74328	0.31701	-0.404
Mof_O 	O 	0.05253	0.24328	0.31701	-0.424
Mof_O 	O 	0.05253	0.74328	0.81701	-0.415
Mof_Cu	Cu	0.78534	0.28534	0.5	0.907
Mof_Cu	Cu	0.78534	0.78534	-0	0.88
Mof_Cu	Cu	0.21466	0.71466	0.5	0.904
Mof_Cu	Cu	0.21466	0.21466	-0	0.873
Mof_Cu	Cu	0.21466	0.28534	0.5	0.904
Mof_Cu	Cu	0.21466	0.78534	-0	0.876
Mof_Cu	Cu	0.78534	0.71466	0.5	0.907
Mof_Cu	Cu	0.78534	0.21466	-0	0.876
Mof_Cu	Cu	0.5	0.78534	0.28534	0.907
Mof_Cu	Cu	2.94455e-33	0.78534	0.78534	0.88
Mof_Cu	Cu	0.5	0.21466	0.71466	0.904
Mof_Cu	Cu	8.04846e-34	0.21466	0.21466	0.873
Mof_Cu	Cu	0.5	0.21466	0.28534	0.904
Mof_Cu	Cu	-2.5966e-33	0.21466	0.78534	0.876
Mof_Cu	Cu	0.5	0.78534	0.71466	0.907
Mof_Cu	Cu	8.04846e-34	0.78534	0.21466	0.876
Mof_Cu	Cu	0.28534	0.5	0.78534	0.907
Mof_Cu	Cu	0.28534	0	0.28534	0.876
Mof_Cu	Cu	0.71466	0.5	0.21466	0.904
Mof_Cu	Cu	0.71466	-5.54115e-33	0.71466	0.876
Mof_Cu	Cu	0.28534	0.5	0.21466	0.904
Mof_Cu	Cu	0.28534	-5.54115e-33	0.71466	0.876
Mof_Cu	Cu	0.71466	0.5	0.78534	0.907
Mof_Cu	Cu	0.71466	0	0.28534	0.876
Mof_Cu	Cu	0.28534	0.78534	0.5	0.907
Mof_Cu	Cu	0.28534	0.28534	-0	0.876
Mof_Cu	Cu	0.71466	0.21466	0.5	0.904
Mof_Cu	Cu	0.71466	0.71466	-0	0.876
Mof_Cu	Cu	0.28534	0.21466	0.5	0.904
Mof_Cu	Cu	0.28534	0.71466	-0	0.876
Mof_Cu	Cu	0.71466	0.78534	0.5	0.907
Mof_Cu	Cu	0.71466	0.28534	-0	0.876
Mof_Cu	Cu	0.78534	0.5	0.71466	0.907
Mof_Cu	Cu	0.78534	0	0.21466	0.876
Mof_Cu	Cu	0.21466	0.5	0.28534	0.904
Mof_Cu	Cu	0.21466	0	0.78534	0.876
Mof_Cu	Cu	0.21466	0.5	0.71466	0.904
Mof_Cu	Cu	0.21466	0	0.21466	0.873
Mof_Cu	Cu	0.78534	0.5	0.28534	0.907
Mof_Cu	Cu	0.78534	0	0.78534	0.88
Mof_Cu	Cu	0.5	0.28534	0.21466	0.904
Mof_Cu	Cu	-2.86161e-33	0.28534	0.71466	0.876
Mof_Cu	Cu	0.5	0.71466	0.78534	0.907
Mof_Cu	Cu	-1.70072e-33	0.71466	0.28534	0.876
Mof_Cu	Cu	0.5	0.28534	0.78534	0.907
Mof_Cu	Cu	-1.70072e-33	0.28534	0.28534	0.876
Mof_Cu	Cu	0.5	0.71466	0.21466	0.904
Mof_Cu	Cu	-8.40276e-33	0.71466	0.71466	0.876
Mof_C 	C 	0.79683	0.20317	0.56912	0.369
Mof_C 	C 	0.82221	0.17779	0.61311	-0.12
Mof_C 	C 	0.79683	0.70317	0.06912	0.369
Mof_C 	C 	0.82221	0.67779	0.11311	-0.123
Mof_C 	C 	0.29683	0.20317	0.06912	0.373
Mof_C 	C 	0.32221	0.17779	0.11311	-0.139
Mof_C 	C 	0.29683	0.70317	0.56912	0.369
Mof_C 	C 	0.32221	0.67779	0.61311	-0.121
Mof_C 	C 	0.20317	0.79683	0.56912	0.369
Mof_C 	C 	0.17779	0.82221	0.61311	-0.12
Mof_C 	C 	0.20317	0.29683	0.06912	0.373
Mof_C 	C 	0.17779	0.32221	0.11311	-0.139
Mof_C 	C 	0.70317	0.79683	0.06912	0.369
Mof_C 	C 	0.67779	0.82221	0.11311	-0.123
Mof_C 	C 	0.70317	0.29683	0.56912	0.369
Mof_C 	C 	0.67779	0.32221	0.61311	-0.121
Mof_C 	C 	0.20317	0.20317	0.43088	0.372
Mof_C 	C 	0.17779	0.17779	0.38689	-0.134
Mof_C 	C 	0.20317	0.70317	0.93088	0.363
Mof_C 	C 	0.17779	0.67779	0.88689	-0.113
Mof_C 	C 	0.70317	0.20317	0.93088	0.363
Mof_C 	C 	0.67779	0.17779	0.88689	-0.113
Mof_C 	C 	0.70317	0.70317	0.43088	0.368
Mof_C 	C 	0.67779	0.67779	0.38689	-0.12
Mof_C 	C 	0.79683	0.79683	0.43088	0.367
Mof_C 	C 	0.82221	0.82221	0.38689	-0.108
Mof_C 	C 	0.79683	0.29683	0.93088	0.362
Mof_C 	C 	0.82221	0.32221	0.88689	-0.103
Mof_C 	C 	0.29683	0.79683	0.93088	0.362
Mof_C 	C 	0.32221	0.82221	0.88689	-0.103
Mof_C 	C 	0.29683	0.29683	0.43088	0.371
Mof_C 	C 	0.32221	0.32221	0.38689	-0.125
Mof_C 	C 	0.56912	0.79683	0.20317	0.369
Mof_C 	C 	0.61311	0.82221	0.17779	-0.12
Mof_C 	C 	0.56912	0.29683	0.70317	0.369
Mof_C 	C 	0.61311	0.32221	0.67779	-0.121
Mof_C 	C 	0.06912	0.79683	0.70317	0.369
Mof_C 	C 	0.11311	0.82221	0.67779	-0.123
Mof_C 	C 	0.06912	0.29683	0.20317	0.373
Mof_C 	C 	0.11311	0.32221	0.17779	-0.139
Mof_C 	C 	0.56912	0.20317	0.79683	0.369
Mof_C 	C 	0.61311	0.17779	0.82221	-0.12
Mof_C 	C 	0.56912	0.70317	0.29683	0.369
Mof_C 	C 	0.61311	0.67779	0.32221	-0.121
Mof_C 	C 	0.06912	0.20317	0.29683	0.373
Mof_C 	C 	0.11311	0.17779	0.32221	-0.139
Mof_C 	C 	0.06912	0.70317	0.79683	0.369
Mof_C 	C 	0.11311	0.67779	0.82221	-0.123
Mof_C 	C 	0.43088	0.20317	0.20317	0.372
Mof_C 	C 	0.38689	0.17779	0.17779	-0.134
Mof_C 	C 	0.43088	0.70317	0.70317	0.368
Mof_C 	C 	0.38689	0.67779	0.67779	-0.12
Mof_C 	C 	0.93088	0.20317	0.70317	0.363
Mof_C 	C 	0.88689	0.17779	0.67779	-0.113
Mof_C 	C 	0.93088	0.70317	0.20317	0.363
Mof_C 	C 	0.88689	0.67779	0.17779	-0.113
Mof_C 	C 	0.43088	0.79683	0.79683	0.367
Mof_C 	C 	0.38689	0.82221	0.82221	-0.108
Mof_C 	C 	0.43088	0.29683	0.29683	0.371
Mof_C 	C 	0.38689	0.32221	0.32221	-0.125
Mof_C 	C 	0.93088	0.79683	0.29683	0.362
Mof_C 	C 	0.88689	0.82221	0.32221	-0.103
Mof_C 	C 	0.93088	0.29683	0.79683	0.362
Mof_C 	C 	0.88689	0.32221	0.82221	-0.103
Mof_C 	C 	0.20317	0.56912	0.79683	0.369
Mof_C 	C 	0.17779	0.61311	0.82221	-0.12
Mof_C 	C 	0.20317	0.06912	0.29683	0.373
Mof_C 	C 	0.17779	0.11311	0.32221	-0.139
Mof_C 	C 	0.70317	0.56912	0.29683	0.369
Mof_C 	C 	0.67779	0.61311	0.32221	-0.121
Mof_C 	C 	0.70317	0.06912	0.79683	0.369
Mof_C 	C 	0.67779	0.11311	0.82221	-0.123
Mof_C 	C 	0.79683	0.56912	0.20317	0.369
Mof_C 	C 	0.82221	0.61311	0.17779	-0.12
Mof_C 	C 	0.79683	0.06912	0.70317	0.369
Mof_C 	C 	0.82221	0.11311	0.67779	-0.123
Mof_C 	C 	0.29683	0.56912	0.70317	0.369
Mof_C 	C 	0.32221	0.61311	0.67779	-0.121
Mof_C 	C 	0.29683	0.06912	0.20317	0.373
Mof_C 	C 	0.32221	0.11311	0.17779	-0.139
Mof_C 	C 	0.20317	0.43088	0.20317	0.372
Mof_C 	C 	0.17779	0.38689	0.17779	-0.134
Mof_C 	C 	0.20317	0.93088	0.70317	0.363
Mof_C 	C 	0.17779	0.88689	0.67779	-0.113
Mof_C 	C 	0.70317	0.43088	0.70317	0.368
Mof_C 	C 	0.67779	0.38689	0.67779	-0.12
Mof_C 	C 	0.70317	0.93088	0.20317	0.363
Mof_C 	C 	0.67779	0.88689	0.17779	-0.113
Mof_C 	C 	0.79683	0.43088	0.79683	0.367
Mof_C 	C 	0.82221	0.38689	0.82221	-0.108
Mof_C 	C 	0.79683	0.93088	0.29683	0.362
Mof_C 	C 	0.82221	0.88689	0.32221	-0.103
Mof_C 	C 	0.29683	0.43088	0.29683	0.371
Mof_C 	C 	0.32221	0.38689	0.32221	-0.125
Mof_C 	C 	0.29683	0.93088	0.79683	0.362
Mof_C 	C 	0.32221	0.88689	0.82221	-0.103
Mof_C 	C 	0.20317	0.79683	0.43088	0.369
Mof_C 	C 	0.17779	0.82221	0.38689	-0.121
Mof_C 	C 	0.20317	0.29683	0.93088	0.365
Mof_C 	C 	0.17779	0.32221	0.88689	-0.116
Mof_C 	C 	0.70317	0.79683	0.93088	0.361
Mof_C 	C 	0.67779	0.82221	0.88689	-0.1
Mof_C 	C 	0.70317	0.29683	0.43088	0.37
Mof_C 	C 	0.67779	0.32221	0.38689	-0.122
Mof_C 	C 	0.79683	0.20317	0.43088	0.369
Mof_C 	C 	0.82221	0.17779	0.38689	-0.121
Mof_C 	C 	0.79683	0.70317	0.93088	0.361
Mof_C 	C 	0.82221	0.67779	0.88689	-0.1
Mof_C 	C 	0.29683	0.20317	0.93088	0.365
Mof_C 	C 	0.32221	0.17779	0.88689	-0.116
Mof_C 	C 	0.29683	0.70317	0.43088	0.37
Mof_C 	C 	0.32221	0.67779	0.38689	-0.122
Mof_C 	C 	0.20317	0.20317	0.56912	0.372
Mof_C 	C 	0.17779	0.17779	0.61311	-0.133
Mof_C 	C 	0.20317	0.70317	0.06912	0.371
Mof_C 	C 	0.17779	0.67779	0.11311	-0.136
Mof_C 	C 	0.70317	0.20317	0.06912	0.371
Mof_C 	C 	0.67779	0.17779	0.11311	-0.136
Mof_C 	C 	0.70317	0.70317	0.56912	0.368
Mof_C 	C 	0.67779	0.67779	0.61311	-0.119
Mof_C 	C 	0.79683	0.79683	0.56912	0.367
Mof_C 	C 	0.82221	0.82221	0.61311	-0.107
Mof_C 	C 	0.79683	0.29683	0.06912	0.37
Mof_C 	C 	0.82221	0.32221	0.11311	-0.126
Mof_C 	C 	0.29683	0.79683	0.06912	0.37
Mof_C 	C 	0.32221	0.82221	0.11311	-0.126
Mof_C 	C 	0.29683	0.29683	0.56912	0.371
Mof_C 	C 	0.32221	0.32221	0.61311	-0.124
Mof_C 	C 	0.79683	0.56912	0.79683	0.367
Mof_C 	C 	0.82221	0.61311	0.82221	-0.107
Mof_C 	C 	0.79683	0.06912	0.29683	0.37
Mof_C 	C 	0.82221	0.11311	0.32221	-0.126
Mof_C 	C 	0.29683	0.56912	0.29683	0.371
Mof_C 	C 	0.32221	0.61311	0.32221	-0.124
Mof_C 	C 	0.29683	0.06912	0.79683	0.37
Mof_C 	C 	0.32221	0.11311	0.82221	-0.126
Mof_C 	C 	0.20317	0.56912	0.20317	0.372
Mof_C 	C 	0.17779	0.61311	0.17779	-0.133
Mof_C 	C 	0.20317	0.06912	0.70317	0.371
Mof_C 	C 	0.17779	0.11311	0.67779	-0.136
Mof_C 	C 	0.70317	0.56912	0.70317	0.368
Mof_C 	C 	0.67779	0.61311	0.67779	-0.119
Mof_C 	C 	0.70317	0.06912	0.20317	0.371
Mof_C 	C 	0.67779	0.11311	0.17779	-0.136
Mof_C 	C 	0.20317	0.43088	0.79683	0.369
Mof_C 	C 	0.17779	0.38689	0.82221	-0.121
Mof_C 	C 	0.20317	0.93088	0.29683	0.365
Mof_C 	C 	0.17779	0.88689	0.32221	-0.116
Mof_C 	C 	0.70317	0.43088	0.29683	0.37
Mof_C 	C 	0.67779	0.38689	0.32221	-0.122
Mof_C 	C 	0.70317	0.93088	0.79683	0.361
Mof_C 	C 	0.67779	0.88689	0.82221	-0.1
Mof_C 	C 	0.79683	0.43088	0.20317	0.369
Mof_C 	C 	0.82221	0.38689	0.17779	-0.121
Mof_C 	C 	0.79683	0.93088	0.70317	0.361
Mof_C 	C 	0.82221	0.88689	0.67779	-0.1
Mof_C 	C 	0.29683	0.43088	0.70317	0.37
Mof_C 	C 	0.32221	0.38689	0.67779	-0.122
Mof_C 	C 	0.29683	0.93088	0.20317	0.365
Mof_C 	C 	0.32221	0.88689	0.17779	-0.116
Mof_C 	C 	0.56912	0.20317	0.20317	0.372
Mof_C 	C 	0.61311	0.17779	0.17779	-0.133
Mof_C 	C 	0.56912	0.70317	0.70317	0.368
Mof_C 	C 	0.61311	0.67779	0.67779	-0.119
Mof_C 	C 	0.06912	0.20317	0.70317	0.371
Mof_C 	C 	0.11311	0.17779	0.67779	-0.136
Mof_C 	C 	0.06912	0.70317	0.20317	0.371
Mof_C 	C 	0.11311	0.67779	0.17779	-0.136
Mof_C 	C 	0.56912	0.79683	0.79683	0.367
Mof_C 	C 	0.61311	0.82221	0.82221	-0.107
Mof_C 	C 	0.56912	0.29683	0.29683	0.371
Mof_C 	C 	0.61311	0.32221	0.32221	-0.124
Mof_C 	C 	0.06912	0.79683	0.29683	0.37
Mof_C 	C 	0.11311	0.82221	0.32221	-0.126
Mof_C 	C 	0.06912	0.29683	0.79683	0.37
Mof_C 	C 	0.11311	0.32221	0.82221	-0.126
Mof_C 	C 	0.43088	0.20317	0.79683	0.369
Mof_C 	C 	0.38689	0.17779	0.82221	-0.121
Mof_C 	C 	0.43088	0.70317	0.29683	0.37
Mof_C 	C 	0.38689	0.67779	0.32221	-0.122
Mof_C 	C 	0.93088	0.20317	0.29683	0.365
Mof_C 	C 	0.88689	0.17779	0.32221	-0.116
Mof_C 	C 	0.93088	0.70317	0.79683	0.361
Mof_C 	C 	0.88689	0.67779	0.82221	-0.1
Mof_C 	C 	0.43088	0.79683	0.20317	0.369
Mof_C 	C 	0.38689	0.82221	0.17779	-0.121
Mof_C 	C 	0.43088	0.29683	0.70317	0.37
Mof_C 	C 	0.38689	0.32221	0.67779	-0.122
Mof_C 	C 	0.93088	0.79683	0.70317	0.361
Mof_C 	C 	0.88689	0.82221	0.67779	-0.1
Mof_C 	C 	0.93088	0.29683	0.20317	0.365
Mof_C 	C 	0.88689	0.32221	0.17779	-0.116
Mof_C 	C 	0.80089	0.13465	0.63465	0.067
Mof_H 	H 	0.7702	0.1207	0.6207	0.038
Mof_C 	C 	0.30089	0.13465	0.13465	0.075
Mof_H 	H 	0.2702	0.1207	0.1207	0.027
Mof_C 	C 	0.30089	0.63465	0.63465	0.068
Mof_H 	H 	0.2702	0.6207	0.6207	0.041
Mof_C 	C 	0.19911	0.86535	0.63465	0.065
Mof_H 	H 	0.2298	0.8793	0.6207	0.049
Mof_C 	C 	0.69911	0.86535	0.13465	0.065
Mof_H 	H 	0.7298	0.8793	0.1207	0.046
Mof_C 	C 	0.19911	0.13465	0.36535	0.074
Mof_H 	H 	0.2298	0.1207	0.3793	0.034
Mof_C 	C 	0.19911	0.63465	0.86535	0.065
Mof_H 	H 	0.2298	0.6207	0.8793	0.049
Mof_C 	C 	0.69911	0.13465	0.86535	0.065
Mof_H 	H 	0.7298	0.1207	0.8793	0.046
Mof_C 	C 	0.80089	0.86535	0.36535	0.061
Mof_H 	H 	0.7702	0.8793	0.3793	0.052
Mof_C 	C 	0.30089	0.86535	0.86535	0.06
Mof_H 	H 	0.2702	0.8793	0.8793	0.056
Mof_C 	C 	0.63465	0.80089	0.13465	0.067
Mof_H 	H 	0.6207	0.7702	0.1207	0.038
Mof_C 	C 	0.63465	0.30089	0.63465	0.068
Mof_H 	H 	0.6207	0.2702	0.6207	0.041
Mof_C 	C 	0.63465	0.19911	0.86535	0.065
Mof_H 	H 	0.6207	0.2298	0.8793	0.049
Mof_C 	C 	0.63465	0.69911	0.36535	0.067
Mof_H 	H 	0.6207	0.7298	0.3793	0.044
Mof_C 	C 	0.36535	0.19911	0.13465	0.074
Mof_H 	H 	0.3793	0.2298	0.1207	0.034
Mof_C 	C 	0.36535	0.69911	0.63465	0.067
Mof_H 	H 	0.3793	0.7298	0.6207	0.044
Mof_C 	C 	0.86535	0.19911	0.63465	0.065
Mof_H 	H 	0.8793	0.2298	0.6207	0.049
Mof_C 	C 	0.36535	0.80089	0.86535	0.061
Mof_H 	H 	0.3793	0.7702	0.8793	0.052
Mof_C 	C 	0.36535	0.30089	0.36535	0.071
Mof_H 	H 	0.3793	0.2702	0.3793	0.04
Mof_C 	C 	0.86535	0.30089	0.86535	0.06
Mof_H 	H 	0.8793	0.2702	0.8793	0.056
Mof_C 	C 	0.13465	0.63465	0.80089	0.067
Mof_H 	H 	0.1207	0.6207	0.7702	0.038
Mof_C 	C 	0.13465	0.13465	0.30089	0.075
Mof_H 	H 	0.1207	0.1207	0.2702	0.027
Mof_C 	C 	0.63465	0.63465	0.30089	0.068
Mof_H 	H 	0.6207	0.6207	0.2702	0.041
Mof_C 	C 	0.86535	0.63465	0.19911	0.065
Mof_H 	H 	0.8793	0.6207	0.2298	0.049
Mof_C 	C 	0.86535	0.13465	0.69911	0.065
Mof_H 	H 	0.8793	0.1207	0.7298	0.046
Mof_C 	C 	0.13465	0.36535	0.19911	0.074
Mof_H 	H 	0.1207	0.3793	0.2298	0.034
Mof_C 	C 	0.13465	0.86535	0.69911	0.065
Mof_H 	H 	0.1207	0.8793	0.7298	0.046
Mof_C 	C 	0.63465	0.86535	0.19911	0.065
Mof_H 	H 	0.6207	0.8793	0.2298	0.049
Mof_C 	C 	0.86535	0.36535	0.80089	0.061
Mof_H 	H 	0.8793	0.3793	0.7702	0.052
Mof_C 	C 	0.86535	0.86535	0.30089	0.06
Mof_H 	H 	0.8793	0.8793	0.2702	0.056
Mof_C 	C 	0.13465	0.80089	0.36535	0.068
Mof_H 	H 	0.1207	0.7702	0.3793	0.038
Mof_C 	C 	0.13465	0.30089	0.86535	0.067
Mof_H 	H 	0.1207	0.2702	0.8793	0.042
Mof_C 	C 	0.63465	0.80089	0.86535	0.06
Mof_H 	H 	0.6207	0.7702	0.8793	0.052
Mof_C 	C 	0.86535	0.19911	0.36535	0.067
Mof_H 	H 	0.8793	0.2298	0.3793	0.048
Mof_C 	C 	0.86535	0.69911	0.86535	0.058
Mof_H 	H 	0.8793	0.7298	0.8793	0.06
Mof_C 	C 	0.13465	0.19911	0.63465	0.072
Mof_H 	H 	0.1207	0.2298	0.6207	0.034
Mof_C 	C 	0.13465	0.69911	0.13465	0.073
Mof_H 	H 	0.1207	0.7298	0.1207	0.031
Mof_C 	C 	0.63465	0.69911	0.63465	0.066
Mof_H 	H 	0.6207	0.7298	0.6207	0.045
Mof_C 	C 	0.86535	0.80089	0.63465	0.06
Mof_H 	H 	0.8793	0.7702	0.6207	0.052
Mof_C 	C 	0.86535	0.30089	0.13465	0.067
Mof_H 	H 	0.8793	0.2702	0.1207	0.042
Mof_C 	C 	0.80089	0.63465	0.86535	0.06
Mof_H 	H 	0.7702	0.6207	0.8793	0.052
Mof_C 	C 	0.30089	0.63465	0.36535	0.069
Mof_H 	H 	0.2702	0.6207	0.3793	0.04
Mof_C 	C 	0.19911	0.63465	0.13465	0.072
Mof_H 	H 	0.2298	0.6207	0.1207	0.034
Mof_C 	C 	0.69911	0.63465	0.63465	0.066
Mof_H 	H 	0.7298	0.6207	0.6207	0.045
Mof_C 	C 	0.19911	0.36535	0.86535	0.067
Mof_H 	H 	0.2298	0.3793	0.8793	0.048
Mof_C 	C 	0.69911	0.36535	0.36535	0.069
Mof_H 	H 	0.7298	0.3793	0.3793	0.044
Mof_C 	C 	0.69911	0.86535	0.86535	0.058
Mof_H 	H 	0.7298	0.8793	0.8793	0.06
Mof_C 	C 	0.80089	0.36535	0.13465	0.068
Mof_H 	H 	0.7702	0.3793	0.1207	0.038
Mof_C 	C 	0.80089	0.86535	0.63465	0.06
Mof_H 	H 	0.7702	0.8793	0.6207	0.052
Mof_C 	C 	0.30089	0.36535	0.63465	0.069
Mof_H 	H 	0.2702	0.3793	0.6207	0.04
Mof_C 	C 	0.63465	0.13465	0.19911	0.072
Mof_H 	H 	0.6207	0.1207	0.2298	0.034
Mof_C 	C 	0.63465	0.63465	0.69911	0.066
Mof_H 	H 	0.6207	0.6207	0.7298	0.045
Mof_C 	C 	0.63465	0.86535	0.80089	0.06
Mof_H 	H 	0.6207	0.8793	0.7702	0.052
Mof_C 	C 	0.63465	0.36535	0.30089	0.069
Mof_H 	H 	0.6207	0.3793	0.2702	0.04
Mof_C 	C 	0.36535	0.13465	0.80089	0.068
Mof_H 	H 	0.3793	0.1207	0.7702	0.038
Mof_C 	C 	0.36535	0.63465	0.30089	0.069
Mof_H 	H 	0.3793	0.6207	0.2702	0.04
Mof_C 	C 	0.86535	0.63465	0.80089	0.06
Mof_H 	H 	0.8793	0.6207	0.7702	0.052
Mof_C 	C 	0.36535	0.86535	0.19911	0.067
Mof_H 	H 	0.3793	0.8793	0.2298	0.048
Mof_C 	C 	0.36535	0.36535	0.69911	0.069
Mof_H 	H 	0.3793	0.3793	0.7298	0.044
Mof_C 	C 	0.86535	0.86535	0.69911	0.058
Mof_H 	H 	0.8793	0.8793	0.7298	0.06
Mof_C 	C 	0.19911	0.86535	0.36535	0.067
Mof_H 	H 	0.2298	0.8793	0.3793	0.048
Mof_C 	C 	0.80089	0.13465	0.36535	0.068
Mof_H 	H 	0.7702	0.1207	0.3793	0.038
Mof_C 	C 	0.30089	0.13465	0.86535	0.067
Mof_H 	H 	0.2702	0.1207	0.8793	0.042
Mof_C 	C 	0.30089	0.86535	0.13465	0.067
Mof_H 	H 	0.2702	0.8793	0.1207	0.042
Mof_C 	C 	0.19911	0.13465	0.63465	0.072
Mof_H 	H 	0.2298	0.1207	0.6207	0.034
Mof_C 	C 	0.69911	0.13465	0.13465	0.073
Mof_H 	H 	0.7298	0.1207	0.1207	0.031
Mof_C 	C 	0.36535	0.19911	0.86535	0.067
Mof_H 	H 	0.3793	0.2298	0.8793	0.048
Mof_C 	C 	0.36535	0.69911	0.36535	0.069
Mof_H 	H 	0.3793	0.7298	0.3793	0.044
Mof_C 	C 	0.36535	0.80089	0.13465	0.068
Mof_H 	H 	0.3793	0.7702	0.1207	0.038
Mof_C 	C 	0.36535	0.30089	0.63465	0.069
Mof_H 	H 	0.3793	0.2702	0.6207	0.04
Mof_C 	C 	0.63465	0.30089	0.36535	0.069
Mof_H 	H 	0.6207	0.2702	0.3793	0.04
Mof_C 	C 	0.63465	0.19911	0.13465	0.072
Mof_H 	H 	0.6207	0.2298	0.1207	0.034
Mof_C 	C 	0.86535	0.36535	0.19911	0.067
Mof_H 	H 	0.8793	0.3793	0.2298	0.048
Mof_C 	C 	0.13465	0.36535	0.80089	0.068
Mof_H 	H 	0.1207	0.3793	0.7702	0.038
Mof_C 	C 	0.13465	0.86535	0.30089	0.067
Mof_H 	H 	0.1207	0.8793	0.2702	0.042
Mof_C 	C 	0.86535	0.13465	0.30089	0.067
Mof_H 	H 	0.8793	0.1207	0.2702	0.042
Mof_C 	C 	0.13465	0.63465	0.19911	0.072
Mof_H 	H 	0.1207	0.6207	0.2298	0.034
Mof_C 	C 	0.13465	0.13465	0.69911	0.073
Mof_H 	H 	0.1207	0.1207	0.7298	0.031
Mof_C 	C 	0.86535	0.69911	0.13465	0.065
Mof_H 	H 	0.8793	0.7298	0.1207	0.046
Mof_C 	C 	0.13465	0.80089	0.63465	0.067
Mof_H 	H 	0.1207	0.7702	0.6207	0.038
Mof_C 	C 	0.13465	0.30089	0.13465	0.075
Mof_H 	H 	0.1207	0.2702	0.1207	0.027
Mof_C 	C 	0.86535	0.80089	0.36535	0.061
Mof_H 	H 	0.8793	0.7702	0.3793	0.052
Mof_C 	C 	0.13465	0.19911	0.36535	0.074
Mof_H 	H 	0.1207	0.2298	0.3793	0.034
Mof_C 	C 	0.13465	0.69911	0.86535	0.065
Mof_H 	H 	0.1207	0.7298	0.8793	0.046
Mof_C 	C 	0.19911	0.36535	0.13465	0.074
Mof_H 	H 	0.2298	0.3793	0.1207	0.034
Mof_C 	C 	0.69911	0.36535	0.63465	0.067
Mof_H 	H 	0.7298	0.3793	0.6207	0.044
Mof_C 	C 	0.80089	0.36535	0.86535	0.061
Mof_H 	H 	0.7702	0.3793	0.8793	0.052
Mof_C 	C 	0.30089	0.36535	0.36535	0.071
Mof_H 	H 	0.2702	0.3793	0.3793	0.04
Mof_C 	C 	0.80089	0.63465	0.13465	0.067
Mof_H 	H 	0.7702	0.6207	0.1207	0.038
Mof_C 	C 	0.69911	0.63465	0.36535	0.067
Mof_H 	H 	0.7298	0.6207	0.3793	0.044
Mof_C 	C 	0.36535	0.86535	0.80089	0.061
Mof_H 	H 	0.3793	0.8793	0.7702	0.052
Mof_C 	C 	0.36535	0.36535	0.30089	0.071
Mof_H 	H 	0.3793	0.3793	0.2702	0.04
Mof_C 	C 	0.36535	0.13465	0.19911	0.074
Mof_H 	H 	0.3793	0.1207	0.2298	0.034
Mof_C 	C 	0.36535	0.63465	0.69911	0.067
Mof_H 	H 	0.3793	0.6207	0.7298	0.044
Mof_C 	C 	0.63465	0.36535	0.69911	0.067
Mof_H 	H 	0.6207	0.3793	0.7298	0.044
Mof_C 	C 	0.63465	0.13465	0.80089	0.067
Mof_H 	H 	0.6207	0.1207	0.7702	0.038
_end
