data_functionalizedCrystal
_audit_creation_method	'EQeq! by Chris Wilmer'
_symmetry_space_group_name_H-M	'P1'
_symmetry_Int_Tables_number	1
_symmetry_cell_setting	triclinic
loop_
_symmetry_equiv_pos_as_xyz
  x,y,z
_cell_length_a	17.3504
_cell_length_b	17.3504
_cell_length_c	17.3504
_cell_angle_alpha	64.973
_cell_angle_beta	81.1464
_cell_angle_gamma	115.027
loop_
_atom_site_label
_atom_site_type_symbol
_atom_site_fract_x
_atom_site_fract_y
_atom_site_fract_z
_atom_site_charge
Mof_Cd	Cd	0.33432	0.53852	0.05196	0.441
Mof_Cd	Cd	0.09048	0.03852	0.7958	0.439
Mof_H 	H 	0.2046	0.396	0.2872	0.054
Mof_H 	H 	0.4078	0.392	0.162	0.009
Mof_H 	H 	0.1777	0.2814	0.4669	0.045
Mof_H 	H 	0.2748	0.1894	0.4856	0.124
Mof_H 	H 	0.164	0.3458	0.0402	0.044
Mof_H 	H 	0.4279	0.546	0.8757	0.008
Mof_H 	H 	0.1223	0.2351	0.9542	0.04
Mof_H 	H 	0.2825	0.3015	0.8226	0.119
Mof_H 	H 	0.363	0.2919	0.3229	0.162
Mof_H 	H 	0.3663	0.4355	0.8248	0.165
Mof_H 	H 	0.1832	0.896	0.8086	0.055
Mof_H 	H 	0.054	0.892	0.0158	0.005
Mof_H 	H 	0.2483	0.7814	0.8963	0.044
Mof_H 	H 	0.175	0.6894	0.0854	0.125
Mof_H 	H 	0.886	0.8458	0.8182	0.043
Mof_H 	H 	0.9217	0.046	0.8819	0.005
Mof_H 	H 	0.6893	0.7351	0.8872	0.04
Mof_H 	H 	0.6241	0.8015	0.981	0.12
Mof_H 	H 	0.1148	0.7919	0.0711	0.163
Mof_H 	H 	0.7603	0.9355	0.9308	0.165
Mof_C 	C 	0.2658	0.3226	0.345	0.073
Mof_C 	C 	0.2492	0.3812	0.2768	-0.023
Mof_C 	C 	0.3601	0.3792	0.2081	0.131
Mof_C 	C 	0.2198	0.2685	0.4441	0.005
Mof_C 	C 	0.2316	0.2024	0.5058	-0.196
Mof_C 	C 	0.1778	0.1485	0.6061	0.334
Mof_C 	C 	0.2413	0.3581	0.9292	0.063
Mof_C 	C 	0.2221	0.3808	0.9929	-0.02
Mof_C 	C 	0.3668	0.4909	0.9029	0.139
Mof_C 	C 	0.1859	0.2771	0.9174	0.015
Mof_C 	C 	0.2188	0.2595	0.8593	-0.205
Mof_C 	C 	0.1613	0.176	0.8469	0.361
Mof_C 	C 	0.1676	0.8226	0.9432	0.075
Mof_C 	C 	0.158	0.8812	0.868	-0.023
Mof_C 	C 	0.0873	0.8792	0.9809	0.14
Mof_C 	C 	0.2126	0.7685	0.9513	0.008
Mof_C 	C 	0.2082	0.7024	0.0292	-0.199
Mof_C 	C 	0.2546	0.6485	0.0293	0.334
Mof_C 	C 	0.7873	0.8581	0.8832	0.063
Mof_C 	C 	0.8737	0.8808	0.8413	-0.017
Mof_C 	C 	0.8938	0.9909	0.8759	0.143
Mof_C 	C 	0.6945	0.7771	0.9088	0.017
Mof_C 	C 	0.6188	0.7595	0.9593	-0.206
Mof_C 	C 	0.5229	0.676	0.9853	0.363
Mof_N 	N 	0.3068	0.4151	0.1915	-0.144
Mof_N 	N 	0.3374	0.323	0.298	-0.222
Mof_N 	N 	0.3009	0.4626	0.9769	-0.148
Mof_N 	N 	0.3347	0.4305	0.872	-0.221
Mof_N 	N 	0.1066	0.9151	0.8917	-0.144
Mof_N 	N 	0.121	0.823	0.0144	-0.226
Mof_N 	N 	0.9395	0.9626	0.8383	-0.149
Mof_N 	N 	0.8025	0.9305	0.9042	-0.221
Mof_O 	O 	0.076	0.1257	0.8833	-0.285
Mof_O 	O 	0.2069	0.1602	0.7979	-0.309
Mof_O 	O 	0.1347	0.1774	0.6389	-0.288
Mof_O 	O 	0.1746	0.067	0.6608	-0.273
Mof_O 	O 	0.509	0.6257	0.9503	-0.285
Mof_O 	O 	0.4581	0.6602	0.0467	-0.311
Mof_O 	O 	0.3163	0.6774	0.9573	-0.287
Mof_O 	O 	0.2278	0.567	0.1076	-0.273
Mof_Cd	Cd	0.90952	0.96148	0.2042	0.439
Mof_Cd	Cd	0.66568	0.46148	0.94804	0.441
Mof_H 	H 	0.8168	0.104	0.1914	0.055
Mof_H 	H 	0.946	0.108	0.9842	0.005
Mof_H 	H 	0.7517	0.2186	0.1037	0.044
Mof_H 	H 	0.825	0.3106	0.9146	0.125
Mof_H 	H 	0.114	0.1542	0.1818	0.043
Mof_H 	H 	0.0783	0.954	0.1181	0.005
Mof_H 	H 	0.3107	0.2649	0.1128	0.04
Mof_H 	H 	0.3759	0.1985	0.019	0.12
Mof_H 	H 	0.8852	0.2081	0.9289	0.163
Mof_H 	H 	0.2397	0.0645	0.0692	0.165
Mof_H 	H 	0.7954	0.604	0.7128	0.054
Mof_H 	H 	0.5922	0.608	0.838	0.009
Mof_H 	H 	0.8223	0.7186	0.5331	0.045
Mof_H 	H 	0.7252	0.8106	0.5144	0.124
Mof_H 	H 	0.836	0.6542	0.9598	0.044
Mof_H 	H 	0.5721	0.454	0.1243	0.008
Mof_H 	H 	0.8777	0.7649	0.0458	0.04
Mof_H 	H 	0.7175	0.6985	0.1774	0.119
Mof_H 	H 	0.637	0.7081	0.6771	0.162
Mof_H 	H 	0.6337	0.5645	0.1752	0.165
Mof_C 	C 	0.8324	0.1774	0.0568	0.075
Mof_C 	C 	0.842	0.1188	0.132	-0.023
Mof_C 	C 	0.9127	0.1208	0.0191	0.14
Mof_C 	C 	0.7874	0.2315	0.0487	0.008
Mof_C 	C 	0.7918	0.2976	0.9708	-0.199
Mof_C 	C 	0.7454	0.3515	0.9707	0.334
Mof_C 	C 	0.2127	0.1419	0.1168	0.063
Mof_C 	C 	0.1263	0.1192	0.1587	-0.017
Mof_C 	C 	0.1062	0.0091	0.1241	0.143
Mof_C 	C 	0.3055	0.2229	0.0912	0.017
Mof_C 	C 	0.3812	0.2405	0.0407	-0.206
Mof_C 	C 	0.4771	0.324	0.0147	0.363
Mof_C 	C 	0.7342	0.6774	0.655	0.073
Mof_C 	C 	0.7508	0.6188	0.7232	-0.023
Mof_C 	C 	0.6399	0.6208	0.7919	0.131
Mof_C 	C 	0.7802	0.7315	0.5559	0.005
Mof_C 	C 	0.7684	0.7976	0.4942	-0.196
Mof_C 	C 	0.8222	0.8515	0.3939	0.334
Mof_C 	C 	0.7587	0.6419	0.0708	0.063
Mof_C 	C 	0.7779	0.6192	0.0071	-0.02
Mof_C 	C 	0.6332	0.5091	0.0971	0.139
Mof_C 	C 	0.8141	0.7229	0.0826	0.015
Mof_C 	C 	0.7812	0.7405	0.1407	-0.205
Mof_C 	C 	0.8387	0.824	0.1531	0.361
Mof_N 	N 	0.8934	0.0849	0.1083	-0.144
Mof_N 	N 	0.879	0.177	0.9856	-0.226
Mof_N 	N 	0.0605	0.0374	0.1617	-0.149
Mof_N 	N 	0.1975	0.0695	0.0958	-0.221
Mof_N 	N 	0.6932	0.5849	0.8085	-0.144
Mof_N 	N 	0.6626	0.677	0.702	-0.222
Mof_N 	N 	0.6991	0.5374	0.0231	-0.148
Mof_N 	N 	0.6653	0.5695	0.128	-0.221
Mof_O 	O 	0.491	0.3743	0.0497	-0.285
Mof_O 	O 	0.5419	0.3398	0.9533	-0.311
Mof_O 	O 	0.6837	0.3226	0.0427	-0.287
Mof_O 	O 	0.7722	0.433	0.8924	-0.273
Mof_O 	O 	0.924	0.8743	0.1167	-0.285
Mof_O 	O 	0.7931	0.8398	0.2021	-0.309
Mof_O 	O 	0.8653	0.8226	0.3611	-0.288
Mof_O 	O 	0.8254	0.933	0.3392	-0.273
Mof_Cd	Cd	0.2958	0.88628	0.16568	0.439
Mof_Cd	Cd	0.55196	0.38628	0.40952	0.441
Mof_H 	H 	0.3086	0.9918	0.2954	0.052
Mof_H 	H 	0.5158	0.0698	0.0922	0.009
Mof_H 	H 	0.3963	0.1446	0.3223	0.044
Mof_H 	H 	0.5854	0.2604	0.2252	0.124
Mof_H 	H 	0.3182	0.7042	0.336	0.043
Mof_H 	H 	0.3819	0.8036	0.0721	0.007
Mof_H 	H 	0.3872	0.5765	0.3777	0.04
Mof_H 	H 	0.481	0.6051	0.2175	0.119
Mof_H 	H 	0.5711	0.1859	0.137	0.163
Mof_H 	H 	0.4308	0.6911	0.1337	0.164
Mof_H 	H 	0.7872	0.4918	0.3168	0.054
Mof_H 	H 	0.662	0.5698	0.446	0.009
Mof_H 	H 	0.9669	0.6446	0.2517	0.045
Mof_H 	H 	0.9856	0.7604	0.325	0.123
Mof_H 	H 	0.5402	0.2042	0.614	0.043
Mof_H 	H 	0.3757	0.3036	0.5783	0.008
Mof_H 	H 	0.4542	0.0765	0.8107	0.041
Mof_H 	H 	0.3226	0.1051	0.8759	0.117
Mof_H 	H 	0.8229	0.6859	0.3852	0.162
Mof_H 	H 	0.3248	0.1911	0.7397	0.165
Mof_C 	C 	0.4432	0.1108	0.2342	0.072
Mof_C 	C 	0.368	0.026	0.2508	-0.018
Mof_C 	C 	0.4809	0.0682	0.1399	0.133
Mof_C 	C 	0.4513	0.1639	0.2802	0.006
Mof_C 	C 	0.5292	0.2374	0.2684	-0.197
Mof_C 	C 	0.5293	0.2839	0.3222	0.335
Mof_C 	C 	0.3832	0.6705	0.2587	0.063
Mof_C 	C 	0.3413	0.715	0.2779	-0.018
Mof_C 	C 	0.3759	0.7697	0.1332	0.139
Mof_C 	C 	0.4088	0.6033	0.3141	0.016
Mof_C 	C 	0.4593	0.5781	0.2812	-0.205
Mof_C 	C 	0.4853	0.5082	0.3387	0.361
Mof_C 	C 	0.845	0.6108	0.3324	0.074
Mof_C 	C 	0.7768	0.526	0.342	-0.023
Mof_C 	C 	0.7081	0.5682	0.4127	0.131
Mof_C 	C 	0.9441	0.6639	0.2874	0.003
Mof_C 	C 	0.0058	0.7374	0.2918	-0.194
Mof_C 	C 	0.1061	0.7839	0.2454	0.333
Mof_C 	C 	0.4292	0.1705	0.7127	0.064
Mof_C 	C 	0.4929	0.215	0.6263	-0.018
Mof_C 	C 	0.4029	0.2697	0.6062	0.139
Mof_C 	C 	0.4174	0.1033	0.8055	0.012
Mof_C 	C 	0.3593	0.0781	0.8812	-0.2
Mof_C 	C 	0.3469	0.0082	0.9771	0.35
Mof_N 	N 	0.3917	0.9983	0.1932	-0.147
Mof_N 	N 	0.5144	0.1354	0.1626	-0.223
Mof_N 	N 	0.3383	0.7778	0.1991	-0.149
Mof_N 	N 	0.4042	0.7067	0.1653	-0.221
Mof_N 	N 	0.6915	0.4983	0.3934	-0.144
Mof_N 	N 	0.798	0.6354	0.379	-0.223
Mof_N 	N 	0.4769	0.2778	0.5605	-0.149
Mof_N 	N 	0.372	0.2067	0.6975	-0.221
Mof_O 	O 	0.4503	0.4593	0.424	-0.285
Mof_O 	O 	0.5467	0.5048	0.2931	-0.309
Mof_O 	O 	0.4573	0.2736	0.3653	-0.288
Mof_O 	O 	0.6076	0.3354	0.3254	-0.273
Mof_O 	O 	0.3833	0.9593	0.991	-0.278
Mof_O 	O 	0.2979	0.0048	0.0419	-0.303
Mof_O 	O 	0.1389	0.7736	0.1837	-0.288
Mof_O 	O 	0.1608	0.8354	0.2722	-0.273
Mof_Cd	Cd	0.44804	0.61372	0.59048	0.441
Mof_Cd	Cd	0.7042	0.11372	0.83432	0.439
Mof_H 	H 	0.2128	0.5082	0.6832	0.054
Mof_H 	H 	0.338	0.4302	0.554	0.009
Mof_H 	H 	0.0331	0.3554	0.7483	0.045
Mof_H 	H 	0.0144	0.2396	0.675	0.123
Mof_H 	H 	0.4598	0.7958	0.386	0.043
Mof_H 	H 	0.6243	0.6964	0.4217	0.008
Mof_H 	H 	0.5458	0.9235	0.1893	0.041
Mof_H 	H 	0.6774	0.8949	0.1241	0.117
Mof_H 	H 	0.1771	0.3141	0.6148	0.162
Mof_H 	H 	0.6752	0.8089	0.2603	0.165
Mof_H 	H 	0.6914	0.0082	0.7046	0.052
Mof_H 	H 	0.4842	0.9302	0.9078	0.009
Mof_H 	H 	0.6037	0.8554	0.6777	0.044
Mof_H 	H 	0.4146	0.7396	0.7748	0.124
Mof_H 	H 	0.6818	0.2958	0.664	0.043
Mof_H 	H 	0.6181	0.1964	0.9279	0.007
Mof_H 	H 	0.6128	0.4235	0.6223	0.04
Mof_H 	H 	0.519	0.3949	0.7825	0.119
Mof_H 	H 	0.4289	0.8141	0.863	0.163
Mof_H 	H 	0.5692	0.3089	0.8663	0.164
Mof_C 	C 	0.155	0.3892	0.6676	0.074
Mof_C 	C 	0.2232	0.474	0.658	-0.023
Mof_C 	C 	0.2919	0.4318	0.5873	0.131
Mof_C 	C 	0.0559	0.3361	0.7126	0.003
Mof_C 	C 	0.9942	0.2626	0.7082	-0.194
Mof_C 	C 	0.8939	0.2161	0.7546	0.333
Mof_C 	C 	0.5708	0.8295	0.2873	0.064
Mof_C 	C 	0.5071	0.785	0.3737	-0.018
Mof_C 	C 	0.5971	0.7303	0.3938	0.139
Mof_C 	C 	0.5826	0.8967	0.1945	0.012
Mof_C 	C 	0.6407	0.9219	0.1188	-0.2
Mof_C 	C 	0.6531	0.9918	0.0229	0.35
Mof_C 	C 	0.5568	0.8892	0.7658	0.072
Mof_C 	C 	0.632	0.974	0.7492	-0.018
Mof_C 	C 	0.5191	0.9318	0.8601	0.133
Mof_C 	C 	0.5487	0.8361	0.7198	0.006
Mof_C 	C 	0.4708	0.7626	0.7316	-0.197
Mof_C 	C 	0.4707	0.7161	0.6778	0.335
Mof_C 	C 	0.6168	0.3295	0.7413	0.063
Mof_C 	C 	0.6587	0.285	0.7221	-0.018
Mof_C 	C 	0.6241	0.2303	0.8668	0.139
Mof_C 	C 	0.5912	0.3967	0.6859	0.016
Mof_C 	C 	0.5407	0.4219	0.7188	-0.205
Mof_C 	C 	0.5147	0.4918	0.6613	0.361
Mof_N 	N 	0.3085	0.5017	0.6066	-0.144
Mof_N 	N 	0.202	0.3646	0.621	-0.223
Mof_N 	N 	0.5231	0.7222	0.4395	-0.149
Mof_N 	N 	0.628	0.7933	0.3025	-0.221
Mof_N 	N 	0.6083	0.0017	0.8068	-0.147
Mof_N 	N 	0.4856	0.8646	0.8374	-0.223
Mof_N 	N 	0.6617	0.2222	0.8009	-0.149
Mof_N 	N 	0.5958	0.2933	0.8347	-0.221
Mof_O 	O 	0.6167	0.0407	0.009	-0.278
Mof_O 	O 	0.7021	0.9952	0.9581	-0.303
Mof_O 	O 	0.8611	0.2264	0.8163	-0.288
Mof_O 	O 	0.8392	0.1646	0.7278	-0.273
Mof_O 	O 	0.5497	0.5407	0.576	-0.285
Mof_O 	O 	0.4533	0.4952	0.7069	-0.309
Mof_O 	O 	0.5427	0.7264	0.6347	-0.288
Mof_O 	O 	0.3924	0.6646	0.6746	-0.273
_end
