data_functionalizedCrystal
_audit_creation_method	'EQeq! by Chris Wilmer'
_symmetry_space_group_name_H-M	'P1'
_symmetry_Int_Tables_number	1
_symmetry_cell_setting	triclinic
loop_
_symmetry_equiv_pos_as_xyz
  x,y,z
_cell_length_a	8.1331
_cell_length_b	14.6556
_cell_length_c	16.8257
_cell_angle_alpha	90
_cell_angle_beta	90
_cell_angle_gamma	90
loop_
_atom_site_label
_atom_site_type_symbol
_atom_site_fract_x
_atom_site_fract_y
_atom_site_fract_z
_atom_site_charge
Mof_Zn	Zn	0.43968	0.52747	0.04526	1.23
Mof_S 	S 	0.83109	0.86405	0.7897	0.541
Mof_O 	O 	0.5313	0.61765	0.96936	-0.415
Mof_O 	O 	0.5727	0.4832	0.91653	-0.326
Mof_O 	O 	0.975	0.57226	0.60937	-0.432
Mof_O 	O 	0.773	0.47387	0.63138	-0.295
Mof_O 	O 	0.8638	0.87866	0.87415	-0.425
Mof_O 	O 	0.6861	0.91059	0.76317	-0.26
Mof_O 	O 	0.9748	0.87937	0.7409	-0.268
Mof_N 	N 	0.2177	0.49004	0.00462	-0.252
Mof_N 	N 	0.0278	0.4443	0.922	-0.212
Mof_H 	H 	0.98	0.4222	0.8806	0.167
Mof_C 	C 	0.6668	0.6128	0.84495	-0.082
Mof_C 	C 	0.7109	0.5624	0.77818	0.03
Mof_H 	H 	0.6823	0.5011	0.775	0.067
Mof_C 	C 	0.7963	0.60232	0.7168	-0.08
Mof_C 	C 	0.8369	0.69482	0.72062	0.041
Mof_H 	H 	0.8965	0.722	0.6798	0.049
Mof_C 	C 	0.7876	0.74572	0.78575	-0.095
Mof_C 	C 	0.7044	0.7051	0.84775	0.045
Mof_H 	H 	0.6734	0.7397	0.8916	0.053
Mof_C 	C 	0.5849	0.56767	0.91425	0.318
Mof_C 	C 	0.8482	0.54404	0.64693	0.328
Mof_C 	C 	0.1868	0.45184	0.93357	0.138
Mof_H 	H 	0.2669	0.4333	0.8976	0.004
Mof_C 	C 	0.0687	0.5056	0.03756	0.002
Mof_H 	H 	0.0526	0.5315	0.0874	0.054
Mof_C 	C 	0.9506	0.4797	0.9906	0.042
Mof_H 	H 	0.8382	0.4837	0.0002	0.037
Mof_Zn	Zn	0.06032	0.47253	0.54526	1.228
Mof_S 	S 	0.66891	0.13595	0.2897	0.541
Mof_O 	O 	0.9687	0.38235	0.46936	-0.414
Mof_O 	O 	0.9273	0.5168	0.41653	-0.325
Mof_O 	O 	0.525	0.42774	0.10937	-0.433
Mof_O 	O 	0.727	0.52613	0.13138	-0.295
Mof_O 	O 	0.6362	0.12134	0.37415	-0.425
Mof_O 	O 	0.8139	0.08941	0.26317	-0.26
Mof_O 	O 	0.5252	0.12063	0.2409	-0.269
Mof_N 	N 	0.2823	0.50996	0.50462	-0.252
Mof_N 	N 	0.4722	0.5557	0.422	-0.213
Mof_H 	H 	0.52	0.5778	0.3806	0.167
Mof_C 	C 	0.8332	0.3872	0.34495	-0.082
Mof_C 	C 	0.7891	0.4376	0.27818	0.03
Mof_H 	H 	0.8177	0.4989	0.275	0.067
Mof_C 	C 	0.7037	0.39768	0.2168	-0.08
Mof_C 	C 	0.6631	0.30518	0.22062	0.041
Mof_H 	H 	0.6035	0.278	0.1798	0.049
Mof_C 	C 	0.7124	0.25428	0.28575	-0.095
Mof_C 	C 	0.7956	0.2949	0.34775	0.045
Mof_H 	H 	0.8266	0.2603	0.3916	0.053
Mof_C 	C 	0.9151	0.43233	0.41425	0.318
Mof_C 	C 	0.6518	0.45596	0.14693	0.328
Mof_C 	C 	0.3132	0.54816	0.43357	0.137
Mof_H 	H 	0.2331	0.5667	0.3976	0.004
Mof_C 	C 	0.4313	0.4944	0.53756	0.003
Mof_H 	H 	0.4474	0.4685	0.5874	0.055
Mof_C 	C 	0.5494	0.5203	0.4906	0.042
Mof_H 	H 	0.6618	0.5163	0.5002	0.036
Mof_Zn	Zn	0.56032	0.02747	0.45474	1.228
Mof_S 	S 	0.16891	0.36405	0.7103	0.541
Mof_O 	O 	0.4687	0.11765	0.53064	-0.415
Mof_O 	O 	0.4273	0.9832	0.58347	-0.325
Mof_O 	O 	0.025	0.07226	0.89063	-0.433
Mof_O 	O 	0.227	0.97387	0.86862	-0.295
Mof_O 	O 	0.1362	0.37866	0.62585	-0.426
Mof_O 	O 	0.3139	0.41059	0.73683	-0.26
Mof_O 	O 	0.0252	0.37937	0.7591	-0.269
Mof_N 	N 	0.7823	0.99004	0.49538	-0.251
Mof_N 	N 	0.9722	0.9443	0.578	-0.21
Mof_H 	H 	0.02	0.9222	0.6194	0.165
Mof_C 	C 	0.3332	0.1128	0.65505	-0.082
Mof_C 	C 	0.2891	0.0624	0.72182	0.029
Mof_H 	H 	0.3177	0.0011	0.725	0.067
Mof_C 	C 	0.2037	0.10232	0.7832	-0.08
Mof_C 	C 	0.1631	0.19482	0.77938	0.041
Mof_H 	H 	0.1035	0.222	0.8202	0.049
Mof_C 	C 	0.2124	0.24572	0.71425	-0.095
Mof_C 	C 	0.2956	0.2051	0.65225	0.045
Mof_H 	H 	0.3266	0.2397	0.6084	0.053
Mof_C 	C 	0.4151	0.06767	0.58575	0.317
Mof_C 	C 	0.1518	0.04404	0.85307	0.328
Mof_C 	C 	0.8132	0.95184	0.56643	0.137
Mof_H 	H 	0.7331	0.9333	0.6024	0.004
Mof_C 	C 	0.9313	0.0056	0.46244	0.004
Mof_H 	H 	0.9474	0.0315	0.4126	0.054
Mof_C 	C 	0.0494	0.9797	0.5094	0.039
Mof_H 	H 	0.1618	0.9837	0.4998	0.037
Mof_Zn	Zn	0.93968	0.97253	0.95474	1.229
Mof_S 	S 	0.33109	0.63595	0.2103	0.542
Mof_O 	O 	0.0313	0.88235	0.03064	-0.415
Mof_O 	O 	0.0727	0.0168	0.08347	-0.33
Mof_O 	O 	0.475	0.92774	0.39063	-0.433
Mof_O 	O 	0.273	0.02613	0.36862	-0.298
Mof_O 	O 	0.3638	0.62134	0.12585	-0.425
Mof_O 	O 	0.1861	0.58941	0.23683	-0.261
Mof_O 	O 	0.4748	0.62063	0.2591	-0.268
Mof_N 	N 	0.7177	0.00996	0.99538	-0.251
Mof_N 	N 	0.5278	0.0557	0.078	-0.211
Mof_H 	H 	0.48	0.0778	0.1194	0.166
Mof_C 	C 	0.1668	0.8872	0.15505	-0.084
Mof_C 	C 	0.2109	0.9376	0.22182	0.031
Mof_H 	H 	0.1823	0.9989	0.225	0.067
Mof_C 	C 	0.2963	0.89768	0.2832	-0.081
Mof_C 	C 	0.3369	0.80518	0.27938	0.042
Mof_H 	H 	0.3965	0.778	0.3202	0.049
Mof_C 	C 	0.2876	0.75428	0.21425	-0.096
Mof_C 	C 	0.2044	0.7949	0.15225	0.046
Mof_H 	H 	0.1734	0.7603	0.1084	0.052
Mof_C 	C 	0.0849	0.93233	0.08575	0.322
Mof_C 	C 	0.3482	0.95596	0.35307	0.33
Mof_C 	C 	0.6868	0.04816	0.06643	0.135
Mof_H 	H 	0.7669	0.0667	0.1024	0.005
Mof_C 	C 	0.5687	0.9944	0.96244	0.008
Mof_H 	H 	0.5526	0.9685	0.9126	0.053
Mof_C 	C 	0.4506	0.0203	0.0094	0.034
Mof_H 	H 	0.3382	0.0163	0.9998	0.04
_end
