# CIF file generated by openbabel 3.1.0, see https://openbabel.org
data_I
_chemical_name_common 'image0'
_cell_length_a 15.5149
_cell_length_b 29.726
_cell_length_c 22.6206
_cell_angle_alpha 90
_cell_angle_beta 97.549
_cell_angle_gamma 90
_space_group_name_H-M_alt 'P 1'
_space_group_name_Hall 'P 1'
loop_
    _symmetry_equiv_pos_as_xyz
    x,y,z
loop_
    _atom_site_label
    _atom_site_type_symbol
    _atom_site_fract_x
    _atom_site_fract_y
    _atom_site_fract_z
    _atom_site_occupancy
    N1       N        0.43570    0.09690    0.29140    1.000
    O1       O        0.38760    0.05737    0.18670    1.000
    O2       O        0.42160    0.00645    0.32970    1.000
    O3       O        0.07790    0.46400    0.29410    1.000
    C1       C        0.37500    0.11780    0.25340    1.000
    C2       C        0.45240    0.11380    0.34670    1.000
    C3       C        0.35400    0.09640    0.19180    1.000
    C4       C        0.36390    0.01570    0.36060    1.000
    C5       C        0.33080    0.15560    0.26900    1.000
    C6       C        0.41080    0.15050    0.36690    1.000
    H1       H        0.49490    0.09970    0.37320    1.000
    O4       O        0.30750    0.11660    0.15220    1.000
    C7       C        0.36610    0.99220    0.42040    1.000
    O5       O        0.30110    0.04270    0.34670    1.000
    C8       C        0.34720    0.17190    0.32670    1.000
    H2       H        0.29060    0.16990    0.24100    1.000
    H3       H        0.42430    0.16070    0.40590    1.000
    C9       C        0.42810    0.96120    0.44010    1.000
    N2       N        0.30010    0.00410    0.45120    1.000
    Dy1      Dy       0.19033    0.05769    0.40334    1.000
    C10      C        0.29720    0.21090    0.34600    1.000
    H4       H        0.47140    0.95300    0.41740    1.000
    C11      C        0.42330    0.94250    0.49570    1.000
    C12      C        0.29520    0.98560    0.50460    1.000
    N3       N        0.16350    0.02740    0.50410    1.000
    N4       N        0.06570    0.08980    0.44700    1.000
    O6       O        0.14270    0.12632    0.36330    1.000
    O7       O        0.27650    0.10390    0.46630    1.000
    N5       N        0.12770    0.95450    0.79530    1.000
    O8       O        0.11970    0.00944    0.88530    1.000
    C13      C        0.25330    0.20730    0.39540    1.000
    C14      C        0.28900    0.25060    0.31310    1.000
    H5       H        0.46430    0.92120    0.51070    1.000
    C15      C        0.35990    0.95450    0.52860    1.000
    C16      C        0.22220    0.99950    0.53450    1.000
    C17      C        0.09440    0.04080    0.52950    1.000
    C18      C        0.03530    0.07230    0.49420    1.000
    C19      C        0.01900    0.12300    0.41610    1.000
    C20      C        0.06970    0.14360    0.36820    1.000
    C21      C        0.32690    0.10940    0.51140    1.000
    C22      C        0.19800    0.24090    0.40810    1.000
    H6       H        0.26120    0.18210    0.41980    1.000
    H7       H        0.31910    0.25470    0.28060    1.000
    C23      C        0.23440    0.28410    0.33010    1.000
    H8       H        0.35900    0.94260    0.56650    1.000
    C24      C        0.21190    0.98490    0.59130    1.000
    C25      C        0.08290    0.02800    0.58640    1.000
    C26      C        0.95410    0.08550    0.50850    1.000
    C27      C        0.94190    0.13770    0.42880    1.000
    O9       O        0.03470    0.17520    0.33840    1.000
    H9       H        0.36780    0.08660    0.51970    1.000
    O10      O        0.33230    0.13870    0.54620    1.000
    C28      C        0.14300    0.23710    0.45660    1.000
    N6       N        0.18720    0.27860    0.37470    1.000
    C29      C        0.22830    0.32850    0.30090    1.000
    H10      H        0.25230    0.96540    0.61160    1.000
    C30      C        0.14130    0.99960    0.61760    1.000
    H11      H        0.03560    0.03870    0.60360    1.000
    H12      H        0.93180    0.07230    0.54050    1.000
    C31      C        0.90790    0.11770    0.47560    1.000
    H13      H        0.91220    0.16060    0.40680    1.000
    Dy2      Dy       0.44230    0.16927    0.61824    1.000
    C32      C        0.14870    0.20230    0.49700    1.000
    N7       N        0.08470    0.26970    0.45760    1.000
    C33      C        0.27990    0.34210    0.25880    1.000
    N8       N        0.16890    0.35640    0.31740    1.000
    C34      C        0.13080    0.98390    0.67810    1.000
    H14      H        0.85340    0.12620    0.48460    1.000
    C35      C        0.09420    0.20160    0.54090    1.000
    H15      H        0.18890    0.17930    0.49490    1.000
    C36      C        0.03050    0.26830    0.49990    1.000
    O11      O        0.97780    0.33790    0.46090    1.000
    O12      O        0.04640    0.40700    0.35280    1.000
    H16      H        0.32290    0.32290    0.24840    1.000
    C37      C        0.26830    0.38390    0.23210    1.000
    C38      C        0.15910    0.39720    0.29300    1.000
    C39      C        0.14380    0.93890    0.69330    1.000
    C40      C        0.11240    0.01370    0.72330    1.000
    C41      C        0.03450    0.23440    0.54080    1.000
    H17      H        0.09880    0.17910    0.56970    1.000
    C42      C        0.96730    0.30740    0.49650    1.000
    C43      C        0.08820    0.42540    0.31550    1.000
    H18      H        0.30020    0.39250    0.20200    1.000
    C44      C        0.20750    0.41230    0.25170    1.000
    H19      H        0.15400    0.91800    0.66450    1.000
    C45      C        0.14150    0.92520    0.75230    1.000
    H20      H        0.10080    0.04380    0.71500    1.000
    C46      C        0.11200    0.99700    0.78050    1.000
    H21      H        0.99560    0.23390    0.56870    1.000
    O13      O        0.91350    0.30810    0.52990    1.000
    H22      H        0.20010    0.44140    0.23670    1.000
    H23      H        0.14980    0.89500    0.76200    1.000
    C47      C        0.10030    0.02780    0.83280    1.000
    O14      O        0.07230    0.06600    0.82360    1.000
    O15      O        0.48890    0.19340    0.72690    1.000
    O16      O        0.59510    0.15840    0.64460    1.000
    Dy3      Dy       0.08210    0.34210    0.39430    1.000
    O17      O        0.01510    0.28960    0.30770    1.000
    H24      H        0.10480    0.08390    0.84320    1.000
    N9       N        0.93570    0.59690    0.29140    1.000
    O18      O        0.88760    0.55737    0.18670    1.000
    O19      O        0.92160    0.50645    0.32970    1.000
    O20      O        0.57790    0.96400    0.29410    1.000
    C48      C        0.87500    0.61780    0.25340    1.000
    C49      C        0.95240    0.61380    0.34670    1.000
    C50      C        0.85400    0.59640    0.19180    1.000
    C51      C        0.86390    0.51570    0.36060    1.000
    C52      C        0.83080    0.65560    0.26900    1.000
    C53      C        0.91080    0.65050    0.36690    1.000
    H25      H        0.99490    0.59970    0.37320    1.000
    O21      O        0.80750    0.61660    0.15220    1.000
    C54      C        0.86610    0.49220    0.42040    1.000
    O22      O        0.80110    0.54270    0.34670    1.000
    C55      C        0.84720    0.67190    0.32670    1.000
    H26      H        0.79060    0.66990    0.24100    1.000
    H27      H        0.92430    0.66070    0.40590    1.000
    C56      C        0.92810    0.46120    0.44010    1.000
    N10      N        0.80010    0.50410    0.45120    1.000
    Dy4      Dy       0.69033    0.55769    0.40334    1.000
    C57      C        0.79720    0.71090    0.34600    1.000
    H28      H        0.97140    0.45300    0.41740    1.000
    C58      C        0.92330    0.44250    0.49570    1.000
    C59      C        0.79520    0.48560    0.50460    1.000
    N11      N        0.66350    0.52740    0.50410    1.000
    N12      N        0.56570    0.58980    0.44700    1.000
    O23      O        0.64270    0.62632    0.36330    1.000
    O24      O        0.77650    0.60390    0.46630    1.000
    N13      N        0.62770    0.45450    0.79530    1.000
    O25      O        0.61970    0.50944    0.88530    1.000
    C60      C        0.75330    0.70730    0.39540    1.000
    C61      C        0.78900    0.75060    0.31310    1.000
    H29      H        0.96430    0.42120    0.51070    1.000
    C62      C        0.85990    0.45450    0.52860    1.000
    C63      C        0.72220    0.49950    0.53450    1.000
    C64      C        0.59440    0.54080    0.52950    1.000
    C65      C        0.53530    0.57230    0.49420    1.000
    C66      C        0.51900    0.62300    0.41610    1.000
    C67      C        0.56970    0.64360    0.36820    1.000
    C68      C        0.82690    0.60940    0.51140    1.000
    C69      C        0.69800    0.74090    0.40810    1.000
    H30      H        0.76120    0.68210    0.41980    1.000
    H31      H        0.81910    0.75470    0.28060    1.000
    C70      C        0.73440    0.78410    0.33010    1.000
    H32      H        0.85900    0.44260    0.56650    1.000
    C71      C        0.71190    0.48490    0.59130    1.000
    C72      C        0.58290    0.52800    0.58640    1.000
    C73      C        0.45410    0.58550    0.50850    1.000
    C74      C        0.44190    0.63770    0.42880    1.000
    O26      O        0.53470    0.67520    0.33840    1.000
    H33      H        0.86780    0.58660    0.51970    1.000
    O27      O        0.83230    0.63870    0.54620    1.000
    C75      C        0.64300    0.73710    0.45660    1.000
    N14      N        0.68720    0.77860    0.37470    1.000
    C76      C        0.72830    0.82850    0.30090    1.000
    H34      H        0.75230    0.46540    0.61160    1.000
    C77      C        0.64130    0.49960    0.61760    1.000
    H35      H        0.53560    0.53870    0.60360    1.000
    H36      H        0.43180    0.57230    0.54050    1.000
    C78      C        0.40790    0.61770    0.47560    1.000
    H37      H        0.41220    0.66060    0.40680    1.000
    Dy5      Dy       0.94230    0.66927    0.61824    1.000
    C79      C        0.64870    0.70230    0.49700    1.000
    N15      N        0.58470    0.76970    0.45760    1.000
    C80      C        0.77990    0.84210    0.25880    1.000
    N16      N        0.66890    0.85640    0.31740    1.000
    C81      C        0.63080    0.48390    0.67810    1.000
    H38      H        0.35340    0.62620    0.48460    1.000
    C82      C        0.59420    0.70160    0.54090    1.000
    H39      H        0.68890    0.67930    0.49490    1.000
    C83      C        0.53050    0.76830    0.49990    1.000
    O28      O        0.47780    0.83790    0.46090    1.000
    O29      O        0.54640    0.90700    0.35280    1.000
    H40      H        0.82290    0.82290    0.24840    1.000
    C84      C        0.76830    0.88390    0.23210    1.000
    C85      C        0.65910    0.89720    0.29300    1.000
    C86      C        0.64380    0.43890    0.69330    1.000
    C87      C        0.61240    0.51370    0.72330    1.000
    C88      C        0.53450    0.73440    0.54080    1.000
    H41      H        0.59880    0.67910    0.56970    1.000
    C89      C        0.46730    0.80740    0.49650    1.000
    C90      C        0.58820    0.92540    0.31550    1.000
    H42      H        0.80020    0.89250    0.20200    1.000
    C91      C        0.70750    0.91230    0.25170    1.000
    H43      H        0.65400    0.41800    0.66450    1.000
    C92      C        0.64150    0.42520    0.75230    1.000
    H44      H        0.60080    0.54380    0.71500    1.000
    C93      C        0.61200    0.49700    0.78050    1.000
    H45      H        0.49560    0.73390    0.56870    1.000
    O30      O        0.41350    0.80810    0.52990    1.000
    H46      H        0.70010    0.94140    0.23670    1.000
    H47      H        0.64980    0.39500    0.76200    1.000
    C94      C        0.60030    0.52780    0.83280    1.000
    O31      O        0.57230    0.56600    0.82360    1.000
    O32      O        0.98890    0.69340    0.72690    1.000
    O33      O        0.09510    0.65840    0.64460    1.000
    Dy6      Dy       0.58210    0.84210    0.39430    1.000
    O34      O        0.51510    0.78960    0.30770    1.000
    H48      H        0.60480    0.58390    0.84320    1.000
    N17      N        0.56430    0.09690    0.20860    1.000
    O35      O        0.61240    0.05737    0.31330    1.000
    O36      O        0.57840    0.00645    0.17030    1.000
    O37      O        0.92210    0.46400    0.20590    1.000
    C95      C        0.62500    0.11780    0.24660    1.000
    C96      C        0.54760    0.11380    0.15330    1.000
    C97      C        0.64600    0.09640    0.30820    1.000
    C98      C        0.63610    0.01570    0.13940    1.000
    C99      C        0.66920    0.15560    0.23100    1.000
    C100     C        0.58920    0.15050    0.13310    1.000
    H49      H        0.50510    0.09970    0.12680    1.000
    O38      O        0.69250    0.11660    0.34780    1.000
    C101     C        0.63390    0.99220    0.07960    1.000
    O39      O        0.69890    0.04270    0.15330    1.000
    C102     C        0.65280    0.17190    0.17330    1.000
    H50      H        0.70940    0.16990    0.25900    1.000
    H51      H        0.57570    0.16070    0.09410    1.000
    C103     C        0.57190    0.96120    0.05990    1.000
    N18      N        0.69990    0.00410    0.04880    1.000
    Dy7      Dy       0.80967    0.05769    0.09666    1.000
    C104     C        0.70280    0.21090    0.15400    1.000
    H52      H        0.52860    0.95300    0.08260    1.000
    C105     C        0.57670    0.94250    0.00430    1.000
    C106     C        0.70480    0.98560    0.99540    1.000
    N19      N        0.83650    0.02740    0.99590    1.000
    N20      N        0.93430    0.08980    0.05300    1.000
    O40      O        0.85730    0.12632    0.13670    1.000
    O41      O        0.72350    0.10390    0.03370    1.000
    N21      N        0.87230    0.95450    0.70470    1.000
    O42      O        0.88030    0.00944    0.61470    1.000
    C107     C        0.74670    0.20730    0.10460    1.000
    C108     C        0.71100    0.25060    0.18690    1.000
    H53      H        0.53570    0.92120    0.98930    1.000
    C109     C        0.64010    0.95450    0.97140    1.000
    C110     C        0.77780    0.99950    0.96550    1.000
    C111     C        0.90560    0.04080    0.97050    1.000
    C112     C        0.96470    0.07230    0.00580    1.000
    C113     C        0.98100    0.12300    0.08390    1.000
    C114     C        0.93030    0.14360    0.13180    1.000
    C115     C        0.67310    0.10940    0.98860    1.000
    C116     C        0.80200    0.24090    0.09190    1.000
    H54      H        0.73880    0.18210    0.08020    1.000
    H55      H        0.68090    0.25470    0.21940    1.000
    C117     C        0.76560    0.28410    0.16990    1.000
    H56      H        0.64100    0.94260    0.93350    1.000
    C118     C        0.78810    0.98490    0.90870    1.000
    C119     C        0.91710    0.02800    0.91360    1.000
    C120     C        0.04590    0.08550    0.99150    1.000
    C121     C        0.05810    0.13770    0.07120    1.000
    O43      O        0.96530    0.17520    0.16160    1.000
    H57      H        0.63220    0.08660    0.98030    1.000
    O44      O        0.66770    0.13870    0.95380    1.000
    C122     C        0.85700    0.23710    0.04340    1.000
    N22      N        0.81280    0.27860    0.12530    1.000
    C123     C        0.77170    0.32850    0.19910    1.000
    H58      H        0.74770    0.96540    0.88840    1.000
    C124     C        0.85870    0.99960    0.88240    1.000
    H59      H        0.96440    0.03870    0.89640    1.000
    H60      H        0.06820    0.07230    0.95950    1.000
    C125     C        0.09210    0.11770    0.02440    1.000
    H61      H        0.08780    0.16060    0.09320    1.000
    Dy8      Dy       0.55770    0.16927    0.88176    1.000
    C126     C        0.85130    0.20230    0.00300    1.000
    N23      N        0.91530    0.26970    0.04240    1.000
    C127     C        0.72010    0.34210    0.24120    1.000
    N24      N        0.83110    0.35640    0.18260    1.000
    C128     C        0.86920    0.98390    0.82190    1.000
    H62      H        0.14660    0.12620    0.01540    1.000
    C129     C        0.90580    0.20160    0.95910    1.000
    H63      H        0.81110    0.17930    0.00510    1.000
    C130     C        0.96950    0.26830    0.00010    1.000
    O45      O        0.02220    0.33790    0.03910    1.000
    O46      O        0.95360    0.40700    0.14720    1.000
    H64      H        0.67710    0.32290    0.25160    1.000
    C131     C        0.73170    0.38390    0.26790    1.000
    C132     C        0.84090    0.39720    0.20700    1.000
    C133     C        0.85620    0.93890    0.80670    1.000
    C134     C        0.88760    0.01370    0.77670    1.000
    C135     C        0.96550    0.23440    0.95920    1.000
    H65      H        0.90120    0.17910    0.93030    1.000
    C136     C        0.03270    0.30740    0.00350    1.000
    C137     C        0.91180    0.42540    0.18450    1.000
    H66      H        0.69980    0.39250    0.29800    1.000
    C138     C        0.79250    0.41230    0.24830    1.000
    H67      H        0.84600    0.91800    0.83550    1.000
    C139     C        0.85850    0.92520    0.74770    1.000
    H68      H        0.89920    0.04380    0.78500    1.000
    C140     C        0.88800    0.99700    0.71950    1.000
    H69      H        0.00440    0.23390    0.93130    1.000
    O47      O        0.08650    0.30810    0.97010    1.000
    H70      H        0.79990    0.44140    0.26330    1.000
    H71      H        0.85020    0.89500    0.73800    1.000
    C141     C        0.89970    0.02780    0.66720    1.000
    O48      O        0.92770    0.06600    0.67640    1.000
    O49      O        0.51110    0.19340    0.77310    1.000
    O50      O        0.40490    0.15840    0.85540    1.000
    Dy9      Dy       0.91790    0.34210    0.10570    1.000
    O51      O        0.98490    0.28960    0.19230    1.000
    H72      H        0.89520    0.08390    0.65680    1.000
    N25      N        0.06430    0.59690    0.20860    1.000
    O52      O        0.11240    0.55737    0.31330    1.000
    O53      O        0.07840    0.50645    0.17030    1.000
    O54      O        0.42210    0.96400    0.20590    1.000
    C142     C        0.12500    0.61780    0.24660    1.000
    C143     C        0.04760    0.61380    0.15330    1.000
    C144     C        0.14600    0.59640    0.30820    1.000
    C145     C        0.13610    0.51570    0.13940    1.000
    C146     C        0.16920    0.65560    0.23100    1.000
    C147     C        0.08920    0.65050    0.13310    1.000
    H73      H        0.00510    0.59970    0.12680    1.000
    O55      O        0.19250    0.61660    0.34780    1.000
    C148     C        0.13390    0.49220    0.07960    1.000
    O56      O        0.19890    0.54270    0.15330    1.000
    C149     C        0.15280    0.67190    0.17330    1.000
    H74      H        0.20940    0.66990    0.25900    1.000
    H75      H        0.07570    0.66070    0.09410    1.000
    C150     C        0.07190    0.46120    0.05990    1.000
    N26      N        0.19990    0.50410    0.04880    1.000
    Dy10     Dy       0.30967    0.55769    0.09666    1.000
    C151     C        0.20280    0.71090    0.15400    1.000
    H76      H        0.02860    0.45300    0.08260    1.000
    C152     C        0.07670    0.44250    0.00430    1.000
    C153     C        0.20480    0.48560    0.99540    1.000
    N27      N        0.33650    0.52740    0.99590    1.000
    N28      N        0.43430    0.58980    0.05300    1.000
    O57      O        0.35730    0.62632    0.13670    1.000
    O58      O        0.22350    0.60390    0.03370    1.000
    N29      N        0.37230    0.45450    0.70470    1.000
    O59      O        0.38030    0.50944    0.61470    1.000
    C154     C        0.24670    0.70730    0.10460    1.000
    C155     C        0.21100    0.75060    0.18690    1.000
    H77      H        0.03570    0.42120    0.98930    1.000
    C156     C        0.14010    0.45450    0.97140    1.000
    C157     C        0.27780    0.49950    0.96550    1.000
    C158     C        0.40560    0.54080    0.97050    1.000
    C159     C        0.46470    0.57230    0.00580    1.000
    C160     C        0.48100    0.62300    0.08390    1.000
    C161     C        0.43030    0.64360    0.13180    1.000
    C162     C        0.17310    0.60940    0.98860    1.000
    C163     C        0.30200    0.74090    0.09190    1.000
    H78      H        0.23880    0.68210    0.08020    1.000
    H79      H        0.18090    0.75470    0.21940    1.000
    C164     C        0.26560    0.78410    0.16990    1.000
    H80      H        0.14100    0.44260    0.93350    1.000
    C165     C        0.28810    0.48490    0.90870    1.000
    C166     C        0.41710    0.52800    0.91360    1.000
    C167     C        0.54590    0.58550    0.99150    1.000
    C168     C        0.55810    0.63770    0.07120    1.000
    O60      O        0.46530    0.67520    0.16160    1.000
    H81      H        0.13220    0.58660    0.98030    1.000
    O61      O        0.16770    0.63870    0.95380    1.000
    C169     C        0.35700    0.73710    0.04340    1.000
    N30      N        0.31280    0.77860    0.12530    1.000
    C170     C        0.27170    0.82850    0.19910    1.000
    H82      H        0.24770    0.46540    0.88840    1.000
    C171     C        0.35870    0.49960    0.88240    1.000
    H83      H        0.46440    0.53870    0.89640    1.000
    H84      H        0.56820    0.57230    0.95950    1.000
    C172     C        0.59210    0.61770    0.02440    1.000
    H85      H        0.58780    0.66060    0.09320    1.000
    Dy11     Dy       0.05770    0.66927    0.88176    1.000
    C173     C        0.35130    0.70230    0.00300    1.000
    N31      N        0.41530    0.76970    0.04240    1.000
    C174     C        0.22010    0.84210    0.24120    1.000
    N32      N        0.33110    0.85640    0.18260    1.000
    C175     C        0.36920    0.48390    0.82190    1.000
    H86      H        0.64660    0.62620    0.01540    1.000
    C176     C        0.40580    0.70160    0.95910    1.000
    H87      H        0.31110    0.67930    0.00510    1.000
    C177     C        0.46950    0.76830    0.00010    1.000
    O62      O        0.52220    0.83790    0.03910    1.000
    O63      O        0.45360    0.90700    0.14720    1.000
    H88      H        0.17710    0.82290    0.25160    1.000
    C178     C        0.23170    0.88390    0.26790    1.000
    C179     C        0.34090    0.89720    0.20700    1.000
    C180     C        0.35620    0.43890    0.80670    1.000
    C181     C        0.38760    0.51370    0.77670    1.000
    C182     C        0.46550    0.73440    0.95920    1.000
    H89      H        0.40120    0.67910    0.93030    1.000
    C183     C        0.53270    0.80740    0.00350    1.000
    C184     C        0.41180    0.92540    0.18450    1.000
    H90      H        0.19980    0.89250    0.29800    1.000
    C185     C        0.29250    0.91230    0.24830    1.000
    H91      H        0.34600    0.41800    0.83550    1.000
    C186     C        0.35850    0.42520    0.74770    1.000
    H92      H        0.39920    0.54380    0.78500    1.000
    C187     C        0.38800    0.49700    0.71950    1.000
    H93      H        0.50440    0.73390    0.93130    1.000
    O64      O        0.58650    0.80810    0.97010    1.000
    H94      H        0.29990    0.94140    0.26330    1.000
    H95      H        0.35020    0.39500    0.73800    1.000
    C188     C        0.39970    0.52780    0.66720    1.000
    O65      O        0.42770    0.56600    0.67640    1.000
    O66      O        0.01110    0.69340    0.77310    1.000
    O67      O        0.90490    0.65840    0.85540    1.000
    Dy12     Dy       0.41790    0.84210    0.10570    1.000
    O68      O        0.48490    0.78960    0.19230    1.000
    H96      H        0.39520    0.58390    0.65680    1.000
    N33      N        0.56430    0.90310    0.70860    1.000
    O69      O        0.61240    0.94263    0.81330    1.000
    O70      O        0.57840    0.99355    0.67030    1.000
    O71      O        0.92210    0.53600    0.70590    1.000
    C189     C        0.62500    0.88220    0.74660    1.000
    C190     C        0.54760    0.88620    0.65330    1.000
    C191     C        0.64600    0.90360    0.80820    1.000
    C192     C        0.63610    0.98430    0.63940    1.000
    C193     C        0.66920    0.84440    0.73100    1.000
    C194     C        0.58920    0.84950    0.63310    1.000
    H97      H        0.50510    0.90030    0.62680    1.000
    O72      O        0.69250    0.88340    0.84780    1.000
    C195     C        0.63390    0.00780    0.57960    1.000
    O73      O        0.69890    0.95730    0.65330    1.000
    C196     C        0.65280    0.82810    0.67330    1.000
    H98      H        0.70940    0.83010    0.75900    1.000
    H99      H        0.57570    0.83930    0.59410    1.000
    C197     C        0.57190    0.03880    0.55990    1.000
    N34      N        0.69990    0.99590    0.54880    1.000
    Dy13     Dy       0.80967    0.94231    0.59666    1.000
    C198     C        0.70280    0.78910    0.65400    1.000
    H100     H        0.52860    0.04700    0.58260    1.000
    C199     C        0.57670    0.05750    0.50430    1.000
    C200     C        0.70480    0.01440    0.49540    1.000
    N35      N        0.83650    0.97260    0.49590    1.000
    N36      N        0.93430    0.91020    0.55300    1.000
    O74      O        0.85730    0.87368    0.63670    1.000
    O75      O        0.72350    0.89610    0.53370    1.000
    N37      N        0.87230    0.04550    0.20470    1.000
    O76      O        0.88030    0.99056    0.11470    1.000
    C201     C        0.74670    0.79270    0.60460    1.000
    C202     C        0.71100    0.74940    0.68690    1.000
    H101     H        0.53570    0.07880    0.48930    1.000
    C203     C        0.64010    0.04550    0.47140    1.000
    C204     C        0.77780    0.00050    0.46550    1.000
    C205     C        0.90560    0.95920    0.47050    1.000
    C206     C        0.96470    0.92770    0.50580    1.000
    C207     C        0.98100    0.87700    0.58390    1.000
    C208     C        0.93030    0.85640    0.63180    1.000
    C209     C        0.67310    0.89060    0.48860    1.000
    C210     C        0.80200    0.75910    0.59190    1.000
    H102     H        0.73880    0.81790    0.58020    1.000
    H103     H        0.68090    0.74530    0.71940    1.000
    C211     C        0.76560    0.71590    0.66990    1.000
    H104     H        0.64100    0.05740    0.43350    1.000
    C212     C        0.78810    0.01510    0.40870    1.000
    C213     C        0.91710    0.97200    0.41360    1.000
    C214     C        0.04590    0.91450    0.49150    1.000
    C215     C        0.05810    0.86230    0.57120    1.000
    O77      O        0.96530    0.82480    0.66160    1.000
    H105     H        0.63220    0.91340    0.48030    1.000
    O78      O        0.66770    0.86130    0.45380    1.000
    C216     C        0.85700    0.76290    0.54340    1.000
    N38      N        0.81280    0.72140    0.62530    1.000
    C217     C        0.77170    0.67150    0.69910    1.000
    H106     H        0.74770    0.03460    0.38840    1.000
    C218     C        0.85870    0.00040    0.38240    1.000
    H107     H        0.96440    0.96130    0.39640    1.000
    H108     H        0.06820    0.92770    0.45950    1.000
    C219     C        0.09210    0.88230    0.52440    1.000
    H109     H        0.08780    0.83940    0.59320    1.000
    Dy14     Dy       0.55770    0.83073    0.38176    1.000
    C220     C        0.85130    0.79770    0.50300    1.000
    N39      N        0.91530    0.73030    0.54240    1.000
    C221     C        0.72010    0.65790    0.74120    1.000
    N40      N        0.83110    0.64360    0.68260    1.000
    C222     C        0.86920    0.01610    0.32190    1.000
    H110     H        0.14660    0.87380    0.51540    1.000
    C223     C        0.90580    0.79840    0.45910    1.000
    H111     H        0.81110    0.82070    0.50510    1.000
    C224     C        0.96950    0.73170    0.50010    1.000
    O79      O        0.02220    0.66210    0.53910    1.000
    O80      O        0.95360    0.59300    0.64720    1.000
    H112     H        0.67710    0.67710    0.75160    1.000
    C225     C        0.73170    0.61610    0.76790    1.000
    C226     C        0.84090    0.60280    0.70700    1.000
    C227     C        0.85620    0.06110    0.30670    1.000
    C228     C        0.88760    0.98630    0.27670    1.000
    C229     C        0.96550    0.76560    0.45920    1.000
    H113     H        0.90120    0.82090    0.43030    1.000
    C230     C        0.03270    0.69260    0.50350    1.000
    C231     C        0.91180    0.57460    0.68450    1.000
    H114     H        0.69980    0.60750    0.79800    1.000
    C232     C        0.79250    0.58770    0.74830    1.000
    H115     H        0.84600    0.08200    0.33550    1.000
    C233     C        0.85850    0.07480    0.24770    1.000
    H116     H        0.89920    0.95620    0.28500    1.000
    C234     C        0.88800    0.00300    0.21950    1.000
    H117     H        0.00440    0.76610    0.43130    1.000
    O81      O        0.08650    0.69190    0.47010    1.000
    H118     H        0.79990    0.55860    0.76330    1.000
    H119     H        0.85020    0.10500    0.23800    1.000
    C235     C        0.89970    0.97220    0.16720    1.000
    O82      O        0.92770    0.93400    0.17640    1.000
    O83      O        0.51110    0.80660    0.27310    1.000
    O84      O        0.40490    0.84160    0.35540    1.000
    Dy15     Dy       0.91790    0.65790    0.60570    1.000
    O85      O        0.98490    0.71040    0.69230    1.000
    H120     H        0.89520    0.91610    0.15680    1.000
    N41      N        0.06430    0.40310    0.70860    1.000
    O86      O        0.11240    0.44263    0.81330    1.000
    O87      O        0.07840    0.49355    0.67030    1.000
    O88      O        0.42210    0.03600    0.70590    1.000
    C236     C        0.12500    0.38220    0.74660    1.000
    C237     C        0.04760    0.38620    0.65330    1.000
    C238     C        0.14600    0.40360    0.80820    1.000
    C239     C        0.13610    0.48430    0.63940    1.000
    C240     C        0.16920    0.34440    0.73100    1.000
    C241     C        0.08920    0.34950    0.63310    1.000
    H121     H        0.00510    0.40030    0.62680    1.000
    O89      O        0.19250    0.38340    0.84780    1.000
    C242     C        0.13390    0.50780    0.57960    1.000
    O90      O        0.19890    0.45730    0.65330    1.000
    C243     C        0.15280    0.32810    0.67330    1.000
    H122     H        0.20940    0.33010    0.75900    1.000
    H123     H        0.07570    0.33930    0.59410    1.000
    C244     C        0.07190    0.53880    0.55990    1.000
    N42      N        0.19990    0.49590    0.54880    1.000
    Dy16     Dy       0.30967    0.44231    0.59666    1.000
    C245     C        0.20280    0.28910    0.65400    1.000
    H124     H        0.02860    0.54700    0.58260    1.000
    C246     C        0.07670    0.55750    0.50430    1.000
    C247     C        0.20480    0.51440    0.49540    1.000
    N43      N        0.33650    0.47260    0.49590    1.000
    N44      N        0.43430    0.41020    0.55300    1.000
    O91      O        0.35730    0.37368    0.63670    1.000
    O92      O        0.22350    0.39610    0.53370    1.000
    N45      N        0.37230    0.54550    0.20470    1.000
    O93      O        0.38030    0.49056    0.11470    1.000
    C248     C        0.24670    0.29270    0.60460    1.000
    C249     C        0.21100    0.24940    0.68690    1.000
    H125     H        0.03570    0.57880    0.48930    1.000
    C250     C        0.14010    0.54550    0.47140    1.000
    C251     C        0.27780    0.50050    0.46550    1.000
    C252     C        0.40560    0.45920    0.47050    1.000
    C253     C        0.46470    0.42770    0.50580    1.000
    C254     C        0.48100    0.37700    0.58390    1.000
    C255     C        0.43030    0.35640    0.63180    1.000
    C256     C        0.17310    0.39060    0.48860    1.000
    C257     C        0.30200    0.25910    0.59190    1.000
    H126     H        0.23880    0.31790    0.58020    1.000
    H127     H        0.18090    0.24530    0.71940    1.000
    C258     C        0.26560    0.21590    0.66990    1.000
    H128     H        0.14100    0.55740    0.43350    1.000
    C259     C        0.28810    0.51510    0.40870    1.000
    C260     C        0.41710    0.47200    0.41360    1.000
    C261     C        0.54590    0.41450    0.49150    1.000
    C262     C        0.55810    0.36230    0.57120    1.000
    O94      O        0.46530    0.32480    0.66160    1.000
    H129     H        0.13220    0.41340    0.48030    1.000
    O95      O        0.16770    0.36130    0.45380    1.000
    C263     C        0.35700    0.26290    0.54340    1.000
    N46      N        0.31280    0.22140    0.62530    1.000
    C264     C        0.27170    0.17150    0.69910    1.000
    H130     H        0.24770    0.53460    0.38840    1.000
    C265     C        0.35870    0.50040    0.38240    1.000
    H131     H        0.46440    0.46130    0.39640    1.000
    H132     H        0.56820    0.42770    0.45950    1.000
    C266     C        0.59210    0.38230    0.52440    1.000
    H133     H        0.58780    0.33940    0.59320    1.000
    Dy17     Dy       0.05770    0.33073    0.38176    1.000
    C267     C        0.35130    0.29770    0.50300    1.000
    N47      N        0.41530    0.23030    0.54240    1.000
    C268     C        0.22010    0.15790    0.74120    1.000
    N48      N        0.33110    0.14360    0.68260    1.000
    C269     C        0.36920    0.51610    0.32190    1.000
    H134     H        0.64660    0.37380    0.51540    1.000
    C270     C        0.40580    0.29840    0.45910    1.000
    H135     H        0.31110    0.32070    0.50510    1.000
    C271     C        0.46950    0.23170    0.50010    1.000
    O96      O        0.52220    0.16210    0.53910    1.000
    O97      O        0.45360    0.09300    0.64720    1.000
    H136     H        0.17710    0.17710    0.75160    1.000
    C272     C        0.23170    0.11610    0.76790    1.000
    C273     C        0.34090    0.10280    0.70700    1.000
    C274     C        0.35620    0.56110    0.30670    1.000
    C275     C        0.38760    0.48630    0.27670    1.000
    C276     C        0.46550    0.26560    0.45920    1.000
    H137     H        0.40120    0.32090    0.43030    1.000
    C277     C        0.53270    0.19260    0.50350    1.000
    C278     C        0.41180    0.07460    0.68450    1.000
    H138     H        0.19980    0.10750    0.79800    1.000
    C279     C        0.29250    0.08770    0.74830    1.000
    H139     H        0.34600    0.58200    0.33550    1.000
    C280     C        0.35850    0.57480    0.24770    1.000
    H140     H        0.39920    0.45620    0.28500    1.000
    C281     C        0.38800    0.50300    0.21950    1.000
    H141     H        0.50440    0.26610    0.43130    1.000
    O98      O        0.58650    0.19190    0.47010    1.000
    H142     H        0.29990    0.05860    0.76330    1.000
    H143     H        0.35020    0.60500    0.23800    1.000
    C282     C        0.39970    0.47220    0.16720    1.000
    O99      O        0.42770    0.43400    0.17640    1.000
    O100     O        0.01110    0.30660    0.27310    1.000
    O101     O        0.90490    0.34160    0.35540    1.000
    Dy18     Dy       0.41790    0.15790    0.60570    1.000
    O102     O        0.48490    0.21040    0.69230    1.000
    H144     H        0.39520    0.41610    0.15680    1.000
    N49      N        0.43570    0.90310    0.79140    1.000
    O103     O        0.38760    0.94263    0.68670    1.000
    O104     O        0.42160    0.99355    0.82970    1.000
    O105     O        0.07790    0.53600    0.79410    1.000
    C283     C        0.37500    0.88220    0.75340    1.000
    C284     C        0.45240    0.88620    0.84670    1.000
    C285     C        0.35400    0.90360    0.69180    1.000
    C286     C        0.36390    0.98430    0.86060    1.000
    C287     C        0.33080    0.84440    0.76900    1.000
    C288     C        0.41080    0.84950    0.86690    1.000
    H145     H        0.49490    0.90030    0.87320    1.000
    O106     O        0.30750    0.88340    0.65220    1.000
    C289     C        0.36610    0.00780    0.92040    1.000
    O107     O        0.30110    0.95730    0.84670    1.000
    C290     C        0.34720    0.82810    0.82670    1.000
    H146     H        0.29060    0.83010    0.74100    1.000
    H147     H        0.42430    0.83930    0.90590    1.000
    C291     C        0.42810    0.03880    0.94010    1.000
    N50      N        0.30010    0.99590    0.95120    1.000
    Dy19     Dy       0.19033    0.94231    0.90334    1.000
    C292     C        0.29720    0.78910    0.84600    1.000
    H148     H        0.47140    0.04700    0.91740    1.000
    C293     C        0.42330    0.05750    0.99570    1.000
    C294     C        0.29520    0.01440    0.00460    1.000
    N51      N        0.16350    0.97260    0.00410    1.000
    N52      N        0.06570    0.91020    0.94700    1.000
    O108     O        0.14270    0.87368    0.86330    1.000
    O109     O        0.27650    0.89610    0.96630    1.000
    N53      N        0.12770    0.04550    0.29530    1.000
    O110     O        0.11970    0.99056    0.38530    1.000
    C295     C        0.25330    0.79270    0.89540    1.000
    C296     C        0.28900    0.74940    0.81310    1.000
    H149     H        0.46430    0.07880    0.01070    1.000
    C297     C        0.35990    0.04550    0.02860    1.000
    C298     C        0.22220    0.00050    0.03450    1.000
    C299     C        0.09440    0.95920    0.02950    1.000
    C300     C        0.03530    0.92770    0.99420    1.000
    C301     C        0.01900    0.87700    0.91610    1.000
    C302     C        0.06970    0.85640    0.86820    1.000
    C303     C        0.32690    0.89060    0.01140    1.000
    C304     C        0.19800    0.75910    0.90810    1.000
    H150     H        0.26120    0.81790    0.91980    1.000
    H151     H        0.31910    0.74530    0.78060    1.000
    C305     C        0.23440    0.71590    0.83010    1.000
    H152     H        0.35900    0.05740    0.06650    1.000
    C306     C        0.21190    0.01510    0.09130    1.000
    C307     C        0.08290    0.97200    0.08640    1.000
    C308     C        0.95410    0.91450    0.00850    1.000
    C309     C        0.94190    0.86230    0.92880    1.000
    O111     O        0.03470    0.82480    0.83840    1.000
    H153     H        0.36780    0.91340    0.01970    1.000
    O112     O        0.33230    0.86130    0.04620    1.000
    C310     C        0.14300    0.76290    0.95660    1.000
    N54      N        0.18720    0.72140    0.87470    1.000
    C311     C        0.22830    0.67150    0.80090    1.000
    H154     H        0.25230    0.03460    0.11160    1.000
    C312     C        0.14130    0.00040    0.11760    1.000
    H155     H        0.03560    0.96130    0.10360    1.000
    H156     H        0.93180    0.92770    0.04050    1.000
    C313     C        0.90790    0.88230    0.97560    1.000
    H157     H        0.91220    0.83940    0.90680    1.000
    Dy20     Dy       0.44230    0.83073    0.11824    1.000
    C314     C        0.14870    0.79770    0.99700    1.000
    N55      N        0.08470    0.73030    0.95760    1.000
    C315     C        0.27990    0.65790    0.75880    1.000
    N56      N        0.16890    0.64360    0.81740    1.000
    C316     C        0.13080    0.01610    0.17810    1.000
    H158     H        0.85340    0.87380    0.98460    1.000
    C317     C        0.09420    0.79840    0.04090    1.000
    H159     H        0.18890    0.82070    0.99490    1.000
    C318     C        0.03050    0.73170    0.99990    1.000
    O113     O        0.97780    0.66210    0.96090    1.000
    O114     O        0.04640    0.59300    0.85280    1.000
    H160     H        0.32290    0.67710    0.74840    1.000
    C319     C        0.26830    0.61610    0.73210    1.000
    C320     C        0.15910    0.60280    0.79300    1.000
    C321     C        0.14380    0.06110    0.19330    1.000
    C322     C        0.11240    0.98630    0.22330    1.000
    C323     C        0.03450    0.76560    0.04080    1.000
    H161     H        0.09880    0.82090    0.06970    1.000
    C324     C        0.96730    0.69260    0.99650    1.000
    C325     C        0.08820    0.57460    0.81550    1.000
    H162     H        0.30020    0.60750    0.70200    1.000
    C326     C        0.20750    0.58770    0.75170    1.000
    H163     H        0.15400    0.08200    0.16450    1.000
    C327     C        0.14150    0.07480    0.25230    1.000
    H164     H        0.10080    0.95620    0.21500    1.000
    C328     C        0.11200    0.00300    0.28050    1.000
    H165     H        0.99560    0.76610    0.06870    1.000
    O115     O        0.91350    0.69190    0.02990    1.000
    H166     H        0.20010    0.55860    0.73670    1.000
    H167     H        0.14980    0.10500    0.26200    1.000
    C329     C        0.10030    0.97220    0.33280    1.000
    O116     O        0.07230    0.93400    0.32360    1.000
    O117     O        0.48890    0.80660    0.22690    1.000
    O118     O        0.59510    0.84160    0.14460    1.000
    Dy21     Dy       0.08210    0.65790    0.89430    1.000
    O119     O        0.01510    0.71040    0.80770    1.000
    H168     H        0.10480    0.91610    0.34320    1.000
    N57      N        0.93570    0.40310    0.79140    1.000
    O120     O        0.88760    0.44263    0.68670    1.000
    O121     O        0.92160    0.49355    0.82970    1.000
    O122     O        0.57790    0.03600    0.79410    1.000
    C330     C        0.87500    0.38220    0.75340    1.000
    C331     C        0.95240    0.38620    0.84670    1.000
    C332     C        0.85400    0.40360    0.69180    1.000
    C333     C        0.86390    0.48430    0.86060    1.000
    C334     C        0.83080    0.34440    0.76900    1.000
    C335     C        0.91080    0.34950    0.86690    1.000
    H169     H        0.99490    0.40030    0.87320    1.000
    O123     O        0.80750    0.38340    0.65220    1.000
    C336     C        0.86610    0.50780    0.92040    1.000
    O124     O        0.80110    0.45730    0.84670    1.000
    C337     C        0.84720    0.32810    0.82670    1.000
    H170     H        0.79060    0.33010    0.74100    1.000
    H171     H        0.92430    0.33930    0.90590    1.000
    C338     C        0.92810    0.53880    0.94010    1.000
    N58      N        0.80010    0.49590    0.95120    1.000
    Dy22     Dy       0.69033    0.44231    0.90334    1.000
    C339     C        0.79720    0.28910    0.84600    1.000
    H172     H        0.97140    0.54700    0.91740    1.000
    C340     C        0.92330    0.55750    0.99570    1.000
    C341     C        0.79520    0.51440    0.00460    1.000
    N59      N        0.66350    0.47260    0.00410    1.000
    N60      N        0.56570    0.41020    0.94700    1.000
    O125     O        0.64270    0.37368    0.86330    1.000
    O126     O        0.77650    0.39610    0.96630    1.000
    N61      N        0.62770    0.54550    0.29530    1.000
    O127     O        0.61970    0.49056    0.38530    1.000
    C342     C        0.75330    0.29270    0.89540    1.000
    C343     C        0.78900    0.24940    0.81310    1.000
    H173     H        0.96430    0.57880    0.01070    1.000
    C344     C        0.85990    0.54550    0.02860    1.000
    C345     C        0.72220    0.50050    0.03450    1.000
    C346     C        0.59440    0.45920    0.02950    1.000
    C347     C        0.53530    0.42770    0.99420    1.000
    C348     C        0.51900    0.37700    0.91610    1.000
    C349     C        0.56970    0.35640    0.86820    1.000
    C350     C        0.82690    0.39060    0.01140    1.000
    C351     C        0.69800    0.25910    0.90810    1.000
    H174     H        0.76120    0.31790    0.91980    1.000
    H175     H        0.81910    0.24530    0.78060    1.000
    C352     C        0.73440    0.21590    0.83010    1.000
    H176     H        0.85900    0.55740    0.06650    1.000
    C353     C        0.71190    0.51510    0.09130    1.000
    C354     C        0.58290    0.47200    0.08640    1.000
    C355     C        0.45410    0.41450    0.00850    1.000
    C356     C        0.44190    0.36230    0.92880    1.000
    O128     O        0.53470    0.32480    0.83840    1.000
    H177     H        0.86780    0.41340    0.01970    1.000
    O129     O        0.83230    0.36130    0.04620    1.000
    C357     C        0.64300    0.26290    0.95660    1.000
    N62      N        0.68720    0.22140    0.87470    1.000
    C358     C        0.72830    0.17150    0.80090    1.000
    H178     H        0.75230    0.53460    0.11160    1.000
    C359     C        0.64130    0.50040    0.11760    1.000
    H179     H        0.53560    0.46130    0.10360    1.000
    H180     H        0.43180    0.42770    0.04050    1.000
    C360     C        0.40790    0.38230    0.97560    1.000
    H181     H        0.41220    0.33940    0.90680    1.000
    Dy23     Dy       0.94230    0.33073    0.11824    1.000
    C361     C        0.64870    0.29770    0.99700    1.000
    N63      N        0.58470    0.23030    0.95760    1.000
    C362     C        0.77990    0.15790    0.75880    1.000
    N64      N        0.66890    0.14360    0.81740    1.000
    C363     C        0.63080    0.51610    0.17810    1.000
    H182     H        0.35340    0.37380    0.98460    1.000
    C364     C        0.59420    0.29840    0.04090    1.000
    H183     H        0.68890    0.32070    0.99490    1.000
    C365     C        0.53050    0.23170    0.99990    1.000
    O130     O        0.47780    0.16210    0.96090    1.000
    O131     O        0.54640    0.09300    0.85280    1.000
    H184     H        0.82290    0.17710    0.74840    1.000
    C366     C        0.76830    0.11610    0.73210    1.000
    C367     C        0.65910    0.10280    0.79300    1.000
    C368     C        0.64380    0.56110    0.19330    1.000
    C369     C        0.61240    0.48630    0.22330    1.000
    C370     C        0.53450    0.26560    0.04080    1.000
    H185     H        0.59880    0.32090    0.06970    1.000
    C371     C        0.46730    0.19260    0.99650    1.000
    C372     C        0.58820    0.07460    0.81550    1.000
    H186     H        0.80020    0.10750    0.70200    1.000
    C373     C        0.70750    0.08770    0.75170    1.000
    H187     H        0.65400    0.58200    0.16450    1.000
    C374     C        0.64150    0.57480    0.25230    1.000
    H188     H        0.60080    0.45620    0.21500    1.000
    C375     C        0.61200    0.50300    0.28050    1.000
    H189     H        0.49560    0.26610    0.06870    1.000
    O132     O        0.41350    0.19190    0.02990    1.000
    H190     H        0.70010    0.05860    0.73670    1.000
    H191     H        0.64980    0.60500    0.26200    1.000
    C376     C        0.60030    0.47220    0.33280    1.000
    O133     O        0.57230    0.43400    0.32360    1.000
    O134     O        0.98890    0.30660    0.22690    1.000
    O135     O        0.09510    0.34160    0.14460    1.000
    Dy24     Dy       0.58210    0.15790    0.89430    1.000
    O136     O        0.51510    0.21040    0.80770    1.000
    H192     H        0.60480    0.41610    0.34320    1.000
    Dy25     Dy       0.50000    0.02512    0.25000    1.000
    Dy26     Dy       0.00000    0.52512    0.25000    1.000
    Dy27     Dy       0.50000    0.97488    0.75000    1.000
    Dy28     Dy       0.00000    0.47488    0.75000    1.000
