data_functionalizedCrystal
_audit_creation_method	'EQeq! by Chris Wilmer'
_symmetry_space_group_name_H-M	'P1'
_symmetry_Int_Tables_number	1
_symmetry_cell_setting	triclinic
loop_
_symmetry_equiv_pos_as_xyz
  x,y,z
_cell_length_a	20.395
_cell_length_b	6.941
_cell_length_c	20.07
_cell_angle_alpha	90
_cell_angle_beta	119.18
_cell_angle_gamma	90
loop_
_atom_site_label
_atom_site_type_symbol
_atom_site_fract_x
_atom_site_fract_y
_atom_site_fract_z
_atom_site_charge
Mof_Ni	Ni	0.42071	0.51044	0.13041	1.118
Mof_O 	O 	0.434	0.4888	0.5329	-0.362
Mof_O 	O 	0.3218	0.4842	0.5211	-0.354
Mof_C 	C 	0.3648	0.4848	0.4912	0.302
Mof_C 	C 	0.3314	0.4825	0.4051	-0.101
Mof_C 	C 	0.3781	0.4932	0.3743	0.055
Mof_H 	H 	0.431	0.5009	0.4062	0.048
Mof_C 	C 	0.2559	0.465	0.3613	0.054
Mof_H 	H 	0.2255	0.4557	0.385	0.04
Mof_O 	O 	0.3646	0.5067	0.1882	-0.426
Mof_O 	O 	0.4652	0.5114	0.3035	-0.456
Mof_O 	O 	0.1069	0.404	0.2753	-0.443
Mof_O 	O 	0.1054	0.4577	0.1657	-0.287
Mof_C 	C 	0.3972	0.5053	0.2613	0.408
Mof_C 	C 	0.3466	0.4927	0.2951	-0.143
Mof_C 	C 	0.2687	0.4766	0.2491	0.073
Mof_H 	H 	0.2476	0.4767	0.1951	0.035
Mof_C 	C 	0.2217	0.4603	0.281	-0.128
Mof_C 	C 	0.1392	0.4396	0.2373	0.363
Mof_C 	C 	0.4799	0.1078	0.1421	0.011
Mof_H 	H 	0.5237	0.1744	0.1497	0.033
Mof_N 	N 	0.4196	0.2112	0.1311	-0.197
Mof_N 	N 	0.4211	0.8059	0.1324	-0.197
Mof_C 	C 	0.4807	0.9145	0.1429	0.01
Mof_H 	H 	0.5252	0.8506	0.1511	0.035
Mof_C 	C 	0.3635	0.9136	0.1268	0.006
Mof_H 	H 	0.3209	0.849	0.1234	0.037
Mof_C 	C 	0.3631	0.1065	0.1257	0.019
Mof_H 	H 	0.3199	0.1715	0.1207	0.033
Mof_C 	C 	0.0554	0.0021	0.3077	-0.004
Mof_H 	H 	0.095	0.0683	0.3493	0.021
Mof_C 	C 	0.0536	0.8012	0.3056	0.008
Mof_H 	H 	0.0936	0.7351	0.3468	0.018
Mof_Ni	Ni	0.57929	0.51044	0.36959	1.118
Mof_O 	O 	0.566	0.4888	0.9671	-0.367
Mof_O 	O 	0.6782	0.4842	0.9789	-0.355
Mof_C 	C 	0.6352	0.4848	0.0088	0.311
Mof_C 	C 	0.6686	0.4825	0.0949	-0.099
Mof_C 	C 	0.6219	0.4932	0.1257	0.054
Mof_H 	H 	0.569	0.5009	0.0938	0.049
Mof_C 	C 	0.7441	0.465	0.1387	0.051
Mof_H 	H 	0.7745	0.4557	0.115	0.045
Mof_O 	O 	0.6354	0.5067	0.3118	-0.424
Mof_O 	O 	0.5348	0.5114	0.1965	-0.455
Mof_O 	O 	0.8931	0.404	0.2247	-0.417
Mof_O 	O 	0.8946	0.4577	0.3343	-0.256
Mof_C 	C 	0.6028	0.5053	0.2387	0.407
Mof_C 	C 	0.6534	0.4927	0.2049	-0.14
Mof_C 	C 	0.7313	0.4766	0.2509	0.069
Mof_H 	H 	0.7524	0.4767	0.3049	0.04
Mof_C 	C 	0.7783	0.4603	0.219	-0.119
Mof_C 	C 	0.8608	0.4396	0.2627	0.357
Mof_C 	C 	0.5201	0.1078	0.3579	0.011
Mof_H 	H 	0.4763	0.1744	0.3503	0.032
Mof_N 	N 	0.5804	0.2112	0.3689	-0.197
Mof_N 	N 	0.5789	0.8059	0.3676	-0.196
Mof_C 	C 	0.5193	0.9145	0.3571	0.01
Mof_H 	H 	0.4748	0.8506	0.3489	0.034
Mof_C 	C 	0.6365	0.9136	0.3732	0.006
Mof_H 	H 	0.6791	0.849	0.3766	0.04
Mof_C 	C 	0.6369	0.1065	0.3743	0.019
Mof_H 	H 	0.6801	0.1715	0.3793	0.035
Mof_C 	C 	0.9446	0.0021	0.1923	0.043
Mof_H 	H 	0.905	0.0683	0.1507	0.021
Mof_C 	C 	0.9464	0.8012	0.1944	0.062
Mof_H 	H 	0.9064	0.7351	0.1532	0.015
Mof_Ni	Ni	0.57929	0.48956	0.86959	1.118
Mof_O 	O 	0.566	0.5112	0.4671	-0.361
Mof_O 	O 	0.6782	0.5158	0.4789	-0.349
Mof_C 	C 	0.6352	0.5152	0.5088	0.3
Mof_C 	C 	0.6686	0.5175	0.5949	-0.096
Mof_C 	C 	0.6219	0.5068	0.6257	0.052
Mof_H 	H 	0.569	0.4991	0.5938	0.049
Mof_C 	C 	0.7441	0.535	0.6387	0.049
Mof_H 	H 	0.7745	0.5443	0.615	0.045
Mof_O 	O 	0.6354	0.4933	0.8118	-0.424
Mof_O 	O 	0.5348	0.4886	0.6965	-0.455
Mof_O 	O 	0.8931	0.596	0.7247	-0.416
Mof_O 	O 	0.8946	0.5423	0.8343	-0.257
Mof_C 	C 	0.6028	0.4947	0.7387	0.407
Mof_C 	C 	0.6534	0.5073	0.7049	-0.139
Mof_C 	C 	0.7313	0.5234	0.7509	0.068
Mof_H 	H 	0.7524	0.5233	0.8049	0.04
Mof_C 	C 	0.7783	0.5397	0.719	-0.118
Mof_C 	C 	0.8608	0.5604	0.7627	0.357
Mof_C 	C 	0.5201	0.8922	0.8579	0.01
Mof_H 	H 	0.4763	0.8256	0.8503	0.032
Mof_N 	N 	0.5804	0.7888	0.8689	-0.197
Mof_N 	N 	0.5789	0.1941	0.8676	-0.197
Mof_C 	C 	0.5193	0.0855	0.8571	0.009
Mof_H 	H 	0.4748	0.1494	0.8489	0.034
Mof_C 	C 	0.6365	0.0864	0.8732	0.006
Mof_H 	H 	0.6791	0.151	0.8766	0.04
Mof_C 	C 	0.6369	0.8935	0.8743	0.018
Mof_H 	H 	0.6801	0.8285	0.8793	0.035
Mof_C 	C 	0.9446	0.9979	0.6923	0.044
Mof_H 	H 	0.905	0.9317	0.6507	0.02
Mof_C 	C 	0.9464	0.1988	0.6944	0.063
Mof_H 	H 	0.9064	0.2649	0.6532	0.014
Mof_Ni	Ni	0.42071	0.48956	0.63041	1.118
Mof_O 	O 	0.434	0.5112	0.0329	-0.355
Mof_O 	O 	0.3218	0.5158	0.0211	-0.347
Mof_C 	C 	0.3648	0.5152	0.9912	0.289
Mof_C 	C 	0.3314	0.5175	0.9051	-0.097
Mof_C 	C 	0.3781	0.5068	0.8743	0.052
Mof_H 	H 	0.431	0.4991	0.9062	0.048
Mof_C 	C 	0.2559	0.535	0.8613	0.052
Mof_H 	H 	0.2255	0.5443	0.885	0.04
Mof_O 	O 	0.3646	0.4933	0.6882	-0.426
Mof_O 	O 	0.4652	0.4886	0.8035	-0.456
Mof_O 	O 	0.1069	0.596	0.7753	-0.444
Mof_O 	O 	0.1054	0.5423	0.6657	-0.289
Mof_C 	C 	0.3972	0.4947	0.7613	0.407
Mof_C 	C 	0.3466	0.5073	0.7951	-0.142
Mof_C 	C 	0.2687	0.5234	0.7491	0.072
Mof_H 	H 	0.2476	0.5233	0.6951	0.034
Mof_C 	C 	0.2217	0.5397	0.781	-0.128
Mof_C 	C 	0.1392	0.5604	0.7373	0.363
Mof_C 	C 	0.4799	0.8922	0.6421	0.011
Mof_H 	H 	0.5237	0.8256	0.6497	0.032
Mof_N 	N 	0.4196	0.7888	0.6311	-0.197
Mof_N 	N 	0.4211	0.1941	0.6324	-0.197
Mof_C 	C 	0.4807	0.0855	0.6429	0.01
Mof_H 	H 	0.5252	0.1494	0.6511	0.035
Mof_C 	C 	0.3635	0.0864	0.6268	0.006
Mof_H 	H 	0.3209	0.151	0.6234	0.037
Mof_C 	C 	0.3631	0.8935	0.6257	0.018
Mof_H 	H 	0.3199	0.8285	0.6207	0.032
Mof_C 	C 	0.0554	0.9979	0.8077	-0.004
Mof_H 	H 	0.095	0.9317	0.8493	0.021
Mof_C 	C 	0.0536	0.1988	0.8056	0.008
Mof_H 	H 	0.0936	0.2649	0.8468	0.017
Mof_Ni	Ni	-2.29154e-17	0.4023	0.25	1.06
Mof_N 	N 	-2.29154e-17	0.1002	0.25	-0.235
Mof_N 	N 	-2.29154e-17	0.6929	0.25	-0.251
Mof_Ni	Ni	4.11642e-33	0.5977	0.75	1.059
Mof_N 	N 	4.11642e-33	0.8998	0.75	-0.236
Mof_N 	N 	4.11642e-33	0.3071	0.75	-0.251
_end
