# CIF file generated by openbabel 3.1.0, see https://openbabel.org
data_I
_chemical_name_common 'ZNGLUD_clean'
_cell_length_a 7.22
_cell_length_b 10.463
_cell_length_c 11.19
_cell_angle_alpha 90
_cell_angle_beta 90
_cell_angle_gamma 90
_space_group_name_H-M_alt 'P 1'
_space_group_name_Hall 'P 1'
loop_
    _symmetry_equiv_pos_as_xyz
    x,y,z
loop_
    _atom_site_label
    _atom_site_type_symbol
    _atom_site_fract_x
    _atom_site_fract_y
    _atom_site_fract_z
    _atom_site_occupancy
    Zn1      Zn       0.37210    0.67880    0.20920    1.000
    Zn2      Zn       0.87210    0.32120    0.29080    1.000
    Zn3      Zn       0.12790    0.17880    0.79080    1.000
    Zn4      Zn       0.62790    0.82120    0.70920    1.000
    H1       H        0.40100    0.46000    0.47600    1.000
    H2       H        0.12900    0.50300    0.57400    1.000
    H3       H        0.24800    0.62900    0.59900    1.000
    H4       H        0.95000    0.63200    0.42700    1.000
    H5       H        0.12000    0.75700    0.45600    1.000
    H6       H        0.54900    0.63200    0.37900    1.000
    H7       H        0.39800    0.70900    0.42600    1.000
    H8       H        0.90100    0.54000    0.02400    1.000
    H9       H        0.62900    0.49700    0.92600    1.000
    H10      H        0.74800    0.37100    0.90100    1.000
    H11      H        0.45000    0.36800    0.07300    1.000
    H12      H        0.62000    0.24300    0.04400    1.000
    H13      H        0.04900    0.36800    0.12100    1.000
    H14      H        0.89800    0.29100    0.07400    1.000
    H15      H        0.09900    0.96000    0.52400    1.000
    H16      H        0.37100    0.00300    0.42600    1.000
    H17      H        0.25200    0.12900    0.40100    1.000
    H18      H        0.55000    0.13200    0.57300    1.000
    H19      H        0.38000    0.25700    0.54400    1.000
    H20      H        0.95100    0.13200    0.62100    1.000
    H21      H        0.10200    0.20900    0.57400    1.000
    H22      H        0.59900    0.04000    0.97600    1.000
    H23      H        0.87100    0.99700    0.07400    1.000
    H24      H        0.75200    0.87100    0.09900    1.000
    H25      H        0.05000    0.86800    0.92700    1.000
    H26      H        0.88000    0.74300    0.95600    1.000
    H27      H        0.45100    0.86800    0.87900    1.000
    H28      H        0.60200    0.79100    0.92600    1.000
    C1       C        0.21020    0.46970    0.33990    1.000
    C2       C        0.31860    0.53770    0.43950    1.000
    C3       C        0.18720    0.58430    0.53590    1.000
    C4       C        0.03610    0.67250    0.49040    1.000
    C5       C        0.91210    0.72480    0.58900    1.000
    C6       C        0.71020    0.53030    0.16010    1.000
    C7       C        0.81860    0.46230    0.06050    1.000
    C8       C        0.68720    0.41570    0.96410    1.000
    C9       C        0.53610    0.32750    0.00960    1.000
    C10      C        0.41210    0.27520    0.91100    1.000
    C11      C        0.28980    0.96970    0.66010    1.000
    C12      C        0.18140    0.03770    0.56050    1.000
    C13      C        0.31280    0.08430    0.46410    1.000
    C14      C        0.46390    0.17250    0.50960    1.000
    C15      C        0.58790    0.22480    0.41100    1.000
    C16      C        0.78980    0.03030    0.83990    1.000
    C17      C        0.68140    0.96230    0.93950    1.000
    C18      C        0.81280    0.91570    0.03590    1.000
    C19      C        0.96390    0.82750    0.99040    1.000
    C20      C        0.08790    0.77520    0.08900    1.000
    N1       N        0.43260    0.64190    0.38980    1.000
    N2       N        0.93260    0.35810    0.11020    1.000
    N3       N        0.06740    0.14190    0.61020    1.000
    N4       N        0.56740    0.85810    0.88980    1.000
    O1       O        0.22640    0.50650    0.23460    1.000
    O2       O        0.10710    0.37880    0.37460    1.000
    O3       O        0.76580    0.78470    0.55420    1.000
    O4       O        0.94460    0.70860    0.69720    1.000
    O5       O        0.72640    0.49350    0.26540    1.000
    O6       O        0.60710    0.62120    0.12540    1.000
    O7       O        0.26580    0.21530    0.94580    1.000
    O8       O        0.44460    0.29140    0.80280    1.000
    O9       O        0.27360    0.00650    0.76540    1.000
    O10      O        0.39290    0.87880    0.62540    1.000
    O11      O        0.73420    0.28470    0.44580    1.000
    O12      O        0.55540    0.20860    0.30280    1.000
    O13      O        0.77360    0.99350    0.73460    1.000
    O14      O        0.89290    0.12120    0.87460    1.000
    O15      O        0.23420    0.71530    0.05420    1.000
    O16      O        0.05540    0.79140    0.19720    1.000
