# CIF file generated by openbabel 3.1.0, see https://openbabel.org
data_I
_chemical_name_common 'image0'
_cell_length_a 9.9602
_cell_length_b 17.0086
_cell_length_c 12.2279
_cell_angle_alpha 90
_cell_angle_beta 96.947
_cell_angle_gamma 90
_space_group_name_H-M_alt 'P 1'
_space_group_name_Hall 'P 1'
loop_
    _symmetry_equiv_pos_as_xyz
    x,y,z
loop_
    _atom_site_label
    _atom_site_type_symbol
    _atom_site_fract_x
    _atom_site_fract_y
    _atom_site_fract_z
    _atom_site_occupancy
    C1       C        0.33490    0.05740    0.21740    1.000
    C2       C        0.83310    0.11700    0.23860    1.000
    C3       C        0.58300    0.08830    0.23390    1.000
    H1       H        0.59700    0.03860    0.20140    1.000
    C4       C        0.45360    0.11090    0.25360    1.000
    C5       C        0.69300    0.13940    0.26240    1.000
    C6       C        0.43200    0.18240    0.30180    1.000
    H2       H        0.34330    0.19790    0.31380    1.000
    C7       C        0.67240    0.21110    0.31160    1.000
    H3       H        0.74580    0.24600    0.33090    1.000
    C8       C        0.54170    0.23110    0.33250    1.000
    C9       C        0.59280    0.25570    0.58030    1.000
    H4       H        0.69170    0.25650    0.59460    1.000
    H5       H        0.56270    0.20390    0.55190    1.000
    H6       H        0.55440    0.26620    0.64900    1.000
    C10      C        0.54690    0.31660    0.49830    1.000
    C11      C        0.48010    0.37600    0.34310    1.000
    C12      C        0.44240    0.39720    0.22690    1.000
    C13      C        0.38450    0.36710    0.04760    1.000
    H7       H        0.37430    0.32980    0.98940    1.000
    C14      C        0.35830    0.44490    0.02350    1.000
    H8       H        0.32480    0.46120    0.95100    1.000
    C15      C        0.38220    0.49840    0.10780    1.000
    H9       H        0.36690    0.55270    0.09310    1.000
    N1       N        0.52050    0.30412    0.38750    1.000
    N2       N        0.52210    0.39128    0.51940    1.000
    N3       N        0.47950    0.42836    0.42090    1.000
    N4       N        0.42680    0.47502    0.21070    1.000
    N5       N        0.42440    0.34190    0.15110    1.000
    O1       O        0.35220    0.98500    0.21580    1.000
    O2       O        0.22410    0.09235    0.19290    1.000
    O3       O        0.84380    0.05952    0.17230    1.000
    O4       O        0.93200    0.15455    0.28370    1.000
    Cu1      Cu       0.45556    0.54850    0.34140    1.000
    C16      C        0.16510    0.55740    0.28260    1.000
    C17      C        0.66690    0.61700    0.26140    1.000
    C18      C        0.91700    0.58830    0.26610    1.000
    H10      H        0.90300    0.53860    0.29860    1.000
    C19      C        0.04640    0.61090    0.24640    1.000
    C20      C        0.80700    0.63940    0.23760    1.000
    C21      C        0.06800    0.68240    0.19820    1.000
    H11      H        0.15670    0.69790    0.18620    1.000
    C22      C        0.82760    0.71110    0.18840    1.000
    H12      H        0.75420    0.74600    0.16910    1.000
    C23      C        0.95830    0.73110    0.16750    1.000
    C24      C        0.90720    0.75570    0.91970    1.000
    H13      H        0.80830    0.75650    0.90540    1.000
    H14      H        0.93730    0.70390    0.94810    1.000
    H15      H        0.94560    0.76620    0.85100    1.000
    C25      C        0.95310    0.81660    0.00170    1.000
    C26      C        0.01990    0.87600    0.15690    1.000
    C27      C        0.05760    0.89720    0.27310    1.000
    C28      C        0.11550    0.86710    0.45240    1.000
    H16      H        0.12570    0.82980    0.51060    1.000
    C29      C        0.14170    0.94490    0.47650    1.000
    H17      H        0.17520    0.96120    0.54900    1.000
    C30      C        0.11780    0.99840    0.39220    1.000
    H18      H        0.13310    0.05270    0.40690    1.000
    N6       N        0.97950    0.80412    0.11250    1.000
    N7       N        0.97790    0.89128    0.98060    1.000
    N8       N        0.02050    0.92836    0.07910    1.000
    N9       N        0.07320    0.97502    0.28930    1.000
    N10      N        0.07560    0.84190    0.34890    1.000
    O5       O        0.14780    0.48500    0.28420    1.000
    O6       O        0.27590    0.59235    0.30710    1.000
    O7       O        0.65620    0.55952    0.32770    1.000
    O8       O        0.56800    0.65455    0.21630    1.000
    Cu2      Cu       0.04444    0.04850    0.15860    1.000
    C31      C        0.66510    0.94260    0.78260    1.000
    C32      C        0.16690    0.88300    0.76140    1.000
    C33      C        0.41700    0.91170    0.76610    1.000
    H19      H        0.40300    0.96140    0.79860    1.000
    C34      C        0.54640    0.88910    0.74640    1.000
    C35      C        0.30700    0.86060    0.73760    1.000
    C36      C        0.56800    0.81760    0.69820    1.000
    H20      H        0.65670    0.80210    0.68620    1.000
    C37      C        0.32760    0.78890    0.68840    1.000
    H21      H        0.25420    0.75400    0.66910    1.000
    C38      C        0.45830    0.76890    0.66750    1.000
    C39      C        0.40720    0.74430    0.41970    1.000
    H22      H        0.30830    0.74350    0.40540    1.000
    H23      H        0.43730    0.79610    0.44810    1.000
    H24      H        0.44560    0.73380    0.35100    1.000
    C40      C        0.45310    0.68340    0.50170    1.000
    C41      C        0.51990    0.62400    0.65690    1.000
    C42      C        0.55760    0.60280    0.77310    1.000
    C43      C        0.61550    0.63290    0.95240    1.000
    H25      H        0.62570    0.67020    0.01060    1.000
    C44      C        0.64170    0.55510    0.97650    1.000
    H26      H        0.67520    0.53880    0.04900    1.000
    C45      C        0.61780    0.50160    0.89220    1.000
    H27      H        0.63310    0.44730    0.90690    1.000
    N11      N        0.47950    0.69588    0.61250    1.000
    N12      N        0.47790    0.60872    0.48060    1.000
    N13      N        0.52050    0.57164    0.57910    1.000
    N14      N        0.57320    0.52498    0.78930    1.000
    N15      N        0.57560    0.65810    0.84890    1.000
    O9       O        0.64780    0.01500    0.78420    1.000
    O10      O        0.77590    0.90765    0.80710    1.000
    O11      O        0.15620    0.94048    0.82770    1.000
    O12      O        0.06800    0.84545    0.71630    1.000
    Cu3      Cu       0.54444    0.45150    0.65860    1.000
    C46      C        0.83490    0.44260    0.71740    1.000
    C47      C        0.33310    0.38300    0.73860    1.000
    C48      C        0.08300    0.41170    0.73390    1.000
    H28      H        0.09700    0.46140    0.70140    1.000
    C49      C        0.95360    0.38910    0.75360    1.000
    C50      C        0.19300    0.36060    0.76240    1.000
    C51      C        0.93200    0.31760    0.80180    1.000
    H29      H        0.84330    0.30210    0.81380    1.000
    C52      C        0.17240    0.28890    0.81160    1.000
    H30      H        0.24580    0.25400    0.83090    1.000
    C53      C        0.04170    0.26890    0.83250    1.000
    C54      C        0.09280    0.24430    0.08030    1.000
    H31      H        0.19170    0.24350    0.09460    1.000
    H32      H        0.06270    0.29610    0.05190    1.000
    H33      H        0.05440    0.23380    0.14900    1.000
    C55      C        0.04690    0.18340    0.99830    1.000
    C56      C        0.98010    0.12400    0.84310    1.000
    C57      C        0.94240    0.10280    0.72690    1.000
    C58      C        0.88450    0.13290    0.54760    1.000
    H34      H        0.87430    0.17020    0.48940    1.000
    C59      C        0.85830    0.05510    0.52350    1.000
    H35      H        0.82480    0.03880    0.45100    1.000
    C60      C        0.88220    0.00160    0.60780    1.000
    H36      H        0.86690    0.94730    0.59310    1.000
    N16      N        0.02050    0.19588    0.88750    1.000
    N17      N        0.02210    0.10872    0.01940    1.000
    N18      N        0.97950    0.07164    0.92090    1.000
    N19      N        0.92680    0.02498    0.71070    1.000
    N20      N        0.92440    0.15810    0.65110    1.000
    O13      O        0.85220    0.51500    0.71580    1.000
    O14      O        0.72410    0.40765    0.69290    1.000
    O15      O        0.34380    0.44048    0.67230    1.000
    O16      O        0.43200    0.34545    0.78370    1.000
    Cu4      Cu       0.95556    0.95150    0.84140    1.000
