data_functionalizedCrystal
_audit_creation_method	'EQeq! by Chris Wilmer'
_symmetry_space_group_name_H-M	'P1'
_symmetry_Int_Tables_number	1
_symmetry_cell_setting	triclinic
loop_
_symmetry_equiv_pos_as_xyz
  x,y,z
_cell_length_a	40.8076
_cell_length_b	20.371
_cell_length_c	29.8948
_cell_angle_alpha	90
_cell_angle_beta	109.963
_cell_angle_gamma	90
loop_
_atom_site_label
_atom_site_type_symbol
_atom_site_fract_x
_atom_site_fract_y
_atom_site_fract_z
_atom_site_charge
Mof_Th	Th	0.22719	0.59822	0.21182	0.053
Mof_Th	Th	0.12683	0.60172	0.1365	0.054
Mof_Th	Th	0.19622	0.65139	0.07715	0.055
Mof_Th	Th	0.24386	0.48077	0.11588	0.056
Mof_Th	Th	0.14332	0.4858	0.04	0.056
Mof_Th	Th	0.17424	0.43079	0.17475	0.054
Mof_Th	Th	0.17945	0.86962	0.20149	0.072
Mof_Th	Th	0.97838	0.61075	0.9272	0.069
Mof_Th	Th	0.23272	0.46891	0.41941	0.039
Mof_Th	Th	0.21007	0.47643	0.40534	0.038
Mof_Th	Th	0.03408	0.5169	0.2582	0.046
Mof_S 	S 	0.31543	0.52653	0.22939	0.594
Mof_S 	S 	0.24544	0.76389	0.17256	0.603
Mof_S 	S 	0.23749	0.46315	0.29503	0.597
Mof_S 	S 	0.12965	0.77129	0.08972	0.591
Mof_S 	S 	0.25042	0.32546	0.18241	0.612
Mof_S 	S 	0.16391	0.70214	0.24231	0.595
Mof_S 	S 	0.20817	0.40135	0.99602	0.602
Mof_S 	S 	0.11094	0.3307	0.08064	0.621
Mof_S 	S 	0.05445	0.54347	0.03131	0.618
Mof_S 	S 	0.08783	0.46539	0.18403	0.621
Mof_S 	S 	0.15486	0.39661	0.45227	0.745
Mof_S 	S 	0.27062	0.40492	0.5395	0.659
Mof_S 	S 	0.0107	0.4633	0.8756	0.573
Mof_O 	O 	0.22195	0.4938	0.1777	-0.021
Mof_O 	O 	0.18287	0.6347	0.1458	-0.021
Mof_O 	O 	0.13914	0.4976	0.1147	-0.021
Mof_O 	O 	0.19636	0.539	0.0668	-0.023
Mof_O 	O 	0.17018	0.5431	0.2051	-0.01
Mof_O 	O 	0.24659	0.5986	0.141	-0.013
Mof_O 	O 	0.13664	0.6049	0.0587	-0.012
Mof_O 	O 	0.18777	0.418	0.1002	-0.013
Mof_O 	O 	0.28944	0.5677	0.2404	-0.157
Mof_O 	O 	0.29979	0.4963	0.1818	-0.153
Mof_O 	O 	0.32713	0.4738	0.2652	-0.154
Mof_O 	O 	0.34523	0.567	0.2305	-0.154
Mof_O 	O 	0.23581	0.7363	0.1243	-0.157
Mof_O 	O 	0.2183	0.8119	0.1721	-0.159
Mof_O 	O 	0.24677	0.7117	0.207	-0.162
Mof_O 	O 	0.27925	0.7958	0.1847	-0.161
Mof_O 	O 	0.23992	0.4515	0.3449	-0.158
Mof_O 	O 	0.23433	0.5347	0.2862	-0.153
Mof_O 	O 	0.2061	0.4306	0.2629	-0.156
Mof_O 	O 	0.26859	0.4387	0.2871	-0.164
Mof_O 	O 	0.11635	0.7168	0.1111	-0.155
Mof_O 	O 	0.15721	0.7464	0.0726	-0.153
Mof_O 	O 	0.14426	0.8235	0.1252	-0.151
Mof_O 	O 	0.10082	0.7982	0.0497	-0.152
Mof_O 	O 	0.25831	0.3708	0.1491	-0.159
Mof_O 	O 	0.21614	0.3409	0.1852	-0.163
Mof_O 	O 	0.2506	0.2586	0.1655	-0.161
Mof_O 	O 	0.2768	0.3332	0.2295	-0.168
Mof_O 	O 	0.13505	0.6599	0.213	-0.153
Mof_O 	O 	0.16606	0.7594	0.2132	-0.158
Mof_O 	O 	0.19699	0.6651	0.2555	-0.153
Mof_O 	O 	0.15745	0.7246	0.2847	-0.159
Mof_O 	O 	0.2344	0.4172	0.0425	-0.158
Mof_O 	O 	0.17337	0.4201	0.9961	-0.158
Mof_O 	O 	0.2158	0.4394	0.9586	-0.16
Mof_O 	O 	0.2094	0.332	0.9858	-0.158
Mof_O 	O 	0.13573	0.3423	0.1285	-0.163
Mof_O 	O 	0.1155	0.3798	0.0471	-0.163
Mof_O 	O 	0.1167	0.2656	0.0654	-0.162
Mof_O 	O 	0.0756	0.332	0.081	-0.167
Mof_O 	O 	0.07075	0.5905	0.0695	-0.163
Mof_O 	O 	0.08038	0.5154	0.0129	-0.164
Mof_O 	O 	0.0384	0.4909	0.0492	-0.172
Mof_O 	O 	0.0277	0.5782	0.9935	-0.165
Mof_O 	O 	0.12195	0.4336	0.2008	-0.162
Mof_O 	O 	0.0911	0.5334	0.1705	-0.166
Mof_O 	O 	0.0737	0.4645	0.2224	-0.168
Mof_O 	O 	0.0655	0.429	0.1427	-0.167
Mof_O 	O 	0.16534	0.3464	0.4896	-0.191
Mof_O 	O 	0.1379	0.4516	0.4674	-0.19
Mof_O 	O 	0.1922	0.4261	0.4538	-0.068
Mof_O 	O 	0.1692	0.406	0.4216	-0.199
Mof_O 	O 	0.1368	0.373	0.4077	-0.167
Mof_O 	O 	0.24475	0.3582	0.5443	-0.174
Mof_O 	O 	0.2757	0.459	0.5735	-0.169
Mof_O 	O 	0.3044	0.3707	0.5514	-0.157
Mof_O 	O 	0.2651	0.4299	0.4952	-0.207
Mof_O 	O 	0.2366	0.4392	0.4857	0.011
Mof_O 	O 	0.0047	0.5257	0.8934	-0.165
Mof_O 	O 	0.2197	0.5741	0.3665	0.002
Mof_O 	O 	0.2185	0.3598	0.3932	0.011
Mof_O 	O 	0.1728	0.4804	0.3623	0
Mof_O 	O 	0.1673	0.439	0.3281	0.01
Mof_O 	O 	0.2862	0.5409	0.4475	0.006
Mof_O 	O 	0.2722	0.5135	0.4329	-0
Mof_O 	O 	0.9967	0.4028	0.8993	-0.121
Mof_O 	O 	0.989	0.4576	0.8242	-0.154
Mof_O 	O 	0.0466	0.4551	0.8807	-0.162
Mof_Th	Th	0.72719	0.09822	0.21182	0.052
Mof_Th	Th	0.62683	0.10172	0.1365	0.052
Mof_Th	Th	0.69622	0.15139	0.07715	0.054
Mof_Th	Th	0.74386	0.98077	0.11588	0.055
Mof_Th	Th	0.64332	0.9858	0.04	0.055
Mof_Th	Th	0.67424	0.93079	0.17475	0.053
Mof_Th	Th	0.67945	0.36962	0.20149	0.071
Mof_Th	Th	0.47838	0.11075	0.9272	0.068
Mof_Th	Th	0.73272	0.96891	0.41941	0.038
Mof_Th	Th	0.71007	0.97643	0.40534	0.037
Mof_Th	Th	0.53408	0.0169	0.2582	0.045
Mof_S 	S 	0.81543	0.02653	0.22939	0.592
Mof_S 	S 	0.74544	0.26389	0.17256	0.603
Mof_S 	S 	0.73749	0.96315	0.29503	0.598
Mof_S 	S 	0.62965	0.27129	0.08972	0.591
Mof_S 	S 	0.75042	0.82546	0.18241	0.612
Mof_S 	S 	0.66391	0.20214	0.24231	0.595
Mof_S 	S 	0.70817	0.90135	0.99602	0.601
Mof_S 	S 	0.61094	0.8307	0.08064	0.621
Mof_S 	S 	0.55445	0.04347	0.03131	0.617
Mof_S 	S 	0.58783	0.96539	0.18403	0.621
Mof_S 	S 	0.65486	0.89661	0.45227	0.745
Mof_S 	S 	0.77062	0.90492	0.5395	0.659
Mof_S 	S 	0.5107	0.9633	0.8756	0.572
Mof_O 	O 	0.72195	0.9938	0.1777	-0.021
Mof_O 	O 	0.68287	0.1347	0.1458	-0.021
Mof_O 	O 	0.63914	0.9976	0.1147	-0.021
Mof_O 	O 	0.69636	0.039	0.0668	-0.023
Mof_O 	O 	0.67018	0.0431	0.2051	-0.011
Mof_O 	O 	0.74659	0.0986	0.141	-0.013
Mof_O 	O 	0.63664	0.1049	0.0587	-0.013
Mof_O 	O 	0.68777	0.918	0.1002	-0.013
Mof_O 	O 	0.78944	0.0677	0.2404	-0.157
Mof_O 	O 	0.79979	0.9963	0.1818	-0.152
Mof_O 	O 	0.82713	0.9738	0.2652	-0.153
Mof_O 	O 	0.84523	0.067	0.2305	-0.154
Mof_O 	O 	0.73581	0.2363	0.1243	-0.157
Mof_O 	O 	0.7183	0.3119	0.1721	-0.159
Mof_O 	O 	0.74677	0.2117	0.207	-0.162
Mof_O 	O 	0.77925	0.2958	0.1847	-0.161
Mof_O 	O 	0.73992	0.9515	0.3449	-0.158
Mof_O 	O 	0.73433	0.0347	0.2862	-0.154
Mof_O 	O 	0.7061	0.9306	0.2629	-0.156
Mof_O 	O 	0.76859	0.9387	0.2871	-0.164
Mof_O 	O 	0.61635	0.2168	0.1111	-0.156
Mof_O 	O 	0.65721	0.2464	0.0726	-0.154
Mof_O 	O 	0.64426	0.3235	0.1252	-0.152
Mof_O 	O 	0.60082	0.2982	0.0497	-0.152
Mof_O 	O 	0.75831	0.8708	0.1491	-0.159
Mof_O 	O 	0.71614	0.8409	0.1852	-0.163
Mof_O 	O 	0.7506	0.7586	0.1655	-0.161
Mof_O 	O 	0.7768	0.8332	0.2295	-0.168
Mof_O 	O 	0.63505	0.1599	0.213	-0.153
Mof_O 	O 	0.66606	0.2594	0.2132	-0.158
Mof_O 	O 	0.69699	0.1651	0.2555	-0.153
Mof_O 	O 	0.65745	0.2246	0.2847	-0.159
Mof_O 	O 	0.7344	0.9172	0.0425	-0.157
Mof_O 	O 	0.67337	0.9201	0.9961	-0.158
Mof_O 	O 	0.7158	0.9394	0.9586	-0.16
Mof_O 	O 	0.7094	0.832	0.9858	-0.158
Mof_O 	O 	0.63573	0.8423	0.1285	-0.163
Mof_O 	O 	0.6155	0.8798	0.0471	-0.163
Mof_O 	O 	0.6167	0.7656	0.0654	-0.162
Mof_O 	O 	0.5756	0.832	0.081	-0.167
Mof_O 	O 	0.57075	0.0905	0.0695	-0.163
Mof_O 	O 	0.58038	0.0154	0.0129	-0.165
Mof_O 	O 	0.5384	0.9909	0.0492	-0.172
Mof_O 	O 	0.5277	0.0782	0.9935	-0.164
Mof_O 	O 	0.62195	0.9336	0.2008	-0.162
Mof_O 	O 	0.5911	0.0334	0.1705	-0.167
Mof_O 	O 	0.5737	0.9645	0.2224	-0.168
Mof_O 	O 	0.5655	0.929	0.1427	-0.167
Mof_O 	O 	0.66534	0.8464	0.4896	-0.191
Mof_O 	O 	0.6379	0.9516	0.4674	-0.19
Mof_O 	O 	0.6922	0.9261	0.4538	-0.067
Mof_O 	O 	0.6692	0.906	0.4216	-0.199
Mof_O 	O 	0.6368	0.873	0.4077	-0.167
Mof_O 	O 	0.74475	0.8582	0.5443	-0.174
Mof_O 	O 	0.7757	0.959	0.5735	-0.169
Mof_O 	O 	0.8044	0.8707	0.5514	-0.157
Mof_O 	O 	0.7651	0.9299	0.4952	-0.207
Mof_O 	O 	0.7366	0.9392	0.4857	0.011
Mof_O 	O 	0.5047	0.0257	0.8934	-0.165
Mof_O 	O 	0.7197	0.0741	0.3665	0.002
Mof_O 	O 	0.7185	0.8598	0.3932	0.011
Mof_O 	O 	0.6728	0.9804	0.3623	0.001
Mof_O 	O 	0.6673	0.939	0.3281	0.01
Mof_O 	O 	0.7862	0.0409	0.4475	0.006
Mof_O 	O 	0.7722	0.0135	0.4329	-0
Mof_O 	O 	0.4967	0.9028	0.8993	-0.121
Mof_O 	O 	0.489	0.9576	0.8242	-0.154
Mof_O 	O 	0.5466	0.9551	0.8807	-0.162
Mof_Th	Th	0.77281	0.59822	0.28818	0.052
Mof_Th	Th	0.87317	0.60172	0.3635	0.053
Mof_Th	Th	0.80378	0.65139	0.42285	0.054
Mof_Th	Th	0.75614	0.48077	0.38412	0.055
Mof_Th	Th	0.85668	0.4858	0.46	0.055
Mof_Th	Th	0.82576	0.43079	0.32525	0.053
Mof_Th	Th	0.82055	0.86962	0.29851	0.071
Mof_Th	Th	0.02162	0.61075	0.5728	0.068
Mof_Th	Th	0.76728	0.46891	0.08059	0.038
Mof_Th	Th	0.78993	0.47643	0.09466	0.037
Mof_Th	Th	0.96592	0.5169	0.2418	0.045
Mof_S 	S 	0.68457	0.52653	0.27061	0.593
Mof_S 	S 	0.75456	0.76389	0.32744	0.603
Mof_S 	S 	0.76251	0.46315	0.20497	0.597
Mof_S 	S 	0.87035	0.77129	0.41028	0.591
Mof_S 	S 	0.74958	0.32546	0.31759	0.612
Mof_S 	S 	0.83609	0.70214	0.25769	0.595
Mof_S 	S 	0.79183	0.40135	0.50398	0.601
Mof_S 	S 	0.88906	0.3307	0.41936	0.621
Mof_S 	S 	0.94555	0.54347	0.46869	0.618
Mof_S 	S 	0.91217	0.46539	0.31597	0.621
Mof_S 	S 	0.84514	0.39661	0.04773	0.745
Mof_S 	S 	0.72938	0.40492	0.9605	0.659
Mof_S 	S 	0.9893	0.4633	0.6244	0.573
Mof_O 	O 	0.77805	0.4938	0.3223	-0.021
Mof_O 	O 	0.81713	0.6347	0.3542	-0.021
Mof_O 	O 	0.86086	0.4976	0.3853	-0.021
Mof_O 	O 	0.80364	0.539	0.4332	-0.023
Mof_O 	O 	0.82982	0.5431	0.2949	-0.01
Mof_O 	O 	0.75341	0.5986	0.359	-0.013
Mof_O 	O 	0.86336	0.6049	0.4413	-0.012
Mof_O 	O 	0.81223	0.418	0.3998	-0.013
Mof_O 	O 	0.71056	0.5677	0.2596	-0.157
Mof_O 	O 	0.70021	0.4963	0.3182	-0.153
Mof_O 	O 	0.67287	0.4738	0.2348	-0.154
Mof_O 	O 	0.65477	0.567	0.2695	-0.154
Mof_O 	O 	0.76419	0.7363	0.3757	-0.157
Mof_O 	O 	0.7817	0.8119	0.3279	-0.159
Mof_O 	O 	0.75323	0.7117	0.293	-0.162
Mof_O 	O 	0.72075	0.7958	0.3153	-0.161
Mof_O 	O 	0.76008	0.4515	0.1551	-0.158
Mof_O 	O 	0.76567	0.5347	0.2138	-0.153
Mof_O 	O 	0.7939	0.4306	0.2371	-0.156
Mof_O 	O 	0.73141	0.4387	0.2129	-0.164
Mof_O 	O 	0.88365	0.7168	0.3889	-0.155
Mof_O 	O 	0.84279	0.7464	0.4274	-0.154
Mof_O 	O 	0.85574	0.8235	0.3748	-0.152
Mof_O 	O 	0.89918	0.7982	0.4503	-0.152
Mof_O 	O 	0.74169	0.3708	0.3509	-0.159
Mof_O 	O 	0.78386	0.3409	0.3148	-0.163
Mof_O 	O 	0.7494	0.2586	0.3345	-0.161
Mof_O 	O 	0.7232	0.3332	0.2705	-0.168
Mof_O 	O 	0.86495	0.6599	0.287	-0.153
Mof_O 	O 	0.83394	0.7594	0.2868	-0.158
Mof_O 	O 	0.80301	0.6651	0.2445	-0.153
Mof_O 	O 	0.84255	0.7246	0.2153	-0.159
Mof_O 	O 	0.7656	0.4172	0.4575	-0.158
Mof_O 	O 	0.82663	0.4201	0.5039	-0.158
Mof_O 	O 	0.7842	0.4394	0.5414	-0.16
Mof_O 	O 	0.7906	0.332	0.5142	-0.158
Mof_O 	O 	0.86427	0.3423	0.3715	-0.163
Mof_O 	O 	0.8845	0.3798	0.4529	-0.163
Mof_O 	O 	0.8833	0.2656	0.4346	-0.162
Mof_O 	O 	0.9244	0.332	0.419	-0.167
Mof_O 	O 	0.92925	0.5905	0.4305	-0.163
Mof_O 	O 	0.91962	0.5154	0.4871	-0.164
Mof_O 	O 	0.9616	0.4909	0.4508	-0.172
Mof_O 	O 	0.9723	0.5782	0.5065	-0.165
Mof_O 	O 	0.87805	0.4336	0.2992	-0.162
Mof_O 	O 	0.9089	0.5334	0.3295	-0.166
Mof_O 	O 	0.9263	0.4645	0.2776	-0.168
Mof_O 	O 	0.9345	0.429	0.3573	-0.167
Mof_O 	O 	0.83466	0.3464	0.0104	-0.191
Mof_O 	O 	0.8621	0.4516	0.0326	-0.19
Mof_O 	O 	0.8078	0.4261	0.0462	-0.068
Mof_O 	O 	0.8308	0.406	0.0784	-0.199
Mof_O 	O 	0.8632	0.373	0.0923	-0.167
Mof_O 	O 	0.75525	0.3582	0.9557	-0.174
Mof_O 	O 	0.7243	0.459	0.9265	-0.169
Mof_O 	O 	0.6956	0.3707	0.9486	-0.157
Mof_O 	O 	0.7349	0.4299	0.0048	-0.207
Mof_O 	O 	0.7634	0.4392	0.0143	0.011
Mof_O 	O 	0.9953	0.5257	0.6066	-0.165
Mof_O 	O 	0.7803	0.5741	0.1335	0.002
Mof_O 	O 	0.7815	0.3598	0.1068	0.011
Mof_O 	O 	0.8272	0.4804	0.1377	0
Mof_O 	O 	0.8327	0.439	0.1719	0.01
Mof_O 	O 	0.7138	0.5409	0.0525	0.006
Mof_O 	O 	0.7278	0.5135	0.0671	-0
Mof_O 	O 	0.0033	0.4028	0.6007	-0.121
Mof_O 	O 	0.011	0.4576	0.6758	-0.154
Mof_O 	O 	0.9534	0.4551	0.6193	-0.162
Mof_Th	Th	0.27281	0.09822	0.28818	0.052
Mof_Th	Th	0.37317	0.10172	0.3635	0.053
Mof_Th	Th	0.30378	0.15139	0.42285	0.054
Mof_Th	Th	0.25614	0.98077	0.38412	0.055
Mof_Th	Th	0.35668	0.9858	0.46	0.055
Mof_Th	Th	0.32576	0.93079	0.32525	0.053
Mof_Th	Th	0.32055	0.36962	0.29851	0.071
Mof_Th	Th	0.52162	0.11075	0.5728	0.068
Mof_Th	Th	0.26728	0.96891	0.08059	0.038
Mof_Th	Th	0.28993	0.97643	0.09466	0.037
Mof_Th	Th	0.46592	0.0169	0.2418	0.045
Mof_S 	S 	0.18457	0.02653	0.27061	0.592
Mof_S 	S 	0.25456	0.26389	0.32744	0.603
Mof_S 	S 	0.26251	0.96315	0.20497	0.598
Mof_S 	S 	0.37035	0.27129	0.41028	0.591
Mof_S 	S 	0.24958	0.82546	0.31759	0.612
Mof_S 	S 	0.33609	0.20214	0.25769	0.595
Mof_S 	S 	0.29183	0.90135	0.50398	0.601
Mof_S 	S 	0.38906	0.8307	0.41936	0.621
Mof_S 	S 	0.44555	0.04347	0.46869	0.618
Mof_S 	S 	0.41217	0.96539	0.31597	0.621
Mof_S 	S 	0.34514	0.89661	0.04773	0.745
Mof_S 	S 	0.22938	0.90492	0.9605	0.658
Mof_S 	S 	0.4893	0.9633	0.6244	0.573
Mof_O 	O 	0.27805	0.9938	0.3223	-0.021
Mof_O 	O 	0.31713	0.1347	0.3542	-0.021
Mof_O 	O 	0.36086	0.9976	0.3853	-0.021
Mof_O 	O 	0.30364	0.039	0.4332	-0.023
Mof_O 	O 	0.32982	0.0431	0.2949	-0.01
Mof_O 	O 	0.25341	0.0986	0.359	-0.013
Mof_O 	O 	0.36336	0.1049	0.4413	-0.012
Mof_O 	O 	0.31223	0.918	0.3998	-0.013
Mof_O 	O 	0.21056	0.0677	0.2596	-0.157
Mof_O 	O 	0.20021	0.9963	0.3182	-0.153
Mof_O 	O 	0.17287	0.9738	0.2348	-0.153
Mof_O 	O 	0.15477	0.067	0.2695	-0.154
Mof_O 	O 	0.26419	0.2363	0.3757	-0.157
Mof_O 	O 	0.2817	0.3119	0.3279	-0.159
Mof_O 	O 	0.25323	0.2117	0.293	-0.162
Mof_O 	O 	0.22075	0.2958	0.3153	-0.161
Mof_O 	O 	0.26008	0.9515	0.1551	-0.158
Mof_O 	O 	0.26567	0.0347	0.2138	-0.154
Mof_O 	O 	0.2939	0.9306	0.2371	-0.156
Mof_O 	O 	0.23141	0.9387	0.2129	-0.164
Mof_O 	O 	0.38365	0.2168	0.3889	-0.155
Mof_O 	O 	0.34279	0.2464	0.4274	-0.154
Mof_O 	O 	0.35574	0.3235	0.3748	-0.152
Mof_O 	O 	0.39918	0.2982	0.4503	-0.152
Mof_O 	O 	0.24169	0.8708	0.3509	-0.159
Mof_O 	O 	0.28386	0.8409	0.3148	-0.163
Mof_O 	O 	0.2494	0.7586	0.3345	-0.161
Mof_O 	O 	0.2232	0.8332	0.2705	-0.168
Mof_O 	O 	0.36495	0.1599	0.287	-0.153
Mof_O 	O 	0.33394	0.2594	0.2868	-0.158
Mof_O 	O 	0.30301	0.1651	0.2445	-0.153
Mof_O 	O 	0.34255	0.2246	0.2153	-0.159
Mof_O 	O 	0.2656	0.9172	0.4575	-0.158
Mof_O 	O 	0.32663	0.9201	0.5039	-0.158
Mof_O 	O 	0.2842	0.9394	0.5414	-0.16
Mof_O 	O 	0.2906	0.832	0.5142	-0.158
Mof_O 	O 	0.36427	0.8423	0.3715	-0.163
Mof_O 	O 	0.3845	0.8798	0.4529	-0.163
Mof_O 	O 	0.3833	0.7656	0.4346	-0.162
Mof_O 	O 	0.4244	0.832	0.419	-0.167
Mof_O 	O 	0.42925	0.0905	0.4305	-0.163
Mof_O 	O 	0.41962	0.0154	0.4871	-0.164
Mof_O 	O 	0.4616	0.9909	0.4508	-0.172
Mof_O 	O 	0.4723	0.0782	0.5065	-0.165
Mof_O 	O 	0.37805	0.9336	0.2992	-0.162
Mof_O 	O 	0.4089	0.0334	0.3295	-0.167
Mof_O 	O 	0.4263	0.9645	0.2776	-0.168
Mof_O 	O 	0.4345	0.929	0.3573	-0.167
Mof_O 	O 	0.33466	0.8464	0.0104	-0.191
Mof_O 	O 	0.3621	0.9516	0.0326	-0.19
Mof_O 	O 	0.3078	0.9261	0.0462	-0.067
Mof_O 	O 	0.3308	0.906	0.0784	-0.199
Mof_O 	O 	0.3632	0.873	0.0923	-0.167
Mof_O 	O 	0.25525	0.8582	0.9557	-0.174
Mof_O 	O 	0.2243	0.959	0.9265	-0.17
Mof_O 	O 	0.1956	0.8707	0.9486	-0.157
Mof_O 	O 	0.2349	0.9299	0.0048	-0.207
Mof_O 	O 	0.2634	0.9392	0.0143	0.011
Mof_O 	O 	0.4953	0.0257	0.6066	-0.165
Mof_O 	O 	0.2803	0.0741	0.1335	0.001
Mof_O 	O 	0.2815	0.8598	0.1068	0.011
Mof_O 	O 	0.3272	0.9804	0.1377	0.001
Mof_O 	O 	0.3327	0.939	0.1719	0.01
Mof_O 	O 	0.2138	0.0409	0.0525	0.006
Mof_O 	O 	0.2278	0.0135	0.0671	-0
Mof_O 	O 	0.5033	0.9028	0.6007	-0.121
Mof_O 	O 	0.511	0.9576	0.6758	-0.154
Mof_O 	O 	0.4534	0.9551	0.6193	-0.162
Mof_Th	Th	0.77281	0.40178	0.78818	0.052
Mof_Th	Th	0.87317	0.39828	0.8635	0.053
Mof_Th	Th	0.80378	0.34861	0.92285	0.054
Mof_Th	Th	0.75614	0.51923	0.88412	0.055
Mof_Th	Th	0.85668	0.5142	0.96	0.055
Mof_Th	Th	0.82576	0.56921	0.82525	0.053
Mof_Th	Th	0.82055	0.13038	0.79851	0.071
Mof_Th	Th	0.02162	0.38925	0.0728	0.068
Mof_Th	Th	0.76728	0.53109	0.58059	0.038
Mof_Th	Th	0.78993	0.52357	0.59466	0.037
Mof_Th	Th	0.96592	0.4831	0.7418	0.045
Mof_S 	S 	0.68457	0.47347	0.77061	0.593
Mof_S 	S 	0.75456	0.23611	0.82744	0.603
Mof_S 	S 	0.76251	0.53685	0.70497	0.597
Mof_S 	S 	0.87035	0.22871	0.91028	0.591
Mof_S 	S 	0.74958	0.67454	0.81759	0.612
Mof_S 	S 	0.83609	0.29786	0.75769	0.595
Mof_S 	S 	0.79183	0.59865	0.00398	0.602
Mof_S 	S 	0.88906	0.6693	0.91936	0.621
Mof_S 	S 	0.94555	0.45653	0.96869	0.618
Mof_S 	S 	0.91217	0.53461	0.81597	0.621
Mof_S 	S 	0.84514	0.60339	0.54773	0.745
Mof_S 	S 	0.72938	0.59508	0.4605	0.659
Mof_S 	S 	0.9893	0.5367	0.1244	0.573
Mof_O 	O 	0.77805	0.5062	0.8223	-0.021
Mof_O 	O 	0.81713	0.3653	0.8542	-0.021
Mof_O 	O 	0.86086	0.5024	0.8853	-0.021
Mof_O 	O 	0.80364	0.461	0.9332	-0.023
Mof_O 	O 	0.82982	0.4569	0.7949	-0.01
Mof_O 	O 	0.75341	0.4014	0.859	-0.013
Mof_O 	O 	0.86336	0.3951	0.9413	-0.012
Mof_O 	O 	0.81223	0.582	0.8998	-0.013
Mof_O 	O 	0.71056	0.4323	0.7596	-0.157
Mof_O 	O 	0.70021	0.5037	0.8182	-0.153
Mof_O 	O 	0.67287	0.5262	0.7348	-0.154
Mof_O 	O 	0.65477	0.433	0.7695	-0.154
Mof_O 	O 	0.76419	0.2637	0.8757	-0.157
Mof_O 	O 	0.7817	0.1881	0.8279	-0.159
Mof_O 	O 	0.75323	0.2883	0.793	-0.162
Mof_O 	O 	0.72075	0.2042	0.8153	-0.161
Mof_O 	O 	0.76008	0.5485	0.6551	-0.158
Mof_O 	O 	0.76567	0.4653	0.7138	-0.153
Mof_O 	O 	0.7939	0.5694	0.7371	-0.156
Mof_O 	O 	0.73141	0.5613	0.7129	-0.164
Mof_O 	O 	0.88365	0.2832	0.8889	-0.155
Mof_O 	O 	0.84279	0.2536	0.9274	-0.153
Mof_O 	O 	0.85574	0.1765	0.8748	-0.151
Mof_O 	O 	0.89918	0.2018	0.9503	-0.152
Mof_O 	O 	0.74169	0.6292	0.8509	-0.159
Mof_O 	O 	0.78386	0.6591	0.8148	-0.163
Mof_O 	O 	0.7494	0.7414	0.8345	-0.161
Mof_O 	O 	0.7232	0.6668	0.7705	-0.168
Mof_O 	O 	0.86495	0.3401	0.787	-0.153
Mof_O 	O 	0.83394	0.2406	0.7868	-0.158
Mof_O 	O 	0.80301	0.3349	0.7445	-0.153
Mof_O 	O 	0.84255	0.2754	0.7153	-0.159
Mof_O 	O 	0.7656	0.5828	0.9575	-0.158
Mof_O 	O 	0.82663	0.5799	0.0039	-0.158
Mof_O 	O 	0.7842	0.5606	0.0414	-0.16
Mof_O 	O 	0.7906	0.668	0.0142	-0.158
Mof_O 	O 	0.86427	0.6577	0.8715	-0.163
Mof_O 	O 	0.8845	0.6202	0.9529	-0.163
Mof_O 	O 	0.8833	0.7344	0.9346	-0.162
Mof_O 	O 	0.9244	0.668	0.919	-0.167
Mof_O 	O 	0.92925	0.4095	0.9305	-0.163
Mof_O 	O 	0.91962	0.4846	0.9871	-0.164
Mof_O 	O 	0.9616	0.5091	0.9508	-0.172
Mof_O 	O 	0.9723	0.4218	0.0065	-0.165
Mof_O 	O 	0.87805	0.5664	0.7992	-0.162
Mof_O 	O 	0.9089	0.4666	0.8295	-0.166
Mof_O 	O 	0.9263	0.5355	0.7776	-0.168
Mof_O 	O 	0.9345	0.571	0.8573	-0.167
Mof_O 	O 	0.83466	0.6536	0.5104	-0.191
Mof_O 	O 	0.8621	0.5484	0.5326	-0.19
Mof_O 	O 	0.8078	0.5739	0.5462	-0.068
Mof_O 	O 	0.8308	0.594	0.5784	-0.199
Mof_O 	O 	0.8632	0.627	0.5923	-0.167
Mof_O 	O 	0.75525	0.6418	0.4557	-0.174
Mof_O 	O 	0.7243	0.541	0.4265	-0.169
Mof_O 	O 	0.6956	0.6293	0.4486	-0.157
Mof_O 	O 	0.7349	0.5701	0.5048	-0.207
Mof_O 	O 	0.7634	0.5608	0.5143	0.011
Mof_O 	O 	0.9953	0.4743	0.1066	-0.165
Mof_O 	O 	0.7803	0.4259	0.6335	0.002
Mof_O 	O 	0.7815	0.6402	0.6068	0.011
Mof_O 	O 	0.8272	0.5196	0.6377	0
Mof_O 	O 	0.8327	0.561	0.6719	0.01
Mof_O 	O 	0.7138	0.4591	0.5525	0.006
Mof_O 	O 	0.7278	0.4865	0.5671	-0
Mof_O 	O 	0.0033	0.5972	0.1007	-0.121
Mof_O 	O 	0.011	0.5424	0.1758	-0.154
Mof_O 	O 	0.9534	0.5449	0.1193	-0.162
Mof_Th	Th	0.27281	0.90178	0.78818	0.052
Mof_Th	Th	0.37317	0.89828	0.8635	0.052
Mof_Th	Th	0.30378	0.84861	0.92285	0.054
Mof_Th	Th	0.25614	0.01923	0.88412	0.055
Mof_Th	Th	0.35668	0.0142	0.96	0.055
Mof_Th	Th	0.32576	0.06921	0.82525	0.053
Mof_Th	Th	0.32055	0.63038	0.79851	0.071
Mof_Th	Th	0.52162	0.88925	0.0728	0.068
Mof_Th	Th	0.26728	0.03109	0.58059	0.038
Mof_Th	Th	0.28993	0.02357	0.59466	0.037
Mof_Th	Th	0.46592	0.9831	0.7418	0.045
Mof_S 	S 	0.18457	0.97347	0.77061	0.592
Mof_S 	S 	0.25456	0.73611	0.82744	0.603
Mof_S 	S 	0.26251	0.03685	0.70497	0.598
Mof_S 	S 	0.37035	0.72871	0.91028	0.591
Mof_S 	S 	0.24958	0.17454	0.81759	0.612
Mof_S 	S 	0.33609	0.79786	0.75769	0.595
Mof_S 	S 	0.29183	0.09865	0.00398	0.601
Mof_S 	S 	0.38906	0.1693	0.91936	0.621
Mof_S 	S 	0.44555	0.95653	0.96869	0.617
Mof_S 	S 	0.41217	0.03461	0.81597	0.621
Mof_S 	S 	0.34514	0.10339	0.54773	0.745
Mof_S 	S 	0.22938	0.09508	0.4605	0.659
Mof_S 	S 	0.4893	0.0367	0.1244	0.572
Mof_O 	O 	0.27805	0.0062	0.8223	-0.021
Mof_O 	O 	0.31713	0.8653	0.8542	-0.021
Mof_O 	O 	0.36086	0.0024	0.8853	-0.021
Mof_O 	O 	0.30364	0.961	0.9332	-0.023
Mof_O 	O 	0.32982	0.9569	0.7949	-0.011
Mof_O 	O 	0.25341	0.9014	0.859	-0.013
Mof_O 	O 	0.36336	0.8951	0.9413	-0.013
Mof_O 	O 	0.31223	0.082	0.8998	-0.013
Mof_O 	O 	0.21056	0.9323	0.7596	-0.157
Mof_O 	O 	0.20021	0.0037	0.8182	-0.152
Mof_O 	O 	0.17287	0.0262	0.7348	-0.153
Mof_O 	O 	0.15477	0.933	0.7695	-0.154
Mof_O 	O 	0.26419	0.7637	0.8757	-0.157
Mof_O 	O 	0.2817	0.6881	0.8279	-0.159
Mof_O 	O 	0.25323	0.7883	0.793	-0.162
Mof_O 	O 	0.22075	0.7042	0.8153	-0.161
Mof_O 	O 	0.26008	0.0485	0.6551	-0.158
Mof_O 	O 	0.26567	0.9653	0.7138	-0.154
Mof_O 	O 	0.2939	0.0694	0.7371	-0.156
Mof_O 	O 	0.23141	0.0613	0.7129	-0.164
Mof_O 	O 	0.38365	0.7832	0.8889	-0.156
Mof_O 	O 	0.34279	0.7536	0.9274	-0.154
Mof_O 	O 	0.35574	0.6765	0.8748	-0.152
Mof_O 	O 	0.39918	0.7018	0.9503	-0.152
Mof_O 	O 	0.24169	0.1292	0.8509	-0.159
Mof_O 	O 	0.28386	0.1591	0.8148	-0.163
Mof_O 	O 	0.2494	0.2414	0.8345	-0.161
Mof_O 	O 	0.2232	0.1668	0.7705	-0.168
Mof_O 	O 	0.36495	0.8401	0.787	-0.153
Mof_O 	O 	0.33394	0.7406	0.7868	-0.158
Mof_O 	O 	0.30301	0.8349	0.7445	-0.153
Mof_O 	O 	0.34255	0.7754	0.7153	-0.159
Mof_O 	O 	0.2656	0.0828	0.9575	-0.157
Mof_O 	O 	0.32663	0.0799	0.0039	-0.158
Mof_O 	O 	0.2842	0.0606	0.0414	-0.16
Mof_O 	O 	0.2906	0.168	0.0142	-0.158
Mof_O 	O 	0.36427	0.1577	0.8715	-0.163
Mof_O 	O 	0.3845	0.1202	0.9529	-0.163
Mof_O 	O 	0.3833	0.2344	0.9346	-0.162
Mof_O 	O 	0.4244	0.168	0.919	-0.167
Mof_O 	O 	0.42925	0.9095	0.9305	-0.163
Mof_O 	O 	0.41962	0.9846	0.9871	-0.165
Mof_O 	O 	0.4616	0.0091	0.9508	-0.172
Mof_O 	O 	0.4723	0.9218	0.0065	-0.164
Mof_O 	O 	0.37805	0.0664	0.7992	-0.162
Mof_O 	O 	0.4089	0.9666	0.8295	-0.167
Mof_O 	O 	0.4263	0.0355	0.7776	-0.168
Mof_O 	O 	0.4345	0.071	0.8573	-0.167
Mof_O 	O 	0.33466	0.1536	0.5104	-0.191
Mof_O 	O 	0.3621	0.0484	0.5326	-0.19
Mof_O 	O 	0.3078	0.0739	0.5462	-0.067
Mof_O 	O 	0.3308	0.094	0.5784	-0.199
Mof_O 	O 	0.3632	0.127	0.5923	-0.167
Mof_O 	O 	0.25525	0.1418	0.4557	-0.174
Mof_O 	O 	0.2243	0.041	0.4265	-0.169
Mof_O 	O 	0.1956	0.1293	0.4486	-0.157
Mof_O 	O 	0.2349	0.0701	0.5048	-0.207
Mof_O 	O 	0.2634	0.0608	0.5143	0.011
Mof_O 	O 	0.4953	0.9743	0.1066	-0.165
Mof_O 	O 	0.2803	0.9259	0.6335	0.002
Mof_O 	O 	0.2815	0.1402	0.6068	0.011
Mof_O 	O 	0.3272	0.0196	0.6377	0.001
Mof_O 	O 	0.3327	0.061	0.6719	0.01
Mof_O 	O 	0.2138	0.9591	0.5525	0.006
Mof_O 	O 	0.2278	0.9865	0.5671	-0
Mof_O 	O 	0.5033	0.0972	0.1007	-0.121
Mof_O 	O 	0.511	0.0424	0.1758	-0.154
Mof_O 	O 	0.4534	0.0449	0.1193	-0.162
Mof_Th	Th	0.22719	0.40178	0.71182	0.052
Mof_Th	Th	0.12683	0.39828	0.6365	0.053
Mof_Th	Th	0.19622	0.34861	0.57715	0.054
Mof_Th	Th	0.24386	0.51923	0.61588	0.055
Mof_Th	Th	0.14332	0.5142	0.54	0.055
Mof_Th	Th	0.17424	0.56921	0.67475	0.053
Mof_Th	Th	0.17945	0.13038	0.70149	0.071
Mof_Th	Th	0.97838	0.38925	0.4272	0.068
Mof_Th	Th	0.23272	0.53109	0.91941	0.038
Mof_Th	Th	0.21007	0.52357	0.90534	0.037
Mof_Th	Th	0.03408	0.4831	0.7582	0.045
Mof_S 	S 	0.31543	0.47347	0.72939	0.593
Mof_S 	S 	0.24544	0.23611	0.67256	0.603
Mof_S 	S 	0.23749	0.53685	0.79503	0.597
Mof_S 	S 	0.12965	0.22871	0.58972	0.591
Mof_S 	S 	0.25042	0.67454	0.68241	0.612
Mof_S 	S 	0.16391	0.29786	0.74231	0.595
Mof_S 	S 	0.20817	0.59865	0.49602	0.601
Mof_S 	S 	0.11094	0.6693	0.58064	0.621
Mof_S 	S 	0.05445	0.45653	0.53131	0.618
Mof_S 	S 	0.08783	0.53461	0.68403	0.621
Mof_S 	S 	0.15486	0.60339	0.95227	0.745
Mof_S 	S 	0.27062	0.59508	0.0395	0.659
Mof_S 	S 	0.0107	0.5367	0.3756	0.573
Mof_O 	O 	0.22195	0.5062	0.6777	-0.021
Mof_O 	O 	0.18287	0.3653	0.6458	-0.021
Mof_O 	O 	0.13914	0.5024	0.6147	-0.021
Mof_O 	O 	0.19636	0.461	0.5668	-0.023
Mof_O 	O 	0.17018	0.4569	0.7051	-0.01
Mof_O 	O 	0.24659	0.4014	0.641	-0.013
Mof_O 	O 	0.13664	0.3951	0.5587	-0.012
Mof_O 	O 	0.18777	0.582	0.6002	-0.013
Mof_O 	O 	0.28944	0.4323	0.7404	-0.157
Mof_O 	O 	0.29979	0.5037	0.6818	-0.153
Mof_O 	O 	0.32713	0.5262	0.7652	-0.154
Mof_O 	O 	0.34523	0.433	0.7305	-0.154
Mof_O 	O 	0.23581	0.2637	0.6243	-0.157
Mof_O 	O 	0.2183	0.1881	0.6721	-0.159
Mof_O 	O 	0.24677	0.2883	0.707	-0.162
Mof_O 	O 	0.27925	0.2042	0.6847	-0.161
Mof_O 	O 	0.23992	0.5485	0.8449	-0.158
Mof_O 	O 	0.23433	0.4653	0.7862	-0.153
Mof_O 	O 	0.2061	0.5694	0.7629	-0.156
Mof_O 	O 	0.26859	0.5613	0.7871	-0.164
Mof_O 	O 	0.11635	0.2832	0.6111	-0.155
Mof_O 	O 	0.15721	0.2536	0.5726	-0.154
Mof_O 	O 	0.14426	0.1765	0.6252	-0.152
Mof_O 	O 	0.10082	0.2018	0.5497	-0.152
Mof_O 	O 	0.25831	0.6292	0.6491	-0.159
Mof_O 	O 	0.21614	0.6591	0.6852	-0.163
Mof_O 	O 	0.2506	0.7414	0.6655	-0.161
Mof_O 	O 	0.2768	0.6668	0.7295	-0.168
Mof_O 	O 	0.13505	0.3401	0.713	-0.153
Mof_O 	O 	0.16606	0.2406	0.7132	-0.158
Mof_O 	O 	0.19699	0.3349	0.7555	-0.153
Mof_O 	O 	0.15745	0.2754	0.7847	-0.159
Mof_O 	O 	0.2344	0.5828	0.5425	-0.158
Mof_O 	O 	0.17337	0.5799	0.4961	-0.158
Mof_O 	O 	0.2158	0.5606	0.4586	-0.16
Mof_O 	O 	0.2094	0.668	0.4858	-0.158
Mof_O 	O 	0.13573	0.6577	0.6285	-0.163
Mof_O 	O 	0.1155	0.6202	0.5471	-0.163
Mof_O 	O 	0.1167	0.7344	0.5654	-0.162
Mof_O 	O 	0.0756	0.668	0.581	-0.167
Mof_O 	O 	0.07075	0.4095	0.5695	-0.163
Mof_O 	O 	0.08038	0.4846	0.5129	-0.164
Mof_O 	O 	0.0384	0.5091	0.5492	-0.172
Mof_O 	O 	0.0277	0.4218	0.4935	-0.165
Mof_O 	O 	0.12195	0.5664	0.7008	-0.162
Mof_O 	O 	0.0911	0.4666	0.6705	-0.166
Mof_O 	O 	0.0737	0.5355	0.7224	-0.168
Mof_O 	O 	0.0655	0.571	0.6427	-0.167
Mof_O 	O 	0.16534	0.6536	0.9896	-0.191
Mof_O 	O 	0.1379	0.5484	0.9674	-0.19
Mof_O 	O 	0.1922	0.5739	0.9538	-0.068
Mof_O 	O 	0.1692	0.594	0.9216	-0.199
Mof_O 	O 	0.1368	0.627	0.9077	-0.167
Mof_O 	O 	0.24475	0.6418	0.0443	-0.174
Mof_O 	O 	0.2757	0.541	0.0735	-0.169
Mof_O 	O 	0.3044	0.6293	0.0514	-0.157
Mof_O 	O 	0.2651	0.5701	0.9952	-0.207
Mof_O 	O 	0.2366	0.5608	0.9857	0.011
Mof_O 	O 	0.0047	0.4743	0.3934	-0.165
Mof_O 	O 	0.2197	0.4259	0.8665	0.002
Mof_O 	O 	0.2185	0.6402	0.8932	0.011
Mof_O 	O 	0.1728	0.5196	0.8623	0
Mof_O 	O 	0.1673	0.561	0.8281	0.01
Mof_O 	O 	0.2862	0.4591	0.9475	0.006
Mof_O 	O 	0.2722	0.4865	0.9329	-0
Mof_O 	O 	0.9967	0.5972	0.3993	-0.121
Mof_O 	O 	0.989	0.5424	0.3242	-0.154
Mof_O 	O 	0.0466	0.5449	0.3807	-0.162
Mof_Th	Th	0.72719	0.90178	0.71182	0.052
Mof_Th	Th	0.62683	0.89828	0.6365	0.053
Mof_Th	Th	0.69622	0.84861	0.57715	0.054
Mof_Th	Th	0.74386	0.01923	0.61588	0.055
Mof_Th	Th	0.64332	0.0142	0.54	0.055
Mof_Th	Th	0.67424	0.06921	0.67475	0.053
Mof_Th	Th	0.67945	0.63038	0.70149	0.071
Mof_Th	Th	0.47838	0.88925	0.4272	0.068
Mof_Th	Th	0.73272	0.03109	0.91941	0.038
Mof_Th	Th	0.71007	0.02357	0.90534	0.037
Mof_Th	Th	0.53408	0.9831	0.7582	0.045
Mof_S 	S 	0.81543	0.97347	0.72939	0.592
Mof_S 	S 	0.74544	0.73611	0.67256	0.603
Mof_S 	S 	0.73749	0.03685	0.79503	0.598
Mof_S 	S 	0.62965	0.72871	0.58972	0.591
Mof_S 	S 	0.75042	0.17454	0.68241	0.612
Mof_S 	S 	0.66391	0.79786	0.74231	0.595
Mof_S 	S 	0.70817	0.09865	0.49602	0.601
Mof_S 	S 	0.61094	0.1693	0.58064	0.621
Mof_S 	S 	0.55445	0.95653	0.53131	0.618
Mof_S 	S 	0.58783	0.03461	0.68403	0.621
Mof_S 	S 	0.65486	0.10339	0.95227	0.745
Mof_S 	S 	0.77062	0.09508	0.0395	0.658
Mof_S 	S 	0.5107	0.0367	0.3756	0.573
Mof_O 	O 	0.72195	0.0062	0.6777	-0.021
Mof_O 	O 	0.68287	0.8653	0.6458	-0.021
Mof_O 	O 	0.63914	0.0024	0.6147	-0.021
Mof_O 	O 	0.69636	0.961	0.5668	-0.023
Mof_O 	O 	0.67018	0.9569	0.7051	-0.01
Mof_O 	O 	0.74659	0.9014	0.641	-0.013
Mof_O 	O 	0.63664	0.8951	0.5587	-0.012
Mof_O 	O 	0.68777	0.082	0.6002	-0.013
Mof_O 	O 	0.78944	0.9323	0.7404	-0.157
Mof_O 	O 	0.79979	0.0037	0.6818	-0.153
Mof_O 	O 	0.82713	0.0262	0.7652	-0.153
Mof_O 	O 	0.84523	0.933	0.7305	-0.154
Mof_O 	O 	0.73581	0.7637	0.6243	-0.157
Mof_O 	O 	0.7183	0.6881	0.6721	-0.159
Mof_O 	O 	0.74677	0.7883	0.707	-0.162
Mof_O 	O 	0.77925	0.7042	0.6847	-0.161
Mof_O 	O 	0.73992	0.0485	0.8449	-0.158
Mof_O 	O 	0.73433	0.9653	0.7862	-0.154
Mof_O 	O 	0.7061	0.0694	0.7629	-0.156
Mof_O 	O 	0.76859	0.0613	0.7871	-0.164
Mof_O 	O 	0.61635	0.7832	0.6111	-0.155
Mof_O 	O 	0.65721	0.7536	0.5726	-0.154
Mof_O 	O 	0.64426	0.6765	0.6252	-0.152
Mof_O 	O 	0.60082	0.7018	0.5497	-0.152
Mof_O 	O 	0.75831	0.1292	0.6491	-0.159
Mof_O 	O 	0.71614	0.1591	0.6852	-0.163
Mof_O 	O 	0.7506	0.2414	0.6655	-0.161
Mof_O 	O 	0.7768	0.1668	0.7295	-0.168
Mof_O 	O 	0.63505	0.8401	0.713	-0.153
Mof_O 	O 	0.66606	0.7406	0.7132	-0.158
Mof_O 	O 	0.69699	0.8349	0.7555	-0.153
Mof_O 	O 	0.65745	0.7754	0.7847	-0.159
Mof_O 	O 	0.7344	0.0828	0.5425	-0.158
Mof_O 	O 	0.67337	0.0799	0.4961	-0.158
Mof_O 	O 	0.7158	0.0606	0.4586	-0.16
Mof_O 	O 	0.7094	0.168	0.4858	-0.158
Mof_O 	O 	0.63573	0.1577	0.6285	-0.163
Mof_O 	O 	0.6155	0.1202	0.5471	-0.163
Mof_O 	O 	0.6167	0.2344	0.5654	-0.162
Mof_O 	O 	0.5756	0.168	0.581	-0.167
Mof_O 	O 	0.57075	0.9095	0.5695	-0.163
Mof_O 	O 	0.58038	0.9846	0.5129	-0.164
Mof_O 	O 	0.5384	0.0091	0.5492	-0.172
Mof_O 	O 	0.5277	0.9218	0.4935	-0.165
Mof_O 	O 	0.62195	0.0664	0.7008	-0.162
Mof_O 	O 	0.5911	0.9666	0.6705	-0.167
Mof_O 	O 	0.5737	0.0355	0.7224	-0.168
Mof_O 	O 	0.5655	0.071	0.6427	-0.167
Mof_O 	O 	0.66534	0.1536	0.9896	-0.191
Mof_O 	O 	0.6379	0.0484	0.9674	-0.19
Mof_O 	O 	0.6922	0.0739	0.9538	-0.067
Mof_O 	O 	0.6692	0.094	0.9216	-0.199
Mof_O 	O 	0.6368	0.127	0.9077	-0.167
Mof_O 	O 	0.74475	0.1418	0.0443	-0.174
Mof_O 	O 	0.7757	0.041	0.0735	-0.17
Mof_O 	O 	0.8044	0.1293	0.0514	-0.157
Mof_O 	O 	0.7651	0.0701	0.9952	-0.207
Mof_O 	O 	0.7366	0.0608	0.9857	0.011
Mof_O 	O 	0.5047	0.9743	0.3934	-0.165
Mof_O 	O 	0.7197	0.9259	0.8665	0.001
Mof_O 	O 	0.7185	0.1402	0.8932	0.011
Mof_O 	O 	0.6728	0.0196	0.8623	0.001
Mof_O 	O 	0.6673	0.061	0.8281	0.01
Mof_O 	O 	0.7862	0.9591	0.9475	0.006
Mof_O 	O 	0.7722	0.9865	0.9329	-0
Mof_O 	O 	0.4967	0.0972	0.3993	-0.121
Mof_O 	O 	0.489	0.0424	0.3242	-0.154
Mof_O 	O 	0.5466	0.0449	0.3807	-0.162
Mof_O 	O 	9.21126e-34	0.6213	0.25	-0.004
Mof_O 	O 	0.5	0.1213	0.25	-0.004
Mof_O 	O 	2.76338e-33	0.3787	0.75	-0.004
Mof_O 	O 	0.5	0.8787	0.75	-0.004
_end
