data_functionalizedCrystal
_audit_creation_method	'EQeq! by Chris Wilmer'
_symmetry_space_group_name_H-M	'P1'
_symmetry_Int_Tables_number	1
_symmetry_cell_setting	triclinic
loop_
_symmetry_equiv_pos_as_xyz
  x,y,z
_cell_length_a	11.001
_cell_length_b	11.001
_cell_length_c	6.333
_cell_angle_alpha	90
_cell_angle_beta	90
_cell_angle_gamma	120
loop_
_atom_site_label
_atom_site_type_symbol
_atom_site_fract_x
_atom_site_fract_y
_atom_site_fract_z
_atom_site_charge
Mof_O 	O 	0.015	0.804	0.124	-0.087
Mof_O 	O 	0.003	0.775	0.916	-0.021
Mof_O 	O 	0.197	0.978	0.124	-0.088
Mof_O 	O 	0.231	0.01	0.953	-0.028
Mof_O 	O 	0.926	0.071	0.668	-0.093
Mof_O 	O 	0.868	0.937	0.318	-0.067
Mof_O 	O 	0.345	0.899	0.95	-0.016
Mof_O 	O 	0.321	0.858	0.131	-0.073
Mof_O 	O 	0.103	0.651	0.93	0.003
Mof_O 	O 	0.135	0.691	0.12	-0.116
Mof_O 	O 	0.269	0.534	0.315	-0.075
Mof_O 	O 	0.401	0.593	0.668	-0.083
Mof_C 	C 	0.111	0.78	0.049	0.213
Mof_C 	C 	0.228	0.896	0.045	0.189
Mof_C 	C 	0.941	0.021	0.494	0.128
Mof_C 	C 	0.322	0.594	0.494	0.147
Mof_O 	O 	0.196	0.211	0.124	-0.093
Mof_O 	O 	0.225	0.228	0.916	-0.027
Mof_O 	O 	0.022	0.219	0.124	-0.098
Mof_O 	O 	0.99	0.221	0.953	-0.021
Mof_O 	O 	0.929	0.855	0.668	-0.091
Mof_O 	O 	0.063	0.931	0.318	-0.069
Mof_O 	O 	0.101	0.446	0.95	-0.018
Mof_O 	O 	0.142	0.463	0.131	-0.073
Mof_O 	O 	0.349	0.452	0.93	0.002
Mof_O 	O 	0.309	0.444	0.12	-0.118
Mof_O 	O 	0.466	0.735	0.315	-0.074
Mof_O 	O 	0.407	0.808	0.668	-0.08
Mof_C 	C 	0.22	0.331	0.049	0.217
Mof_C 	C 	0.104	0.332	0.045	0.186
Mof_C 	C 	0.979	0.92	0.494	0.17
Mof_C 	C 	0.406	0.728	0.494	0.148
Mof_O 	O 	0.789	0.985	0.124	-0.087
Mof_O 	O 	0.772	0.997	0.916	-0.02
Mof_O 	O 	0.781	0.803	0.124	-0.108
Mof_O 	O 	0.779	0.769	0.953	-0.004
Mof_O 	O 	0.145	0.074	0.668	-0.093
Mof_O 	O 	0.069	0.132	0.318	-0.077
Mof_O 	O 	0.554	0.655	0.95	-0.02
Mof_O 	O 	0.537	0.679	0.131	-0.073
Mof_O 	O 	0.548	0.897	0.93	0.005
Mof_O 	O 	0.556	0.865	0.12	-0.115
Mof_O 	O 	0.265	0.731	0.315	-0.074
Mof_O 	O 	0.192	0.599	0.668	-0.081
Mof_C 	C 	0.669	0.889	0.049	0.216
Mof_C 	C 	0.668	0.772	0.045	0.181
Mof_C 	C 	0.08	0.059	0.494	0.162
Mof_C 	C 	0.272	0.678	0.494	0.148
Mof_Np	Np	4.75396e-33	0	0.9917	0.071
Mof_Np	Np	0.33333	0.66667	0.9917	0.075
_end
