# CIF file generated by openbabel 3.1.0, see https://openbabel.org
data_I
_chemical_name_common 'EBEMEF_clean'
_cell_length_a 7.4653
_cell_length_b 7.4653
_cell_length_c 12.4142
_cell_angle_alpha 81.7257
_cell_angle_beta 81.7257
_cell_angle_gamma 64.273
_space_group_name_H-M_alt 'P 1'
_space_group_name_Hall 'P 1'
loop_
    _symmetry_equiv_pos_as_xyz
    x,y,z
loop_
    _atom_site_label
    _atom_site_type_symbol
    _atom_site_fract_x
    _atom_site_fract_y
    _atom_site_fract_z
    _atom_site_occupancy
    Zn1      Zn       0.12315    0.87685    0.25000    1.000
    Zn2      Zn       0.87685    0.12315    0.75000    1.000
    Ni1      Ni       0.00000    0.50000    0.00000    1.000
    Ni2      Ni       0.50000    0.00000    0.50000    1.000
    C1       C        0.04040    0.27040    0.09398    1.000
    C2       C        0.07650    0.60770    0.10210    1.000
    C3       C        0.72960    0.95960    0.40602    1.000
    C4       C        0.39230    0.92350    0.39790    1.000
    C5       C        0.95960    0.72960    0.90602    1.000
    C6       C        0.92350    0.39230    0.89790    1.000
    C7       C        0.27040    0.04040    0.59398    1.000
    C8       C        0.60770    0.07650    0.60210    1.000
    N1       N        0.06726    0.12646    0.15003    1.000
    N2       N        0.12315    0.67895    0.16178    1.000
    N3       N        0.87354    0.93274    0.34997    1.000
    N4       N        0.32105    0.87685    0.33822    1.000
    N5       N        0.93274    0.87354    0.84997    1.000
    N6       N        0.87685    0.32105    0.83822    1.000
    N7       N        0.12646    0.06726    0.65003    1.000
    N8       N        0.67895    0.12315    0.66178    1.000
