# CIF file generated by openbabel 3.1.0, see https://openbabel.org
data_I
_chemical_name_common 'image0'
_cell_length_a 18.1249
_cell_length_b 12.1064
_cell_length_c 17.7333
_cell_angle_alpha 90
_cell_angle_beta 107.301
_cell_angle_gamma 90
_space_group_name_H-M_alt 'P 1'
_space_group_name_Hall 'P 1'
loop_
    _symmetry_equiv_pos_as_xyz
    x,y,z
loop_
    _atom_site_label
    _atom_site_type_symbol
    _atom_site_fract_x
    _atom_site_fract_y
    _atom_site_fract_z
    _atom_site_occupancy
    Co1      Co       0.78998    0.15718    0.68643    1.000
    Co2      Co       0.66714    0.34578    0.66121    1.000
    Co3      Co       0.80626    0.31383    0.83621    1.000
    Na1      Na       0.59970    0.00240    0.99450    1.000
    O1       O        0.74830    0.13390    0.57020    1.000
    O2       O        0.64540    0.23360    0.56820    1.000
    O3       O        0.43960    0.29440    0.32550    1.000
    O4       O        0.40660    0.15260    0.24210    1.000
    O5       O        0.64190    0.92000    0.22780    1.000
    O6       O        0.71380    0.86490    0.34740    1.000
    O7       O        0.67070    0.47540    0.73820    1.000
    O8       O        0.74320    0.43960    0.86220    1.000
    O9       O        0.40690    0.64360    0.71150    1.000
    O10      O        0.38910    0.69760    0.82390    1.000
    O11      O        0.71370    0.70310    0.07290    1.000
    O12      O        0.61920    0.82410    0.04170    1.000
    O13      O        0.72840    0.23590    0.74480    1.000
    O14      O        0.47620    0.00820    0.90260    1.000
    H1       H        0.46480    0.95290    0.87190    1.000
    H2       H        0.46670    0.06580    0.87610    1.000
    C1       C        0.64150    0.13410    0.45470    1.000
    C2       C        0.57030    0.18150    0.41510    1.000
    H3       H        0.54890    0.23620    0.44090    1.000
    C3       C        0.53060    0.15000    0.33900    1.000
    C4       C        0.55990    0.06820    0.30190    1.000
    H4       H        0.53140    0.04510    0.25020    1.000
    C5       C        0.63160    0.01860    0.34000    1.000
    C6       C        0.67150    0.05100    0.41720    1.000
    H5       H        0.71910    0.01650    0.44430    1.000
    C7       C        0.68270    0.17120    0.53780    1.000
    C8       C        0.45350    0.20220    0.29810    1.000
    C9       C        0.66500    0.92800    0.30180    1.000
    C10      C        0.64070    0.56770    0.84100    1.000
    C11      C        0.56490    0.58760    0.79720    1.000
    H6       H        0.54470    0.55440    0.74670    1.000
    C12      C        0.51750    0.65620    0.82650    1.000
    C13      C        0.54640    0.70690    0.89970    1.000
    H7       H        0.51390    0.75250    0.91980    1.000
    C14      C        0.62430    0.69010    0.94390    1.000
    C15      C        0.67000    0.61780    0.91530    1.000
    H8       H        0.72140    0.60250    0.94650    1.000
    C16      C        0.68850    0.48630    0.81080    1.000
    C17      C        0.43160    0.66740    0.78460    1.000
    C18      C        0.65510    0.74050    0.02460    1.000
    H9       H        0.69900    0.20400    0.76600    1.000
    Co4      Co       0.28998    0.65718    0.68643    1.000
    Co5      Co       0.16714    0.84578    0.66121    1.000
    Co6      Co       0.30626    0.81383    0.83621    1.000
    Na2      Na       0.09970    0.50240    0.99450    1.000
    O15      O        0.24830    0.63390    0.57020    1.000
    O16      O        0.14540    0.73360    0.56820    1.000
    O17      O        0.93960    0.79440    0.32550    1.000
    O18      O        0.90660    0.65260    0.24210    1.000
    O19      O        0.14190    0.42000    0.22780    1.000
    O20      O        0.21380    0.36490    0.34740    1.000
    O21      O        0.17070    0.97540    0.73820    1.000
    O22      O        0.24320    0.93960    0.86220    1.000
    O23      O        0.90690    0.14360    0.71150    1.000
    O24      O        0.88910    0.19760    0.82390    1.000
    O25      O        0.21370    0.20310    0.07290    1.000
    O26      O        0.11920    0.32410    0.04170    1.000
    O27      O        0.22840    0.73590    0.74480    1.000
    O28      O        0.97620    0.50820    0.90260    1.000
    H10      H        0.96480    0.45290    0.87190    1.000
    H11      H        0.96670    0.56580    0.87610    1.000
    C19      C        0.14150    0.63410    0.45470    1.000
    C20      C        0.07030    0.68150    0.41510    1.000
    H12      H        0.04890    0.73620    0.44090    1.000
    C21      C        0.03060    0.65000    0.33900    1.000
    C22      C        0.05990    0.56820    0.30190    1.000
    H13      H        0.03140    0.54510    0.25020    1.000
    C23      C        0.13160    0.51860    0.34000    1.000
    C24      C        0.17150    0.55100    0.41720    1.000
    H14      H        0.21910    0.51650    0.44430    1.000
    C25      C        0.18270    0.67120    0.53780    1.000
    C26      C        0.95350    0.70220    0.29810    1.000
    C27      C        0.16500    0.42800    0.30180    1.000
    C28      C        0.14070    0.06770    0.84100    1.000
    C29      C        0.06490    0.08760    0.79720    1.000
    H15      H        0.04470    0.05440    0.74670    1.000
    C30      C        0.01750    0.15620    0.82650    1.000
    C31      C        0.04640    0.20690    0.89970    1.000
    H16      H        0.01390    0.25250    0.91980    1.000
    C32      C        0.12430    0.19010    0.94390    1.000
    C33      C        0.17000    0.11780    0.91530    1.000
    H17      H        0.22140    0.10250    0.94650    1.000
    C34      C        0.18850    0.98630    0.81080    1.000
    C35      C        0.93160    0.16740    0.78460    1.000
    C36      C        0.15510    0.24050    0.02460    1.000
    H18      H        0.19900    0.70400    0.76600    1.000
    Co7      Co       0.21002    0.15718    0.31357    1.000
    Co8      Co       0.33286    0.34578    0.33879    1.000
    Co9      Co       0.19374    0.31383    0.16379    1.000
    Na3      Na       0.40030    0.00240    0.00550    1.000
    O29      O        0.25170    0.13390    0.42980    1.000
    O30      O        0.35460    0.23360    0.43180    1.000
    O31      O        0.56040    0.29440    0.67450    1.000
    O32      O        0.59340    0.15260    0.75790    1.000
    O33      O        0.35810    0.92000    0.77220    1.000
    O34      O        0.28620    0.86490    0.65260    1.000
    O35      O        0.32930    0.47540    0.26180    1.000
    O36      O        0.25680    0.43960    0.13780    1.000
    O37      O        0.59310    0.64360    0.28850    1.000
    O38      O        0.61090    0.69760    0.17610    1.000
    O39      O        0.28630    0.70310    0.92710    1.000
    O40      O        0.38080    0.82410    0.95830    1.000
    O41      O        0.27160    0.23590    0.25520    1.000
    O42      O        0.52380    0.00820    0.09740    1.000
    H19      H        0.53520    0.95290    0.12810    1.000
    H20      H        0.53330    0.06580    0.12390    1.000
    C37      C        0.35850    0.13410    0.54530    1.000
    C38      C        0.42970    0.18150    0.58490    1.000
    H21      H        0.45110    0.23620    0.55910    1.000
    C39      C        0.46940    0.15000    0.66100    1.000
    C40      C        0.44010    0.06820    0.69810    1.000
    H22      H        0.46860    0.04510    0.74980    1.000
    C41      C        0.36840    0.01860    0.66000    1.000
    C42      C        0.32850    0.05100    0.58280    1.000
    H23      H        0.28090    0.01650    0.55570    1.000
    C43      C        0.31730    0.17120    0.46220    1.000
    C44      C        0.54650    0.20220    0.70190    1.000
    C45      C        0.33500    0.92800    0.69820    1.000
    C46      C        0.35930    0.56770    0.15900    1.000
    C47      C        0.43510    0.58760    0.20280    1.000
    H24      H        0.45530    0.55440    0.25330    1.000
    C48      C        0.48250    0.65620    0.17350    1.000
    C49      C        0.45360    0.70690    0.10030    1.000
    H25      H        0.48610    0.75250    0.08020    1.000
    C50      C        0.37570    0.69010    0.05610    1.000
    C51      C        0.33000    0.61780    0.08470    1.000
    H26      H        0.27860    0.60250    0.05350    1.000
    C52      C        0.31150    0.48630    0.18920    1.000
    C53      C        0.56840    0.66740    0.21540    1.000
    C54      C        0.34490    0.74050    0.97540    1.000
    H27      H        0.30100    0.20400    0.23400    1.000
    Co10     Co       0.71002    0.65718    0.31357    1.000
    Co11     Co       0.83286    0.84578    0.33879    1.000
    Co12     Co       0.69374    0.81383    0.16379    1.000
    Na4      Na       0.90030    0.50240    0.00550    1.000
    O43      O        0.75170    0.63390    0.42980    1.000
    O44      O        0.85460    0.73360    0.43180    1.000
    O45      O        0.06040    0.79440    0.67450    1.000
    O46      O        0.09340    0.65260    0.75790    1.000
    O47      O        0.85810    0.42000    0.77220    1.000
    O48      O        0.78620    0.36490    0.65260    1.000
    O49      O        0.82930    0.97540    0.26180    1.000
    O50      O        0.75680    0.93960    0.13780    1.000
    O51      O        0.09310    0.14360    0.28850    1.000
    O52      O        0.11090    0.19760    0.17610    1.000
    O53      O        0.78630    0.20310    0.92710    1.000
    O54      O        0.88080    0.32410    0.95830    1.000
    O55      O        0.77160    0.73590    0.25520    1.000
    O56      O        0.02380    0.50820    0.09740    1.000
    H28      H        0.03520    0.45290    0.12810    1.000
    H29      H        0.03330    0.56580    0.12390    1.000
    C55      C        0.85850    0.63410    0.54530    1.000
    C56      C        0.92970    0.68150    0.58490    1.000
    H30      H        0.95110    0.73620    0.55910    1.000
    C57      C        0.96940    0.65000    0.66100    1.000
    C58      C        0.94010    0.56820    0.69810    1.000
    H31      H        0.96860    0.54510    0.74980    1.000
    C59      C        0.86840    0.51860    0.66000    1.000
    C60      C        0.82850    0.55100    0.58280    1.000
    H32      H        0.78090    0.51650    0.55570    1.000
    C61      C        0.81730    0.67120    0.46220    1.000
    C62      C        0.04650    0.70220    0.70190    1.000
    C63      C        0.83500    0.42800    0.69820    1.000
    C64      C        0.85930    0.06770    0.15900    1.000
    C65      C        0.93510    0.08760    0.20280    1.000
    H33      H        0.95530    0.05440    0.25330    1.000
    C66      C        0.98250    0.15620    0.17350    1.000
    C67      C        0.95360    0.20690    0.10030    1.000
    H34      H        0.98610    0.25250    0.08020    1.000
    C68      C        0.87570    0.19010    0.05610    1.000
    C69      C        0.83000    0.11780    0.08470    1.000
    H35      H        0.77860    0.10250    0.05350    1.000
    C70      C        0.81150    0.98630    0.18920    1.000
    C71      C        0.06840    0.16740    0.21540    1.000
    C72      C        0.84490    0.24050    0.97540    1.000
    H36      H        0.80100    0.70400    0.23400    1.000
