data_functionalizedCrystal
_audit_creation_method	'EQeq! by Chris Wilmer'
_symmetry_space_group_name_H-M	'P1'
_symmetry_Int_Tables_number	1
_symmetry_cell_setting	triclinic
loop_
_symmetry_equiv_pos_as_xyz
  x,y,z
_cell_length_a	10.6642
_cell_length_b	10.6642
_cell_length_c	23.998
_cell_angle_alpha	90
_cell_angle_beta	90
_cell_angle_gamma	90
loop_
_atom_site_label
_atom_site_type_symbol
_atom_site_fract_x
_atom_site_fract_y
_atom_site_fract_z
_atom_site_charge
Mof_Na	Na	0.632	0.50901	0.48497	2.81
Mof_Na	Na	0.50901	0.368	0.73497	2.805
Mof_Na	Na	0.49099	0.632	0.23497	2.808
Mof_Na	Na	0.368	0.49099	0.98497	2.53
Mof_Cu	Cu	0.35158	0.39091	0.85136	0.864
Mof_Cu	Cu	0.64842	0.60909	0.35136	0.86
Mof_Cu	Cu	0.60909	0.35158	0.60136	0.86
Mof_Cu	Cu	0.39091	0.64842	0.10136	0.867
Mof_H 	H 	0.9547	0.1084	0.0445	0.044
Mof_H 	H 	0.5016	0.0388	0.0897	0.062
Mof_H 	H 	0.0388	0.4984	0.3397	0.056
Mof_H 	H 	0.1334	0.0994	0.8621	0.071
Mof_H 	H 	0.9006	0.1334	0.6121	0.074
Mof_H 	H 	0.1608	0.6682	0.8718	0.039
Mof_H 	H 	0.2322	0.9338	0.2349	0.039
Mof_H 	H 	0.4742	0.782	0.748	0.018
Mof_H 	H 	0.218	0.4742	0.498	0.019
Mof_H 	H 	0.0012	0.4641	0.4944	0.016
Mof_H 	H 	0.7457	0.4901	0.835	-0.064
Mof_H 	H 	0.8916	0.9547	0.7945	0.055
Mof_H 	H 	0.0994	0.8666	0.1121	0.076
Mof_H 	H 	0.0662	0.2322	0.9849	0.053
Mof_H 	H 	0.9338	0.7678	0.4849	0.036
Mof_H 	H 	0.9988	0.5359	0.9944	-0.061
Mof_H 	H 	0.1054	0.2598	0.2899	0.016
Mof_H 	H 	0.7786	0.633	0.7279	0.065
Mof_H 	H 	0.4984	0.9612	0.5897	0.056
Mof_H 	H 	0.3318	0.1608	0.6218	0.036
Mof_H 	H 	0.7402	0.1054	0.0399	-0.013
Mof_H 	H 	0.1084	0.0453	0.2945	0.052
Mof_H 	H 	0.2543	0.5099	0.335	-0.062
Mof_H 	H 	0.992	0.2283	0.419	0.043
Mof_H 	H 	0.367	0.7786	0.4779	0.065
Mof_H 	H 	0.6682	0.8392	0.1218	0.041
Mof_H 	H 	0.8946	0.7402	0.7899	0.012
Mof_H 	H 	0.7717	0.992	0.169	0.041
Mof_H 	H 	0.0118	0.9883	0.6608	0.034
Mof_H 	H 	0.9882	0.0117	0.1608	0.038
Mof_H 	H 	0.8392	0.3318	0.3718	0.036
Mof_H 	H 	0.5099	0.7457	0.585	-0.061
Mof_H 	H 	0.0453	0.8916	0.5445	0.056
Mof_H 	H 	0.4641	0.9988	0.7444	0.016
Mof_H 	H 	0.4901	0.2543	0.085	-0.037
Mof_H 	H 	0.5359	0.0012	0.2444	0.016
Mof_H 	H 	0.008	0.7717	0.919	0.024
Mof_H 	H 	0.5258	0.218	0.248	0.018
Mof_H 	H 	0.9612	0.5016	0.8397	0.058
Mof_H 	H 	0.2598	0.8946	0.5399	0.013
Mof_H 	H 	0.633	0.2214	0.9779	0.094
Mof_H 	H 	0.8666	0.9006	0.3621	0.074
Mof_H 	H 	0.7678	0.0662	0.7349	0.036
Mof_H 	H 	0.2283	0.008	0.669	0.043
Mof_H 	H 	0.0117	0.0118	0.4108	0.034
Mof_H 	H 	0.9883	0.9882	0.9108	0.027
Mof_H 	H 	0.782	0.5258	0.998	-0.069
Mof_H 	H 	0.2214	0.367	0.2279	0.062
Mof_C 	C 	0.8426	0.9133	0.7682	-0.088
Mof_C 	C 	0.3904	0.8743	0.1514	0.442
Mof_C 	C 	0.8198	0.754	0.0859	0.046
Mof_C 	C 	0.4505	0.0816	0.1146	-0.073
Mof_C 	C 	0.9463	0.0533	0.393	-0.019
Mof_C 	C 	0.9184	0.4505	0.8646	-0.094
Mof_C 	C 	0.2123	0.5558	0.3621	0.094
Mof_C 	C 	0.8165	0.9357	0.147	-0.034
Mof_C 	C 	0.9525	0.7633	0.08297	0.055
Mof_C 	C 	0.0643	0.8165	0.897	-0.039
Mof_C 	C 	0.3241	0.0209	0.7993	-0.142
Mof_C 	C 	0.7551	0.8438	0.1192	-0.072
Mof_C 	C 	0.4098	0.9553	0.7678	-0.005
Mof_C 	C 	0.861	0.9877	0.363	-0.098
Mof_C 	C 	0.6954	0.9183	0.6921	-0.008
Mof_C 	C 	0.2425	0.3401	0.555	-0.146
Mof_C 	C 	0.3046	0.0817	0.1921	0
Mof_C 	C 	0.0447	0.4098	0.5178	-0.002
Mof_C 	C 	0.7831	0.3018	0.9393	0.139
Mof_C 	C 	0.2246	0.2798	0.2281	-0.137
Mof_C 	C 	0.2798	0.7754	0.4781	-0.147
Mof_C 	C 	0.8438	0.2449	0.3692	-0.066
Mof_C 	C 	0.8242	0.5834	0.0203	0.106
Mof_C 	C 	0.6391	0.3849	0.3103	0.469
Mof_C 	C 	0.754	0.1802	0.3359	0.031
Mof_C 	C 	0.246	0.8198	0.8359	0.033
Mof_C 	C 	0.6277	0.72	0.6483	-0.267
Mof_C 	C 	0.3849	0.3609	0.5603	0.469
Mof_C 	C 	0.9877	0.139	0.613	-0.099
Mof_C 	C 	0.6174	0.9848	0.6534	-0.098
Mof_C 	C 	0.7844	0.1559	0.0152	0.141
Mof_C 	C 	0.0816	0.5495	0.3646	-0.089
Mof_C 	C 	0.7575	0.6599	0.055	-0.171
Mof_C 	C 	0.2367	0.9525	0.83297	0.05
Mof_C 	C 	0.3018	0.2169	0.1893	0.101
Mof_C 	C 	0.0537	0.9467	0.893	-0.032
Mof_C 	C 	0.139	0.0123	0.863	-0.095
Mof_C 	C 	0.2169	0.6982	0.4393	0.11
Mof_C 	C 	0.9467	0.9463	0.143	-0.024
Mof_C 	C 	0.1257	0.3904	0.9014	0.432
Mof_C 	C 	0.7754	0.7202	0.7281	-0.147
Mof_C 	C 	0.2449	0.1562	0.6192	-0.065
Mof_C 	C 	0.8375	0.3363	0.5495	0.457
Mof_C 	C 	0.6759	0.9791	0.2993	-0.142
Mof_C 	C 	0.5558	0.7877	0.6121	0.093
Mof_C 	C 	0.6151	0.6391	0.0603	0.474
Mof_C 	C 	0.9553	0.5902	0.0178	0.086
Mof_C 	C 	0.6637	0.8375	0.2995	0.456
Mof_C 	C 	0.0209	0.6759	0.0493	-0.149
Mof_C 	C 	0.8441	0.7844	0.7652	0.022
Mof_C 	C 	0.0152	0.6174	0.4034	-0.097
Mof_C 	C 	0.4166	0.8242	0.7703	-0.005
Mof_C 	C 	0.2306	0.0208	0.2326	-0.043
Mof_C 	C 	0.3826	0.0152	0.1534	-0.101
Mof_C 	C 	0.3734	0.4211	0.1421	0.587
Mof_C 	C 	0.2156	0.8441	0.5152	0.023
Mof_C 	C 	0.3609	0.6151	0.8103	0.465
Mof_C 	C 	0.3723	0.28	0.1483	-0.247
Mof_C 	C 	0.8743	0.6096	0.4014	0.441
Mof_C 	C 	0.5902	0.0447	0.2678	-0.003
Mof_C 	C 	0.9791	0.3241	0.5493	-0.143
Mof_C 	C 	0.6982	0.7831	0.6893	0.109
Mof_C 	C 	0.1625	0.6637	0.0495	0.456
Mof_C 	C 	0.3363	0.1625	0.7995	0.455
Mof_C 	C 	0.0208	0.7694	0.4826	-0.034
Mof_C 	C 	0.9848	0.3826	0.9034	-0.099
Mof_C 	C 	0.72	0.3723	0.8983	-0.28
Mof_C 	C 	0.9183	0.3046	0.9421	0
Mof_C 	C 	0.0123	0.861	0.113	-0.088
Mof_C 	C 	0.1835	0.0643	0.647	-0.043
Mof_C 	C 	0.9792	0.2306	0.9826	-0.137
Mof_C 	C 	0.1559	0.2156	0.2652	0.014
Mof_C 	C 	0.9357	0.1835	0.397	-0.043
Mof_C 	C 	0.0817	0.6954	0.4421	-0.009
Mof_C 	C 	0.1562	0.7551	0.8692	-0.078
Mof_C 	C 	0.0867	0.8426	0.5182	-0.088
Mof_C 	C 	0.5495	0.9184	0.6146	-0.088
Mof_C 	C 	0.7202	0.2246	0.9781	-0.285
Mof_C 	C 	0.28	0.6277	0.3983	-0.267
Mof_C 	C 	0.0475	0.2367	0.58297	0.056
Mof_C 	C 	0.7633	0.0475	0.33297	0.056
Mof_C 	C 	0.0533	0.0537	0.643	-0.018
Mof_C 	C 	0.7694	0.9792	0.7326	-0.035
Mof_C 	C 	0.6096	0.1257	0.6514	0.442
Mof_C 	C 	0.5834	0.1758	0.2703	-0.005
Mof_C 	C 	0.5789	0.3734	0.8921	0.594
Mof_C 	C 	0.1758	0.4166	0.5203	-0.006
Mof_C 	C 	0.3401	0.7575	0.805	-0.148
Mof_C 	C 	0.1574	0.0867	0.2682	-0.079
Mof_C 	C 	0.9133	0.1574	0.0182	-0.011
Mof_C 	C 	0.7877	0.4442	0.8621	0.098
Mof_C 	C 	0.1802	0.246	0.5859	0.03
Mof_C 	C 	0.6599	0.2425	0.305	-0.146
Mof_C 	C 	0.6266	0.5789	0.6421	0.603
Mof_C 	C 	0.4211	0.6266	0.3921	0.603
Mof_C 	C 	0.4442	0.2123	0.1121	0.082
Mof_O 	O 	0.5924	0.1703	0.60281	-0.45
Mof_O 	O 	0.4076	0.8297	0.10281	-0.441
Mof_O 	O 	0.6292	0.4491	0.26734	-0.642
Mof_O 	O 	0.1703	0.4076	0.85281	-0.446
Mof_O 	O 	0.4491	0.3708	0.51734	-0.643
Mof_O 	O 	0.3292	0.2116	0.84743	-0.471
Mof_O 	O 	0.6334	0.4274	0.35925	-0.579
Mof_O 	O 	0.2203	0.6462	0.0059	-0.629
Mof_O 	O 	0.2116	0.6708	0.09743	-0.459
Mof_O 	O 	0.8297	0.5924	0.35281	-0.45
Mof_O 	O 	0.3666	0.5726	0.85925	-0.571
Mof_O 	O 	0.4893	0.6248	0.43436	-0.805
Mof_O 	O 	0.3742	0.4642	0.09254	-0.699
Mof_O 	O 	0.7797	0.3538	0.5059	-0.712
Mof_O 	O 	0.6258	0.5358	0.59254	-0.747
Mof_O 	O 	0.5107	0.3752	0.93436	-0.78
Mof_O 	O 	0.5358	0.3742	0.84254	-0.744
Mof_O 	O 	0.3752	0.4893	0.18436	-0.798
Mof_O 	O 	0.4274	0.3666	0.60925	-0.578
Mof_O 	O 	0.6462	0.7797	0.2559	-0.712
Mof_O 	O 	0.8092	0.6177	0.4439	-0.68
Mof_O 	O 	0.3823	0.8092	0.1939	-0.68
Mof_O 	O 	0.6708	0.7884	0.34743	-0.468
Mof_O 	O 	0.3708	0.5509	0.76734	-0.641
Mof_O 	O 	0.5726	0.6334	0.10925	-0.573
Mof_O 	O 	0.3538	0.2203	0.7559	-0.711
Mof_O 	O 	0.1908	0.3823	0.9439	-0.661
Mof_O 	O 	0.5509	0.6292	0.01734	-0.578
Mof_O 	O 	0.6177	0.1908	0.6939	-0.68
Mof_O 	O 	0.7884	0.3292	0.59743	-0.468
Mof_O 	O 	0.4642	0.6258	0.34254	-0.747
Mof_O 	O 	0.6248	0.5107	0.68436	-0.804
_end
