# CIF file generated by openbabel 3.1.0, see https://openbabel.org
data_I
_chemical_name_common 'image0'
_cell_length_a 24.561
_cell_length_b 20.118
_cell_length_c 8.0845
_cell_angle_alpha 90
_cell_angle_beta 106.176
_cell_angle_gamma 90
_space_group_name_H-M_alt 'P 1'
_space_group_name_Hall 'P 1'
loop_
    _symmetry_equiv_pos_as_xyz
    x,y,z
loop_
    _atom_site_label
    _atom_site_type_symbol
    _atom_site_fract_x
    _atom_site_fract_y
    _atom_site_fract_z
    _atom_site_occupancy
    Cu1      Cu       0.05033    0.41261    0.66673    1.000
    Cu2      Cu       0.31566    0.68250    0.22036    1.000
    N1       N        0.02036    0.33132    0.70770    1.000
    N2       N        0.08526    0.49170    0.63820    1.000
    N3       N        0.06304    0.55259    0.66550    1.000
    N4       N        0.27004    0.65980    0.39240    1.000
    N5       N        0.38690    0.64260    0.25630    1.000
    C1       C        0.26670    0.73570    0.05400    1.000
    C2       C        0.07400    0.25320    0.57990    1.000
    H1       H        0.08580    0.29390    0.53850    1.000
    H2       H        0.05620    0.22520    0.48390    1.000
    H3       H        0.10640    0.23080    0.65270    1.000
    C3       C        0.03310    0.26820    0.67950    1.000
    C4       C        0.04540    0.11640    0.73690    1.000
    H4       H        0.07790    0.13810    0.72810    1.000
    C5       C        0.04320    0.04730    0.73670    1.000
    H5       H        0.07490    0.02420    0.72620    1.000
    C6       C        0.16560    0.44480    0.55310    1.000
    H6       H        0.19870    0.43730    0.64790    1.000
    H7       H        0.17700    0.45430    0.45120    1.000
    H8       H        0.14220    0.40580    0.53450    1.000
    C7       C        0.13300    0.50240    0.59330    1.000
    C8       C        0.14239    0.57080    0.58660    1.000
    C9       C        0.09690    0.60030    0.63420    1.000
    C10      C        0.08560    0.67180    0.66280    1.000
    H9       H        0.07660    0.69500    0.55490    1.000
    H10      H        0.11860    0.69120    0.74040    1.000
    H11      H        0.05420    0.67500    0.71160    1.000
    C11      C        0.18720    0.60340    0.53110    1.000
    C12      C        0.17850    0.66220    0.43990    1.000
    H12      H        0.14430    0.68470    0.42330    1.000
    C13      C        0.21970    0.68810    0.37310    1.000
    H13      H        0.21200    0.72750    0.31100    1.000
    C14      C        0.28010    0.60480    0.48930    1.000
    H14      H        0.31570    0.58540    0.51060    1.000
    C15      C        0.24120    0.57530    0.55920    1.000
    H15      H        0.25070    0.53690    0.62490    1.000
    C16      C        0.43090    0.62120    0.26050    1.000
    Cu3      Cu       0.94967    0.41261    0.83327    1.000
    Cu4      Cu       0.68434    0.68250    0.27964    1.000
    N6       N        0.97964    0.33132    0.79230    1.000
    N7       N        0.91474    0.49170    0.86180    1.000
    N8       N        0.93696    0.55259    0.83450    1.000
    N9       N        0.72996    0.65980    0.10760    1.000
    N10      N        0.61310    0.64260    0.24370    1.000
    C17      C        0.73330    0.73570    0.44600    1.000
    C18      C        0.92600    0.25320    0.92010    1.000
    H16      H        0.91420    0.29390    0.96150    1.000
    H17      H        0.94380    0.22520    0.01610    1.000
    H18      H        0.89360    0.23080    0.84730    1.000
    C19      C        0.96690    0.26820    0.82050    1.000
    C20      C        0.95460    0.11640    0.76310    1.000
    H19      H        0.92210    0.13810    0.77190    1.000
    C21      C        0.95680    0.04730    0.76330    1.000
    H20      H        0.92510    0.02420    0.77380    1.000
    C22      C        0.83440    0.44480    0.94690    1.000
    H21      H        0.80130    0.43730    0.85210    1.000
    H22      H        0.82300    0.45430    0.04880    1.000
    H23      H        0.85780    0.40580    0.96550    1.000
    C23      C        0.86700    0.50240    0.90670    1.000
    C24      C        0.85761    0.57080    0.91340    1.000
    C25      C        0.90310    0.60030    0.86580    1.000
    C26      C        0.91440    0.67180    0.83720    1.000
    H24      H        0.92340    0.69500    0.94510    1.000
    H25      H        0.88140    0.69120    0.75960    1.000
    H26      H        0.94580    0.67500    0.78840    1.000
    C27      C        0.81280    0.60340    0.96890    1.000
    C28      C        0.82150    0.66220    0.06010    1.000
    H27      H        0.85570    0.68470    0.07670    1.000
    C29      C        0.78030    0.68810    0.12690    1.000
    H28      H        0.78800    0.72750    0.18900    1.000
    C30      C        0.71990    0.60480    0.01070    1.000
    H29      H        0.68430    0.58540    0.98940    1.000
    C31      C        0.75880    0.57530    0.94080    1.000
    H30      H        0.74930    0.53690    0.87510    1.000
    C32      C        0.56910    0.62120    0.23950    1.000
    Cu5      Cu       0.44967    0.08739    0.33327    1.000
    Cu6      Cu       0.18434    0.81750    0.77964    1.000
    N11      N        0.47964    0.16868    0.29230    1.000
    N12      N        0.41474    0.00830    0.36180    1.000
    N13      N        0.43696    0.94741    0.33450    1.000
    N14      N        0.22996    0.84020    0.60760    1.000
    N15      N        0.11310    0.85740    0.74370    1.000
    C33      C        0.23330    0.76430    0.94600    1.000
    C34      C        0.42600    0.24680    0.42010    1.000
    H31      H        0.41420    0.20610    0.46150    1.000
    H32      H        0.44380    0.27480    0.51610    1.000
    H33      H        0.39360    0.26920    0.34730    1.000
    C35      C        0.46690    0.23180    0.32050    1.000
    C36      C        0.45460    0.38360    0.26310    1.000
    H34      H        0.42210    0.36190    0.27190    1.000
    C37      C        0.45680    0.45270    0.26330    1.000
    H35      H        0.42510    0.47580    0.27380    1.000
    C38      C        0.33440    0.05520    0.44690    1.000
    H36      H        0.30130    0.06270    0.35210    1.000
    H37      H        0.32300    0.04570    0.54880    1.000
    H38      H        0.35780    0.09420    0.46550    1.000
    C39      C        0.36700    0.99760    0.40670    1.000
    C40      C        0.35761    0.92920    0.41340    1.000
    C41      C        0.40310    0.89970    0.36580    1.000
    C42      C        0.41440    0.82820    0.33720    1.000
    H39      H        0.42340    0.80500    0.44510    1.000
    H40      H        0.38140    0.80880    0.25960    1.000
    H41      H        0.44580    0.82500    0.28840    1.000
    C43      C        0.31280    0.89660    0.46890    1.000
    C44      C        0.32150    0.83780    0.56010    1.000
    H42      H        0.35570    0.81530    0.57670    1.000
    C45      C        0.28030    0.81190    0.62690    1.000
    H43      H        0.28800    0.77250    0.68900    1.000
    C46      C        0.21990    0.89520    0.51070    1.000
    H44      H        0.18430    0.91460    0.48940    1.000
    C47      C        0.25880    0.92470    0.44080    1.000
    H45      H        0.24930    0.96310    0.37510    1.000
    C48      C        0.06910    0.87880    0.73950    1.000
    Cu7      Cu       0.55033    0.08739    0.16673    1.000
    Cu8      Cu       0.81566    0.81750    0.72036    1.000
    N16      N        0.52036    0.16868    0.20770    1.000
    N17      N        0.58526    0.00830    0.13820    1.000
    N18      N        0.56304    0.94741    0.16550    1.000
    N19      N        0.77004    0.84020    0.89240    1.000
    N20      N        0.88690    0.85740    0.75630    1.000
    C49      C        0.76670    0.76430    0.55400    1.000
    C50      C        0.57400    0.24680    0.07990    1.000
    H46      H        0.58580    0.20610    0.03850    1.000
    H47      H        0.55620    0.27480    0.98390    1.000
    H48      H        0.60640    0.26920    0.15270    1.000
    C51      C        0.53310    0.23180    0.17950    1.000
    C52      C        0.54540    0.38360    0.23690    1.000
    H49      H        0.57790    0.36190    0.22810    1.000
    C53      C        0.54320    0.45270    0.23670    1.000
    H50      H        0.57490    0.47580    0.22620    1.000
    C54      C        0.66560    0.05520    0.05310    1.000
    H51      H        0.69870    0.06270    0.14790    1.000
    H52      H        0.67700    0.04570    0.95120    1.000
    H53      H        0.64220    0.09420    0.03450    1.000
    C55      C        0.63300    0.99760    0.09330    1.000
    C56      C        0.64239    0.92920    0.08660    1.000
    C57      C        0.59690    0.89970    0.13420    1.000
    C58      C        0.58560    0.82820    0.16280    1.000
    H54      H        0.57660    0.80500    0.05490    1.000
    H55      H        0.61860    0.80880    0.24040    1.000
    H56      H        0.55420    0.82500    0.21160    1.000
    C59      C        0.68720    0.89660    0.03110    1.000
    C60      C        0.67850    0.83780    0.93990    1.000
    H57      H        0.64430    0.81530    0.92330    1.000
    C61      C        0.71970    0.81190    0.87310    1.000
    H58      H        0.71200    0.77250    0.81100    1.000
    C62      C        0.78010    0.89520    0.98930    1.000
    H59      H        0.81570    0.91460    0.01060    1.000
    C63      C        0.74120    0.92470    0.05920    1.000
    H60      H        0.75070    0.96310    0.12490    1.000
    C64      C        0.93090    0.87880    0.76050    1.000
    Cu9      Cu       0.00000    0.55415    0.75000    1.000
    Cu10     Cu       0.00000    0.91049    0.75000    1.000
    N21      N        0.00000    0.01280    0.75000    1.000
    C65      C        0.00000    0.22580    0.75000    1.000
    C66      C        0.00000    0.15180    0.75000    1.000
    Cu11     Cu       0.50000    0.94585    0.25000    1.000
    Cu12     Cu       0.50000    0.58951    0.25000    1.000
    N22      N        0.50000    0.48720    0.25000    1.000
    C67      C        0.50000    0.27420    0.25000    1.000
    C68      C        0.50000    0.34820    0.25000    1.000
    Cu13     Cu       0.55033    0.91261    0.66673    1.000
    Cu14     Cu       0.81566    0.18250    0.22036    1.000
    N23      N        0.52036    0.83132    0.70770    1.000
    N24      N        0.58526    0.99170    0.63820    1.000
    N25      N        0.56304    0.05259    0.66550    1.000
    N26      N        0.77004    0.15980    0.39240    1.000
    N27      N        0.88690    0.14260    0.25630    1.000
    C69      C        0.76670    0.23570    0.05400    1.000
    C70      C        0.57400    0.75320    0.57990    1.000
    H61      H        0.58580    0.79390    0.53850    1.000
    H62      H        0.55620    0.72520    0.48390    1.000
    H63      H        0.60640    0.73080    0.65270    1.000
    C71      C        0.53310    0.76820    0.67950    1.000
    C72      C        0.54540    0.61640    0.73690    1.000
    H64      H        0.57790    0.63810    0.72810    1.000
    C73      C        0.54320    0.54730    0.73670    1.000
    H65      H        0.57490    0.52420    0.72620    1.000
    C74      C        0.66560    0.94480    0.55310    1.000
    H66      H        0.69870    0.93730    0.64790    1.000
    H67      H        0.67700    0.95430    0.45120    1.000
    H68      H        0.64220    0.90580    0.53450    1.000
    C75      C        0.63300    0.00240    0.59330    1.000
    C76      C        0.64239    0.07080    0.58660    1.000
    C77      C        0.59690    0.10030    0.63420    1.000
    C78      C        0.58560    0.17180    0.66280    1.000
    H69      H        0.57660    0.19500    0.55490    1.000
    H70      H        0.61860    0.19120    0.74040    1.000
    H71      H        0.55420    0.17500    0.71160    1.000
    C79      C        0.68720    0.10340    0.53110    1.000
    C80      C        0.67850    0.16220    0.43990    1.000
    H72      H        0.64430    0.18470    0.42330    1.000
    C81      C        0.71970    0.18810    0.37310    1.000
    H73      H        0.71200    0.22750    0.31100    1.000
    C82      C        0.78010    0.10480    0.48930    1.000
    H74      H        0.81570    0.08540    0.51060    1.000
    C83      C        0.74120    0.07530    0.55920    1.000
    H75      H        0.75070    0.03690    0.62490    1.000
    C84      C        0.93090    0.12120    0.26050    1.000
    Cu15     Cu       0.44967    0.91261    0.83327    1.000
    Cu16     Cu       0.18434    0.18250    0.27964    1.000
    N28      N        0.47964    0.83132    0.79230    1.000
    N29      N        0.41474    0.99170    0.86180    1.000
    N30      N        0.43696    0.05259    0.83450    1.000
    N31      N        0.22996    0.15980    0.10760    1.000
    N32      N        0.11310    0.14260    0.24370    1.000
    C85      C        0.23330    0.23570    0.44600    1.000
    C86      C        0.42600    0.75320    0.92010    1.000
    H76      H        0.41420    0.79390    0.96150    1.000
    H77      H        0.44380    0.72520    0.01610    1.000
    H78      H        0.39360    0.73080    0.84730    1.000
    C87      C        0.46690    0.76820    0.82050    1.000
    C88      C        0.45460    0.61640    0.76310    1.000
    H79      H        0.42210    0.63810    0.77190    1.000
    C89      C        0.45680    0.54730    0.76330    1.000
    H80      H        0.42510    0.52420    0.77380    1.000
    C90      C        0.33440    0.94480    0.94690    1.000
    H81      H        0.30130    0.93730    0.85210    1.000
    H82      H        0.32300    0.95430    0.04880    1.000
    H83      H        0.35780    0.90580    0.96550    1.000
    C91      C        0.36700    0.00240    0.90670    1.000
    C92      C        0.35761    0.07080    0.91340    1.000
    C93      C        0.40310    0.10030    0.86580    1.000
    C94      C        0.41440    0.17180    0.83720    1.000
    H84      H        0.42340    0.19500    0.94510    1.000
    H85      H        0.38140    0.19120    0.75960    1.000
    H86      H        0.44580    0.17500    0.78840    1.000
    C95      C        0.31280    0.10340    0.96890    1.000
    C96      C        0.32150    0.16220    0.06010    1.000
    H87      H        0.35570    0.18470    0.07670    1.000
    C97      C        0.28030    0.18810    0.12690    1.000
    H88      H        0.28800    0.22750    0.18900    1.000
    C98      C        0.21990    0.10480    0.01070    1.000
    H89      H        0.18430    0.08540    0.98940    1.000
    C99      C        0.25880    0.07530    0.94080    1.000
    H90      H        0.24930    0.03690    0.87510    1.000
    C100     C        0.06910    0.12120    0.23950    1.000
    Cu17     Cu       0.94967    0.58739    0.33327    1.000
    Cu18     Cu       0.68434    0.31750    0.77964    1.000
    N33      N        0.97964    0.66868    0.29230    1.000
    N34      N        0.91474    0.50830    0.36180    1.000
    N35      N        0.93696    0.44741    0.33450    1.000
    N36      N        0.72996    0.34020    0.60760    1.000
    N37      N        0.61310    0.35740    0.74370    1.000
    C101     C        0.73330    0.26430    0.94600    1.000
    C102     C        0.92600    0.74680    0.42010    1.000
    H91      H        0.91420    0.70610    0.46150    1.000
    H92      H        0.94380    0.77480    0.51610    1.000
    H93      H        0.89360    0.76920    0.34730    1.000
    C103     C        0.96690    0.73180    0.32050    1.000
    C104     C        0.95460    0.88360    0.26310    1.000
    H94      H        0.92210    0.86190    0.27190    1.000
    C105     C        0.95680    0.95270    0.26330    1.000
    H95      H        0.92510    0.97580    0.27380    1.000
    C106     C        0.83440    0.55520    0.44690    1.000
    H96      H        0.80130    0.56270    0.35210    1.000
    H97      H        0.82300    0.54570    0.54880    1.000
    H98      H        0.85780    0.59420    0.46550    1.000
    C107     C        0.86700    0.49760    0.40670    1.000
    C108     C        0.85761    0.42920    0.41340    1.000
    C109     C        0.90310    0.39970    0.36580    1.000
    C110     C        0.91440    0.32820    0.33720    1.000
    H99      H        0.92340    0.30500    0.44510    1.000
    H100     H        0.88140    0.30880    0.25960    1.000
    H101     H        0.94580    0.32500    0.28840    1.000
    C111     C        0.81280    0.39660    0.46890    1.000
    C112     C        0.82150    0.33780    0.56010    1.000
    H102     H        0.85570    0.31530    0.57670    1.000
    C113     C        0.78030    0.31190    0.62690    1.000
    H103     H        0.78800    0.27250    0.68900    1.000
    C114     C        0.71990    0.39520    0.51070    1.000
    H104     H        0.68430    0.41460    0.48940    1.000
    C115     C        0.75880    0.42470    0.44080    1.000
    H105     H        0.74930    0.46310    0.37510    1.000
    C116     C        0.56910    0.37880    0.73950    1.000
    Cu19     Cu       0.05033    0.58739    0.16673    1.000
    Cu20     Cu       0.31566    0.31750    0.72036    1.000
    N38      N        0.02036    0.66868    0.20770    1.000
    N39      N        0.08526    0.50830    0.13820    1.000
    N40      N        0.06304    0.44741    0.16550    1.000
    N41      N        0.27004    0.34020    0.89240    1.000
    N42      N        0.38690    0.35740    0.75630    1.000
    C117     C        0.26670    0.26430    0.55400    1.000
    C118     C        0.07400    0.74680    0.07990    1.000
    H106     H        0.08580    0.70610    0.03850    1.000
    H107     H        0.05620    0.77480    0.98390    1.000
    H108     H        0.10640    0.76920    0.15270    1.000
    C119     C        0.03310    0.73180    0.17950    1.000
    C120     C        0.04540    0.88360    0.23690    1.000
    H109     H        0.07790    0.86190    0.22810    1.000
    C121     C        0.04320    0.95270    0.23670    1.000
    H110     H        0.07490    0.97580    0.22620    1.000
    C122     C        0.16560    0.55520    0.05310    1.000
    H111     H        0.19870    0.56270    0.14790    1.000
    H112     H        0.17700    0.54570    0.95120    1.000
    H113     H        0.14220    0.59420    0.03450    1.000
    C123     C        0.13300    0.49760    0.09330    1.000
    C124     C        0.14239    0.42920    0.08660    1.000
    C125     C        0.09690    0.39970    0.13420    1.000
    C126     C        0.08560    0.32820    0.16280    1.000
    H114     H        0.07660    0.30500    0.05490    1.000
    H115     H        0.11860    0.30880    0.24040    1.000
    H116     H        0.05420    0.32500    0.21160    1.000
    C127     C        0.18720    0.39660    0.03110    1.000
    C128     C        0.17850    0.33780    0.93990    1.000
    H117     H        0.14430    0.31530    0.92330    1.000
    C129     C        0.21970    0.31190    0.87310    1.000
    H118     H        0.21200    0.27250    0.81100    1.000
    C130     C        0.28010    0.39520    0.98930    1.000
    H119     H        0.31570    0.41460    0.01060    1.000
    C131     C        0.24120    0.42470    0.05920    1.000
    H120     H        0.25070    0.46310    0.12490    1.000
    C132     C        0.43090    0.37880    0.76050    1.000
    Cu21     Cu       0.50000    0.05415    0.75000    1.000
    Cu22     Cu       0.50000    0.41049    0.75000    1.000
    N43      N        0.50000    0.51280    0.75000    1.000
    C133     C        0.50000    0.72580    0.75000    1.000
    C134     C        0.50000    0.65180    0.75000    1.000
    Cu23     Cu       0.00000    0.44585    0.25000    1.000
    Cu24     Cu       0.00000    0.08951    0.25000    1.000
    N44      N        0.00000    0.98720    0.25000    1.000
    C135     C        0.00000    0.77420    0.25000    1.000
    C136     C        0.00000    0.84820    0.25000    1.000
