data_functionalizedCrystal
_audit_creation_method	'EQeq! by Chris Wilmer'
_symmetry_space_group_name_H-M	'P1'
_symmetry_Int_Tables_number	1
_symmetry_cell_setting	triclinic
loop_
_symmetry_equiv_pos_as_xyz
  x,y,z
_cell_length_a	24.7935
_cell_length_b	33.5631
_cell_length_c	18.6669
_cell_angle_alpha	90
_cell_angle_beta	90
_cell_angle_gamma	90
loop_
_atom_site_label
_atom_site_type_symbol
_atom_site_fract_x
_atom_site_fract_y
_atom_site_fract_z
_atom_site_charge
Mof_Cu	Cu	0.21013	0.26753	0.53533	0.904
Mof_O 	O 	0.18246	0.21337	0.545	-0.412
Mof_O 	O 	0.2548	0.25774	0.6196	-0.409
Mof_O 	O 	0.17782	0.27203	0.4394	-0.412
Mof_O 	O 	0.25062	0.31633	0.5152	-0.405
Mof_C 	C 	0.2066	0.18326	0.5222	0.358
Mof_C 	C 	0.2989	0.23953	0.6165	0.363
Mof_C 	C 	0.1838	0.14285	0.5397	-0.096
Mof_C 	C 	0.3262	0.22992	0.6854	-0.089
Mof_C 	C 	0.211	0.10875	0.5187	0.01
Mof_C 	C 	0.1391	0.14085	0.5838	0.038
Mof_C 	C 	0.375	0.2089	0.6859	-0.006
Mof_H 	H 	0.2421	0.1106	0.491	0.045
Mof_C 	C 	0.191	0.07135	0.5398	-0.055
Mof_H 	H 	0.1221	0.1641	0.5988	0.048
Mof_C 	C 	0.1197	0.10429	0.6056	-0.099
Mof_H 	H 	0.391	0.2019	0.6426	0.052
Mof_C 	C 	0.2207	0.03441	0.5189	0.136
Mof_C 	C 	0.1464	0.06953	0.5831	0.012
Mof_C 	C 	0.0729	0.1031	0.6575	0.374
Mof_C 	C 	0.2776	0.0337	0.5195	-0.224
Mof_H 	H 	0.1335	0.0448	0.5978	0.041
Mof_O 	O 	0.05608	0.06915	0.6758	-0.416
Mof_O 	O 	0.05472	0.13562	0.6759	-0.426
Mof_C 	C 	0.452	0.1365	0.7029	-0.057
Mof_H 	H 	0.2969	0.0563	0.533	0.12
Mof_H 	H 	0.4158	0.1312	0.684	0.056
Mof_Cu	Cu	0.71013	0.76753	0.53533	0.906
Mof_O 	O 	0.68246	0.71337	0.545	-0.407
Mof_O 	O 	0.7548	0.75774	0.6196	-0.407
Mof_O 	O 	0.67782	0.77203	0.4394	-0.407
Mof_O 	O 	0.75062	0.81633	0.5152	-0.401
Mof_C 	C 	0.7066	0.68326	0.5222	0.358
Mof_C 	C 	0.7989	0.73953	0.6165	0.366
Mof_C 	C 	0.6838	0.64285	0.5397	-0.091
Mof_C 	C 	0.8262	0.72992	0.6854	-0.092
Mof_C 	C 	0.711	0.60875	0.5187	0.008
Mof_C 	C 	0.6391	0.64085	0.5838	0.035
Mof_C 	C 	0.875	0.7089	0.6859	0.007
Mof_H 	H 	0.7421	0.6106	0.491	0.047
Mof_C 	C 	0.691	0.57135	0.5398	-0.051
Mof_H 	H 	0.6221	0.6641	0.5988	0.052
Mof_C 	C 	0.6197	0.60429	0.6056	-0.093
Mof_H 	H 	0.891	0.7019	0.6426	0.052
Mof_C 	C 	0.7207	0.53441	0.5189	0.137
Mof_C 	C 	0.6464	0.56953	0.5831	0.01
Mof_C 	C 	0.5729	0.6031	0.6575	0.372
Mof_C 	C 	0.7776	0.5337	0.5195	-0.224
Mof_H 	H 	0.6335	0.5448	0.5978	0.045
Mof_O 	O 	0.55608	0.56915	0.6758	-0.406
Mof_O 	O 	0.55472	0.63562	0.6759	-0.416
Mof_C 	C 	0.952	0.6365	0.7029	-0.047
Mof_H 	H 	0.7969	0.5563	0.533	0.123
Mof_H 	H 	0.9158	0.6312	0.684	0.057
Mof_Cu	Cu	0.78987	0.73247	0.03533	0.907
Mof_O 	O 	0.81754	0.78663	0.045	-0.404
Mof_O 	O 	0.7452	0.74226	0.1196	-0.405
Mof_O 	O 	0.82218	0.72797	0.9394	-0.404
Mof_O 	O 	0.74938	0.68367	0.0152	-0.401
Mof_C 	C 	0.7934	0.81674	0.0222	0.357
Mof_C 	C 	0.7011	0.76047	0.1165	0.363
Mof_C 	C 	0.8162	0.85715	0.0397	-0.087
Mof_C 	C 	0.6738	0.77008	0.1854	-0.087
Mof_C 	C 	0.789	0.89125	0.0187	0.007
Mof_C 	C 	0.8609	0.85915	0.0838	0.032
Mof_C 	C 	0.625	0.7911	0.1859	-0.007
Mof_H 	H 	0.7579	0.8894	0.991	0.047
Mof_C 	C 	0.809	0.92865	0.0398	-0.048
Mof_H 	H 	0.8779	0.8359	0.0988	0.057
Mof_C 	C 	0.8803	0.89571	0.1056	-0.085
Mof_H 	H 	0.609	0.7981	0.1426	0.052
Mof_C 	C 	0.7793	0.96559	0.0189	0.136
Mof_C 	C 	0.8536	0.93047	0.0831	0.007
Mof_C 	C 	0.9271	0.8969	0.1575	0.368
Mof_C 	C 	0.7224	0.9663	0.0195	-0.223
Mof_H 	H 	0.8665	0.9552	0.0978	0.048
Mof_O 	O 	0.94392	0.93085	0.1758	-0.389
Mof_O 	O 	0.94528	0.86438	0.1759	-0.398
Mof_C 	C 	0.548	0.8635	0.2029	-0.057
Mof_H 	H 	0.7031	0.9437	0.033	0.12
Mof_H 	H 	0.5842	0.8688	0.184	0.056
Mof_Cu	Cu	0.28987	0.23247	0.03533	0.906
Mof_O 	O 	0.31754	0.28663	0.045	-0.408
Mof_O 	O 	0.2452	0.24226	0.1196	-0.408
Mof_O 	O 	0.32218	0.22797	0.9394	-0.407
Mof_O 	O 	0.24938	0.18367	0.0152	-0.403
Mof_C 	C 	0.2934	0.31674	0.0222	0.359
Mof_C 	C 	0.2011	0.26047	0.1165	0.367
Mof_C 	C 	0.3162	0.35715	0.0397	-0.093
Mof_C 	C 	0.1738	0.27008	0.1854	-0.097
Mof_C 	C 	0.289	0.39125	0.0187	0.009
Mof_C 	C 	0.3609	0.35915	0.0838	0.036
Mof_C 	C 	0.125	0.2911	0.1859	0.006
Mof_H 	H 	0.2579	0.3894	0.991	0.044
Mof_C 	C 	0.309	0.42865	0.0398	-0.053
Mof_H 	H 	0.3779	0.3359	0.0988	0.052
Mof_C 	C 	0.3803	0.39571	0.1056	-0.094
Mof_H 	H 	0.109	0.2981	0.1426	0.044
Mof_C 	C 	0.2793	0.46559	0.0189	0.135
Mof_C 	C 	0.3536	0.43047	0.0831	0.01
Mof_C 	C 	0.4271	0.3969	0.1575	0.373
Mof_C 	C 	0.2224	0.4663	0.0195	-0.223
Mof_H 	H 	0.3665	0.4552	0.0978	0.044
Mof_O 	O 	0.44392	0.43085	0.1758	-0.407
Mof_O 	O 	0.44528	0.36438	0.1759	-0.416
Mof_C 	C 	0.048	0.3635	0.2029	-0.083
Mof_H 	H 	0.2031	0.4437	0.033	0.118
Mof_H 	H 	0.0842	0.3688	0.184	0.06
Mof_Cu	Cu	0.78987	0.26753	0.96467	0.907
Mof_O 	O 	0.81754	0.21337	0.955	-0.404
Mof_O 	O 	0.7452	0.25774	0.8804	-0.405
Mof_O 	O 	0.82218	0.27203	0.0606	-0.404
Mof_O 	O 	0.74938	0.31633	0.9848	-0.401
Mof_C 	C 	0.7934	0.18326	0.9778	0.357
Mof_C 	C 	0.7011	0.23953	0.8835	0.363
Mof_C 	C 	0.8162	0.14285	0.9603	-0.086
Mof_C 	C 	0.6738	0.22992	0.8146	-0.087
Mof_C 	C 	0.789	0.10875	0.9813	0.005
Mof_C 	C 	0.8609	0.14085	0.9162	0.031
Mof_C 	C 	0.625	0.2089	0.8141	-0.007
Mof_H 	H 	0.7579	0.1106	0.009	0.048
Mof_C 	C 	0.809	0.07135	0.9602	-0.047
Mof_H 	H 	0.8779	0.1641	0.9012	0.057
Mof_C 	C 	0.8803	0.10429	0.8944	-0.085
Mof_H 	H 	0.609	0.2019	0.8574	0.052
Mof_C 	C 	0.7793	0.03441	0.9811	0.135
Mof_C 	C 	0.8536	0.06953	0.9169	0.006
Mof_C 	C 	0.9271	0.1031	0.8425	0.368
Mof_C 	C 	0.7224	0.0337	0.9805	-0.223
Mof_H 	H 	0.8665	0.0448	0.9022	0.049
Mof_O 	O 	0.94392	0.06915	0.8242	-0.389
Mof_O 	O 	0.94528	0.13562	0.8241	-0.398
Mof_C 	C 	0.548	0.1365	0.7971	-0.057
Mof_H 	H 	0.7031	0.0563	0.967	0.12
Mof_H 	H 	0.5842	0.1312	0.816	0.056
Mof_Cu	Cu	0.28987	0.76753	0.96467	0.906
Mof_O 	O 	0.31754	0.71337	0.955	-0.408
Mof_O 	O 	0.2452	0.75774	0.8804	-0.408
Mof_O 	O 	0.32218	0.77203	0.0606	-0.407
Mof_O 	O 	0.24938	0.81633	0.9848	-0.404
Mof_C 	C 	0.2934	0.68326	0.9778	0.358
Mof_C 	C 	0.2011	0.73953	0.8835	0.367
Mof_C 	C 	0.3162	0.64285	0.9603	-0.092
Mof_C 	C 	0.1738	0.72992	0.8146	-0.097
Mof_C 	C 	0.289	0.60875	0.9813	0.008
Mof_C 	C 	0.3609	0.64085	0.9162	0.035
Mof_C 	C 	0.125	0.7089	0.8141	0.006
Mof_H 	H 	0.2579	0.6106	0.009	0.045
Mof_C 	C 	0.309	0.57135	0.9602	-0.052
Mof_H 	H 	0.3779	0.6641	0.9012	0.052
Mof_C 	C 	0.3803	0.60429	0.8944	-0.093
Mof_H 	H 	0.109	0.7019	0.8574	0.043
Mof_C 	C 	0.2793	0.53441	0.9811	0.135
Mof_C 	C 	0.3536	0.56953	0.9169	0.01
Mof_C 	C 	0.4271	0.6031	0.8425	0.372
Mof_C 	C 	0.2224	0.5337	0.9805	-0.224
Mof_H 	H 	0.3665	0.5448	0.9022	0.044
Mof_O 	O 	0.44392	0.56915	0.8242	-0.407
Mof_O 	O 	0.44528	0.63562	0.8241	-0.416
Mof_C 	C 	0.048	0.6365	0.7971	-0.083
Mof_H 	H 	0.2031	0.5563	0.967	0.118
Mof_H 	H 	0.0842	0.6312	0.816	0.06
Mof_Cu	Cu	0.21013	0.73247	0.46467	0.905
Mof_O 	O 	0.18246	0.78663	0.455	-0.411
Mof_O 	O 	0.2548	0.74226	0.3804	-0.408
Mof_O 	O 	0.17782	0.72797	0.5606	-0.411
Mof_O 	O 	0.25062	0.68367	0.4848	-0.404
Mof_C 	C 	0.2066	0.81674	0.4778	0.359
Mof_C 	C 	0.2989	0.76047	0.3835	0.364
Mof_C 	C 	0.1838	0.85715	0.4603	-0.095
Mof_C 	C 	0.3262	0.77008	0.3146	-0.089
Mof_C 	C 	0.211	0.89125	0.4813	0.01
Mof_C 	C 	0.1391	0.85915	0.4162	0.038
Mof_C 	C 	0.375	0.7911	0.3141	-0.006
Mof_H 	H 	0.2421	0.8894	0.509	0.045
Mof_C 	C 	0.191	0.92865	0.4602	-0.055
Mof_H 	H 	0.1221	0.8359	0.4012	0.048
Mof_C 	C 	0.1197	0.89571	0.3944	-0.099
Mof_H 	H 	0.391	0.7981	0.3574	0.052
Mof_C 	C 	0.2207	0.96559	0.4811	0.136
Mof_C 	C 	0.1464	0.93047	0.4169	0.012
Mof_C 	C 	0.0729	0.8969	0.3425	0.374
Mof_C 	C 	0.2776	0.9663	0.4805	-0.224
Mof_H 	H 	0.1335	0.9552	0.4022	0.041
Mof_O 	O 	0.05608	0.93085	0.3242	-0.416
Mof_O 	O 	0.05472	0.86438	0.3241	-0.426
Mof_C 	C 	0.452	0.8635	0.2971	-0.057
Mof_H 	H 	0.2969	0.9437	0.467	0.12
Mof_H 	H 	0.4158	0.8688	0.316	0.056
Mof_Cu	Cu	0.71013	0.23247	0.46467	0.906
Mof_O 	O 	0.68246	0.28663	0.455	-0.407
Mof_O 	O 	0.7548	0.24226	0.3804	-0.407
Mof_O 	O 	0.67782	0.22797	0.5606	-0.407
Mof_O 	O 	0.75062	0.18367	0.4848	-0.401
Mof_C 	C 	0.7066	0.31674	0.4778	0.358
Mof_C 	C 	0.7989	0.26047	0.3835	0.366
Mof_C 	C 	0.6838	0.35715	0.4603	-0.091
Mof_C 	C 	0.8262	0.27008	0.3146	-0.092
Mof_C 	C 	0.711	0.39125	0.4813	0.008
Mof_C 	C 	0.6391	0.35915	0.4162	0.035
Mof_C 	C 	0.875	0.2911	0.3141	0.007
Mof_H 	H 	0.7421	0.3894	0.509	0.047
Mof_C 	C 	0.691	0.42865	0.4602	-0.051
Mof_H 	H 	0.6221	0.3359	0.4012	0.052
Mof_C 	C 	0.6197	0.39571	0.3944	-0.093
Mof_H 	H 	0.891	0.2981	0.3574	0.052
Mof_C 	C 	0.7207	0.46559	0.4811	0.137
Mof_C 	C 	0.6464	0.43047	0.4169	0.01
Mof_C 	C 	0.5729	0.3969	0.3425	0.372
Mof_C 	C 	0.7776	0.4663	0.4805	-0.224
Mof_H 	H 	0.6335	0.4552	0.4022	0.045
Mof_O 	O 	0.55608	0.43085	0.3242	-0.406
Mof_O 	O 	0.55472	0.36438	0.3241	-0.416
Mof_C 	C 	0.952	0.3635	0.2971	-0.047
Mof_H 	H 	0.7969	0.4437	0.467	0.123
Mof_H 	H 	0.9158	0.3688	0.316	0.057
Mof_Cu	Cu	0.78987	0.73247	0.46467	0.907
Mof_O 	O 	0.81754	0.78663	0.455	-0.404
Mof_O 	O 	0.7452	0.74226	0.3804	-0.405
Mof_O 	O 	0.82218	0.72797	0.5606	-0.404
Mof_O 	O 	0.74938	0.68367	0.4848	-0.401
Mof_C 	C 	0.7934	0.81674	0.4778	0.357
Mof_C 	C 	0.7011	0.76047	0.3835	0.363
Mof_C 	C 	0.8162	0.85715	0.4603	-0.087
Mof_C 	C 	0.6738	0.77008	0.3146	-0.087
Mof_C 	C 	0.789	0.89125	0.4813	0.006
Mof_C 	C 	0.8609	0.85915	0.4162	0.032
Mof_C 	C 	0.625	0.7911	0.3141	-0.007
Mof_H 	H 	0.7579	0.8894	0.509	0.047
Mof_C 	C 	0.809	0.92865	0.4602	-0.048
Mof_H 	H 	0.8779	0.8359	0.4012	0.057
Mof_C 	C 	0.8803	0.89571	0.3944	-0.085
Mof_H 	H 	0.609	0.7981	0.3574	0.052
Mof_C 	C 	0.7793	0.96559	0.4811	0.136
Mof_C 	C 	0.8536	0.93047	0.4169	0.007
Mof_C 	C 	0.9271	0.8969	0.3425	0.368
Mof_C 	C 	0.7224	0.9663	0.4805	-0.223
Mof_H 	H 	0.8665	0.9552	0.4022	0.048
Mof_O 	O 	0.94392	0.93085	0.3242	-0.389
Mof_O 	O 	0.94528	0.86438	0.3241	-0.398
Mof_C 	C 	0.548	0.8635	0.2971	-0.057
Mof_H 	H 	0.7031	0.9437	0.467	0.12
Mof_H 	H 	0.5842	0.8688	0.316	0.056
Mof_Cu	Cu	0.28987	0.23247	0.46467	0.906
Mof_O 	O 	0.31754	0.28663	0.455	-0.408
Mof_O 	O 	0.2452	0.24226	0.3804	-0.408
Mof_O 	O 	0.32218	0.22797	0.5606	-0.407
Mof_O 	O 	0.24938	0.18367	0.4848	-0.403
Mof_C 	C 	0.2934	0.31674	0.4778	0.359
Mof_C 	C 	0.2011	0.26047	0.3835	0.367
Mof_C 	C 	0.3162	0.35715	0.4603	-0.092
Mof_C 	C 	0.1738	0.27008	0.3146	-0.097
Mof_C 	C 	0.289	0.39125	0.4813	0.008
Mof_C 	C 	0.3609	0.35915	0.4162	0.036
Mof_C 	C 	0.125	0.2911	0.3141	0.006
Mof_H 	H 	0.2579	0.3894	0.509	0.044
Mof_C 	C 	0.309	0.42865	0.4602	-0.052
Mof_H 	H 	0.3779	0.3359	0.4012	0.052
Mof_C 	C 	0.3803	0.39571	0.3944	-0.093
Mof_H 	H 	0.109	0.2981	0.3574	0.043
Mof_C 	C 	0.2793	0.46559	0.4811	0.135
Mof_C 	C 	0.3536	0.43047	0.4169	0.01
Mof_C 	C 	0.4271	0.3969	0.3425	0.372
Mof_C 	C 	0.2224	0.4663	0.4805	-0.223
Mof_H 	H 	0.3665	0.4552	0.4022	0.044
Mof_O 	O 	0.44392	0.43085	0.3242	-0.407
Mof_O 	O 	0.44528	0.36438	0.3241	-0.416
Mof_C 	C 	0.048	0.3635	0.2971	-0.083
Mof_H 	H 	0.2031	0.4437	0.467	0.118
Mof_H 	H 	0.0842	0.3688	0.316	0.06
Mof_Cu	Cu	0.21013	0.26753	0.96467	0.905
Mof_O 	O 	0.18246	0.21337	0.955	-0.41
Mof_O 	O 	0.2548	0.25774	0.8804	-0.408
Mof_O 	O 	0.17782	0.27203	0.0606	-0.41
Mof_O 	O 	0.25062	0.31633	0.9848	-0.404
Mof_C 	C 	0.2066	0.18326	0.9778	0.358
Mof_C 	C 	0.2989	0.23953	0.8835	0.364
Mof_C 	C 	0.1838	0.14285	0.9603	-0.095
Mof_C 	C 	0.3262	0.22992	0.8146	-0.089
Mof_C 	C 	0.211	0.10875	0.9813	0.009
Mof_C 	C 	0.1391	0.14085	0.9162	0.037
Mof_C 	C 	0.375	0.2089	0.8141	-0.006
Mof_H 	H 	0.2421	0.1106	0.009	0.045
Mof_C 	C 	0.191	0.07135	0.9602	-0.054
Mof_H 	H 	0.1221	0.1641	0.9012	0.048
Mof_C 	C 	0.1197	0.10429	0.8944	-0.099
Mof_H 	H 	0.391	0.2019	0.8574	0.052
Mof_C 	C 	0.2207	0.03441	0.9811	0.135
Mof_C 	C 	0.1464	0.06953	0.9169	0.012
Mof_C 	C 	0.0729	0.1031	0.8425	0.374
Mof_C 	C 	0.2776	0.0337	0.9805	-0.224
Mof_H 	H 	0.1335	0.0448	0.9022	0.041
Mof_O 	O 	0.05608	0.06915	0.8242	-0.416
Mof_O 	O 	0.05472	0.13562	0.8241	-0.426
Mof_C 	C 	0.452	0.1365	0.7971	-0.057
Mof_H 	H 	0.2969	0.0563	0.967	0.12
Mof_H 	H 	0.4158	0.1312	0.816	0.056
Mof_Cu	Cu	0.71013	0.76753	0.96467	0.906
Mof_O 	O 	0.68246	0.71337	0.955	-0.407
Mof_O 	O 	0.7548	0.75774	0.8804	-0.407
Mof_O 	O 	0.67782	0.77203	0.0606	-0.407
Mof_O 	O 	0.75062	0.81633	0.9848	-0.402
Mof_C 	C 	0.7066	0.68326	0.9778	0.357
Mof_C 	C 	0.7989	0.73953	0.8835	0.366
Mof_C 	C 	0.6838	0.64285	0.9603	-0.09
Mof_C 	C 	0.8262	0.72992	0.8146	-0.092
Mof_C 	C 	0.711	0.60875	0.9813	0.007
Mof_C 	C 	0.6391	0.64085	0.9162	0.035
Mof_C 	C 	0.875	0.7089	0.8141	0.007
Mof_H 	H 	0.7421	0.6106	0.009	0.048
Mof_C 	C 	0.691	0.57135	0.9602	-0.051
Mof_H 	H 	0.6221	0.6641	0.9012	0.052
Mof_C 	C 	0.6197	0.60429	0.8944	-0.092
Mof_H 	H 	0.891	0.7019	0.8574	0.052
Mof_C 	C 	0.7207	0.53441	0.9811	0.137
Mof_C 	C 	0.6464	0.56953	0.9169	0.01
Mof_C 	C 	0.5729	0.6031	0.8425	0.372
Mof_C 	C 	0.7776	0.5337	0.9805	-0.224
Mof_H 	H 	0.6335	0.5448	0.9022	0.045
Mof_O 	O 	0.55608	0.56915	0.8242	-0.406
Mof_O 	O 	0.55472	0.63562	0.8241	-0.416
Mof_C 	C 	0.952	0.6365	0.7971	-0.048
Mof_H 	H 	0.7969	0.5563	0.967	0.123
Mof_H 	H 	0.9158	0.6312	0.816	0.057
Mof_Cu	Cu	0.21013	0.73247	0.03533	0.905
Mof_O 	O 	0.18246	0.78663	0.045	-0.411
Mof_O 	O 	0.2548	0.74226	0.1196	-0.408
Mof_O 	O 	0.17782	0.72797	0.9394	-0.411
Mof_O 	O 	0.25062	0.68367	0.0152	-0.404
Mof_C 	C 	0.2066	0.81674	0.0222	0.359
Mof_C 	C 	0.2989	0.76047	0.1165	0.364
Mof_C 	C 	0.1838	0.85715	0.0397	-0.096
Mof_C 	C 	0.3262	0.77008	0.1854	-0.089
Mof_C 	C 	0.211	0.89125	0.0187	0.011
Mof_C 	C 	0.1391	0.85915	0.0838	0.038
Mof_C 	C 	0.375	0.7911	0.1859	-0.006
Mof_H 	H 	0.2421	0.8894	0.991	0.044
Mof_C 	C 	0.191	0.92865	0.0398	-0.055
Mof_H 	H 	0.1221	0.8359	0.0988	0.048
Mof_C 	C 	0.1197	0.89571	0.1056	-0.099
Mof_H 	H 	0.391	0.7981	0.1426	0.052
Mof_C 	C 	0.2207	0.96559	0.0189	0.136
Mof_C 	C 	0.1464	0.93047	0.0831	0.012
Mof_C 	C 	0.0729	0.8969	0.1575	0.374
Mof_C 	C 	0.2776	0.9663	0.0195	-0.225
Mof_H 	H 	0.1335	0.9552	0.0978	0.041
Mof_O 	O 	0.05608	0.93085	0.1758	-0.416
Mof_O 	O 	0.05472	0.86438	0.1759	-0.426
Mof_C 	C 	0.452	0.8635	0.2029	-0.057
Mof_H 	H 	0.2969	0.9437	0.033	0.12
Mof_H 	H 	0.4158	0.8688	0.184	0.056
Mof_Cu	Cu	0.71013	0.23247	0.03533	0.906
Mof_O 	O 	0.68246	0.28663	0.045	-0.407
Mof_O 	O 	0.7548	0.24226	0.1196	-0.407
Mof_O 	O 	0.67782	0.22797	0.9394	-0.407
Mof_O 	O 	0.75062	0.18367	0.0152	-0.401
Mof_C 	C 	0.7066	0.31674	0.0222	0.358
Mof_C 	C 	0.7989	0.26047	0.1165	0.366
Mof_C 	C 	0.6838	0.35715	0.0397	-0.091
Mof_C 	C 	0.8262	0.27008	0.1854	-0.092
Mof_C 	C 	0.711	0.39125	0.0187	0.008
Mof_C 	C 	0.6391	0.35915	0.0838	0.035
Mof_C 	C 	0.875	0.2911	0.1859	0.007
Mof_H 	H 	0.7421	0.3894	0.991	0.047
Mof_C 	C 	0.691	0.42865	0.0398	-0.051
Mof_H 	H 	0.6221	0.3359	0.0988	0.052
Mof_C 	C 	0.6197	0.39571	0.1056	-0.093
Mof_H 	H 	0.891	0.2981	0.1426	0.052
Mof_C 	C 	0.7207	0.46559	0.0189	0.137
Mof_C 	C 	0.6464	0.43047	0.0831	0.01
Mof_C 	C 	0.5729	0.3969	0.1575	0.372
Mof_C 	C 	0.7776	0.4663	0.0195	-0.224
Mof_H 	H 	0.6335	0.4552	0.0978	0.045
Mof_O 	O 	0.55608	0.43085	0.1758	-0.406
Mof_O 	O 	0.55472	0.36438	0.1759	-0.416
Mof_C 	C 	0.952	0.3635	0.2029	-0.047
Mof_H 	H 	0.7969	0.4437	0.033	0.123
Mof_H 	H 	0.9158	0.3688	0.184	0.057
Mof_Cu	Cu	0.78987	0.26753	0.53533	0.907
Mof_O 	O 	0.81754	0.21337	0.545	-0.404
Mof_O 	O 	0.7452	0.25774	0.6196	-0.405
Mof_O 	O 	0.82218	0.27203	0.4394	-0.404
Mof_O 	O 	0.74938	0.31633	0.5152	-0.401
Mof_C 	C 	0.7934	0.18326	0.5222	0.357
Mof_C 	C 	0.7011	0.23953	0.6165	0.363
Mof_C 	C 	0.8162	0.14285	0.5397	-0.087
Mof_C 	C 	0.6738	0.22992	0.6854	-0.087
Mof_C 	C 	0.789	0.10875	0.5187	0.006
Mof_C 	C 	0.8609	0.14085	0.5838	0.032
Mof_C 	C 	0.625	0.2089	0.6859	-0.007
Mof_H 	H 	0.7579	0.1106	0.491	0.047
Mof_C 	C 	0.809	0.07135	0.5398	-0.048
Mof_H 	H 	0.8779	0.1641	0.5988	0.057
Mof_C 	C 	0.8803	0.10429	0.6056	-0.085
Mof_H 	H 	0.609	0.2019	0.6426	0.052
Mof_C 	C 	0.7793	0.03441	0.5189	0.136
Mof_C 	C 	0.8536	0.06953	0.5831	0.007
Mof_C 	C 	0.9271	0.1031	0.6575	0.368
Mof_C 	C 	0.7224	0.0337	0.5195	-0.223
Mof_H 	H 	0.8665	0.0448	0.5978	0.049
Mof_O 	O 	0.94392	0.06915	0.6758	-0.388
Mof_O 	O 	0.94528	0.13562	0.6759	-0.398
Mof_C 	C 	0.548	0.1365	0.7029	-0.057
Mof_H 	H 	0.7031	0.0563	0.533	0.12
Mof_H 	H 	0.5842	0.1312	0.684	0.056
Mof_Cu	Cu	0.28987	0.76753	0.53533	0.906
Mof_O 	O 	0.31754	0.71337	0.545	-0.408
Mof_O 	O 	0.2452	0.75774	0.6196	-0.408
Mof_O 	O 	0.32218	0.77203	0.4394	-0.407
Mof_O 	O 	0.24938	0.81633	0.5152	-0.403
Mof_C 	C 	0.2934	0.68326	0.5222	0.359
Mof_C 	C 	0.2011	0.73953	0.6165	0.367
Mof_C 	C 	0.3162	0.64285	0.5397	-0.092
Mof_C 	C 	0.1738	0.72992	0.6854	-0.097
Mof_C 	C 	0.289	0.60875	0.5187	0.008
Mof_C 	C 	0.3609	0.64085	0.5838	0.036
Mof_C 	C 	0.125	0.7089	0.6859	0.006
Mof_H 	H 	0.2579	0.6106	0.491	0.044
Mof_C 	C 	0.309	0.57135	0.5398	-0.052
Mof_H 	H 	0.3779	0.6641	0.5988	0.052
Mof_C 	C 	0.3803	0.60429	0.6056	-0.093
Mof_H 	H 	0.109	0.7019	0.6426	0.043
Mof_C 	C 	0.2793	0.53441	0.5189	0.135
Mof_C 	C 	0.3536	0.56953	0.5831	0.01
Mof_C 	C 	0.4271	0.6031	0.6575	0.372
Mof_C 	C 	0.2224	0.5337	0.5195	-0.223
Mof_H 	H 	0.3665	0.5448	0.5978	0.044
Mof_O 	O 	0.44392	0.56915	0.6758	-0.407
Mof_O 	O 	0.44528	0.63562	0.6759	-0.416
Mof_C 	C 	0.048	0.6365	0.7029	-0.083
Mof_H 	H 	0.2031	0.5563	0.533	0.118
Mof_H 	H 	0.0842	0.6312	0.684	0.06
Mof_C 	C 	0.3018	0.2409	0.75	0.03
Mof_H 	H 	0.2697	0.2552	0.75	0.052
Mof_C 	C 	0.4	0.1981	0.75	-0.028
Mof_C 	C 	0.4528	0.1754	0.75	0.073
Mof_C 	C 	0.8018	0.7409	0.75	0.035
Mof_H 	H 	0.7697	0.7552	0.75	0.052
Mof_C 	C 	0.9	0.6981	0.75	-0.045
Mof_C 	C 	0.9528	0.6754	0.75	0.136
Mof_C 	C 	0.6982	0.7591	0.25	0.029
Mof_H 	H 	0.7303	0.7448	0.25	0.054
Mof_C 	C 	0.6	0.8019	0.25	-0.027
Mof_C 	C 	0.5472	0.8246	0.25	0.073
Mof_C 	C 	0.1982	0.2591	0.25	0.036
Mof_H 	H 	0.2303	0.2448	0.25	0.05
Mof_C 	C 	0.1	0.3019	0.25	-0.051
Mof_C 	C 	0.0472	0.3246	0.25	0.114
Mof_C 	C 	0.6982	0.2409	0.75	0.029
Mof_H 	H 	0.7303	0.2552	0.75	0.054
Mof_C 	C 	0.6	0.1981	0.75	-0.027
Mof_C 	C 	0.5472	0.1754	0.75	0.073
Mof_C 	C 	0.1982	0.7409	0.75	0.036
Mof_H 	H 	0.2303	0.7552	0.75	0.05
Mof_C 	C 	0.1	0.6981	0.75	-0.051
Mof_C 	C 	0.0472	0.6754	0.75	0.114
Mof_C 	C 	0.3018	0.7591	0.25	0.03
Mof_H 	H 	0.2697	0.7448	0.25	0.052
Mof_C 	C 	0.4	0.8019	0.25	-0.028
Mof_C 	C 	0.4528	0.8246	0.25	0.073
Mof_C 	C 	0.8018	0.2591	0.25	0.035
Mof_H 	H 	0.7697	0.2448	0.25	0.052
Mof_C 	C 	0.9	0.3019	0.25	-0.045
Mof_C 	C 	0.9528	0.3246	0.25	0.136
Mof_C 	C 	0.1923	0	0.5	-0.194
Mof_H 	H 	0.1548	0	0.5	0.102
Mof_C 	C 	0.3038	0	0.5	0.2
Mof_N 	N 	0.3626	0	0.5	-0.121
Mof_C 	C 	0.6923	0.5	0.5	-0.194
Mof_H 	H 	0.6548	0.5	0.5	0.105
Mof_C 	C 	0.8038	0.5	0.5	0.204
Mof_N 	N 	0.8626	0.5	0.5	-0.114
Mof_C 	C 	0.8077	0	-0	-0.193
Mof_H 	H 	0.8452	0	-0	0.108
Mof_C 	C 	0.6962	0	-0	0.201
Mof_N 	N 	0.6374	0	-0	-0.12
Mof_C 	C 	0.3077	0.5	-0	-0.194
Mof_H 	H 	0.3452	0.5	-0	0.105
Mof_C 	C 	0.1962	0.5	-0	0.198
Mof_N 	N 	0.1374	0.5	-0	-0.126
Mof_C 	C 	0.8077	0	0.5	-0.193
Mof_H 	H 	0.8452	0	0.5	0.108
Mof_C 	C 	0.6962	0	0.5	0.2
Mof_N 	N 	0.6374	0	0.5	-0.12
Mof_C 	C 	0.3077	0.5	0.5	-0.194
Mof_H 	H 	0.3452	0.5	0.5	0.105
Mof_C 	C 	0.1962	0.5	0.5	0.197
Mof_N 	N 	0.1374	0.5	0.5	-0.126
Mof_C 	C 	0.1923	0	-0	-0.194
Mof_H 	H 	0.1548	0	-0	0.102
Mof_C 	C 	0.3038	0	-0	0.201
Mof_N 	N 	0.3626	0	-0	-0.121
Mof_C 	C 	0.6923	0.5	-0	-0.194
Mof_H 	H 	0.6548	0.5	-0	0.105
Mof_C 	C 	0.8038	0.5	-0	0.204
Mof_N 	N 	0.8626	0.5	-0	-0.114
Mof_C 	C 	0.5	0.1937	0.75	-0.144
Mof_H 	H 	0.5	0.2215	0.75	0.09
Mof_C 	C 	-4.3832e-33	0.6937	0.75	-0.236
Mof_H 	H 	2.11718e-33	0.7215	0.75	0.109
Mof_C 	C 	0.5	0.8063	0.25	-0.144
Mof_H 	H 	0.5	0.7785	0.25	0.091
Mof_C 	C 	-5.79465e-33	0.3063	0.25	-0.236
Mof_H 	H 	3.95591e-33	0.2785	0.25	0.109
Mof_Cu	Cu	-4.3832e-33	0.06236	0.75	0.885
Mof_Cu	Cu	2.11718e-33	0.14132	0.75	0.893
Mof_Cu	Cu	0.5	0.56236	0.75	0.901
Mof_Cu	Cu	0.5	0.64132	0.75	0.91
Mof_Cu	Cu	-9.04483e-33	0.93764	0.25	0.885
Mof_Cu	Cu	-9.04483e-33	0.85868	0.25	0.893
Mof_Cu	Cu	0.5	0.43764	0.25	0.901
Mof_Cu	Cu	0.5	0.35868	0.25	0.91
_end
