# CIF file generated by openbabel 3.1.0, see https://openbabel.org
data_I
_chemical_name_common 'KAXZUG_clean'
_cell_length_a 9.6398
_cell_length_b 13.065
_cell_length_c 21.054
_cell_angle_alpha 102.46
_cell_angle_beta 102.39
_cell_angle_gamma 99.52
_space_group_name_H-M_alt 'P 1'
_space_group_name_Hall 'P 1'
loop_
    _symmetry_equiv_pos_as_xyz
    x,y,z
loop_
    _atom_site_label
    _atom_site_type_symbol
    _atom_site_fract_x
    _atom_site_fract_y
    _atom_site_fract_z
    _atom_site_occupancy
    Cd1      Cd       0.08026    0.83052    0.10420    1.000
    Cd2      Cd       0.83287    0.10745    0.54436    1.000
    Cd3      Cd       0.91974    0.16948    0.89580    1.000
    Cd4      Cd       0.16713    0.89255    0.45564    1.000
    H1       H        0.54260    0.73480    0.17120    1.000
    H2       H        0.75370    0.72590    0.24410    1.000
    H3       H        0.46670    0.95200    0.31800    1.000
    H4       H        0.76630    0.64690    0.10720    1.000
    H5       H        0.16120    0.61980    0.17200    1.000
    H6       H        0.05910    0.40250    0.17860    1.000
    H7       H        0.09230    0.48450    0.24910    1.000
    H8       H        0.99830    0.56230    0.31020    1.000
    H9       H        0.85340    0.56960    0.33160    1.000
    H10      H        0.97220    0.52370    0.37310    1.000
    H11      H        0.92900    0.20520    0.11500    1.000
    H12      H        0.76810    0.20520    0.08030    1.000
    H13      H        0.89010    0.31030    0.09910    1.000
    H14      H        0.55310    0.20460    0.31860    1.000
    H15      H        0.50750    0.12610    0.24620    1.000
    H16      H        0.63890    0.11500    0.30090    1.000
    H17      H        0.60640    0.35940    0.35960    1.000
    H18      H        0.73260    0.46240    0.38050    1.000
    H19      H        0.63730    0.24880    0.44720    1.000
    H20      H        0.05570    0.31910    0.51270    1.000
    H21      H        0.64210    0.09630    0.10990    1.000
    H22      H        0.58210    0.06340    0.16790    1.000
    H23      H        0.80610    0.97150    0.07390    1.000
    H24      H        0.97350    0.92240    0.24560    1.000
    H25      H        0.91410    0.58220    0.98530    1.000
    H26      H        0.84500    0.85870    0.96710    1.000
    H27      H        0.54780    0.69440    0.85530    1.000
    H28      H        0.65020    0.80040    0.85450    1.000
    H29      H        0.51120    0.43230    0.78100    1.000
    H30      H        0.51070    0.53970    0.83140    1.000
    H31      H        0.38750    0.49400    0.76400    1.000
    H32      H        0.77690    0.88940    0.76430    1.000
    H33      H        0.83380    0.85730    0.83110    1.000
    H34      H        0.92400    0.85140    0.77720    1.000
    H35      H        0.76460    0.49390    0.58210    1.000
    H36      H        0.59390    0.46520    0.55950    1.000
    H37      H        0.68010    0.57570    0.55590    1.000
    H38      H        0.44530    0.40140    0.60420    1.000
    H39      H        0.42990    0.38220    0.67370    1.000
    H40      H        0.52330    0.22850    0.55180    1.000
    H41      H        0.84450    0.23580    0.69890    1.000
    H42      H        0.88270    0.68170    0.62020    1.000
    H43      H        0.95040    0.76970    0.68850    1.000
    H44      H        0.98030    0.91900    0.62050    1.000
    H45      H        0.56950    0.91170    0.55860    1.000
    H46      H        0.45740    0.26520    0.82880    1.000
    H47      H        0.24630    0.27410    0.75590    1.000
    H48      H        0.53330    0.04800    0.68200    1.000
    H49      H        0.23370    0.35310    0.89280    1.000
    H50      H        0.83880    0.38020    0.82800    1.000
    H51      H        0.94090    0.59750    0.82140    1.000
    H52      H        0.90770    0.51550    0.75090    1.000
    H53      H        0.00170    0.43770    0.68980    1.000
    H54      H        0.14660    0.43040    0.66840    1.000
    H55      H        0.02780    0.47630    0.62690    1.000
    H56      H        0.07100    0.79480    0.88500    1.000
    H57      H        0.23190    0.79480    0.91970    1.000
    H58      H        0.10990    0.68970    0.90090    1.000
    H59      H        0.44690    0.79540    0.68140    1.000
    H60      H        0.49250    0.87390    0.75380    1.000
    H61      H        0.36110    0.88500    0.69910    1.000
    H62      H        0.39360    0.64060    0.64040    1.000
    H63      H        0.26740    0.53760    0.61950    1.000
    H64      H        0.36270    0.75120    0.55280    1.000
    H65      H        0.94430    0.68090    0.48730    1.000
    H66      H        0.35790    0.90370    0.89010    1.000
    H67      H        0.41790    0.93660    0.83210    1.000
    H68      H        0.19390    0.02850    0.92610    1.000
    H69      H        0.02650    0.07760    0.75440    1.000
    H70      H        0.08590    0.41780    0.01470    1.000
    H71      H        0.15500    0.14130    0.03290    1.000
    H72      H        0.45220    0.30560    0.14470    1.000
    H73      H        0.34980    0.19960    0.14550    1.000
    H74      H        0.48880    0.56770    0.21900    1.000
    H75      H        0.48930    0.46030    0.16860    1.000
    H76      H        0.61250    0.50600    0.23600    1.000
    H77      H        0.22310    0.11060    0.23570    1.000
    H78      H        0.16620    0.14270    0.16890    1.000
    H79      H        0.07600    0.14860    0.22280    1.000
    H80      H        0.23540    0.50610    0.41790    1.000
    H81      H        0.40610    0.53480    0.44050    1.000
    H82      H        0.31990    0.42430    0.44410    1.000
    H83      H        0.55470    0.59860    0.39580    1.000
    H84      H        0.57010    0.61780    0.32630    1.000
    H85      H        0.47670    0.77150    0.44820    1.000
    H86      H        0.15550    0.76420    0.30110    1.000
    H87      H        0.11730    0.31830    0.37980    1.000
    H88      H        0.04960    0.23030    0.31150    1.000
    H89      H        0.01970    0.08100    0.37950    1.000
    H90      H        0.43050    0.08830    0.44140    1.000
    C1       C        0.33850    0.84040    0.19170    1.000
    C2       C        0.48160    0.84240    0.23760    1.000
    C3       C        0.56920    0.77620    0.21560    1.000
    C4       C        0.69590    0.77120    0.25910    1.000
    C5       C        0.73740    0.83360    0.32536    1.000
    C6       C        0.65440    0.90580    0.34714    1.000
    C7       C        0.52520    0.90710    0.30325    1.000
    C8       C        0.86770    0.81960    0.37340    1.000
    C9       C        0.70780    0.98200    0.41615    1.000
    C10      C        0.84590    0.62250    0.12700    1.000
    C11      C        0.06030    0.60930    0.16210    1.000
    C12      C        0.01710    0.44910    0.20780    1.000
    C13      C        0.89440    0.38070    0.22440    1.000
    C14      C        0.85630    0.41650    0.28420    1.000
    C15      C        0.75270    0.34680    0.30240    1.000
    C16      C        0.69130    0.24180    0.26140    1.000
    C17      C        0.72810    0.20880    0.20060    1.000
    C18      C        0.82650    0.27960    0.18090    1.000
    C19      C        0.92640    0.52820    0.32880    1.000
    C20      C        0.85610    0.24710    0.11260    1.000
    C21      C        0.58820    0.16480    0.28380    1.000
    C22      C        0.71050    0.38450    0.36710    1.000
    C23      C        0.73570    0.27800    0.45390    1.000
    C24      C        0.96200    0.31750    0.48870    1.000
    C25      C        0.66910    0.09490    0.15680    1.000
    C26      C        0.82960    0.97320    0.11930    1.000
    C27      C        0.91900    0.94800    0.21290    1.000
    C28      C        0.87700    0.63470    0.96800    1.000
    C29      C        0.84160    0.78540    0.95940    1.000
    C30      C        0.64300    0.72420    0.85060    1.000
    C31      C        0.65600    0.67060    0.78186    1.000
    C32      C        0.57900    0.56450    0.75000    1.000
    C33      C        0.58690    0.51670    0.68460    1.000
    C34      C        0.67420    0.57280    0.65230    1.000
    C35      C        0.75580    0.67670    0.68630    1.000
    C36      C        0.74570    0.72640    0.75010    1.000
    C37      C        0.48900    0.50200    0.78480    1.000
    C38      C        0.82760    0.84170    0.78380    1.000
    C39      C        0.67860    0.52230    0.58090    1.000
    C40      C        0.49940    0.40310    0.64910    1.000
    C41      C        0.59090    0.24680    0.59350    1.000
    C42      C        0.76330    0.25210    0.67380    1.000
    C43      C        0.86030    0.73440    0.65440    1.000
    C44      C        0.87930    0.89940    0.61060    1.000
    C45      C        0.65560    0.89350    0.57710    1.000
    C46      C        0.66150    0.15960    0.80830    1.000
    C47      C        0.51840    0.15760    0.76240    1.000
    C48      C        0.43080    0.22380    0.78440    1.000
    C49      C        0.30410    0.22880    0.74090    1.000
    C50      C        0.26260    0.16640    0.67464    1.000
    C51      C        0.34560    0.09420    0.65286    1.000
    C52      C        0.47480    0.09290    0.69675    1.000
    C53      C        0.13230    0.18040    0.62660    1.000
    C54      C        0.29220    0.01800    0.58385    1.000
    C55      C        0.15410    0.37750    0.87300    1.000
    C56      C        0.93970    0.39070    0.83790    1.000
    C57      C        0.98290    0.55090    0.79220    1.000
    C58      C        0.10560    0.61930    0.77560    1.000
    C59      C        0.14370    0.58350    0.71580    1.000
    C60      C        0.24730    0.65320    0.69760    1.000
    C61      C        0.30870    0.75820    0.73860    1.000
    C62      C        0.27190    0.79120    0.79940    1.000
    C63      C        0.17350    0.72040    0.81910    1.000
    C64      C        0.07360    0.47180    0.67120    1.000
    C65      C        0.14390    0.75290    0.88740    1.000
    C66      C        0.41180    0.83520    0.71620    1.000
    C67      C        0.28950    0.61550    0.63290    1.000
    C68      C        0.26430    0.72200    0.54610    1.000
    C69      C        0.03800    0.68250    0.51130    1.000
    C70      C        0.33090    0.90510    0.84320    1.000
    C71      C        0.17040    0.02680    0.88070    1.000
    C72      C        0.08100    0.05200    0.78710    1.000
    C73      C        0.12300    0.36530    0.03200    1.000
    C74      C        0.15840    0.21460    0.04060    1.000
    C75      C        0.35700    0.27580    0.14940    1.000
    C76      C        0.34400    0.32940    0.21814    1.000
    C77      C        0.42100    0.43550    0.25000    1.000
    C78      C        0.41310    0.48330    0.31540    1.000
    C79      C        0.32580    0.42720    0.34770    1.000
    C80      C        0.24420    0.32330    0.31370    1.000
    C81      C        0.25430    0.27360    0.24990    1.000
    C82      C        0.51100    0.49800    0.21520    1.000
    C83      C        0.17240    0.15830    0.21620    1.000
    C84      C        0.32140    0.47770    0.41910    1.000
    C85      C        0.50060    0.59690    0.35090    1.000
    C86      C        0.40910    0.75320    0.40650    1.000
    C87      C        0.23670    0.74790    0.32620    1.000
    C88      C        0.13970    0.26560    0.34560    1.000
    C89      C        0.12070    0.10060    0.38940    1.000
    C90      C        0.34440    0.10650    0.42290    1.000
    N1       N        0.98400    0.67020    0.13335    1.000
    N2       N        0.97280    0.53180    0.17457    1.000
    N3       N        0.83360    0.53710    0.15140    1.000
    N4       N        0.78760    0.34500    0.42144    1.000
    N5       N        0.93570    0.37290    0.44400    1.000
    N6       N        0.84190    0.25820    0.49701    1.000
    N7       N        0.77570    0.02830    0.16566    1.000
    N8       N        0.83250    0.01390    0.22680    1.000
    N9       N        0.92210    0.92100    0.14791    1.000
    N10      N        0.92110    0.74080    0.99997    1.000
    N11      N        0.75590    0.71060    0.90590    1.000
    N12      N        0.77760    0.61200    0.91040    1.000
    N13      N        0.59370    0.32650    0.64421    1.000
    N14      N        0.70510    0.33070    0.69796    1.000
    N15      N        0.69530    0.19600    0.60874    1.000
    N16      N        0.80340    0.81450    0.62358    1.000
    N17      N        0.65850    0.80840    0.60130    1.000
    N18      N        0.78780    0.95140    0.58135    1.000
    N19      N        0.01600    0.32980    0.86665    1.000
    N20      N        0.02720    0.46820    0.82543    1.000
    N21      N        0.16640    0.46290    0.84860    1.000
    N22      N        0.21240    0.65500    0.57856    1.000
    N23      N        0.06430    0.62710    0.55600    1.000
    N24      N        0.15810    0.74180    0.50299    1.000
    N25      N        0.22430    0.97170    0.83434    1.000
    N26      N        0.16750    0.98610    0.77320    1.000
    N27      N        0.07790    0.07900    0.85209    1.000
    N28      N        0.07890    0.25920    0.00003    1.000
    N29      N        0.24410    0.28940    0.09410    1.000
    N30      N        0.22240    0.38800    0.08960    1.000
    N31      N        0.40630    0.67350    0.35579    1.000
    N32      N        0.29490    0.66930    0.30204    1.000
    N33      N        0.30470    0.80400    0.39126    1.000
    N34      N        0.19660    0.18550    0.37642    1.000
    N35      N        0.34150    0.19160    0.39870    1.000
    N36      N        0.21220    0.04860    0.41865    1.000
    Cl1      Cl       0.20325    0.96675    0.05210    1.000
    Cl2      Cl       0.79675    0.03325    0.94790    1.000
    O1       O        0.30130    0.77730    0.13250    1.000
    O2       O        0.25670    0.89720    0.21214    1.000
    O3       O        0.61960    0.01140    0.44739    1.000
    O4       O        0.84400    0.01500    0.44016    1.000
    O5       O        0.84510    0.78050    0.41990    1.000
    O6       O        0.98770    0.84280    0.36080    1.000
    O7       O        0.69870    0.22270    0.86750    1.000
    O8       O        0.74330    0.10280    0.78786    1.000
    O9       O        0.38040    0.98860    0.55261    1.000
    O10      O        0.15600    0.98500    0.55984    1.000
    O11      O        0.15490    0.21950    0.58010    1.000
    O12      O        0.01230    0.15720    0.63920    1.000
