data_functionalizedCrystal
_audit_creation_method	'EQeq! by Chris Wilmer'
_symmetry_space_group_name_H-M	'P1'
_symmetry_Int_Tables_number	1
_symmetry_cell_setting	triclinic
loop_
_symmetry_equiv_pos_as_xyz
  x,y,z
_cell_length_a	21.0408
_cell_length_b	21.0408
_cell_length_c	21.0408
_cell_angle_alpha	90
_cell_angle_beta	90
_cell_angle_gamma	90
loop_
_atom_site_label
_atom_site_type_symbol
_atom_site_fract_x
_atom_site_fract_y
_atom_site_fract_z
_atom_site_charge
Mof_C 	C 	0.3518	0.1981	0.9556	-0.201
Mof_H 	H 	0.3227	0.1665	0.9363	0.071
Mof_H 	H 	0.3884	0.175	0.9741	0.066
Mof_C 	C 	0.3742	0.2427	0.9067	-0.058
Mof_O 	O 	0.4061	0.2197	0.8646	-0.323
Mof_O 	O 	0.3572	0.3	0.9123	-0.266
Mof_C 	C 	0.3606	0.2194	0.9276	0.083
Mof_H 	H 	0.3756	0.1751	0.923	0.046
Mof_H 	H 	0.3315	0.2293	0.892	0.068
Mof_C 	C 	0.4167	0.2654	0.9282	0.485
Mof_O 	O 	0.461	0.2543	0.8903	-0.369
Mof_O 	O 	0.4149	0.3124	0.9633	-0.27
Mof_C 	C 	0.2529	0.2146	0.9755	0.01
Mof_C 	C 	0.2371	0.1431	0.9779	0.077
Mof_C 	C 	0.166	0.1324	0.9701	-0.001
Mof_C 	C 	0.6482	0.8019	0.9556	-0.207
Mof_H 	H 	0.6773	0.8335	0.9363	0.073
Mof_H 	H 	0.6116	0.825	0.9741	0.07
Mof_C 	C 	0.6258	0.7573	0.9067	-0.053
Mof_O 	O 	0.5939	0.7803	0.8646	-0.325
Mof_O 	O 	0.6428	0.7	0.9123	-0.267
Mof_C 	C 	0.6394	0.7806	0.9276	0.084
Mof_H 	H 	0.6244	0.8249	0.923	0.049
Mof_H 	H 	0.6685	0.7707	0.892	0.067
Mof_C 	C 	0.5833	0.7346	0.9282	0.484
Mof_O 	O 	0.539	0.7457	0.8903	-0.367
Mof_O 	O 	0.5851	0.6876	0.9633	-0.269
Mof_C 	C 	0.7471	0.7854	0.9755	0.01
Mof_C 	C 	0.7629	0.8569	0.9779	0.078
Mof_C 	C 	0.834	0.8676	0.9701	0.003
Mof_C 	C 	0.6482	0.1981	0.0444	-0.236
Mof_H 	H 	0.6773	0.1665	0.0637	0.083
Mof_H 	H 	0.6116	0.175	0.0259	0.042
Mof_C 	C 	0.6258	0.2427	0.0933	-0.024
Mof_O 	O 	0.5939	0.2197	0.1354	-0.332
Mof_O 	O 	0.6428	0.3	0.0877	-0.272
Mof_C 	C 	0.6394	0.2194	0.0724	0.073
Mof_H 	H 	0.6244	0.1751	0.077	0.056
Mof_H 	H 	0.6685	0.2293	0.108	0.066
Mof_C 	C 	0.5833	0.2654	0.0718	0.47
Mof_O 	O 	0.539	0.2543	0.1097	-0.368
Mof_O 	O 	0.5851	0.3124	0.0367	-0.302
Mof_C 	C 	0.7471	0.2146	0.0245	-0.014
Mof_C 	C 	0.7629	0.1431	0.0221	-0.104
Mof_C 	C 	0.834	0.1324	0.0299	-0.007
Mof_C 	C 	0.3518	0.8019	0.0444	-0.241
Mof_H 	H 	0.3227	0.8335	0.0637	0.085
Mof_H 	H 	0.3884	0.825	0.0259	0.045
Mof_C 	C 	0.3742	0.7573	0.0933	-0.02
Mof_O 	O 	0.4061	0.7803	0.1354	-0.333
Mof_O 	O 	0.3572	0.7	0.0877	-0.273
Mof_C 	C 	0.3606	0.7806	0.0724	0.072
Mof_H 	H 	0.3756	0.8249	0.077	0.058
Mof_H 	H 	0.3315	0.7707	0.108	0.065
Mof_C 	C 	0.4167	0.7346	0.0718	0.469
Mof_O 	O 	0.461	0.7457	0.1097	-0.367
Mof_O 	O 	0.4149	0.6876	0.0367	-0.302
Mof_C 	C 	0.2529	0.7854	0.0245	-0.014
Mof_C 	C 	0.2371	0.8569	0.0221	-0.103
Mof_C 	C 	0.166	0.8676	0.0299	-0.004
Mof_C 	C 	0.9556	0.3518	0.1981	-0.2
Mof_H 	H 	0.9363	0.3227	0.1665	0.072
Mof_H 	H 	0.9741	0.3884	0.175	0.067
Mof_C 	C 	0.9067	0.3742	0.2427	-0.057
Mof_O 	O 	0.8646	0.4061	0.2197	-0.322
Mof_O 	O 	0.9123	0.3572	0.3	-0.265
Mof_C 	C 	0.9276	0.3606	0.2194	0.084
Mof_H 	H 	0.923	0.3756	0.1751	0.047
Mof_H 	H 	0.892	0.3315	0.2293	0.069
Mof_C 	C 	0.9282	0.4167	0.2654	0.486
Mof_O 	O 	0.8903	0.461	0.2543	-0.368
Mof_O 	O 	0.9633	0.4149	0.3124	-0.269
Mof_C 	C 	0.9755	0.2529	0.2146	0.011
Mof_C 	C 	0.9779	0.2371	0.1431	0.078
Mof_C 	C 	0.9701	0.166	0.1324	-0
Mof_C 	C 	0.9556	0.6482	0.8019	-0.206
Mof_H 	H 	0.9363	0.6773	0.8335	0.074
Mof_H 	H 	0.9741	0.6116	0.825	0.071
Mof_C 	C 	0.9067	0.6258	0.7573	-0.052
Mof_O 	O 	0.8646	0.5939	0.7803	-0.324
Mof_O 	O 	0.9123	0.6428	0.7	-0.266
Mof_C 	C 	0.9276	0.6394	0.7806	0.084
Mof_H 	H 	0.923	0.6244	0.8249	0.049
Mof_H 	H 	0.892	0.6685	0.7707	0.067
Mof_C 	C 	0.9282	0.5833	0.7346	0.484
Mof_O 	O 	0.8903	0.539	0.7457	-0.367
Mof_O 	O 	0.9633	0.5851	0.6876	-0.269
Mof_C 	C 	0.9755	0.7471	0.7854	0.01
Mof_C 	C 	0.9779	0.7629	0.8569	0.078
Mof_C 	C 	0.9701	0.834	0.8676	0.003
Mof_C 	C 	0.0444	0.6482	0.1981	-0.236
Mof_H 	H 	0.0637	0.6773	0.1665	0.083
Mof_H 	H 	0.0259	0.6116	0.175	0.042
Mof_C 	C 	0.0933	0.6258	0.2427	-0.024
Mof_O 	O 	0.1354	0.5939	0.2197	-0.332
Mof_O 	O 	0.0877	0.6428	0.3	-0.272
Mof_C 	C 	0.0724	0.6394	0.2194	0.073
Mof_H 	H 	0.077	0.6244	0.1751	0.056
Mof_H 	H 	0.108	0.6685	0.2293	0.066
Mof_C 	C 	0.0718	0.5833	0.2654	0.47
Mof_O 	O 	0.1097	0.539	0.2543	-0.368
Mof_O 	O 	0.0367	0.5851	0.3124	-0.302
Mof_C 	C 	0.0245	0.7471	0.2146	-0.014
Mof_C 	C 	0.0221	0.7629	0.1431	-0.104
Mof_C 	C 	0.0299	0.834	0.1324	-0.007
Mof_C 	C 	0.0444	0.3518	0.8019	-0.241
Mof_H 	H 	0.0637	0.3227	0.8335	0.085
Mof_H 	H 	0.0259	0.3884	0.825	0.045
Mof_C 	C 	0.0933	0.3742	0.7573	-0.02
Mof_O 	O 	0.1354	0.4061	0.7803	-0.333
Mof_O 	O 	0.0877	0.3572	0.7	-0.273
Mof_C 	C 	0.0724	0.3606	0.7806	0.072
Mof_H 	H 	0.077	0.3756	0.8249	0.058
Mof_H 	H 	0.108	0.3315	0.7707	0.065
Mof_C 	C 	0.0718	0.4167	0.7346	0.469
Mof_O 	O 	0.1097	0.461	0.7457	-0.367
Mof_O 	O 	0.0367	0.4149	0.6876	-0.302
Mof_C 	C 	0.0245	0.2529	0.7854	-0.014
Mof_C 	C 	0.0221	0.2371	0.8569	-0.103
Mof_C 	C 	0.0299	0.166	0.8676	-0.004
Mof_C 	C 	0.1981	0.9556	0.3518	-0.2
Mof_H 	H 	0.1665	0.9363	0.3227	0.072
Mof_H 	H 	0.175	0.9741	0.3884	0.067
Mof_C 	C 	0.2427	0.9067	0.3742	-0.057
Mof_O 	O 	0.2197	0.8646	0.4061	-0.322
Mof_O 	O 	0.3	0.9123	0.3572	-0.265
Mof_C 	C 	0.2194	0.9276	0.3606	0.084
Mof_H 	H 	0.1751	0.923	0.3756	0.047
Mof_H 	H 	0.2293	0.892	0.3315	0.069
Mof_C 	C 	0.2654	0.9282	0.4167	0.486
Mof_O 	O 	0.2543	0.8903	0.461	-0.368
Mof_O 	O 	0.3124	0.9633	0.4149	-0.269
Mof_C 	C 	0.2146	0.9755	0.2529	0.011
Mof_C 	C 	0.1431	0.9779	0.2371	0.078
Mof_C 	C 	0.1324	0.9701	0.166	-0
Mof_C 	C 	0.8019	0.9556	0.6482	-0.206
Mof_H 	H 	0.8335	0.9363	0.6773	0.074
Mof_H 	H 	0.825	0.9741	0.6116	0.071
Mof_C 	C 	0.7573	0.9067	0.6258	-0.052
Mof_O 	O 	0.7803	0.8646	0.5939	-0.324
Mof_O 	O 	0.7	0.9123	0.6428	-0.266
Mof_C 	C 	0.7806	0.9276	0.6394	0.084
Mof_H 	H 	0.8249	0.923	0.6244	0.049
Mof_H 	H 	0.7707	0.892	0.6685	0.067
Mof_C 	C 	0.7346	0.9282	0.5833	0.484
Mof_O 	O 	0.7457	0.8903	0.539	-0.367
Mof_O 	O 	0.6876	0.9633	0.5851	-0.269
Mof_C 	C 	0.7854	0.9755	0.7471	0.01
Mof_C 	C 	0.8569	0.9779	0.7629	0.078
Mof_C 	C 	0.8676	0.9701	0.834	0.003
Mof_C 	C 	0.1981	0.0444	0.6482	-0.236
Mof_H 	H 	0.1665	0.0637	0.6773	0.083
Mof_H 	H 	0.175	0.0259	0.6116	0.042
Mof_C 	C 	0.2427	0.0933	0.6258	-0.024
Mof_O 	O 	0.2197	0.1354	0.5939	-0.332
Mof_O 	O 	0.3	0.0877	0.6428	-0.272
Mof_C 	C 	0.2194	0.0724	0.6394	0.073
Mof_H 	H 	0.1751	0.077	0.6244	0.056
Mof_H 	H 	0.2293	0.108	0.6685	0.066
Mof_C 	C 	0.2654	0.0718	0.5833	0.47
Mof_O 	O 	0.2543	0.1097	0.539	-0.368
Mof_O 	O 	0.3124	0.0367	0.5851	-0.302
Mof_C 	C 	0.2146	0.0245	0.7471	-0.014
Mof_C 	C 	0.1431	0.0221	0.7629	-0.104
Mof_C 	C 	0.1324	0.0299	0.834	-0.007
Mof_C 	C 	0.8019	0.0444	0.3518	-0.241
Mof_H 	H 	0.8335	0.0637	0.3227	0.085
Mof_H 	H 	0.825	0.0259	0.3884	0.045
Mof_C 	C 	0.7573	0.0933	0.3742	-0.02
Mof_O 	O 	0.7803	0.1354	0.4061	-0.333
Mof_O 	O 	0.7	0.0877	0.3572	-0.273
Mof_C 	C 	0.7806	0.0724	0.3606	0.072
Mof_H 	H 	0.8249	0.077	0.3756	0.058
Mof_H 	H 	0.7707	0.108	0.3315	0.065
Mof_C 	C 	0.7346	0.0718	0.4167	0.469
Mof_O 	O 	0.7457	0.1097	0.461	-0.367
Mof_O 	O 	0.6876	0.0367	0.4149	-0.302
Mof_C 	C 	0.7854	0.0245	0.2529	-0.014
Mof_C 	C 	0.8569	0.0221	0.2371	-0.103
Mof_C 	C 	0.8676	0.0299	0.166	-0.004
Mof_C 	C 	0.1981	0.3518	0.0444	-0.236
Mof_H 	H 	0.1665	0.3227	0.0637	0.083
Mof_H 	H 	0.175	0.3884	0.0259	0.042
Mof_C 	C 	0.2427	0.3742	0.0933	-0.024
Mof_O 	O 	0.2197	0.4061	0.1354	-0.332
Mof_O 	O 	0.3	0.3572	0.0877	-0.272
Mof_C 	C 	0.2194	0.3606	0.0724	0.073
Mof_H 	H 	0.1751	0.3756	0.077	0.056
Mof_H 	H 	0.2293	0.3315	0.108	0.067
Mof_C 	C 	0.2654	0.4167	0.0718	0.471
Mof_O 	O 	0.2543	0.461	0.1097	-0.368
Mof_O 	O 	0.3124	0.4149	0.0367	-0.302
Mof_C 	C 	0.2146	0.2529	0.0245	-0.014
Mof_C 	C 	0.1431	0.2371	0.0221	-0.104
Mof_C 	C 	0.1324	0.166	0.0299	-0.007
Mof_C 	C 	0.8019	0.6482	0.0444	-0.241
Mof_H 	H 	0.8335	0.6773	0.0637	0.085
Mof_H 	H 	0.825	0.6116	0.0259	0.046
Mof_C 	C 	0.7573	0.6258	0.0933	-0.019
Mof_O 	O 	0.7803	0.5939	0.1354	-0.333
Mof_O 	O 	0.7	0.6428	0.0877	-0.273
Mof_C 	C 	0.7806	0.6394	0.0724	0.073
Mof_H 	H 	0.8249	0.6244	0.077	0.058
Mof_H 	H 	0.7707	0.6685	0.108	0.065
Mof_C 	C 	0.7346	0.5833	0.0718	0.468
Mof_O 	O 	0.7457	0.539	0.1097	-0.367
Mof_O 	O 	0.6876	0.5851	0.0367	-0.301
Mof_C 	C 	0.7854	0.7471	0.0245	-0.015
Mof_C 	C 	0.8569	0.7629	0.0221	-0.104
Mof_C 	C 	0.8676	0.834	0.0299	-0.003
Mof_C 	C 	0.1981	0.6482	0.9556	-0.201
Mof_H 	H 	0.1665	0.6773	0.9363	0.072
Mof_H 	H 	0.175	0.6116	0.9741	0.067
Mof_C 	C 	0.2427	0.6258	0.9067	-0.057
Mof_O 	O 	0.2197	0.5939	0.8646	-0.323
Mof_O 	O 	0.3	0.6428	0.9123	-0.265
Mof_C 	C 	0.2194	0.6394	0.9276	0.084
Mof_H 	H 	0.1751	0.6244	0.923	0.047
Mof_H 	H 	0.2293	0.6685	0.892	0.069
Mof_C 	C 	0.2654	0.5833	0.9282	0.486
Mof_O 	O 	0.2543	0.539	0.8903	-0.368
Mof_O 	O 	0.3124	0.5851	0.9633	-0.269
Mof_C 	C 	0.2146	0.7471	0.9755	0.011
Mof_C 	C 	0.1431	0.7629	0.9779	0.078
Mof_C 	C 	0.1324	0.834	0.9701	-0
Mof_C 	C 	0.8019	0.3518	0.9556	-0.205
Mof_H 	H 	0.8335	0.3227	0.9363	0.074
Mof_H 	H 	0.825	0.3884	0.9741	0.071
Mof_C 	C 	0.7573	0.3742	0.9067	-0.053
Mof_O 	O 	0.7803	0.4061	0.8646	-0.324
Mof_O 	O 	0.7	0.3572	0.9123	-0.266
Mof_C 	C 	0.7806	0.3606	0.9276	0.084
Mof_H 	H 	0.8249	0.3756	0.923	0.049
Mof_H 	H 	0.7707	0.3315	0.892	0.067
Mof_C 	C 	0.7346	0.4167	0.9282	0.484
Mof_O 	O 	0.7457	0.461	0.8903	-0.367
Mof_O 	O 	0.6876	0.4149	0.9633	-0.269
Mof_C 	C 	0.7854	0.2529	0.9755	0.01
Mof_C 	C 	0.8569	0.2371	0.9779	0.078
Mof_C 	C 	0.8676	0.166	0.9701	0.003
Mof_C 	C 	0.3518	0.9556	0.8019	-0.205
Mof_H 	H 	0.3227	0.9363	0.8335	0.074
Mof_H 	H 	0.3884	0.9741	0.825	0.071
Mof_C 	C 	0.3742	0.9067	0.7573	-0.053
Mof_O 	O 	0.4061	0.8646	0.7803	-0.324
Mof_O 	O 	0.3572	0.9123	0.7	-0.266
Mof_C 	C 	0.3606	0.9276	0.7806	0.084
Mof_H 	H 	0.3756	0.923	0.8249	0.049
Mof_H 	H 	0.3315	0.892	0.7707	0.067
Mof_C 	C 	0.4167	0.9282	0.7346	0.484
Mof_O 	O 	0.461	0.8903	0.7457	-0.367
Mof_O 	O 	0.4149	0.9633	0.6876	-0.269
Mof_C 	C 	0.2529	0.9755	0.7854	0.01
Mof_C 	C 	0.2371	0.9779	0.8569	0.078
Mof_C 	C 	0.166	0.9701	0.8676	0.003
Mof_C 	C 	0.6482	0.9556	0.1981	-0.201
Mof_H 	H 	0.6773	0.9363	0.1665	0.072
Mof_H 	H 	0.6116	0.9741	0.175	0.067
Mof_C 	C 	0.6258	0.9067	0.2427	-0.057
Mof_O 	O 	0.5939	0.8646	0.2197	-0.323
Mof_O 	O 	0.6428	0.9123	0.3	-0.265
Mof_C 	C 	0.6394	0.9276	0.2194	0.084
Mof_H 	H 	0.6244	0.923	0.1751	0.047
Mof_H 	H 	0.6685	0.892	0.2293	0.069
Mof_C 	C 	0.5833	0.9282	0.2654	0.486
Mof_O 	O 	0.539	0.8903	0.2543	-0.368
Mof_O 	O 	0.5851	0.9633	0.3124	-0.269
Mof_C 	C 	0.7471	0.9755	0.2146	0.011
Mof_C 	C 	0.7629	0.9779	0.1431	0.078
Mof_C 	C 	0.834	0.9701	0.1324	-0
Mof_C 	C 	0.6482	0.0444	0.8019	-0.241
Mof_H 	H 	0.6773	0.0637	0.8335	0.085
Mof_H 	H 	0.6116	0.0259	0.825	0.046
Mof_C 	C 	0.6258	0.0933	0.7573	-0.019
Mof_O 	O 	0.5939	0.1354	0.7803	-0.333
Mof_O 	O 	0.6428	0.0877	0.7	-0.273
Mof_C 	C 	0.6394	0.0724	0.7806	0.073
Mof_H 	H 	0.6244	0.077	0.8249	0.058
Mof_H 	H 	0.6685	0.108	0.7707	0.065
Mof_C 	C 	0.5833	0.0718	0.7346	0.468
Mof_O 	O 	0.539	0.1097	0.7457	-0.367
Mof_O 	O 	0.5851	0.0367	0.6876	-0.301
Mof_C 	C 	0.7471	0.0245	0.7854	-0.015
Mof_C 	C 	0.7629	0.0221	0.8569	-0.104
Mof_C 	C 	0.834	0.0299	0.8676	-0.003
Mof_C 	C 	0.3518	0.0444	0.1981	-0.236
Mof_H 	H 	0.3227	0.0637	0.1665	0.083
Mof_H 	H 	0.3884	0.0259	0.175	0.042
Mof_C 	C 	0.3742	0.0933	0.2427	-0.024
Mof_O 	O 	0.4061	0.1354	0.2197	-0.332
Mof_O 	O 	0.3572	0.0877	0.3	-0.272
Mof_C 	C 	0.3606	0.0724	0.2194	0.073
Mof_H 	H 	0.3756	0.077	0.1751	0.056
Mof_H 	H 	0.3315	0.108	0.2293	0.067
Mof_C 	C 	0.4167	0.0718	0.2654	0.471
Mof_O 	O 	0.461	0.1097	0.2543	-0.368
Mof_O 	O 	0.4149	0.0367	0.3124	-0.302
Mof_C 	C 	0.2529	0.0245	0.2146	-0.014
Mof_C 	C 	0.2371	0.0221	0.1431	-0.104
Mof_C 	C 	0.166	0.0299	0.1324	-0.007
Mof_C 	C 	0.9556	0.1981	0.6482	-0.201
Mof_H 	H 	0.9363	0.1665	0.6773	0.072
Mof_H 	H 	0.9741	0.175	0.6116	0.067
Mof_C 	C 	0.9067	0.2427	0.6258	-0.057
Mof_O 	O 	0.8646	0.2197	0.5939	-0.323
Mof_O 	O 	0.9123	0.3	0.6428	-0.265
Mof_C 	C 	0.9276	0.2194	0.6394	0.084
Mof_H 	H 	0.923	0.1751	0.6244	0.047
Mof_H 	H 	0.892	0.2293	0.6685	0.069
Mof_C 	C 	0.9282	0.2654	0.5833	0.486
Mof_O 	O 	0.8903	0.2543	0.539	-0.368
Mof_O 	O 	0.9633	0.3124	0.5851	-0.269
Mof_C 	C 	0.9755	0.2146	0.7471	0.011
Mof_C 	C 	0.9779	0.1431	0.7629	0.078
Mof_C 	C 	0.9701	0.1324	0.834	-0
Mof_C 	C 	0.9556	0.8019	0.3518	-0.205
Mof_H 	H 	0.9363	0.8335	0.3227	0.074
Mof_H 	H 	0.9741	0.825	0.3884	0.071
Mof_C 	C 	0.9067	0.7573	0.3742	-0.053
Mof_O 	O 	0.8646	0.7803	0.4061	-0.324
Mof_O 	O 	0.9123	0.7	0.3572	-0.266
Mof_C 	C 	0.9276	0.7806	0.3606	0.084
Mof_H 	H 	0.923	0.8249	0.3756	0.049
Mof_H 	H 	0.892	0.7707	0.3315	0.067
Mof_C 	C 	0.9282	0.7346	0.4167	0.484
Mof_O 	O 	0.8903	0.7457	0.461	-0.367
Mof_O 	O 	0.9633	0.6876	0.4149	-0.269
Mof_C 	C 	0.9755	0.7854	0.2529	0.01
Mof_C 	C 	0.9779	0.8569	0.2371	0.078
Mof_C 	C 	0.9701	0.8676	0.166	0.003
Mof_C 	C 	0.0444	0.1981	0.3518	-0.236
Mof_H 	H 	0.0637	0.1665	0.3227	0.083
Mof_H 	H 	0.0259	0.175	0.3884	0.042
Mof_C 	C 	0.0933	0.2427	0.3742	-0.024
Mof_O 	O 	0.1354	0.2197	0.4061	-0.332
Mof_O 	O 	0.0877	0.3	0.3572	-0.272
Mof_C 	C 	0.0724	0.2194	0.3606	0.073
Mof_H 	H 	0.077	0.1751	0.3756	0.056
Mof_H 	H 	0.108	0.2293	0.3315	0.067
Mof_C 	C 	0.0718	0.2654	0.4167	0.471
Mof_O 	O 	0.1097	0.2543	0.461	-0.368
Mof_O 	O 	0.0367	0.3124	0.4149	-0.302
Mof_C 	C 	0.0245	0.2146	0.2529	-0.014
Mof_C 	C 	0.0221	0.1431	0.2371	-0.104
Mof_C 	C 	0.0299	0.1324	0.166	-0.007
Mof_C 	C 	0.0444	0.8019	0.6482	-0.241
Mof_H 	H 	0.0637	0.8335	0.6773	0.085
Mof_H 	H 	0.0259	0.825	0.6116	0.046
Mof_C 	C 	0.0933	0.7573	0.6258	-0.019
Mof_O 	O 	0.1354	0.7803	0.5939	-0.333
Mof_O 	O 	0.0877	0.7	0.6428	-0.273
Mof_C 	C 	0.0724	0.7806	0.6394	0.073
Mof_H 	H 	0.077	0.8249	0.6244	0.058
Mof_H 	H 	0.108	0.7707	0.6685	0.065
Mof_C 	C 	0.0718	0.7346	0.5833	0.468
Mof_O 	O 	0.1097	0.7457	0.539	-0.367
Mof_O 	O 	0.0367	0.6876	0.5851	-0.301
Mof_C 	C 	0.0245	0.7854	0.7471	-0.015
Mof_C 	C 	0.0221	0.8569	0.7629	-0.104
Mof_C 	C 	0.0299	0.8676	0.834	-0.003
Mof_C 	C 	0.6482	0.8019	0.0444	-0.241
Mof_H 	H 	0.6773	0.8335	0.0637	0.085
Mof_H 	H 	0.6116	0.825	0.0259	0.046
Mof_C 	C 	0.6258	0.7573	0.0933	-0.019
Mof_O 	O 	0.5939	0.7803	0.1354	-0.333
Mof_O 	O 	0.6428	0.7	0.0877	-0.273
Mof_C 	C 	0.6394	0.7806	0.0724	0.073
Mof_H 	H 	0.6244	0.8249	0.077	0.058
Mof_H 	H 	0.6685	0.7707	0.108	0.065
Mof_C 	C 	0.5833	0.7346	0.0718	0.468
Mof_O 	O 	0.539	0.7457	0.1097	-0.367
Mof_O 	O 	0.5851	0.6876	0.0367	-0.301
Mof_C 	C 	0.7471	0.7854	0.0245	-0.015
Mof_C 	C 	0.7629	0.8569	0.0221	-0.104
Mof_C 	C 	0.834	0.8676	0.0299	-0.003
Mof_C 	C 	0.3518	0.1981	0.0444	-0.236
Mof_H 	H 	0.3227	0.1665	0.0637	0.083
Mof_H 	H 	0.3884	0.175	0.0259	0.042
Mof_C 	C 	0.3742	0.2427	0.0933	-0.024
Mof_O 	O 	0.4061	0.2197	0.1354	-0.332
Mof_O 	O 	0.3572	0.3	0.0877	-0.272
Mof_C 	C 	0.3606	0.2194	0.0724	0.073
Mof_H 	H 	0.3756	0.1751	0.077	0.056
Mof_H 	H 	0.3315	0.2293	0.108	0.067
Mof_C 	C 	0.4167	0.2654	0.0718	0.471
Mof_O 	O 	0.461	0.2543	0.1097	-0.368
Mof_O 	O 	0.4149	0.3124	0.0367	-0.302
Mof_C 	C 	0.2529	0.2146	0.0245	-0.014
Mof_C 	C 	0.2371	0.1431	0.0221	-0.104
Mof_C 	C 	0.166	0.1324	0.0299	-0.007
Mof_C 	C 	0.3518	0.8019	0.9556	-0.205
Mof_H 	H 	0.3227	0.8335	0.9363	0.074
Mof_H 	H 	0.3884	0.825	0.9741	0.071
Mof_C 	C 	0.3742	0.7573	0.9067	-0.053
Mof_O 	O 	0.4061	0.7803	0.8646	-0.324
Mof_O 	O 	0.3572	0.7	0.9123	-0.266
Mof_C 	C 	0.3606	0.7806	0.9276	0.084
Mof_H 	H 	0.3756	0.8249	0.923	0.049
Mof_H 	H 	0.3315	0.7707	0.892	0.067
Mof_C 	C 	0.4167	0.7346	0.9282	0.484
Mof_O 	O 	0.461	0.7457	0.8903	-0.367
Mof_O 	O 	0.4149	0.6876	0.9633	-0.269
Mof_C 	C 	0.2529	0.7854	0.9755	0.01
Mof_C 	C 	0.2371	0.8569	0.9779	0.078
Mof_C 	C 	0.166	0.8676	0.9701	0.003
Mof_C 	C 	0.6482	0.1981	0.9556	-0.201
Mof_H 	H 	0.6773	0.1665	0.9363	0.072
Mof_H 	H 	0.6116	0.175	0.9741	0.067
Mof_C 	C 	0.6258	0.2427	0.9067	-0.057
Mof_O 	O 	0.5939	0.2197	0.8646	-0.323
Mof_O 	O 	0.6428	0.3	0.9123	-0.265
Mof_C 	C 	0.6394	0.2194	0.9276	0.084
Mof_H 	H 	0.6244	0.1751	0.923	0.047
Mof_H 	H 	0.6685	0.2293	0.892	0.069
Mof_C 	C 	0.5833	0.2654	0.9282	0.486
Mof_O 	O 	0.539	0.2543	0.8903	-0.368
Mof_O 	O 	0.5851	0.3124	0.9633	-0.269
Mof_C 	C 	0.7471	0.2146	0.9755	0.011
Mof_C 	C 	0.7629	0.1431	0.9779	0.078
Mof_C 	C 	0.834	0.1324	0.9701	-0
Mof_C 	C 	0.0444	0.6482	0.8019	-0.241
Mof_H 	H 	0.0637	0.6773	0.8335	0.085
Mof_H 	H 	0.0259	0.6116	0.825	0.046
Mof_C 	C 	0.0933	0.6258	0.7573	-0.019
Mof_O 	O 	0.1354	0.5939	0.7803	-0.333
Mof_O 	O 	0.0877	0.6428	0.7	-0.273
Mof_C 	C 	0.0724	0.6394	0.7806	0.073
Mof_H 	H 	0.077	0.6244	0.8249	0.058
Mof_H 	H 	0.108	0.6685	0.7707	0.065
Mof_C 	C 	0.0718	0.5833	0.7346	0.468
Mof_O 	O 	0.1097	0.539	0.7457	-0.367
Mof_O 	O 	0.0367	0.5851	0.6876	-0.301
Mof_C 	C 	0.0245	0.7471	0.7854	-0.015
Mof_C 	C 	0.0221	0.7629	0.8569	-0.104
Mof_C 	C 	0.0299	0.834	0.8676	-0.003
Mof_C 	C 	0.0444	0.3518	0.1981	-0.236
Mof_H 	H 	0.0637	0.3227	0.1665	0.083
Mof_H 	H 	0.0259	0.3884	0.175	0.042
Mof_C 	C 	0.0933	0.3742	0.2427	-0.024
Mof_O 	O 	0.1354	0.4061	0.2197	-0.332
Mof_O 	O 	0.0877	0.3572	0.3	-0.272
Mof_C 	C 	0.0724	0.3606	0.2194	0.073
Mof_H 	H 	0.077	0.3756	0.1751	0.056
Mof_H 	H 	0.108	0.3315	0.2293	0.067
Mof_C 	C 	0.0718	0.4167	0.2654	0.471
Mof_O 	O 	0.1097	0.461	0.2543	-0.368
Mof_O 	O 	0.0367	0.4149	0.3124	-0.302
Mof_C 	C 	0.0245	0.2529	0.2146	-0.014
Mof_C 	C 	0.0221	0.2371	0.1431	-0.104
Mof_C 	C 	0.0299	0.166	0.1324	-0.007
Mof_C 	C 	0.9556	0.3518	0.8019	-0.205
Mof_H 	H 	0.9363	0.3227	0.8335	0.074
Mof_H 	H 	0.9741	0.3884	0.825	0.071
Mof_C 	C 	0.9067	0.3742	0.7573	-0.053
Mof_O 	O 	0.8646	0.4061	0.7803	-0.324
Mof_O 	O 	0.9123	0.3572	0.7	-0.266
Mof_C 	C 	0.9276	0.3606	0.7806	0.084
Mof_H 	H 	0.923	0.3756	0.8249	0.049
Mof_H 	H 	0.892	0.3315	0.7707	0.067
Mof_C 	C 	0.9282	0.4167	0.7346	0.484
Mof_O 	O 	0.8903	0.461	0.7457	-0.367
Mof_O 	O 	0.9633	0.4149	0.6876	-0.269
Mof_C 	C 	0.9755	0.2529	0.7854	0.01
Mof_C 	C 	0.9779	0.2371	0.8569	0.078
Mof_C 	C 	0.9701	0.166	0.8676	0.003
Mof_C 	C 	0.9556	0.6482	0.1981	-0.201
Mof_H 	H 	0.9363	0.6773	0.1665	0.072
Mof_H 	H 	0.9741	0.6116	0.175	0.067
Mof_C 	C 	0.9067	0.6258	0.2427	-0.057
Mof_O 	O 	0.8646	0.5939	0.2197	-0.323
Mof_O 	O 	0.9123	0.6428	0.3	-0.265
Mof_C 	C 	0.9276	0.6394	0.2194	0.084
Mof_H 	H 	0.923	0.6244	0.1751	0.047
Mof_H 	H 	0.892	0.6685	0.2293	0.069
Mof_C 	C 	0.9282	0.5833	0.2654	0.486
Mof_O 	O 	0.8903	0.539	0.2543	-0.368
Mof_O 	O 	0.9633	0.5851	0.3124	-0.269
Mof_C 	C 	0.9755	0.7471	0.2146	0.011
Mof_C 	C 	0.9779	0.7629	0.1431	0.078
Mof_C 	C 	0.9701	0.834	0.1324	-0
Mof_C 	C 	0.8019	0.0444	0.6482	-0.241
Mof_H 	H 	0.8335	0.0637	0.6773	0.085
Mof_H 	H 	0.825	0.0259	0.6116	0.046
Mof_C 	C 	0.7573	0.0933	0.6258	-0.019
Mof_O 	O 	0.7803	0.1354	0.5939	-0.333
Mof_O 	O 	0.7	0.0877	0.6428	-0.273
Mof_C 	C 	0.7806	0.0724	0.6394	0.073
Mof_H 	H 	0.8249	0.077	0.6244	0.058
Mof_H 	H 	0.7707	0.108	0.6685	0.065
Mof_C 	C 	0.7346	0.0718	0.5833	0.468
Mof_O 	O 	0.7457	0.1097	0.539	-0.367
Mof_O 	O 	0.6876	0.0367	0.5851	-0.301
Mof_C 	C 	0.7854	0.0245	0.7471	-0.015
Mof_C 	C 	0.8569	0.0221	0.7629	-0.104
Mof_C 	C 	0.8676	0.0299	0.834	-0.003
Mof_C 	C 	0.1981	0.0444	0.3518	-0.236
Mof_H 	H 	0.1665	0.0637	0.3227	0.083
Mof_H 	H 	0.175	0.0259	0.3884	0.042
Mof_C 	C 	0.2427	0.0933	0.3742	-0.024
Mof_O 	O 	0.2197	0.1354	0.4061	-0.332
Mof_O 	O 	0.3	0.0877	0.3572	-0.272
Mof_C 	C 	0.2194	0.0724	0.3606	0.073
Mof_H 	H 	0.1751	0.077	0.3756	0.056
Mof_H 	H 	0.2293	0.108	0.3315	0.067
Mof_C 	C 	0.2654	0.0718	0.4167	0.471
Mof_O 	O 	0.2543	0.1097	0.461	-0.368
Mof_O 	O 	0.3124	0.0367	0.4149	-0.302
Mof_C 	C 	0.2146	0.0245	0.2529	-0.014
Mof_C 	C 	0.1431	0.0221	0.2371	-0.104
Mof_C 	C 	0.1324	0.0299	0.166	-0.007
Mof_C 	C 	0.8019	0.9556	0.3518	-0.205
Mof_H 	H 	0.8335	0.9363	0.3227	0.074
Mof_H 	H 	0.825	0.9741	0.3884	0.071
Mof_C 	C 	0.7573	0.9067	0.3742	-0.053
Mof_O 	O 	0.7803	0.8646	0.4061	-0.324
Mof_O 	O 	0.7	0.9123	0.3572	-0.266
Mof_C 	C 	0.7806	0.9276	0.3606	0.084
Mof_H 	H 	0.8249	0.923	0.3756	0.049
Mof_H 	H 	0.7707	0.892	0.3315	0.067
Mof_C 	C 	0.7346	0.9282	0.4167	0.484
Mof_O 	O 	0.7457	0.8903	0.461	-0.367
Mof_O 	O 	0.6876	0.9633	0.4149	-0.269
Mof_C 	C 	0.7854	0.9755	0.2529	0.01
Mof_C 	C 	0.8569	0.9779	0.2371	0.078
Mof_C 	C 	0.8676	0.9701	0.166	0.003
Mof_C 	C 	0.1981	0.9556	0.6482	-0.201
Mof_H 	H 	0.1665	0.9363	0.6773	0.072
Mof_H 	H 	0.175	0.9741	0.6116	0.067
Mof_C 	C 	0.2427	0.9067	0.6258	-0.057
Mof_O 	O 	0.2197	0.8646	0.5939	-0.323
Mof_O 	O 	0.3	0.9123	0.6428	-0.265
Mof_C 	C 	0.2194	0.9276	0.6394	0.084
Mof_H 	H 	0.1751	0.923	0.6244	0.047
Mof_H 	H 	0.2293	0.892	0.6685	0.069
Mof_C 	C 	0.2654	0.9282	0.5833	0.486
Mof_O 	O 	0.2543	0.8903	0.539	-0.368
Mof_O 	O 	0.3124	0.9633	0.5851	-0.269
Mof_C 	C 	0.2146	0.9755	0.7471	0.011
Mof_C 	C 	0.1431	0.9779	0.7629	0.078
Mof_C 	C 	0.1324	0.9701	0.834	-0
Mof_C 	C 	0.8019	0.6482	0.9556	-0.206
Mof_H 	H 	0.8335	0.6773	0.9363	0.074
Mof_H 	H 	0.825	0.6116	0.9741	0.071
Mof_C 	C 	0.7573	0.6258	0.9067	-0.052
Mof_O 	O 	0.7803	0.5939	0.8646	-0.324
Mof_O 	O 	0.7	0.6428	0.9123	-0.266
Mof_C 	C 	0.7806	0.6394	0.9276	0.084
Mof_H 	H 	0.8249	0.6244	0.923	0.049
Mof_H 	H 	0.7707	0.6685	0.892	0.067
Mof_C 	C 	0.7346	0.5833	0.9282	0.484
Mof_O 	O 	0.7457	0.539	0.8903	-0.367
Mof_O 	O 	0.6876	0.5851	0.9633	-0.269
Mof_C 	C 	0.7854	0.7471	0.9755	0.01
Mof_C 	C 	0.8569	0.7629	0.9779	0.078
Mof_C 	C 	0.8676	0.834	0.9701	0.003
Mof_C 	C 	0.1981	0.3518	0.9556	-0.2
Mof_H 	H 	0.1665	0.3227	0.9363	0.072
Mof_H 	H 	0.175	0.3884	0.9741	0.067
Mof_C 	C 	0.2427	0.3742	0.9067	-0.057
Mof_O 	O 	0.2197	0.4061	0.8646	-0.322
Mof_O 	O 	0.3	0.3572	0.9123	-0.265
Mof_C 	C 	0.2194	0.3606	0.9276	0.084
Mof_H 	H 	0.1751	0.3756	0.923	0.047
Mof_H 	H 	0.2293	0.3315	0.892	0.069
Mof_C 	C 	0.2654	0.4167	0.9282	0.486
Mof_O 	O 	0.2543	0.461	0.8903	-0.368
Mof_O 	O 	0.3124	0.4149	0.9633	-0.269
Mof_C 	C 	0.2146	0.2529	0.9755	0.011
Mof_C 	C 	0.1431	0.2371	0.9779	0.078
Mof_C 	C 	0.1324	0.166	0.9701	-0
Mof_C 	C 	0.8019	0.3518	0.0444	-0.241
Mof_H 	H 	0.8335	0.3227	0.0637	0.085
Mof_H 	H 	0.825	0.3884	0.0259	0.045
Mof_C 	C 	0.7573	0.3742	0.0933	-0.02
Mof_O 	O 	0.7803	0.4061	0.1354	-0.333
Mof_O 	O 	0.7	0.3572	0.0877	-0.273
Mof_C 	C 	0.7806	0.3606	0.0724	0.072
Mof_H 	H 	0.8249	0.3756	0.077	0.058
Mof_H 	H 	0.7707	0.3315	0.108	0.065
Mof_C 	C 	0.7346	0.4167	0.0718	0.469
Mof_O 	O 	0.7457	0.461	0.1097	-0.367
Mof_O 	O 	0.6876	0.4149	0.0367	-0.302
Mof_C 	C 	0.7854	0.2529	0.0245	-0.014
Mof_C 	C 	0.8569	0.2371	0.0221	-0.103
Mof_C 	C 	0.8676	0.166	0.0299	-0.004
Mof_C 	C 	0.1981	0.6482	0.0444	-0.236
Mof_H 	H 	0.1665	0.6773	0.0637	0.083
Mof_H 	H 	0.175	0.6116	0.0259	0.042
Mof_C 	C 	0.2427	0.6258	0.0933	-0.024
Mof_O 	O 	0.2197	0.5939	0.1354	-0.332
Mof_O 	O 	0.3	0.6428	0.0877	-0.272
Mof_C 	C 	0.2194	0.6394	0.0724	0.073
Mof_H 	H 	0.1751	0.6244	0.077	0.056
Mof_H 	H 	0.2293	0.6685	0.108	0.066
Mof_C 	C 	0.2654	0.5833	0.0718	0.47
Mof_O 	O 	0.2543	0.539	0.1097	-0.368
Mof_O 	O 	0.3124	0.5851	0.0367	-0.302
Mof_C 	C 	0.2146	0.7471	0.0245	-0.014
Mof_C 	C 	0.1431	0.7629	0.0221	-0.104
Mof_C 	C 	0.1324	0.834	0.0299	-0.007
Mof_C 	C 	0.6482	0.0444	0.1981	-0.236
Mof_H 	H 	0.6773	0.0637	0.1665	0.083
Mof_H 	H 	0.6116	0.0259	0.175	0.042
Mof_C 	C 	0.6258	0.0933	0.2427	-0.024
Mof_O 	O 	0.5939	0.1354	0.2197	-0.332
Mof_O 	O 	0.6428	0.0877	0.3	-0.272
Mof_C 	C 	0.6394	0.0724	0.2194	0.073
Mof_H 	H 	0.6244	0.077	0.1751	0.056
Mof_H 	H 	0.6685	0.108	0.2293	0.066
Mof_C 	C 	0.5833	0.0718	0.2654	0.47
Mof_O 	O 	0.539	0.1097	0.2543	-0.368
Mof_O 	O 	0.5851	0.0367	0.3124	-0.302
Mof_C 	C 	0.7471	0.0245	0.2146	-0.014
Mof_C 	C 	0.7629	0.0221	0.1431	-0.104
Mof_C 	C 	0.834	0.0299	0.1324	-0.007
Mof_C 	C 	0.3518	0.0444	0.8019	-0.241
Mof_H 	H 	0.3227	0.0637	0.8335	0.085
Mof_H 	H 	0.3884	0.0259	0.825	0.045
Mof_C 	C 	0.3742	0.0933	0.7573	-0.02
Mof_O 	O 	0.4061	0.1354	0.7803	-0.333
Mof_O 	O 	0.3572	0.0877	0.7	-0.273
Mof_C 	C 	0.3606	0.0724	0.7806	0.072
Mof_H 	H 	0.3756	0.077	0.8249	0.058
Mof_H 	H 	0.3315	0.108	0.7707	0.065
Mof_C 	C 	0.4167	0.0718	0.7346	0.469
Mof_O 	O 	0.461	0.1097	0.7457	-0.367
Mof_O 	O 	0.4149	0.0367	0.6876	-0.302
Mof_C 	C 	0.2529	0.0245	0.7854	-0.014
Mof_C 	C 	0.2371	0.0221	0.8569	-0.103
Mof_C 	C 	0.166	0.0299	0.8676	-0.004
Mof_C 	C 	0.3518	0.9556	0.1981	-0.2
Mof_H 	H 	0.3227	0.9363	0.1665	0.072
Mof_H 	H 	0.3884	0.9741	0.175	0.067
Mof_C 	C 	0.3742	0.9067	0.2427	-0.057
Mof_O 	O 	0.4061	0.8646	0.2197	-0.322
Mof_O 	O 	0.3572	0.9123	0.3	-0.265
Mof_C 	C 	0.3606	0.9276	0.2194	0.084
Mof_H 	H 	0.3756	0.923	0.1751	0.047
Mof_H 	H 	0.3315	0.892	0.2293	0.069
Mof_C 	C 	0.4167	0.9282	0.2654	0.486
Mof_O 	O 	0.461	0.8903	0.2543	-0.368
Mof_O 	O 	0.4149	0.9633	0.3124	-0.269
Mof_C 	C 	0.2529	0.9755	0.2146	0.011
Mof_C 	C 	0.2371	0.9779	0.1431	0.078
Mof_C 	C 	0.166	0.9701	0.1324	-0
Mof_C 	C 	0.6482	0.9556	0.8019	-0.206
Mof_H 	H 	0.6773	0.9363	0.8335	0.074
Mof_H 	H 	0.6116	0.9741	0.825	0.071
Mof_C 	C 	0.6258	0.9067	0.7573	-0.052
Mof_O 	O 	0.5939	0.8646	0.7803	-0.324
Mof_O 	O 	0.6428	0.9123	0.7	-0.266
Mof_C 	C 	0.6394	0.9276	0.7806	0.084
Mof_H 	H 	0.6244	0.923	0.8249	0.049
Mof_H 	H 	0.6685	0.892	0.7707	0.067
Mof_C 	C 	0.5833	0.9282	0.7346	0.484
Mof_O 	O 	0.539	0.8903	0.7457	-0.367
Mof_O 	O 	0.5851	0.9633	0.6876	-0.269
Mof_C 	C 	0.7471	0.9755	0.7854	0.01
Mof_C 	C 	0.7629	0.9779	0.8569	0.078
Mof_C 	C 	0.834	0.9701	0.8676	0.003
Mof_C 	C 	0.0444	0.8019	0.3518	-0.241
Mof_H 	H 	0.0637	0.8335	0.3227	0.085
Mof_H 	H 	0.0259	0.825	0.3884	0.045
Mof_C 	C 	0.0933	0.7573	0.3742	-0.02
Mof_O 	O 	0.1354	0.7803	0.4061	-0.333
Mof_O 	O 	0.0877	0.7	0.3572	-0.273
Mof_C 	C 	0.0724	0.7806	0.3606	0.072
Mof_H 	H 	0.077	0.8249	0.3756	0.058
Mof_H 	H 	0.108	0.7707	0.3315	0.065
Mof_C 	C 	0.0718	0.7346	0.4167	0.469
Mof_O 	O 	0.1097	0.7457	0.461	-0.367
Mof_O 	O 	0.0367	0.6876	0.4149	-0.302
Mof_C 	C 	0.0245	0.7854	0.2529	-0.014
Mof_C 	C 	0.0221	0.8569	0.2371	-0.103
Mof_C 	C 	0.0299	0.8676	0.166	-0.004
Mof_C 	C 	0.0444	0.1981	0.6482	-0.236
Mof_H 	H 	0.0637	0.1665	0.6773	0.083
Mof_H 	H 	0.0259	0.175	0.6116	0.042
Mof_C 	C 	0.0933	0.2427	0.6258	-0.024
Mof_O 	O 	0.1354	0.2197	0.5939	-0.332
Mof_O 	O 	0.0877	0.3	0.6428	-0.272
Mof_C 	C 	0.0724	0.2194	0.6394	0.073
Mof_H 	H 	0.077	0.1751	0.6244	0.056
Mof_H 	H 	0.108	0.2293	0.6685	0.066
Mof_C 	C 	0.0718	0.2654	0.5833	0.47
Mof_O 	O 	0.1097	0.2543	0.539	-0.368
Mof_O 	O 	0.0367	0.3124	0.5851	-0.302
Mof_C 	C 	0.0245	0.2146	0.7471	-0.014
Mof_C 	C 	0.0221	0.1431	0.7629	-0.104
Mof_C 	C 	0.0299	0.1324	0.834	-0.007
Mof_C 	C 	0.9556	0.8019	0.6482	-0.206
Mof_H 	H 	0.9363	0.8335	0.6773	0.074
Mof_H 	H 	0.9741	0.825	0.6116	0.071
Mof_C 	C 	0.9067	0.7573	0.6258	-0.052
Mof_O 	O 	0.8646	0.7803	0.5939	-0.324
Mof_O 	O 	0.9123	0.7	0.6428	-0.266
Mof_C 	C 	0.9276	0.7806	0.6394	0.084
Mof_H 	H 	0.923	0.8249	0.6244	0.049
Mof_H 	H 	0.892	0.7707	0.6685	0.067
Mof_C 	C 	0.9282	0.7346	0.5833	0.484
Mof_O 	O 	0.8903	0.7457	0.539	-0.367
Mof_O 	O 	0.9633	0.6876	0.5851	-0.269
Mof_C 	C 	0.9755	0.7854	0.7471	0.01
Mof_C 	C 	0.9779	0.8569	0.7629	0.078
Mof_C 	C 	0.9701	0.8676	0.834	0.003
Mof_C 	C 	0.9556	0.1981	0.3518	-0.2
Mof_H 	H 	0.9363	0.1665	0.3227	0.072
Mof_H 	H 	0.9741	0.175	0.3884	0.067
Mof_C 	C 	0.9067	0.2427	0.3742	-0.057
Mof_O 	O 	0.8646	0.2197	0.4061	-0.322
Mof_O 	O 	0.9123	0.3	0.3572	-0.265
Mof_C 	C 	0.9276	0.2194	0.3606	0.084
Mof_H 	H 	0.923	0.1751	0.3756	0.047
Mof_H 	H 	0.892	0.2293	0.3315	0.069
Mof_C 	C 	0.9282	0.2654	0.4167	0.486
Mof_O 	O 	0.8903	0.2543	0.461	-0.368
Mof_O 	O 	0.9633	0.3124	0.4149	-0.269
Mof_C 	C 	0.9755	0.2146	0.2529	0.011
Mof_C 	C 	0.9779	0.1431	0.2371	0.078
Mof_C 	C 	0.9701	0.1324	0.166	-0
Mof_La	La	0.5	0.20644	0.79356	2
Mof_La	La	0.5	0.79356	0.79356	2.002
Mof_La	La	0.5	0.20644	0.20644	1.997
Mof_La	La	0.5	0.79356	0.20644	2
Mof_La	La	0.79356	0.5	0.20644	2
Mof_La	La	0.79356	0.5	0.79356	2.002
Mof_La	La	0.20644	0.5	0.20644	1.997
Mof_La	La	0.20644	0.5	0.79356	2
Mof_La	La	0.20644	0.79356	0.5	2
Mof_La	La	0.79356	0.79356	0.5	2.002
Mof_La	La	0.20644	0.20644	0.5	1.997
Mof_La	La	0.79356	0.20644	0.5	2
Mof_Ni	Ni	0.32548	0.32548	-0	1.158
Mof_Ni	Ni	0.67452	0.67452	-0	1.158
Mof_Ni	Ni	0.67452	0.32548	-0	1.158
Mof_Ni	Ni	0.32548	0.67452	-0	1.158
Mof_Ni	Ni	6.64028e-33	0.32548	0.32548	1.158
Mof_Ni	Ni	2.52904e-33	0.67452	0.67452	1.158
Mof_Ni	Ni	3.93032e-33	0.67452	0.32548	1.158
Mof_Ni	Ni	2.52904e-33	0.32548	0.67452	1.158
Mof_Ni	Ni	0.32548	2.70996e-33	0.32548	1.158
Mof_Ni	Ni	0.67452	0	0.67452	1.158
Mof_Ni	Ni	0.32548	0	0.67452	1.158
Mof_Ni	Ni	0.67452	2.70996e-33	0.32548	1.158
Mof_N 	N 	0.3222	0.2296	-0	-0.148
Mof_N 	N 	0.6778	0.7704	-0	-0.146
Mof_N 	N 	0.6778	0.2296	-0	-0.148
Mof_N 	N 	0.3222	0.7704	-0	-0.146
Mof_N 	N 	8.60862e-34	0.3222	0.2296	-0.148
Mof_N 	N 	-2.53139e-33	0.6778	0.7704	-0.146
Mof_N 	N 	8.60862e-34	0.6778	0.2296	-0.148
Mof_N 	N 	2.88854e-33	0.3222	0.7704	-0.146
Mof_N 	N 	0.2296	0	0.3222	-0.148
Mof_N 	N 	0.7704	5.41993e-33	0.6778	-0.146
Mof_N 	N 	0.2296	5.41993e-33	0.6778	-0.148
Mof_N 	N 	0.7704	0	0.3222	-0.146
Mof_N 	N 	0.2296	0.3222	-0	-0.148
Mof_N 	N 	0.7704	0.6778	-0	-0.146
Mof_N 	N 	0.2296	0.6778	-0	-0.148
Mof_N 	N 	0.7704	0.3222	-0	-0.146
Mof_N 	N 	0.3222	0	0.7704	-0.146
Mof_N 	N 	0.6778	0	0.2296	-0.148
Mof_N 	N 	0.6778	0	0.7704	-0.146
Mof_N 	N 	0.3222	0	0.2296	-0.148
Mof_N 	N 	2.54134e-33	0.2296	0.6778	-0.148
Mof_N 	N 	6.62799e-33	0.7704	0.3222	-0.146
Mof_N 	N 	1.20806e-33	0.2296	0.3222	-0.148
Mof_N 	N 	2.54134e-33	0.7704	0.6778	-0.146
_end
