data_functionalizedCrystal
_audit_creation_method	'EQeq! by Chris Wilmer'
_symmetry_space_group_name_H-M	'P1'
_symmetry_Int_Tables_number	1
_symmetry_cell_setting	triclinic
loop_
_symmetry_equiv_pos_as_xyz
  x,y,z
_cell_length_a	33.13
_cell_length_b	13.572
_cell_length_c	14.049
_cell_angle_alpha	90
_cell_angle_beta	101.324
_cell_angle_gamma	90
loop_
_atom_site_label
_atom_site_type_symbol
_atom_site_fract_x
_atom_site_fract_y
_atom_site_fract_z
_atom_site_charge
Mof_C 	C 	0.24734	0.9242	0.926	0.441
Mof_C 	C 	0.22109	0.9975	0.8636	-0.171
Mof_C 	C 	0.23778	0.0538	0.7989	0.1
Mof_H 	H 	0.2652	0.0462	0.7944	0.006
Mof_C 	C 	0.21328	0.1216	0.7409	-0.175
Mof_C 	C 	0.17282	0.1362	0.7518	0.048
Mof_H 	H 	0.1567	0.183	0.7134	0.027
Mof_C 	C 	0.15605	0.0831	0.818	-0.068
Mof_C 	C 	0.18012	0.0116	0.8722	0.031
Mof_H 	H 	0.1689	0.9725	0.9148	0.021
Mof_C 	C 	0.22974	0.1781	0.6643	0.489
Mof_C 	C 	0.11361	0.1029	0.8332	0.073
Mof_C 	C 	0.09764	0.1987	0.8216	-0.106
Mof_H 	H 	0.1131	0.2486	0.8009	0.067
Mof_C 	C 	0.05892	0.2199	0.8407	-0.001
Mof_H 	H 	0.0489	0.2839	0.8321	0.026
Mof_C 	C 	0.03549	0.1499	0.8714	-0.043
Mof_C 	C 	0.05062	0.0527	0.8817	-0.005
Mof_H 	H 	0.0349	0.003	0.902	0.029
Mof_C 	C 	0.08964	0.0309	0.8613	-0.113
Mof_H 	H 	0.0992	0.9664	0.8671	0.073
Mof_C 	C 	0.9954	0.1735	0.9004	0.094
Mof_C 	C 	0.9868	0.2667	0.9238	-0.154
Mof_H 	H 	0.0062	0.316	0.9224	0.077
Mof_C 	C 	0.9497	0.2907	0.9499	0.064
Mof_H 	H 	0.944	0.3561	0.9622	0.012
Mof_C 	C 	0.92128	0.219	0.9576	-0.137
Mof_C 	C 	0.92915	0.1261	0.9315	0.066
Mof_H 	H 	0.9096	0.0773	0.933	0.018
Mof_C 	C 	0.96583	0.1011	0.9024	-0.148
Mof_H 	H 	0.9704	0.0367	0.8845	0.081
Mof_C 	C 	0.88254	0.2445	0.9919	0.35
Mof_O 	O 	0.2853	0.9385	0.9487	-0.47
Mof_O 	O 	0.23082	0.8481	0.9556	-0.595
Mof_O 	O 	0.86209	0.1753	0.0183	-0.43
Mof_O 	O 	0.87138	0.3313	0.9934	-0.461
Mof_O 	O 	0.20697	0.2419	0.6177	-0.498
Mof_O 	O 	0.2659	0.1581	0.6553	-0.543
Mof_Tb	Tb	0.30779	0.79391	0.04524	1.932
Mof_C 	C 	0.74734	0.4242	0.926	0.442
Mof_C 	C 	0.72109	0.4975	0.8636	-0.18
Mof_C 	C 	0.73778	0.5538	0.7989	0.106
Mof_H 	H 	0.7652	0.5462	0.7944	0.003
Mof_C 	C 	0.71328	0.6216	0.7409	-0.18
Mof_C 	C 	0.67282	0.6362	0.7518	0.051
Mof_H 	H 	0.6567	0.683	0.7134	0.025
Mof_C 	C 	0.65605	0.5831	0.818	-0.073
Mof_C 	C 	0.68012	0.5116	0.8722	0.041
Mof_H 	H 	0.6689	0.4725	0.9148	0.016
Mof_C 	C 	0.72974	0.6781	0.6643	0.489
Mof_C 	C 	0.61361	0.6029	0.8332	0.072
Mof_C 	C 	0.59764	0.6987	0.8216	-0.106
Mof_H 	H 	0.6131	0.7486	0.8009	0.067
Mof_C 	C 	0.55892	0.7199	0.8407	-0.002
Mof_H 	H 	0.5489	0.7839	0.8321	0.026
Mof_C 	C 	0.53549	0.6499	0.8714	-0.042
Mof_C 	C 	0.55062	0.5527	0.8817	-0.007
Mof_H 	H 	0.5349	0.503	0.902	0.03
Mof_C 	C 	0.58964	0.5309	0.8613	-0.108
Mof_H 	H 	0.5992	0.4664	0.8671	0.07
Mof_C 	C 	0.4954	0.6735	0.9004	0.094
Mof_C 	C 	0.4868	0.7667	0.9238	-0.155
Mof_H 	H 	0.5062	0.816	0.9224	0.078
Mof_C 	C 	0.4497	0.7907	0.9499	0.065
Mof_H 	H 	0.444	0.8561	0.9622	0.012
Mof_C 	C 	0.42128	0.719	0.9576	-0.138
Mof_C 	C 	0.42915	0.6261	0.9315	0.067
Mof_H 	H 	0.4096	0.5773	0.933	0.018
Mof_C 	C 	0.46583	0.6011	0.9024	-0.148
Mof_H 	H 	0.4704	0.5367	0.8845	0.081
Mof_C 	C 	0.38254	0.7445	0.9919	0.353
Mof_O 	O 	0.7853	0.4385	0.9487	-0.472
Mof_O 	O 	0.73082	0.3481	0.9556	-0.596
Mof_O 	O 	0.36209	0.6753	0.0183	-0.432
Mof_O 	O 	0.37138	0.8313	0.9934	-0.461
Mof_O 	O 	0.70697	0.7419	0.6177	-0.498
Mof_O 	O 	0.7659	0.6581	0.6553	-0.543
Mof_Tb	Tb	0.80779	0.29391	0.04524	1.937
Mof_C 	C 	0.75266	0.9242	0.574	0.441
Mof_C 	C 	0.77891	0.9975	0.6364	-0.177
Mof_C 	C 	0.76222	0.0538	0.7011	0.104
Mof_H 	H 	0.7348	0.0462	0.7056	0.004
Mof_C 	C 	0.78672	0.1216	0.7591	-0.179
Mof_C 	C 	0.82718	0.1362	0.7482	0.05
Mof_H 	H 	0.8433	0.183	0.7866	0.026
Mof_C 	C 	0.84395	0.0831	0.682	-0.071
Mof_C 	C 	0.81988	0.0116	0.6278	0.037
Mof_H 	H 	0.8311	0.9725	0.5852	0.017
Mof_C 	C 	0.77026	0.1781	0.8357	0.488
Mof_C 	C 	0.88639	0.1029	0.6668	0.072
Mof_C 	C 	0.90236	0.1987	0.6784	-0.106
Mof_H 	H 	0.8869	0.2486	0.6991	0.067
Mof_C 	C 	0.94108	0.2199	0.6593	-0.002
Mof_H 	H 	0.9511	0.2839	0.6679	0.026
Mof_C 	C 	0.96451	0.1499	0.6286	-0.043
Mof_C 	C 	0.94938	0.0527	0.6183	-0.006
Mof_H 	H 	0.9651	0.003	0.598	0.03
Mof_C 	C 	0.91036	0.0309	0.6387	-0.11
Mof_H 	H 	0.9008	0.9664	0.6329	0.071
Mof_C 	C 	0.0046	0.1735	0.5996	0.094
Mof_C 	C 	0.0132	0.2667	0.5762	-0.155
Mof_H 	H 	0.9938	0.316	0.5776	0.078
Mof_C 	C 	0.0503	0.2907	0.5501	0.065
Mof_H 	H 	0.056	0.3561	0.5378	0.012
Mof_C 	C 	0.07872	0.219	0.5424	-0.138
Mof_C 	C 	0.07085	0.1261	0.5685	0.067
Mof_H 	H 	0.0904	0.0773	0.567	0.018
Mof_C 	C 	0.03417	0.1011	0.5976	-0.148
Mof_H 	H 	0.0296	0.0367	0.6155	0.081
Mof_C 	C 	0.11746	0.2445	0.5081	0.352
Mof_O 	O 	0.7147	0.9385	0.5513	-0.472
Mof_O 	O 	0.76918	0.8481	0.5444	-0.596
Mof_O 	O 	0.13791	0.1753	0.4817	-0.431
Mof_O 	O 	0.12862	0.3313	0.5066	-0.461
Mof_O 	O 	0.79303	0.2419	0.8823	-0.499
Mof_O 	O 	0.7341	0.1581	0.8447	-0.543
Mof_Tb	Tb	0.69221	0.79391	0.45476	1.935
Mof_C 	C 	0.25266	0.4242	0.574	0.442
Mof_C 	C 	0.27891	0.4975	0.6364	-0.18
Mof_C 	C 	0.26222	0.5538	0.7011	0.106
Mof_H 	H 	0.2348	0.5462	0.7056	0.003
Mof_C 	C 	0.28672	0.6216	0.7591	-0.18
Mof_C 	C 	0.32718	0.6362	0.7482	0.051
Mof_H 	H 	0.3433	0.683	0.7866	0.025
Mof_C 	C 	0.34395	0.5831	0.682	-0.073
Mof_C 	C 	0.31988	0.5116	0.6278	0.041
Mof_H 	H 	0.3311	0.4725	0.5852	0.016
Mof_C 	C 	0.27026	0.6781	0.8357	0.489
Mof_C 	C 	0.38639	0.6029	0.6668	0.072
Mof_C 	C 	0.40236	0.6987	0.6784	-0.106
Mof_H 	H 	0.3869	0.7486	0.6991	0.067
Mof_C 	C 	0.44108	0.7199	0.6593	-0.002
Mof_H 	H 	0.4511	0.7839	0.6679	0.026
Mof_C 	C 	0.46451	0.6499	0.6286	-0.042
Mof_C 	C 	0.44938	0.5527	0.6183	-0.007
Mof_H 	H 	0.4651	0.503	0.598	0.03
Mof_C 	C 	0.41036	0.5309	0.6387	-0.108
Mof_H 	H 	0.4008	0.4664	0.6329	0.07
Mof_C 	C 	0.5046	0.6735	0.5996	0.094
Mof_C 	C 	0.5132	0.7667	0.5762	-0.155
Mof_H 	H 	0.4938	0.816	0.5776	0.077
Mof_C 	C 	0.5503	0.7907	0.5501	0.065
Mof_H 	H 	0.556	0.8561	0.5378	0.012
Mof_C 	C 	0.57872	0.719	0.5424	-0.138
Mof_C 	C 	0.57085	0.6261	0.5685	0.066
Mof_H 	H 	0.5904	0.5773	0.567	0.018
Mof_C 	C 	0.53417	0.6011	0.5976	-0.148
Mof_H 	H 	0.5296	0.5367	0.6155	0.081
Mof_C 	C 	0.61746	0.7445	0.5081	0.352
Mof_O 	O 	0.2147	0.4385	0.5513	-0.472
Mof_O 	O 	0.26918	0.3481	0.5444	-0.596
Mof_O 	O 	0.63791	0.6753	0.4817	-0.431
Mof_O 	O 	0.62862	0.8313	0.5066	-0.461
Mof_O 	O 	0.29303	0.7419	0.8823	-0.498
Mof_O 	O 	0.2341	0.6581	0.8447	-0.543
Mof_Tb	Tb	0.19221	0.29391	0.45476	1.936
Mof_C 	C 	0.75266	0.0758	0.074	0.44
Mof_C 	C 	0.77891	0.0025	0.1364	-0.172
Mof_C 	C 	0.76222	0.9462	0.2011	0.099
Mof_H 	H 	0.7348	0.9538	0.2056	0.005
Mof_C 	C 	0.78672	0.8784	0.2591	-0.176
Mof_C 	C 	0.82718	0.8638	0.2482	0.047
Mof_H 	H 	0.8433	0.817	0.2866	0.026
Mof_C 	C 	0.84395	0.9169	0.182	-0.069
Mof_C 	C 	0.81988	0.9884	0.1278	0.03
Mof_H 	H 	0.8311	0.0275	0.0852	0.02
Mof_C 	C 	0.77026	0.8219	0.3357	0.488
Mof_C 	C 	0.88639	0.8971	0.1668	0.072
Mof_C 	C 	0.90236	0.8013	0.1784	-0.106
Mof_H 	H 	0.8869	0.7514	0.1991	0.067
Mof_C 	C 	0.94108	0.7801	0.1593	-0.001
Mof_H 	H 	0.9511	0.7161	0.1679	0.026
Mof_C 	C 	0.96451	0.8501	0.1286	-0.043
Mof_C 	C 	0.94938	0.9473	0.1183	-0.005
Mof_H 	H 	0.9651	0.997	0.098	0.029
Mof_C 	C 	0.91036	0.9691	0.1387	-0.113
Mof_H 	H 	0.9008	0.0336	0.1329	0.073
Mof_C 	C 	0.0046	0.8265	0.0996	0.094
Mof_C 	C 	0.0132	0.7333	0.0762	-0.154
Mof_H 	H 	0.9938	0.684	0.0776	0.077
Mof_C 	C 	0.0503	0.7093	0.0501	0.064
Mof_H 	H 	0.056	0.6439	0.0378	0.012
Mof_C 	C 	0.07872	0.781	0.0424	-0.137
Mof_C 	C 	0.07085	0.8739	0.0685	0.066
Mof_H 	H 	0.0904	0.9227	0.067	0.018
Mof_C 	C 	0.03417	0.8989	0.0976	-0.148
Mof_H 	H 	0.0296	0.9633	0.1155	0.081
Mof_C 	C 	0.11746	0.7555	0.0081	0.35
Mof_O 	O 	0.7147	0.0615	0.0513	-0.47
Mof_O 	O 	0.76918	0.1519	0.0444	-0.595
Mof_O 	O 	0.13791	0.8247	0.9817	-0.43
Mof_O 	O 	0.12862	0.6687	0.0066	-0.461
Mof_O 	O 	0.79303	0.7581	0.3823	-0.498
Mof_O 	O 	0.7341	0.8419	0.3447	-0.543
Mof_Tb	Tb	0.69221	0.20609	0.95476	1.932
Mof_C 	C 	0.25266	0.5758	0.074	0.442
Mof_C 	C 	0.27891	0.5025	0.1364	-0.18
Mof_C 	C 	0.26222	0.4462	0.2011	0.106
Mof_H 	H 	0.2348	0.4538	0.2056	0.003
Mof_C 	C 	0.28672	0.3784	0.2591	-0.18
Mof_C 	C 	0.32718	0.3638	0.2482	0.051
Mof_H 	H 	0.3433	0.317	0.2866	0.025
Mof_C 	C 	0.34395	0.4169	0.182	-0.073
Mof_C 	C 	0.31988	0.4884	0.1278	0.041
Mof_H 	H 	0.3311	0.5275	0.0852	0.016
Mof_C 	C 	0.27026	0.3219	0.3357	0.489
Mof_C 	C 	0.38639	0.3971	0.1668	0.072
Mof_C 	C 	0.40236	0.3013	0.1784	-0.106
Mof_H 	H 	0.3869	0.2514	0.1991	0.067
Mof_C 	C 	0.44108	0.2801	0.1593	-0.002
Mof_H 	H 	0.4511	0.2161	0.1679	0.026
Mof_C 	C 	0.46451	0.3501	0.1286	-0.042
Mof_C 	C 	0.44938	0.4473	0.1183	-0.007
Mof_H 	H 	0.4651	0.497	0.098	0.03
Mof_C 	C 	0.41036	0.4691	0.1387	-0.108
Mof_H 	H 	0.4008	0.5336	0.1329	0.07
Mof_C 	C 	0.5046	0.3265	0.0996	0.094
Mof_C 	C 	0.5132	0.2333	0.0762	-0.155
Mof_H 	H 	0.4938	0.184	0.0776	0.078
Mof_C 	C 	0.5503	0.2093	0.0501	0.065
Mof_H 	H 	0.556	0.1439	0.0378	0.012
Mof_C 	C 	0.57872	0.281	0.0424	-0.138
Mof_C 	C 	0.57085	0.3739	0.0685	0.067
Mof_H 	H 	0.5904	0.4227	0.067	0.018
Mof_C 	C 	0.53417	0.3989	0.0976	-0.148
Mof_H 	H 	0.5296	0.4633	0.1155	0.081
Mof_C 	C 	0.61746	0.2555	0.0081	0.353
Mof_O 	O 	0.2147	0.5615	0.0513	-0.472
Mof_O 	O 	0.26918	0.6519	0.0444	-0.596
Mof_O 	O 	0.63791	0.3247	0.9817	-0.432
Mof_O 	O 	0.62862	0.1687	0.0066	-0.461
Mof_O 	O 	0.29303	0.2581	0.3823	-0.498
Mof_O 	O 	0.2341	0.3419	0.3447	-0.543
Mof_Tb	Tb	0.19221	0.70609	0.95476	1.937
Mof_C 	C 	0.24734	0.0758	0.426	0.441
Mof_C 	C 	0.22109	0.0025	0.3636	-0.177
Mof_C 	C 	0.23778	0.9462	0.2989	0.104
Mof_H 	H 	0.2652	0.9538	0.2944	0.004
Mof_C 	C 	0.21328	0.8784	0.2409	-0.179
Mof_C 	C 	0.17282	0.8638	0.2518	0.05
Mof_H 	H 	0.1567	0.817	0.2134	0.026
Mof_C 	C 	0.15605	0.9169	0.318	-0.071
Mof_C 	C 	0.18012	0.9884	0.3722	0.037
Mof_H 	H 	0.1689	0.0275	0.4148	0.017
Mof_C 	C 	0.22974	0.8219	0.1643	0.488
Mof_C 	C 	0.11361	0.8971	0.3332	0.072
Mof_C 	C 	0.09764	0.8013	0.3216	-0.106
Mof_H 	H 	0.1131	0.7514	0.3009	0.067
Mof_C 	C 	0.05892	0.7801	0.3407	-0.002
Mof_H 	H 	0.0489	0.7161	0.3321	0.026
Mof_C 	C 	0.03549	0.8501	0.3714	-0.043
Mof_C 	C 	0.05062	0.9473	0.3817	-0.006
Mof_H 	H 	0.0349	0.997	0.402	0.03
Mof_C 	C 	0.08964	0.9691	0.3613	-0.11
Mof_H 	H 	0.0992	0.0336	0.3671	0.071
Mof_C 	C 	0.9954	0.8265	0.4004	0.094
Mof_C 	C 	0.9868	0.7333	0.4238	-0.155
Mof_H 	H 	0.0062	0.684	0.4224	0.078
Mof_C 	C 	0.9497	0.7093	0.4499	0.065
Mof_H 	H 	0.944	0.6439	0.4622	0.012
Mof_C 	C 	0.92128	0.781	0.4576	-0.138
Mof_C 	C 	0.92915	0.8739	0.4315	0.067
Mof_H 	H 	0.9096	0.9227	0.433	0.018
Mof_C 	C 	0.96583	0.8989	0.4024	-0.148
Mof_H 	H 	0.9704	0.9633	0.3845	0.081
Mof_C 	C 	0.88254	0.7555	0.4919	0.352
Mof_O 	O 	0.2853	0.0615	0.4487	-0.472
Mof_O 	O 	0.23082	0.1519	0.4556	-0.596
Mof_O 	O 	0.86209	0.8247	0.5183	-0.431
Mof_O 	O 	0.87138	0.6687	0.4934	-0.461
Mof_O 	O 	0.20697	0.7581	0.1177	-0.499
Mof_O 	O 	0.2659	0.8419	0.1553	-0.543
Mof_Tb	Tb	0.30779	0.20609	0.54524	1.935
Mof_C 	C 	0.74734	0.5758	0.426	0.442
Mof_C 	C 	0.72109	0.5025	0.3636	-0.18
Mof_C 	C 	0.73778	0.4462	0.2989	0.106
Mof_H 	H 	0.7652	0.4538	0.2944	0.003
Mof_C 	C 	0.71328	0.3784	0.2409	-0.18
Mof_C 	C 	0.67282	0.3638	0.2518	0.051
Mof_H 	H 	0.6567	0.317	0.2134	0.025
Mof_C 	C 	0.65605	0.4169	0.318	-0.073
Mof_C 	C 	0.68012	0.4884	0.3722	0.041
Mof_H 	H 	0.6689	0.5275	0.4148	0.016
Mof_C 	C 	0.72974	0.3219	0.1643	0.489
Mof_C 	C 	0.61361	0.3971	0.3332	0.072
Mof_C 	C 	0.59764	0.3013	0.3216	-0.106
Mof_H 	H 	0.6131	0.2514	0.3009	0.067
Mof_C 	C 	0.55892	0.2801	0.3407	-0.002
Mof_H 	H 	0.5489	0.2161	0.3321	0.026
Mof_C 	C 	0.53549	0.3501	0.3714	-0.042
Mof_C 	C 	0.55062	0.4473	0.3817	-0.007
Mof_H 	H 	0.5349	0.497	0.402	0.03
Mof_C 	C 	0.58964	0.4691	0.3613	-0.108
Mof_H 	H 	0.5992	0.5336	0.3671	0.07
Mof_C 	C 	0.4954	0.3265	0.4004	0.094
Mof_C 	C 	0.4868	0.2333	0.4238	-0.155
Mof_H 	H 	0.5062	0.184	0.4224	0.077
Mof_C 	C 	0.4497	0.2093	0.4499	0.065
Mof_H 	H 	0.444	0.1439	0.4622	0.012
Mof_C 	C 	0.42128	0.281	0.4576	-0.138
Mof_C 	C 	0.42915	0.3739	0.4315	0.066
Mof_H 	H 	0.4096	0.4227	0.433	0.018
Mof_C 	C 	0.46583	0.3989	0.4024	-0.148
Mof_H 	H 	0.4704	0.4633	0.3845	0.081
Mof_C 	C 	0.38254	0.2555	0.4919	0.352
Mof_O 	O 	0.7853	0.5615	0.4487	-0.472
Mof_O 	O 	0.73082	0.6519	0.4556	-0.596
Mof_O 	O 	0.36209	0.3247	0.5183	-0.431
Mof_O 	O 	0.37138	0.1687	0.4934	-0.461
Mof_O 	O 	0.70697	0.2581	0.1177	-0.498
Mof_O 	O 	0.7659	0.3419	0.1553	-0.543
Mof_Tb	Tb	0.80779	0.70609	0.54524	1.936
_end
