# CIF file generated by openbabel 3.1.0, see https://openbabel.org
data_I
_chemical_name_common 'image0'
_cell_length_a 8.0203
_cell_length_b 20.455
_cell_length_c 8.612
_cell_angle_alpha 90
_cell_angle_beta 90.65
_cell_angle_gamma 90
_space_group_name_H-M_alt 'P 1'
_space_group_name_Hall 'P 1'
loop_
    _symmetry_equiv_pos_as_xyz
    x,y,z
loop_
    _atom_site_label
    _atom_site_type_symbol
    _atom_site_fract_x
    _atom_site_fract_y
    _atom_site_fract_z
    _atom_site_occupancy
    N1       N        0.15420    0.50163    0.68784    1.000
    N2       N        0.07810    0.50271    0.83190    1.000
    N3       N        0.34730    0.50042    0.86410    1.000
    N4       N        0.50500    0.50004    0.92780    1.000
    N5       N        0.12560    0.57402    0.40300    1.000
    N6       N        0.29830    0.57788    0.40170    1.000
    N7       N        0.18940    0.66724    0.30460    1.000
    N8       N        0.15670    0.73034    0.25110    1.000
    N9       N        0.32500    0.92095    0.11910    1.000
    N10      N        0.15250    0.91426    0.10040    1.000
    N11      N        0.25690    0.82424    0.19800    1.000
    N12      N        0.28870    0.76140    0.25020    1.000
    C1       C        0.31550    0.50034    0.70910    1.000
    H1       H        0.39680    0.49950    0.62970    1.000
    C2       C        0.19680    0.50194    0.93600    1.000
    H2       H        0.18100    0.50240    0.04510    1.000
    C3       C        0.06220    0.62727    0.34340    1.000
    H3       H        0.94680    0.63640    0.32970    1.000
    C4       C        0.33410    0.63496    0.34320    1.000
    H4       H        0.44350    0.65160    0.32950    1.000
    C5       C        0.38370    0.86723    0.17800    1.000
    H5       H        0.49750    0.85920    0.20310    1.000
    C6       C        0.11480    0.85549    0.14820    1.000
    H6       H        0.00580    0.83730    0.14850    1.000
    N13      N        0.84580    0.49837    0.31216    1.000
    N14      N        0.92190    0.49729    0.16810    1.000
    N15      N        0.65270    0.49958    0.13590    1.000
    N16      N        0.49500    0.49996    0.07220    1.000
    N17      N        0.87440    0.42598    0.59700    1.000
    N18      N        0.70170    0.42212    0.59830    1.000
    N19      N        0.81060    0.33276    0.69540    1.000
    N20      N        0.84330    0.26966    0.74890    1.000
    N21      N        0.67500    0.07905    0.88090    1.000
    N22      N        0.84750    0.08574    0.89960    1.000
    N23      N        0.74310    0.17576    0.80200    1.000
    N24      N        0.71130    0.23860    0.74980    1.000
    C7       C        0.68450    0.49966    0.29090    1.000
    H7       H        0.60320    0.50050    0.37030    1.000
    C8       C        0.80320    0.49806    0.06400    1.000
    H8       H        0.81900    0.49760    0.95490    1.000
    C9       C        0.93780    0.37273    0.65660    1.000
    H9       H        0.05320    0.36360    0.67030    1.000
    C10      C        0.66590    0.36504    0.65680    1.000
    H10      H        0.55650    0.34840    0.67050    1.000
    C11      C        0.61630    0.13277    0.82200    1.000
    H11      H        0.50250    0.14080    0.79690    1.000
    C12      C        0.88520    0.14451    0.85180    1.000
    H12      H        0.99420    0.16270    0.85150    1.000
    Cu1      Cu       0.00000    0.50000    0.50000    1.000
    N25      N        0.34580    0.00163    0.81216    1.000
    N26      N        0.42190    0.00271    0.66810    1.000
    N27      N        0.15270    0.00042    0.63590    1.000
    N28      N        0.99500    0.00004    0.57220    1.000
    N29      N        0.37440    0.07402    0.09700    1.000
    N30      N        0.20170    0.07788    0.09830    1.000
    N31      N        0.31060    0.16724    0.19540    1.000
    N32      N        0.34330    0.23034    0.24890    1.000
    N33      N        0.17500    0.42095    0.38090    1.000
    N34      N        0.34750    0.41426    0.39960    1.000
    N35      N        0.24310    0.32424    0.30200    1.000
    N36      N        0.21130    0.26140    0.24980    1.000
    C13      C        0.18450    0.00034    0.79090    1.000
    H13      H        0.10320    0.99950    0.87030    1.000
    C14      C        0.30320    0.00194    0.56400    1.000
    H14      H        0.31900    0.00240    0.45490    1.000
    C15      C        0.43780    0.12727    0.15660    1.000
    H15      H        0.55320    0.13640    0.17030    1.000
    C16      C        0.16590    0.13496    0.15680    1.000
    H16      H        0.05650    0.15160    0.17050    1.000
    C17      C        0.11630    0.36723    0.32200    1.000
    H17      H        0.00250    0.35920    0.29690    1.000
    C18      C        0.38520    0.35549    0.35180    1.000
    H18      H        0.49420    0.33730    0.35150    1.000
    N37      N        0.65420    0.99837    0.18784    1.000
    N38      N        0.57810    0.99729    0.33190    1.000
    N39      N        0.84730    0.99958    0.36410    1.000
    N40      N        0.00500    0.99996    0.42780    1.000
    N41      N        0.62560    0.92598    0.90300    1.000
    N42      N        0.79830    0.92212    0.90170    1.000
    N43      N        0.68940    0.83276    0.80460    1.000
    N44      N        0.65670    0.76966    0.75110    1.000
    N45      N        0.82500    0.57905    0.61910    1.000
    N46      N        0.65250    0.58574    0.60040    1.000
    N47      N        0.75690    0.67576    0.69800    1.000
    N48      N        0.78870    0.73860    0.75020    1.000
    C19      C        0.81550    0.99966    0.20910    1.000
    H19      H        0.89680    0.00050    0.12970    1.000
    C20      C        0.69680    0.99806    0.43600    1.000
    H20      H        0.68100    0.99760    0.54510    1.000
    C21      C        0.56220    0.87273    0.84340    1.000
    H21      H        0.44680    0.86360    0.82970    1.000
    C22      C        0.83410    0.86504    0.84320    1.000
    H22      H        0.94350    0.84840    0.82950    1.000
    C23      C        0.88370    0.63277    0.67800    1.000
    H23      H        0.99750    0.64080    0.70310    1.000
    C24      C        0.61480    0.64451    0.64820    1.000
    H24      H        0.50580    0.66270    0.64850    1.000
    Cu2      Cu       0.50000    0.00000    0.00000    1.000
