data_functionalizedCrystal
_audit_creation_method	'EQeq! by Chris Wilmer'
_symmetry_space_group_name_H-M	'P1'
_symmetry_Int_Tables_number	1
_symmetry_cell_setting	triclinic
loop_
_symmetry_equiv_pos_as_xyz
  x,y,z
_cell_length_a	24.6663
_cell_length_b	24.6663
_cell_length_c	17.6314
_cell_angle_alpha	90
_cell_angle_beta	90
_cell_angle_gamma	90
loop_
_atom_site_label
_atom_site_type_symbol
_atom_site_fract_x
_atom_site_fract_y
_atom_site_fract_z
_atom_site_charge
Mof_Ni	Ni	0.25915	0.01862	0.02529	0.998
Mof_O 	O 	0.30204	0.86192	0.965	-0.796
Mof_O 	O 	0.25859	0.18571	0.0386	-0.783
Mof_N 	N 	0.18531	0.01434	0.99043	-0.189
Mof_N 	N 	0.26397	0.9436	0.99867	-0.374
Mof_N 	N 	0.24342	0.09399	0.0383	-0.379
Mof_N 	N 	0.35685	0.93279	0.99479	-0.374
Mof_H 	H 	0.3566	0.9603	0.0154	0.114
Mof_N 	N 	0.32947	0.12794	0.0227	-0.337
Mof_H 	H 	0.3383	0.0967	0.0363	0.067
Mof_C 	C 	0.16799	0.9577	0.00346	-0.143
Mof_H 	H 	0.1338	0.9504	0.9759	0.048
Mof_H 	H 	0.1615	0.9517	0.0582	0.026
Mof_C 	C 	0.21196	0.91991	0.97563	0.058
Mof_H 	H 	0.2075	0.8835	0.9984	-0.117
Mof_H 	H 	0.2103	0.9164	0.9197	-0.11
Mof_C 	C 	0.3067	0.91043	0.98614	0.399
Mof_C 	C 	0.40658	0.90144	0.98955	0.421
Mof_H 	H 	0.4015	0.8733	0.9494	-0.129
Mof_C 	C 	0.42052	0.87276	0.06298	-0.638
Mof_H 	H 	0.3906	0.8487	0.0774	0.151
Mof_H 	H 	0.4264	0.8997	0.103	0.159
Mof_H 	H 	0.4536	0.8513	0.056	0.16
Mof_C 	C 	0.45128	0.93921	0.96399	-0.696
Mof_H 	H 	0.4407	0.9568	0.9164	0.202
Mof_H 	H 	0.4847	0.9184	0.9561	0.196
Mof_H 	H 	0.4575	0.9669	0.003	0.183
Mof_C 	C 	0.15593	0.05267	0.04036	-0.161
Mof_H 	H 	0.1547	0.0384	0.0928	0.023
Mof_H 	H 	0.1182	0.0574	0.0222	0.057
Mof_C 	C 	0.18536	0.10655	0.03904	0.076
Mof_H 	H 	0.1752	0.1275	0.9933	-0.05
Mof_H 	H 	0.176	0.1282	0.0845	-0.142
Mof_C 	C 	0.27578	0.13759	0.03502	0.367
Mof_C 	C 	0.37095	0.16868	0.03261	0.408
Mof_H 	H 	0.3551	0.2058	0.0275	-0.118
Mof_C 	C 	0.4042	0.1653	0.1001	-0.517
Mof_H 	H 	0.3819	0.1729	0.1449	0.047
Mof_H 	H 	0.4336	0.192	0.0969	0.135
Mof_H 	H 	0.4197	0.1288	0.1042	0.123
Mof_C 	C 	0.4129	0.1556	0.9599	0.101
Mof_H 	H 	0.3926	0.1571	0.9122	-0.077
Mof_H 	H 	0.4286	0.1194	0.9661	-0.017
Mof_H 	H 	0.4419	0.1827	0.9589	-0.037
Mof_C 	C 	0.17893	0.02962	0.90933	-0.196
Mof_H 	H 	0.1906	0.0672	0.9021	0.035
Mof_H 	H 	0.1408	0.0261	0.8946	0.056
Mof_H 	H 	0.2012	0.0056	0.8778	0.009
Mof_C 	C 	0.3706	0.1843	0.1243	0.214
Mof_C 	C 	0.4211	0.1526	0.0081	-0.651
Mof_H 	H 	0.3604	0.2002	0.0042	-0.032
Mof_H 	H 	0.3339	0.1953	0.1394	-0.179
Mof_H 	H 	0.3959	0.2143	0.1335	-0.058
Mof_H 	H 	0.3817	0.1527	0.154	-0.042
Mof_H 	H 	0.4195	0.1439	0.954	0.142
Mof_H 	H 	0.4326	0.1205	0.0366	0.175
Mof_H 	H 	0.4472	0.182	0.0163	0.175
Mof_Ni	Ni	0.75915	0.51862	0.52529	1
Mof_O 	O 	0.80204	0.36192	0.465	-0.795
Mof_O 	O 	0.75859	0.68571	0.5386	-0.782
Mof_N 	N 	0.68531	0.51434	0.49043	-0.188
Mof_N 	N 	0.76397	0.4436	0.49867	-0.372
Mof_N 	N 	0.74342	0.59399	0.5383	-0.378
Mof_N 	N 	0.85685	0.43279	0.49479	-0.373
Mof_H 	H 	0.8566	0.4603	0.5154	0.115
Mof_N 	N 	0.82947	0.62794	0.5227	-0.336
Mof_H 	H 	0.8383	0.5967	0.5363	0.068
Mof_C 	C 	0.66799	0.4577	0.50346	-0.142
Mof_H 	H 	0.6338	0.4504	0.4759	0.049
Mof_H 	H 	0.6615	0.4517	0.5582	0.027
Mof_C 	C 	0.71196	0.41991	0.47563	0.059
Mof_H 	H 	0.7075	0.3835	0.4984	-0.116
Mof_H 	H 	0.7103	0.4164	0.4197	-0.109
Mof_C 	C 	0.8067	0.41043	0.48614	0.4
Mof_C 	C 	0.90658	0.40144	0.48955	0.423
Mof_H 	H 	0.9015	0.3733	0.4494	-0.128
Mof_C 	C 	0.92052	0.37276	0.56298	-0.637
Mof_H 	H 	0.8906	0.3487	0.5774	0.152
Mof_H 	H 	0.9264	0.3997	0.603	0.16
Mof_H 	H 	0.9536	0.3513	0.556	0.161
Mof_C 	C 	0.95128	0.43921	0.46399	-0.695
Mof_H 	H 	0.9407	0.4568	0.4164	0.203
Mof_H 	H 	0.9847	0.4184	0.4561	0.197
Mof_H 	H 	0.9575	0.4669	0.503	0.184
Mof_C 	C 	0.65593	0.55267	0.54036	-0.16
Mof_H 	H 	0.6547	0.5384	0.5928	0.024
Mof_H 	H 	0.6182	0.5574	0.5222	0.058
Mof_C 	C 	0.68536	0.60655	0.53904	0.077
Mof_H 	H 	0.6752	0.6275	0.4933	-0.048
Mof_H 	H 	0.676	0.6282	0.5845	-0.141
Mof_C 	C 	0.77578	0.63759	0.53502	0.368
Mof_C 	C 	0.87095	0.66868	0.53261	0.409
Mof_H 	H 	0.8551	0.7058	0.5275	-0.117
Mof_C 	C 	0.9042	0.6653	0.6001	-0.516
Mof_H 	H 	0.8819	0.6729	0.6449	0.048
Mof_H 	H 	0.9336	0.692	0.5969	0.136
Mof_H 	H 	0.9197	0.6288	0.6042	0.124
Mof_C 	C 	0.9129	0.6556	0.4599	0.102
Mof_H 	H 	0.8926	0.6571	0.4122	-0.075
Mof_H 	H 	0.9286	0.6194	0.4661	-0.016
Mof_H 	H 	0.9419	0.6827	0.4589	-0.036
Mof_C 	C 	0.67893	0.52962	0.40933	-0.195
Mof_H 	H 	0.6906	0.5672	0.4021	0.036
Mof_H 	H 	0.6408	0.5261	0.3946	0.057
Mof_H 	H 	0.7012	0.5056	0.3778	0.01
Mof_C 	C 	0.8706	0.6843	0.6243	0.215
Mof_C 	C 	0.9211	0.6526	0.5081	-0.649
Mof_H 	H 	0.8604	0.7002	0.5042	-0.031
Mof_H 	H 	0.8339	0.6953	0.6394	-0.178
Mof_H 	H 	0.8959	0.7143	0.6335	-0.057
Mof_H 	H 	0.8817	0.6527	0.654	-0.042
Mof_H 	H 	0.9195	0.6439	0.454	0.143
Mof_H 	H 	0.9326	0.6205	0.5366	0.176
Mof_H 	H 	0.9472	0.682	0.5163	0.175
Mof_Ni	Ni	0.74085	0.98138	0.02529	0.999
Mof_O 	O 	0.69796	0.13808	0.965	-0.795
Mof_O 	O 	0.74141	0.81429	0.0386	-0.782
Mof_N 	N 	0.81469	0.98566	0.99043	-0.188
Mof_N 	N 	0.73603	0.0564	0.99867	-0.373
Mof_N 	N 	0.75658	0.90601	0.0383	-0.378
Mof_N 	N 	0.64315	0.06721	0.99479	-0.373
Mof_H 	H 	0.6434	0.0397	0.0154	0.115
Mof_N 	N 	0.67053	0.87206	0.0227	-0.336
Mof_H 	H 	0.6617	0.9033	0.0363	0.068
Mof_C 	C 	0.83201	0.0423	0.00346	-0.142
Mof_H 	H 	0.8662	0.0496	0.9759	0.049
Mof_H 	H 	0.8385	0.0483	0.0582	0.027
Mof_C 	C 	0.78804	0.08009	0.97563	0.059
Mof_H 	H 	0.7925	0.1165	0.9984	-0.116
Mof_H 	H 	0.7897	0.0836	0.9197	-0.109
Mof_C 	C 	0.6933	0.08957	0.98614	0.4
Mof_C 	C 	0.59342	0.09856	0.98955	0.422
Mof_H 	H 	0.5985	0.1267	0.9494	-0.128
Mof_C 	C 	0.57948	0.12724	0.06298	-0.637
Mof_H 	H 	0.6094	0.1513	0.0774	0.152
Mof_H 	H 	0.5736	0.1003	0.103	0.16
Mof_H 	H 	0.5464	0.1487	0.056	0.161
Mof_C 	C 	0.54872	0.06079	0.96399	-0.695
Mof_H 	H 	0.5593	0.0432	0.9164	0.203
Mof_H 	H 	0.5153	0.0816	0.9561	0.197
Mof_H 	H 	0.5425	0.0331	0.003	0.184
Mof_C 	C 	0.84407	0.94733	0.04036	-0.16
Mof_H 	H 	0.8453	0.9616	0.0928	0.024
Mof_H 	H 	0.8818	0.9426	0.0222	0.058
Mof_C 	C 	0.81464	0.89345	0.03904	0.077
Mof_H 	H 	0.8248	0.8725	0.9933	-0.049
Mof_H 	H 	0.824	0.8718	0.0845	-0.141
Mof_C 	C 	0.72422	0.86241	0.03502	0.368
Mof_C 	C 	0.62905	0.83132	0.03261	0.409
Mof_H 	H 	0.6449	0.7942	0.0275	-0.117
Mof_C 	C 	0.5958	0.8347	0.1001	-0.516
Mof_H 	H 	0.6181	0.8271	0.1449	0.048
Mof_H 	H 	0.5664	0.808	0.0969	0.136
Mof_H 	H 	0.5803	0.8712	0.1042	0.124
Mof_C 	C 	0.5871	0.8444	0.9599	0.102
Mof_H 	H 	0.6074	0.8429	0.9122	-0.076
Mof_H 	H 	0.5714	0.8806	0.9661	-0.016
Mof_H 	H 	0.5581	0.8173	0.9589	-0.036
Mof_C 	C 	0.82107	0.97038	0.90933	-0.195
Mof_H 	H 	0.8094	0.9328	0.9021	0.036
Mof_H 	H 	0.8592	0.9739	0.8946	0.057
Mof_H 	H 	0.7988	0.9944	0.8778	0.01
Mof_C 	C 	0.6294	0.8157	0.1243	0.215
Mof_C 	C 	0.5789	0.8474	0.0081	-0.65
Mof_H 	H 	0.6396	0.7998	0.0042	-0.031
Mof_H 	H 	0.6661	0.8047	0.1394	-0.178
Mof_H 	H 	0.6041	0.7857	0.1335	-0.057
Mof_H 	H 	0.6183	0.8473	0.154	-0.041
Mof_H 	H 	0.5805	0.8561	0.954	0.143
Mof_H 	H 	0.5674	0.8795	0.0366	0.176
Mof_H 	H 	0.5528	0.818	0.0163	0.175
Mof_Ni	Ni	0.24085	0.48138	0.52529	1
Mof_O 	O 	0.19796	0.63808	0.465	-0.795
Mof_O 	O 	0.24141	0.31429	0.5386	-0.782
Mof_N 	N 	0.31469	0.48566	0.49043	-0.188
Mof_N 	N 	0.23603	0.5564	0.49867	-0.372
Mof_N 	N 	0.25658	0.40601	0.5383	-0.378
Mof_N 	N 	0.14315	0.56721	0.49479	-0.373
Mof_H 	H 	0.1434	0.5397	0.5154	0.115
Mof_N 	N 	0.17053	0.37206	0.5227	-0.336
Mof_H 	H 	0.1617	0.4033	0.5363	0.068
Mof_C 	C 	0.33201	0.5423	0.50346	-0.142
Mof_H 	H 	0.3662	0.5496	0.4759	0.049
Mof_H 	H 	0.3385	0.5483	0.5582	0.027
Mof_C 	C 	0.28804	0.58009	0.47563	0.059
Mof_H 	H 	0.2925	0.6165	0.4984	-0.116
Mof_H 	H 	0.2897	0.5836	0.4197	-0.109
Mof_C 	C 	0.1933	0.58957	0.48614	0.4
Mof_C 	C 	0.09342	0.59856	0.48955	0.423
Mof_H 	H 	0.0985	0.6267	0.4494	-0.128
Mof_C 	C 	0.07948	0.62724	0.56298	-0.637
Mof_H 	H 	0.1094	0.6513	0.5774	0.152
Mof_H 	H 	0.0736	0.6003	0.603	0.16
Mof_H 	H 	0.0464	0.6487	0.556	0.161
Mof_C 	C 	0.04872	0.56079	0.46399	-0.695
Mof_H 	H 	0.0593	0.5432	0.4164	0.203
Mof_H 	H 	0.0153	0.5816	0.4561	0.197
Mof_H 	H 	0.0425	0.5331	0.503	0.184
Mof_C 	C 	0.34407	0.44733	0.54036	-0.16
Mof_H 	H 	0.3453	0.4616	0.5928	0.024
Mof_H 	H 	0.3818	0.4426	0.5222	0.058
Mof_C 	C 	0.31464	0.39345	0.53904	0.077
Mof_H 	H 	0.3248	0.3725	0.4933	-0.048
Mof_H 	H 	0.324	0.3718	0.5845	-0.141
Mof_C 	C 	0.22422	0.36241	0.53502	0.368
Mof_C 	C 	0.12905	0.33132	0.53261	0.409
Mof_H 	H 	0.1449	0.2942	0.5275	-0.117
Mof_C 	C 	0.0958	0.3347	0.6001	-0.516
Mof_H 	H 	0.1181	0.3271	0.6449	0.048
Mof_H 	H 	0.0664	0.308	0.5969	0.136
Mof_H 	H 	0.0803	0.3712	0.6042	0.124
Mof_C 	C 	0.0871	0.3444	0.4599	0.102
Mof_H 	H 	0.1074	0.3429	0.4122	-0.075
Mof_H 	H 	0.0714	0.3806	0.4661	-0.016
Mof_H 	H 	0.0581	0.3173	0.4589	-0.036
Mof_C 	C 	0.32107	0.47038	0.40933	-0.195
Mof_H 	H 	0.3094	0.4328	0.4021	0.036
Mof_H 	H 	0.3592	0.4739	0.3946	0.057
Mof_H 	H 	0.2988	0.4944	0.3778	0.01
Mof_C 	C 	0.1294	0.3157	0.6243	0.215
Mof_C 	C 	0.0789	0.3474	0.5081	-0.649
Mof_H 	H 	0.1396	0.2998	0.5042	-0.031
Mof_H 	H 	0.1661	0.3047	0.6394	-0.178
Mof_H 	H 	0.1041	0.2857	0.6335	-0.057
Mof_H 	H 	0.1183	0.3473	0.654	-0.042
Mof_H 	H 	0.0805	0.3561	0.454	0.143
Mof_H 	H 	0.0674	0.3795	0.5366	0.176
Mof_H 	H 	0.0528	0.318	0.5163	0.175
Mof_Ni	Ni	0.01862	0.74085	0.97471	0.999
Mof_O 	O 	0.86192	0.69796	0.035	-0.795
Mof_O 	O 	0.18571	0.74141	0.9614	-0.782
Mof_N 	N 	0.01434	0.81469	0.00957	-0.188
Mof_N 	N 	0.9436	0.73603	0.00133	-0.373
Mof_N 	N 	0.09399	0.75658	0.9617	-0.378
Mof_N 	N 	0.93279	0.64315	0.00521	-0.373
Mof_H 	H 	0.9603	0.6434	0.9846	0.115
Mof_N 	N 	0.12794	0.67053	0.9773	-0.336
Mof_H 	H 	0.0967	0.6617	0.9637	0.068
Mof_C 	C 	0.9577	0.83201	0.99654	-0.142
Mof_H 	H 	0.9504	0.8662	0.0241	0.049
Mof_H 	H 	0.9517	0.8385	0.9418	0.027
Mof_C 	C 	0.91991	0.78804	0.02437	0.059
Mof_H 	H 	0.8835	0.7925	0.0016	-0.116
Mof_H 	H 	0.9164	0.7897	0.0803	-0.109
Mof_C 	C 	0.91043	0.6933	0.01386	0.4
Mof_C 	C 	0.90144	0.59342	0.01045	0.422
Mof_H 	H 	0.8733	0.5985	0.0506	-0.128
Mof_C 	C 	0.87276	0.57948	0.93702	-0.637
Mof_H 	H 	0.8487	0.6094	0.9226	0.152
Mof_H 	H 	0.8997	0.5736	0.897	0.16
Mof_H 	H 	0.8513	0.5464	0.944	0.161
Mof_C 	C 	0.93921	0.54872	0.03601	-0.695
Mof_H 	H 	0.9568	0.5593	0.0836	0.203
Mof_H 	H 	0.9184	0.5153	0.0439	0.197
Mof_H 	H 	0.9669	0.5425	0.997	0.184
Mof_C 	C 	0.05267	0.84407	0.95964	-0.16
Mof_H 	H 	0.0384	0.8453	0.9072	0.024
Mof_H 	H 	0.0574	0.8818	0.9778	0.058
Mof_C 	C 	0.10655	0.81464	0.96096	0.077
Mof_H 	H 	0.1275	0.8248	0.0067	-0.049
Mof_H 	H 	0.1282	0.824	0.9155	-0.141
Mof_C 	C 	0.13759	0.72422	0.96498	0.368
Mof_C 	C 	0.16868	0.62905	0.96739	0.409
Mof_H 	H 	0.2058	0.6449	0.9725	-0.117
Mof_C 	C 	0.1653	0.5958	0.8999	-0.516
Mof_H 	H 	0.1729	0.6181	0.8551	0.048
Mof_H 	H 	0.192	0.5664	0.9031	0.136
Mof_H 	H 	0.1288	0.5803	0.8958	0.124
Mof_C 	C 	0.1556	0.5871	0.0401	0.102
Mof_H 	H 	0.1571	0.6074	0.0878	-0.076
Mof_H 	H 	0.1194	0.5714	0.0339	-0.016
Mof_H 	H 	0.1827	0.5581	0.0411	-0.036
Mof_C 	C 	0.02962	0.82107	0.09067	-0.195
Mof_H 	H 	0.0672	0.8094	0.0979	0.036
Mof_H 	H 	0.0261	0.8592	0.1054	0.057
Mof_H 	H 	0.0056	0.7988	0.1222	0.01
Mof_C 	C 	0.1843	0.6294	0.8757	0.215
Mof_C 	C 	0.1526	0.5789	0.9919	-0.65
Mof_H 	H 	0.2002	0.6396	0.9958	-0.031
Mof_H 	H 	0.1953	0.6661	0.8606	-0.178
Mof_H 	H 	0.2143	0.6041	0.8665	-0.057
Mof_H 	H 	0.1527	0.6183	0.846	-0.041
Mof_H 	H 	0.1439	0.5805	0.046	0.143
Mof_H 	H 	0.1205	0.5674	0.9634	0.176
Mof_H 	H 	0.182	0.5528	0.9837	0.175
Mof_Ni	Ni	0.51862	0.24085	0.47471	1
Mof_O 	O 	0.36192	0.19796	0.535	-0.795
Mof_O 	O 	0.68571	0.24141	0.4614	-0.782
Mof_N 	N 	0.51434	0.31469	0.50957	-0.188
Mof_N 	N 	0.4436	0.23603	0.50133	-0.372
Mof_N 	N 	0.59399	0.25658	0.4617	-0.378
Mof_N 	N 	0.43279	0.14315	0.50521	-0.373
Mof_H 	H 	0.4603	0.1434	0.4846	0.115
Mof_N 	N 	0.62794	0.17053	0.4773	-0.336
Mof_H 	H 	0.5967	0.1617	0.4637	0.068
Mof_C 	C 	0.4577	0.33201	0.49654	-0.142
Mof_H 	H 	0.4504	0.3662	0.5241	0.049
Mof_H 	H 	0.4517	0.3385	0.4418	0.027
Mof_C 	C 	0.41991	0.28804	0.52437	0.059
Mof_H 	H 	0.3835	0.2925	0.5016	-0.116
Mof_H 	H 	0.4164	0.2897	0.5803	-0.109
Mof_C 	C 	0.41043	0.1933	0.51386	0.4
Mof_C 	C 	0.40144	0.09342	0.51045	0.423
Mof_H 	H 	0.3733	0.0985	0.5506	-0.128
Mof_C 	C 	0.37276	0.07948	0.43702	-0.637
Mof_H 	H 	0.3487	0.1094	0.4226	0.152
Mof_H 	H 	0.3997	0.0736	0.397	0.16
Mof_H 	H 	0.3513	0.0464	0.444	0.161
Mof_C 	C 	0.43921	0.04872	0.53601	-0.695
Mof_H 	H 	0.4568	0.0593	0.5836	0.203
Mof_H 	H 	0.4184	0.0153	0.5439	0.197
Mof_H 	H 	0.4669	0.0425	0.497	0.184
Mof_C 	C 	0.55267	0.34407	0.45964	-0.16
Mof_H 	H 	0.5384	0.3453	0.4072	0.024
Mof_H 	H 	0.5574	0.3818	0.4778	0.058
Mof_C 	C 	0.60655	0.31464	0.46096	0.077
Mof_H 	H 	0.6275	0.3248	0.5067	-0.048
Mof_H 	H 	0.6282	0.324	0.4155	-0.141
Mof_C 	C 	0.63759	0.22422	0.46498	0.368
Mof_C 	C 	0.66868	0.12905	0.46739	0.409
Mof_H 	H 	0.7058	0.1449	0.4725	-0.117
Mof_C 	C 	0.6653	0.0958	0.3999	-0.516
Mof_H 	H 	0.6729	0.1181	0.3551	0.048
Mof_H 	H 	0.692	0.0664	0.4031	0.136
Mof_H 	H 	0.6288	0.0803	0.3958	0.124
Mof_C 	C 	0.6556	0.0871	0.5401	0.102
Mof_H 	H 	0.6571	0.1074	0.5878	-0.075
Mof_H 	H 	0.6194	0.0714	0.5339	-0.016
Mof_H 	H 	0.6827	0.0581	0.5411	-0.036
Mof_C 	C 	0.52962	0.32107	0.59067	-0.195
Mof_H 	H 	0.5672	0.3094	0.5979	0.036
Mof_H 	H 	0.5261	0.3592	0.6054	0.057
Mof_H 	H 	0.5056	0.2988	0.6222	0.01
Mof_C 	C 	0.6843	0.1294	0.3757	0.215
Mof_C 	C 	0.6526	0.0789	0.4919	-0.649
Mof_H 	H 	0.7002	0.1396	0.4958	-0.031
Mof_H 	H 	0.6953	0.1661	0.3606	-0.178
Mof_H 	H 	0.7143	0.1041	0.3665	-0.057
Mof_H 	H 	0.6527	0.1183	0.346	-0.042
Mof_H 	H 	0.6439	0.0805	0.546	0.143
Mof_H 	H 	0.6205	0.0674	0.4634	0.176
Mof_H 	H 	0.682	0.0528	0.4837	0.175
Mof_Ni	Ni	0.98138	0.25915	0.97471	0.999
Mof_O 	O 	0.13808	0.30204	0.035	-0.795
Mof_O 	O 	0.81429	0.25859	0.9614	-0.782
Mof_N 	N 	0.98566	0.18531	0.00957	-0.188
Mof_N 	N 	0.0564	0.26397	0.00133	-0.373
Mof_N 	N 	0.90601	0.24342	0.9617	-0.378
Mof_N 	N 	0.06721	0.35685	0.00521	-0.373
Mof_H 	H 	0.0397	0.3566	0.9846	0.115
Mof_N 	N 	0.87206	0.32947	0.9773	-0.336
Mof_H 	H 	0.9033	0.3383	0.9637	0.068
Mof_C 	C 	0.0423	0.16799	0.99654	-0.142
Mof_H 	H 	0.0496	0.1338	0.0241	0.049
Mof_H 	H 	0.0483	0.1615	0.9418	0.027
Mof_C 	C 	0.08009	0.21196	0.02437	0.059
Mof_H 	H 	0.1165	0.2075	0.0016	-0.116
Mof_H 	H 	0.0836	0.2103	0.0803	-0.109
Mof_C 	C 	0.08957	0.3067	0.01386	0.4
Mof_C 	C 	0.09856	0.40658	0.01045	0.422
Mof_H 	H 	0.1267	0.4015	0.0506	-0.128
Mof_C 	C 	0.12724	0.42052	0.93702	-0.637
Mof_H 	H 	0.1513	0.3906	0.9226	0.152
Mof_H 	H 	0.1003	0.4264	0.897	0.16
Mof_H 	H 	0.1487	0.4536	0.944	0.161
Mof_C 	C 	0.06079	0.45128	0.03601	-0.695
Mof_H 	H 	0.0432	0.4407	0.0836	0.203
Mof_H 	H 	0.0816	0.4847	0.0439	0.197
Mof_H 	H 	0.0331	0.4575	0.997	0.184
Mof_C 	C 	0.94733	0.15593	0.95964	-0.16
Mof_H 	H 	0.9616	0.1547	0.9072	0.024
Mof_H 	H 	0.9426	0.1182	0.9778	0.058
Mof_C 	C 	0.89345	0.18536	0.96096	0.077
Mof_H 	H 	0.8725	0.1752	0.0067	-0.049
Mof_H 	H 	0.8718	0.176	0.9155	-0.141
Mof_C 	C 	0.86241	0.27578	0.96498	0.368
Mof_C 	C 	0.83132	0.37095	0.96739	0.409
Mof_H 	H 	0.7942	0.3551	0.9725	-0.117
Mof_C 	C 	0.8347	0.4042	0.8999	-0.516
Mof_H 	H 	0.8271	0.3819	0.8551	0.048
Mof_H 	H 	0.808	0.4336	0.9031	0.136
Mof_H 	H 	0.8712	0.4197	0.8958	0.124
Mof_C 	C 	0.8444	0.4129	0.0401	0.102
Mof_H 	H 	0.8429	0.3926	0.0878	-0.076
Mof_H 	H 	0.8806	0.4286	0.0339	-0.016
Mof_H 	H 	0.8173	0.4419	0.0411	-0.036
Mof_C 	C 	0.97038	0.17893	0.09067	-0.195
Mof_H 	H 	0.9328	0.1906	0.0979	0.036
Mof_H 	H 	0.9739	0.1408	0.1054	0.057
Mof_H 	H 	0.9944	0.2012	0.1222	0.01
Mof_C 	C 	0.8157	0.3706	0.8757	0.215
Mof_C 	C 	0.8474	0.4211	0.9919	-0.65
Mof_H 	H 	0.7998	0.3604	0.9958	-0.031
Mof_H 	H 	0.8047	0.3339	0.8606	-0.178
Mof_H 	H 	0.7857	0.3959	0.8665	-0.057
Mof_H 	H 	0.8473	0.3817	0.846	-0.041
Mof_H 	H 	0.8561	0.4195	0.046	0.143
Mof_H 	H 	0.8795	0.4326	0.9634	0.176
Mof_H 	H 	0.818	0.4472	0.9837	0.175
Mof_Ni	Ni	0.48138	0.75915	0.47471	1
Mof_O 	O 	0.63808	0.80204	0.535	-0.795
Mof_O 	O 	0.31429	0.75859	0.4614	-0.782
Mof_N 	N 	0.48566	0.68531	0.50957	-0.188
Mof_N 	N 	0.5564	0.76397	0.50133	-0.372
Mof_N 	N 	0.40601	0.74342	0.4617	-0.378
Mof_N 	N 	0.56721	0.85685	0.50521	-0.373
Mof_H 	H 	0.5397	0.8566	0.4846	0.115
Mof_N 	N 	0.37206	0.82947	0.4773	-0.336
Mof_H 	H 	0.4033	0.8383	0.4637	0.068
Mof_C 	C 	0.5423	0.66799	0.49654	-0.142
Mof_H 	H 	0.5496	0.6338	0.5241	0.049
Mof_H 	H 	0.5483	0.6615	0.4418	0.027
Mof_C 	C 	0.58009	0.71196	0.52437	0.059
Mof_H 	H 	0.6165	0.7075	0.5016	-0.116
Mof_H 	H 	0.5836	0.7103	0.5803	-0.109
Mof_C 	C 	0.58957	0.8067	0.51386	0.4
Mof_C 	C 	0.59856	0.90658	0.51045	0.423
Mof_H 	H 	0.6267	0.9015	0.5506	-0.128
Mof_C 	C 	0.62724	0.92052	0.43702	-0.637
Mof_H 	H 	0.6513	0.8906	0.4226	0.152
Mof_H 	H 	0.6003	0.9264	0.397	0.16
Mof_H 	H 	0.6487	0.9536	0.444	0.161
Mof_C 	C 	0.56079	0.95128	0.53601	-0.695
Mof_H 	H 	0.5432	0.9407	0.5836	0.203
Mof_H 	H 	0.5816	0.9847	0.5439	0.197
Mof_H 	H 	0.5331	0.9575	0.497	0.184
Mof_C 	C 	0.44733	0.65593	0.45964	-0.16
Mof_H 	H 	0.4616	0.6547	0.4072	0.024
Mof_H 	H 	0.4426	0.6182	0.4778	0.058
Mof_C 	C 	0.39345	0.68536	0.46096	0.077
Mof_H 	H 	0.3725	0.6752	0.5067	-0.048
Mof_H 	H 	0.3718	0.676	0.4155	-0.141
Mof_C 	C 	0.36241	0.77578	0.46498	0.368
Mof_C 	C 	0.33132	0.87095	0.46739	0.409
Mof_H 	H 	0.2942	0.8551	0.4725	-0.117
Mof_C 	C 	0.3347	0.9042	0.3999	-0.516
Mof_H 	H 	0.3271	0.8819	0.3551	0.048
Mof_H 	H 	0.308	0.9336	0.4031	0.136
Mof_H 	H 	0.3712	0.9197	0.3958	0.124
Mof_C 	C 	0.3444	0.9129	0.5401	0.102
Mof_H 	H 	0.3429	0.8926	0.5878	-0.075
Mof_H 	H 	0.3806	0.9286	0.5339	-0.016
Mof_H 	H 	0.3173	0.9419	0.5411	-0.036
Mof_C 	C 	0.47038	0.67893	0.59067	-0.195
Mof_H 	H 	0.4328	0.6906	0.5979	0.036
Mof_H 	H 	0.4739	0.6408	0.6054	0.057
Mof_H 	H 	0.4944	0.7012	0.6222	0.01
Mof_C 	C 	0.3157	0.8706	0.3757	0.215
Mof_C 	C 	0.3474	0.9211	0.4919	-0.649
Mof_H 	H 	0.2998	0.8604	0.4958	-0.031
Mof_H 	H 	0.3047	0.8339	0.3606	-0.178
Mof_H 	H 	0.2857	0.8959	0.3665	-0.057
Mof_H 	H 	0.3473	0.8817	0.346	-0.042
Mof_H 	H 	0.3561	0.9195	0.546	0.143
Mof_H 	H 	0.3795	0.9326	0.4634	0.176
Mof_H 	H 	0.318	0.9472	0.4837	0.175
Mof_Ni	Ni	0.24085	0.01862	0.72471	0.999
Mof_O 	O 	0.19796	0.86192	0.785	-0.795
Mof_O 	O 	0.24141	0.18571	0.7114	-0.782
Mof_N 	N 	0.31469	0.01434	0.75957	-0.188
Mof_N 	N 	0.23603	0.9436	0.75133	-0.372
Mof_N 	N 	0.25658	0.09399	0.7117	-0.378
Mof_N 	N 	0.14315	0.93279	0.75521	-0.373
Mof_H 	H 	0.1434	0.9603	0.7346	0.115
Mof_N 	N 	0.17053	0.12794	0.7273	-0.336
Mof_H 	H 	0.1617	0.0967	0.7137	0.068
Mof_C 	C 	0.33201	0.9577	0.74654	-0.142
Mof_H 	H 	0.3662	0.9504	0.7741	0.049
Mof_H 	H 	0.3385	0.9517	0.6918	0.027
Mof_C 	C 	0.28804	0.91991	0.77437	0.059
Mof_H 	H 	0.2925	0.8835	0.7516	-0.116
Mof_H 	H 	0.2897	0.9164	0.8303	-0.109
Mof_C 	C 	0.1933	0.91043	0.76386	0.4
Mof_C 	C 	0.09342	0.90144	0.76045	0.423
Mof_H 	H 	0.0985	0.8733	0.8006	-0.128
Mof_C 	C 	0.07948	0.87276	0.68702	-0.637
Mof_H 	H 	0.1094	0.8487	0.6726	0.152
Mof_H 	H 	0.0736	0.8997	0.647	0.16
Mof_H 	H 	0.0464	0.8513	0.694	0.161
Mof_C 	C 	0.04872	0.93921	0.78601	-0.695
Mof_H 	H 	0.0593	0.9568	0.8336	0.203
Mof_H 	H 	0.0153	0.9184	0.7939	0.197
Mof_H 	H 	0.0425	0.9669	0.747	0.184
Mof_C 	C 	0.34407	0.05267	0.70964	-0.16
Mof_H 	H 	0.3453	0.0384	0.6572	0.024
Mof_H 	H 	0.3818	0.0574	0.7278	0.058
Mof_C 	C 	0.31464	0.10655	0.71096	0.077
Mof_H 	H 	0.3248	0.1275	0.7567	-0.048
Mof_H 	H 	0.324	0.1282	0.6655	-0.141
Mof_C 	C 	0.22422	0.13759	0.71498	0.368
Mof_C 	C 	0.12905	0.16868	0.71739	0.409
Mof_H 	H 	0.1449	0.2058	0.7225	-0.117
Mof_C 	C 	0.0958	0.1653	0.6499	-0.516
Mof_H 	H 	0.1181	0.1729	0.6051	0.048
Mof_H 	H 	0.0664	0.192	0.6531	0.136
Mof_H 	H 	0.0803	0.1288	0.6458	0.124
Mof_C 	C 	0.0871	0.1556	0.7901	0.102
Mof_H 	H 	0.1074	0.1571	0.8378	-0.075
Mof_H 	H 	0.0714	0.1194	0.7839	-0.016
Mof_H 	H 	0.0581	0.1827	0.7911	-0.036
Mof_C 	C 	0.32107	0.02962	0.84067	-0.195
Mof_H 	H 	0.3094	0.0672	0.8479	0.036
Mof_H 	H 	0.3592	0.0261	0.8554	0.057
Mof_H 	H 	0.2988	0.0056	0.8722	0.01
Mof_C 	C 	0.1294	0.1843	0.6257	0.215
Mof_C 	C 	0.0789	0.1526	0.7419	-0.649
Mof_H 	H 	0.1396	0.2002	0.7458	-0.031
Mof_H 	H 	0.1661	0.1953	0.6106	-0.178
Mof_H 	H 	0.1041	0.2143	0.6165	-0.057
Mof_H 	H 	0.1183	0.1527	0.596	-0.042
Mof_H 	H 	0.0805	0.1439	0.796	0.143
Mof_H 	H 	0.0674	0.1205	0.7134	0.176
Mof_H 	H 	0.0528	0.182	0.7337	0.175
Mof_Ni	Ni	0.74085	0.51862	0.22471	0.999
Mof_O 	O 	0.69796	0.36192	0.285	-0.795
Mof_O 	O 	0.74141	0.68571	0.2114	-0.782
Mof_N 	N 	0.81469	0.51434	0.25957	-0.188
Mof_N 	N 	0.73603	0.4436	0.25133	-0.372
Mof_N 	N 	0.75658	0.59399	0.2117	-0.378
Mof_N 	N 	0.64315	0.43279	0.25521	-0.373
Mof_H 	H 	0.6434	0.4603	0.2346	0.115
Mof_N 	N 	0.67053	0.62794	0.2273	-0.336
Mof_H 	H 	0.6617	0.5967	0.2137	0.068
Mof_C 	C 	0.83201	0.4577	0.24654	-0.142
Mof_H 	H 	0.8662	0.4504	0.2741	0.049
Mof_H 	H 	0.8385	0.4517	0.1918	0.027
Mof_C 	C 	0.78804	0.41991	0.27437	0.059
Mof_H 	H 	0.7925	0.3835	0.2516	-0.116
Mof_H 	H 	0.7897	0.4164	0.3303	-0.109
Mof_C 	C 	0.6933	0.41043	0.26386	0.4
Mof_C 	C 	0.59342	0.40144	0.26045	0.422
Mof_H 	H 	0.5985	0.3733	0.3006	-0.128
Mof_C 	C 	0.57948	0.37276	0.18702	-0.637
Mof_H 	H 	0.6094	0.3487	0.1726	0.152
Mof_H 	H 	0.5736	0.3997	0.147	0.16
Mof_H 	H 	0.5464	0.3513	0.194	0.161
Mof_C 	C 	0.54872	0.43921	0.28601	-0.695
Mof_H 	H 	0.5593	0.4568	0.3336	0.203
Mof_H 	H 	0.5153	0.4184	0.2939	0.197
Mof_H 	H 	0.5425	0.4669	0.247	0.184
Mof_C 	C 	0.84407	0.55267	0.20964	-0.16
Mof_H 	H 	0.8453	0.5384	0.1572	0.024
Mof_H 	H 	0.8818	0.5574	0.2278	0.058
Mof_C 	C 	0.81464	0.60655	0.21096	0.077
Mof_H 	H 	0.8248	0.6275	0.2567	-0.048
Mof_H 	H 	0.824	0.6282	0.1655	-0.141
Mof_C 	C 	0.72422	0.63759	0.21498	0.368
Mof_C 	C 	0.62905	0.66868	0.21739	0.409
Mof_H 	H 	0.6449	0.7058	0.2225	-0.117
Mof_C 	C 	0.5958	0.6653	0.1499	-0.516
Mof_H 	H 	0.6181	0.6729	0.1051	0.049
Mof_H 	H 	0.5664	0.692	0.1531	0.136
Mof_H 	H 	0.5803	0.6288	0.1458	0.124
Mof_C 	C 	0.5871	0.6556	0.2901	0.102
Mof_H 	H 	0.6074	0.6571	0.3378	-0.075
Mof_H 	H 	0.5714	0.6194	0.2839	-0.016
Mof_H 	H 	0.5581	0.6827	0.2911	-0.036
Mof_C 	C 	0.82107	0.52962	0.34067	-0.195
Mof_H 	H 	0.8094	0.5672	0.3479	0.036
Mof_H 	H 	0.8592	0.5261	0.3554	0.057
Mof_H 	H 	0.7988	0.5056	0.3722	0.01
Mof_C 	C 	0.6294	0.6843	0.1257	0.215
Mof_C 	C 	0.5789	0.6526	0.2419	-0.649
Mof_H 	H 	0.6396	0.7002	0.2458	-0.031
Mof_H 	H 	0.6661	0.6953	0.1106	-0.178
Mof_H 	H 	0.6041	0.7143	0.1165	-0.057
Mof_H 	H 	0.6183	0.6527	0.096	-0.042
Mof_H 	H 	0.5805	0.6439	0.296	0.143
Mof_H 	H 	0.5674	0.6205	0.2134	0.176
Mof_H 	H 	0.5528	0.682	0.2337	0.175
Mof_Ni	Ni	0.75915	0.98138	0.72471	0.999
Mof_O 	O 	0.80204	0.13808	0.785	-0.795
Mof_O 	O 	0.75859	0.81429	0.7114	-0.782
Mof_N 	N 	0.68531	0.98566	0.75957	-0.188
Mof_N 	N 	0.76397	0.0564	0.75133	-0.372
Mof_N 	N 	0.74342	0.90601	0.7117	-0.378
Mof_N 	N 	0.85685	0.06721	0.75521	-0.373
Mof_H 	H 	0.8566	0.0397	0.7346	0.115
Mof_N 	N 	0.82947	0.87206	0.7273	-0.336
Mof_H 	H 	0.8383	0.9033	0.7137	0.068
Mof_C 	C 	0.66799	0.0423	0.74654	-0.142
Mof_H 	H 	0.6338	0.0496	0.7741	0.049
Mof_H 	H 	0.6615	0.0483	0.6918	0.027
Mof_C 	C 	0.71196	0.08009	0.77437	0.059
Mof_H 	H 	0.7075	0.1165	0.7516	-0.116
Mof_H 	H 	0.7103	0.0836	0.8303	-0.109
Mof_C 	C 	0.8067	0.08957	0.76386	0.4
Mof_C 	C 	0.90658	0.09856	0.76045	0.423
Mof_H 	H 	0.9015	0.1267	0.8006	-0.128
Mof_C 	C 	0.92052	0.12724	0.68702	-0.637
Mof_H 	H 	0.8906	0.1513	0.6726	0.152
Mof_H 	H 	0.9264	0.1003	0.647	0.16
Mof_H 	H 	0.9536	0.1487	0.694	0.161
Mof_C 	C 	0.95128	0.06079	0.78601	-0.695
Mof_H 	H 	0.9407	0.0432	0.8336	0.203
Mof_H 	H 	0.9847	0.0816	0.7939	0.197
Mof_H 	H 	0.9575	0.0331	0.747	0.184
Mof_C 	C 	0.65593	0.94733	0.70964	-0.16
Mof_H 	H 	0.6547	0.9616	0.6572	0.024
Mof_H 	H 	0.6182	0.9426	0.7278	0.058
Mof_C 	C 	0.68536	0.89345	0.71096	0.077
Mof_H 	H 	0.6752	0.8725	0.7567	-0.048
Mof_H 	H 	0.676	0.8718	0.6655	-0.141
Mof_C 	C 	0.77578	0.86241	0.71498	0.368
Mof_C 	C 	0.87095	0.83132	0.71739	0.409
Mof_H 	H 	0.8551	0.7942	0.7225	-0.117
Mof_C 	C 	0.9042	0.8347	0.6499	-0.516
Mof_H 	H 	0.8819	0.8271	0.6051	0.048
Mof_H 	H 	0.9336	0.808	0.6531	0.136
Mof_H 	H 	0.9197	0.8712	0.6458	0.124
Mof_C 	C 	0.9129	0.8444	0.7901	0.102
Mof_H 	H 	0.8926	0.8429	0.8378	-0.075
Mof_H 	H 	0.9286	0.8806	0.7839	-0.016
Mof_H 	H 	0.9419	0.8173	0.7911	-0.036
Mof_C 	C 	0.67893	0.97038	0.84067	-0.195
Mof_H 	H 	0.6906	0.9328	0.8479	0.036
Mof_H 	H 	0.6408	0.9739	0.8554	0.057
Mof_H 	H 	0.7012	0.9944	0.8722	0.01
Mof_C 	C 	0.8706	0.8157	0.6257	0.215
Mof_C 	C 	0.9211	0.8474	0.7419	-0.649
Mof_H 	H 	0.8604	0.7998	0.7458	-0.031
Mof_H 	H 	0.8339	0.8047	0.6106	-0.178
Mof_H 	H 	0.8959	0.7857	0.6165	-0.057
Mof_H 	H 	0.8817	0.8473	0.596	-0.042
Mof_H 	H 	0.9195	0.8561	0.796	0.143
Mof_H 	H 	0.9326	0.8795	0.7134	0.176
Mof_H 	H 	0.9472	0.818	0.7337	0.175
Mof_Ni	Ni	0.25915	0.48138	0.22471	0.999
Mof_O 	O 	0.30204	0.63808	0.285	-0.795
Mof_O 	O 	0.25859	0.31429	0.2114	-0.782
Mof_N 	N 	0.18531	0.48566	0.25957	-0.188
Mof_N 	N 	0.26397	0.5564	0.25133	-0.372
Mof_N 	N 	0.24342	0.40601	0.2117	-0.378
Mof_N 	N 	0.35685	0.56721	0.25521	-0.373
Mof_H 	H 	0.3566	0.5397	0.2346	0.115
Mof_N 	N 	0.32947	0.37206	0.2273	-0.336
Mof_H 	H 	0.3383	0.4033	0.2137	0.068
Mof_C 	C 	0.16799	0.5423	0.24654	-0.142
Mof_H 	H 	0.1338	0.5496	0.2741	0.049
Mof_H 	H 	0.1615	0.5483	0.1918	0.027
Mof_C 	C 	0.21196	0.58009	0.27437	0.059
Mof_H 	H 	0.2075	0.6165	0.2516	-0.116
Mof_H 	H 	0.2103	0.5836	0.3303	-0.109
Mof_C 	C 	0.3067	0.58957	0.26386	0.4
Mof_C 	C 	0.40658	0.59856	0.26045	0.422
Mof_H 	H 	0.4015	0.6267	0.3006	-0.128
Mof_C 	C 	0.42052	0.62724	0.18702	-0.637
Mof_H 	H 	0.3906	0.6513	0.1726	0.152
Mof_H 	H 	0.4264	0.6003	0.147	0.16
Mof_H 	H 	0.4536	0.6487	0.194	0.161
Mof_C 	C 	0.45128	0.56079	0.28601	-0.695
Mof_H 	H 	0.4407	0.5432	0.3336	0.203
Mof_H 	H 	0.4847	0.5816	0.2939	0.197
Mof_H 	H 	0.4575	0.5331	0.247	0.184
Mof_C 	C 	0.15593	0.44733	0.20964	-0.16
Mof_H 	H 	0.1547	0.4616	0.1572	0.024
Mof_H 	H 	0.1182	0.4426	0.2278	0.058
Mof_C 	C 	0.18536	0.39345	0.21096	0.077
Mof_H 	H 	0.1752	0.3725	0.2567	-0.048
Mof_H 	H 	0.176	0.3718	0.1655	-0.141
Mof_C 	C 	0.27578	0.36241	0.21498	0.368
Mof_C 	C 	0.37095	0.33132	0.21739	0.409
Mof_H 	H 	0.3551	0.2942	0.2225	-0.117
Mof_C 	C 	0.4042	0.3347	0.1499	-0.516
Mof_H 	H 	0.3819	0.3271	0.1051	0.049
Mof_H 	H 	0.4336	0.308	0.1531	0.136
Mof_H 	H 	0.4197	0.3712	0.1458	0.124
Mof_C 	C 	0.4129	0.3444	0.2901	0.102
Mof_H 	H 	0.3926	0.3429	0.3378	-0.075
Mof_H 	H 	0.4286	0.3806	0.2839	-0.016
Mof_H 	H 	0.4419	0.3173	0.2911	-0.036
Mof_C 	C 	0.17893	0.47038	0.34067	-0.195
Mof_H 	H 	0.1906	0.4328	0.3479	0.036
Mof_H 	H 	0.1408	0.4739	0.3554	0.057
Mof_H 	H 	0.2012	0.4944	0.3722	0.01
Mof_C 	C 	0.3706	0.3157	0.1257	0.215
Mof_C 	C 	0.4211	0.3474	0.2419	-0.649
Mof_H 	H 	0.3604	0.2998	0.2458	-0.031
Mof_H 	H 	0.3339	0.3047	0.1106	-0.178
Mof_H 	H 	0.3959	0.2857	0.1165	-0.057
Mof_H 	H 	0.3817	0.3473	0.096	-0.042
Mof_H 	H 	0.4195	0.3561	0.296	0.143
Mof_H 	H 	0.4326	0.3795	0.2134	0.176
Mof_H 	H 	0.4472	0.318	0.2337	0.175
Mof_Ni	Ni	0.48138	0.74085	0.77529	0.999
Mof_O 	O 	0.63808	0.69796	0.715	-0.795
Mof_O 	O 	0.31429	0.74141	0.7886	-0.782
Mof_N 	N 	0.48566	0.81469	0.74043	-0.188
Mof_N 	N 	0.5564	0.73603	0.74867	-0.372
Mof_N 	N 	0.40601	0.75658	0.7883	-0.378
Mof_N 	N 	0.56721	0.64315	0.74479	-0.373
Mof_H 	H 	0.5397	0.6434	0.7654	0.115
Mof_N 	N 	0.37206	0.67053	0.7727	-0.336
Mof_H 	H 	0.4033	0.6617	0.7863	0.068
Mof_C 	C 	0.5423	0.83201	0.75346	-0.142
Mof_H 	H 	0.5496	0.8662	0.7259	0.049
Mof_H 	H 	0.5483	0.8385	0.8082	0.027
Mof_C 	C 	0.58009	0.78804	0.72563	0.059
Mof_H 	H 	0.6165	0.7925	0.7484	-0.116
Mof_H 	H 	0.5836	0.7897	0.6697	-0.109
Mof_C 	C 	0.58957	0.6933	0.73614	0.4
Mof_C 	C 	0.59856	0.59342	0.73955	0.422
Mof_H 	H 	0.6267	0.5985	0.6994	-0.128
Mof_C 	C 	0.62724	0.57948	0.81298	-0.637
Mof_H 	H 	0.6513	0.6094	0.8274	0.152
Mof_H 	H 	0.6003	0.5736	0.853	0.16
Mof_H 	H 	0.6487	0.5464	0.806	0.161
Mof_C 	C 	0.56079	0.54872	0.71399	-0.695
Mof_H 	H 	0.5432	0.5593	0.6664	0.203
Mof_H 	H 	0.5816	0.5153	0.7061	0.197
Mof_H 	H 	0.5331	0.5425	0.753	0.184
Mof_C 	C 	0.44733	0.84407	0.79036	-0.16
Mof_H 	H 	0.4616	0.8453	0.8428	0.024
Mof_H 	H 	0.4426	0.8818	0.7722	0.058
Mof_C 	C 	0.39345	0.81464	0.78904	0.077
Mof_H 	H 	0.3725	0.8248	0.7433	-0.048
Mof_H 	H 	0.3718	0.824	0.8345	-0.141
Mof_C 	C 	0.36241	0.72422	0.78502	0.368
Mof_C 	C 	0.33132	0.62905	0.78261	0.409
Mof_H 	H 	0.2942	0.6449	0.7775	-0.117
Mof_C 	C 	0.3347	0.5958	0.8501	-0.516
Mof_H 	H 	0.3271	0.6181	0.8949	0.049
Mof_H 	H 	0.308	0.5664	0.8469	0.136
Mof_H 	H 	0.3712	0.5803	0.8542	0.124
Mof_C 	C 	0.3444	0.5871	0.7099	0.102
Mof_H 	H 	0.3429	0.6074	0.6622	-0.075
Mof_H 	H 	0.3806	0.5714	0.7161	-0.016
Mof_H 	H 	0.3173	0.5581	0.7089	-0.036
Mof_C 	C 	0.47038	0.82107	0.65933	-0.195
Mof_H 	H 	0.4328	0.8094	0.6521	0.036
Mof_H 	H 	0.4739	0.8592	0.6446	0.057
Mof_H 	H 	0.4944	0.7988	0.6278	0.01
Mof_C 	C 	0.3157	0.6294	0.8743	0.215
Mof_C 	C 	0.3474	0.5789	0.7581	-0.649
Mof_H 	H 	0.2998	0.6396	0.7542	-0.031
Mof_H 	H 	0.3047	0.6661	0.8894	-0.178
Mof_H 	H 	0.2857	0.6041	0.8835	-0.057
Mof_H 	H 	0.3473	0.6183	0.904	-0.042
Mof_H 	H 	0.3561	0.5805	0.704	0.143
Mof_H 	H 	0.3795	0.5674	0.7866	0.176
Mof_H 	H 	0.318	0.5528	0.7663	0.175
Mof_Ni	Ni	0.98138	0.24085	0.27529	0.999
Mof_O 	O 	0.13808	0.19796	0.215	-0.795
Mof_O 	O 	0.81429	0.24141	0.2886	-0.782
Mof_N 	N 	0.98566	0.31469	0.24043	-0.188
Mof_N 	N 	0.0564	0.23603	0.24867	-0.372
Mof_N 	N 	0.90601	0.25658	0.2883	-0.378
Mof_N 	N 	0.06721	0.14315	0.24479	-0.373
Mof_H 	H 	0.0397	0.1434	0.2654	0.115
Mof_N 	N 	0.87206	0.17053	0.2727	-0.336
Mof_H 	H 	0.9033	0.1617	0.2863	0.068
Mof_C 	C 	0.0423	0.33201	0.25346	-0.142
Mof_H 	H 	0.0496	0.3662	0.2259	0.049
Mof_H 	H 	0.0483	0.3385	0.3082	0.027
Mof_C 	C 	0.08009	0.28804	0.22563	0.059
Mof_H 	H 	0.1165	0.2925	0.2484	-0.116
Mof_H 	H 	0.0836	0.2897	0.1697	-0.109
Mof_C 	C 	0.08957	0.1933	0.23614	0.4
Mof_C 	C 	0.09856	0.09342	0.23955	0.423
Mof_H 	H 	0.1267	0.0985	0.1994	-0.128
Mof_C 	C 	0.12724	0.07948	0.31298	-0.637
Mof_H 	H 	0.1513	0.1094	0.3274	0.152
Mof_H 	H 	0.1003	0.0736	0.353	0.16
Mof_H 	H 	0.1487	0.0464	0.306	0.161
Mof_C 	C 	0.06079	0.04872	0.21399	-0.695
Mof_H 	H 	0.0432	0.0593	0.1664	0.203
Mof_H 	H 	0.0816	0.0153	0.2061	0.197
Mof_H 	H 	0.0331	0.0425	0.253	0.184
Mof_C 	C 	0.94733	0.34407	0.29036	-0.16
Mof_H 	H 	0.9616	0.3453	0.3428	0.024
Mof_H 	H 	0.9426	0.3818	0.2722	0.058
Mof_C 	C 	0.89345	0.31464	0.28904	0.077
Mof_H 	H 	0.8725	0.3248	0.2433	-0.048
Mof_H 	H 	0.8718	0.324	0.3345	-0.141
Mof_C 	C 	0.86241	0.22422	0.28502	0.368
Mof_C 	C 	0.83132	0.12905	0.28261	0.409
Mof_H 	H 	0.7942	0.1449	0.2775	-0.117
Mof_C 	C 	0.8347	0.0958	0.3501	-0.516
Mof_H 	H 	0.8271	0.1181	0.3949	0.048
Mof_H 	H 	0.808	0.0664	0.3469	0.136
Mof_H 	H 	0.8712	0.0803	0.3542	0.124
Mof_C 	C 	0.8444	0.0871	0.2099	0.102
Mof_H 	H 	0.8429	0.1074	0.1622	-0.075
Mof_H 	H 	0.8806	0.0714	0.2161	-0.016
Mof_H 	H 	0.8173	0.0581	0.2089	-0.036
Mof_C 	C 	0.97038	0.32107	0.15933	-0.195
Mof_H 	H 	0.9328	0.3094	0.1521	0.036
Mof_H 	H 	0.9739	0.3592	0.1446	0.057
Mof_H 	H 	0.9944	0.2988	0.1278	0.01
Mof_C 	C 	0.8157	0.1294	0.3743	0.215
Mof_C 	C 	0.8474	0.0789	0.2581	-0.649
Mof_H 	H 	0.7998	0.1396	0.2542	-0.031
Mof_H 	H 	0.8047	0.1661	0.3894	-0.178
Mof_H 	H 	0.7857	0.1041	0.3835	-0.057
Mof_H 	H 	0.8473	0.1183	0.404	-0.042
Mof_H 	H 	0.8561	0.0805	0.204	0.143
Mof_H 	H 	0.8795	0.0674	0.2866	0.176
Mof_H 	H 	0.818	0.0528	0.2663	0.175
Mof_Ni	Ni	0.51862	0.25915	0.77529	0.999
Mof_O 	O 	0.36192	0.30204	0.715	-0.795
Mof_O 	O 	0.68571	0.25859	0.7886	-0.782
Mof_N 	N 	0.51434	0.18531	0.74043	-0.188
Mof_N 	N 	0.4436	0.26397	0.74867	-0.372
Mof_N 	N 	0.59399	0.24342	0.7883	-0.378
Mof_N 	N 	0.43279	0.35685	0.74479	-0.373
Mof_H 	H 	0.4603	0.3566	0.7654	0.115
Mof_N 	N 	0.62794	0.32947	0.7727	-0.336
Mof_H 	H 	0.5967	0.3383	0.7863	0.068
Mof_C 	C 	0.4577	0.16799	0.75346	-0.142
Mof_H 	H 	0.4504	0.1338	0.7259	0.049
Mof_H 	H 	0.4517	0.1615	0.8082	0.027
Mof_C 	C 	0.41991	0.21196	0.72563	0.059
Mof_H 	H 	0.3835	0.2075	0.7484	-0.116
Mof_H 	H 	0.4164	0.2103	0.6697	-0.109
Mof_C 	C 	0.41043	0.3067	0.73614	0.4
Mof_C 	C 	0.40144	0.40658	0.73955	0.422
Mof_H 	H 	0.3733	0.4015	0.6994	-0.128
Mof_C 	C 	0.37276	0.42052	0.81298	-0.637
Mof_H 	H 	0.3487	0.3906	0.8274	0.152
Mof_H 	H 	0.3997	0.4264	0.853	0.16
Mof_H 	H 	0.3513	0.4536	0.806	0.161
Mof_C 	C 	0.43921	0.45128	0.71399	-0.695
Mof_H 	H 	0.4568	0.4407	0.6664	0.203
Mof_H 	H 	0.4184	0.4847	0.7061	0.197
Mof_H 	H 	0.4669	0.4575	0.753	0.184
Mof_C 	C 	0.55267	0.15593	0.79036	-0.16
Mof_H 	H 	0.5384	0.1547	0.8428	0.024
Mof_H 	H 	0.5574	0.1182	0.7722	0.058
Mof_C 	C 	0.60655	0.18536	0.78904	0.077
Mof_H 	H 	0.6275	0.1752	0.7433	-0.048
Mof_H 	H 	0.6282	0.176	0.8345	-0.141
Mof_C 	C 	0.63759	0.27578	0.78502	0.368
Mof_C 	C 	0.66868	0.37095	0.78261	0.409
Mof_H 	H 	0.7058	0.3551	0.7775	-0.117
Mof_C 	C 	0.6653	0.4042	0.8501	-0.516
Mof_H 	H 	0.6729	0.3819	0.8949	0.049
Mof_H 	H 	0.692	0.4336	0.8469	0.136
Mof_H 	H 	0.6288	0.4197	0.8542	0.124
Mof_C 	C 	0.6556	0.4129	0.7099	0.102
Mof_H 	H 	0.6571	0.3926	0.6622	-0.075
Mof_H 	H 	0.6194	0.4286	0.7161	-0.016
Mof_H 	H 	0.6827	0.4419	0.7089	-0.036
Mof_C 	C 	0.52962	0.17893	0.65933	-0.195
Mof_H 	H 	0.5672	0.1906	0.6521	0.036
Mof_H 	H 	0.5261	0.1408	0.6446	0.057
Mof_H 	H 	0.5056	0.2012	0.6278	0.01
Mof_C 	C 	0.6843	0.3706	0.8743	0.215
Mof_C 	C 	0.6526	0.4211	0.7581	-0.649
Mof_H 	H 	0.7002	0.3604	0.7542	-0.031
Mof_H 	H 	0.6953	0.3339	0.8894	-0.178
Mof_H 	H 	0.7143	0.3959	0.8835	-0.057
Mof_H 	H 	0.6527	0.3817	0.904	-0.042
Mof_H 	H 	0.6439	0.4195	0.704	0.143
Mof_H 	H 	0.6205	0.4326	0.7866	0.176
Mof_H 	H 	0.682	0.4472	0.7663	0.175
Mof_Ni	Ni	0.01862	0.75915	0.27529	0.999
Mof_O 	O 	0.86192	0.80204	0.215	-0.795
Mof_O 	O 	0.18571	0.75859	0.2886	-0.782
Mof_N 	N 	0.01434	0.68531	0.24043	-0.188
Mof_N 	N 	0.9436	0.76397	0.24867	-0.372
Mof_N 	N 	0.09399	0.74342	0.2883	-0.378
Mof_N 	N 	0.93279	0.85685	0.24479	-0.373
Mof_H 	H 	0.9603	0.8566	0.2654	0.115
Mof_N 	N 	0.12794	0.82947	0.2727	-0.336
Mof_H 	H 	0.0967	0.8383	0.2863	0.068
Mof_C 	C 	0.9577	0.66799	0.25346	-0.142
Mof_H 	H 	0.9504	0.6338	0.2259	0.049
Mof_H 	H 	0.9517	0.6615	0.3082	0.027
Mof_C 	C 	0.91991	0.71196	0.22563	0.059
Mof_H 	H 	0.8835	0.7075	0.2484	-0.116
Mof_H 	H 	0.9164	0.7103	0.1697	-0.109
Mof_C 	C 	0.91043	0.8067	0.23614	0.4
Mof_C 	C 	0.90144	0.90658	0.23955	0.423
Mof_H 	H 	0.8733	0.9015	0.1994	-0.128
Mof_C 	C 	0.87276	0.92052	0.31298	-0.637
Mof_H 	H 	0.8487	0.8906	0.3274	0.152
Mof_H 	H 	0.8997	0.9264	0.353	0.16
Mof_H 	H 	0.8513	0.9536	0.306	0.161
Mof_C 	C 	0.93921	0.95128	0.21399	-0.695
Mof_H 	H 	0.9568	0.9407	0.1664	0.203
Mof_H 	H 	0.9184	0.9847	0.2061	0.197
Mof_H 	H 	0.9669	0.9575	0.253	0.184
Mof_C 	C 	0.05267	0.65593	0.29036	-0.16
Mof_H 	H 	0.0384	0.6547	0.3428	0.024
Mof_H 	H 	0.0574	0.6182	0.2722	0.058
Mof_C 	C 	0.10655	0.68536	0.28904	0.077
Mof_H 	H 	0.1275	0.6752	0.2433	-0.048
Mof_H 	H 	0.1282	0.676	0.3345	-0.141
Mof_C 	C 	0.13759	0.77578	0.28502	0.368
Mof_C 	C 	0.16868	0.87095	0.28261	0.409
Mof_H 	H 	0.2058	0.8551	0.2775	-0.117
Mof_C 	C 	0.1653	0.9042	0.3501	-0.516
Mof_H 	H 	0.1729	0.8819	0.3949	0.048
Mof_H 	H 	0.192	0.9336	0.3469	0.136
Mof_H 	H 	0.1288	0.9197	0.3542	0.124
Mof_C 	C 	0.1556	0.9129	0.2099	0.102
Mof_H 	H 	0.1571	0.8926	0.1622	-0.075
Mof_H 	H 	0.1194	0.9286	0.2161	-0.016
Mof_H 	H 	0.1827	0.9419	0.2089	-0.036
Mof_C 	C 	0.02962	0.67893	0.15933	-0.195
Mof_H 	H 	0.0672	0.6906	0.1521	0.036
Mof_H 	H 	0.0261	0.6408	0.1446	0.057
Mof_H 	H 	0.0056	0.7012	0.1278	0.01
Mof_C 	C 	0.1843	0.8706	0.3743	0.215
Mof_C 	C 	0.1526	0.9211	0.2581	-0.649
Mof_H 	H 	0.2002	0.8604	0.2542	-0.031
Mof_H 	H 	0.1953	0.8339	0.3894	-0.178
Mof_H 	H 	0.2143	0.8959	0.3835	-0.057
Mof_H 	H 	0.1527	0.8817	0.404	-0.042
Mof_H 	H 	0.1439	0.9195	0.204	0.143
Mof_H 	H 	0.1205	0.9326	0.2866	0.176
Mof_H 	H 	0.182	0.9472	0.2663	0.175
Mof_K 	K 	0.25	0.79833	0.875	3.922
Mof_K 	K 	0.75	0.29833	0.375	3.923
Mof_K 	K 	0.75	0.20167	0.875	3.922
Mof_K 	K 	0.25	0.70167	0.375	3.923
Mof_K 	K 	0.79833	0.75	0.125	3.922
Mof_K 	K 	0.29833	0.25	0.625	3.923
Mof_K 	K 	0.20167	0.25	0.125	3.922
Mof_K 	K 	0.70167	0.75	0.625	3.923
_end
