# CIF file generated by openbabel 3.1.0, see https://openbabel.org
data_I
_chemical_name_common 'TERNUA_clean'
_cell_length_a 10.6783
_cell_length_b 10.6783
_cell_length_c 18.743
_cell_angle_alpha 74.1394
_cell_angle_beta 74.1394
_cell_angle_gamma 65.0198
_space_group_name_H-M_alt 'P 1'
_space_group_name_Hall 'P 1'
loop_
    _symmetry_equiv_pos_as_xyz
    x,y,z
loop_
    _atom_site_label
    _atom_site_type_symbol
    _atom_site_fract_x
    _atom_site_fract_y
    _atom_site_fract_z
    _atom_site_occupancy
    Eu1      Eu       0.56088    0.44294    0.89804    1.000
    Eu2      Eu       0.55706    0.43912    0.60196    1.000
    Eu3      Eu       0.43912    0.55706    0.10196    1.000
    Eu4      Eu       0.44294    0.56088    0.39804    1.000
    H1       H        0.88340    0.53180    0.76900    1.000
    H2       H        0.10350    0.53950    0.71520    1.000
    H3       H        0.00930    0.63250    0.50840    1.000
    H4       H        0.79020    0.62180    0.56200    1.000
    H5       H        0.79330    0.53050    0.08850    1.000
    H6       H        0.01700    0.45060    0.88390    1.000
    H7       H        0.46820    0.11660    0.73100    1.000
    H8       H        0.46050    0.89650    0.78480    1.000
    H9       H        0.36750    0.99070    0.99160    1.000
    H10      H        0.37820    0.20980    0.93800    1.000
    H11      H        0.46950    0.20670    0.41150    1.000
    H12      H        0.54940    0.98300    0.61610    1.000
    H13      H        0.11660    0.46820    0.23100    1.000
    H14      H        0.89650    0.46050    0.28480    1.000
    H15      H        0.99070    0.36750    0.49160    1.000
    H16      H        0.20980    0.37820    0.43800    1.000
    H17      H        0.20670    0.46950    0.91150    1.000
    H18      H        0.98300    0.54940    0.11610    1.000
    H19      H        0.53180    0.88340    0.26900    1.000
    H20      H        0.53950    0.10350    0.21520    1.000
    H21      H        0.63250    0.00930    0.00840    1.000
    H22      H        0.62180    0.79020    0.06200    1.000
    H23      H        0.53050    0.79330    0.58850    1.000
    H24      H        0.45060    0.01700    0.38390    1.000
    C1       C        0.67669    0.55923    0.70580    1.000
    C2       C        0.81519    0.57375    0.67100    1.000
    C3       C        0.90912    0.55052    0.71686    1.000
    C4       C        0.04097    0.55539    0.68462    1.000
    C5       C        0.07961    0.58409    0.60620    1.000
    C6       C        0.98456    0.61074    0.56052    1.000
    C7       C        0.85306    0.60490    0.59267    1.000
    C8       C        0.22537    0.57855    0.57025    1.000
    C9       C        0.76573    0.47545    0.96395    1.000
    C10      C        0.88605    0.48909    0.98321    1.000
    C11      C        0.87583    0.51841    0.05310    1.000
    C12      C        0.01030    0.47050    0.93044    1.000
    C13      C        0.44077    0.32331    0.79420    1.000
    C14      C        0.42625    0.18481    0.82900    1.000
    C15      C        0.44948    0.09088    0.78314    1.000
    C16      C        0.44461    0.95903    0.81538    1.000
    C17      C        0.41591    0.92039    0.89380    1.000
    C18      C        0.38926    0.01544    0.93948    1.000
    C19      C        0.39510    0.14694    0.90733    1.000
    C20      C        0.42145    0.77463    0.92975    1.000
    C21      C        0.52455    0.23427    0.53605    1.000
    C22      C        0.51091    0.11395    0.51679    1.000
    C23      C        0.48159    0.12417    0.44690    1.000
    C24      C        0.52950    0.98970    0.56956    1.000
    C25      C        0.32331    0.44077    0.29420    1.000
    C26      C        0.18481    0.42625    0.32900    1.000
    C27      C        0.09088    0.44948    0.28314    1.000
    C28      C        0.95903    0.44461    0.31538    1.000
    C29      C        0.92039    0.41591    0.39380    1.000
    C30      C        0.01544    0.38926    0.43948    1.000
    C31      C        0.14694    0.39510    0.40733    1.000
    C32      C        0.77463    0.42145    0.42975    1.000
    C33      C        0.23427    0.52455    0.03605    1.000
    C34      C        0.11395    0.51091    0.01679    1.000
    C35      C        0.12417    0.48159    0.94690    1.000
    C36      C        0.98970    0.52950    0.06956    1.000
    C37      C        0.55923    0.67669    0.20580    1.000
    C38      C        0.57375    0.81519    0.17100    1.000
    C39      C        0.55052    0.90912    0.21686    1.000
    C40      C        0.55539    0.04097    0.18462    1.000
    C41      C        0.58409    0.07961    0.10620    1.000
    C42      C        0.61074    0.98456    0.06052    1.000
    C43      C        0.60490    0.85306    0.09267    1.000
    C44      C        0.57855    0.22537    0.07025    1.000
    C45      C        0.47545    0.76573    0.46395    1.000
    C46      C        0.48909    0.88605    0.48321    1.000
    C47      C        0.51841    0.87583    0.55310    1.000
    C48      C        0.47050    0.01030    0.43044    1.000
    O1       O        0.64646    0.53390    0.77564    1.000
    O2       O        0.59782    0.57542    0.66145    1.000
    O3       O        0.25219    0.60825    0.49946    1.000
    O4       O        0.31229    0.54043    0.61339    1.000
    O5       O        0.78868    0.42524    0.90617    1.000
    O6       O        0.64472    0.51408    0.00488    1.000
    O7       O        0.46610    0.35354    0.72436    1.000
    O8       O        0.42458    0.40218    0.83855    1.000
    O9       O        0.39175    0.74781    0.00054    1.000
    O10      O        0.45957    0.68771    0.88661    1.000
    O11      O        0.57476    0.21132    0.59383    1.000
    O12      O        0.48592    0.35528    0.49512    1.000
    O13      O        0.35354    0.46610    0.22436    1.000
    O14      O        0.40218    0.42458    0.33855    1.000
    O15      O        0.74781    0.39175    0.50054    1.000
    O16      O        0.68771    0.45957    0.38661    1.000
    O17      O        0.21132    0.57476    0.09383    1.000
    O18      O        0.35528    0.48592    0.99512    1.000
    O19      O        0.53390    0.64646    0.27564    1.000
    O20      O        0.57542    0.59782    0.16145    1.000
    O21      O        0.60825    0.25219    0.99946    1.000
    O22      O        0.54043    0.31229    0.11339    1.000
    O23      O        0.42524    0.78868    0.40617    1.000
    O24      O        0.51408    0.64472    0.50488    1.000
