# CIF file generated by openbabel 3.1.0, see https://openbabel.org
data_I
_chemical_name_common 'image0'
_cell_length_a 6.843
_cell_length_b 10.978
_cell_length_c 12.687
_cell_angle_alpha 90
_cell_angle_beta 90
_cell_angle_gamma 90
_space_group_name_H-M_alt 'P 1'
_space_group_name_Hall 'P 1'
loop_
    _symmetry_equiv_pos_as_xyz
    x,y,z
loop_
    _atom_site_label
    _atom_site_type_symbol
    _atom_site_fract_x
    _atom_site_fract_y
    _atom_site_fract_z
    _atom_site_occupancy
    N1       N        0.98400    0.89020    0.79180    1.000
    N2       N        0.86520    0.91070    0.53250    1.000
    C1       C        0.98650    0.92410    0.70670    1.000
    C2       C        0.99250    0.96410    0.59840    1.000
    C3       C        0.87390    0.94780    0.43280    1.000
    H1       H        0.78100    0.91210    0.37870    1.000
    N3       N        0.01600    0.39020    0.20820    1.000
    N4       N        0.13480    0.41070    0.46750    1.000
    C4       C        0.01350    0.42410    0.29330    1.000
    C5       C        0.00750    0.46410    0.40160    1.000
    C6       C        0.12610    0.44780    0.56720    1.000
    H2       H        0.21900    0.41210    0.62130    1.000
    N5       N        0.01600    0.10980    0.20820    1.000
    N6       N        0.13480    0.08930    0.46750    1.000
    C7       C        0.01350    0.07590    0.29330    1.000
    C8       C        0.00750    0.03590    0.40160    1.000
    C9       C        0.12610    0.05220    0.56720    1.000
    H3       H        0.21900    0.08790    0.62130    1.000
    N7       N        0.98400    0.60980    0.79180    1.000
    N8       N        0.86520    0.58930    0.53250    1.000
    C10      C        0.98650    0.57590    0.70670    1.000
    C11      C        0.99250    0.53590    0.59840    1.000
    C12      C        0.87390    0.55220    0.43280    1.000
    H4       H        0.78100    0.58790    0.37870    1.000
    Ag1      Ag       0.87213    0.25000    0.08328    1.000
    Ag2      Ag       0.12787    0.75000    0.91672    1.000
    N9       N        0.51600    0.10980    0.29180    1.000
    N10      N        0.63480    0.08930    0.03250    1.000
    C13      C        0.51350    0.07590    0.20670    1.000
    C14      C        0.50750    0.03590    0.09840    1.000
    C15      C        0.62610    0.05220    0.93280    1.000
    H5       H        0.71900    0.08790    0.87870    1.000
    N11      N        0.48400    0.60980    0.70820    1.000
    N12      N        0.36520    0.58930    0.96750    1.000
    C16      C        0.48650    0.57590    0.79330    1.000
    C17      C        0.49250    0.53590    0.90160    1.000
    C18      C        0.37390    0.55220    0.06720    1.000
    H6       H        0.28100    0.58790    0.12130    1.000
    N13      N        0.48400    0.89020    0.70820    1.000
    N14      N        0.36520    0.91070    0.96750    1.000
    C19      C        0.48650    0.92410    0.79330    1.000
    C20      C        0.49250    0.96410    0.90160    1.000
    C21      C        0.37390    0.94780    0.06720    1.000
    H7       H        0.28100    0.91210    0.12130    1.000
    N15      N        0.51600    0.39020    0.29180    1.000
    N16      N        0.63480    0.41070    0.03250    1.000
    C22      C        0.51350    0.42410    0.20670    1.000
    C23      C        0.50750    0.46410    0.09840    1.000
    C24      C        0.62610    0.44780    0.93280    1.000
    H8       H        0.71900    0.41210    0.87870    1.000
    Ag3      Ag       0.62787    0.75000    0.58328    1.000
    Ag4      Ag       0.37213    0.25000    0.41672    1.000
