data_functionalizedCrystal
_audit_creation_method	'EQeq! by Chris Wilmer'
_symmetry_space_group_name_H-M	'P1'
_symmetry_Int_Tables_number	1
_symmetry_cell_setting	triclinic
loop_
_symmetry_equiv_pos_as_xyz
  x,y,z
_cell_length_a	7.875
_cell_length_b	13.898
_cell_length_c	13.91
_cell_angle_alpha	107.624
_cell_angle_beta	97.416
_cell_angle_gamma	97.31
loop_
_atom_site_label
_atom_site_type_symbol
_atom_site_fract_x
_atom_site_fract_y
_atom_site_fract_z
_atom_site_charge
Mof_Sr	Sr	0.95328	0.37371	0.87354	1.517
Mof_Sr	Sr	0.39481	0.2966	0.79673	1.251
Mof_Sr	Sr	0.04672	0.62629	0.12646	1.516
Mof_Sr	Sr	0.60519	0.7034	0.20327	1.25
Mof_Zn	Zn	0.0012	0.24082	0.25914	1.212
Mof_Zn	Zn	0.9988	0.75918	0.74086	1.212
Mof_H 	H 	0.72	0.824	0.975	-0.001
Mof_H 	H 	0.3941	0.598	0.9025	0.034
Mof_H 	H 	0.4277	0.2265	0.2581	0.035
Mof_H 	H 	0.28	0.176	0.025	-0.001
Mof_H 	H 	0.2633	0.53	0.6615	0.003
Mof_H 	H 	0.732	0.5549	0.6369	-0.007
Mof_H 	H 	0.3651	0.0243	0.0617	0.086
Mof_H 	H 	0.2695	0.8625	0.946	-0.011
Mof_H 	H 	0.6349	0.9757	0.9383	0.086
Mof_H 	H 	0.7305	0.1375	0.054	-0.011
Mof_H 	H 	0.5723	0.7735	0.7419	0.035
Mof_H 	H 	0.6541	0.2943	0.1932	0.049
Mof_H 	H 	0.7367	0.47	0.3385	0.003
Mof_H 	H 	0.3617	0.5626	0.5224	0.081
Mof_H 	H 	0.268	0.4451	0.3631	-0.007
Mof_H 	H 	0.6383	0.4374	0.4776	0.081
Mof_H 	H 	0.6059	0.402	0.0975	0.034
Mof_H 	H 	0.3459	0.7057	0.8068	0.049
Mof_C 	C 	0.6495	0.6012	0.895	-0.08
Mof_C 	C 	0.879	0.2473	0.4491	0.308
Mof_C 	C 	0.9125	0.9203	0.0957	-0.137
Mof_C 	C 	0.7851	0.6418	0.8561	-0.083
Mof_C 	C 	0.5151	0.3748	0.1235	-0.023
Mof_C 	C 	0.719	0.9863	0.9958	-0.165
Mof_C 	C 	0.4084	0.2697	0.2197	0.018
Mof_C 	C 	0.9726	0.827	0.1111	0.381
Mof_C 	C 	0.2149	0.3582	0.1439	-0.083
Mof_C 	C 	0.281	0.0137	0.0042	-0.165
Mof_C 	C 	0.9749	0.6117	0.3274	0.384
Mof_C 	C 	0.218	0.4866	0.5952	0.052
Mof_C 	C 	0.782	0.5134	0.4048	0.052
Mof_C 	C 	0.4849	0.6252	0.8765	-0.023
Mof_C 	C 	0.0274	0.173	0.8889	0.381
Mof_C 	C 	0.5916	0.7303	0.7803	0.018
Mof_C 	C 	0.72	0.4955	0.487	-0.145
Mof_C 	C 	0.456	0.6897	0.8191	-0.079
Mof_C 	C 	0.8797	0.9491	0.7476	0.282
Mof_C 	C 	0.9705	0.6268	0.8736	0.421
Mof_C 	C 	0.28	0.5045	0.513	-0.145
Mof_C 	C 	0.0251	0.3883	0.6726	0.384
Mof_C 	C 	0.784	0.9063	0.0135	0.07
Mof_C 	C 	0.0295	0.3732	0.1264	0.421
Mof_C 	C 	0.673	0.5264	0.952	0.217
Mof_C 	C 	0.216	0.0937	0.9865	0.07
Mof_C 	C 	0.0252	0.3379	0.479	-0.005
Mof_C 	C 	0.9736	0.0202	0.1619	0.018
Mof_C 	C 	0.1203	0.0509	0.2524	0.282
Mof_C 	C 	0.9748	0.6621	0.521	-0.005
Mof_C 	C 	0.222	0.9174	0.9361	0.099
Mof_C 	C 	0.22	0.4355	0.418	0.096
Mof_C 	C 	0.0264	0.9798	0.8381	0.018
Mof_C 	C 	0.3505	0.3988	0.105	-0.08
Mof_C 	C 	0.327	0.4736	0.048	0.217
Mof_C 	C 	0.544	0.3103	0.1809	-0.079
Mof_C 	C 	0.0875	0.0797	0.9043	-0.137
Mof_C 	C 	0.121	0.7527	0.5509	0.308
Mof_C 	C 	0.778	0.0826	0.0639	0.099
Mof_C 	C 	0.78	0.5645	0.582	0.096
Mof_C 	C 	0.0873	0.4034	0.5784	-0.115
Mof_C 	C 	0.9127	0.5966	0.4216	-0.115
Mof_N 	N 	0.7562	0.7064	0.7988	-0.182
Mof_N 	N 	0.9057	0.0997	0.1455	-0.237
Mof_N 	N 	0.2438	0.2936	0.2012	-0.182
Mof_N 	N 	0.096	0.355	0.4006	-0.232
Mof_N 	N 	0.904	0.645	0.5994	-0.232
Mof_N 	N 	0.0943	0.9003	0.8545	-0.237
Mof_O 	O 	0.871	0.6473	0.2756	-0.524
Mof_O 	O 	0.3383	0.5824	0.0805	-0.481
Mof_O 	O 	0.1877	0.7731	0.4825	-0.278
Mof_O 	O 	0.8692	0.7745	0.1462	-0.527
Mof_O 	O 	0.129	0.3527	0.7244	-0.524
Mof_O 	O 	0.8317	0.2046	0.3548	-0.405
Mof_O 	O 	0.8113	0.0171	0.7263	-0.269
Mof_O 	O 	0.1669	0.1454	0.298	-0.398
Mof_O 	O 	0.1072	0.5811	0.2995	-0.413
Mof_O 	O 	0.1071	0.7998	0.0805	-0.411
Mof_O 	O 	0.999	0.5731	0.9264	-0.534
Mof_O 	O 	0.2963	0.4432	0.9432	-0.401
Mof_O 	O 	0.1683	0.7954	0.6452	-0.405
Mof_O 	O 	0.001	0.4269	0.0736	-0.534
Mof_O 	O 	0.7037	0.5568	0.0568	-0.401
Mof_O 	O 	0.8929	0.2002	0.9195	-0.411
Mof_O 	O 	0.8928	0.4189	0.7005	-0.413
Mof_O 	O 	0.9363	0.3364	0.1776	-0.47
Mof_O 	O 	0.0637	0.6636	0.8224	-0.47
Mof_O 	O 	0.1887	0.9829	0.2737	-0.269
Mof_O 	O 	0.8331	0.8546	0.702	-0.398
Mof_O 	O 	0.1308	0.2255	0.8538	-0.527
Mof_O 	O 	0.6617	0.4176	0.9195	-0.481
Mof_O 	O 	0.8123	0.2269	0.5175	-0.278
_end
