# CIF file generated by openbabel 3.1.0, see https://openbabel.org
data_I
_chemical_name_common 'image0'
_cell_length_a 21.7672
_cell_length_b 19.633
_cell_length_c 29.4028
_cell_angle_alpha 90
_cell_angle_beta 99.478
_cell_angle_gamma 90
_space_group_name_H-M_alt 'P 1'
_space_group_name_Hall 'P 1'
loop_
    _symmetry_equiv_pos_as_xyz
    x,y,z
loop_
    _atom_site_label
    _atom_site_type_symbol
    _atom_site_fract_x
    _atom_site_fract_y
    _atom_site_fract_z
    _atom_site_occupancy
    Zn1      Zn       0.69148    0.25752    0.51808    1.000
    Zn2      Zn       0.80750    0.19318    0.49533    1.000
    Zn3      Zn       0.52373    0.47481    0.20486    1.000
    O1       O        0.68018    0.15426    0.50813    1.000
    O2       O        0.76353    0.10140    0.48887    1.000
    O3       O        0.66160    0.27171    0.44921    1.000
    O4       O        0.75053    0.22377    0.43609    1.000
    O5       O        0.74399    0.23650    0.58012    1.000
    O6       O        0.82589    0.17717    0.56378    1.000
    O7       O        0.75934    0.84609    0.48393    1.000
    O8       O        0.67095    0.79382    0.49316    1.000
    O9       O        0.53516    0.39852    0.31810    1.000
    O10      O        0.57329    0.40721    0.25203    1.000
    O11      O        0.92975    0.05109    0.75903    1.000
    O12      O        0.95057    0.04069    0.68712    1.000
    N1       N        0.51286    0.97184    0.49974    1.000
    N2       N        0.75440    0.23989    0.27015    1.000
    N3       N        0.77134    0.23037    0.75644    1.000
    C1       C        0.70864    0.10266    0.49756    1.000
    C2       C        0.67395    0.03624    0.49565    1.000
    C3       C        0.70371    0.97420    0.49100    1.000
    H1       H        0.74550    0.97360    0.48780    1.000
    C4       C        0.67124    0.91342    0.49115    1.000
    C5       C        0.60821    0.91460    0.49467    1.000
    H2       H        0.58630    0.87400    0.49500    1.000
    C6       C        0.57807    0.97656    0.49765    1.000
    C7       C        0.61104    0.03679    0.49888    1.000
    H3       H        0.59100    0.07800    0.50190    1.000
    C8       C        0.69953    0.25445    0.42357    1.000
    C9       C        0.68453    0.27262    0.37339    1.000
    C10      C        0.72310    0.24890    0.34334    1.000
    H4       H        0.75640    0.22040    0.35430    1.000
    C11      C        0.71221    0.26740    0.29740    1.000
    C12      C        0.66301    0.31070    0.28070    1.000
    H5       H        0.65620    0.32360    0.24990    1.000
    C13      C        0.62443    0.33436    0.31005    1.000
    C14      C        0.63481    0.31455    0.35623    1.000
    H6       H        0.60810    0.32960    0.37570    1.000
    C15      C        0.57311    0.38404    0.29166    1.000
    C16      C        0.79239    0.20134    0.59108    1.000
    C17      C        0.81168    0.18525    0.64145    1.000
    C18      C        0.78142    0.21660    0.67370    1.000
    H7       H        0.75000    0.24820    0.66440    1.000
    C19      C        0.79853    0.20030    0.72023    1.000
    C20      C        0.84391    0.15190    0.73400    1.000
    H8       H        0.85410    0.14030    0.76500    1.000
    C21      C        0.87440    0.12024    0.70161    1.000
    C22      C        0.85872    0.13812    0.65553    1.000
    H9       H        0.87990    0.11840    0.63380    1.000
    C23      C        0.92229    0.06649    0.71689    1.000
    C24      C        0.70326    0.84581    0.48899    1.000
    Zn4      Zn       0.19148    0.75752    0.01808    1.000
    Zn5      Zn       0.30750    0.69318    0.99533    1.000
    Zn6      Zn       0.02373    0.97481    0.70486    1.000
    O13      O        0.18018    0.65426    0.00813    1.000
    O14      O        0.26353    0.60140    0.98887    1.000
    O15      O        0.16160    0.77171    0.94921    1.000
    O16      O        0.25053    0.72377    0.93609    1.000
    O17      O        0.24399    0.73650    0.08012    1.000
    O18      O        0.32589    0.67717    0.06378    1.000
    O19      O        0.25934    0.34609    0.98393    1.000
    O20      O        0.17095    0.29382    0.99316    1.000
    O21      O        0.03516    0.89852    0.81810    1.000
    O22      O        0.07329    0.90721    0.75203    1.000
    O23      O        0.42975    0.55109    0.25903    1.000
    O24      O        0.45057    0.54069    0.18712    1.000
    N4       N        0.01286    0.47184    0.99974    1.000
    N5       N        0.25440    0.73989    0.77015    1.000
    N6       N        0.27134    0.73037    0.25644    1.000
    C25      C        0.20864    0.60266    0.99756    1.000
    C26      C        0.17395    0.53624    0.99565    1.000
    C27      C        0.20371    0.47420    0.99100    1.000
    H10      H        0.24550    0.47360    0.98780    1.000
    C28      C        0.17124    0.41342    0.99115    1.000
    C29      C        0.10821    0.41460    0.99467    1.000
    H11      H        0.08630    0.37400    0.99500    1.000
    C30      C        0.07807    0.47656    0.99765    1.000
    C31      C        0.11104    0.53679    0.99888    1.000
    H12      H        0.09100    0.57800    0.00190    1.000
    C32      C        0.19953    0.75445    0.92357    1.000
    C33      C        0.18453    0.77262    0.87339    1.000
    C34      C        0.22310    0.74890    0.84334    1.000
    H13      H        0.25640    0.72040    0.85430    1.000
    C35      C        0.21221    0.76740    0.79740    1.000
    C36      C        0.16301    0.81070    0.78070    1.000
    H14      H        0.15620    0.82360    0.74990    1.000
    C37      C        0.12443    0.83436    0.81005    1.000
    C38      C        0.13481    0.81455    0.85623    1.000
    H15      H        0.10810    0.82960    0.87570    1.000
    C39      C        0.07311    0.88404    0.79166    1.000
    C40      C        0.29239    0.70134    0.09108    1.000
    C41      C        0.31168    0.68525    0.14145    1.000
    C42      C        0.28142    0.71660    0.17370    1.000
    H16      H        0.25000    0.74820    0.16440    1.000
    C43      C        0.29853    0.70030    0.22023    1.000
    C44      C        0.34391    0.65190    0.23400    1.000
    H17      H        0.35410    0.64030    0.26500    1.000
    C45      C        0.37440    0.62024    0.20161    1.000
    C46      C        0.35872    0.63812    0.15553    1.000
    H18      H        0.37990    0.61840    0.13380    1.000
    C47      C        0.42229    0.56649    0.21689    1.000
    C48      C        0.20326    0.34581    0.98899    1.000
    Zn7      Zn       0.30852    0.25752    0.98192    1.000
    Zn8      Zn       0.19250    0.19318    0.00467    1.000
    Zn9      Zn       0.47627    0.47481    0.29514    1.000
    O25      O        0.31982    0.15426    0.99187    1.000
    O26      O        0.23647    0.10140    0.01113    1.000
    O27      O        0.33840    0.27171    0.05079    1.000
    O28      O        0.24947    0.22377    0.06391    1.000
    O29      O        0.25601    0.23650    0.91988    1.000
    O30      O        0.17411    0.17717    0.93622    1.000
    O31      O        0.24066    0.84609    0.01607    1.000
    O32      O        0.32905    0.79382    0.00684    1.000
    O33      O        0.46484    0.39852    0.18190    1.000
    O34      O        0.42671    0.40721    0.24797    1.000
    O35      O        0.07025    0.05109    0.74097    1.000
    O36      O        0.04943    0.04069    0.81288    1.000
    N7       N        0.48714    0.97184    0.00026    1.000
    N8       N        0.24560    0.23989    0.22985    1.000
    N9       N        0.22866    0.23037    0.74356    1.000
    C49      C        0.29136    0.10266    0.00244    1.000
    C50      C        0.32605    0.03624    0.00435    1.000
    C51      C        0.29629    0.97420    0.00900    1.000
    H19      H        0.25450    0.97360    0.01220    1.000
    C52      C        0.32876    0.91342    0.00885    1.000
    C53      C        0.39179    0.91460    0.00533    1.000
    H20      H        0.41370    0.87400    0.00500    1.000
    C54      C        0.42193    0.97656    0.00235    1.000
    C55      C        0.38896    0.03679    0.00112    1.000
    H21      H        0.40900    0.07800    0.99810    1.000
    C56      C        0.30047    0.25445    0.07643    1.000
    C57      C        0.31547    0.27262    0.12661    1.000
    C58      C        0.27690    0.24890    0.15666    1.000
    H22      H        0.24360    0.22040    0.14570    1.000
    C59      C        0.28779    0.26740    0.20260    1.000
    C60      C        0.33699    0.31070    0.21930    1.000
    H23      H        0.34380    0.32360    0.25010    1.000
    C61      C        0.37557    0.33436    0.18995    1.000
    C62      C        0.36519    0.31455    0.14377    1.000
    H24      H        0.39190    0.32960    0.12430    1.000
    C63      C        0.42689    0.38404    0.20834    1.000
    C64      C        0.20761    0.20134    0.90892    1.000
    C65      C        0.18832    0.18525    0.85855    1.000
    C66      C        0.21858    0.21660    0.82630    1.000
    H25      H        0.25000    0.24820    0.83560    1.000
    C67      C        0.20147    0.20030    0.77977    1.000
    C68      C        0.15609    0.15190    0.76600    1.000
    H26      H        0.14590    0.14030    0.73500    1.000
    C69      C        0.12560    0.12024    0.79839    1.000
    C70      C        0.14128    0.13812    0.84447    1.000
    H27      H        0.12010    0.11840    0.86620    1.000
    C71      C        0.07771    0.06649    0.78311    1.000
    C72      C        0.29674    0.84581    0.01101    1.000
    Zn10     Zn       0.80852    0.75752    0.48192    1.000
    Zn11     Zn       0.69250    0.69318    0.50467    1.000
    Zn12     Zn       0.97627    0.97481    0.79514    1.000
    O37      O        0.81982    0.65426    0.49187    1.000
    O38      O        0.73647    0.60140    0.51113    1.000
    O39      O        0.83840    0.77171    0.55079    1.000
    O40      O        0.74947    0.72377    0.56391    1.000
    O41      O        0.75601    0.73650    0.41988    1.000
    O42      O        0.67411    0.67717    0.43622    1.000
    O43      O        0.74066    0.34609    0.51607    1.000
    O44      O        0.82905    0.29382    0.50684    1.000
    O45      O        0.96484    0.89852    0.68190    1.000
    O46      O        0.92671    0.90721    0.74797    1.000
    O47      O        0.57025    0.55109    0.24097    1.000
    O48      O        0.54943    0.54069    0.31288    1.000
    N10      N        0.98714    0.47184    0.50026    1.000
    N11      N        0.74560    0.73989    0.72985    1.000
    N12      N        0.72866    0.73037    0.24356    1.000
    C73      C        0.79136    0.60266    0.50244    1.000
    C74      C        0.82605    0.53624    0.50435    1.000
    C75      C        0.79629    0.47420    0.50900    1.000
    H28      H        0.75450    0.47360    0.51220    1.000
    C76      C        0.82876    0.41342    0.50885    1.000
    C77      C        0.89179    0.41460    0.50533    1.000
    H29      H        0.91370    0.37400    0.50500    1.000
    C78      C        0.92193    0.47656    0.50235    1.000
    C79      C        0.88896    0.53679    0.50112    1.000
    H30      H        0.90900    0.57800    0.49810    1.000
    C80      C        0.80047    0.75445    0.57643    1.000
    C81      C        0.81547    0.77262    0.62661    1.000
    C82      C        0.77690    0.74890    0.65666    1.000
    H31      H        0.74360    0.72040    0.64570    1.000
    C83      C        0.78779    0.76740    0.70260    1.000
    C84      C        0.83699    0.81070    0.71930    1.000
    H32      H        0.84380    0.82360    0.75010    1.000
    C85      C        0.87557    0.83436    0.68995    1.000
    C86      C        0.86519    0.81455    0.64377    1.000
    H33      H        0.89190    0.82960    0.62430    1.000
    C87      C        0.92689    0.88404    0.70834    1.000
    C88      C        0.70761    0.70134    0.40892    1.000
    C89      C        0.68832    0.68525    0.35855    1.000
    C90      C        0.71858    0.71660    0.32630    1.000
    H34      H        0.75000    0.74820    0.33560    1.000
    C91      C        0.70147    0.70030    0.27977    1.000
    C92      C        0.65609    0.65190    0.26600    1.000
    H35      H        0.64590    0.64030    0.23500    1.000
    C93      C        0.62560    0.62024    0.29839    1.000
    C94      C        0.64128    0.63812    0.34447    1.000
    H36      H        0.62010    0.61840    0.36620    1.000
    C95      C        0.57771    0.56649    0.28311    1.000
    C96      C        0.79674    0.34581    0.51101    1.000
    Zn13     Zn       0.30852    0.74248    0.48192    1.000
    Zn14     Zn       0.19250    0.80682    0.50467    1.000
    Zn15     Zn       0.47627    0.52519    0.79514    1.000
    O49      O        0.31982    0.84574    0.49187    1.000
    O50      O        0.23647    0.89860    0.51113    1.000
    O51      O        0.33840    0.72829    0.55079    1.000
    O52      O        0.24947    0.77623    0.56391    1.000
    O53      O        0.25601    0.76350    0.41988    1.000
    O54      O        0.17411    0.82283    0.43622    1.000
    O55      O        0.24066    0.15391    0.51607    1.000
    O56      O        0.32905    0.20618    0.50684    1.000
    O57      O        0.46484    0.60148    0.68190    1.000
    O58      O        0.42671    0.59279    0.74797    1.000
    O59      O        0.07025    0.94891    0.24097    1.000
    O60      O        0.04943    0.95931    0.31288    1.000
    N13      N        0.48714    0.02816    0.50026    1.000
    N14      N        0.24560    0.76011    0.72985    1.000
    N15      N        0.22866    0.76963    0.24356    1.000
    C97      C        0.29136    0.89734    0.50244    1.000
    C98      C        0.32605    0.96376    0.50435    1.000
    C99      C        0.29629    0.02580    0.50900    1.000
    H37      H        0.25450    0.02640    0.51220    1.000
    C100     C        0.32876    0.08658    0.50885    1.000
    C101     C        0.39179    0.08540    0.50533    1.000
    H38      H        0.41370    0.12600    0.50500    1.000
    C102     C        0.42193    0.02344    0.50235    1.000
    C103     C        0.38896    0.96321    0.50112    1.000
    H39      H        0.40900    0.92200    0.49810    1.000
    C104     C        0.30047    0.74555    0.57643    1.000
    C105     C        0.31547    0.72738    0.62661    1.000
    C106     C        0.27690    0.75110    0.65666    1.000
    H40      H        0.24360    0.77960    0.64570    1.000
    C107     C        0.28779    0.73260    0.70260    1.000
    C108     C        0.33699    0.68930    0.71930    1.000
    H41      H        0.34380    0.67640    0.75010    1.000
    C109     C        0.37557    0.66564    0.68995    1.000
    C110     C        0.36519    0.68545    0.64377    1.000
    H42      H        0.39190    0.67040    0.62430    1.000
    C111     C        0.42689    0.61596    0.70834    1.000
    C112     C        0.20761    0.79866    0.40892    1.000
    C113     C        0.18832    0.81475    0.35855    1.000
    C114     C        0.21858    0.78340    0.32630    1.000
    H43      H        0.25000    0.75180    0.33560    1.000
    C115     C        0.20147    0.79970    0.27977    1.000
    C116     C        0.15609    0.84810    0.26600    1.000
    H44      H        0.14590    0.85970    0.23500    1.000
    C117     C        0.12560    0.87976    0.29839    1.000
    C118     C        0.14128    0.86188    0.34447    1.000
    H45      H        0.12010    0.88160    0.36620    1.000
    C119     C        0.07771    0.93351    0.28311    1.000
    C120     C        0.29674    0.15419    0.51101    1.000
    Zn16     Zn       0.80852    0.24248    0.98192    1.000
    Zn17     Zn       0.69250    0.30682    0.00467    1.000
    Zn18     Zn       0.97627    0.02519    0.29514    1.000
    O61      O        0.81982    0.34574    0.99187    1.000
    O62      O        0.73647    0.39860    0.01113    1.000
    O63      O        0.83840    0.22829    0.05079    1.000
    O64      O        0.74947    0.27623    0.06391    1.000
    O65      O        0.75601    0.26350    0.91988    1.000
    O66      O        0.67411    0.32283    0.93622    1.000
    O67      O        0.74066    0.65391    0.01607    1.000
    O68      O        0.82905    0.70618    0.00684    1.000
    O69      O        0.96484    0.10148    0.18190    1.000
    O70      O        0.92671    0.09279    0.24797    1.000
    O71      O        0.57025    0.44891    0.74097    1.000
    O72      O        0.54943    0.45931    0.81288    1.000
    N16      N        0.98714    0.52816    0.00026    1.000
    N17      N        0.74560    0.26011    0.22985    1.000
    N18      N        0.72866    0.26963    0.74356    1.000
    C121     C        0.79136    0.39734    0.00244    1.000
    C122     C        0.82605    0.46376    0.00435    1.000
    C123     C        0.79629    0.52580    0.00900    1.000
    H46      H        0.75450    0.52640    0.01220    1.000
    C124     C        0.82876    0.58658    0.00885    1.000
    C125     C        0.89179    0.58540    0.00533    1.000
    H47      H        0.91370    0.62600    0.00500    1.000
    C126     C        0.92193    0.52344    0.00235    1.000
    C127     C        0.88896    0.46321    0.00112    1.000
    H48      H        0.90900    0.42200    0.99810    1.000
    C128     C        0.80047    0.24555    0.07643    1.000
    C129     C        0.81547    0.22738    0.12661    1.000
    C130     C        0.77690    0.25110    0.15666    1.000
    H49      H        0.74360    0.27960    0.14570    1.000
    C131     C        0.78779    0.23260    0.20260    1.000
    C132     C        0.83699    0.18930    0.21930    1.000
    H50      H        0.84380    0.17640    0.25010    1.000
    C133     C        0.87557    0.16564    0.18995    1.000
    C134     C        0.86519    0.18545    0.14377    1.000
    H51      H        0.89190    0.17040    0.12430    1.000
    C135     C        0.92689    0.11596    0.20834    1.000
    C136     C        0.70761    0.29866    0.90892    1.000
    C137     C        0.68832    0.31475    0.85855    1.000
    C138     C        0.71858    0.28340    0.82630    1.000
    H52      H        0.75000    0.25180    0.83560    1.000
    C139     C        0.70147    0.29970    0.77977    1.000
    C140     C        0.65609    0.34810    0.76600    1.000
    H53      H        0.64590    0.35970    0.73500    1.000
    C141     C        0.62560    0.37976    0.79839    1.000
    C142     C        0.64128    0.36188    0.84447    1.000
    H54      H        0.62010    0.38160    0.86620    1.000
    C143     C        0.57771    0.43351    0.78311    1.000
    C144     C        0.79674    0.65419    0.01101    1.000
    Zn19     Zn       0.69148    0.74248    0.01808    1.000
    Zn20     Zn       0.80750    0.80682    0.99533    1.000
    Zn21     Zn       0.52373    0.52519    0.70486    1.000
    O73      O        0.68018    0.84574    0.00813    1.000
    O74      O        0.76353    0.89860    0.98887    1.000
    O75      O        0.66160    0.72829    0.94921    1.000
    O76      O        0.75053    0.77623    0.93609    1.000
    O77      O        0.74399    0.76350    0.08012    1.000
    O78      O        0.82589    0.82283    0.06378    1.000
    O79      O        0.75934    0.15391    0.98393    1.000
    O80      O        0.67095    0.20618    0.99316    1.000
    O81      O        0.53516    0.60148    0.81810    1.000
    O82      O        0.57329    0.59279    0.75203    1.000
    O83      O        0.92975    0.94891    0.25903    1.000
    O84      O        0.95057    0.95931    0.18712    1.000
    N19      N        0.51286    0.02816    0.99974    1.000
    N20      N        0.75440    0.76011    0.77015    1.000
    N21      N        0.77134    0.76963    0.25644    1.000
    C145     C        0.70864    0.89734    0.99756    1.000
    C146     C        0.67395    0.96376    0.99565    1.000
    C147     C        0.70371    0.02580    0.99100    1.000
    H55      H        0.74550    0.02640    0.98780    1.000
    C148     C        0.67124    0.08658    0.99115    1.000
    C149     C        0.60821    0.08540    0.99467    1.000
    H56      H        0.58630    0.12600    0.99500    1.000
    C150     C        0.57807    0.02344    0.99765    1.000
    C151     C        0.61104    0.96321    0.99888    1.000
    H57      H        0.59100    0.92200    0.00190    1.000
    C152     C        0.69953    0.74555    0.92357    1.000
    C153     C        0.68453    0.72738    0.87339    1.000
    C154     C        0.72310    0.75110    0.84334    1.000
    H58      H        0.75640    0.77960    0.85430    1.000
    C155     C        0.71221    0.73260    0.79740    1.000
    C156     C        0.66301    0.68930    0.78070    1.000
    H59      H        0.65620    0.67640    0.74990    1.000
    C157     C        0.62443    0.66564    0.81005    1.000
    C158     C        0.63481    0.68545    0.85623    1.000
    H60      H        0.60810    0.67040    0.87570    1.000
    C159     C        0.57311    0.61596    0.79166    1.000
    C160     C        0.79239    0.79866    0.09108    1.000
    C161     C        0.81168    0.81475    0.14145    1.000
    C162     C        0.78142    0.78340    0.17370    1.000
    H61      H        0.75000    0.75180    0.16440    1.000
    C163     C        0.79853    0.79970    0.22023    1.000
    C164     C        0.84391    0.84810    0.23400    1.000
    H62      H        0.85410    0.85970    0.26500    1.000
    C165     C        0.87440    0.87976    0.20161    1.000
    C166     C        0.85872    0.86188    0.15553    1.000
    H63      H        0.87990    0.88160    0.13380    1.000
    C167     C        0.92229    0.93351    0.21689    1.000
    C168     C        0.70326    0.15419    0.98899    1.000
    Zn22     Zn       0.19148    0.24248    0.51808    1.000
    Zn23     Zn       0.30750    0.30682    0.49533    1.000
    Zn24     Zn       0.02373    0.02519    0.20486    1.000
    O85      O        0.18018    0.34574    0.50813    1.000
    O86      O        0.26353    0.39860    0.48887    1.000
    O87      O        0.16160    0.22829    0.44921    1.000
    O88      O        0.25053    0.27623    0.43609    1.000
    O89      O        0.24399    0.26350    0.58012    1.000
    O90      O        0.32589    0.32283    0.56378    1.000
    O91      O        0.25934    0.65391    0.48393    1.000
    O92      O        0.17095    0.70618    0.49316    1.000
    O93      O        0.03516    0.10148    0.31810    1.000
    O94      O        0.07329    0.09279    0.25203    1.000
    O95      O        0.42975    0.44891    0.75903    1.000
    O96      O        0.45057    0.45931    0.68712    1.000
    N22      N        0.01286    0.52816    0.49974    1.000
    N23      N        0.25440    0.26011    0.27015    1.000
    N24      N        0.27134    0.26963    0.75644    1.000
    C169     C        0.20864    0.39734    0.49756    1.000
    C170     C        0.17395    0.46376    0.49565    1.000
    C171     C        0.20371    0.52580    0.49100    1.000
    H64      H        0.24550    0.52640    0.48780    1.000
    C172     C        0.17124    0.58658    0.49115    1.000
    C173     C        0.10821    0.58540    0.49467    1.000
    H65      H        0.08630    0.62600    0.49500    1.000
    C174     C        0.07807    0.52344    0.49765    1.000
    C175     C        0.11104    0.46321    0.49888    1.000
    H66      H        0.09100    0.42200    0.50190    1.000
    C176     C        0.19953    0.24555    0.42357    1.000
    C177     C        0.18453    0.22738    0.37339    1.000
    C178     C        0.22310    0.25110    0.34334    1.000
    H67      H        0.25640    0.27960    0.35430    1.000
    C179     C        0.21221    0.23260    0.29740    1.000
    C180     C        0.16301    0.18930    0.28070    1.000
    H68      H        0.15620    0.17640    0.24990    1.000
    C181     C        0.12443    0.16564    0.31005    1.000
    C182     C        0.13481    0.18545    0.35623    1.000
    H69      H        0.10810    0.17040    0.37570    1.000
    C183     C        0.07311    0.11596    0.29166    1.000
    C184     C        0.29239    0.29866    0.59108    1.000
    C185     C        0.31168    0.31475    0.64145    1.000
    C186     C        0.28142    0.28340    0.67370    1.000
    H70      H        0.25000    0.25180    0.66440    1.000
    C187     C        0.29853    0.29970    0.72023    1.000
    C188     C        0.34391    0.34810    0.73400    1.000
    H71      H        0.35410    0.35970    0.76500    1.000
    C189     C        0.37440    0.37976    0.70161    1.000
    C190     C        0.35872    0.36188    0.65553    1.000
    H72      H        0.37990    0.38160    0.63380    1.000
    C191     C        0.42229    0.43351    0.71689    1.000
    C192     C        0.20326    0.65419    0.48899    1.000
