data_functionalizedCrystal
_audit_creation_method	'EQeq! by Chris Wilmer'
_symmetry_space_group_name_H-M	'P1'
_symmetry_Int_Tables_number	1
_symmetry_cell_setting	triclinic
loop_
_symmetry_equiv_pos_as_xyz
  x,y,z
_cell_length_a	22.8378
_cell_length_b	24.8834
_cell_length_c	24.3802
_cell_angle_alpha	105.497
_cell_angle_beta	90
_cell_angle_gamma	90
loop_
_atom_site_label
_atom_site_type_symbol
_atom_site_fract_x
_atom_site_fract_y
_atom_site_fract_z
_atom_site_charge
Mof_Mn	Mn	0.70278	0.91608	0.05965	0.981
Mof_Mn	Mn	0.31544	0.24232	0.50284	0.971
Mof_Mn	Mn	0.68456	0.75768	0.49716	0.975
Mof_Mn	Mn	0.05789	0.5	0.75	0.969
Mof_Mn	Mn	0.70298	0.57006	0.94591	0.969
Mof_Mn	Mn	0.29702	0.57006	0.44591	0.97
Mof_Mn	Mn	0.06284	8.51515e-18	0.25	0.89
Mof_Mn	Mn	0.29722	0.08392	0.94035	0.962
Mof_Mn	Mn	0.29722	0.91608	0.55965	0.979
Mof_Mn	Mn	0.31544	0.75768	0.99716	0.973
Mof_Mn	Mn	0.70278	0.08392	0.44035	0.962
Mof_Mn	Mn	0.29702	0.42994	0.05409	0.969
Mof_Mn	Mn	0.68456	0.24232	0.00284	0.972
Mof_Mn	Mn	0.93716	0	0.75	0.889
Mof_Mn	Mn	0.70298	0.42994	0.55409	0.968
Mof_Mn	Mn	0.94211	0.5	0.25	0.968
Mof_Cr	Cr	0.78806	0.95914	0.57158	2.238
Mof_Cr	Cr	0.44812	0.25627	0.00019	2.126
Mof_Cr	Cr	0.20554	0.44026	0.57064	2.139
Mof_Cr	Cr	0.17892	0.5	0.25	2.142
Mof_Cr	Cr	0.21194	0.95914	0.07158	2.238
Mof_Cr	Cr	0.44812	0.74373	0.49981	2.125
Mof_Cr	Cr	0.20554	0.55974	0.92936	2.139
Mof_Cr	Cr	0.79446	0.44026	0.07064	2.139
Mof_Cr	Cr	0.17299	0	0.75	1.955
Mof_Cr	Cr	0.79446	0.55974	0.42936	2.139
Mof_Cr	Cr	0.82701	8.51515e-18	0.25	1.954
Mof_Cr	Cr	0.78806	0.04086	0.92842	2.01
Mof_Cr	Cr	0.82108	0.5	0.75	2.142
Mof_Cr	Cr	0.55188	0.74373	0.99981	2.122
Mof_Cr	Cr	0.55188	0.25627	0.50019	2.122
Mof_Cr	Cr	0.21194	0.04086	0.42842	2.009
Mof_C 	C 	0.7514	0.1414	0.9946	0.273
Mof_C 	C 	0.603	0.8425	0.053	0.275
Mof_C 	C 	0.2685	0.1389	0.4326	0.266
Mof_C 	C 	0.7377	0.6556	0.4287	0.263
Mof_C 	C 	0.5612	0.2348	0.0254	0.272
Mof_C 	C 	0.2799	0.5018	0.9806	0.264
Mof_C 	C 	0.6022	0.6428	0.9498	0.254
Mof_C 	C 	0.8508	0.4988	0.1664	0.27
Mof_C 	C 	0.638	0.1819	0.5015	0.249
Mof_C 	C 	0.9364	0.479	0.7683	0.268
Mof_C 	C 	0.7786	0.9293	0.156	0.243
Mof_C 	C 	0.2407	0.338	0.5087	0.292
Mof_C 	C 	0.2508	0.013	0.8373	0.208
Mof_C 	C 	0.9418	0.0198	0.2302	0.215
Mof_C 	C 	0.8466	0.009	0.6702	0.22
Mof_C 	C 	0.9418	0.9802	0.2698	0.319
Mof_C 	C 	0.2486	0.8586	0.0054	0.28
Mof_C 	C 	0.4351	0.7349	0.0223	0.279
Mof_C 	C 	0.2554	0.4946	0.1627	0.282
Mof_C 	C 	0.7514	0.8586	0.5054	0.277
Mof_C 	C 	0.3978	0.6428	0.4498	0.255
Mof_C 	C 	0.603	0.1575	0.447	0.274
Mof_C 	C 	0.2202	0.0332	0.0078	0.281
Mof_C 	C 	0.365	0.3334	0.9939	0.276
Mof_C 	C 	0.7834	0.487	0.4944	0.272
Mof_C 	C 	0.362	0.1819	0.0015	0.25
Mof_C 	C 	0.2166	0.487	0.9944	0.272
Mof_C 	C 	0.2508	0.987	0.6627	0.354
Mof_C 	C 	0.7201	0.4982	0.0194	0.266
Mof_C 	C 	0.2685	0.8611	0.0674	0.269
Mof_C 	C 	0.111	0.4465	0.6413	0.272
Mof_C 	C 	0.4351	0.2651	0.4777	0.276
Mof_C 	C 	0.5649	0.7349	0.5223	0.278
Mof_C 	C 	0.2166	0.513	0.5056	0.272
Mof_C 	C 	0.7315	0.8611	0.5674	0.269
Mof_C 	C 	0.5612	0.7652	0.4746	0.272
Mof_C 	C 	0.7593	0.662	0.4913	0.292
Mof_C 	C 	0.889	0.5535	0.3587	0.272
Mof_C 	C 	0.0636	0.479	0.2683	0.268
Mof_C 	C 	0.2214	0.9293	0.656	0.243
Mof_C 	C 	0.638	0.8181	0.9985	0.252
Mof_C 	C 	0.362	0.8181	0.4985	0.253
Mof_C 	C 	0.3978	0.3572	0.0502	0.255
Mof_C 	C 	0.7492	0.987	0.1627	0.354
Mof_C 	C 	0.2623	0.6556	0.9287	0.263
Mof_C 	C 	0.0582	0.9802	0.7698	0.318
Mof_C 	C 	0.7167	0.0196	0.5221	0.193
Mof_C 	C 	0.2554	0.5054	0.3373	0.282
Mof_C 	C 	0.7593	0.338	0.0087	0.294
Mof_C 	C 	0.2407	0.662	0.9913	0.291
Mof_C 	C 	0.365	0.6666	0.5061	0.276
Mof_C 	C 	0.4388	0.7652	0.9746	0.271
Mof_C 	C 	0.7798	0.0332	0.5078	0.28
Mof_C 	C 	0.397	0.8425	0.553	0.274
Mof_C 	C 	0.7834	0.513	0.0056	0.273
Mof_C 	C 	0.2833	0.0196	0.0221	0.195
Mof_C 	C 	0.7798	0.9668	0.9922	0.243
Mof_C 	C 	0.635	0.6666	0.0061	0.277
Mof_C 	C 	0.7751	0.4363	0.6508	0.265
Mof_C 	C 	0.0582	0.0198	0.7302	0.216
Mof_C 	C 	0.1174	0.9567	0.1394	0.323
Mof_C 	C 	0.2833	0.9804	0.4779	0.34
Mof_C 	C 	0.7446	0.5054	0.8373	0.282
Mof_C 	C 	0.6022	0.3572	0.5502	0.254
Mof_C 	C 	0.111	0.5535	0.8587	0.272
Mof_C 	C 	0.8466	0.991	0.8298	0.32
Mof_C 	C 	0.2486	0.1414	0.4946	0.275
Mof_C 	C 	0.1492	0.5012	0.8336	0.27
Mof_C 	C 	0.7201	0.5018	0.4806	0.265
Mof_C 	C 	0.5649	0.2651	0.9777	0.275
Mof_C 	C 	0.2214	0.0707	0.844	0.273
Mof_C 	C 	0.1534	0.991	0.3298	0.321
Mof_C 	C 	0.4388	0.2348	0.5254	0.271
Mof_C 	C 	0.7786	0.0707	0.344	0.273
Mof_C 	C 	0.2202	0.9668	0.4922	0.244
Mof_C 	C 	0.889	0.4465	0.1413	0.272
Mof_C 	C 	0.8826	0.9567	0.6394	0.324
Mof_C 	C 	0.2249	0.5637	0.3492	0.265
Mof_C 	C 	0.7751	0.5637	0.8492	0.265
Mof_C 	C 	0.397	0.1575	0.947	0.273
Mof_C 	C 	0.7377	0.3444	0.0713	0.263
Mof_C 	C 	0.635	0.3334	0.4939	0.276
Mof_C 	C 	0.7446	0.4946	0.6627	0.282
Mof_C 	C 	0.7167	0.9804	0.9779	0.337
Mof_C 	C 	0.7315	0.1389	0.9326	0.266
Mof_C 	C 	0.0636	0.521	0.2317	0.268
Mof_C 	C 	0.7492	0.013	0.3373	0.207
Mof_C 	C 	0.2623	0.3444	0.5713	0.263
Mof_C 	C 	0.8508	0.5012	0.3336	0.27
Mof_C 	C 	0.2249	0.4363	0.1508	0.265
Mof_C 	C 	0.1492	0.4988	0.6664	0.27
Mof_C 	C 	0.1174	0.0433	0.3606	0.218
Mof_C 	C 	0.8826	0.0433	0.8606	0.219
Mof_C 	C 	0.2799	0.4982	0.5194	0.265
Mof_C 	C 	0.9364	0.521	0.7317	0.268
Mof_C 	C 	0.1534	0.009	0.1702	0.221
Mof_O 	O 	0.2971	0.1772	0.4246	-0.294
Mof_O 	O 	0.3882	0.7096	0.5388	-0.492
Mof_O 	O 	0.8037	0.5014	0.1405	-0.501
Mof_O 	O 	0.8658	0.0401	0.7148	-0.286
Mof_O 	O 	0.1342	0.9599	0.2852	-0.272
Mof_O 	O 	0.1801	0.9895	0.4699	-0.44
Mof_O 	O 	0.322	0.5171	0.4995	-0.293
Mof_O 	O 	0.252	0.9053	0.1049	-0.499
Mof_O 	O 	0.6749	0.9629	0.0011	-0.291
Mof_O 	O 	0.678	0.4829	0.5005	-0.293
Mof_O 	O 	0.3158	0.1586	0.0088	-0.287
Mof_O 	O 	0.2398	0.1112	0.8816	-0.292
Mof_O 	O 	0.2829	0.466	0.5527	-0.495
Mof_O 	O 	0.7112	0.9911	0.1281	-0.302
Mof_O 	O 	0.8193	0.9284	0.1908	-0.439
Mof_O 	O 	0.6186	0.402	0.5824	-0.281
Mof_O 	O 	0.21	0.3772	0.5023	-0.513
Mof_O 	O 	0.1807	0.9284	0.6908	-0.44
Mof_O 	O 	0.9837	0.5382	0.7194	-0.295
Mof_O 	O 	0.1081	0.9694	0.78623	-0.454
Mof_O 	O 	0.1346	0.0682	0.40972	-0.476
Mof_O 	O 	0.2113	0.4542	0.0242	-0.287
Mof_O 	O 	0.7613	0.4704	0.7924	-0.502
Mof_O 	O 	0.128	0.4171	0.5932	-0.492
Mof_O 	O 	0.1143	0.5335	0.2165	-0.49
Mof_O 	O 	0.1143	0.4665	0.2835	-0.491
Mof_O 	O 	0.2001	0.9842	0.3552	-0.458
Mof_O 	O 	0.3868	0.7277	0.0405	-0.295
Mof_O 	O 	0.8654	0.0682	0.90972	-0.476
Mof_O 	O 	0.7602	0.8888	0.1184	-0.279
Mof_O 	O 	0.1846	0.5672	0.3141	-0.494
Mof_O 	O 	0.824	0.4898	0.0261	-0.499
Mof_O 	O 	0.8695	0.4664	0.2904	-0.289
Mof_O 	O 	0.6791	0.3579	0.4848	-0.3
Mof_O 	O 	0.79	0.6228	0.4977	-0.512
Mof_O 	O 	0.176	0.4898	0.5261	-0.5
Mof_O 	O 	0.8199	0.0105	0.5301	-0.542
Mof_O 	O 	0.2888	0.9911	0.6281	-0.302
Mof_O 	O 	0.7455	0.2955	0.9724	-0.3
Mof_O 	O 	0.872	0.5829	0.4068	-0.491
Mof_O 	O 	0.0105	0.96228	0.7816	-0.274
Mof_O 	O 	0.252	0.0947	0.3951	-0.486
Mof_O 	O 	0.8154	0.5672	0.8141	-0.494
Mof_O 	O 	0.7079	0.4984	0.871	-0.297
Mof_O 	O 	0.7587	0.6012	0.8905	-0.294
Mof_O 	O 	0.2413	0.3988	0.1095	-0.296
Mof_O 	O 	0.5155	0.7202	0.5376	-0.501
Mof_O 	O 	0.872	0.4171	0.0932	-0.492
Mof_O 	O 	0.5091	0.7728	0.459	-0.496
Mof_O 	O 	0.4412	0.1851	0.94047	-0.5
Mof_O 	O 	0.678	0.5171	0.9995	-0.294
Mof_O 	O 	0.6063	0.7785	0.4553	-0.29
Mof_O 	O 	0.5155	0.2798	0.9624	-0.503
Mof_O 	O 	0.748	0.9053	0.6049	-0.5
Mof_O 	O 	0.2829	0.534	0.9473	-0.495
Mof_O 	O 	0.6132	0.7277	0.5405	-0.296
Mof_O 	O 	0.3814	0.402	0.0824	-0.281
Mof_O 	O 	0.4413	0.6713	0.441	-0.482
Mof_O 	O 	0.4909	0.2272	0.541	-0.504
Mof_O 	O 	0.6791	0.6421	0.0152	-0.298
Mof_O 	O 	0.6118	0.2904	0.4612	-0.494
Mof_O 	O 	0.9311	0.5631	0.3313	-0.292
Mof_O 	O 	0.7799	0.0999	0.0003	-0.495
Mof_O 	O 	0.2387	0.5296	0.2076	-0.501
Mof_O 	O 	0.7799	0.9001	0.4997	-0.501
Mof_O 	O 	0.8154	0.4328	0.6859	-0.496
Mof_O 	O 	0.9837	0.4618	0.7806	-0.296
Mof_O 	O 	0.1807	0.0716	0.8092	-0.476
Mof_O 	O 	0.1346	0.9318	0.09028	-0.503
Mof_O 	O 	0.2327	0.0249	0.7041	-0.539
Mof_O 	O 	0.7171	0.534	0.4473	-0.495
Mof_O 	O 	0.2935	0.3073	0.5804	-0.288
Mof_O 	O 	0.1342	0.0401	0.2148	-0.286
Mof_O 	O 	0.7371	0.1827	0.0325	-0.297
Mof_O 	O 	0.4845	0.7202	0.0376	-0.5
Mof_O 	O 	0.1305	0.4664	0.7904	-0.289
Mof_O 	O 	0.7121	0.9902	0.5568	-0.444
Mof_O 	O 	0.3882	0.2904	0.9612	-0.495
Mof_O 	O 	0.0748	0.0562	0.3352	-0.284
Mof_O 	O 	0.7553	0.612	0.3928	-0.492
Mof_O 	O 	0.2888	0.0089	0.8719	-0.299
Mof_O 	O 	0.7887	0.5458	0.9758	-0.288
Mof_O 	O 	0.7873	0.935	0.0227	-0.268
Mof_O 	O 	0.2921	0.5016	0.129	-0.296
Mof_O 	O 	0.6842	0.8414	0.9912	-0.285
Mof_O 	O 	0.748	0.0947	0.8951	-0.486
Mof_O 	O 	0.3251	0.0371	0.9989	-0.285
Mof_O 	O 	0.7371	0.8173	0.4675	-0.29
Mof_O 	O 	0.2879	0.0098	0.4432	-0.543
Mof_O 	O 	0.7999	0.9842	0.8552	-0.458
Mof_O 	O 	0.7029	0.8228	0.5754	-0.287
Mof_O 	O 	0.176	0.5102	0.9739	-0.5
Mof_O 	O 	0.8919	0.9694	0.28623	-0.453
Mof_O 	O 	0.1963	0.5014	0.6405	-0.501
Mof_O 	O 	0.2935	0.6927	0.9196	-0.285
Mof_O 	O 	0.2629	0.1827	0.5325	-0.298
Mof_O 	O 	0.6194	0.8874	0.0854	-0.284
Mof_O 	O 	0.9252	0.9438	0.6648	-0.273
Mof_O 	O 	0.3814	0.598	0.4176	-0.28
Mof_O 	O 	0.824	0.5102	0.4739	-0.5
Mof_O 	O 	0.3251	0.9629	0.5011	-0.293
Mof_O 	O 	0.7873	0.065	0.4773	-0.292
Mof_O 	O 	0.6063	0.2215	0.0447	-0.299
Mof_O 	O 	0.7999	0.0158	0.6448	-0.526
Mof_O 	O 	0.7887	0.4542	0.5242	-0.288
Mof_O 	O 	0.8857	0.5335	0.7165	-0.49
Mof_O 	O 	0.7065	0.6927	0.4196	-0.285
Mof_O 	O 	0.7455	0.7045	0.5276	-0.297
Mof_O 	O 	0.6194	0.1126	0.4146	-0.3
Mof_O 	O 	0.1305	0.5336	0.7096	-0.287
Mof_O 	O 	0.79	0.3772	0.0023	-0.513
Mof_O 	O 	0.7112	0.0089	0.3719	-0.299
Mof_O 	O 	0.0689	0.4369	0.6687	-0.294
Mof_O 	O 	0.6186	0.598	0.9176	-0.28
Mof_O 	O 	0.2113	0.5458	0.4758	-0.287
Mof_O 	O 	0.8193	0.0716	0.3092	-0.476
Mof_O 	O 	0.2127	0.935	0.5227	-0.269
Mof_O 	O 	0.6118	0.7096	0.0388	-0.492
Mof_O 	O 	0.1963	0.4986	0.8595	-0.501
Mof_O 	O 	0.21	0.6228	0.9977	-0.511
Mof_O 	O 	0.8037	0.4986	0.3595	-0.501
Mof_O 	O 	0.3158	0.8414	0.4912	-0.284
Mof_O 	O 	0.3831	0.2253	0.03586	-0.488
Mof_O 	O 	0.2413	0.6012	0.3905	-0.294
Mof_O 	O 	0.8658	0.9599	0.7852	-0.272
Mof_O 	O 	0.3868	0.2723	0.4595	-0.298
Mof_O 	O 	0.0689	0.5631	0.8313	-0.292
Mof_O 	O 	0.5588	0.1851	0.44047	-0.5
Mof_O 	O 	0.6132	0.2723	0.9595	-0.298
Mof_O 	O 	0.9311	0.4369	0.1687	-0.293
Mof_O 	O 	0.6169	0.7747	0.96414	-0.484
Mof_O 	O 	0.7673	0.0249	0.2041	-0.539
Mof_O 	O 	0.3806	0.8874	0.5854	-0.284
Mof_O 	O 	0.2201	0.9001	0.9997	-0.503
Mof_O 	O 	0.8654	0.9318	0.59028	-0.503
Mof_O 	O 	0.8857	0.4665	0.7835	-0.491
Mof_O 	O 	0.7613	0.5296	0.7076	-0.501
Mof_O 	O 	0.4845	0.2798	0.4624	-0.503
Mof_O 	O 	0.2921	0.4984	0.371	-0.297
Mof_O 	O 	0.7553	0.388	0.1072	-0.493
Mof_O 	O 	0.2629	0.8173	0.9675	-0.291
Mof_O 	O 	0.1846	0.4328	0.1859	-0.496
Mof_O 	O 	0.0105	0.03772	0.7184	-0.29
Mof_O 	O 	0.7171	0.466	0.0527	-0.495
Mof_O 	O 	0.9252	0.0562	0.8352	-0.284
Mof_O 	O 	0.3209	0.3579	0.9848	-0.3
Mof_O 	O 	0.7065	0.3073	0.0804	-0.287
Mof_O 	O 	0.5588	0.8149	0.05953	-0.49
Mof_O 	O 	0.2201	0.0999	0.5003	-0.498
Mof_O 	O 	0.2971	0.8228	0.0754	-0.286
Mof_O 	O 	0.4412	0.8149	0.55953	-0.491
Mof_O 	O 	0.7121	0.0098	0.9432	-0.541
Mof_O 	O 	0.6842	0.1586	0.5088	-0.287
Mof_O 	O 	0.7673	0.9751	0.2959	-0.408
Mof_O 	O 	0.8919	0.0306	0.21377	-0.473
Mof_O 	O 	0.1081	0.0306	0.71377	-0.474
Mof_O 	O 	0.6169	0.2253	0.53586	-0.488
Mof_O 	O 	0.7602	0.1112	0.3816	-0.292
Mof_O 	O 	0.2879	0.9902	0.0568	-0.444
Mof_O 	O 	0.2545	0.2955	0.4724	-0.298
Mof_O 	O 	0.2545	0.7045	0.0276	-0.295
Mof_O 	O 	0.2001	0.0158	0.1448	-0.526
Mof_O 	O 	0.3209	0.6421	0.5152	-0.299
Mof_O 	O 	0.3937	0.2215	0.5447	-0.299
Mof_O 	O 	0.9895	0.03772	0.2184	-0.29
Mof_O 	O 	0.4413	0.3287	0.059	-0.483
Mof_O 	O 	0.7079	0.5016	0.629	-0.296
Mof_O 	O 	0.5587	0.6713	0.941	-0.482
Mof_O 	O 	0.2127	0.065	0.9773	-0.293
Mof_O 	O 	0.3806	0.1126	0.9146	-0.3
Mof_O 	O 	0.8199	0.9895	0.9699	-0.441
Mof_O 	O 	0.2447	0.388	0.6072	-0.493
Mof_O 	O 	0.128	0.5829	0.9068	-0.491
Mof_O 	O 	0.6749	0.0371	0.4989	-0.285
Mof_O 	O 	0.0748	0.9438	0.1648	-0.272
Mof_O 	O 	0.1801	0.0105	0.0301	-0.541
Mof_O 	O 	0.5587	0.3287	0.559	-0.483
Mof_O 	O 	0.2387	0.4704	0.2924	-0.502
Mof_O 	O 	0.5091	0.2272	0.041	-0.504
Mof_O 	O 	0.9895	0.96228	0.2816	-0.274
Mof_O 	O 	0.7587	0.3988	0.6095	-0.296
Mof_O 	O 	0.7029	0.1772	0.9246	-0.294
Mof_O 	O 	0.4909	0.7728	0.959	-0.496
Mof_O 	O 	0.8695	0.5336	0.2096	-0.287
Mof_O 	O 	0.3937	0.7785	0.9553	-0.29
Mof_O 	O 	0.322	0.4829	0.0005	-0.292
Mof_O 	O 	0.2327	0.9751	0.7959	-0.409
Mof_O 	O 	0.3831	0.7747	0.46414	-0.484
Mof_O 	O 	0.2398	0.8888	0.6184	-0.28
Mof_O 	O 	0.0163	0.4618	0.2806	-0.296
Mof_O 	O 	0.2447	0.612	0.8928	-0.492
Mof_O 	O 	0.0163	0.5382	0.2194	-0.294
_end
