# CIF file generated by openbabel 3.1.0, see https://openbabel.org
data_I
_chemical_name_common 'image0'
_cell_length_a 15.0578
_cell_length_b 13.197
_cell_length_c 15.2727
_cell_angle_alpha 90
_cell_angle_beta 112.197
_cell_angle_gamma 90
_space_group_name_H-M_alt 'P 1'
_space_group_name_Hall 'P 1'
loop_
    _symmetry_equiv_pos_as_xyz
    x,y,z
loop_
    _atom_site_label
    _atom_site_type_symbol
    _atom_site_fract_x
    _atom_site_fract_y
    _atom_site_fract_z
    _atom_site_occupancy
    Ga1      Ga       0.56738    0.10568    0.65382    1.000
    Ga2      Ga       0.73158    0.87308    0.57730    1.000
    Co1      Co       0.63532    0.19004    0.36767    1.000
    P1       P        0.57160    0.86940    0.65730    1.000
    P2       P        0.73170    0.11440    0.57590    1.000
    P3       P        0.63680    0.18690    0.86470    1.000
    O1       O        0.62700    0.82890    0.60020    1.000
    O2       O        0.71560    0.14230    0.95280    1.000
    O3       O        0.52950    0.97360    0.62270    1.000
    O4       O        0.71260    0.11690    0.47060    1.000
    O5       O        0.75720    0.00680    0.61510    1.000
    O6       O        0.81780    0.17990    0.62990    1.000
    O7       O        0.49050    0.79440    0.64350    1.000
    O8       O        0.63490    0.12180    0.78310    1.000
    O9       O        0.65980    0.29740    0.85140    1.000
    O10      O        0.63790    0.87570    0.76160    1.000
    O11      O        0.54060    0.18690    0.87670    1.000
    O12      O        0.64370    0.15460    0.59070    1.000
    Ga3      Ga       0.06738    0.60568    0.65382    1.000
    Ga4      Ga       0.23158    0.37308    0.57730    1.000
    Co2      Co       0.13532    0.69004    0.36767    1.000
    P4       P        0.07160    0.36940    0.65730    1.000
    P5       P        0.23170    0.61440    0.57590    1.000
    P6       P        0.13680    0.68690    0.86470    1.000
    O13      O        0.12700    0.32890    0.60020    1.000
    O14      O        0.21560    0.64230    0.95280    1.000
    O15      O        0.02950    0.47360    0.62270    1.000
    O16      O        0.21260    0.61690    0.47060    1.000
    O17      O        0.25720    0.50680    0.61510    1.000
    O18      O        0.31780    0.67990    0.62990    1.000
    O19      O        0.99050    0.29440    0.64350    1.000
    O20      O        0.13490    0.62180    0.78310    1.000
    O21      O        0.15980    0.79740    0.85140    1.000
    O22      O        0.13790    0.37570    0.76160    1.000
    O23      O        0.04060    0.68690    0.87670    1.000
    O24      O        0.14370    0.65460    0.59070    1.000
    Ga5      Ga       0.43262    0.10568    0.84618    1.000
    Ga6      Ga       0.26842    0.87308    0.92270    1.000
    Co3      Co       0.36468    0.19004    0.13233    1.000
    P7       P        0.42840    0.86940    0.84270    1.000
    P8       P        0.26830    0.11440    0.92410    1.000
    P9       P        0.36320    0.18690    0.63530    1.000
    O25      O        0.37300    0.82890    0.89980    1.000
    O26      O        0.28440    0.14230    0.54720    1.000
    O27      O        0.47050    0.97360    0.87730    1.000
    O28      O        0.28740    0.11690    0.02940    1.000
    O29      O        0.24280    0.00680    0.88490    1.000
    O30      O        0.18220    0.17990    0.87010    1.000
    O31      O        0.50950    0.79440    0.85650    1.000
    O32      O        0.36510    0.12180    0.71690    1.000
    O33      O        0.34020    0.29740    0.64860    1.000
    O34      O        0.36210    0.87570    0.73840    1.000
    O35      O        0.45940    0.18690    0.62330    1.000
    O36      O        0.35630    0.15460    0.90930    1.000
    Ga7      Ga       0.93262    0.60568    0.84618    1.000
    Ga8      Ga       0.76842    0.37308    0.92270    1.000
    Co4      Co       0.86468    0.69004    0.13233    1.000
    P10      P        0.92840    0.36940    0.84270    1.000
    P11      P        0.76830    0.61440    0.92410    1.000
    P12      P        0.86320    0.68690    0.63530    1.000
    O37      O        0.87300    0.32890    0.89980    1.000
    O38      O        0.78440    0.64230    0.54720    1.000
    O39      O        0.97050    0.47360    0.87730    1.000
    O40      O        0.78740    0.61690    0.02940    1.000
    O41      O        0.74280    0.50680    0.88490    1.000
    O42      O        0.68220    0.67990    0.87010    1.000
    O43      O        0.00950    0.29440    0.85650    1.000
    O44      O        0.86510    0.62180    0.71690    1.000
    O45      O        0.84020    0.79740    0.64860    1.000
    O46      O        0.86210    0.37570    0.73840    1.000
    O47      O        0.95940    0.68690    0.62330    1.000
    O48      O        0.85630    0.65460    0.90930    1.000
    Ga9      Ga       0.43262    0.89432    0.34618    1.000
    Ga10     Ga       0.26842    0.12692    0.42270    1.000
    Co5      Co       0.36468    0.80996    0.63233    1.000
    P13      P        0.42840    0.13060    0.34270    1.000
    P14      P        0.26830    0.88560    0.42410    1.000
    P15      P        0.36320    0.81310    0.13530    1.000
    O49      O        0.37300    0.17110    0.39980    1.000
    O50      O        0.28440    0.85770    0.04720    1.000
    O51      O        0.47050    0.02640    0.37730    1.000
    O52      O        0.28740    0.88310    0.52940    1.000
    O53      O        0.24280    0.99320    0.38490    1.000
    O54      O        0.18220    0.82010    0.37010    1.000
    O55      O        0.50950    0.20560    0.35650    1.000
    O56      O        0.36510    0.87820    0.21690    1.000
    O57      O        0.34020    0.70260    0.14860    1.000
    O58      O        0.36210    0.12430    0.23840    1.000
    O59      O        0.45940    0.81310    0.12330    1.000
    O60      O        0.35630    0.84540    0.40930    1.000
    Ga11     Ga       0.93262    0.39432    0.34618    1.000
    Ga12     Ga       0.76842    0.62692    0.42270    1.000
    Co6      Co       0.86468    0.30996    0.63233    1.000
    P16      P        0.92840    0.63060    0.34270    1.000
    P17      P        0.76830    0.38560    0.42410    1.000
    P18      P        0.86320    0.31310    0.13530    1.000
    O61      O        0.87300    0.67110    0.39980    1.000
    O62      O        0.78440    0.35770    0.04720    1.000
    O63      O        0.97050    0.52640    0.37730    1.000
    O64      O        0.78740    0.38310    0.52940    1.000
    O65      O        0.74280    0.49320    0.38490    1.000
    O66      O        0.68220    0.32010    0.37010    1.000
    O67      O        0.00950    0.70560    0.35650    1.000
    O68      O        0.86510    0.37820    0.21690    1.000
    O69      O        0.84020    0.20260    0.14860    1.000
    O70      O        0.86210    0.62430    0.23840    1.000
    O71      O        0.95940    0.31310    0.12330    1.000
    O72      O        0.85630    0.34540    0.40930    1.000
    Ga13     Ga       0.56738    0.89432    0.15382    1.000
    Ga14     Ga       0.73158    0.12692    0.07730    1.000
    Co7      Co       0.63532    0.80996    0.86767    1.000
    P19      P        0.57160    0.13060    0.15730    1.000
    P20      P        0.73170    0.88560    0.07590    1.000
    P21      P        0.63680    0.81310    0.36470    1.000
    O73      O        0.62700    0.17110    0.10020    1.000
    O74      O        0.71560    0.85770    0.45280    1.000
    O75      O        0.52950    0.02640    0.12270    1.000
    O76      O        0.71260    0.88310    0.97060    1.000
    O77      O        0.75720    0.99320    0.11510    1.000
    O78      O        0.81780    0.82010    0.12990    1.000
    O79      O        0.49050    0.20560    0.14350    1.000
    O80      O        0.63490    0.87820    0.28310    1.000
    O81      O        0.65980    0.70260    0.35140    1.000
    O82      O        0.63790    0.12430    0.26160    1.000
    O83      O        0.54060    0.81310    0.37670    1.000
    O84      O        0.64370    0.84540    0.09070    1.000
    Ga15     Ga       0.06738    0.39432    0.15382    1.000
    Ga16     Ga       0.23158    0.62692    0.07730    1.000
    Co8      Co       0.13532    0.30996    0.86767    1.000
    P22      P        0.07160    0.63060    0.15730    1.000
    P23      P        0.23170    0.38560    0.07590    1.000
    P24      P        0.13680    0.31310    0.36470    1.000
    O85      O        0.12700    0.67110    0.10020    1.000
    O86      O        0.21560    0.35770    0.45280    1.000
    O87      O        0.02950    0.52640    0.12270    1.000
    O88      O        0.21260    0.38310    0.97060    1.000
    O89      O        0.25720    0.49320    0.11510    1.000
    O90      O        0.31780    0.32010    0.12990    1.000
    O91      O        0.99050    0.70560    0.14350    1.000
    O92      O        0.13490    0.37820    0.28310    1.000
    O93      O        0.15980    0.20260    0.35140    1.000
    O94      O        0.13790    0.62430    0.26160    1.000
    O95      O        0.04060    0.31310    0.37670    1.000
    O96      O        0.14370    0.34540    0.09070    1.000
