data_functionalizedCrystal
_audit_creation_method	'EQeq! by Chris Wilmer'
_symmetry_space_group_name_H-M	'P1'
_symmetry_Int_Tables_number	1
_symmetry_cell_setting	triclinic
loop_
_symmetry_equiv_pos_as_xyz
  x,y,z
_cell_length_a	29.2698
_cell_length_b	29.2698
_cell_length_c	29.2698
_cell_angle_alpha	109.471
_cell_angle_beta	109.471
_cell_angle_gamma	109.471
loop_
_atom_site_label
_atom_site_type_symbol
_atom_site_fract_x
_atom_site_fract_y
_atom_site_fract_z
_atom_site_charge
Mof_Ni	Ni	0.73292	0.07546	0.00814	1.14
Mof_Ni	Ni	0.06732	0.72478	0.99186	1.134
Mof_Ni	Ni	0.93268	0.92454	0.65746	1.135
Mof_Ni	Ni	0.26708	0.27522	0.34254	1.137
Mof_Ni	Ni	0.65746	0.93268	0.92454	1.135
Mof_Ni	Ni	0.34254	0.26708	0.27522	1.137
Mof_Ni	Ni	0.00814	0.73292	0.07546	1.14
Mof_Ni	Ni	0.99186	0.06732	0.72478	1.134
Mof_Ni	Ni	0.72478	0.99186	0.06732	1.133
Mof_Ni	Ni	0.07546	0.00814	0.73292	1.139
Mof_Ni	Ni	0.27522	0.34254	0.26708	1.136
Mof_Ni	Ni	0.92454	0.65746	0.93268	1.134
Mof_H 	H 	0.1569	0.0154	0.6893	0.024
Mof_H 	H 	0.2434	0.0193	0.7137	0.07
Mof_H 	H 	0.2574	0.0268	0.8588	0.069
Mof_H 	H 	0.171	0.0229	0.8345	0.02
Mof_H 	H 	0.3146	0.0188	0.7314	0.043
Mof_H 	H 	0.3992	0.0186	0.7564	0.049
Mof_H 	H 	0.4109	0.0306	0.9023	0.047
Mof_H 	H 	0.3263	0.0308	0.8773	0.041
Mof_H 	H 	0.4283	0.9365	0.7968	0.076
Mof_H 	H 	0.5108	0.9325	0.8281	0.022
Mof_H 	H 	0.5986	0.0995	0.9367	0.018
Mof_H 	H 	0.5161	0.1035	0.9054	0.075
Mof_H 	H 	0.7346	0.9319	0.8235	0.057
Mof_H 	H 	0.7596	0.8893	0.7555	0.058
Mof_H 	H 	0.8165	0.1041	0.9182	0.038
Mof_H 	H 	0.3261	0.4676	0.3107	0.022
Mof_H 	H 	0.3056	0.5297	0.2863	0.069
Mof_H 	H 	0.168	0.3986	0.1412	0.07
Mof_H 	H 	0.1884	0.3365	0.1655	0.019
Mof_H 	H 	0.2874	0.5832	0.2686	0.041
Mof_H 	H 	0.2622	0.6428	0.2436	0.049
Mof_H 	H 	0.1283	0.5086	0.0977	0.051
Mof_H 	H 	0.1535	0.449	0.1227	0.042
Mof_H 	H 	0.1397	0.6315	0.2032	0.075
Mof_H 	H 	0.1044	0.6827	0.1719	0.023
Mof_H 	H 	0.1628	0.6619	0.0633	0.023
Mof_H 	H 	0.1981	0.6107	0.0946	0.076
Mof_H 	H 	0.1084	0.9111	0.1765	0.049
Mof_H 	H 	0.1338	0.0041	0.2445	0.054
Mof_H 	H 	0.1859	0.8983	0.0818	0.036
Mof_H 	H 	0.6739	0.9846	0.1415	0.02
Mof_H 	H 	0.6944	0.9807	0.2241	0.068
Mof_H 	H 	0.832	0.9732	0.2306	0.067
Mof_H 	H 	0.8116	0.9771	0.1481	0.017
Mof_H 	H 	0.7126	0.9812	0.2958	0.04
Mof_H 	H 	0.7378	0.9814	0.3806	0.048
Mof_H 	H 	0.8717	0.9694	0.3803	0.047
Mof_H 	H 	0.8465	0.9692	0.2955	0.038
Mof_H 	H 	0.8603	0.0635	0.4918	0.073
Mof_H 	H 	0.8956	0.0675	0.5783	0.021
Mof_H 	H 	0.8372	0.9005	0.4991	0.021
Mof_H 	H 	0.8019	0.8965	0.4126	0.073
Mof_H 	H 	0.8916	0.0681	0.8027	0.053
Mof_H 	H 	0.8662	0.1107	0.8703	0.058
Mof_H 	H 	0.8141	0.8959	0.7124	0.039
Mof_H 	H 	0.8431	0.5324	0.8585	0.021
Mof_H 	H 	0.7566	0.4703	0.7759	0.069
Mof_H 	H 	0.7426	0.6014	0.7694	0.068
Mof_H 	H 	0.829	0.6635	0.8519	0.018
Mof_H 	H 	0.6854	0.4168	0.7042	0.041
Mof_H 	H 	0.6008	0.3572	0.6194	0.049
Mof_H 	H 	0.5891	0.4914	0.6197	0.048
Mof_H 	H 	0.6737	0.551	0.7045	0.04
Mof_H 	H 	0.5717	0.3685	0.5082	0.075
Mof_H 	H 	0.4892	0.3173	0.4217	0.022
Mof_H 	H 	0.4014	0.3381	0.5009	0.021
Mof_H 	H 	0.4839	0.3893	0.5874	0.075
Mof_H 	H 	0.2654	0.0889	0.1973	0.062
Mof_H 	H 	0.2404	0.9959	0.1297	0.066
Mof_H 	H 	0.1835	0.1017	0.2876	0.045
Mof_H 	H 	0.1415	0.6739	0.9846	0.02
Mof_H 	H 	0.2241	0.6944	0.9807	0.068
Mof_H 	H 	0.2306	0.832	0.9732	0.067
Mof_H 	H 	0.1481	0.8116	0.9771	0.017
Mof_H 	H 	0.2958	0.7126	0.9812	0.04
Mof_H 	H 	0.3806	0.7378	0.9814	0.048
Mof_H 	H 	0.3803	0.8717	0.9694	0.047
Mof_H 	H 	0.2955	0.8465	0.9692	0.038
Mof_H 	H 	0.4918	0.8603	0.0635	0.073
Mof_H 	H 	0.5783	0.8956	0.0675	0.021
Mof_H 	H 	0.4991	0.8372	0.9005	0.021
Mof_H 	H 	0.4126	0.8019	0.8965	0.073
Mof_H 	H 	0.8027	0.8916	0.0681	0.053
Mof_H 	H 	0.8703	0.8662	0.1107	0.058
Mof_H 	H 	0.7124	0.8141	0.8959	0.039
Mof_H 	H 	0.8585	0.8431	0.5324	0.021
Mof_H 	H 	0.7759	0.7566	0.4703	0.069
Mof_H 	H 	0.7694	0.7426	0.6014	0.068
Mof_H 	H 	0.8519	0.829	0.6635	0.018
Mof_H 	H 	0.7042	0.6854	0.4168	0.041
Mof_H 	H 	0.6194	0.6008	0.3572	0.049
Mof_H 	H 	0.6197	0.5891	0.4914	0.048
Mof_H 	H 	0.7045	0.6737	0.551	0.04
Mof_H 	H 	0.5082	0.5717	0.3685	0.075
Mof_H 	H 	0.4217	0.4892	0.3173	0.022
Mof_H 	H 	0.5009	0.4014	0.3381	0.021
Mof_H 	H 	0.5874	0.4839	0.3893	0.075
Mof_H 	H 	0.1973	0.2654	0.0889	0.062
Mof_H 	H 	0.1297	0.2404	0.9959	0.066
Mof_H 	H 	0.2876	0.1835	0.1017	0.045
Mof_H 	H 	0.6893	0.1569	0.0154	0.024
Mof_H 	H 	0.7137	0.2434	0.0193	0.07
Mof_H 	H 	0.8588	0.2574	0.0268	0.069
Mof_H 	H 	0.8345	0.171	0.0229	0.02
Mof_H 	H 	0.7314	0.3146	0.0188	0.043
Mof_H 	H 	0.7564	0.3992	0.0186	0.049
Mof_H 	H 	0.9023	0.4109	0.0306	0.047
Mof_H 	H 	0.8773	0.3263	0.0308	0.041
Mof_H 	H 	0.7968	0.4283	0.9365	0.076
Mof_H 	H 	0.8281	0.5108	0.9325	0.022
Mof_H 	H 	0.9367	0.5986	0.0995	0.018
Mof_H 	H 	0.9054	0.5161	0.1035	0.075
Mof_H 	H 	0.8235	0.7346	0.9319	0.057
Mof_H 	H 	0.7555	0.7596	0.8893	0.058
Mof_H 	H 	0.9182	0.8165	0.1041	0.038
Mof_H 	H 	0.3107	0.3261	0.4676	0.022
Mof_H 	H 	0.2863	0.3056	0.5297	0.069
Mof_H 	H 	0.1412	0.168	0.3986	0.07
Mof_H 	H 	0.1655	0.1884	0.3365	0.019
Mof_H 	H 	0.2686	0.2874	0.5832	0.041
Mof_H 	H 	0.2436	0.2622	0.6428	0.049
Mof_H 	H 	0.0977	0.1283	0.5086	0.051
Mof_H 	H 	0.1227	0.1535	0.449	0.042
Mof_H 	H 	0.2032	0.1397	0.6315	0.075
Mof_H 	H 	0.1719	0.1044	0.6827	0.023
Mof_H 	H 	0.0633	0.1628	0.6619	0.023
Mof_H 	H 	0.0946	0.1981	0.6107	0.076
Mof_H 	H 	0.1765	0.1084	0.9111	0.049
Mof_H 	H 	0.2445	0.1338	0.0041	0.054
Mof_H 	H 	0.0818	0.1859	0.8983	0.036
Mof_H 	H 	0.4676	0.3107	0.3261	0.022
Mof_H 	H 	0.5297	0.2863	0.3056	0.069
Mof_H 	H 	0.3986	0.1412	0.168	0.07
Mof_H 	H 	0.3365	0.1655	0.1884	0.019
Mof_H 	H 	0.5832	0.2686	0.2874	0.041
Mof_H 	H 	0.6428	0.2436	0.2622	0.049
Mof_H 	H 	0.5086	0.0977	0.1283	0.051
Mof_H 	H 	0.449	0.1227	0.1535	0.042
Mof_H 	H 	0.6315	0.2032	0.1397	0.075
Mof_H 	H 	0.6827	0.1719	0.1044	0.023
Mof_H 	H 	0.6619	0.0633	0.1628	0.023
Mof_H 	H 	0.6107	0.0946	0.1981	0.076
Mof_H 	H 	0.9111	0.1765	0.1084	0.049
Mof_H 	H 	0.0041	0.2445	0.1338	0.054
Mof_H 	H 	0.8983	0.0818	0.1859	0.036
Mof_H 	H 	0.0154	0.6893	0.1569	0.024
Mof_H 	H 	0.0193	0.7137	0.2434	0.07
Mof_H 	H 	0.0268	0.8588	0.2574	0.069
Mof_H 	H 	0.0229	0.8345	0.171	0.02
Mof_H 	H 	0.0188	0.7314	0.3146	0.043
Mof_H 	H 	0.0186	0.7564	0.3992	0.049
Mof_H 	H 	0.0306	0.9023	0.4109	0.047
Mof_H 	H 	0.0308	0.8773	0.3263	0.041
Mof_H 	H 	0.9365	0.7968	0.4283	0.076
Mof_H 	H 	0.9325	0.8281	0.5108	0.022
Mof_H 	H 	0.0995	0.9367	0.5986	0.018
Mof_H 	H 	0.1035	0.9054	0.5161	0.075
Mof_H 	H 	0.9319	0.8235	0.7346	0.057
Mof_H 	H 	0.8893	0.7555	0.7596	0.058
Mof_H 	H 	0.1041	0.9182	0.8165	0.038
Mof_H 	H 	0.5324	0.8585	0.8431	0.021
Mof_H 	H 	0.4703	0.7759	0.7566	0.069
Mof_H 	H 	0.6014	0.7694	0.7426	0.068
Mof_H 	H 	0.6635	0.8519	0.829	0.018
Mof_H 	H 	0.4168	0.7042	0.6854	0.041
Mof_H 	H 	0.3572	0.6194	0.6008	0.049
Mof_H 	H 	0.4914	0.6197	0.5891	0.048
Mof_H 	H 	0.551	0.7045	0.6737	0.04
Mof_H 	H 	0.3685	0.5082	0.5717	0.075
Mof_H 	H 	0.3173	0.4217	0.4892	0.022
Mof_H 	H 	0.3381	0.5009	0.4014	0.021
Mof_H 	H 	0.3893	0.5874	0.4839	0.075
Mof_H 	H 	0.0889	0.1973	0.2654	0.062
Mof_H 	H 	0.9959	0.1297	0.2404	0.066
Mof_H 	H 	0.1017	0.2876	0.1835	0.045
Mof_H 	H 	0.9846	0.1415	0.6739	0.02
Mof_H 	H 	0.9807	0.2241	0.6944	0.068
Mof_H 	H 	0.9732	0.2306	0.832	0.067
Mof_H 	H 	0.9771	0.1481	0.8116	0.017
Mof_H 	H 	0.9812	0.2958	0.7126	0.04
Mof_H 	H 	0.9814	0.3806	0.7378	0.048
Mof_H 	H 	0.9694	0.3803	0.8717	0.047
Mof_H 	H 	0.9692	0.2955	0.8465	0.038
Mof_H 	H 	0.0635	0.4918	0.8603	0.073
Mof_H 	H 	0.0675	0.5783	0.8956	0.021
Mof_H 	H 	0.9005	0.4991	0.8372	0.021
Mof_H 	H 	0.8965	0.4126	0.8019	0.073
Mof_H 	H 	0.0681	0.8027	0.8916	0.053
Mof_H 	H 	0.1107	0.8703	0.8662	0.058
Mof_H 	H 	0.8959	0.7124	0.8141	0.039
Mof_C 	C 	0.17731	0.01772	0.72373	0.062
Mof_C 	C 	0.22866	0.02002	0.7382	-0.117
Mof_C 	C 	0.25851	0.02339	0.78854	0.069
Mof_C 	C 	0.23701	0.02446	0.82443	-0.119
Mof_C 	C 	0.18566	0.02216	0.80996	0.062
Mof_C 	C 	0.3125	0.02484	0.802	-0.006
Mof_C 	C 	0.33414	0.02122	0.76608	-0.043
Mof_C 	C 	0.38443	0.02112	0.78095	-0.047
Mof_C 	C 	0.41306	0.02463	0.83173	-0.008
Mof_C 	C 	0.39141	0.02824	0.86763	-0.048
Mof_C 	C 	0.34113	0.02834	0.85277	-0.042
Mof_C 	C 	0.4644	0.02035	0.84809	0.08
Mof_C 	C 	0.46286	0.96957	0.82517	-0.14
Mof_C 	C 	0.5119	0.9672	0.84382	0.06
Mof_C 	C 	0.56248	0.01562	0.88542	-0.145
Mof_C 	C 	0.56402	0.06641	0.90835	0.067
Mof_C 	C 	0.51498	0.06877	0.88969	-0.133
Mof_C 	C 	0.61167	0.01137	0.91426	0.428
Mof_C 	C 	0.74201	0.01143	0.90902	0.41
Mof_C 	C 	0.76996	0.01649	0.87587	-0.085
Mof_C 	C 	0.76111	0.96791	0.83328	-0.035
Mof_C 	C 	0.79246	0.97362	0.80516	0.018
Mof_C 	C 	0.78632	0.92509	0.76501	-0.083
Mof_C 	C 	0.81029	0.07116	0.88981	0.016
Mof_C 	C 	0.29399	0.45358	0.27627	0.062
Mof_C 	C 	0.28182	0.49046	0.2618	-0.118
Mof_C 	C 	0.23485	0.46997	0.21146	0.07
Mof_C 	C 	0.20003	0.41258	0.17557	-0.12
Mof_C 	C 	0.2122	0.3757	0.19004	0.062
Mof_C 	C 	0.22284	0.5105	0.198	-0.008
Mof_C 	C 	0.25514	0.56806	0.23392	-0.041
Mof_C 	C 	0.24017	0.60348	0.21905	-0.05
Mof_C 	C 	0.1929	0.58133	0.16827	-0.003
Mof_C 	C 	0.16061	0.52378	0.13237	-0.051
Mof_C 	C 	0.17557	0.48836	0.14723	-0.039
Mof_C 	C 	0.17226	0.61631	0.15191	0.069
Mof_C 	C 	0.1444	0.63769	0.17483	-0.128
Mof_C 	C 	0.12338	0.66808	0.15618	0.065
Mof_C 	C 	0.1302	0.67706	0.11458	-0.147
Mof_C 	C 	0.15806	0.65567	0.09165	0.065
Mof_C 	C 	0.17908	0.62529	0.11031	-0.127
Mof_C 	C 	0.09711	0.69741	0.08574	0.418
Mof_C 	C 	0.10241	0.83299	0.09098	0.405
Mof_C 	C 	0.14062	0.89409	0.12413	-0.101
Mof_C 	C 	0.13463	0.92783	0.16672	-0.01
Mof_C 	C 	0.16846	0.9873	0.19484	-0.008
Mof_C 	C 	0.16008	0.02131	0.23499	-0.055
Mof_C 	C 	0.18135	0.92048	0.11019	0.032
Mof_C 	C 	0.70601	0.98228	0.15959	0.061
Mof_C 	C 	0.71818	0.97998	0.20864	-0.119
Mof_C 	C 	0.76515	0.97661	0.23512	0.069
Mof_C 	C 	0.79997	0.97554	0.21255	-0.12
Mof_C 	C 	0.7878	0.97784	0.1635	0.061
Mof_C 	C 	0.77716	0.97516	0.28766	-0.01
Mof_C 	C 	0.74486	0.97878	0.31292	-0.04
Mof_C 	C 	0.75983	0.97888	0.36331	-0.054
Mof_C 	C 	0.8071	0.97537	0.38843	-0.001
Mof_C 	C 	0.83939	0.97176	0.36317	-0.055
Mof_C 	C 	0.82443	0.97166	0.31279	-0.04
Mof_C 	C 	0.82774	0.97965	0.44405	0.058
Mof_C 	C 	0.8556	0.03043	0.49329	-0.118
Mof_C 	C 	0.87662	0.0328	0.5447	0.07
Mof_C 	C 	0.8698	0.98438	0.54686	-0.154
Mof_C 	C 	0.84194	0.93359	0.49761	0.063
Mof_C 	C 	0.82092	0.93123	0.44621	-0.125
Mof_C 	C 	0.90289	0.98863	0.6003	0.41
Mof_C 	C 	0.89759	0.98857	0.73058	0.393
Mof_C 	C 	0.85938	0.98351	0.75347	-0.098
Mof_C 	C 	0.86537	0.03209	0.7932	-0.019
Mof_C 	C 	0.83154	0.02638	0.81884	0.029
Mof_C 	C 	0.83992	0.07491	0.86123	-0.083
Mof_C 	C 	0.81865	0.92884	0.73913	0.017
Mof_C 	C 	0.82269	0.54642	0.84041	0.061
Mof_C 	C 	0.77134	0.50954	0.79136	-0.118
Mof_C 	C 	0.74149	0.53003	0.76488	0.069
Mof_C 	C 	0.76299	0.58742	0.78745	-0.12
Mof_C 	C 	0.81434	0.6243	0.8365	0.061
Mof_C 	C 	0.6875	0.4895	0.71234	-0.008
Mof_C 	C 	0.66586	0.43194	0.68708	-0.041
Mof_C 	C 	0.61557	0.39652	0.63669	-0.051
Mof_C 	C 	0.58694	0.41867	0.61157	-0.003
Mof_C 	C 	0.60859	0.47622	0.63683	-0.052
Mof_C 	C 	0.65887	0.51164	0.68721	-0.04
Mof_C 	C 	0.5356	0.38369	0.55595	0.069
Mof_C 	C 	0.53714	0.36231	0.50671	-0.128
Mof_C 	C 	0.4881	0.33192	0.4553	0.065
Mof_C 	C 	0.43752	0.32294	0.45314	-0.148
Mof_C 	C 	0.43598	0.34433	0.50239	0.065
Mof_C 	C 	0.48502	0.37471	0.55379	-0.128
Mof_C 	C 	0.38833	0.30259	0.3997	0.419
Mof_C 	C 	0.25799	0.16701	0.26942	0.397
Mof_C 	C 	0.23004	0.10591	0.24653	-0.079
Mof_C 	C 	0.23889	0.07217	0.2068	-0.043
Mof_C 	C 	0.20754	0.0127	0.18116	0.057
Mof_C 	C 	0.21368	0.97869	0.13877	-0.108
Mof_C 	C 	0.18971	0.07952	0.26087	0.002
Mof_C 	C 	0.15959	0.70601	0.98228	0.061
Mof_C 	C 	0.20864	0.71818	0.97998	-0.119
Mof_C 	C 	0.23512	0.76515	0.97661	0.069
Mof_C 	C 	0.21255	0.79997	0.97554	-0.12
Mof_C 	C 	0.1635	0.7878	0.97784	0.061
Mof_C 	C 	0.28766	0.77716	0.97516	-0.01
Mof_C 	C 	0.31292	0.74486	0.97878	-0.04
Mof_C 	C 	0.36331	0.75983	0.97888	-0.054
Mof_C 	C 	0.38843	0.8071	0.97537	-0.001
Mof_C 	C 	0.36317	0.83939	0.97176	-0.055
Mof_C 	C 	0.31279	0.82443	0.97166	-0.04
Mof_C 	C 	0.44405	0.82774	0.97965	0.058
Mof_C 	C 	0.49329	0.8556	0.03043	-0.118
Mof_C 	C 	0.5447	0.87662	0.0328	0.07
Mof_C 	C 	0.54686	0.8698	0.98438	-0.154
Mof_C 	C 	0.49761	0.84194	0.93359	0.063
Mof_C 	C 	0.44621	0.82092	0.93123	-0.125
Mof_C 	C 	0.6003	0.90289	0.98863	0.41
Mof_C 	C 	0.73058	0.89759	0.98857	0.393
Mof_C 	C 	0.75347	0.85938	0.98351	-0.098
Mof_C 	C 	0.7932	0.86537	0.03209	-0.019
Mof_C 	C 	0.81884	0.83154	0.02638	0.029
Mof_C 	C 	0.86123	0.83992	0.07491	-0.083
Mof_C 	C 	0.73913	0.81865	0.92884	0.017
Mof_C 	C 	0.84041	0.82269	0.54642	0.061
Mof_C 	C 	0.79136	0.77134	0.50954	-0.118
Mof_C 	C 	0.76488	0.74149	0.53003	0.069
Mof_C 	C 	0.78745	0.76299	0.58742	-0.12
Mof_C 	C 	0.8365	0.81434	0.6243	0.061
Mof_C 	C 	0.71234	0.6875	0.4895	-0.008
Mof_C 	C 	0.68708	0.66586	0.43194	-0.041
Mof_C 	C 	0.63669	0.61557	0.39652	-0.051
Mof_C 	C 	0.61157	0.58694	0.41867	-0.003
Mof_C 	C 	0.63683	0.60859	0.47622	-0.052
Mof_C 	C 	0.68721	0.65887	0.51164	-0.04
Mof_C 	C 	0.55595	0.5356	0.38369	0.069
Mof_C 	C 	0.50671	0.53714	0.36231	-0.128
Mof_C 	C 	0.4553	0.4881	0.33192	0.065
Mof_C 	C 	0.45314	0.43752	0.32294	-0.148
Mof_C 	C 	0.50239	0.43598	0.34433	0.065
Mof_C 	C 	0.55379	0.48502	0.37471	-0.128
Mof_C 	C 	0.3997	0.38833	0.30259	0.419
Mof_C 	C 	0.26942	0.25799	0.16701	0.397
Mof_C 	C 	0.24653	0.23004	0.10591	-0.079
Mof_C 	C 	0.2068	0.23889	0.07217	-0.043
Mof_C 	C 	0.18116	0.20754	0.0127	0.057
Mof_C 	C 	0.13877	0.21368	0.97869	-0.108
Mof_C 	C 	0.26087	0.18971	0.07952	0.002
Mof_C 	C 	0.72373	0.17731	0.01772	0.062
Mof_C 	C 	0.7382	0.22866	0.02002	-0.117
Mof_C 	C 	0.78854	0.25851	0.02339	0.069
Mof_C 	C 	0.82443	0.23701	0.02446	-0.119
Mof_C 	C 	0.80996	0.18566	0.02216	0.062
Mof_C 	C 	0.802	0.3125	0.02484	-0.006
Mof_C 	C 	0.76608	0.33414	0.02122	-0.043
Mof_C 	C 	0.78095	0.38443	0.02112	-0.047
Mof_C 	C 	0.83173	0.41306	0.02463	-0.008
Mof_C 	C 	0.86763	0.39141	0.02824	-0.048
Mof_C 	C 	0.85277	0.34113	0.02834	-0.042
Mof_C 	C 	0.84809	0.4644	0.02035	0.08
Mof_C 	C 	0.82517	0.46286	0.96957	-0.14
Mof_C 	C 	0.84382	0.5119	0.9672	0.06
Mof_C 	C 	0.88542	0.56248	0.01562	-0.145
Mof_C 	C 	0.90835	0.56402	0.06641	0.067
Mof_C 	C 	0.88969	0.51498	0.06877	-0.133
Mof_C 	C 	0.91426	0.61167	0.01137	0.428
Mof_C 	C 	0.90902	0.74201	0.01143	0.41
Mof_C 	C 	0.87587	0.76996	0.01649	-0.085
Mof_C 	C 	0.83328	0.76111	0.96791	-0.035
Mof_C 	C 	0.80516	0.79246	0.97362	0.018
Mof_C 	C 	0.76501	0.78632	0.92509	-0.083
Mof_C 	C 	0.88981	0.81029	0.07116	0.016
Mof_C 	C 	0.27627	0.29399	0.45358	0.062
Mof_C 	C 	0.2618	0.28182	0.49046	-0.118
Mof_C 	C 	0.21146	0.23485	0.46997	0.07
Mof_C 	C 	0.17557	0.20003	0.41258	-0.12
Mof_C 	C 	0.19004	0.2122	0.3757	0.062
Mof_C 	C 	0.198	0.22284	0.5105	-0.008
Mof_C 	C 	0.23392	0.25514	0.56806	-0.041
Mof_C 	C 	0.21905	0.24017	0.60348	-0.05
Mof_C 	C 	0.16827	0.1929	0.58133	-0.003
Mof_C 	C 	0.13237	0.16061	0.52378	-0.051
Mof_C 	C 	0.14723	0.17557	0.48836	-0.039
Mof_C 	C 	0.15191	0.17226	0.61631	0.069
Mof_C 	C 	0.17483	0.1444	0.63769	-0.128
Mof_C 	C 	0.15618	0.12338	0.66808	0.065
Mof_C 	C 	0.11458	0.1302	0.67706	-0.147
Mof_C 	C 	0.09165	0.15806	0.65567	0.065
Mof_C 	C 	0.11031	0.17908	0.62529	-0.127
Mof_C 	C 	0.08574	0.09711	0.69741	0.418
Mof_C 	C 	0.09098	0.10241	0.83299	0.405
Mof_C 	C 	0.12413	0.14062	0.89409	-0.101
Mof_C 	C 	0.16672	0.13463	0.92783	-0.01
Mof_C 	C 	0.19484	0.16846	0.9873	-0.008
Mof_C 	C 	0.23499	0.16008	0.02131	-0.055
Mof_C 	C 	0.11019	0.18135	0.92048	0.032
Mof_C 	C 	0.45358	0.27627	0.29399	0.062
Mof_C 	C 	0.49046	0.2618	0.28182	-0.118
Mof_C 	C 	0.46997	0.21146	0.23485	0.07
Mof_C 	C 	0.41258	0.17557	0.20003	-0.12
Mof_C 	C 	0.3757	0.19004	0.2122	0.062
Mof_C 	C 	0.5105	0.198	0.22284	-0.008
Mof_C 	C 	0.56806	0.23392	0.25514	-0.041
Mof_C 	C 	0.60348	0.21905	0.24017	-0.05
Mof_C 	C 	0.58133	0.16827	0.1929	-0.003
Mof_C 	C 	0.52378	0.13237	0.16061	-0.051
Mof_C 	C 	0.48836	0.14723	0.17557	-0.039
Mof_C 	C 	0.61631	0.15191	0.17226	0.069
Mof_C 	C 	0.63769	0.17483	0.1444	-0.128
Mof_C 	C 	0.66808	0.15618	0.12338	0.065
Mof_C 	C 	0.67706	0.11458	0.1302	-0.147
Mof_C 	C 	0.65567	0.09165	0.15806	0.065
Mof_C 	C 	0.62529	0.11031	0.17908	-0.127
Mof_C 	C 	0.69741	0.08574	0.09711	0.418
Mof_C 	C 	0.83299	0.09098	0.10241	0.405
Mof_C 	C 	0.89409	0.12413	0.14062	-0.101
Mof_C 	C 	0.92783	0.16672	0.13463	-0.01
Mof_C 	C 	0.9873	0.19484	0.16846	-0.008
Mof_C 	C 	0.02131	0.23499	0.16008	-0.055
Mof_C 	C 	0.92048	0.11019	0.18135	0.032
Mof_C 	C 	0.01772	0.72373	0.17731	0.062
Mof_C 	C 	0.02002	0.7382	0.22866	-0.117
Mof_C 	C 	0.02339	0.78854	0.25851	0.069
Mof_C 	C 	0.02446	0.82443	0.23701	-0.119
Mof_C 	C 	0.02216	0.80996	0.18566	0.062
Mof_C 	C 	0.02484	0.802	0.3125	-0.006
Mof_C 	C 	0.02122	0.76608	0.33414	-0.043
Mof_C 	C 	0.02112	0.78095	0.38443	-0.047
Mof_C 	C 	0.02463	0.83173	0.41306	-0.008
Mof_C 	C 	0.02824	0.86763	0.39141	-0.048
Mof_C 	C 	0.02834	0.85277	0.34113	-0.042
Mof_C 	C 	0.02035	0.84809	0.4644	0.08
Mof_C 	C 	0.96957	0.82517	0.46286	-0.14
Mof_C 	C 	0.9672	0.84382	0.5119	0.06
Mof_C 	C 	0.01562	0.88542	0.56248	-0.145
Mof_C 	C 	0.06641	0.90835	0.56402	0.067
Mof_C 	C 	0.06877	0.88969	0.51498	-0.133
Mof_C 	C 	0.01137	0.91426	0.61167	0.428
Mof_C 	C 	0.01143	0.90902	0.74201	0.41
Mof_C 	C 	0.01649	0.87587	0.76996	-0.085
Mof_C 	C 	0.96791	0.83328	0.76111	-0.035
Mof_C 	C 	0.97362	0.80516	0.79246	0.018
Mof_C 	C 	0.92509	0.76501	0.78632	-0.083
Mof_C 	C 	0.07116	0.88981	0.81029	0.016
Mof_C 	C 	0.54642	0.84041	0.82269	0.061
Mof_C 	C 	0.50954	0.79136	0.77134	-0.118
Mof_C 	C 	0.53003	0.76488	0.74149	0.069
Mof_C 	C 	0.58742	0.78745	0.76299	-0.12
Mof_C 	C 	0.6243	0.8365	0.81434	0.061
Mof_C 	C 	0.4895	0.71234	0.6875	-0.008
Mof_C 	C 	0.43194	0.68708	0.66586	-0.041
Mof_C 	C 	0.39652	0.63669	0.61557	-0.051
Mof_C 	C 	0.41867	0.61157	0.58694	-0.003
Mof_C 	C 	0.47622	0.63683	0.60859	-0.052
Mof_C 	C 	0.51164	0.68721	0.65887	-0.04
Mof_C 	C 	0.38369	0.55595	0.5356	0.069
Mof_C 	C 	0.36231	0.50671	0.53714	-0.128
Mof_C 	C 	0.33192	0.4553	0.4881	0.065
Mof_C 	C 	0.32294	0.45314	0.43752	-0.148
Mof_C 	C 	0.34433	0.50239	0.43598	0.065
Mof_C 	C 	0.37471	0.55379	0.48502	-0.128
Mof_C 	C 	0.30259	0.3997	0.38833	0.419
Mof_C 	C 	0.16701	0.26942	0.25799	0.397
Mof_C 	C 	0.10591	0.24653	0.23004	-0.079
Mof_C 	C 	0.07217	0.2068	0.23889	-0.043
Mof_C 	C 	0.0127	0.18116	0.20754	0.057
Mof_C 	C 	0.97869	0.13877	0.21368	-0.108
Mof_C 	C 	0.07952	0.26087	0.18971	0.002
Mof_C 	C 	0.98228	0.15959	0.70601	0.061
Mof_C 	C 	0.97998	0.20864	0.71818	-0.119
Mof_C 	C 	0.97661	0.23512	0.76515	0.069
Mof_C 	C 	0.97554	0.21255	0.79997	-0.12
Mof_C 	C 	0.97784	0.1635	0.7878	0.061
Mof_C 	C 	0.97516	0.28766	0.77716	-0.01
Mof_C 	C 	0.97878	0.31292	0.74486	-0.04
Mof_C 	C 	0.97888	0.36331	0.75983	-0.054
Mof_C 	C 	0.97537	0.38843	0.8071	-0.001
Mof_C 	C 	0.97176	0.36317	0.83939	-0.055
Mof_C 	C 	0.97166	0.31279	0.82443	-0.04
Mof_C 	C 	0.97965	0.44405	0.82774	0.058
Mof_C 	C 	0.03043	0.49329	0.8556	-0.118
Mof_C 	C 	0.0328	0.5447	0.87662	0.07
Mof_C 	C 	0.98438	0.54686	0.8698	-0.154
Mof_C 	C 	0.93359	0.49761	0.84194	0.063
Mof_C 	C 	0.93123	0.44621	0.82092	-0.125
Mof_C 	C 	0.98863	0.6003	0.90289	0.41
Mof_C 	C 	0.98857	0.73058	0.89759	0.393
Mof_C 	C 	0.98351	0.75347	0.85938	-0.098
Mof_C 	C 	0.03209	0.7932	0.86537	-0.019
Mof_C 	C 	0.02638	0.81884	0.83154	0.029
Mof_C 	C 	0.07491	0.86123	0.83992	-0.083
Mof_C 	C 	0.92884	0.73913	0.81865	0.017
Mof_N 	N 	0.15582	0.0188	0.75962	-0.194
Mof_N 	N 	0.25918	0.3962	0.24038	-0.195
Mof_N 	N 	0.74082	0.9812	0.13702	-0.196
Mof_N 	N 	0.84418	0.6038	0.86298	-0.195
Mof_N 	N 	0.13702	0.74082	0.9812	-0.196
Mof_N 	N 	0.86298	0.84418	0.6038	-0.195
Mof_N 	N 	0.75962	0.15582	0.0188	-0.194
Mof_N 	N 	0.24038	0.25918	0.3962	-0.195
Mof_N 	N 	0.3962	0.24038	0.25918	-0.195
Mof_N 	N 	0.0188	0.75962	0.15582	-0.194
Mof_N 	N 	0.6038	0.86298	0.84418	-0.195
Mof_N 	N 	0.9812	0.13702	0.74082	-0.196
Mof_O 	O 	0.65534	0.05428	0.95324	-0.438
Mof_O 	O 	0.60853	0.96473	0.89454	-0.423
Mof_O 	O 	0.75393	0.0548	0.94627	-0.425
Mof_O 	O 	0.70927	0.96188	0.89549	-0.412
Mof_O 	O 	0.10104	0.7021	0.04676	-0.429
Mof_O 	O 	0.07019	0.71399	0.10546	-0.413
Mof_O 	O 	0.10853	0.80766	0.05373	-0.417
Mof_O 	O 	0.06639	0.81378	0.10451	-0.403
Mof_O 	O 	0.89896	0.94572	0.60106	-0.433
Mof_O 	O 	0.92981	0.03527	0.6438	-0.409
Mof_O 	O 	0.89147	0.9452	0.69913	-0.42
Mof_O 	O 	0.93361	0.03812	0.74739	-0.399
Mof_O 	O 	0.34466	0.2979	0.39894	-0.433
Mof_O 	O 	0.39147	0.28601	0.3562	-0.414
Mof_O 	O 	0.24607	0.19234	0.30087	-0.418
Mof_O 	O 	0.29073	0.18622	0.25261	-0.402
Mof_O 	O 	0.60106	0.89896	0.94572	-0.433
Mof_O 	O 	0.6438	0.92981	0.03527	-0.409
Mof_O 	O 	0.69913	0.89147	0.9452	-0.42
Mof_O 	O 	0.74739	0.93361	0.03812	-0.399
Mof_O 	O 	0.39894	0.34466	0.2979	-0.433
Mof_O 	O 	0.3562	0.39147	0.28601	-0.414
Mof_O 	O 	0.30087	0.24607	0.19234	-0.418
Mof_O 	O 	0.25261	0.29073	0.18622	-0.402
Mof_O 	O 	0.95324	0.65534	0.05428	-0.438
Mof_O 	O 	0.89454	0.60853	0.96473	-0.423
Mof_O 	O 	0.94627	0.75393	0.0548	-0.425
Mof_O 	O 	0.89549	0.70927	0.96188	-0.412
Mof_O 	O 	0.04676	0.10104	0.7021	-0.429
Mof_O 	O 	0.10546	0.07019	0.71399	-0.413
Mof_O 	O 	0.05373	0.10853	0.80766	-0.417
Mof_O 	O 	0.10451	0.06639	0.81378	-0.403
Mof_O 	O 	0.7021	0.04676	0.10104	-0.429
Mof_O 	O 	0.71399	0.10546	0.07019	-0.413
Mof_O 	O 	0.80766	0.05373	0.10853	-0.417
Mof_O 	O 	0.81378	0.10451	0.06639	-0.403
Mof_O 	O 	0.05428	0.95324	0.65534	-0.438
Mof_O 	O 	0.96473	0.89454	0.60853	-0.423
Mof_O 	O 	0.0548	0.94627	0.75393	-0.425
Mof_O 	O 	0.96188	0.89549	0.70927	-0.412
Mof_O 	O 	0.2979	0.39894	0.34466	-0.433
Mof_O 	O 	0.28601	0.3562	0.39147	-0.414
Mof_O 	O 	0.19234	0.30087	0.24607	-0.418
Mof_O 	O 	0.18622	0.25261	0.29073	-0.402
Mof_O 	O 	0.94572	0.60106	0.89896	-0.433
Mof_O 	O 	0.03527	0.6438	0.92981	-0.409
Mof_O 	O 	0.9452	0.69913	0.89147	-0.42
Mof_O 	O 	0.03812	0.74739	0.93361	-0.399
Mof_O 	O 	0.71176	0	-0	-0.554
Mof_O 	O 	4.7115e-17	0.71176	-0	-0.554
Mof_O 	O 	-4.7115e-17	-9.423e-17	0.71176	-0.554
Mof_O 	O 	0.28824	0.28824	0.28824	-0.563
_end
