# CIF file generated by openbabel 3.1.0, see https://openbabel.org
data_I
_chemical_name_common 'PESTUD_clean'
_cell_length_a 6.7907
_cell_length_b 22.245
_cell_length_c 7.7387
_cell_angle_alpha 90
_cell_angle_beta 90
_cell_angle_gamma 90
_space_group_name_H-M_alt 'P 1'
_space_group_name_Hall 'P 1'
loop_
    _symmetry_equiv_pos_as_xyz
    x,y,z
loop_
    _atom_site_label
    _atom_site_type_symbol
    _atom_site_fract_x
    _atom_site_fract_y
    _atom_site_fract_z
    _atom_site_occupancy
    Ni1      Ni       0.94965    0.78723    0.74155    1.000
    Ni2      Ni       0.05035    0.21277    0.74155    1.000
    Ni3      Ni       0.44965    0.71277    0.25845    1.000
    Ni4      Ni       0.55035    0.28723    0.25845    1.000
    H1       H        0.16140    0.69900    0.65660    1.000
    H2       H        0.09620    0.68820    0.83420    1.000
    H3       H        0.83170    0.61530    0.87950    1.000
    H4       H        0.64500    0.62670    0.76640    1.000
    H5       H        0.94370    0.62820    0.60660    1.000
    H6       H        0.52920    0.82940    0.77590    1.000
    H7       H        0.34270    0.91400    0.78230    1.000
    H8       H        0.81070    0.00450    0.61240    1.000
    H9       H        0.97960    0.91650    0.60980    1.000
    H10      H        0.83860    0.30100    0.65660    1.000
    H11      H        0.90380    0.31180    0.83420    1.000
    H12      H        0.16830    0.38470    0.87950    1.000
    H13      H        0.35500    0.37330    0.76640    1.000
    H14      H        0.05630    0.37180    0.60660    1.000
    H15      H        0.47080    0.17060    0.77590    1.000
    H16      H        0.65730    0.08600    0.78230    1.000
    H17      H        0.18930    0.99550    0.61240    1.000
    H18      H        0.02040    0.08350    0.60980    1.000
    H19      H        0.66140    0.80100    0.34340    1.000
    H20      H        0.59620    0.81180    0.16580    1.000
    H21      H        0.33170    0.88470    0.12050    1.000
    H22      H        0.14500    0.87330    0.23360    1.000
    H23      H        0.44370    0.87180    0.39340    1.000
    H24      H        0.02920    0.67060    0.22410    1.000
    H25      H        0.84270    0.58600    0.21770    1.000
    H26      H        0.31070    0.49550    0.38760    1.000
    H27      H        0.47960    0.58350    0.39020    1.000
    H28      H        0.33860    0.19900    0.34340    1.000
    H29      H        0.40380    0.18820    0.16580    1.000
    H30      H        0.66830    0.11530    0.12050    1.000
    H31      H        0.85500    0.12670    0.23360    1.000
    H32      H        0.55630    0.12820    0.39340    1.000
    H33      H        0.97080    0.32940    0.22410    1.000
    H34      H        0.15730    0.41400    0.21770    1.000
    H35      H        0.68930    0.50450    0.38760    1.000
    H36      H        0.52040    0.41650    0.39020    1.000
    C1       C        0.69560    0.69511    0.93890    1.000
    C2       C        0.76190    0.64566    0.81340    1.000
    C3       C        0.89180    0.66420    0.66360    1.000
    C4       C        0.77080    0.70095    0.53330    1.000
    C5       C        0.59100    0.86619    0.75790    1.000
    C6       C        0.47680    0.91691    0.75920    1.000
    C7       C        0.55890    0.97154    0.72670    1.000
    C8       C        0.75390    0.96990    0.65800    1.000
    C9       C        0.85520    0.91760    0.66000    1.000
    C10      C        0.30440    0.30489    0.93890    1.000
    C11      C        0.23810    0.35434    0.81340    1.000
    C12      C        0.10820    0.33580    0.66360    1.000
    C13      C        0.22920    0.29905    0.53330    1.000
    C14      C        0.40900    0.13381    0.75790    1.000
    C15      C        0.52320    0.08309    0.75920    1.000
    C16      C        0.44110    0.02846    0.72670    1.000
    C17      C        0.24610    0.03010    0.65800    1.000
    C18      C        0.14480    0.08240    0.66000    1.000
    C19      C        0.19560    0.80489    0.06110    1.000
    C20      C        0.26190    0.85434    0.18660    1.000
    C21      C        0.39180    0.83580    0.33640    1.000
    C22      C        0.27080    0.79905    0.46670    1.000
    C23      C        0.09100    0.63381    0.24210    1.000
    C24      C        0.97680    0.58309    0.24080    1.000
    C25      C        0.05890    0.52846    0.27330    1.000
    C26      C        0.25390    0.53010    0.34200    1.000
    C27      C        0.35520    0.58240    0.34000    1.000
    C28      C        0.80440    0.19511    0.06110    1.000
    C29      C        0.73810    0.14566    0.18660    1.000
    C30      C        0.60820    0.16420    0.33640    1.000
    C31      C        0.72920    0.20095    0.46670    1.000
    C32      C        0.90900    0.36619    0.24210    1.000
    C33      C        0.02320    0.41691    0.24080    1.000
    C34      C        0.94110    0.47154    0.27330    1.000
    C35      C        0.74610    0.46990    0.34200    1.000
    C36      C        0.64480    0.41760    0.34000    1.000
    N1       N        0.05800    0.70098    0.72900    1.000
    N2       N        0.78190    0.86618    0.73300    1.000
    N3       N        0.94200    0.29902    0.72900    1.000
    N4       N        0.21810    0.13382    0.73300    1.000
    N5       N        0.55800    0.79902    0.27100    1.000
    N6       N        0.28190    0.63382    0.26700    1.000
    N7       N        0.44200    0.20098    0.27100    1.000
    N8       N        0.71810    0.36618    0.26700    1.000
    O1       O        0.79490    0.75689    0.53620    1.000
    O2       O        0.65870    0.67301    0.43400    1.000
    O3       O        0.73580    0.74939    0.91270    1.000
    O4       O        0.59960    0.67468    0.06450    1.000
    O5       O        0.20510    0.24311    0.53620    1.000
    O6       O        0.34130    0.32699    0.43400    1.000
    O7       O        0.26420    0.25061    0.91270    1.000
    O8       O        0.40040    0.32532    0.06450    1.000
    O9       O        0.29490    0.74311    0.46380    1.000
    O10      O        0.15870    0.82699    0.56600    1.000
    O11      O        0.23580    0.75061    0.08730    1.000
    O12      O        0.09960    0.82532    0.93550    1.000
    O13      O        0.70510    0.25689    0.46380    1.000
    O14      O        0.84130    0.17301    0.56600    1.000
    O15      O        0.76420    0.24939    0.08730    1.000
    O16      O        0.90040    0.17468    0.93550    1.000
