data_functionalizedCrystal
_audit_creation_method	'EQeq! by Chris Wilmer'
_symmetry_space_group_name_H-M	'P1'
_symmetry_Int_Tables_number	1
_symmetry_cell_setting	triclinic
loop_
_symmetry_equiv_pos_as_xyz
  x,y,z
_cell_length_a	9.2211
_cell_length_b	18.1848
_cell_length_c	9.7227
_cell_angle_alpha	90
_cell_angle_beta	104.994
_cell_angle_gamma	90
loop_
_atom_site_label
_atom_site_type_symbol
_atom_site_fract_x
_atom_site_fract_y
_atom_site_fract_z
_atom_site_charge
Mof_Cd	Cd	0.8668	0.9339	0.06168	0.437
Mof_C 	C 	0.6937	0.80612	0.8565	0.093
Mof_H 	H 	0.7846	0.7821	0.8926	0.021
Mof_C 	C 	0.5848	0.77163	0.7516	-0.15
Mof_H 	H 	0.6033	0.7257	0.7178	0.094
Mof_C 	C 	0.4467	0.80628	0.6967	0.095
Mof_C 	C 	0.426	0.874	0.7542	-0.148
Mof_H 	H 	0.3348	0.8984	0.7226	0.091
Mof_C 	C 	0.5398	0.90547	0.8582	0.089
Mof_H 	H 	0.5234	0.951	0.8949	0.023
Mof_C 	C 	0.3282	0.77302	0.5805	-0.018
Mof_C 	C 	0.3053	0.69704	0.5749	-0.021
Mof_H 	H 	0.3678	0.6669	0.6421	0.056
Mof_C 	C 	0.1902	0.66611	0.4699	-0.057
Mof_C 	C 	0.1628	0.58482	0.4687	0.289
Mof_C 	C 	0.1	0.71073	0.3661	-0.003
Mof_H 	H 	0.0228	0.6899	0.2958	0.058
Mof_C 	C 	0.0282	0.83375	0.2514	0.293
Mof_C 	C 	0.1241	0.78597	0.3664	-0.053
Mof_C 	C 	0.2366	0.81685	0.4753	-0.026
Mof_H 	H 	0.2508	0.8675	0.478	0.06
Mof_N 	N 	0.6743	0.87249	0.9087	-0.15
Mof_O 	O 	0.2688	0.54281	0.5248	-0.27
Mof_O 	O 	0.0315	0.5613	0.4084	-0.275
Mof_O 	O 	0.0619	0.90112	0.2512	-0.264
Mof_O 	O 	0.9221	0.80591	0.1618	-0.27
Mof_Cd	Cd	0.1332	0.4339	0.43832	0.44
Mof_C 	C 	0.3063	0.30612	0.6435	0.094
Mof_H 	H 	0.2154	0.2821	0.6074	0.021
Mof_C 	C 	0.4152	0.27163	0.7484	-0.149
Mof_H 	H 	0.3967	0.2257	0.7822	0.095
Mof_C 	C 	0.5533	0.30628	0.8033	0.096
Mof_C 	C 	0.574	0.374	0.7458	-0.147
Mof_H 	H 	0.6652	0.3984	0.7774	0.092
Mof_C 	C 	0.4602	0.40547	0.6418	0.089
Mof_H 	H 	0.4766	0.451	0.6051	0.023
Mof_C 	C 	0.6718	0.27302	0.9195	-0.017
Mof_C 	C 	0.6947	0.19704	0.9251	-0.021
Mof_H 	H 	0.6322	0.1669	0.8579	0.056
Mof_C 	C 	0.8098	0.16611	0.0301	-0.057
Mof_C 	C 	0.8372	0.08482	0.0313	0.288
Mof_C 	C 	0.9	0.21073	0.1339	-0.003
Mof_H 	H 	0.9772	0.1899	0.2042	0.058
Mof_C 	C 	0.9718	0.33375	0.2486	0.291
Mof_C 	C 	0.8759	0.28597	0.1336	-0.053
Mof_C 	C 	0.7634	0.31685	0.0247	-0.027
Mof_H 	H 	0.7492	0.3675	0.022	0.06
Mof_N 	N 	0.3257	0.37249	0.5913	-0.151
Mof_O 	O 	0.7312	0.04281	0.9752	-0.269
Mof_O 	O 	0.9685	0.0613	0.0916	-0.275
Mof_O 	O 	0.9381	0.40112	0.2488	-0.264
Mof_O 	O 	0.0779	0.30591	0.3382	-0.268
Mof_Cd	Cd	0.1332	0.0661	0.93832	0.438
Mof_C 	C 	0.3063	0.19388	0.1435	0.094
Mof_H 	H 	0.2154	0.2179	0.1074	0.022
Mof_C 	C 	0.4152	0.22837	0.2484	-0.149
Mof_H 	H 	0.3967	0.2743	0.2822	0.095
Mof_C 	C 	0.5533	0.19372	0.3033	0.096
Mof_C 	C 	0.574	0.126	0.2458	-0.147
Mof_H 	H 	0.6652	0.1016	0.2774	0.092
Mof_C 	C 	0.4602	0.09453	0.1418	0.089
Mof_H 	H 	0.4766	0.049	0.1051	0.023
Mof_C 	C 	0.6718	0.22698	0.4195	-0.018
Mof_C 	C 	0.6947	0.30296	0.4251	-0.021
Mof_H 	H 	0.6322	0.3331	0.3579	0.056
Mof_C 	C 	0.8098	0.33389	0.5301	-0.057
Mof_C 	C 	0.8372	0.41518	0.5313	0.289
Mof_C 	C 	0.9	0.28927	0.6339	-0.003
Mof_H 	H 	0.9772	0.3101	0.7042	0.058
Mof_C 	C 	0.9718	0.16625	0.7486	0.293
Mof_C 	C 	0.8759	0.21403	0.6336	-0.053
Mof_C 	C 	0.7634	0.18315	0.5247	-0.026
Mof_H 	H 	0.7492	0.1325	0.522	0.06
Mof_N 	N 	0.3257	0.12751	0.0913	-0.15
Mof_O 	O 	0.7312	0.45719	0.4752	-0.27
Mof_O 	O 	0.9685	0.4387	0.5916	-0.275
Mof_O 	O 	0.9381	0.09888	0.7488	-0.264
Mof_O 	O 	0.0779	0.19409	0.8382	-0.27
Mof_Cd	Cd	0.8668	0.5661	0.56168	0.44
Mof_C 	C 	0.6937	0.69388	0.3565	0.094
Mof_H 	H 	0.7846	0.7179	0.3926	0.021
Mof_C 	C 	0.5848	0.72837	0.2516	-0.149
Mof_H 	H 	0.6033	0.7743	0.2178	0.095
Mof_C 	C 	0.4467	0.69372	0.1967	0.096
Mof_C 	C 	0.426	0.626	0.2542	-0.147
Mof_H 	H 	0.3348	0.6016	0.2226	0.092
Mof_C 	C 	0.5398	0.59453	0.3582	0.089
Mof_H 	H 	0.5234	0.549	0.3949	0.023
Mof_C 	C 	0.3282	0.72698	0.0805	-0.017
Mof_C 	C 	0.3053	0.80296	0.0749	-0.021
Mof_H 	H 	0.3678	0.8331	0.1421	0.056
Mof_C 	C 	0.1902	0.83389	0.9699	-0.057
Mof_C 	C 	0.1628	0.91518	0.9687	0.288
Mof_C 	C 	0.1	0.78927	0.8661	-0.003
Mof_H 	H 	0.0228	0.8101	0.7958	0.058
Mof_C 	C 	0.0282	0.66625	0.7514	0.291
Mof_C 	C 	0.1241	0.71403	0.8664	-0.053
Mof_C 	C 	0.2366	0.68315	0.9753	-0.027
Mof_H 	H 	0.2508	0.6325	0.978	0.06
Mof_N 	N 	0.6743	0.62751	0.4087	-0.151
Mof_O 	O 	0.2688	0.95719	0.0248	-0.269
Mof_O 	O 	0.0315	0.9387	0.9084	-0.275
Mof_O 	O 	0.0619	0.59888	0.7512	-0.264
Mof_O 	O 	0.9221	0.69409	0.6618	-0.268
_end
