data_functionalizedCrystal
_audit_creation_method	'EQeq! by Chris Wilmer'
_symmetry_space_group_name_H-M	'P1'
_symmetry_Int_Tables_number	1
_symmetry_cell_setting	triclinic
loop_
_symmetry_equiv_pos_as_xyz
  x,y,z
_cell_length_a	9.7748
_cell_length_b	11.9795
_cell_length_c	11.9795
_cell_angle_alpha	90.3078
_cell_angle_beta	110.049
_cell_angle_gamma	110.049
loop_
_atom_site_label
_atom_site_type_symbol
_atom_site_fract_x
_atom_site_fract_y
_atom_site_fract_z
_atom_site_charge
Mof_Zn	Zn	0.84653	0.15922	0.37406	1.194
Mof_Zn	Zn	0.34653	0.37406	0.15922	1.195
Mof_H 	H 	0.1994	0.4734	0.7446	0.057
Mof_H 	H 	0.9931	0.1261	0.7609	0.066
Mof_H 	H 	0.3226	0.5038	0.949	0.002
Mof_H 	H 	0.1247	0.1646	0.9648	-0.005
Mof_H 	H 	0.2029	0.4777	0.3443	0.307
Mof_H 	H 	0.0554	0.4481	0.2259	0.3
Mof_H 	H 	0.0346	0.4188	0.3478	0.312
Mof_H 	H 	0.6994	0.7446	0.4734	0.059
Mof_H 	H 	0.4931	0.7609	0.1261	0.074
Mof_H 	H 	0.8226	0.949	0.5038	0.003
Mof_H 	H 	0.6247	0.9648	0.1646	-0.008
Mof_H 	H 	0.7029	0.3443	0.4777	0.307
Mof_H 	H 	0.5554	0.2259	0.4481	0.301
Mof_H 	H 	0.5346	0.3478	0.4188	0.312
Mof_C 	C 	0.0001	0.2771	0.5961	0.318
Mof_C 	C 	0.1017	0.3024	0.2798	0.358
Mof_C 	C 	0.0814	0.2965	0.7303	-0.036
Mof_C 	C 	0.1818	0.4093	0.7881	-0.077
Mof_C 	C 	0.0599	0.2036	0.7974	-0.069
Mof_C 	C 	0.2559	0.4268	0.9106	0.033
Mof_C 	C 	0.1391	0.2278	0.9198	0.045
Mof_C 	C 	0.0983	0.4221	0.3013	-0.973
Mof_C 	C 	0.5001	0.5961	0.2771	0.312
Mof_C 	C 	0.6017	0.2798	0.3024	0.357
Mof_C 	C 	0.5814	0.7303	0.2965	-0.029
Mof_C 	C 	0.6818	0.7881	0.4093	-0.081
Mof_C 	C 	0.5599	0.7974	0.2036	-0.081
Mof_C 	C 	0.7559	0.9106	0.4268	0.035
Mof_C 	C 	0.6391	0.9198	0.2278	0.052
Mof_C 	C 	0.5983	0.3013	0.4221	-0.973
Mof_N 	N 	0.0151	0.20038	0.30582	-0.294
Mof_N 	N 	0.2357	0.33719	0.97689	-0.258
Mof_N 	N 	0.0546	0.113	0.2706	-0.069
Mof_N 	N 	0.193	0.27865	0.22915	-0.303
Mof_N 	N 	0.1606	0.1592	0.2252	-0.075
Mof_N 	N 	0.5151	0.30582	0.20038	-0.295
Mof_N 	N 	0.7357	0.97689	0.33719	-0.259
Mof_N 	N 	0.5546	0.2706	0.113	-0.07
Mof_N 	N 	0.693	0.22915	0.27865	-0.303
Mof_N 	N 	0.6606	0.2252	0.1592	-0.076
Mof_O 	O 	0.9104	0.16993	0.54817	-0.474
Mof_O 	O 	0.0204	0.36089	0.53891	-0.361
Mof_O 	O 	0.4104	0.54817	0.16993	-0.47
Mof_O 	O 	0.5204	0.53891	0.36089	-0.359
Mof_Zn	Zn	0.65347	0.62594	0.84078	1.194
Mof_Zn	Zn	0.15347	0.84078	0.62594	1.193
Mof_H 	H 	0.3006	0.2554	0.5266	0.059
Mof_H 	H 	0.5069	0.2391	0.8739	0.074
Mof_H 	H 	0.1774	0.051	0.4962	0.003
Mof_H 	H 	0.3753	0.0352	0.8354	-0.008
Mof_H 	H 	0.2971	0.6557	0.5223	0.307
Mof_H 	H 	0.4446	0.7741	0.5519	0.301
Mof_H 	H 	0.4654	0.6522	0.5812	0.312
Mof_H 	H 	0.8006	0.5266	0.2554	0.057
Mof_H 	H 	0.0069	0.8739	0.2391	0.066
Mof_H 	H 	0.6774	0.4962	0.051	0.002
Mof_H 	H 	0.8753	0.8354	0.0352	-0.005
Mof_H 	H 	0.7971	0.5223	0.6557	0.307
Mof_H 	H 	0.9446	0.5519	0.7741	0.3
Mof_H 	H 	0.9654	0.5812	0.6522	0.312
Mof_C 	C 	0.4999	0.4039	0.7229	0.312
Mof_C 	C 	0.3983	0.7202	0.6976	0.357
Mof_C 	C 	0.4186	0.2697	0.7035	-0.029
Mof_C 	C 	0.3182	0.2119	0.5907	-0.081
Mof_C 	C 	0.4401	0.2026	0.7964	-0.081
Mof_C 	C 	0.2441	0.0894	0.5732	0.035
Mof_C 	C 	0.3609	0.0802	0.7722	0.052
Mof_C 	C 	0.4017	0.6987	0.5779	-0.973
Mof_C 	C 	0.9999	0.7229	0.4039	0.318
Mof_C 	C 	0.8983	0.6976	0.7202	0.358
Mof_C 	C 	0.9186	0.7035	0.2697	-0.036
Mof_C 	C 	0.8182	0.5907	0.2119	-0.077
Mof_C 	C 	0.9401	0.7964	0.2026	-0.069
Mof_C 	C 	0.7441	0.5732	0.0894	0.033
Mof_C 	C 	0.8609	0.7722	0.0802	0.045
Mof_C 	C 	0.9017	0.5779	0.6987	-0.973
Mof_N 	N 	0.4849	0.69418	0.79962	-0.295
Mof_N 	N 	0.2643	0.02311	0.66281	-0.259
Mof_N 	N 	0.4454	0.7294	0.887	-0.07
Mof_N 	N 	0.307	0.77085	0.72135	-0.303
Mof_N 	N 	0.3394	0.7748	0.8408	-0.076
Mof_N 	N 	0.9849	0.79962	0.69418	-0.294
Mof_N 	N 	0.7643	0.66281	0.02311	-0.258
Mof_N 	N 	0.9454	0.887	0.7294	-0.069
Mof_N 	N 	0.807	0.72135	0.77085	-0.303
Mof_N 	N 	0.8394	0.8408	0.7748	-0.075
Mof_O 	O 	0.5896	0.45183	0.83007	-0.47
Mof_O 	O 	0.4796	0.46109	0.63911	-0.359
Mof_O 	O 	0.0896	0.83007	0.45183	-0.474
Mof_O 	O 	0.9796	0.63911	0.46109	-0.361
_end
