data_functionalizedCrystal
_audit_creation_method	'EQeq! by Chris Wilmer'
_symmetry_space_group_name_H-M	'P1'
_symmetry_Int_Tables_number	1
_symmetry_cell_setting	triclinic
loop_
_symmetry_equiv_pos_as_xyz
  x,y,z
_cell_length_a	18.035
_cell_length_b	10.513
_cell_length_c	14.293
_cell_angle_alpha	90
_cell_angle_beta	90
_cell_angle_gamma	90
loop_
_atom_site_label
_atom_site_type_symbol
_atom_site_fract_x
_atom_site_fract_y
_atom_site_fract_z
_atom_site_charge
Mof_Ga	Ga	0.7028	0.8079	0.6485	4.76
Mof_Ga	Ga	0.815	0.6245	0.8747	4.588
Mof_Ga	Ga	0.8907	0.8536	0.5575	4.615
Mof_P 	P 	0.5751	0.6424	0.5444	1.272
Mof_P 	P 	0.7042	0.8395	0.8747	1.142
Mof_P 	P 	0.8307	0.6134	0.6598	1.157
Mof_O 	O 	0.7504	0.6424	0.636	-1.254
Mof_O 	O 	0.8475	0.6624	0.7579	-1.406
Mof_O 	O 	0.7915	0.8881	0.6106	-1.759
Mof_O 	O 	0.6328	0.8392	0.93	-0.973
Mof_O 	O 	0.6026	0.6193	0.4447	-1.427
Mof_O 	O 	0.6183	0.7513	0.5884	-1.307
Mof_O 	O 	0.8844	0.6854	0.5947	-1.223
Mof_O 	O 	0.7614	0.7562	0.9239	-1.285
Mof_O 	O 	0.6884	0.7862	0.7782	-1.336
Mof_O 	O 	0.7361	0.9743	0.8716	-1.345
Mof_O 	O 	0.5859	0.5186	0.5991	-1.271
Mof_O 	O 	0.4943	0.6813	0.5379	-1.131
Mof_O 	O 	0.8444	0.4719	0.6511	-1.163
Mof_Ga	Ga	0.7028	0.3079	0.1485	4.489
Mof_Ga	Ga	0.815	0.1245	0.3747	4.477
Mof_Ga	Ga	0.8907	0.3536	0.0575	3.77
Mof_P 	P 	0.5751	0.1424	0.0444	0.965
Mof_P 	P 	0.7042	0.3395	0.3747	1.163
Mof_P 	P 	0.8307	0.1134	0.1598	1.1
Mof_O 	O 	0.7504	0.1424	0.136	-1.248
Mof_O 	O 	0.8475	0.1624	0.2579	-1.373
Mof_O 	O 	0.7915	0.3881	0.1106	-1.663
Mof_O 	O 	0.6328	0.3392	0.43	-1.291
Mof_O 	O 	0.6026	0.1193	0.9447	-1.169
Mof_O 	O 	0.6183	0.2513	0.0884	-1.29
Mof_O 	O 	0.8844	0.1854	0.0947	-1.14
Mof_O 	O 	0.7614	0.2562	0.4239	-1.406
Mof_O 	O 	0.6884	0.2862	0.2782	-1.295
Mof_O 	O 	0.7361	0.4743	0.3716	-1.395
Mof_O 	O 	0.5859	0.0186	0.0991	-1.123
Mof_O 	O 	0.4943	0.1813	0.0379	-1.064
Mof_O 	O 	0.8444	0.9719	0.1511	-1.152
Mof_Ga	Ga	0.2972	0.1921	0.6485	4.759
Mof_Ga	Ga	0.185	0.3755	0.8747	4.587
Mof_Ga	Ga	0.1093	0.1464	0.5575	4.614
Mof_P 	P 	0.4249	0.3576	0.5444	1.271
Mof_P 	P 	0.2958	0.1605	0.8747	1.142
Mof_P 	P 	0.1693	0.3866	0.6598	1.157
Mof_O 	O 	0.2496	0.3576	0.636	-1.254
Mof_O 	O 	0.1525	0.3376	0.7579	-1.406
Mof_O 	O 	0.2085	0.1119	0.6106	-1.759
Mof_O 	O 	0.3672	0.1608	0.93	-0.973
Mof_O 	O 	0.3974	0.3807	0.4447	-1.427
Mof_O 	O 	0.3817	0.2487	0.5884	-1.307
Mof_O 	O 	0.1156	0.3146	0.5947	-1.223
Mof_O 	O 	0.2386	0.2438	0.9239	-1.285
Mof_O 	O 	0.3116	0.2138	0.7782	-1.336
Mof_O 	O 	0.2639	0.0257	0.8716	-1.345
Mof_O 	O 	0.4141	0.4814	0.5991	-1.271
Mof_O 	O 	0.5057	0.3187	0.5379	-1.131
Mof_O 	O 	0.1556	0.5281	0.6511	-1.163
Mof_Ga	Ga	0.2972	0.6921	0.1485	4.489
Mof_Ga	Ga	0.185	0.8755	0.3747	4.477
Mof_Ga	Ga	0.1093	0.6464	0.0575	3.77
Mof_P 	P 	0.4249	0.8576	0.0444	0.965
Mof_P 	P 	0.2958	0.6605	0.3747	1.163
Mof_P 	P 	0.1693	0.8866	0.1598	1.1
Mof_O 	O 	0.2496	0.8576	0.136	-1.248
Mof_O 	O 	0.1525	0.8376	0.2579	-1.373
Mof_O 	O 	0.2085	0.6119	0.1106	-1.663
Mof_O 	O 	0.3672	0.6608	0.43	-1.291
Mof_O 	O 	0.3974	0.8807	0.9447	-1.169
Mof_O 	O 	0.3817	0.7487	0.0884	-1.29
Mof_O 	O 	0.1156	0.8146	0.0947	-1.14
Mof_O 	O 	0.2386	0.7438	0.4239	-1.406
Mof_O 	O 	0.3116	0.7138	0.2782	-1.295
Mof_O 	O 	0.2639	0.5257	0.3716	-1.395
Mof_O 	O 	0.4141	0.9814	0.0991	-1.123
Mof_O 	O 	0.5057	0.8187	0.0379	-1.064
Mof_O 	O 	0.1556	0.0281	0.1511	-1.152
Mof_Ga	Ga	0.2028	0.6921	0.6485	4.758
Mof_Ga	Ga	0.315	0.8755	0.8747	4.578
Mof_Ga	Ga	0.3907	0.6464	0.5575	4.609
Mof_P 	P 	0.0751	0.8576	0.5444	1.27
Mof_P 	P 	0.2042	0.6605	0.8747	1.142
Mof_P 	P 	0.3307	0.8866	0.6598	1.155
Mof_O 	O 	0.2504	0.8576	0.636	-1.255
Mof_O 	O 	0.3475	0.8376	0.7579	-1.404
Mof_O 	O 	0.2915	0.6119	0.6106	-1.758
Mof_O 	O 	0.1328	0.6608	0.93	-0.974
Mof_O 	O 	0.1026	0.8807	0.4447	-1.427
Mof_O 	O 	0.1183	0.7487	0.5884	-1.308
Mof_O 	O 	0.3844	0.8146	0.5947	-1.222
Mof_O 	O 	0.2614	0.7438	0.9239	-1.283
Mof_O 	O 	0.1884	0.7138	0.7782	-1.337
Mof_O 	O 	0.2361	0.5257	0.8716	-1.345
Mof_O 	O 	0.0859	0.9814	0.5991	-1.275
Mof_O 	O 	0.9943	0.8187	0.5379	-1.132
Mof_O 	O 	0.3444	0.0281	0.6511	-1.163
Mof_Ga	Ga	0.2028	0.1921	0.1485	4.49
Mof_Ga	Ga	0.315	0.3755	0.3747	4.484
Mof_Ga	Ga	0.3907	0.1464	0.0575	3.772
Mof_P 	P 	0.0751	0.3576	0.0444	0.967
Mof_P 	P 	0.2042	0.1605	0.3747	1.163
Mof_P 	P 	0.3307	0.3866	0.1598	1.102
Mof_O 	O 	0.2504	0.3576	0.136	-1.248
Mof_O 	O 	0.3475	0.3376	0.2579	-1.374
Mof_O 	O 	0.2915	0.1119	0.1106	-1.662
Mof_O 	O 	0.1328	0.1608	0.43	-1.291
Mof_O 	O 	0.1026	0.3807	0.9447	-1.171
Mof_O 	O 	0.1183	0.2487	0.0884	-1.29
Mof_O 	O 	0.3844	0.3146	0.0947	-1.141
Mof_O 	O 	0.2614	0.2438	0.4239	-1.407
Mof_O 	O 	0.1884	0.2138	0.2782	-1.295
Mof_O 	O 	0.2361	0.0257	0.3716	-1.392
Mof_O 	O 	0.0859	0.4814	0.0991	-1.123
Mof_O 	O 	0.9943	0.3187	0.0379	-1.065
Mof_O 	O 	0.3444	0.5281	0.1511	-1.155
Mof_Ga	Ga	0.7972	0.3079	0.6485	4.758
Mof_Ga	Ga	0.685	0.1245	0.8747	4.578
Mof_Ga	Ga	0.6093	0.3536	0.5575	4.609
Mof_P 	P 	0.9249	0.1424	0.5444	1.27
Mof_P 	P 	0.7958	0.3395	0.8747	1.142
Mof_P 	P 	0.6693	0.1134	0.6598	1.155
Mof_O 	O 	0.7496	0.1424	0.636	-1.255
Mof_O 	O 	0.6525	0.1624	0.7579	-1.404
Mof_O 	O 	0.7085	0.3881	0.6106	-1.758
Mof_O 	O 	0.8672	0.3392	0.93	-0.974
Mof_O 	O 	0.8974	0.1193	0.4447	-1.427
Mof_O 	O 	0.8817	0.2513	0.5884	-1.308
Mof_O 	O 	0.6156	0.1854	0.5947	-1.222
Mof_O 	O 	0.7386	0.2562	0.9239	-1.283
Mof_O 	O 	0.8116	0.2862	0.7782	-1.337
Mof_O 	O 	0.7639	0.4743	0.8716	-1.345
Mof_O 	O 	0.9141	0.0186	0.5991	-1.275
Mof_O 	O 	0.0057	0.1813	0.5379	-1.132
Mof_O 	O 	0.6556	0.9719	0.6511	-1.163
Mof_Ga	Ga	0.7972	0.8079	0.1485	4.49
Mof_Ga	Ga	0.685	0.6245	0.3747	4.484
Mof_Ga	Ga	0.6093	0.8536	0.0575	3.772
Mof_P 	P 	0.9249	0.6424	0.0444	0.967
Mof_P 	P 	0.7958	0.8395	0.3747	1.163
Mof_P 	P 	0.6693	0.6134	0.1598	1.102
Mof_O 	O 	0.7496	0.6424	0.136	-1.248
Mof_O 	O 	0.6525	0.6624	0.2579	-1.374
Mof_O 	O 	0.7085	0.8881	0.1106	-1.662
Mof_O 	O 	0.8672	0.8392	0.43	-1.291
Mof_O 	O 	0.8974	0.6193	0.9447	-1.171
Mof_O 	O 	0.8817	0.7513	0.0884	-1.29
Mof_O 	O 	0.6156	0.6854	0.0947	-1.141
Mof_O 	O 	0.7386	0.7562	0.4239	-1.407
Mof_O 	O 	0.8116	0.7862	0.2782	-1.295
Mof_O 	O 	0.7639	0.9743	0.3716	-1.392
Mof_O 	O 	0.9141	0.5186	0.0991	-1.123
Mof_O 	O 	0.0057	0.6813	0.0379	-1.065
Mof_O 	O 	0.6556	0.4719	0.1511	-1.155
_end
