data_functionalizedCrystal
_audit_creation_method	'EQeq! by Chris Wilmer'
_symmetry_space_group_name_H-M	'P1'
_symmetry_Int_Tables_number	1
_symmetry_cell_setting	triclinic
loop_
_symmetry_equiv_pos_as_xyz
  x,y,z
_cell_length_a	19.3042
_cell_length_b	19.3042
_cell_length_c	19.3042
_cell_angle_alpha	90
_cell_angle_beta	90
_cell_angle_gamma	90
loop_
_atom_site_label
_atom_site_type_symbol
_atom_site_fract_x
_atom_site_fract_y
_atom_site_fract_z
_atom_site_charge
Mof_C 	C 	0.4646	0.2973	0.2108	0.1
Mof_H 	H 	0.4681	0.3431	0.1964	-0.003
Mof_C 	C 	0.4529	0.2464	0.1619	-0.242
Mof_H 	H 	0.4506	0.2584	0.1153	0.115
Mof_C 	C 	0.411	0.0758	0.1312	0.131
Mof_H 	H 	0.3702	0.0706	0.16	-0.007
Mof_H 	H 	0.4508	0.0564	0.1549	0.022
Mof_C 	C 	0.4107	0.0361	0.0642	0.053
Mof_O 	O 	0.4324	0.1445	0.1175	-0.209
Mof_C 	C 	0.5354	0.7027	0.2108	0.102
Mof_H 	H 	0.5319	0.6569	0.1964	-0.004
Mof_C 	C 	0.5471	0.7536	0.1619	-0.246
Mof_H 	H 	0.5494	0.7416	0.1153	0.118
Mof_C 	C 	0.589	0.9242	0.1312	0.142
Mof_H 	H 	0.6298	0.9294	0.16	-0.017
Mof_H 	H 	0.5492	0.9436	0.1549	0.013
Mof_C 	C 	0.5893	0.9639	0.0642	-0.005
Mof_O 	O 	0.5676	0.8555	0.1175	-0.242
Mof_C 	C 	0.5354	0.2973	0.7892	0.102
Mof_H 	H 	0.5319	0.3431	0.8036	-0.005
Mof_C 	C 	0.5471	0.2464	0.8381	-0.248
Mof_H 	H 	0.5494	0.2584	0.8847	0.113
Mof_C 	C 	0.589	0.0758	0.8688	0.173
Mof_H 	H 	0.6298	0.0706	0.84	-0.019
Mof_H 	H 	0.5492	0.0564	0.8451	0.017
Mof_C 	C 	0.5893	0.0361	0.9358	0.051
Mof_O 	O 	0.5676	0.1445	0.8825	-0.195
Mof_C 	C 	0.4646	0.7027	0.7892	0.105
Mof_H 	H 	0.4681	0.6569	0.8036	-0.006
Mof_C 	C 	0.4529	0.7536	0.8381	-0.252
Mof_H 	H 	0.4506	0.7416	0.8847	0.116
Mof_C 	C 	0.411	0.9242	0.8688	0.185
Mof_H 	H 	0.3702	0.9294	0.84	-0.027
Mof_H 	H 	0.4508	0.9436	0.8451	0.008
Mof_C 	C 	0.4107	0.9639	0.9358	-0.005
Mof_O 	O 	0.4324	0.8555	0.8825	-0.227
Mof_C 	C 	0.2108	0.4646	0.2973	0.101
Mof_H 	H 	0.1964	0.4681	0.3431	-0.002
Mof_C 	C 	0.1619	0.4529	0.2464	-0.241
Mof_H 	H 	0.1153	0.4506	0.2584	0.116
Mof_C 	C 	0.1312	0.411	0.0758	0.132
Mof_H 	H 	0.16	0.3702	0.0706	-0.006
Mof_H 	H 	0.1549	0.4508	0.0564	0.023
Mof_C 	C 	0.0642	0.4107	0.0361	0.054
Mof_O 	O 	0.1175	0.4324	0.1445	-0.208
Mof_C 	C 	0.2108	0.5354	0.7027	0.103
Mof_H 	H 	0.1964	0.5319	0.6569	-0.003
Mof_C 	C 	0.1619	0.5471	0.7536	-0.245
Mof_H 	H 	0.1153	0.5494	0.7416	0.119
Mof_C 	C 	0.1312	0.589	0.9242	0.143
Mof_H 	H 	0.16	0.6298	0.9294	-0.016
Mof_H 	H 	0.1549	0.5492	0.9436	0.014
Mof_C 	C 	0.0642	0.5893	0.9639	-0.004
Mof_O 	O 	0.1175	0.5676	0.8555	-0.241
Mof_C 	C 	0.7892	0.5354	0.2973	0.103
Mof_H 	H 	0.8036	0.5319	0.3431	-0.004
Mof_C 	C 	0.8381	0.5471	0.2464	-0.247
Mof_H 	H 	0.8847	0.5494	0.2584	0.114
Mof_C 	C 	0.8688	0.589	0.0758	0.174
Mof_H 	H 	0.84	0.6298	0.0706	-0.018
Mof_H 	H 	0.8451	0.5492	0.0564	0.018
Mof_C 	C 	0.9358	0.5893	0.0361	0.052
Mof_O 	O 	0.8825	0.5676	0.1445	-0.194
Mof_C 	C 	0.7892	0.4646	0.7027	0.106
Mof_H 	H 	0.8036	0.4681	0.6569	-0.005
Mof_C 	C 	0.8381	0.4529	0.7536	-0.251
Mof_H 	H 	0.8847	0.4506	0.7416	0.117
Mof_C 	C 	0.8688	0.411	0.9242	0.185
Mof_H 	H 	0.84	0.3702	0.9294	-0.027
Mof_H 	H 	0.8451	0.4508	0.9436	0.008
Mof_C 	C 	0.9358	0.4107	0.9639	-0.005
Mof_O 	O 	0.8825	0.4324	0.8555	-0.227
Mof_C 	C 	0.2973	0.2108	0.4646	0.101
Mof_H 	H 	0.3431	0.1964	0.4681	-0.002
Mof_C 	C 	0.2464	0.1619	0.4529	-0.241
Mof_H 	H 	0.2584	0.1153	0.4506	0.116
Mof_C 	C 	0.0758	0.1312	0.411	0.132
Mof_H 	H 	0.0706	0.16	0.3702	-0.006
Mof_H 	H 	0.0564	0.1549	0.4508	0.023
Mof_C 	C 	0.0361	0.0642	0.4107	0.054
Mof_O 	O 	0.1445	0.1175	0.4324	-0.208
Mof_C 	C 	0.7027	0.2108	0.5354	0.103
Mof_H 	H 	0.6569	0.1964	0.5319	-0.003
Mof_C 	C 	0.7536	0.1619	0.5471	-0.245
Mof_H 	H 	0.7416	0.1153	0.5494	0.119
Mof_C 	C 	0.9242	0.1312	0.589	0.143
Mof_H 	H 	0.9294	0.16	0.6298	-0.016
Mof_H 	H 	0.9436	0.1549	0.5492	0.014
Mof_C 	C 	0.9639	0.0642	0.5893	-0.004
Mof_O 	O 	0.8555	0.1175	0.5676	-0.241
Mof_C 	C 	0.2973	0.7892	0.5354	0.103
Mof_H 	H 	0.3431	0.8036	0.5319	-0.004
Mof_C 	C 	0.2464	0.8381	0.5471	-0.247
Mof_H 	H 	0.2584	0.8847	0.5494	0.114
Mof_C 	C 	0.0758	0.8688	0.589	0.174
Mof_H 	H 	0.0706	0.84	0.6298	-0.018
Mof_H 	H 	0.0564	0.8451	0.5492	0.018
Mof_C 	C 	0.0361	0.9358	0.5893	0.052
Mof_O 	O 	0.1445	0.8825	0.5676	-0.194
Mof_C 	C 	0.7027	0.7892	0.4646	0.106
Mof_H 	H 	0.6569	0.8036	0.4681	-0.005
Mof_C 	C 	0.7536	0.8381	0.4529	-0.251
Mof_H 	H 	0.7416	0.8847	0.4506	0.117
Mof_C 	C 	0.9242	0.8688	0.411	0.185
Mof_H 	H 	0.9294	0.84	0.3702	-0.027
Mof_H 	H 	0.9436	0.8451	0.4508	0.008
Mof_C 	C 	0.9639	0.9358	0.4107	-0.005
Mof_O 	O 	0.8555	0.8825	0.4324	-0.227
Mof_C 	C 	0.2973	0.4646	0.7892	0.104
Mof_H 	H 	0.3431	0.4681	0.8036	-0.004
Mof_C 	C 	0.2464	0.4529	0.8381	-0.247
Mof_H 	H 	0.2584	0.4506	0.8847	0.114
Mof_C 	C 	0.0758	0.411	0.8688	0.174
Mof_H 	H 	0.0706	0.3702	0.84	-0.018
Mof_H 	H 	0.0564	0.4508	0.8451	0.018
Mof_C 	C 	0.0361	0.4107	0.9358	0.052
Mof_O 	O 	0.1445	0.4324	0.8825	-0.194
Mof_C 	C 	0.7027	0.5354	0.7892	0.106
Mof_H 	H 	0.6569	0.5319	0.8036	-0.005
Mof_C 	C 	0.7536	0.5471	0.8381	-0.251
Mof_H 	H 	0.7416	0.5494	0.8847	0.117
Mof_C 	C 	0.9242	0.589	0.8688	0.185
Mof_H 	H 	0.9294	0.6298	0.84	-0.028
Mof_H 	H 	0.9436	0.5492	0.8451	0.008
Mof_C 	C 	0.9639	0.5893	0.9358	-0.005
Mof_O 	O 	0.8555	0.5676	0.8825	-0.227
Mof_C 	C 	0.2973	0.5354	0.2108	0.101
Mof_H 	H 	0.3431	0.5319	0.1964	-0.002
Mof_C 	C 	0.2464	0.5471	0.1619	-0.241
Mof_H 	H 	0.2584	0.5494	0.1153	0.116
Mof_C 	C 	0.0758	0.589	0.1312	0.133
Mof_H 	H 	0.0706	0.6298	0.16	-0.007
Mof_H 	H 	0.0564	0.5492	0.1549	0.023
Mof_C 	C 	0.0361	0.5893	0.0642	0.053
Mof_O 	O 	0.1445	0.5676	0.1175	-0.208
Mof_C 	C 	0.7027	0.4646	0.2108	0.103
Mof_H 	H 	0.6569	0.4681	0.1964	-0.003
Mof_C 	C 	0.7536	0.4529	0.1619	-0.245
Mof_H 	H 	0.7416	0.4506	0.1153	0.119
Mof_C 	C 	0.9242	0.411	0.1312	0.143
Mof_H 	H 	0.9294	0.3702	0.16	-0.015
Mof_H 	H 	0.9436	0.4508	0.1549	0.014
Mof_C 	C 	0.9639	0.4107	0.0642	-0.004
Mof_O 	O 	0.8555	0.4324	0.1175	-0.241
Mof_C 	C 	0.4646	0.2108	0.7027	0.103
Mof_H 	H 	0.4681	0.1964	0.6569	-0.003
Mof_C 	C 	0.4529	0.1619	0.7536	-0.245
Mof_H 	H 	0.4506	0.1153	0.7416	0.119
Mof_C 	C 	0.411	0.1312	0.9242	0.143
Mof_H 	H 	0.3702	0.16	0.9294	-0.015
Mof_H 	H 	0.4508	0.1549	0.9436	0.014
Mof_C 	C 	0.4107	0.0642	0.9639	-0.004
Mof_O 	O 	0.4324	0.1175	0.8555	-0.241
Mof_C 	C 	0.5354	0.2108	0.2973	0.101
Mof_H 	H 	0.5319	0.1964	0.3431	-0.002
Mof_C 	C 	0.5471	0.1619	0.2464	-0.241
Mof_H 	H 	0.5494	0.1153	0.2584	0.116
Mof_C 	C 	0.589	0.1312	0.0758	0.133
Mof_H 	H 	0.6298	0.16	0.0706	-0.007
Mof_H 	H 	0.5492	0.1549	0.0564	0.023
Mof_C 	C 	0.5893	0.0642	0.0361	0.053
Mof_O 	O 	0.5676	0.1175	0.1445	-0.208
Mof_C 	C 	0.5354	0.7892	0.7027	0.106
Mof_H 	H 	0.5319	0.8036	0.6569	-0.005
Mof_C 	C 	0.5471	0.8381	0.7536	-0.251
Mof_H 	H 	0.5494	0.8847	0.7416	0.117
Mof_C 	C 	0.589	0.8688	0.9242	0.185
Mof_H 	H 	0.6298	0.84	0.9294	-0.028
Mof_H 	H 	0.5492	0.8451	0.9436	0.008
Mof_C 	C 	0.5893	0.9358	0.9639	-0.005
Mof_O 	O 	0.5676	0.8825	0.8555	-0.227
Mof_C 	C 	0.4646	0.7892	0.2973	0.104
Mof_H 	H 	0.4681	0.8036	0.3431	-0.004
Mof_C 	C 	0.4529	0.8381	0.2464	-0.247
Mof_H 	H 	0.4506	0.8847	0.2584	0.114
Mof_C 	C 	0.411	0.8688	0.0758	0.174
Mof_H 	H 	0.3702	0.84	0.0706	-0.018
Mof_H 	H 	0.4508	0.8451	0.0564	0.018
Mof_C 	C 	0.4107	0.9358	0.0361	0.052
Mof_O 	O 	0.4324	0.8825	0.1445	-0.194
Mof_C 	C 	0.2108	0.2973	0.5354	0.101
Mof_H 	H 	0.1964	0.3431	0.5319	-0.002
Mof_C 	C 	0.1619	0.2464	0.5471	-0.241
Mof_H 	H 	0.1153	0.2584	0.5494	0.116
Mof_C 	C 	0.1312	0.0758	0.589	0.133
Mof_H 	H 	0.16	0.0706	0.6298	-0.007
Mof_H 	H 	0.1549	0.0564	0.5492	0.023
Mof_C 	C 	0.0642	0.0361	0.5893	0.053
Mof_O 	O 	0.1175	0.1445	0.5676	-0.208
Mof_C 	C 	0.2108	0.7027	0.4646	0.103
Mof_H 	H 	0.1964	0.6569	0.4681	-0.003
Mof_C 	C 	0.1619	0.7536	0.4529	-0.245
Mof_H 	H 	0.1153	0.7416	0.4506	0.119
Mof_C 	C 	0.1312	0.9242	0.411	0.143
Mof_H 	H 	0.16	0.9294	0.3702	-0.015
Mof_H 	H 	0.1549	0.9436	0.4508	0.014
Mof_C 	C 	0.0642	0.9639	0.4107	-0.004
Mof_O 	O 	0.1175	0.8555	0.4324	-0.241
Mof_C 	C 	0.7892	0.2973	0.4646	0.104
Mof_H 	H 	0.8036	0.3431	0.4681	-0.004
Mof_C 	C 	0.8381	0.2464	0.4529	-0.247
Mof_H 	H 	0.8847	0.2584	0.4506	0.114
Mof_C 	C 	0.8688	0.0758	0.411	0.174
Mof_H 	H 	0.84	0.0706	0.3702	-0.018
Mof_H 	H 	0.8451	0.0564	0.4508	0.018
Mof_C 	C 	0.9358	0.0361	0.4107	0.052
Mof_O 	O 	0.8825	0.1445	0.4324	-0.194
Mof_C 	C 	0.7892	0.7027	0.5354	0.106
Mof_H 	H 	0.8036	0.6569	0.5319	-0.005
Mof_C 	C 	0.8381	0.7536	0.5471	-0.251
Mof_H 	H 	0.8847	0.7416	0.5494	0.117
Mof_C 	C 	0.8688	0.9242	0.589	0.185
Mof_H 	H 	0.84	0.9294	0.6298	-0.028
Mof_H 	H 	0.8451	0.9436	0.5492	0.008
Mof_C 	C 	0.9358	0.9639	0.5893	-0.005
Mof_O 	O 	0.8825	0.8555	0.5676	-0.227
Mof_C 	C 	0.5354	0.7027	0.7892	0.106
Mof_H 	H 	0.5319	0.6569	0.8036	-0.005
Mof_C 	C 	0.5471	0.7536	0.8381	-0.251
Mof_H 	H 	0.5494	0.7416	0.8847	0.117
Mof_C 	C 	0.589	0.9242	0.8688	0.185
Mof_H 	H 	0.6298	0.9294	0.84	-0.028
Mof_H 	H 	0.5492	0.9436	0.8451	0.008
Mof_C 	C 	0.5893	0.9639	0.9358	-0.005
Mof_O 	O 	0.5676	0.8555	0.8825	-0.227
Mof_C 	C 	0.4646	0.2973	0.7892	0.104
Mof_H 	H 	0.4681	0.3431	0.8036	-0.004
Mof_C 	C 	0.4529	0.2464	0.8381	-0.247
Mof_H 	H 	0.4506	0.2584	0.8847	0.114
Mof_C 	C 	0.411	0.0758	0.8688	0.174
Mof_H 	H 	0.3702	0.0706	0.84	-0.018
Mof_H 	H 	0.4508	0.0564	0.8451	0.018
Mof_C 	C 	0.4107	0.0361	0.9358	0.052
Mof_O 	O 	0.4324	0.1445	0.8825	-0.194
Mof_C 	C 	0.4646	0.7027	0.2108	0.103
Mof_H 	H 	0.4681	0.6569	0.1964	-0.003
Mof_C 	C 	0.4529	0.7536	0.1619	-0.245
Mof_H 	H 	0.4506	0.7416	0.1153	0.119
Mof_C 	C 	0.411	0.9242	0.1312	0.143
Mof_H 	H 	0.3702	0.9294	0.16	-0.015
Mof_H 	H 	0.4508	0.9436	0.1549	0.014
Mof_C 	C 	0.4107	0.9639	0.0642	-0.004
Mof_O 	O 	0.4324	0.8555	0.1175	-0.241
Mof_C 	C 	0.5354	0.2973	0.2108	0.101
Mof_H 	H 	0.5319	0.3431	0.1964	-0.002
Mof_C 	C 	0.5471	0.2464	0.1619	-0.241
Mof_H 	H 	0.5494	0.2584	0.1153	0.116
Mof_C 	C 	0.589	0.0758	0.1312	0.133
Mof_H 	H 	0.6298	0.0706	0.16	-0.007
Mof_H 	H 	0.5492	0.0564	0.1549	0.023
Mof_C 	C 	0.5893	0.0361	0.0642	0.053
Mof_O 	O 	0.5676	0.1445	0.1175	-0.208
Mof_C 	C 	0.7892	0.5354	0.7027	0.106
Mof_H 	H 	0.8036	0.5319	0.6569	-0.005
Mof_C 	C 	0.8381	0.5471	0.7536	-0.251
Mof_H 	H 	0.8847	0.5494	0.7416	0.117
Mof_C 	C 	0.8688	0.589	0.9242	0.185
Mof_H 	H 	0.84	0.6298	0.9294	-0.028
Mof_H 	H 	0.8451	0.5492	0.9436	0.008
Mof_C 	C 	0.9358	0.5893	0.9639	-0.005
Mof_O 	O 	0.8825	0.5676	0.8555	-0.227
Mof_C 	C 	0.7892	0.4646	0.2973	0.104
Mof_H 	H 	0.8036	0.4681	0.3431	-0.004
Mof_C 	C 	0.8381	0.4529	0.2464	-0.247
Mof_H 	H 	0.8847	0.4506	0.2584	0.114
Mof_C 	C 	0.8688	0.411	0.0758	0.174
Mof_H 	H 	0.84	0.3702	0.0706	-0.018
Mof_H 	H 	0.8451	0.4508	0.0564	0.018
Mof_C 	C 	0.9358	0.4107	0.0361	0.052
Mof_O 	O 	0.8825	0.4324	0.1445	-0.194
Mof_C 	C 	0.2108	0.4646	0.7027	0.103
Mof_H 	H 	0.1964	0.4681	0.6569	-0.003
Mof_C 	C 	0.1619	0.4529	0.7536	-0.245
Mof_H 	H 	0.1153	0.4506	0.7416	0.119
Mof_C 	C 	0.1312	0.411	0.9242	0.143
Mof_H 	H 	0.16	0.3702	0.9294	-0.015
Mof_H 	H 	0.1549	0.4508	0.9436	0.014
Mof_C 	C 	0.0642	0.4107	0.9639	-0.004
Mof_O 	O 	0.1175	0.4324	0.8555	-0.241
Mof_C 	C 	0.2108	0.5354	0.2973	0.101
Mof_H 	H 	0.1964	0.5319	0.3431	-0.002
Mof_C 	C 	0.1619	0.5471	0.2464	-0.241
Mof_H 	H 	0.1153	0.5494	0.2584	0.116
Mof_C 	C 	0.1312	0.589	0.0758	0.133
Mof_H 	H 	0.16	0.6298	0.0706	-0.007
Mof_H 	H 	0.1549	0.5492	0.0564	0.023
Mof_C 	C 	0.0642	0.5893	0.0361	0.053
Mof_O 	O 	0.1175	0.5676	0.1445	-0.208
Mof_C 	C 	0.7027	0.7892	0.5354	0.106
Mof_H 	H 	0.6569	0.8036	0.5319	-0.005
Mof_C 	C 	0.7536	0.8381	0.5471	-0.251
Mof_H 	H 	0.7416	0.8847	0.5494	0.117
Mof_C 	C 	0.9242	0.8688	0.589	0.185
Mof_H 	H 	0.9294	0.84	0.6298	-0.028
Mof_H 	H 	0.9436	0.8451	0.5492	0.008
Mof_C 	C 	0.9639	0.9358	0.5893	-0.005
Mof_O 	O 	0.8555	0.8825	0.5676	-0.227
Mof_C 	C 	0.2973	0.7892	0.4646	0.104
Mof_H 	H 	0.3431	0.8036	0.4681	-0.004
Mof_C 	C 	0.2464	0.8381	0.4529	-0.247
Mof_H 	H 	0.2584	0.8847	0.4506	0.114
Mof_C 	C 	0.0758	0.8688	0.411	0.174
Mof_H 	H 	0.0706	0.84	0.3702	-0.018
Mof_H 	H 	0.0564	0.8451	0.4508	0.018
Mof_C 	C 	0.0361	0.9358	0.4107	0.052
Mof_O 	O 	0.1445	0.8825	0.4324	-0.194
Mof_C 	C 	0.7027	0.2108	0.4646	0.103
Mof_H 	H 	0.6569	0.1964	0.4681	-0.003
Mof_C 	C 	0.7536	0.1619	0.4529	-0.245
Mof_H 	H 	0.7416	0.1153	0.4506	0.119
Mof_C 	C 	0.9242	0.1312	0.411	0.143
Mof_H 	H 	0.9294	0.16	0.3702	-0.015
Mof_H 	H 	0.9436	0.1549	0.4508	0.014
Mof_C 	C 	0.9639	0.0642	0.4107	-0.004
Mof_O 	O 	0.8555	0.1175	0.4324	-0.241
Mof_C 	C 	0.2973	0.2108	0.5354	0.101
Mof_H 	H 	0.3431	0.1964	0.5319	-0.002
Mof_C 	C 	0.2464	0.1619	0.5471	-0.241
Mof_H 	H 	0.2584	0.1153	0.5494	0.116
Mof_C 	C 	0.0758	0.1312	0.589	0.133
Mof_H 	H 	0.0706	0.16	0.6298	-0.007
Mof_H 	H 	0.0564	0.1549	0.5492	0.023
Mof_C 	C 	0.0361	0.0642	0.5893	0.053
Mof_O 	O 	0.1445	0.1175	0.5676	-0.208
Mof_C 	C 	0.7027	0.5354	0.2108	0.103
Mof_H 	H 	0.6569	0.5319	0.1964	-0.003
Mof_C 	C 	0.7536	0.5471	0.1619	-0.245
Mof_H 	H 	0.7416	0.5494	0.1153	0.119
Mof_C 	C 	0.9242	0.589	0.1312	0.143
Mof_H 	H 	0.9294	0.6298	0.16	-0.016
Mof_H 	H 	0.9436	0.5492	0.1549	0.014
Mof_C 	C 	0.9639	0.5893	0.0642	-0.004
Mof_O 	O 	0.8555	0.5676	0.1175	-0.241
Mof_C 	C 	0.2973	0.4646	0.2108	0.101
Mof_H 	H 	0.3431	0.4681	0.1964	-0.002
Mof_C 	C 	0.2464	0.4529	0.1619	-0.241
Mof_H 	H 	0.2584	0.4506	0.1153	0.116
Mof_C 	C 	0.0758	0.411	0.1312	0.132
Mof_H 	H 	0.0706	0.3702	0.16	-0.006
Mof_H 	H 	0.0564	0.4508	0.1549	0.023
Mof_C 	C 	0.0361	0.4107	0.0642	0.054
Mof_O 	O 	0.1445	0.4324	0.1175	-0.208
Mof_C 	C 	0.7027	0.4646	0.7892	0.106
Mof_H 	H 	0.6569	0.4681	0.8036	-0.005
Mof_C 	C 	0.7536	0.4529	0.8381	-0.251
Mof_H 	H 	0.7416	0.4506	0.8847	0.117
Mof_C 	C 	0.9242	0.411	0.8688	0.185
Mof_H 	H 	0.9294	0.3702	0.84	-0.027
Mof_H 	H 	0.9436	0.4508	0.8451	0.008
Mof_C 	C 	0.9639	0.4107	0.9358	-0.005
Mof_O 	O 	0.8555	0.4324	0.8825	-0.227
Mof_C 	C 	0.2973	0.5354	0.7892	0.103
Mof_H 	H 	0.3431	0.5319	0.8036	-0.004
Mof_C 	C 	0.2464	0.5471	0.8381	-0.247
Mof_H 	H 	0.2584	0.5494	0.8847	0.114
Mof_C 	C 	0.0758	0.589	0.8688	0.174
Mof_H 	H 	0.0706	0.6298	0.84	-0.018
Mof_H 	H 	0.0564	0.5492	0.8451	0.018
Mof_C 	C 	0.0361	0.5893	0.9358	0.052
Mof_O 	O 	0.1445	0.5676	0.8825	-0.194
Mof_C 	C 	0.5354	0.7892	0.2973	0.103
Mof_H 	H 	0.5319	0.8036	0.3431	-0.004
Mof_C 	C 	0.5471	0.8381	0.2464	-0.247
Mof_H 	H 	0.5494	0.8847	0.2584	0.114
Mof_C 	C 	0.589	0.8688	0.0758	0.174
Mof_H 	H 	0.6298	0.84	0.0706	-0.018
Mof_H 	H 	0.5492	0.8451	0.0564	0.018
Mof_C 	C 	0.5893	0.9358	0.0361	0.052
Mof_O 	O 	0.5676	0.8825	0.1445	-0.194
Mof_C 	C 	0.4646	0.7892	0.7027	0.106
Mof_H 	H 	0.4681	0.8036	0.6569	-0.005
Mof_C 	C 	0.4529	0.8381	0.7536	-0.251
Mof_H 	H 	0.4506	0.8847	0.7416	0.117
Mof_C 	C 	0.411	0.8688	0.9242	0.185
Mof_H 	H 	0.3702	0.84	0.9294	-0.027
Mof_H 	H 	0.4508	0.8451	0.9436	0.008
Mof_C 	C 	0.4107	0.9358	0.9639	-0.005
Mof_O 	O 	0.4324	0.8825	0.8555	-0.227
Mof_C 	C 	0.4646	0.2108	0.2973	0.101
Mof_H 	H 	0.4681	0.1964	0.3431	-0.002
Mof_C 	C 	0.4529	0.1619	0.2464	-0.241
Mof_H 	H 	0.4506	0.1153	0.2584	0.116
Mof_C 	C 	0.411	0.1312	0.0758	0.132
Mof_H 	H 	0.3702	0.16	0.0706	-0.006
Mof_H 	H 	0.4508	0.1549	0.0564	0.023
Mof_C 	C 	0.4107	0.0642	0.0361	0.054
Mof_O 	O 	0.4324	0.1175	0.1445	-0.208
Mof_C 	C 	0.5354	0.2108	0.7027	0.103
Mof_H 	H 	0.5319	0.1964	0.6569	-0.003
Mof_C 	C 	0.5471	0.1619	0.7536	-0.245
Mof_H 	H 	0.5494	0.1153	0.7416	0.119
Mof_C 	C 	0.589	0.1312	0.9242	0.143
Mof_H 	H 	0.6298	0.16	0.9294	-0.016
Mof_H 	H 	0.5492	0.1549	0.9436	0.014
Mof_C 	C 	0.5893	0.0642	0.9639	-0.004
Mof_O 	O 	0.5676	0.1175	0.8555	-0.241
Mof_C 	C 	0.7892	0.7027	0.4646	0.106
Mof_H 	H 	0.8036	0.6569	0.4681	-0.005
Mof_C 	C 	0.8381	0.7536	0.4529	-0.251
Mof_H 	H 	0.8847	0.7416	0.4506	0.117
Mof_C 	C 	0.8688	0.9242	0.411	0.185
Mof_H 	H 	0.84	0.9294	0.3702	-0.027
Mof_H 	H 	0.8451	0.9436	0.4508	0.008
Mof_C 	C 	0.9358	0.9639	0.4107	-0.005
Mof_O 	O 	0.8825	0.8555	0.4324	-0.227
Mof_C 	C 	0.7892	0.2973	0.5354	0.103
Mof_H 	H 	0.8036	0.3431	0.5319	-0.004
Mof_C 	C 	0.8381	0.2464	0.5471	-0.247
Mof_H 	H 	0.8847	0.2584	0.5494	0.114
Mof_C 	C 	0.8688	0.0758	0.589	0.174
Mof_H 	H 	0.84	0.0706	0.6298	-0.018
Mof_H 	H 	0.8451	0.0564	0.5492	0.018
Mof_C 	C 	0.9358	0.0361	0.5893	0.052
Mof_O 	O 	0.8825	0.1445	0.5676	-0.194
Mof_C 	C 	0.2108	0.7027	0.5354	0.103
Mof_H 	H 	0.1964	0.6569	0.5319	-0.003
Mof_C 	C 	0.1619	0.7536	0.5471	-0.245
Mof_H 	H 	0.1153	0.7416	0.5494	0.119
Mof_C 	C 	0.1312	0.9242	0.589	0.143
Mof_H 	H 	0.16	0.9294	0.6298	-0.016
Mof_H 	H 	0.1549	0.9436	0.5492	0.014
Mof_C 	C 	0.0642	0.9639	0.5893	-0.004
Mof_O 	O 	0.1175	0.8555	0.5676	-0.241
Mof_C 	C 	0.2108	0.2973	0.4646	0.101
Mof_H 	H 	0.1964	0.3431	0.4681	-0.002
Mof_C 	C 	0.1619	0.2464	0.4529	-0.241
Mof_H 	H 	0.1153	0.2584	0.4506	0.116
Mof_C 	C 	0.1312	0.0758	0.411	0.132
Mof_H 	H 	0.16	0.0706	0.3702	-0.006
Mof_H 	H 	0.1549	0.0564	0.4508	0.023
Mof_C 	C 	0.0642	0.0361	0.4107	0.054
Mof_O 	O 	0.1175	0.1445	0.4324	-0.208
Mof_Y 	Y 	0.5	0.35835	0.5	1.846
Mof_Y 	Y 	0.5	0.64165	0.5	1.845
Mof_Y 	Y 	0.5	0.5	0.35835	1.846
Mof_Y 	Y 	0.5	0.5	0.64165	1.845
Mof_Y 	Y 	0.35835	0.5	0.5	1.846
Mof_Y 	Y 	0.64165	0.5	0.5	1.845
Mof_O 	O 	0.5643	0.4357	0.5643	-0.723
Mof_H 	H 	0.5936	0.4064	0.5936	0.191
Mof_O 	O 	0.4357	0.5643	0.5643	-0.723
Mof_H 	H 	0.4064	0.5936	0.5936	0.191
Mof_O 	O 	0.4357	0.4357	0.4357	-0.723
Mof_H 	H 	0.4064	0.4064	0.4064	0.191
Mof_O 	O 	0.5643	0.5643	0.4357	-0.723
Mof_H 	H 	0.5936	0.5936	0.4064	0.191
Mof_O 	O 	0.4357	0.5643	0.4357	-0.723
Mof_H 	H 	0.4064	0.5936	0.4064	0.191
Mof_O 	O 	0.5643	0.4357	0.4357	-0.723
Mof_H 	H 	0.5936	0.4064	0.4064	0.191
Mof_O 	O 	0.4357	0.4357	0.5643	-0.723
Mof_H 	H 	0.4064	0.4064	0.5936	0.191
Mof_O 	O 	0.5643	0.5643	0.5643	-0.723
Mof_H 	H 	0.5936	0.5936	0.5936	0.191
Mof_C 	C 	0.5	0.3308	0.3308	0.472
Mof_C 	C 	0.5	0.6692	0.3308	0.473
Mof_C 	C 	0.5	0.3308	0.6692	0.473
Mof_C 	C 	0.5	0.6692	0.6692	0.474
Mof_C 	C 	0.3308	0.5	0.3308	0.472
Mof_C 	C 	0.3308	0.5	0.6692	0.473
Mof_C 	C 	0.6692	0.5	0.3308	0.473
Mof_C 	C 	0.6692	0.5	0.6692	0.474
Mof_C 	C 	0.3308	0.3308	0.5	0.472
Mof_C 	C 	0.6692	0.3308	0.5	0.473
Mof_C 	C 	0.3308	0.6692	0.5	0.473
Mof_C 	C 	0.6692	0.6692	0.5	0.474
Mof_O 	O 	0.5	0.3085	0.3922	-0.492
Mof_O 	O 	0.5	0.6915	0.3922	-0.493
Mof_O 	O 	0.5	0.3085	0.6078	-0.493
Mof_O 	O 	0.5	0.6915	0.6078	-0.493
Mof_O 	O 	0.3922	0.5	0.3085	-0.492
Mof_O 	O 	0.3922	0.5	0.6915	-0.493
Mof_O 	O 	0.6078	0.5	0.3085	-0.493
Mof_O 	O 	0.6078	0.5	0.6915	-0.493
Mof_O 	O 	0.3085	0.3922	0.5	-0.492
Mof_O 	O 	0.6915	0.3922	0.5	-0.493
Mof_O 	O 	0.3085	0.6078	0.5	-0.493
Mof_O 	O 	0.6915	0.6078	0.5	-0.493
Mof_O 	O 	0.3085	0.5	0.6078	-0.493
Mof_O 	O 	0.6915	0.5	0.6078	-0.493
Mof_O 	O 	0.3085	0.5	0.3922	-0.492
Mof_O 	O 	0.6915	0.5	0.3922	-0.493
Mof_O 	O 	0.5	0.3922	0.6915	-0.493
Mof_O 	O 	0.5	0.3922	0.3085	-0.492
Mof_O 	O 	0.5	0.6078	0.6915	-0.493
Mof_O 	O 	0.5	0.6078	0.3085	-0.493
Mof_O 	O 	0.3922	0.3085	0.5	-0.492
Mof_O 	O 	0.3922	0.6915	0.5	-0.493
Mof_O 	O 	0.6078	0.3085	0.5	-0.493
Mof_O 	O 	0.6078	0.6915	0.5	-0.493
Mof_C 	C 	0.4725	0.2781	0.2781	-0.124
Mof_C 	C 	0.447	0.1799	0.1799	0.308
Mof_C 	C 	0.5275	0.7219	0.2781	-0.125
Mof_C 	C 	0.553	0.8201	0.1799	0.317
Mof_C 	C 	0.5275	0.2781	0.7219	-0.125
Mof_C 	C 	0.553	0.1799	0.8201	0.317
Mof_C 	C 	0.4725	0.7219	0.7219	-0.127
Mof_C 	C 	0.447	0.8201	0.8201	0.326
Mof_C 	C 	0.2781	0.4725	0.2781	-0.124
Mof_C 	C 	0.1799	0.447	0.1799	0.308
Mof_C 	C 	0.2781	0.5275	0.7219	-0.125
Mof_C 	C 	0.1799	0.553	0.8201	0.317
Mof_C 	C 	0.7219	0.5275	0.2781	-0.125
Mof_C 	C 	0.8201	0.553	0.1799	0.317
Mof_C 	C 	0.7219	0.4725	0.7219	-0.127
Mof_C 	C 	0.8201	0.447	0.8201	0.326
Mof_C 	C 	0.2781	0.2781	0.4725	-0.124
Mof_C 	C 	0.1799	0.1799	0.447	0.308
Mof_C 	C 	0.7219	0.2781	0.5275	-0.125
Mof_C 	C 	0.8201	0.1799	0.553	0.317
Mof_C 	C 	0.2781	0.7219	0.5275	-0.125
Mof_C 	C 	0.1799	0.8201	0.553	0.317
Mof_C 	C 	0.7219	0.7219	0.4725	-0.127
Mof_C 	C 	0.8201	0.8201	0.447	0.326
Mof_C 	C 	0.2781	0.4725	0.7219	-0.125
Mof_C 	C 	0.1799	0.447	0.8201	0.317
Mof_C 	C 	0.7219	0.5275	0.7219	-0.127
Mof_C 	C 	0.8201	0.553	0.8201	0.326
Mof_C 	C 	0.2781	0.5275	0.2781	-0.124
Mof_C 	C 	0.1799	0.553	0.1799	0.308
Mof_C 	C 	0.7219	0.4725	0.2781	-0.125
Mof_C 	C 	0.8201	0.447	0.1799	0.317
Mof_C 	C 	0.4725	0.2781	0.7219	-0.125
Mof_C 	C 	0.447	0.1799	0.8201	0.317
Mof_C 	C 	0.5275	0.2781	0.2781	-0.124
Mof_C 	C 	0.553	0.1799	0.1799	0.308
Mof_C 	C 	0.5275	0.7219	0.7219	-0.127
Mof_C 	C 	0.553	0.8201	0.8201	0.326
Mof_C 	C 	0.4725	0.7219	0.2781	-0.125
Mof_C 	C 	0.447	0.8201	0.1799	0.317
Mof_C 	C 	0.2781	0.2781	0.5275	-0.124
Mof_C 	C 	0.1799	0.1799	0.553	0.308
Mof_C 	C 	0.2781	0.7219	0.4725	-0.125
Mof_C 	C 	0.1799	0.8201	0.447	0.317
Mof_C 	C 	0.7219	0.2781	0.4725	-0.125
Mof_C 	C 	0.8201	0.1799	0.447	0.317
Mof_C 	C 	0.7219	0.7219	0.5275	-0.127
Mof_C 	C 	0.8201	0.8201	0.553	0.326
Mof_C 	C 	0.4108	0.068	-0	-0.139
Mof_H 	H 	0.41075	0.11594	-0	0.041
Mof_C 	C 	0.5892	0.932	-0	-0.096
Mof_H 	H 	0.58925	0.88405	-0	0.019
Mof_C 	C 	0.5892	0.068	-0	-0.139
Mof_H 	H 	0.58925	0.11594	-0	0.041
Mof_C 	C 	0.4108	0.932	-0	-0.095
Mof_H 	H 	0.41075	0.88405	-0	0.019
Mof_C 	C 	-1.49959e-33	0.4108	0.068	-0.139
Mof_H 	H 	-4.42568e-34	0.41075	0.11594	0.041
Mof_C 	C 	-3.15965e-32	0.5892	0.932	-0.096
Mof_H 	H 	-1.77399e-32	0.58925	0.88405	0.019
Mof_C 	C 	-5.00868e-33	0.5892	0.068	-0.139
Mof_H 	H 	-1.09698e-32	0.58925	0.11594	0.041
Mof_C 	C 	-2.45783e-32	0.4108	0.932	-0.095
Mof_H 	H 	-1.07217e-32	0.41075	0.88405	0.019
Mof_C 	C 	0.068	-3.50909e-33	0.4108	-0.139
Mof_H 	H 	0.11594	-3.50909e-33	0.41075	0.041
Mof_C 	C 	0.932	0	0.5892	-0.096
Mof_H 	H 	0.88405	-7.01819e-33	0.58925	0.019
Mof_C 	C 	0.068	0	0.5892	-0.139
Mof_H 	H 	0.11594	-7.01819e-33	0.58925	0.041
Mof_C 	C 	0.932	-3.50909e-33	0.4108	-0.095
Mof_H 	H 	0.88405	-3.50909e-33	0.41075	0.019
Mof_C 	C 	0.068	0.4108	-0	-0.139
Mof_H 	H 	0.11594	0.41075	-0	0.041
Mof_C 	C 	0.932	0.5892	-0	-0.096
Mof_H 	H 	0.88405	0.58925	-0	0.019
Mof_C 	C 	0.068	0.5892	-0	-0.139
Mof_H 	H 	0.11594	0.58925	-0	0.041
Mof_C 	C 	0.932	0.4108	-0	-0.095
Mof_H 	H 	0.88405	0.41075	-0	0.019
Mof_C 	C 	0.4108	-1.40364e-32	0.932	-0.095
Mof_H 	H 	0.41075	-1.40364e-32	0.88405	0.019
Mof_C 	C 	0.5892	-8.77273e-34	0.068	-0.139
Mof_H 	H 	0.58925	-1.75455e-33	0.11594	0.041
Mof_C 	C 	0.5892	-1.40364e-32	0.932	-0.096
Mof_H 	H 	0.58925	-1.40364e-32	0.88405	0.019
Mof_C 	C 	0.4108	-8.77273e-34	0.068	-0.139
Mof_H 	H 	0.41075	-1.75455e-33	0.11594	0.041
Mof_C 	C 	-4.80904e-33	0.068	0.5892	-0.139
Mof_H 	H 	-1.1827e-32	0.11594	0.58925	0.041
Mof_C 	C 	-2.30234e-32	0.932	0.4108	-0.095
Mof_H 	H 	-8.98722e-33	0.88405	0.41075	0.019
Mof_C 	C 	-1.96884e-33	0.068	0.4108	-0.139
Mof_H 	H 	-1.96903e-33	0.11594	0.41075	0.041
Mof_C 	C 	-2.58636e-32	0.932	0.5892	-0.096
Mof_H 	H 	-1.88452e-32	0.88405	0.58925	0.019
_end
