data_functionalizedCrystal
_audit_creation_method	'EQeq! by Chris Wilmer'
_symmetry_space_group_name_H-M	'P1'
_symmetry_Int_Tables_number	1
_symmetry_cell_setting	triclinic
loop_
_symmetry_equiv_pos_as_xyz
  x,y,z
_cell_length_a	41.4694
_cell_length_b	41.4694
_cell_length_c	41.4694
_cell_angle_alpha	90
_cell_angle_beta	90
_cell_angle_gamma	90
loop_
_atom_site_label
_atom_site_type_symbol
_atom_site_fract_x
_atom_site_fract_y
_atom_site_fract_z
_atom_site_charge
Mof_O 	O 	0.17005	0.13208	0.08337	-0.403
Mof_C 	C 	0.16968	0.12819	0.01677	-0.034
Mof_H 	H 	0.183	0.1141	0.028	0.068
Mof_O 	O 	0.2098	0.12406	0.17264	-0.451
Mof_C 	C 	0.2182	0.1233	0.2577	-0.013
Mof_H 	H 	0.1965	0.1237	0.2637	0.05
Mof_O 	O 	0.17005	0.63208	0.58337	-0.404
Mof_C 	C 	0.16968	0.62819	0.51677	-0.014
Mof_H 	H 	0.183	0.6141	0.528	0.063
Mof_O 	O 	0.2098	0.62406	0.67264	-0.451
Mof_C 	C 	0.2182	0.6233	0.7577	-0.013
Mof_H 	H 	0.1965	0.6237	0.7637	0.05
Mof_O 	O 	0.67005	0.13208	0.58337	-0.404
Mof_C 	C 	0.66968	0.12819	0.51677	-0.014
Mof_H 	H 	0.683	0.1141	0.528	0.063
Mof_O 	O 	0.7098	0.12406	0.67264	-0.451
Mof_C 	C 	0.7182	0.1233	0.7577	-0.013
Mof_H 	H 	0.6965	0.1237	0.7637	0.05
Mof_O 	O 	0.67005	0.63208	0.08337	-0.403
Mof_C 	C 	0.66968	0.62819	0.01677	-0.033
Mof_H 	H 	0.683	0.6141	0.028	0.068
Mof_O 	O 	0.7098	0.62406	0.17264	-0.451
Mof_C 	C 	0.7182	0.6233	0.2577	-0.013
Mof_H 	H 	0.6965	0.6237	0.2637	0.05
Mof_O 	O 	0.82995	0.86792	0.08337	-0.403
Mof_C 	C 	0.83032	0.87181	0.01677	-0.033
Mof_H 	H 	0.817	0.8859	0.028	0.068
Mof_O 	O 	0.7902	0.87594	0.17264	-0.451
Mof_C 	C 	0.7818	0.8767	0.2577	-0.013
Mof_H 	H 	0.8035	0.8763	0.2637	0.05
Mof_O 	O 	0.82995	0.36792	0.58337	-0.404
Mof_C 	C 	0.83032	0.37181	0.51677	-0.014
Mof_H 	H 	0.817	0.3859	0.528	0.063
Mof_O 	O 	0.7902	0.37594	0.67264	-0.451
Mof_C 	C 	0.7818	0.3767	0.7577	-0.013
Mof_H 	H 	0.8035	0.3763	0.7637	0.05
Mof_O 	O 	0.32995	0.86792	0.58337	-0.404
Mof_C 	C 	0.33032	0.87181	0.51677	-0.014
Mof_H 	H 	0.317	0.8859	0.528	0.063
Mof_O 	O 	0.2902	0.87594	0.67264	-0.451
Mof_C 	C 	0.2818	0.8767	0.7577	-0.013
Mof_H 	H 	0.3035	0.8763	0.7637	0.05
Mof_O 	O 	0.32995	0.36792	0.08337	-0.403
Mof_C 	C 	0.33032	0.37181	0.01677	-0.033
Mof_H 	H 	0.317	0.3859	0.028	0.068
Mof_O 	O 	0.2902	0.37594	0.17264	-0.451
Mof_C 	C 	0.2818	0.3767	0.2577	-0.013
Mof_H 	H 	0.3035	0.3763	0.2637	0.05
Mof_O 	O 	0.82995	0.13208	0.91663	-0.405
Mof_C 	C 	0.83032	0.12819	0.98323	0.006
Mof_H 	H 	0.817	0.1141	0.972	0.057
Mof_O 	O 	0.7902	0.12406	0.82736	-0.451
Mof_C 	C 	0.7818	0.1233	0.7423	-0.013
Mof_H 	H 	0.8035	0.1237	0.7363	0.05
Mof_O 	O 	0.82995	0.63208	0.41663	-0.404
Mof_C 	C 	0.83032	0.62819	0.48323	-0.014
Mof_H 	H 	0.817	0.6141	0.472	0.063
Mof_O 	O 	0.7902	0.62406	0.32736	-0.451
Mof_C 	C 	0.7818	0.6233	0.2423	-0.013
Mof_H 	H 	0.8035	0.6237	0.2363	0.05
Mof_O 	O 	0.32995	0.13208	0.41663	-0.404
Mof_C 	C 	0.33032	0.12819	0.48323	-0.014
Mof_H 	H 	0.317	0.1141	0.472	0.063
Mof_O 	O 	0.2902	0.12406	0.32736	-0.451
Mof_C 	C 	0.2818	0.1233	0.2423	-0.013
Mof_H 	H 	0.3035	0.1237	0.2363	0.05
Mof_O 	O 	0.32995	0.63208	0.91663	-0.405
Mof_C 	C 	0.33032	0.62819	0.98323	0.006
Mof_H 	H 	0.317	0.6141	0.972	0.057
Mof_O 	O 	0.2902	0.62406	0.82736	-0.451
Mof_C 	C 	0.2818	0.6233	0.7423	-0.013
Mof_H 	H 	0.3035	0.6237	0.7363	0.05
Mof_O 	O 	0.17005	0.86792	0.91663	-0.405
Mof_C 	C 	0.16968	0.87181	0.98323	0.006
Mof_H 	H 	0.183	0.8859	0.972	0.058
Mof_O 	O 	0.2098	0.87594	0.82736	-0.45
Mof_C 	C 	0.2182	0.8767	0.7423	-0.012
Mof_H 	H 	0.1965	0.8763	0.7363	0.051
Mof_O 	O 	0.17005	0.36792	0.41663	-0.403
Mof_C 	C 	0.16968	0.37181	0.48323	-0.013
Mof_H 	H 	0.183	0.3859	0.472	0.064
Mof_O 	O 	0.2098	0.37594	0.32736	-0.45
Mof_C 	C 	0.2182	0.3767	0.2423	-0.012
Mof_H 	H 	0.1965	0.3763	0.2363	0.051
Mof_O 	O 	0.67005	0.86792	0.41663	-0.403
Mof_C 	C 	0.66968	0.87181	0.48323	-0.013
Mof_H 	H 	0.683	0.8859	0.472	0.064
Mof_O 	O 	0.7098	0.87594	0.32736	-0.45
Mof_C 	C 	0.7182	0.8767	0.2423	-0.012
Mof_H 	H 	0.6965	0.8763	0.2363	0.051
Mof_O 	O 	0.67005	0.36792	0.91663	-0.404
Mof_C 	C 	0.66968	0.37181	0.98323	0.007
Mof_H 	H 	0.683	0.3859	0.972	0.058
Mof_O 	O 	0.7098	0.37594	0.82736	-0.45
Mof_C 	C 	0.7182	0.3767	0.7423	-0.012
Mof_H 	H 	0.6965	0.3763	0.7363	0.051
Mof_O 	O 	0.08337	0.17005	0.13208	-0.402
Mof_C 	C 	0.01677	0.16968	0.12819	-0.033
Mof_H 	H 	0.028	0.183	0.1141	0.069
Mof_O 	O 	0.17264	0.2098	0.12406	-0.45
Mof_C 	C 	0.2577	0.2182	0.1233	-0.012
Mof_H 	H 	0.2637	0.1965	0.1237	0.051
Mof_O 	O 	0.08337	0.67005	0.63208	-0.402
Mof_C 	C 	0.01677	0.66968	0.62819	-0.032
Mof_H 	H 	0.028	0.683	0.6141	0.069
Mof_O 	O 	0.17264	0.7098	0.62406	-0.45
Mof_C 	C 	0.2577	0.7182	0.6233	-0.012
Mof_H 	H 	0.2637	0.6965	0.6237	0.051
Mof_O 	O 	0.58337	0.17005	0.63208	-0.403
Mof_C 	C 	0.51677	0.16968	0.62819	-0.013
Mof_H 	H 	0.528	0.183	0.6141	0.064
Mof_O 	O 	0.67264	0.2098	0.62406	-0.45
Mof_C 	C 	0.7577	0.2182	0.6233	-0.012
Mof_H 	H 	0.7637	0.1965	0.6237	0.051
Mof_O 	O 	0.58337	0.67005	0.13208	-0.403
Mof_C 	C 	0.51677	0.66968	0.12819	-0.013
Mof_H 	H 	0.528	0.683	0.1141	0.064
Mof_O 	O 	0.67264	0.7098	0.12406	-0.45
Mof_C 	C 	0.7577	0.7182	0.1233	-0.012
Mof_H 	H 	0.7637	0.6965	0.1237	0.051
Mof_O 	O 	0.08337	0.82995	0.86792	-0.402
Mof_C 	C 	0.01677	0.83032	0.87181	-0.032
Mof_H 	H 	0.028	0.817	0.8859	0.069
Mof_O 	O 	0.17264	0.7902	0.87594	-0.45
Mof_C 	C 	0.2577	0.7818	0.8767	-0.012
Mof_H 	H 	0.2637	0.8035	0.8763	0.051
Mof_O 	O 	0.08337	0.32995	0.36792	-0.402
Mof_C 	C 	0.01677	0.33032	0.37181	-0.032
Mof_H 	H 	0.028	0.317	0.3859	0.069
Mof_O 	O 	0.17264	0.2902	0.37594	-0.45
Mof_C 	C 	0.2577	0.2818	0.3767	-0.012
Mof_H 	H 	0.2637	0.3035	0.3763	0.051
Mof_O 	O 	0.58337	0.82995	0.36792	-0.403
Mof_C 	C 	0.51677	0.83032	0.37181	-0.013
Mof_H 	H 	0.528	0.817	0.3859	0.064
Mof_O 	O 	0.67264	0.7902	0.37594	-0.45
Mof_C 	C 	0.7577	0.7818	0.3767	-0.012
Mof_H 	H 	0.7637	0.8035	0.3763	0.051
Mof_O 	O 	0.58337	0.32995	0.86792	-0.403
Mof_C 	C 	0.51677	0.33032	0.87181	-0.013
Mof_H 	H 	0.528	0.317	0.8859	0.064
Mof_O 	O 	0.67264	0.2902	0.87594	-0.45
Mof_C 	C 	0.7577	0.2818	0.8767	-0.012
Mof_H 	H 	0.7637	0.3035	0.8763	0.051
Mof_O 	O 	0.91663	0.82995	0.13208	-0.404
Mof_C 	C 	0.98323	0.83032	0.12819	0.007
Mof_H 	H 	0.972	0.817	0.1141	0.058
Mof_O 	O 	0.82736	0.7902	0.12406	-0.45
Mof_C 	C 	0.7423	0.7818	0.1233	-0.012
Mof_H 	H 	0.7363	0.8035	0.1237	0.051
Mof_O 	O 	0.91663	0.32995	0.63208	-0.404
Mof_C 	C 	0.98323	0.33032	0.62819	0.007
Mof_H 	H 	0.972	0.317	0.6141	0.058
Mof_O 	O 	0.82736	0.2902	0.62406	-0.45
Mof_C 	C 	0.7423	0.2818	0.6233	-0.012
Mof_H 	H 	0.7363	0.3035	0.6237	0.051
Mof_O 	O 	0.41663	0.82995	0.63208	-0.403
Mof_C 	C 	0.48323	0.83032	0.62819	-0.013
Mof_H 	H 	0.472	0.817	0.6141	0.064
Mof_O 	O 	0.32736	0.7902	0.62406	-0.45
Mof_C 	C 	0.2423	0.7818	0.6233	-0.012
Mof_H 	H 	0.2363	0.8035	0.6237	0.051
Mof_O 	O 	0.41663	0.32995	0.13208	-0.403
Mof_C 	C 	0.48323	0.33032	0.12819	-0.013
Mof_H 	H 	0.472	0.317	0.1141	0.064
Mof_O 	O 	0.32736	0.2902	0.12406	-0.45
Mof_C 	C 	0.2423	0.2818	0.1233	-0.012
Mof_H 	H 	0.2363	0.3035	0.1237	0.051
Mof_O 	O 	0.91663	0.17005	0.86792	-0.404
Mof_C 	C 	0.98323	0.16968	0.87181	0.007
Mof_H 	H 	0.972	0.183	0.8859	0.058
Mof_O 	O 	0.82736	0.2098	0.87594	-0.45
Mof_C 	C 	0.7423	0.2182	0.8767	-0.012
Mof_H 	H 	0.7363	0.1965	0.8763	0.051
Mof_O 	O 	0.91663	0.67005	0.36792	-0.404
Mof_C 	C 	0.98323	0.66968	0.37181	0.007
Mof_H 	H 	0.972	0.683	0.3859	0.058
Mof_O 	O 	0.82736	0.7098	0.37594	-0.45
Mof_C 	C 	0.7423	0.7182	0.3767	-0.012
Mof_H 	H 	0.7363	0.6965	0.3763	0.051
Mof_O 	O 	0.41663	0.17005	0.36792	-0.403
Mof_C 	C 	0.48323	0.16968	0.37181	-0.013
Mof_H 	H 	0.472	0.183	0.3859	0.064
Mof_O 	O 	0.32736	0.2098	0.37594	-0.45
Mof_C 	C 	0.2423	0.2182	0.3767	-0.012
Mof_H 	H 	0.2363	0.1965	0.3763	0.051
Mof_O 	O 	0.41663	0.67005	0.86792	-0.403
Mof_C 	C 	0.48323	0.66968	0.87181	-0.013
Mof_H 	H 	0.472	0.683	0.8859	0.064
Mof_O 	O 	0.32736	0.7098	0.87594	-0.45
Mof_C 	C 	0.2423	0.7182	0.8767	-0.012
Mof_H 	H 	0.2363	0.6965	0.8763	0.051
Mof_O 	O 	0.13208	0.08337	0.17005	-0.402
Mof_C 	C 	0.12819	0.01677	0.16968	-0.033
Mof_H 	H 	0.1141	0.028	0.183	0.069
Mof_O 	O 	0.12406	0.17264	0.2098	-0.45
Mof_C 	C 	0.1233	0.2577	0.2182	-0.012
Mof_H 	H 	0.1237	0.2637	0.1965	0.051
Mof_O 	O 	0.13208	0.58337	0.67005	-0.403
Mof_C 	C 	0.12819	0.51677	0.66968	-0.013
Mof_H 	H 	0.1141	0.528	0.683	0.064
Mof_O 	O 	0.12406	0.67264	0.7098	-0.45
Mof_C 	C 	0.1233	0.7577	0.7182	-0.012
Mof_H 	H 	0.1237	0.7637	0.6965	0.051
Mof_O 	O 	0.63208	0.08337	0.67005	-0.402
Mof_C 	C 	0.62819	0.01677	0.66968	-0.032
Mof_H 	H 	0.6141	0.028	0.683	0.069
Mof_O 	O 	0.62406	0.17264	0.7098	-0.45
Mof_C 	C 	0.6233	0.2577	0.7182	-0.012
Mof_H 	H 	0.6237	0.2637	0.6965	0.051
Mof_O 	O 	0.63208	0.58337	0.17005	-0.403
Mof_C 	C 	0.62819	0.51677	0.16968	-0.013
Mof_H 	H 	0.6141	0.528	0.183	0.064
Mof_O 	O 	0.62406	0.67264	0.2098	-0.45
Mof_C 	C 	0.6233	0.7577	0.2182	-0.012
Mof_H 	H 	0.6237	0.7637	0.1965	0.051
Mof_O 	O 	0.86792	0.08337	0.82995	-0.402
Mof_C 	C 	0.87181	0.01677	0.83032	-0.032
Mof_H 	H 	0.8859	0.028	0.817	0.069
Mof_O 	O 	0.87594	0.17264	0.7902	-0.45
Mof_C 	C 	0.8767	0.2577	0.7818	-0.012
Mof_H 	H 	0.8763	0.2637	0.8035	0.051
Mof_O 	O 	0.86792	0.58337	0.32995	-0.403
Mof_C 	C 	0.87181	0.51677	0.33032	-0.013
Mof_H 	H 	0.8859	0.528	0.317	0.064
Mof_O 	O 	0.87594	0.67264	0.2902	-0.45
Mof_C 	C 	0.8767	0.7577	0.2818	-0.012
Mof_H 	H 	0.8763	0.7637	0.3035	0.051
Mof_O 	O 	0.36792	0.08337	0.32995	-0.402
Mof_C 	C 	0.37181	0.01677	0.33032	-0.032
Mof_H 	H 	0.3859	0.028	0.317	0.069
Mof_O 	O 	0.37594	0.17264	0.2902	-0.45
Mof_C 	C 	0.3767	0.2577	0.2818	-0.012
Mof_H 	H 	0.3763	0.2637	0.3035	0.051
Mof_O 	O 	0.36792	0.58337	0.82995	-0.403
Mof_C 	C 	0.37181	0.51677	0.83032	-0.013
Mof_H 	H 	0.3859	0.528	0.817	0.064
Mof_O 	O 	0.37594	0.67264	0.7902	-0.45
Mof_C 	C 	0.3767	0.7577	0.7818	-0.012
Mof_H 	H 	0.3763	0.7637	0.8035	0.051
Mof_O 	O 	0.13208	0.91663	0.82995	-0.404
Mof_C 	C 	0.12819	0.98323	0.83032	0.007
Mof_H 	H 	0.1141	0.972	0.817	0.058
Mof_O 	O 	0.12406	0.82736	0.7902	-0.45
Mof_C 	C 	0.1233	0.7423	0.7818	-0.012
Mof_H 	H 	0.1237	0.7363	0.8035	0.051
Mof_O 	O 	0.13208	0.41663	0.32995	-0.403
Mof_C 	C 	0.12819	0.48323	0.33032	-0.013
Mof_H 	H 	0.1141	0.472	0.317	0.064
Mof_O 	O 	0.12406	0.32736	0.2902	-0.45
Mof_C 	C 	0.1233	0.2423	0.2818	-0.012
Mof_H 	H 	0.1237	0.2363	0.3035	0.051
Mof_O 	O 	0.63208	0.91663	0.32995	-0.404
Mof_C 	C 	0.62819	0.98323	0.33032	0.007
Mof_H 	H 	0.6141	0.972	0.317	0.058
Mof_O 	O 	0.62406	0.82736	0.2902	-0.45
Mof_C 	C 	0.6233	0.7423	0.2818	-0.012
Mof_H 	H 	0.6237	0.7363	0.3035	0.051
Mof_O 	O 	0.63208	0.41663	0.82995	-0.403
Mof_C 	C 	0.62819	0.48323	0.83032	-0.013
Mof_H 	H 	0.6141	0.472	0.817	0.064
Mof_O 	O 	0.62406	0.32736	0.7902	-0.45
Mof_C 	C 	0.6233	0.2423	0.7818	-0.012
Mof_H 	H 	0.6237	0.2363	0.8035	0.051
Mof_O 	O 	0.86792	0.91663	0.17005	-0.404
Mof_C 	C 	0.87181	0.98323	0.16968	0.007
Mof_H 	H 	0.8859	0.972	0.183	0.058
Mof_O 	O 	0.87594	0.82736	0.2098	-0.45
Mof_C 	C 	0.8767	0.7423	0.2182	-0.012
Mof_H 	H 	0.8763	0.7363	0.1965	0.051
Mof_O 	O 	0.86792	0.41663	0.67005	-0.403
Mof_C 	C 	0.87181	0.48323	0.66968	-0.013
Mof_H 	H 	0.8859	0.472	0.683	0.064
Mof_O 	O 	0.87594	0.32736	0.7098	-0.45
Mof_C 	C 	0.8767	0.2423	0.7182	-0.012
Mof_H 	H 	0.8763	0.2363	0.6965	0.051
Mof_O 	O 	0.36792	0.91663	0.67005	-0.404
Mof_C 	C 	0.37181	0.98323	0.66968	0.007
Mof_H 	H 	0.3859	0.972	0.683	0.058
Mof_O 	O 	0.37594	0.82736	0.7098	-0.45
Mof_C 	C 	0.3767	0.7423	0.7182	-0.012
Mof_H 	H 	0.3763	0.7363	0.6965	0.051
Mof_O 	O 	0.36792	0.41663	0.17005	-0.403
Mof_C 	C 	0.37181	0.48323	0.16968	-0.013
Mof_H 	H 	0.3859	0.472	0.183	0.064
Mof_O 	O 	0.37594	0.32736	0.2098	-0.45
Mof_C 	C 	0.3767	0.2423	0.2182	-0.012
Mof_H 	H 	0.3763	0.2363	0.1965	0.051
Mof_O 	O 	0.13208	0.17005	0.91663	-0.404
Mof_C 	C 	0.12819	0.16968	0.98323	0.007
Mof_H 	H 	0.1141	0.183	0.972	0.058
Mof_O 	O 	0.12406	0.2098	0.82736	-0.45
Mof_C 	C 	0.1233	0.2182	0.7423	-0.012
Mof_H 	H 	0.1237	0.1965	0.7363	0.051
Mof_O 	O 	0.13208	0.67005	0.41663	-0.403
Mof_C 	C 	0.12819	0.66968	0.48323	-0.013
Mof_H 	H 	0.1141	0.683	0.472	0.064
Mof_O 	O 	0.12406	0.7098	0.32736	-0.45
Mof_C 	C 	0.1233	0.7182	0.2423	-0.012
Mof_H 	H 	0.1237	0.6965	0.2363	0.051
Mof_O 	O 	0.63208	0.17005	0.41663	-0.403
Mof_C 	C 	0.62819	0.16968	0.48323	-0.013
Mof_H 	H 	0.6141	0.183	0.472	0.064
Mof_O 	O 	0.62406	0.2098	0.32736	-0.45
Mof_C 	C 	0.6233	0.2182	0.2423	-0.012
Mof_H 	H 	0.6237	0.1965	0.2363	0.051
Mof_O 	O 	0.63208	0.67005	0.91663	-0.404
Mof_C 	C 	0.62819	0.66968	0.98323	0.007
Mof_H 	H 	0.6141	0.683	0.972	0.058
Mof_O 	O 	0.62406	0.7098	0.82736	-0.45
Mof_C 	C 	0.6233	0.7182	0.7423	-0.012
Mof_H 	H 	0.6237	0.6965	0.7363	0.051
Mof_O 	O 	0.86792	0.82995	0.91663	-0.404
Mof_C 	C 	0.87181	0.83032	0.98323	0.007
Mof_H 	H 	0.8859	0.817	0.972	0.058
Mof_O 	O 	0.87594	0.7902	0.82736	-0.45
Mof_C 	C 	0.8767	0.7818	0.7423	-0.012
Mof_H 	H 	0.8763	0.8035	0.7363	0.051
Mof_O 	O 	0.86792	0.32995	0.41663	-0.403
Mof_C 	C 	0.87181	0.33032	0.48323	-0.013
Mof_H 	H 	0.8859	0.317	0.472	0.064
Mof_O 	O 	0.87594	0.2902	0.32736	-0.45
Mof_C 	C 	0.8767	0.2818	0.2423	-0.012
Mof_H 	H 	0.8763	0.3035	0.2363	0.051
Mof_O 	O 	0.36792	0.82995	0.41663	-0.403
Mof_C 	C 	0.37181	0.83032	0.48323	-0.013
Mof_H 	H 	0.3859	0.817	0.472	0.064
Mof_O 	O 	0.37594	0.7902	0.32736	-0.45
Mof_C 	C 	0.3767	0.7818	0.2423	-0.012
Mof_H 	H 	0.3763	0.8035	0.2363	0.051
Mof_O 	O 	0.36792	0.32995	0.91663	-0.404
Mof_C 	C 	0.37181	0.33032	0.98323	0.007
Mof_H 	H 	0.3859	0.317	0.972	0.058
Mof_O 	O 	0.37594	0.2902	0.82736	-0.45
Mof_C 	C 	0.3767	0.2818	0.7423	-0.012
Mof_H 	H 	0.3763	0.3035	0.7363	0.051
Mof_O 	O 	0.13208	0.82995	0.08337	-0.402
Mof_C 	C 	0.12819	0.83032	0.01677	-0.032
Mof_H 	H 	0.1141	0.817	0.028	0.069
Mof_O 	O 	0.12406	0.7902	0.17264	-0.45
Mof_C 	C 	0.1233	0.7818	0.2577	-0.012
Mof_H 	H 	0.1237	0.8035	0.2637	0.051
Mof_O 	O 	0.13208	0.32995	0.58337	-0.403
Mof_C 	C 	0.12819	0.33032	0.51677	-0.013
Mof_H 	H 	0.1141	0.317	0.528	0.064
Mof_O 	O 	0.12406	0.2902	0.67264	-0.45
Mof_C 	C 	0.1233	0.2818	0.7577	-0.012
Mof_H 	H 	0.1237	0.3035	0.7637	0.051
Mof_O 	O 	0.63208	0.82995	0.58337	-0.403
Mof_C 	C 	0.62819	0.83032	0.51677	-0.013
Mof_H 	H 	0.6141	0.817	0.528	0.064
Mof_O 	O 	0.62406	0.7902	0.67264	-0.45
Mof_C 	C 	0.6233	0.7818	0.7577	-0.012
Mof_H 	H 	0.6237	0.8035	0.7637	0.051
Mof_O 	O 	0.63208	0.32995	0.08337	-0.402
Mof_C 	C 	0.62819	0.33032	0.01677	-0.032
Mof_H 	H 	0.6141	0.317	0.028	0.069
Mof_O 	O 	0.62406	0.2902	0.17264	-0.45
Mof_C 	C 	0.6233	0.2818	0.2577	-0.012
Mof_H 	H 	0.6237	0.3035	0.2637	0.051
Mof_O 	O 	0.86792	0.17005	0.08337	-0.402
Mof_C 	C 	0.87181	0.16968	0.01677	-0.032
Mof_H 	H 	0.8859	0.183	0.028	0.069
Mof_O 	O 	0.87594	0.2098	0.17264	-0.45
Mof_C 	C 	0.8767	0.2182	0.2577	-0.012
Mof_H 	H 	0.8763	0.1965	0.2637	0.051
Mof_O 	O 	0.86792	0.67005	0.58337	-0.403
Mof_C 	C 	0.87181	0.66968	0.51677	-0.013
Mof_H 	H 	0.8859	0.683	0.528	0.064
Mof_O 	O 	0.87594	0.7098	0.67264	-0.45
Mof_C 	C 	0.8767	0.7182	0.7577	-0.012
Mof_H 	H 	0.8763	0.6965	0.7637	0.051
Mof_O 	O 	0.36792	0.17005	0.58337	-0.403
Mof_C 	C 	0.37181	0.16968	0.51677	-0.013
Mof_H 	H 	0.3859	0.183	0.528	0.064
Mof_O 	O 	0.37594	0.2098	0.67264	-0.45
Mof_C 	C 	0.3767	0.2182	0.7577	-0.012
Mof_H 	H 	0.3763	0.1965	0.7637	0.051
Mof_O 	O 	0.36792	0.67005	0.08337	-0.402
Mof_C 	C 	0.37181	0.66968	0.01677	-0.032
Mof_H 	H 	0.3859	0.683	0.028	0.069
Mof_O 	O 	0.37594	0.7098	0.17264	-0.45
Mof_C 	C 	0.3767	0.7182	0.2577	-0.012
Mof_H 	H 	0.3763	0.6965	0.2637	0.051
Mof_O 	O 	0.17005	0.08337	0.86792	-0.402
Mof_C 	C 	0.16968	0.01677	0.87181	-0.032
Mof_H 	H 	0.183	0.028	0.8859	0.069
Mof_O 	O 	0.2098	0.17264	0.87594	-0.45
Mof_C 	C 	0.2182	0.2577	0.8767	-0.012
Mof_H 	H 	0.1965	0.2637	0.8763	0.051
Mof_O 	O 	0.17005	0.58337	0.36792	-0.403
Mof_C 	C 	0.16968	0.51677	0.37181	-0.013
Mof_H 	H 	0.183	0.528	0.3859	0.064
Mof_O 	O 	0.2098	0.67264	0.37594	-0.45
Mof_C 	C 	0.2182	0.7577	0.3767	-0.012
Mof_H 	H 	0.1965	0.7637	0.3763	0.051
Mof_O 	O 	0.67005	0.08337	0.36792	-0.402
Mof_C 	C 	0.66968	0.01677	0.37181	-0.032
Mof_H 	H 	0.683	0.028	0.3859	0.069
Mof_O 	O 	0.7098	0.17264	0.37594	-0.45
Mof_C 	C 	0.7182	0.2577	0.3767	-0.012
Mof_H 	H 	0.6965	0.2637	0.3763	0.051
Mof_O 	O 	0.67005	0.58337	0.86792	-0.403
Mof_C 	C 	0.66968	0.51677	0.87181	-0.013
Mof_H 	H 	0.683	0.528	0.8859	0.064
Mof_O 	O 	0.7098	0.67264	0.87594	-0.45
Mof_C 	C 	0.7182	0.7577	0.8767	-0.012
Mof_H 	H 	0.6965	0.7637	0.8763	0.051
Mof_O 	O 	0.82995	0.08337	0.13208	-0.402
Mof_C 	C 	0.83032	0.01677	0.12819	-0.032
Mof_H 	H 	0.817	0.028	0.1141	0.069
Mof_O 	O 	0.7902	0.17264	0.12406	-0.45
Mof_C 	C 	0.7818	0.2577	0.1233	-0.012
Mof_H 	H 	0.8035	0.2637	0.1237	0.051
Mof_O 	O 	0.82995	0.58337	0.63208	-0.403
Mof_C 	C 	0.83032	0.51677	0.62819	-0.013
Mof_H 	H 	0.817	0.528	0.6141	0.064
Mof_O 	O 	0.7902	0.67264	0.62406	-0.45
Mof_C 	C 	0.7818	0.7577	0.6233	-0.012
Mof_H 	H 	0.8035	0.7637	0.6237	0.051
Mof_O 	O 	0.32995	0.08337	0.63208	-0.402
Mof_C 	C 	0.33032	0.01677	0.62819	-0.032
Mof_H 	H 	0.317	0.028	0.6141	0.069
Mof_O 	O 	0.2902	0.17264	0.62406	-0.45
Mof_C 	C 	0.2818	0.2577	0.6233	-0.012
Mof_H 	H 	0.3035	0.2637	0.6237	0.051
Mof_O 	O 	0.32995	0.58337	0.13208	-0.403
Mof_C 	C 	0.33032	0.51677	0.12819	-0.013
Mof_H 	H 	0.317	0.528	0.1141	0.064
Mof_O 	O 	0.2902	0.67264	0.12406	-0.45
Mof_C 	C 	0.2818	0.7577	0.1233	-0.012
Mof_H 	H 	0.3035	0.7637	0.1237	0.051
Mof_O 	O 	0.82995	0.91663	0.86792	-0.404
Mof_C 	C 	0.83032	0.98323	0.87181	0.007
Mof_H 	H 	0.817	0.972	0.8859	0.058
Mof_O 	O 	0.7902	0.82736	0.87594	-0.45
Mof_C 	C 	0.7818	0.7423	0.8767	-0.012
Mof_H 	H 	0.8035	0.7363	0.8763	0.051
Mof_O 	O 	0.82995	0.41663	0.36792	-0.403
Mof_C 	C 	0.83032	0.48323	0.37181	-0.013
Mof_H 	H 	0.817	0.472	0.3859	0.064
Mof_O 	O 	0.7902	0.32736	0.37594	-0.45
Mof_C 	C 	0.7818	0.2423	0.3767	-0.012
Mof_H 	H 	0.8035	0.2363	0.3763	0.051
Mof_O 	O 	0.32995	0.91663	0.36792	-0.404
Mof_C 	C 	0.33032	0.98323	0.37181	0.007
Mof_H 	H 	0.317	0.972	0.3859	0.058
Mof_O 	O 	0.2902	0.82736	0.37594	-0.45
Mof_C 	C 	0.2818	0.7423	0.3767	-0.012
Mof_H 	H 	0.3035	0.7363	0.3763	0.051
Mof_O 	O 	0.32995	0.41663	0.86792	-0.403
Mof_C 	C 	0.33032	0.48323	0.87181	-0.013
Mof_H 	H 	0.317	0.472	0.8859	0.064
Mof_O 	O 	0.2902	0.32736	0.87594	-0.45
Mof_C 	C 	0.2818	0.2423	0.8767	-0.012
Mof_H 	H 	0.3035	0.2363	0.8763	0.051
Mof_O 	O 	0.17005	0.91663	0.13208	-0.404
Mof_C 	C 	0.16968	0.98323	0.12819	0.007
Mof_H 	H 	0.183	0.972	0.1141	0.058
Mof_O 	O 	0.2098	0.82736	0.12406	-0.45
Mof_C 	C 	0.2182	0.7423	0.1233	-0.012
Mof_H 	H 	0.1965	0.7363	0.1237	0.051
Mof_O 	O 	0.17005	0.41663	0.63208	-0.403
Mof_C 	C 	0.16968	0.48323	0.62819	-0.013
Mof_H 	H 	0.183	0.472	0.6141	0.064
Mof_O 	O 	0.2098	0.32736	0.62406	-0.45
Mof_C 	C 	0.2182	0.2423	0.6233	-0.012
Mof_H 	H 	0.1965	0.2363	0.6237	0.051
Mof_O 	O 	0.67005	0.91663	0.63208	-0.404
Mof_C 	C 	0.66968	0.98323	0.62819	0.007
Mof_H 	H 	0.683	0.972	0.6141	0.058
Mof_O 	O 	0.7098	0.82736	0.62406	-0.45
Mof_C 	C 	0.7182	0.7423	0.6233	-0.012
Mof_H 	H 	0.6965	0.7363	0.6237	0.051
Mof_O 	O 	0.67005	0.41663	0.13208	-0.403
Mof_C 	C 	0.66968	0.48323	0.12819	-0.013
Mof_H 	H 	0.683	0.472	0.1141	0.064
Mof_O 	O 	0.7098	0.32736	0.12406	-0.45
Mof_C 	C 	0.7182	0.2423	0.1233	-0.012
Mof_H 	H 	0.6965	0.2363	0.1237	0.051
Mof_O 	O 	0.08337	0.13208	0.82995	-0.402
Mof_C 	C 	0.01677	0.12819	0.83032	-0.032
Mof_H 	H 	0.028	0.1141	0.817	0.069
Mof_O 	O 	0.17264	0.12406	0.7902	-0.45
Mof_C 	C 	0.2577	0.1233	0.7818	-0.012
Mof_H 	H 	0.2637	0.1237	0.8035	0.051
Mof_O 	O 	0.08337	0.63208	0.32995	-0.402
Mof_C 	C 	0.01677	0.62819	0.33032	-0.032
Mof_H 	H 	0.028	0.6141	0.317	0.069
Mof_O 	O 	0.17264	0.62406	0.2902	-0.45
Mof_C 	C 	0.2577	0.6233	0.2818	-0.012
Mof_H 	H 	0.2637	0.6237	0.3035	0.051
Mof_O 	O 	0.58337	0.13208	0.32995	-0.403
Mof_C 	C 	0.51677	0.12819	0.33032	-0.013
Mof_H 	H 	0.528	0.1141	0.317	0.064
Mof_O 	O 	0.67264	0.12406	0.2902	-0.45
Mof_C 	C 	0.7577	0.1233	0.2818	-0.012
Mof_H 	H 	0.7637	0.1237	0.3035	0.051
Mof_O 	O 	0.58337	0.63208	0.82995	-0.403
Mof_C 	C 	0.51677	0.62819	0.83032	-0.013
Mof_H 	H 	0.528	0.6141	0.817	0.064
Mof_O 	O 	0.67264	0.62406	0.7902	-0.45
Mof_C 	C 	0.7577	0.6233	0.7818	-0.012
Mof_H 	H 	0.7637	0.6237	0.8035	0.051
Mof_O 	O 	0.08337	0.86792	0.17005	-0.402
Mof_C 	C 	0.01677	0.87181	0.16968	-0.032
Mof_H 	H 	0.028	0.8859	0.183	0.069
Mof_O 	O 	0.17264	0.87594	0.2098	-0.45
Mof_C 	C 	0.2577	0.8767	0.2182	-0.012
Mof_H 	H 	0.2637	0.8763	0.1965	0.051
Mof_O 	O 	0.08337	0.36792	0.67005	-0.402
Mof_C 	C 	0.01677	0.37181	0.66968	-0.032
Mof_H 	H 	0.028	0.3859	0.683	0.069
Mof_O 	O 	0.17264	0.37594	0.7098	-0.45
Mof_C 	C 	0.2577	0.3767	0.7182	-0.012
Mof_H 	H 	0.2637	0.3763	0.6965	0.051
Mof_O 	O 	0.58337	0.86792	0.67005	-0.403
Mof_C 	C 	0.51677	0.87181	0.66968	-0.013
Mof_H 	H 	0.528	0.8859	0.683	0.064
Mof_O 	O 	0.67264	0.87594	0.7098	-0.45
Mof_C 	C 	0.7577	0.8767	0.7182	-0.012
Mof_H 	H 	0.7637	0.8763	0.6965	0.051
Mof_O 	O 	0.58337	0.36792	0.17005	-0.403
Mof_C 	C 	0.51677	0.37181	0.16968	-0.013
Mof_H 	H 	0.528	0.3859	0.183	0.064
Mof_O 	O 	0.67264	0.37594	0.2098	-0.45
Mof_C 	C 	0.7577	0.3767	0.2182	-0.012
Mof_H 	H 	0.7637	0.3763	0.1965	0.051
Mof_O 	O 	0.91663	0.13208	0.17005	-0.404
Mof_C 	C 	0.98323	0.12819	0.16968	0.007
Mof_H 	H 	0.972	0.1141	0.183	0.058
Mof_O 	O 	0.82736	0.12406	0.2098	-0.45
Mof_C 	C 	0.7423	0.1233	0.2182	-0.012
Mof_H 	H 	0.7363	0.1237	0.1965	0.051
Mof_O 	O 	0.91663	0.63208	0.67005	-0.404
Mof_C 	C 	0.98323	0.62819	0.66968	0.007
Mof_H 	H 	0.972	0.6141	0.683	0.058
Mof_O 	O 	0.82736	0.62406	0.7098	-0.45
Mof_C 	C 	0.7423	0.6233	0.7182	-0.012
Mof_H 	H 	0.7363	0.6237	0.6965	0.051
Mof_O 	O 	0.41663	0.13208	0.67005	-0.403
Mof_C 	C 	0.48323	0.12819	0.66968	-0.013
Mof_H 	H 	0.472	0.1141	0.683	0.064
Mof_O 	O 	0.32736	0.12406	0.7098	-0.45
Mof_C 	C 	0.2423	0.1233	0.7182	-0.012
Mof_H 	H 	0.2363	0.1237	0.6965	0.051
Mof_O 	O 	0.41663	0.63208	0.17005	-0.403
Mof_C 	C 	0.48323	0.62819	0.16968	-0.013
Mof_H 	H 	0.472	0.6141	0.183	0.064
Mof_O 	O 	0.32736	0.62406	0.2098	-0.45
Mof_C 	C 	0.2423	0.6233	0.2182	-0.012
Mof_H 	H 	0.2363	0.6237	0.1965	0.051
Mof_O 	O 	0.91663	0.86792	0.82995	-0.404
Mof_C 	C 	0.98323	0.87181	0.83032	0.007
Mof_H 	H 	0.972	0.8859	0.817	0.058
Mof_O 	O 	0.82736	0.87594	0.7902	-0.45
Mof_C 	C 	0.7423	0.8767	0.7818	-0.012
Mof_H 	H 	0.7363	0.8763	0.8035	0.051
Mof_O 	O 	0.91663	0.36792	0.32995	-0.404
Mof_C 	C 	0.98323	0.37181	0.33032	0.007
Mof_H 	H 	0.972	0.3859	0.317	0.058
Mof_O 	O 	0.82736	0.37594	0.2902	-0.45
Mof_C 	C 	0.7423	0.3767	0.2818	-0.012
Mof_H 	H 	0.7363	0.3763	0.3035	0.051
Mof_O 	O 	0.41663	0.86792	0.32995	-0.403
Mof_C 	C 	0.48323	0.87181	0.33032	-0.013
Mof_H 	H 	0.472	0.8859	0.317	0.064
Mof_O 	O 	0.32736	0.87594	0.2902	-0.45
Mof_C 	C 	0.2423	0.8767	0.2818	-0.012
Mof_H 	H 	0.2363	0.8763	0.3035	0.051
Mof_O 	O 	0.41663	0.36792	0.82995	-0.403
Mof_C 	C 	0.48323	0.37181	0.83032	-0.013
Mof_H 	H 	0.472	0.3859	0.817	0.064
Mof_O 	O 	0.32736	0.37594	0.7902	-0.45
Mof_C 	C 	0.2423	0.3767	0.7818	-0.012
Mof_H 	H 	0.2363	0.3763	0.8035	0.051
Mof_O 	O 	0.82995	0.86792	0.91663	-0.404
Mof_C 	C 	0.83032	0.87181	0.98323	0.007
Mof_H 	H 	0.817	0.8859	0.972	0.058
Mof_O 	O 	0.7902	0.87594	0.82736	-0.45
Mof_C 	C 	0.7818	0.8767	0.7423	-0.012
Mof_H 	H 	0.8035	0.8763	0.7363	0.051
Mof_O 	O 	0.82995	0.36792	0.41663	-0.403
Mof_C 	C 	0.83032	0.37181	0.48323	-0.013
Mof_H 	H 	0.817	0.3859	0.472	0.064
Mof_O 	O 	0.7902	0.37594	0.32736	-0.45
Mof_C 	C 	0.7818	0.3767	0.2423	-0.012
Mof_H 	H 	0.8035	0.3763	0.2363	0.051
Mof_O 	O 	0.32995	0.86792	0.41663	-0.403
Mof_C 	C 	0.33032	0.87181	0.48323	-0.013
Mof_H 	H 	0.317	0.8859	0.472	0.064
Mof_O 	O 	0.2902	0.87594	0.32736	-0.45
Mof_C 	C 	0.2818	0.8767	0.2423	-0.012
Mof_H 	H 	0.3035	0.8763	0.2363	0.051
Mof_O 	O 	0.32995	0.36792	0.91663	-0.404
Mof_C 	C 	0.33032	0.37181	0.98323	0.007
Mof_H 	H 	0.317	0.3859	0.972	0.058
Mof_O 	O 	0.2902	0.37594	0.82736	-0.45
Mof_C 	C 	0.2818	0.3767	0.7423	-0.012
Mof_H 	H 	0.3035	0.3763	0.7363	0.051
Mof_O 	O 	0.17005	0.13208	0.91663	-0.404
Mof_C 	C 	0.16968	0.12819	0.98323	0.007
Mof_H 	H 	0.183	0.1141	0.972	0.058
Mof_O 	O 	0.2098	0.12406	0.82736	-0.45
Mof_C 	C 	0.2182	0.1233	0.7423	-0.012
Mof_H 	H 	0.1965	0.1237	0.7363	0.051
Mof_O 	O 	0.17005	0.63208	0.41663	-0.403
Mof_C 	C 	0.16968	0.62819	0.48323	-0.013
Mof_H 	H 	0.183	0.6141	0.472	0.064
Mof_O 	O 	0.2098	0.62406	0.32736	-0.45
Mof_C 	C 	0.2182	0.6233	0.2423	-0.012
Mof_H 	H 	0.1965	0.6237	0.2363	0.051
Mof_O 	O 	0.67005	0.13208	0.41663	-0.403
Mof_C 	C 	0.66968	0.12819	0.48323	-0.013
Mof_H 	H 	0.683	0.1141	0.472	0.064
Mof_O 	O 	0.7098	0.12406	0.32736	-0.45
Mof_C 	C 	0.7182	0.1233	0.2423	-0.012
Mof_H 	H 	0.6965	0.1237	0.2363	0.051
Mof_O 	O 	0.67005	0.63208	0.91663	-0.404
Mof_C 	C 	0.66968	0.62819	0.98323	0.007
Mof_H 	H 	0.683	0.6141	0.972	0.058
Mof_O 	O 	0.7098	0.62406	0.82736	-0.45
Mof_C 	C 	0.7182	0.6233	0.7423	-0.012
Mof_H 	H 	0.6965	0.6237	0.7363	0.051
Mof_O 	O 	0.17005	0.86792	0.08337	-0.402
Mof_C 	C 	0.16968	0.87181	0.01677	-0.032
Mof_H 	H 	0.183	0.8859	0.028	0.069
Mof_O 	O 	0.2098	0.87594	0.17264	-0.45
Mof_C 	C 	0.2182	0.8767	0.2577	-0.012
Mof_H 	H 	0.1965	0.8763	0.2637	0.051
Mof_O 	O 	0.17005	0.36792	0.58337	-0.403
Mof_C 	C 	0.16968	0.37181	0.51677	-0.013
Mof_H 	H 	0.183	0.3859	0.528	0.064
Mof_O 	O 	0.2098	0.37594	0.67264	-0.45
Mof_C 	C 	0.2182	0.3767	0.7577	-0.012
Mof_H 	H 	0.1965	0.3763	0.7637	0.051
Mof_O 	O 	0.67005	0.86792	0.58337	-0.403
Mof_C 	C 	0.66968	0.87181	0.51677	-0.013
Mof_H 	H 	0.683	0.8859	0.528	0.064
Mof_O 	O 	0.7098	0.87594	0.67264	-0.45
Mof_C 	C 	0.7182	0.8767	0.7577	-0.012
Mof_H 	H 	0.6965	0.8763	0.7637	0.051
Mof_O 	O 	0.67005	0.36792	0.08337	-0.402
Mof_C 	C 	0.66968	0.37181	0.01677	-0.032
Mof_H 	H 	0.683	0.3859	0.028	0.069
Mof_O 	O 	0.7098	0.37594	0.17264	-0.45
Mof_C 	C 	0.7182	0.3767	0.2577	-0.012
Mof_H 	H 	0.6965	0.3763	0.2637	0.051
Mof_O 	O 	0.82995	0.13208	0.08337	-0.402
Mof_C 	C 	0.83032	0.12819	0.01677	-0.032
Mof_H 	H 	0.817	0.1141	0.028	0.069
Mof_O 	O 	0.7902	0.12406	0.17264	-0.45
Mof_C 	C 	0.7818	0.1233	0.2577	-0.012
Mof_H 	H 	0.8035	0.1237	0.2637	0.051
Mof_O 	O 	0.82995	0.63208	0.58337	-0.403
Mof_C 	C 	0.83032	0.62819	0.51677	-0.013
Mof_H 	H 	0.817	0.6141	0.528	0.064
Mof_O 	O 	0.7902	0.62406	0.67264	-0.45
Mof_C 	C 	0.7818	0.6233	0.7577	-0.012
Mof_H 	H 	0.8035	0.6237	0.7637	0.051
Mof_O 	O 	0.32995	0.13208	0.58337	-0.403
Mof_C 	C 	0.33032	0.12819	0.51677	-0.013
Mof_H 	H 	0.317	0.1141	0.528	0.064
Mof_O 	O 	0.2902	0.12406	0.67264	-0.45
Mof_C 	C 	0.2818	0.1233	0.7577	-0.012
Mof_H 	H 	0.3035	0.1237	0.7637	0.051
Mof_O 	O 	0.32995	0.63208	0.08337	-0.402
Mof_C 	C 	0.33032	0.62819	0.01677	-0.032
Mof_H 	H 	0.317	0.6141	0.028	0.069
Mof_O 	O 	0.2902	0.62406	0.17264	-0.45
Mof_C 	C 	0.2818	0.6233	0.2577	-0.012
Mof_H 	H 	0.3035	0.6237	0.2637	0.051
Mof_O 	O 	0.91663	0.82995	0.86792	-0.404
Mof_C 	C 	0.98323	0.83032	0.87181	0.007
Mof_H 	H 	0.972	0.817	0.8859	0.058
Mof_O 	O 	0.82736	0.7902	0.87594	-0.45
Mof_C 	C 	0.7423	0.7818	0.8767	-0.012
Mof_H 	H 	0.7363	0.8035	0.8763	0.051
Mof_O 	O 	0.91663	0.32995	0.36792	-0.404
Mof_C 	C 	0.98323	0.33032	0.37181	0.007
Mof_H 	H 	0.972	0.317	0.3859	0.058
Mof_O 	O 	0.82736	0.2902	0.37594	-0.45
Mof_C 	C 	0.7423	0.2818	0.3767	-0.012
Mof_H 	H 	0.7363	0.3035	0.3763	0.051
Mof_O 	O 	0.41663	0.82995	0.36792	-0.403
Mof_C 	C 	0.48323	0.83032	0.37181	-0.013
Mof_H 	H 	0.472	0.817	0.3859	0.064
Mof_O 	O 	0.32736	0.7902	0.37594	-0.45
Mof_C 	C 	0.2423	0.7818	0.3767	-0.012
Mof_H 	H 	0.2363	0.8035	0.3763	0.051
Mof_O 	O 	0.41663	0.32995	0.86792	-0.403
Mof_C 	C 	0.48323	0.33032	0.87181	-0.013
Mof_H 	H 	0.472	0.317	0.8859	0.064
Mof_O 	O 	0.32736	0.2902	0.87594	-0.45
Mof_C 	C 	0.2423	0.2818	0.8767	-0.012
Mof_H 	H 	0.2363	0.3035	0.8763	0.051
Mof_O 	O 	0.91663	0.17005	0.13208	-0.404
Mof_C 	C 	0.98323	0.16968	0.12819	0.007
Mof_H 	H 	0.972	0.183	0.1141	0.058
Mof_O 	O 	0.82736	0.2098	0.12406	-0.45
Mof_C 	C 	0.7423	0.2182	0.1233	-0.012
Mof_H 	H 	0.7363	0.1965	0.1237	0.051
Mof_O 	O 	0.91663	0.67005	0.63208	-0.404
Mof_C 	C 	0.98323	0.66968	0.62819	0.007
Mof_H 	H 	0.972	0.683	0.6141	0.058
Mof_O 	O 	0.82736	0.7098	0.62406	-0.45
Mof_C 	C 	0.7423	0.7182	0.6233	-0.012
Mof_H 	H 	0.7363	0.6965	0.6237	0.051
Mof_O 	O 	0.41663	0.17005	0.63208	-0.403
Mof_C 	C 	0.48323	0.16968	0.62819	-0.013
Mof_H 	H 	0.472	0.183	0.6141	0.064
Mof_O 	O 	0.32736	0.2098	0.62406	-0.45
Mof_C 	C 	0.2423	0.2182	0.6233	-0.012
Mof_H 	H 	0.2363	0.1965	0.6237	0.051
Mof_O 	O 	0.41663	0.67005	0.13208	-0.403
Mof_C 	C 	0.48323	0.66968	0.12819	-0.013
Mof_H 	H 	0.472	0.683	0.1141	0.064
Mof_O 	O 	0.32736	0.7098	0.12406	-0.45
Mof_C 	C 	0.2423	0.7182	0.1233	-0.012
Mof_H 	H 	0.2363	0.6965	0.1237	0.051
Mof_O 	O 	0.08337	0.17005	0.86792	-0.402
Mof_C 	C 	0.01677	0.16968	0.87181	-0.032
Mof_H 	H 	0.028	0.183	0.8859	0.069
Mof_O 	O 	0.17264	0.2098	0.87594	-0.45
Mof_C 	C 	0.2577	0.2182	0.8767	-0.012
Mof_H 	H 	0.2637	0.1965	0.8763	0.051
Mof_O 	O 	0.08337	0.67005	0.36792	-0.402
Mof_C 	C 	0.01677	0.66968	0.37181	-0.032
Mof_H 	H 	0.028	0.683	0.3859	0.069
Mof_O 	O 	0.17264	0.7098	0.37594	-0.45
Mof_C 	C 	0.2577	0.7182	0.3767	-0.012
Mof_H 	H 	0.2637	0.6965	0.3763	0.051
Mof_O 	O 	0.58337	0.17005	0.36792	-0.403
Mof_C 	C 	0.51677	0.16968	0.37181	-0.013
Mof_H 	H 	0.528	0.183	0.3859	0.064
Mof_O 	O 	0.67264	0.2098	0.37594	-0.45
Mof_C 	C 	0.7577	0.2182	0.3767	-0.012
Mof_H 	H 	0.7637	0.1965	0.3763	0.051
Mof_O 	O 	0.58337	0.67005	0.86792	-0.403
Mof_C 	C 	0.51677	0.66968	0.87181	-0.013
Mof_H 	H 	0.528	0.683	0.8859	0.064
Mof_O 	O 	0.67264	0.7098	0.87594	-0.45
Mof_C 	C 	0.7577	0.7182	0.8767	-0.012
Mof_H 	H 	0.7637	0.6965	0.8763	0.051
Mof_O 	O 	0.08337	0.82995	0.13208	-0.402
Mof_C 	C 	0.01677	0.83032	0.12819	-0.032
Mof_H 	H 	0.028	0.817	0.1141	0.069
Mof_O 	O 	0.17264	0.7902	0.12406	-0.45
Mof_C 	C 	0.2577	0.7818	0.1233	-0.012
Mof_H 	H 	0.2637	0.8035	0.1237	0.051
Mof_O 	O 	0.08337	0.32995	0.63208	-0.402
Mof_C 	C 	0.01677	0.33032	0.62819	-0.032
Mof_H 	H 	0.028	0.317	0.6141	0.069
Mof_O 	O 	0.17264	0.2902	0.62406	-0.45
Mof_C 	C 	0.2577	0.2818	0.6233	-0.012
Mof_H 	H 	0.2637	0.3035	0.6237	0.051
Mof_O 	O 	0.58337	0.82995	0.63208	-0.403
Mof_C 	C 	0.51677	0.83032	0.62819	-0.013
Mof_H 	H 	0.528	0.817	0.6141	0.064
Mof_O 	O 	0.67264	0.7902	0.62406	-0.45
Mof_C 	C 	0.7577	0.7818	0.6233	-0.012
Mof_H 	H 	0.7637	0.8035	0.6237	0.051
Mof_O 	O 	0.58337	0.32995	0.13208	-0.403
Mof_C 	C 	0.51677	0.33032	0.12819	-0.013
Mof_H 	H 	0.528	0.317	0.1141	0.064
Mof_O 	O 	0.67264	0.2902	0.12406	-0.45
Mof_C 	C 	0.7577	0.2818	0.1233	-0.012
Mof_H 	H 	0.7637	0.3035	0.1237	0.051
Mof_O 	O 	0.86792	0.91663	0.82995	-0.404
Mof_C 	C 	0.87181	0.98323	0.83032	0.007
Mof_H 	H 	0.8859	0.972	0.817	0.058
Mof_O 	O 	0.87594	0.82736	0.7902	-0.45
Mof_C 	C 	0.8767	0.7423	0.7818	-0.012
Mof_H 	H 	0.8763	0.7363	0.8035	0.051
Mof_O 	O 	0.86792	0.41663	0.32995	-0.403
Mof_C 	C 	0.87181	0.48323	0.33032	-0.013
Mof_H 	H 	0.8859	0.472	0.317	0.064
Mof_O 	O 	0.87594	0.32736	0.2902	-0.45
Mof_C 	C 	0.8767	0.2423	0.2818	-0.012
Mof_H 	H 	0.8763	0.2363	0.3035	0.051
Mof_O 	O 	0.36792	0.91663	0.32995	-0.404
Mof_C 	C 	0.37181	0.98323	0.33032	0.007
Mof_H 	H 	0.3859	0.972	0.317	0.058
Mof_O 	O 	0.37594	0.82736	0.2902	-0.45
Mof_C 	C 	0.3767	0.7423	0.2818	-0.012
Mof_H 	H 	0.3763	0.7363	0.3035	0.051
Mof_O 	O 	0.36792	0.41663	0.82995	-0.403
Mof_C 	C 	0.37181	0.48323	0.83032	-0.013
Mof_H 	H 	0.3859	0.472	0.817	0.064
Mof_O 	O 	0.37594	0.32736	0.7902	-0.45
Mof_C 	C 	0.3767	0.2423	0.7818	-0.012
Mof_H 	H 	0.3763	0.2363	0.8035	0.051
Mof_O 	O 	0.13208	0.91663	0.17005	-0.404
Mof_C 	C 	0.12819	0.98323	0.16968	0.007
Mof_H 	H 	0.1141	0.972	0.183	0.058
Mof_O 	O 	0.12406	0.82736	0.2098	-0.45
Mof_C 	C 	0.1233	0.7423	0.2182	-0.012
Mof_H 	H 	0.1237	0.7363	0.1965	0.051
Mof_O 	O 	0.13208	0.41663	0.67005	-0.403
Mof_C 	C 	0.12819	0.48323	0.66968	-0.013
Mof_H 	H 	0.1141	0.472	0.683	0.064
Mof_O 	O 	0.12406	0.32736	0.7098	-0.45
Mof_C 	C 	0.1233	0.2423	0.7182	-0.012
Mof_H 	H 	0.1237	0.2363	0.6965	0.051
Mof_O 	O 	0.63208	0.91663	0.67005	-0.404
Mof_C 	C 	0.62819	0.98323	0.66968	0.007
Mof_H 	H 	0.6141	0.972	0.683	0.058
Mof_O 	O 	0.62406	0.82736	0.7098	-0.45
Mof_C 	C 	0.6233	0.7423	0.7182	-0.012
Mof_H 	H 	0.6237	0.7363	0.6965	0.051
Mof_O 	O 	0.63208	0.41663	0.17005	-0.403
Mof_C 	C 	0.62819	0.48323	0.16968	-0.013
Mof_H 	H 	0.6141	0.472	0.183	0.064
Mof_O 	O 	0.62406	0.32736	0.2098	-0.45
Mof_C 	C 	0.6233	0.2423	0.2182	-0.012
Mof_H 	H 	0.6237	0.2363	0.1965	0.051
Mof_O 	O 	0.86792	0.08337	0.17005	-0.402
Mof_C 	C 	0.87181	0.01677	0.16968	-0.032
Mof_H 	H 	0.8859	0.028	0.183	0.069
Mof_O 	O 	0.87594	0.17264	0.2098	-0.45
Mof_C 	C 	0.8767	0.2577	0.2182	-0.012
Mof_H 	H 	0.8763	0.2637	0.1965	0.051
Mof_O 	O 	0.86792	0.58337	0.67005	-0.403
Mof_C 	C 	0.87181	0.51677	0.66968	-0.013
Mof_H 	H 	0.8859	0.528	0.683	0.064
Mof_O 	O 	0.87594	0.67264	0.7098	-0.45
Mof_C 	C 	0.8767	0.7577	0.7182	-0.012
Mof_H 	H 	0.8763	0.7637	0.6965	0.051
Mof_O 	O 	0.36792	0.08337	0.67005	-0.402
Mof_C 	C 	0.37181	0.01677	0.66968	-0.032
Mof_H 	H 	0.3859	0.028	0.683	0.069
Mof_O 	O 	0.37594	0.17264	0.7098	-0.45
Mof_C 	C 	0.3767	0.2577	0.7182	-0.012
Mof_H 	H 	0.3763	0.2637	0.6965	0.051
Mof_O 	O 	0.36792	0.58337	0.17005	-0.403
Mof_C 	C 	0.37181	0.51677	0.16968	-0.013
Mof_H 	H 	0.3859	0.528	0.183	0.064
Mof_O 	O 	0.37594	0.67264	0.2098	-0.45
Mof_C 	C 	0.3767	0.7577	0.2182	-0.012
Mof_H 	H 	0.3763	0.7637	0.1965	0.051
Mof_O 	O 	0.13208	0.08337	0.82995	-0.402
Mof_C 	C 	0.12819	0.01677	0.83032	-0.032
Mof_H 	H 	0.1141	0.028	0.817	0.069
Mof_O 	O 	0.12406	0.17264	0.7902	-0.45
Mof_C 	C 	0.1233	0.2577	0.7818	-0.012
Mof_H 	H 	0.1237	0.2637	0.8035	0.051
Mof_O 	O 	0.13208	0.58337	0.32995	-0.403
Mof_C 	C 	0.12819	0.51677	0.33032	-0.013
Mof_H 	H 	0.1141	0.528	0.317	0.064
Mof_O 	O 	0.12406	0.67264	0.2902	-0.45
Mof_C 	C 	0.1233	0.7577	0.2818	-0.012
Mof_H 	H 	0.1237	0.7637	0.3035	0.051
Mof_O 	O 	0.63208	0.08337	0.32995	-0.402
Mof_C 	C 	0.62819	0.01677	0.33032	-0.032
Mof_H 	H 	0.6141	0.028	0.317	0.069
Mof_O 	O 	0.62406	0.17264	0.2902	-0.45
Mof_C 	C 	0.6233	0.2577	0.2818	-0.012
Mof_H 	H 	0.6237	0.2637	0.3035	0.051
Mof_O 	O 	0.63208	0.58337	0.82995	-0.403
Mof_C 	C 	0.62819	0.51677	0.83032	-0.013
Mof_H 	H 	0.6141	0.528	0.817	0.064
Mof_O 	O 	0.62406	0.67264	0.7902	-0.45
Mof_C 	C 	0.6233	0.7577	0.7818	-0.012
Mof_H 	H 	0.6237	0.7637	0.8035	0.051
Mof_O 	O 	0.86792	0.82995	0.08337	-0.402
Mof_C 	C 	0.87181	0.83032	0.01677	-0.032
Mof_H 	H 	0.8859	0.817	0.028	0.069
Mof_O 	O 	0.87594	0.7902	0.17264	-0.45
Mof_C 	C 	0.8767	0.7818	0.2577	-0.012
Mof_H 	H 	0.8763	0.8035	0.2637	0.051
Mof_O 	O 	0.86792	0.32995	0.58337	-0.403
Mof_C 	C 	0.87181	0.33032	0.51677	-0.013
Mof_H 	H 	0.8859	0.317	0.528	0.064
Mof_O 	O 	0.87594	0.2902	0.67264	-0.45
Mof_C 	C 	0.8767	0.2818	0.7577	-0.012
Mof_H 	H 	0.8763	0.3035	0.7637	0.051
Mof_O 	O 	0.36792	0.82995	0.58337	-0.403
Mof_C 	C 	0.37181	0.83032	0.51677	-0.013
Mof_H 	H 	0.3859	0.817	0.528	0.064
Mof_O 	O 	0.37594	0.7902	0.67264	-0.45
Mof_C 	C 	0.3767	0.7818	0.7577	-0.012
Mof_H 	H 	0.3763	0.8035	0.7637	0.051
Mof_O 	O 	0.36792	0.32995	0.08337	-0.402
Mof_C 	C 	0.37181	0.33032	0.01677	-0.032
Mof_H 	H 	0.3859	0.317	0.028	0.069
Mof_O 	O 	0.37594	0.2902	0.17264	-0.45
Mof_C 	C 	0.3767	0.2818	0.2577	-0.012
Mof_H 	H 	0.3763	0.3035	0.2637	0.051
Mof_O 	O 	0.13208	0.17005	0.08337	-0.402
Mof_C 	C 	0.12819	0.16968	0.01677	-0.033
Mof_H 	H 	0.1141	0.183	0.028	0.069
Mof_O 	O 	0.12406	0.2098	0.17264	-0.45
Mof_C 	C 	0.1233	0.2182	0.2577	-0.012
Mof_H 	H 	0.1237	0.1965	0.2637	0.051
Mof_O 	O 	0.13208	0.67005	0.58337	-0.403
Mof_C 	C 	0.12819	0.66968	0.51677	-0.013
Mof_H 	H 	0.1141	0.683	0.528	0.064
Mof_O 	O 	0.12406	0.7098	0.67264	-0.45
Mof_C 	C 	0.1233	0.7182	0.7577	-0.012
Mof_H 	H 	0.1237	0.6965	0.7637	0.051
Mof_O 	O 	0.63208	0.17005	0.58337	-0.403
Mof_C 	C 	0.62819	0.16968	0.51677	-0.013
Mof_H 	H 	0.6141	0.183	0.528	0.064
Mof_O 	O 	0.62406	0.2098	0.67264	-0.45
Mof_C 	C 	0.6233	0.2182	0.7577	-0.012
Mof_H 	H 	0.6237	0.1965	0.7637	0.051
Mof_O 	O 	0.63208	0.67005	0.08337	-0.402
Mof_C 	C 	0.62819	0.66968	0.01677	-0.032
Mof_H 	H 	0.6141	0.683	0.028	0.069
Mof_O 	O 	0.62406	0.7098	0.17264	-0.45
Mof_C 	C 	0.6233	0.7182	0.2577	-0.012
Mof_H 	H 	0.6237	0.6965	0.2637	0.051
Mof_O 	O 	0.86792	0.17005	0.91663	-0.404
Mof_C 	C 	0.87181	0.16968	0.98323	0.007
Mof_H 	H 	0.8859	0.183	0.972	0.058
Mof_O 	O 	0.87594	0.2098	0.82736	-0.45
Mof_C 	C 	0.8767	0.2182	0.7423	-0.012
Mof_H 	H 	0.8763	0.1965	0.7363	0.051
Mof_O 	O 	0.86792	0.67005	0.41663	-0.403
Mof_C 	C 	0.87181	0.66968	0.48323	-0.013
Mof_H 	H 	0.8859	0.683	0.472	0.064
Mof_O 	O 	0.87594	0.7098	0.32736	-0.45
Mof_C 	C 	0.8767	0.7182	0.2423	-0.012
Mof_H 	H 	0.8763	0.6965	0.2363	0.051
Mof_O 	O 	0.36792	0.17005	0.41663	-0.403
Mof_C 	C 	0.37181	0.16968	0.48323	-0.013
Mof_H 	H 	0.3859	0.183	0.472	0.064
Mof_O 	O 	0.37594	0.2098	0.32736	-0.45
Mof_C 	C 	0.3767	0.2182	0.2423	-0.012
Mof_H 	H 	0.3763	0.1965	0.2363	0.051
Mof_O 	O 	0.36792	0.67005	0.91663	-0.404
Mof_C 	C 	0.37181	0.66968	0.98323	0.007
Mof_H 	H 	0.3859	0.683	0.972	0.058
Mof_O 	O 	0.37594	0.7098	0.82736	-0.45
Mof_C 	C 	0.3767	0.7182	0.7423	-0.012
Mof_H 	H 	0.3763	0.6965	0.7363	0.051
Mof_O 	O 	0.13208	0.82995	0.91663	-0.404
Mof_C 	C 	0.12819	0.83032	0.98323	0.007
Mof_H 	H 	0.1141	0.817	0.972	0.058
Mof_O 	O 	0.12406	0.7902	0.82736	-0.45
Mof_C 	C 	0.1233	0.7818	0.7423	-0.012
Mof_H 	H 	0.1237	0.8035	0.7363	0.051
Mof_O 	O 	0.13208	0.32995	0.41663	-0.403
Mof_C 	C 	0.12819	0.33032	0.48323	-0.013
Mof_H 	H 	0.1141	0.317	0.472	0.064
Mof_O 	O 	0.12406	0.2902	0.32736	-0.45
Mof_C 	C 	0.1233	0.2818	0.2423	-0.012
Mof_H 	H 	0.1237	0.3035	0.2363	0.051
Mof_O 	O 	0.63208	0.82995	0.41663	-0.403
Mof_C 	C 	0.62819	0.83032	0.48323	-0.013
Mof_H 	H 	0.6141	0.817	0.472	0.064
Mof_O 	O 	0.62406	0.7902	0.32736	-0.45
Mof_C 	C 	0.6233	0.7818	0.2423	-0.012
Mof_H 	H 	0.6237	0.8035	0.2363	0.051
Mof_O 	O 	0.63208	0.32995	0.91663	-0.404
Mof_C 	C 	0.62819	0.33032	0.98323	0.007
Mof_H 	H 	0.6141	0.317	0.972	0.058
Mof_O 	O 	0.62406	0.2902	0.82736	-0.45
Mof_C 	C 	0.6233	0.2818	0.7423	-0.012
Mof_H 	H 	0.6237	0.3035	0.7363	0.051
Mof_O 	O 	0.82995	0.91663	0.13208	-0.404
Mof_C 	C 	0.83032	0.98323	0.12819	0.007
Mof_H 	H 	0.817	0.972	0.1141	0.058
Mof_O 	O 	0.7902	0.82736	0.12406	-0.45
Mof_C 	C 	0.7818	0.7423	0.1233	-0.012
Mof_H 	H 	0.8035	0.7363	0.1237	0.051
Mof_O 	O 	0.82995	0.41663	0.63208	-0.403
Mof_C 	C 	0.83032	0.48323	0.62819	-0.013
Mof_H 	H 	0.817	0.472	0.6141	0.064
Mof_O 	O 	0.7902	0.32736	0.62406	-0.45
Mof_C 	C 	0.7818	0.2423	0.6233	-0.012
Mof_H 	H 	0.8035	0.2363	0.6237	0.051
Mof_O 	O 	0.32995	0.91663	0.63208	-0.404
Mof_C 	C 	0.33032	0.98323	0.62819	0.007
Mof_H 	H 	0.317	0.972	0.6141	0.058
Mof_O 	O 	0.2902	0.82736	0.62406	-0.45
Mof_C 	C 	0.2818	0.7423	0.6233	-0.012
Mof_H 	H 	0.3035	0.7363	0.6237	0.051
Mof_O 	O 	0.32995	0.41663	0.13208	-0.403
Mof_C 	C 	0.33032	0.48323	0.12819	-0.013
Mof_H 	H 	0.317	0.472	0.1141	0.064
Mof_O 	O 	0.2902	0.32736	0.12406	-0.45
Mof_C 	C 	0.2818	0.2423	0.1233	-0.012
Mof_H 	H 	0.3035	0.2363	0.1237	0.051
Mof_O 	O 	0.17005	0.91663	0.86792	-0.404
Mof_C 	C 	0.16968	0.98323	0.87181	0.007
Mof_H 	H 	0.183	0.972	0.8859	0.058
Mof_O 	O 	0.2098	0.82736	0.87594	-0.45
Mof_C 	C 	0.2182	0.7423	0.8767	-0.012
Mof_H 	H 	0.1965	0.7363	0.8763	0.051
Mof_O 	O 	0.17005	0.41663	0.36792	-0.403
Mof_C 	C 	0.16968	0.48323	0.37181	-0.013
Mof_H 	H 	0.183	0.472	0.3859	0.064
Mof_O 	O 	0.2098	0.32736	0.37594	-0.45
Mof_C 	C 	0.2182	0.2423	0.3767	-0.012
Mof_H 	H 	0.1965	0.2363	0.3763	0.051
Mof_O 	O 	0.67005	0.91663	0.36792	-0.404
Mof_C 	C 	0.66968	0.98323	0.37181	0.007
Mof_H 	H 	0.683	0.972	0.3859	0.058
Mof_O 	O 	0.7098	0.82736	0.37594	-0.45
Mof_C 	C 	0.7182	0.7423	0.3767	-0.012
Mof_H 	H 	0.6965	0.7363	0.3763	0.051
Mof_O 	O 	0.67005	0.41663	0.86792	-0.403
Mof_C 	C 	0.66968	0.48323	0.87181	-0.013
Mof_H 	H 	0.683	0.472	0.8859	0.064
Mof_O 	O 	0.7098	0.32736	0.87594	-0.45
Mof_C 	C 	0.7182	0.2423	0.8767	-0.012
Mof_H 	H 	0.6965	0.2363	0.8763	0.051
Mof_O 	O 	0.17005	0.08337	0.13208	-0.402
Mof_C 	C 	0.16968	0.01677	0.12819	-0.033
Mof_H 	H 	0.183	0.028	0.1141	0.069
Mof_O 	O 	0.2098	0.17264	0.12406	-0.45
Mof_C 	C 	0.2182	0.2577	0.1233	-0.012
Mof_H 	H 	0.1965	0.2637	0.1237	0.051
Mof_O 	O 	0.17005	0.58337	0.63208	-0.403
Mof_C 	C 	0.16968	0.51677	0.62819	-0.013
Mof_H 	H 	0.183	0.528	0.6141	0.064
Mof_O 	O 	0.2098	0.67264	0.62406	-0.45
Mof_C 	C 	0.2182	0.7577	0.6233	-0.012
Mof_H 	H 	0.1965	0.7637	0.6237	0.051
Mof_O 	O 	0.67005	0.08337	0.63208	-0.402
Mof_C 	C 	0.66968	0.01677	0.62819	-0.032
Mof_H 	H 	0.683	0.028	0.6141	0.069
Mof_O 	O 	0.7098	0.17264	0.62406	-0.45
Mof_C 	C 	0.7182	0.2577	0.6233	-0.012
Mof_H 	H 	0.6965	0.2637	0.6237	0.051
Mof_O 	O 	0.67005	0.58337	0.13208	-0.403
Mof_C 	C 	0.66968	0.51677	0.12819	-0.013
Mof_H 	H 	0.683	0.528	0.1141	0.064
Mof_O 	O 	0.7098	0.67264	0.12406	-0.45
Mof_C 	C 	0.7182	0.7577	0.1233	-0.012
Mof_H 	H 	0.6965	0.7637	0.1237	0.051
Mof_O 	O 	0.82995	0.08337	0.86792	-0.402
Mof_C 	C 	0.83032	0.01677	0.87181	-0.032
Mof_H 	H 	0.817	0.028	0.8859	0.069
Mof_O 	O 	0.7902	0.17264	0.87594	-0.45
Mof_C 	C 	0.7818	0.2577	0.8767	-0.012
Mof_H 	H 	0.8035	0.2637	0.8763	0.051
Mof_O 	O 	0.82995	0.58337	0.36792	-0.403
Mof_C 	C 	0.83032	0.51677	0.37181	-0.013
Mof_H 	H 	0.817	0.528	0.3859	0.064
Mof_O 	O 	0.7902	0.67264	0.37594	-0.45
Mof_C 	C 	0.7818	0.7577	0.3767	-0.012
Mof_H 	H 	0.8035	0.7637	0.3763	0.051
Mof_O 	O 	0.32995	0.08337	0.36792	-0.402
Mof_C 	C 	0.33032	0.01677	0.37181	-0.032
Mof_H 	H 	0.317	0.028	0.3859	0.069
Mof_O 	O 	0.2902	0.17264	0.37594	-0.45
Mof_C 	C 	0.2818	0.2577	0.3767	-0.012
Mof_H 	H 	0.3035	0.2637	0.3763	0.051
Mof_O 	O 	0.32995	0.58337	0.86792	-0.403
Mof_C 	C 	0.33032	0.51677	0.87181	-0.013
Mof_H 	H 	0.317	0.528	0.8859	0.064
Mof_O 	O 	0.2902	0.67264	0.87594	-0.45
Mof_C 	C 	0.2818	0.7577	0.8767	-0.012
Mof_H 	H 	0.3035	0.7637	0.8763	0.051
Mof_O 	O 	0.91663	0.86792	0.17005	-0.404
Mof_C 	C 	0.98323	0.87181	0.16968	0.007
Mof_H 	H 	0.972	0.8859	0.183	0.058
Mof_O 	O 	0.82736	0.87594	0.2098	-0.45
Mof_C 	C 	0.7423	0.8767	0.2182	-0.012
Mof_H 	H 	0.7363	0.8763	0.1965	0.051
Mof_O 	O 	0.91663	0.36792	0.67005	-0.404
Mof_C 	C 	0.98323	0.37181	0.66968	0.007
Mof_H 	H 	0.972	0.3859	0.683	0.058
Mof_O 	O 	0.82736	0.37594	0.7098	-0.45
Mof_C 	C 	0.7423	0.3767	0.7182	-0.012
Mof_H 	H 	0.7363	0.3763	0.6965	0.051
Mof_O 	O 	0.41663	0.86792	0.67005	-0.403
Mof_C 	C 	0.48323	0.87181	0.66968	-0.013
Mof_H 	H 	0.472	0.8859	0.683	0.064
Mof_O 	O 	0.32736	0.87594	0.7098	-0.45
Mof_C 	C 	0.2423	0.8767	0.7182	-0.012
Mof_H 	H 	0.2363	0.8763	0.6965	0.051
Mof_O 	O 	0.41663	0.36792	0.17005	-0.403
Mof_C 	C 	0.48323	0.37181	0.16968	-0.013
Mof_H 	H 	0.472	0.3859	0.183	0.064
Mof_O 	O 	0.32736	0.37594	0.2098	-0.45
Mof_C 	C 	0.2423	0.3767	0.2182	-0.012
Mof_H 	H 	0.2363	0.3763	0.1965	0.051
Mof_O 	O 	0.91663	0.13208	0.82995	-0.404
Mof_C 	C 	0.98323	0.12819	0.83032	0.007
Mof_H 	H 	0.972	0.1141	0.817	0.058
Mof_O 	O 	0.82736	0.12406	0.7902	-0.45
Mof_C 	C 	0.7423	0.1233	0.7818	-0.012
Mof_H 	H 	0.7363	0.1237	0.8035	0.051
Mof_O 	O 	0.91663	0.63208	0.32995	-0.404
Mof_C 	C 	0.98323	0.62819	0.33032	0.007
Mof_H 	H 	0.972	0.6141	0.317	0.058
Mof_O 	O 	0.82736	0.62406	0.2902	-0.45
Mof_C 	C 	0.7423	0.6233	0.2818	-0.012
Mof_H 	H 	0.7363	0.6237	0.3035	0.051
Mof_O 	O 	0.41663	0.13208	0.32995	-0.403
Mof_C 	C 	0.48323	0.12819	0.33032	-0.013
Mof_H 	H 	0.472	0.1141	0.317	0.064
Mof_O 	O 	0.32736	0.12406	0.2902	-0.45
Mof_C 	C 	0.2423	0.1233	0.2818	-0.012
Mof_H 	H 	0.2363	0.1237	0.3035	0.051
Mof_O 	O 	0.41663	0.63208	0.82995	-0.403
Mof_C 	C 	0.48323	0.62819	0.83032	-0.013
Mof_H 	H 	0.472	0.6141	0.817	0.064
Mof_O 	O 	0.32736	0.62406	0.7902	-0.45
Mof_C 	C 	0.2423	0.6233	0.7818	-0.012
Mof_H 	H 	0.2363	0.6237	0.8035	0.051
Mof_O 	O 	0.08337	0.86792	0.82995	-0.402
Mof_C 	C 	0.01677	0.87181	0.83032	-0.032
Mof_H 	H 	0.028	0.8859	0.817	0.069
Mof_O 	O 	0.17264	0.87594	0.7902	-0.45
Mof_C 	C 	0.2577	0.8767	0.7818	-0.012
Mof_H 	H 	0.2637	0.8763	0.8035	0.051
Mof_O 	O 	0.08337	0.36792	0.32995	-0.402
Mof_C 	C 	0.01677	0.37181	0.33032	-0.032
Mof_H 	H 	0.028	0.3859	0.317	0.069
Mof_O 	O 	0.17264	0.37594	0.2902	-0.45
Mof_C 	C 	0.2577	0.3767	0.2818	-0.012
Mof_H 	H 	0.2637	0.3763	0.3035	0.051
Mof_O 	O 	0.58337	0.86792	0.32995	-0.403
Mof_C 	C 	0.51677	0.87181	0.33032	-0.013
Mof_H 	H 	0.528	0.8859	0.317	0.064
Mof_O 	O 	0.67264	0.87594	0.2902	-0.45
Mof_C 	C 	0.7577	0.8767	0.2818	-0.012
Mof_H 	H 	0.7637	0.8763	0.3035	0.051
Mof_O 	O 	0.58337	0.36792	0.82995	-0.403
Mof_C 	C 	0.51677	0.37181	0.83032	-0.013
Mof_H 	H 	0.528	0.3859	0.817	0.064
Mof_O 	O 	0.67264	0.37594	0.7902	-0.45
Mof_C 	C 	0.7577	0.3767	0.7818	-0.012
Mof_H 	H 	0.7637	0.3763	0.8035	0.051
Mof_O 	O 	0.08337	0.13208	0.17005	-0.402
Mof_C 	C 	0.01677	0.12819	0.16968	-0.033
Mof_H 	H 	0.028	0.1141	0.183	0.069
Mof_O 	O 	0.17264	0.12406	0.2098	-0.45
Mof_C 	C 	0.2577	0.1233	0.2182	-0.012
Mof_H 	H 	0.2637	0.1237	0.1965	0.051
Mof_O 	O 	0.08337	0.63208	0.67005	-0.402
Mof_C 	C 	0.01677	0.62819	0.66968	-0.032
Mof_H 	H 	0.028	0.6141	0.683	0.069
Mof_O 	O 	0.17264	0.62406	0.7098	-0.45
Mof_C 	C 	0.2577	0.6233	0.7182	-0.012
Mof_H 	H 	0.2637	0.6237	0.6965	0.051
Mof_O 	O 	0.58337	0.13208	0.67005	-0.403
Mof_C 	C 	0.51677	0.12819	0.66968	-0.013
Mof_H 	H 	0.528	0.1141	0.683	0.064
Mof_O 	O 	0.67264	0.12406	0.7098	-0.45
Mof_C 	C 	0.7577	0.1233	0.7182	-0.012
Mof_H 	H 	0.7637	0.1237	0.6965	0.051
Mof_O 	O 	0.58337	0.63208	0.17005	-0.403
Mof_C 	C 	0.51677	0.62819	0.16968	-0.013
Mof_H 	H 	0.528	0.6141	0.183	0.064
Mof_O 	O 	0.67264	0.62406	0.2098	-0.45
Mof_C 	C 	0.7577	0.6233	0.2182	-0.012
Mof_H 	H 	0.7637	0.6237	0.1965	0.051
Mof_Ni	Ni	0.18773	0.12899	0.12899	1.141
Mof_N 	N 	0.2291	0.1084	0.1084	-0.218
Mof_O 	O 	0.2219	0.0378	0.0378	-0.253
Mof_C 	C 	0.2825	0.0796	0.0796	0.202
Mof_H 	H 	0.3006	0.0702	0.0702	-0.032
Mof_C 	C 	0.2251	0.0845	0.0845	0.161
Mof_H 	H 	0.2044	0.0783	0.0783	0.003
Mof_C 	C 	0.252	0.0699	0.0699	-0.336
Mof_O 	O 	0.2689	0.033	0.033	-0.418
Mof_C 	C 	0.2483	0.05	0.05	0.473
Mof_C 	C 	0.2864	0.1029	0.1029	-0.22
Mof_H 	H 	0.307	0.1091	0.1091	0.107
Mof_C 	C 	0.2599	0.1171	0.1171	0.125
Mof_H 	H 	0.2629	0.1329	0.1329	-0.002
Mof_Ni	Ni	0.18773	0.62899	0.62899	1.141
Mof_N 	N 	0.2291	0.6084	0.6084	-0.217
Mof_O 	O 	0.2219	0.5378	0.5378	-0.249
Mof_C 	C 	0.2825	0.5796	0.5796	0.201
Mof_H 	H 	0.3006	0.5702	0.5702	-0.03
Mof_C 	C 	0.2251	0.5845	0.5845	0.16
Mof_H 	H 	0.2044	0.5783	0.5783	0.004
Mof_C 	C 	0.252	0.5699	0.5699	-0.334
Mof_O 	O 	0.2689	0.533	0.533	-0.415
Mof_C 	C 	0.2483	0.55	0.55	0.472
Mof_C 	C 	0.2864	0.6029	0.6029	-0.219
Mof_H 	H 	0.307	0.6091	0.6091	0.107
Mof_C 	C 	0.2599	0.6171	0.6171	0.124
Mof_H 	H 	0.2629	0.6329	0.6329	-0.002
Mof_Ni	Ni	0.68773	0.12899	0.62899	1.141
Mof_N 	N 	0.7291	0.1084	0.6084	-0.217
Mof_O 	O 	0.7219	0.0378	0.5378	-0.251
Mof_C 	C 	0.7825	0.0796	0.5796	0.201
Mof_H 	H 	0.8006	0.0702	0.5702	-0.031
Mof_C 	C 	0.7251	0.0845	0.5845	0.161
Mof_H 	H 	0.7044	0.0783	0.5783	0.003
Mof_C 	C 	0.752	0.0699	0.5699	-0.335
Mof_O 	O 	0.7689	0.033	0.533	-0.416
Mof_C 	C 	0.7483	0.05	0.55	0.472
Mof_C 	C 	0.7864	0.1029	0.6029	-0.219
Mof_H 	H 	0.807	0.1091	0.6091	0.107
Mof_C 	C 	0.7599	0.1171	0.6171	0.125
Mof_H 	H 	0.7629	0.1329	0.6329	-0.002
Mof_Ni	Ni	0.68773	0.62899	0.12899	1.141
Mof_N 	N 	0.7291	0.6084	0.1084	-0.217
Mof_O 	O 	0.7219	0.5378	0.0378	-0.251
Mof_C 	C 	0.7825	0.5796	0.0796	0.201
Mof_H 	H 	0.8006	0.5702	0.0702	-0.031
Mof_C 	C 	0.7251	0.5845	0.0845	0.161
Mof_H 	H 	0.7044	0.5783	0.0783	0.003
Mof_C 	C 	0.752	0.5699	0.0699	-0.335
Mof_O 	O 	0.7689	0.533	0.033	-0.416
Mof_C 	C 	0.7483	0.55	0.05	0.472
Mof_C 	C 	0.7864	0.6029	0.1029	-0.219
Mof_H 	H 	0.807	0.6091	0.1091	0.107
Mof_C 	C 	0.7599	0.6171	0.1171	0.125
Mof_H 	H 	0.7629	0.6329	0.1329	-0.002
Mof_Ni	Ni	0.81227	0.87101	0.12899	1.141
Mof_N 	N 	0.7709	0.8916	0.1084	-0.217
Mof_O 	O 	0.7781	0.9622	0.0378	-0.249
Mof_C 	C 	0.7175	0.9204	0.0796	0.201
Mof_H 	H 	0.6994	0.9298	0.0702	-0.03
Mof_C 	C 	0.7749	0.9155	0.0845	0.16
Mof_H 	H 	0.7956	0.9217	0.0783	0.004
Mof_C 	C 	0.748	0.9301	0.0699	-0.333
Mof_O 	O 	0.7311	0.967	0.033	-0.414
Mof_C 	C 	0.7517	0.95	0.05	0.471
Mof_C 	C 	0.7136	0.8971	0.1029	-0.218
Mof_H 	H 	0.693	0.8909	0.1091	0.107
Mof_C 	C 	0.7401	0.8829	0.1171	0.124
Mof_H 	H 	0.7371	0.8671	0.1329	-0.002
Mof_Ni	Ni	0.81227	0.37101	0.62899	1.141
Mof_N 	N 	0.7709	0.3916	0.6084	-0.217
Mof_O 	O 	0.7781	0.4622	0.5378	-0.249
Mof_C 	C 	0.7175	0.4204	0.5796	0.201
Mof_H 	H 	0.6994	0.4298	0.5702	-0.03
Mof_C 	C 	0.7749	0.4155	0.5845	0.16
Mof_H 	H 	0.7956	0.4217	0.5783	0.004
Mof_C 	C 	0.748	0.4301	0.5699	-0.333
Mof_O 	O 	0.7311	0.467	0.533	-0.415
Mof_C 	C 	0.7517	0.45	0.55	0.472
Mof_C 	C 	0.7136	0.3971	0.6029	-0.219
Mof_H 	H 	0.693	0.3909	0.6091	0.107
Mof_C 	C 	0.7401	0.3829	0.6171	0.124
Mof_H 	H 	0.7371	0.3671	0.6329	-0.002
Mof_Ni	Ni	0.31227	0.87101	0.62899	1.141
Mof_N 	N 	0.2709	0.8916	0.6084	-0.217
Mof_O 	O 	0.2781	0.9622	0.5378	-0.247
Mof_C 	C 	0.2175	0.9204	0.5796	0.2
Mof_H 	H 	0.1994	0.9298	0.5702	-0.029
Mof_C 	C 	0.2749	0.9155	0.5845	0.16
Mof_H 	H 	0.2956	0.9217	0.5783	0.004
Mof_C 	C 	0.248	0.9301	0.5699	-0.332
Mof_O 	O 	0.2311	0.967	0.533	-0.413
Mof_C 	C 	0.2517	0.95	0.55	0.471
Mof_C 	C 	0.2136	0.8971	0.6029	-0.218
Mof_H 	H 	0.193	0.8909	0.6091	0.107
Mof_C 	C 	0.2401	0.8829	0.6171	0.124
Mof_H 	H 	0.2371	0.8671	0.6329	-0.002
Mof_Ni	Ni	0.31227	0.37101	0.12899	1.141
Mof_N 	N 	0.2709	0.3916	0.1084	-0.217
Mof_O 	O 	0.2781	0.4622	0.0378	-0.251
Mof_C 	C 	0.2175	0.4204	0.0796	0.201
Mof_H 	H 	0.1994	0.4298	0.0702	-0.031
Mof_C 	C 	0.2749	0.4155	0.0845	0.161
Mof_H 	H 	0.2956	0.4217	0.0783	0.003
Mof_C 	C 	0.248	0.4301	0.0699	-0.335
Mof_O 	O 	0.2311	0.467	0.033	-0.417
Mof_C 	C 	0.2517	0.45	0.05	0.472
Mof_C 	C 	0.2136	0.3971	0.1029	-0.219
Mof_H 	H 	0.193	0.3909	0.1091	0.107
Mof_C 	C 	0.2401	0.3829	0.1171	0.125
Mof_H 	H 	0.2371	0.3671	0.1329	-0.002
Mof_Ni	Ni	0.81227	0.12899	0.87101	1.141
Mof_N 	N 	0.7709	0.1084	0.8916	-0.217
Mof_O 	O 	0.7781	0.0378	0.9622	-0.249
Mof_C 	C 	0.7175	0.0796	0.9204	0.201
Mof_H 	H 	0.6994	0.0702	0.9298	-0.03
Mof_C 	C 	0.7749	0.0845	0.9155	0.16
Mof_H 	H 	0.7956	0.0783	0.9217	0.004
Mof_C 	C 	0.748	0.0699	0.9301	-0.333
Mof_O 	O 	0.7311	0.033	0.967	-0.414
Mof_C 	C 	0.7517	0.05	0.95	0.471
Mof_C 	C 	0.7136	0.1029	0.8971	-0.218
Mof_H 	H 	0.693	0.1091	0.8909	0.107
Mof_C 	C 	0.7401	0.1171	0.8829	0.124
Mof_H 	H 	0.7371	0.1329	0.8671	-0.002
Mof_Ni	Ni	0.81227	0.62899	0.37101	1.141
Mof_N 	N 	0.7709	0.6084	0.3916	-0.217
Mof_O 	O 	0.7781	0.5378	0.4622	-0.249
Mof_C 	C 	0.7175	0.5796	0.4204	0.201
Mof_H 	H 	0.6994	0.5702	0.4298	-0.03
Mof_C 	C 	0.7749	0.5845	0.4155	0.16
Mof_H 	H 	0.7956	0.5783	0.4217	0.004
Mof_C 	C 	0.748	0.5699	0.4301	-0.333
Mof_O 	O 	0.7311	0.533	0.467	-0.415
Mof_C 	C 	0.7517	0.55	0.45	0.472
Mof_C 	C 	0.7136	0.6029	0.3971	-0.219
Mof_H 	H 	0.693	0.6091	0.3909	0.107
Mof_C 	C 	0.7401	0.6171	0.3829	0.124
Mof_H 	H 	0.7371	0.6329	0.3671	-0.002
Mof_Ni	Ni	0.31227	0.12899	0.37101	1.141
Mof_N 	N 	0.2709	0.1084	0.3916	-0.217
Mof_O 	O 	0.2781	0.0378	0.4622	-0.251
Mof_C 	C 	0.2175	0.0796	0.4204	0.201
Mof_H 	H 	0.1994	0.0702	0.4298	-0.031
Mof_C 	C 	0.2749	0.0845	0.4155	0.161
Mof_H 	H 	0.2956	0.0783	0.4217	0.003
Mof_C 	C 	0.248	0.0699	0.4301	-0.335
Mof_O 	O 	0.2311	0.033	0.467	-0.417
Mof_C 	C 	0.2517	0.05	0.45	0.472
Mof_C 	C 	0.2136	0.1029	0.3971	-0.219
Mof_H 	H 	0.193	0.1091	0.3909	0.107
Mof_C 	C 	0.2401	0.1171	0.3829	0.125
Mof_H 	H 	0.2371	0.1329	0.3671	-0.002
Mof_Ni	Ni	0.31227	0.62899	0.87101	1.141
Mof_N 	N 	0.2709	0.6084	0.8916	-0.217
Mof_O 	O 	0.2781	0.5378	0.9622	-0.247
Mof_C 	C 	0.2175	0.5796	0.9204	0.2
Mof_H 	H 	0.1994	0.5702	0.9298	-0.029
Mof_C 	C 	0.2749	0.5845	0.9155	0.16
Mof_H 	H 	0.2956	0.5783	0.9217	0.004
Mof_C 	C 	0.248	0.5699	0.9301	-0.332
Mof_O 	O 	0.2311	0.533	0.967	-0.413
Mof_C 	C 	0.2517	0.55	0.95	0.471
Mof_C 	C 	0.2136	0.6029	0.8971	-0.218
Mof_H 	H 	0.193	0.6091	0.8909	0.107
Mof_C 	C 	0.2401	0.6171	0.8829	0.124
Mof_H 	H 	0.2371	0.6329	0.8671	-0.002
Mof_Ni	Ni	0.18773	0.87101	0.87101	1.141
Mof_N 	N 	0.2291	0.8916	0.8916	-0.217
Mof_O 	O 	0.2219	0.9622	0.9622	-0.246
Mof_C 	C 	0.2825	0.9204	0.9204	0.2
Mof_H 	H 	0.3006	0.9298	0.9298	-0.028
Mof_C 	C 	0.2251	0.9155	0.9155	0.16
Mof_H 	H 	0.2044	0.9217	0.9217	0.005
Mof_C 	C 	0.252	0.9301	0.9301	-0.33
Mof_O 	O 	0.2689	0.967	0.967	-0.41
Mof_C 	C 	0.2483	0.95	0.95	0.469
Mof_C 	C 	0.2864	0.8971	0.8971	-0.217
Mof_H 	H 	0.307	0.8909	0.8909	0.107
Mof_C 	C 	0.2599	0.8829	0.8829	0.124
Mof_H 	H 	0.2629	0.8671	0.8671	-0.002
Mof_Ni	Ni	0.18773	0.37101	0.37101	1.141
Mof_N 	N 	0.2291	0.3916	0.3916	-0.217
Mof_O 	O 	0.2219	0.4622	0.4622	-0.249
Mof_C 	C 	0.2825	0.4204	0.4204	0.201
Mof_H 	H 	0.3006	0.4298	0.4298	-0.03
Mof_C 	C 	0.2251	0.4155	0.4155	0.16
Mof_H 	H 	0.2044	0.4217	0.4217	0.004
Mof_C 	C 	0.252	0.4301	0.4301	-0.334
Mof_O 	O 	0.2689	0.467	0.467	-0.415
Mof_C 	C 	0.2483	0.45	0.45	0.472
Mof_C 	C 	0.2864	0.3971	0.3971	-0.219
Mof_H 	H 	0.307	0.3909	0.3909	0.107
Mof_C 	C 	0.2599	0.3829	0.3829	0.125
Mof_H 	H 	0.2629	0.3671	0.3671	-0.002
Mof_Ni	Ni	0.68773	0.87101	0.37101	1.141
Mof_N 	N 	0.7291	0.8916	0.3916	-0.217
Mof_O 	O 	0.7219	0.9622	0.4622	-0.247
Mof_C 	C 	0.7825	0.9204	0.4204	0.2
Mof_H 	H 	0.8006	0.9298	0.4298	-0.029
Mof_C 	C 	0.7251	0.9155	0.4155	0.16
Mof_H 	H 	0.7044	0.9217	0.4217	0.004
Mof_C 	C 	0.752	0.9301	0.4301	-0.332
Mof_O 	O 	0.7689	0.967	0.467	-0.413
Mof_C 	C 	0.7483	0.95	0.45	0.471
Mof_C 	C 	0.7864	0.8971	0.3971	-0.218
Mof_H 	H 	0.807	0.8909	0.3909	0.107
Mof_C 	C 	0.7599	0.8829	0.3829	0.124
Mof_H 	H 	0.7629	0.8671	0.3671	-0.002
Mof_Ni	Ni	0.68773	0.37101	0.87101	1.141
Mof_N 	N 	0.7291	0.3916	0.8916	-0.217
Mof_O 	O 	0.7219	0.4622	0.9622	-0.247
Mof_C 	C 	0.7825	0.4204	0.9204	0.2
Mof_H 	H 	0.8006	0.4298	0.9298	-0.029
Mof_C 	C 	0.7251	0.4155	0.9155	0.16
Mof_H 	H 	0.7044	0.4217	0.9217	0.004
Mof_C 	C 	0.752	0.4301	0.9301	-0.332
Mof_O 	O 	0.7689	0.467	0.967	-0.413
Mof_C 	C 	0.7483	0.45	0.95	0.471
Mof_C 	C 	0.7864	0.3971	0.8971	-0.218
Mof_H 	H 	0.807	0.3909	0.8909	0.107
Mof_C 	C 	0.7599	0.3829	0.8829	0.124
Mof_H 	H 	0.7629	0.3671	0.8671	-0.002
Mof_Ni	Ni	0.12899	0.18773	0.12899	1.141
Mof_N 	N 	0.1084	0.2291	0.1084	-0.218
Mof_O 	O 	0.0378	0.2219	0.0378	-0.253
Mof_C 	C 	0.0796	0.2825	0.0796	0.202
Mof_H 	H 	0.0702	0.3006	0.0702	-0.032
Mof_C 	C 	0.0845	0.2251	0.0845	0.161
Mof_H 	H 	0.0783	0.2044	0.0783	0.003
Mof_C 	C 	0.0699	0.252	0.0699	-0.336
Mof_O 	O 	0.033	0.2689	0.033	-0.418
Mof_C 	C 	0.05	0.2483	0.05	0.473
Mof_C 	C 	0.1029	0.2864	0.1029	-0.22
Mof_H 	H 	0.1091	0.307	0.1091	0.107
Mof_C 	C 	0.1171	0.2599	0.1171	0.125
Mof_H 	H 	0.1329	0.2629	0.1329	-0.002
Mof_Ni	Ni	0.12899	0.68773	0.62899	1.141
Mof_N 	N 	0.1084	0.7291	0.6084	-0.217
Mof_O 	O 	0.0378	0.7219	0.5378	-0.251
Mof_C 	C 	0.0796	0.7825	0.5796	0.201
Mof_H 	H 	0.0702	0.8006	0.5702	-0.031
Mof_C 	C 	0.0845	0.7251	0.5845	0.161
Mof_H 	H 	0.0783	0.7044	0.5783	0.003
Mof_C 	C 	0.0699	0.752	0.5699	-0.335
Mof_O 	O 	0.033	0.7689	0.533	-0.416
Mof_C 	C 	0.05	0.7483	0.55	0.472
Mof_C 	C 	0.1029	0.7864	0.6029	-0.219
Mof_H 	H 	0.1091	0.807	0.6091	0.107
Mof_C 	C 	0.1171	0.7599	0.6171	0.125
Mof_H 	H 	0.1329	0.7629	0.6329	-0.002
Mof_Ni	Ni	0.62899	0.18773	0.62899	1.141
Mof_N 	N 	0.6084	0.2291	0.6084	-0.217
Mof_O 	O 	0.5378	0.2219	0.5378	-0.249
Mof_C 	C 	0.5796	0.2825	0.5796	0.201
Mof_H 	H 	0.5702	0.3006	0.5702	-0.03
Mof_C 	C 	0.5845	0.2251	0.5845	0.16
Mof_H 	H 	0.5783	0.2044	0.5783	0.004
Mof_C 	C 	0.5699	0.252	0.5699	-0.334
Mof_O 	O 	0.533	0.2689	0.533	-0.415
Mof_C 	C 	0.55	0.2483	0.55	0.472
Mof_C 	C 	0.6029	0.2864	0.6029	-0.219
Mof_H 	H 	0.6091	0.307	0.6091	0.107
Mof_C 	C 	0.6171	0.2599	0.6171	0.124
Mof_H 	H 	0.6329	0.2629	0.6329	-0.002
Mof_Ni	Ni	0.62899	0.68773	0.12899	1.141
Mof_N 	N 	0.6084	0.7291	0.1084	-0.217
Mof_O 	O 	0.5378	0.7219	0.0378	-0.251
Mof_C 	C 	0.5796	0.7825	0.0796	0.201
Mof_H 	H 	0.5702	0.8006	0.0702	-0.031
Mof_C 	C 	0.5845	0.7251	0.0845	0.161
Mof_H 	H 	0.5783	0.7044	0.0783	0.003
Mof_C 	C 	0.5699	0.752	0.0699	-0.335
Mof_O 	O 	0.533	0.7689	0.033	-0.416
Mof_C 	C 	0.55	0.7483	0.05	0.472
Mof_C 	C 	0.6029	0.7864	0.1029	-0.219
Mof_H 	H 	0.6091	0.807	0.1091	0.107
Mof_C 	C 	0.6171	0.7599	0.1171	0.125
Mof_H 	H 	0.6329	0.7629	0.1329	-0.002
Mof_Ni	Ni	0.12899	0.81227	0.87101	1.141
Mof_N 	N 	0.1084	0.7709	0.8916	-0.217
Mof_O 	O 	0.0378	0.7781	0.9622	-0.249
Mof_C 	C 	0.0796	0.7175	0.9204	0.201
Mof_H 	H 	0.0702	0.6994	0.9298	-0.03
Mof_C 	C 	0.0845	0.7749	0.9155	0.16
Mof_H 	H 	0.0783	0.7956	0.9217	0.004
Mof_C 	C 	0.0699	0.748	0.9301	-0.333
Mof_O 	O 	0.033	0.7311	0.967	-0.414
Mof_C 	C 	0.05	0.7517	0.95	0.471
Mof_C 	C 	0.1029	0.7136	0.8971	-0.218
Mof_H 	H 	0.1091	0.693	0.8909	0.107
Mof_C 	C 	0.1171	0.7401	0.8829	0.124
Mof_H 	H 	0.1329	0.7371	0.8671	-0.002
Mof_Ni	Ni	0.12899	0.31227	0.37101	1.141
Mof_N 	N 	0.1084	0.2709	0.3916	-0.217
Mof_O 	O 	0.0378	0.2781	0.4622	-0.251
Mof_C 	C 	0.0796	0.2175	0.4204	0.201
Mof_H 	H 	0.0702	0.1994	0.4298	-0.031
Mof_C 	C 	0.0845	0.2749	0.4155	0.161
Mof_H 	H 	0.0783	0.2956	0.4217	0.003
Mof_C 	C 	0.0699	0.248	0.4301	-0.335
Mof_O 	O 	0.033	0.2311	0.467	-0.417
Mof_C 	C 	0.05	0.2517	0.45	0.472
Mof_C 	C 	0.1029	0.2136	0.3971	-0.219
Mof_H 	H 	0.1091	0.193	0.3909	0.107
Mof_C 	C 	0.1171	0.2401	0.3829	0.125
Mof_H 	H 	0.1329	0.2371	0.3671	-0.002
Mof_Ni	Ni	0.62899	0.81227	0.37101	1.141
Mof_N 	N 	0.6084	0.7709	0.3916	-0.217
Mof_O 	O 	0.5378	0.7781	0.4622	-0.249
Mof_C 	C 	0.5796	0.7175	0.4204	0.201
Mof_H 	H 	0.5702	0.6994	0.4298	-0.03
Mof_C 	C 	0.5845	0.7749	0.4155	0.16
Mof_H 	H 	0.5783	0.7956	0.4217	0.004
Mof_C 	C 	0.5699	0.748	0.4301	-0.333
Mof_O 	O 	0.533	0.7311	0.467	-0.415
Mof_C 	C 	0.55	0.7517	0.45	0.472
Mof_C 	C 	0.6029	0.7136	0.3971	-0.219
Mof_H 	H 	0.6091	0.693	0.3909	0.107
Mof_C 	C 	0.6171	0.7401	0.3829	0.124
Mof_H 	H 	0.6329	0.7371	0.3671	-0.002
Mof_Ni	Ni	0.62899	0.31227	0.87101	1.141
Mof_N 	N 	0.6084	0.2709	0.8916	-0.217
Mof_O 	O 	0.5378	0.2781	0.9622	-0.247
Mof_C 	C 	0.5796	0.2175	0.9204	0.2
Mof_H 	H 	0.5702	0.1994	0.9298	-0.029
Mof_C 	C 	0.5845	0.2749	0.9155	0.16
Mof_H 	H 	0.5783	0.2956	0.9217	0.004
Mof_C 	C 	0.5699	0.248	0.9301	-0.332
Mof_O 	O 	0.533	0.2311	0.967	-0.413
Mof_C 	C 	0.55	0.2517	0.95	0.471
Mof_C 	C 	0.6029	0.2136	0.8971	-0.218
Mof_H 	H 	0.6091	0.193	0.8909	0.107
Mof_C 	C 	0.6171	0.2401	0.8829	0.124
Mof_H 	H 	0.6329	0.2371	0.8671	-0.002
Mof_Ni	Ni	0.87101	0.81227	0.12899	1.141
Mof_N 	N 	0.8916	0.7709	0.1084	-0.217
Mof_O 	O 	0.9622	0.7781	0.0378	-0.249
Mof_C 	C 	0.9204	0.7175	0.0796	0.201
Mof_H 	H 	0.9298	0.6994	0.0702	-0.03
Mof_C 	C 	0.9155	0.7749	0.0845	0.16
Mof_H 	H 	0.9217	0.7956	0.0783	0.004
Mof_C 	C 	0.9301	0.748	0.0699	-0.333
Mof_O 	O 	0.967	0.7311	0.033	-0.414
Mof_C 	C 	0.95	0.7517	0.05	0.471
Mof_C 	C 	0.8971	0.7136	0.1029	-0.218
Mof_H 	H 	0.8909	0.693	0.1091	0.107
Mof_C 	C 	0.8829	0.7401	0.1171	0.124
Mof_H 	H 	0.8671	0.7371	0.1329	-0.002
Mof_Ni	Ni	0.87101	0.31227	0.62899	1.141
Mof_N 	N 	0.8916	0.2709	0.6084	-0.217
Mof_O 	O 	0.9622	0.2781	0.5378	-0.247
Mof_C 	C 	0.9204	0.2175	0.5796	0.2
Mof_H 	H 	0.9298	0.1994	0.5702	-0.029
Mof_C 	C 	0.9155	0.2749	0.5845	0.16
Mof_H 	H 	0.9217	0.2956	0.5783	0.004
Mof_C 	C 	0.9301	0.248	0.5699	-0.332
Mof_O 	O 	0.967	0.2311	0.533	-0.413
Mof_C 	C 	0.95	0.2517	0.55	0.471
Mof_C 	C 	0.8971	0.2136	0.6029	-0.218
Mof_H 	H 	0.8909	0.193	0.6091	0.107
Mof_C 	C 	0.8829	0.2401	0.6171	0.124
Mof_H 	H 	0.8671	0.2371	0.6329	-0.002
Mof_Ni	Ni	0.37101	0.81227	0.62899	1.141
Mof_N 	N 	0.3916	0.7709	0.6084	-0.217
Mof_O 	O 	0.4622	0.7781	0.5378	-0.249
Mof_C 	C 	0.4204	0.7175	0.5796	0.201
Mof_H 	H 	0.4298	0.6994	0.5702	-0.03
Mof_C 	C 	0.4155	0.7749	0.5845	0.16
Mof_H 	H 	0.4217	0.7956	0.5783	0.004
Mof_C 	C 	0.4301	0.748	0.5699	-0.333
Mof_O 	O 	0.467	0.7311	0.533	-0.415
Mof_C 	C 	0.45	0.7517	0.55	0.472
Mof_C 	C 	0.3971	0.7136	0.6029	-0.219
Mof_H 	H 	0.3909	0.693	0.6091	0.107
Mof_C 	C 	0.3829	0.7401	0.6171	0.124
Mof_H 	H 	0.3671	0.7371	0.6329	-0.002
Mof_Ni	Ni	0.37101	0.31227	0.12899	1.141
Mof_N 	N 	0.3916	0.2709	0.1084	-0.217
Mof_O 	O 	0.4622	0.2781	0.0378	-0.251
Mof_C 	C 	0.4204	0.2175	0.0796	0.201
Mof_H 	H 	0.4298	0.1994	0.0702	-0.031
Mof_C 	C 	0.4155	0.2749	0.0845	0.161
Mof_H 	H 	0.4217	0.2956	0.0783	0.003
Mof_C 	C 	0.4301	0.248	0.0699	-0.335
Mof_O 	O 	0.467	0.2311	0.033	-0.417
Mof_C 	C 	0.45	0.2517	0.05	0.472
Mof_C 	C 	0.3971	0.2136	0.1029	-0.219
Mof_H 	H 	0.3909	0.193	0.1091	0.107
Mof_C 	C 	0.3829	0.2401	0.1171	0.125
Mof_H 	H 	0.3671	0.2371	0.1329	-0.002
Mof_Ni	Ni	0.87101	0.18773	0.87101	1.141
Mof_N 	N 	0.8916	0.2291	0.8916	-0.217
Mof_O 	O 	0.9622	0.2219	0.9622	-0.246
Mof_C 	C 	0.9204	0.2825	0.9204	0.2
Mof_H 	H 	0.9298	0.3006	0.9298	-0.028
Mof_C 	C 	0.9155	0.2251	0.9155	0.16
Mof_H 	H 	0.9217	0.2044	0.9217	0.005
Mof_C 	C 	0.9301	0.252	0.9301	-0.33
Mof_O 	O 	0.967	0.2689	0.967	-0.41
Mof_C 	C 	0.95	0.2483	0.95	0.469
Mof_C 	C 	0.8971	0.2864	0.8971	-0.217
Mof_H 	H 	0.8909	0.307	0.8909	0.107
Mof_C 	C 	0.8829	0.2599	0.8829	0.124
Mof_H 	H 	0.8671	0.2629	0.8671	-0.002
Mof_Ni	Ni	0.87101	0.68773	0.37101	1.141
Mof_N 	N 	0.8916	0.7291	0.3916	-0.217
Mof_O 	O 	0.9622	0.7219	0.4622	-0.247
Mof_C 	C 	0.9204	0.7825	0.4204	0.2
Mof_H 	H 	0.9298	0.8006	0.4298	-0.029
Mof_C 	C 	0.9155	0.7251	0.4155	0.16
Mof_H 	H 	0.9217	0.7044	0.4217	0.004
Mof_C 	C 	0.9301	0.752	0.4301	-0.332
Mof_O 	O 	0.967	0.7689	0.467	-0.413
Mof_C 	C 	0.95	0.7483	0.45	0.471
Mof_C 	C 	0.8971	0.7864	0.3971	-0.218
Mof_H 	H 	0.8909	0.807	0.3909	0.107
Mof_C 	C 	0.8829	0.7599	0.3829	0.124
Mof_H 	H 	0.8671	0.7629	0.3671	-0.002
Mof_Ni	Ni	0.37101	0.18773	0.37101	1.141
Mof_N 	N 	0.3916	0.2291	0.3916	-0.217
Mof_O 	O 	0.4622	0.2219	0.4622	-0.249
Mof_C 	C 	0.4204	0.2825	0.4204	0.201
Mof_H 	H 	0.4298	0.3006	0.4298	-0.03
Mof_C 	C 	0.4155	0.2251	0.4155	0.16
Mof_H 	H 	0.4217	0.2044	0.4217	0.004
Mof_C 	C 	0.4301	0.252	0.4301	-0.334
Mof_O 	O 	0.467	0.2689	0.467	-0.415
Mof_C 	C 	0.45	0.2483	0.45	0.472
Mof_C 	C 	0.3971	0.2864	0.3971	-0.219
Mof_H 	H 	0.3909	0.307	0.3909	0.107
Mof_C 	C 	0.3829	0.2599	0.3829	0.125
Mof_H 	H 	0.3671	0.2629	0.3671	-0.002
Mof_Ni	Ni	0.37101	0.68773	0.87101	1.141
Mof_N 	N 	0.3916	0.7291	0.8916	-0.217
Mof_O 	O 	0.4622	0.7219	0.9622	-0.247
Mof_C 	C 	0.4204	0.7825	0.9204	0.2
Mof_H 	H 	0.4298	0.8006	0.9298	-0.029
Mof_C 	C 	0.4155	0.7251	0.9155	0.16
Mof_H 	H 	0.4217	0.7044	0.9217	0.004
Mof_C 	C 	0.4301	0.752	0.9301	-0.332
Mof_O 	O 	0.467	0.7689	0.967	-0.413
Mof_C 	C 	0.45	0.7483	0.95	0.471
Mof_C 	C 	0.3971	0.7864	0.8971	-0.218
Mof_H 	H 	0.3909	0.807	0.8909	0.107
Mof_C 	C 	0.3829	0.7599	0.8829	0.124
Mof_H 	H 	0.3671	0.7629	0.8671	-0.002
Mof_Ni	Ni	0.12899	0.12899	0.18773	1.141
Mof_N 	N 	0.1084	0.1084	0.2291	-0.218
Mof_O 	O 	0.0378	0.0378	0.2219	-0.253
Mof_C 	C 	0.0796	0.0796	0.2825	0.202
Mof_H 	H 	0.0702	0.0702	0.3006	-0.032
Mof_C 	C 	0.0845	0.0845	0.2251	0.161
Mof_H 	H 	0.0783	0.0783	0.2044	0.003
Mof_C 	C 	0.0699	0.0699	0.252	-0.336
Mof_O 	O 	0.033	0.033	0.2689	-0.418
Mof_C 	C 	0.05	0.05	0.2483	0.473
Mof_C 	C 	0.1029	0.1029	0.2864	-0.22
Mof_H 	H 	0.1091	0.1091	0.307	0.107
Mof_C 	C 	0.1171	0.1171	0.2599	0.125
Mof_H 	H 	0.1329	0.1329	0.2629	-0.002
Mof_Ni	Ni	0.12899	0.62899	0.68773	1.141
Mof_N 	N 	0.1084	0.6084	0.7291	-0.217
Mof_O 	O 	0.0378	0.5378	0.7219	-0.251
Mof_C 	C 	0.0796	0.5796	0.7825	0.201
Mof_H 	H 	0.0702	0.5702	0.8006	-0.031
Mof_C 	C 	0.0845	0.5845	0.7251	0.161
Mof_H 	H 	0.0783	0.5783	0.7044	0.003
Mof_C 	C 	0.0699	0.5699	0.752	-0.335
Mof_O 	O 	0.033	0.533	0.7689	-0.416
Mof_C 	C 	0.05	0.55	0.7483	0.472
Mof_C 	C 	0.1029	0.6029	0.7864	-0.219
Mof_H 	H 	0.1091	0.6091	0.807	0.107
Mof_C 	C 	0.1171	0.6171	0.7599	0.125
Mof_H 	H 	0.1329	0.6329	0.7629	-0.002
Mof_Ni	Ni	0.62899	0.12899	0.68773	1.141
Mof_N 	N 	0.6084	0.1084	0.7291	-0.217
Mof_O 	O 	0.5378	0.0378	0.7219	-0.251
Mof_C 	C 	0.5796	0.0796	0.7825	0.201
Mof_H 	H 	0.5702	0.0702	0.8006	-0.031
Mof_C 	C 	0.5845	0.0845	0.7251	0.161
Mof_H 	H 	0.5783	0.0783	0.7044	0.003
Mof_C 	C 	0.5699	0.0699	0.752	-0.335
Mof_O 	O 	0.533	0.033	0.7689	-0.416
Mof_C 	C 	0.55	0.05	0.7483	0.472
Mof_C 	C 	0.6029	0.1029	0.7864	-0.219
Mof_H 	H 	0.6091	0.1091	0.807	0.107
Mof_C 	C 	0.6171	0.1171	0.7599	0.125
Mof_H 	H 	0.6329	0.1329	0.7629	-0.002
Mof_Ni	Ni	0.62899	0.62899	0.18773	1.141
Mof_N 	N 	0.6084	0.6084	0.2291	-0.217
Mof_O 	O 	0.5378	0.5378	0.2219	-0.249
Mof_C 	C 	0.5796	0.5796	0.2825	0.201
Mof_H 	H 	0.5702	0.5702	0.3006	-0.03
Mof_C 	C 	0.5845	0.5845	0.2251	0.16
Mof_H 	H 	0.5783	0.5783	0.2044	0.004
Mof_C 	C 	0.5699	0.5699	0.252	-0.334
Mof_O 	O 	0.533	0.533	0.2689	-0.415
Mof_C 	C 	0.55	0.55	0.2483	0.472
Mof_C 	C 	0.6029	0.6029	0.2864	-0.219
Mof_H 	H 	0.6091	0.6091	0.307	0.107
Mof_C 	C 	0.6171	0.6171	0.2599	0.124
Mof_H 	H 	0.6329	0.6329	0.2629	-0.002
Mof_Ni	Ni	0.87101	0.12899	0.81227	1.141
Mof_N 	N 	0.8916	0.1084	0.7709	-0.217
Mof_O 	O 	0.9622	0.0378	0.7781	-0.249
Mof_C 	C 	0.9204	0.0796	0.7175	0.201
Mof_H 	H 	0.9298	0.0702	0.6994	-0.03
Mof_C 	C 	0.9155	0.0845	0.7749	0.16
Mof_H 	H 	0.9217	0.0783	0.7956	0.004
Mof_C 	C 	0.9301	0.0699	0.748	-0.333
Mof_O 	O 	0.967	0.033	0.7311	-0.414
Mof_C 	C 	0.95	0.05	0.7517	0.471
Mof_C 	C 	0.8971	0.1029	0.7136	-0.218
Mof_H 	H 	0.8909	0.1091	0.693	0.107
Mof_C 	C 	0.8829	0.1171	0.7401	0.124
Mof_H 	H 	0.8671	0.1329	0.7371	-0.002
Mof_Ni	Ni	0.87101	0.62899	0.31227	1.141
Mof_N 	N 	0.8916	0.6084	0.2709	-0.217
Mof_O 	O 	0.9622	0.5378	0.2781	-0.247
Mof_C 	C 	0.9204	0.5796	0.2175	0.2
Mof_H 	H 	0.9298	0.5702	0.1994	-0.029
Mof_C 	C 	0.9155	0.5845	0.2749	0.16
Mof_H 	H 	0.9217	0.5783	0.2956	0.004
Mof_C 	C 	0.9301	0.5699	0.248	-0.332
Mof_O 	O 	0.967	0.533	0.2311	-0.413
Mof_C 	C 	0.95	0.55	0.2517	0.471
Mof_C 	C 	0.8971	0.6029	0.2136	-0.218
Mof_H 	H 	0.8909	0.6091	0.193	0.107
Mof_C 	C 	0.8829	0.6171	0.2401	0.124
Mof_H 	H 	0.8671	0.6329	0.2371	-0.002
Mof_Ni	Ni	0.37101	0.12899	0.31227	1.141
Mof_N 	N 	0.3916	0.1084	0.2709	-0.217
Mof_O 	O 	0.4622	0.0378	0.2781	-0.251
Mof_C 	C 	0.4204	0.0796	0.2175	0.201
Mof_H 	H 	0.4298	0.0702	0.1994	-0.031
Mof_C 	C 	0.4155	0.0845	0.2749	0.161
Mof_H 	H 	0.4217	0.0783	0.2956	0.003
Mof_C 	C 	0.4301	0.0699	0.248	-0.335
Mof_O 	O 	0.467	0.033	0.2311	-0.417
Mof_C 	C 	0.45	0.05	0.2517	0.472
Mof_C 	C 	0.3971	0.1029	0.2136	-0.219
Mof_H 	H 	0.3909	0.1091	0.193	0.107
Mof_C 	C 	0.3829	0.1171	0.2401	0.125
Mof_H 	H 	0.3671	0.1329	0.2371	-0.002
Mof_Ni	Ni	0.37101	0.62899	0.81227	1.141
Mof_N 	N 	0.3916	0.6084	0.7709	-0.217
Mof_O 	O 	0.4622	0.5378	0.7781	-0.249
Mof_C 	C 	0.4204	0.5796	0.7175	0.201
Mof_H 	H 	0.4298	0.5702	0.6994	-0.03
Mof_C 	C 	0.4155	0.5845	0.7749	0.16
Mof_H 	H 	0.4217	0.5783	0.7956	0.004
Mof_C 	C 	0.4301	0.5699	0.748	-0.333
Mof_O 	O 	0.467	0.533	0.7311	-0.415
Mof_C 	C 	0.45	0.55	0.7517	0.472
Mof_C 	C 	0.3971	0.6029	0.7136	-0.219
Mof_H 	H 	0.3909	0.6091	0.693	0.107
Mof_C 	C 	0.3829	0.6171	0.7401	0.124
Mof_H 	H 	0.3671	0.6329	0.7371	-0.002
Mof_Ni	Ni	0.12899	0.87101	0.81227	1.141
Mof_N 	N 	0.1084	0.8916	0.7709	-0.217
Mof_O 	O 	0.0378	0.9622	0.7781	-0.249
Mof_C 	C 	0.0796	0.9204	0.7175	0.201
Mof_H 	H 	0.0702	0.9298	0.6994	-0.03
Mof_C 	C 	0.0845	0.9155	0.7749	0.16
Mof_H 	H 	0.0783	0.9217	0.7956	0.004
Mof_C 	C 	0.0699	0.9301	0.748	-0.333
Mof_O 	O 	0.033	0.967	0.7311	-0.414
Mof_C 	C 	0.05	0.95	0.7517	0.471
Mof_C 	C 	0.1029	0.8971	0.7136	-0.218
Mof_H 	H 	0.1091	0.8909	0.693	0.107
Mof_C 	C 	0.1171	0.8829	0.7401	0.124
Mof_H 	H 	0.1329	0.8671	0.7371	-0.002
Mof_Ni	Ni	0.12899	0.37101	0.31227	1.141
Mof_N 	N 	0.1084	0.3916	0.2709	-0.217
Mof_O 	O 	0.0378	0.4622	0.2781	-0.251
Mof_C 	C 	0.0796	0.4204	0.2175	0.201
Mof_H 	H 	0.0702	0.4298	0.1994	-0.031
Mof_C 	C 	0.0845	0.4155	0.2749	0.161
Mof_H 	H 	0.0783	0.4217	0.2956	0.003
Mof_C 	C 	0.0699	0.4301	0.248	-0.335
Mof_O 	O 	0.033	0.467	0.2311	-0.417
Mof_C 	C 	0.05	0.45	0.2517	0.472
Mof_C 	C 	0.1029	0.3971	0.2136	-0.219
Mof_H 	H 	0.1091	0.3909	0.193	0.107
Mof_C 	C 	0.1171	0.3829	0.2401	0.125
Mof_H 	H 	0.1329	0.3671	0.2371	-0.002
Mof_Ni	Ni	0.62899	0.87101	0.31227	1.141
Mof_N 	N 	0.6084	0.8916	0.2709	-0.217
Mof_O 	O 	0.5378	0.9622	0.2781	-0.247
Mof_C 	C 	0.5796	0.9204	0.2175	0.2
Mof_H 	H 	0.5702	0.9298	0.1994	-0.029
Mof_C 	C 	0.5845	0.9155	0.2749	0.16
Mof_H 	H 	0.5783	0.9217	0.2956	0.004
Mof_C 	C 	0.5699	0.9301	0.248	-0.332
Mof_O 	O 	0.533	0.967	0.2311	-0.413
Mof_C 	C 	0.55	0.95	0.2517	0.471
Mof_C 	C 	0.6029	0.8971	0.2136	-0.218
Mof_H 	H 	0.6091	0.8909	0.193	0.107
Mof_C 	C 	0.6171	0.8829	0.2401	0.124
Mof_H 	H 	0.6329	0.8671	0.2371	-0.002
Mof_Ni	Ni	0.62899	0.37101	0.81227	1.141
Mof_N 	N 	0.6084	0.3916	0.7709	-0.217
Mof_O 	O 	0.5378	0.4622	0.7781	-0.249
Mof_C 	C 	0.5796	0.4204	0.7175	0.201
Mof_H 	H 	0.5702	0.4298	0.6994	-0.03
Mof_C 	C 	0.5845	0.4155	0.7749	0.16
Mof_H 	H 	0.5783	0.4217	0.7956	0.004
Mof_C 	C 	0.5699	0.4301	0.748	-0.333
Mof_O 	O 	0.533	0.467	0.7311	-0.415
Mof_C 	C 	0.55	0.45	0.7517	0.472
Mof_C 	C 	0.6029	0.3971	0.7136	-0.219
Mof_H 	H 	0.6091	0.3909	0.693	0.107
Mof_C 	C 	0.6171	0.3829	0.7401	0.124
Mof_H 	H 	0.6329	0.3671	0.7371	-0.002
Mof_Ni	Ni	0.87101	0.87101	0.18773	1.141
Mof_N 	N 	0.8916	0.8916	0.2291	-0.217
Mof_O 	O 	0.9622	0.9622	0.2219	-0.246
Mof_C 	C 	0.9204	0.9204	0.2825	0.2
Mof_H 	H 	0.9298	0.9298	0.3006	-0.028
Mof_C 	C 	0.9155	0.9155	0.2251	0.16
Mof_H 	H 	0.9217	0.9217	0.2044	0.005
Mof_C 	C 	0.9301	0.9301	0.252	-0.33
Mof_O 	O 	0.967	0.967	0.2689	-0.41
Mof_C 	C 	0.95	0.95	0.2483	0.469
Mof_C 	C 	0.8971	0.8971	0.2864	-0.217
Mof_H 	H 	0.8909	0.8909	0.307	0.107
Mof_C 	C 	0.8829	0.8829	0.2599	0.124
Mof_H 	H 	0.8671	0.8671	0.2629	-0.002
Mof_Ni	Ni	0.87101	0.37101	0.68773	1.141
Mof_N 	N 	0.8916	0.3916	0.7291	-0.217
Mof_O 	O 	0.9622	0.4622	0.7219	-0.247
Mof_C 	C 	0.9204	0.4204	0.7825	0.2
Mof_H 	H 	0.9298	0.4298	0.8006	-0.029
Mof_C 	C 	0.9155	0.4155	0.7251	0.16
Mof_H 	H 	0.9217	0.4217	0.7044	0.004
Mof_C 	C 	0.9301	0.4301	0.752	-0.332
Mof_O 	O 	0.967	0.467	0.7689	-0.413
Mof_C 	C 	0.95	0.45	0.7483	0.471
Mof_C 	C 	0.8971	0.3971	0.7864	-0.218
Mof_H 	H 	0.8909	0.3909	0.807	0.107
Mof_C 	C 	0.8829	0.3829	0.7599	0.124
Mof_H 	H 	0.8671	0.3671	0.7629	-0.002
Mof_Ni	Ni	0.37101	0.87101	0.68773	1.141
Mof_N 	N 	0.3916	0.8916	0.7291	-0.217
Mof_O 	O 	0.4622	0.9622	0.7219	-0.247
Mof_C 	C 	0.4204	0.9204	0.7825	0.2
Mof_H 	H 	0.4298	0.9298	0.8006	-0.029
Mof_C 	C 	0.4155	0.9155	0.7251	0.16
Mof_H 	H 	0.4217	0.9217	0.7044	0.004
Mof_C 	C 	0.4301	0.9301	0.752	-0.332
Mof_O 	O 	0.467	0.967	0.7689	-0.413
Mof_C 	C 	0.45	0.95	0.7483	0.471
Mof_C 	C 	0.3971	0.8971	0.7864	-0.218
Mof_H 	H 	0.3909	0.8909	0.807	0.107
Mof_C 	C 	0.3829	0.8829	0.7599	0.124
Mof_H 	H 	0.3671	0.8671	0.7629	-0.002
Mof_Ni	Ni	0.37101	0.37101	0.18773	1.141
Mof_N 	N 	0.3916	0.3916	0.2291	-0.217
Mof_O 	O 	0.4622	0.4622	0.2219	-0.249
Mof_C 	C 	0.4204	0.4204	0.2825	0.201
Mof_H 	H 	0.4298	0.4298	0.3006	-0.03
Mof_C 	C 	0.4155	0.4155	0.2251	0.16
Mof_H 	H 	0.4217	0.4217	0.2044	0.004
Mof_C 	C 	0.4301	0.4301	0.252	-0.334
Mof_O 	O 	0.467	0.467	0.2689	-0.415
Mof_C 	C 	0.45	0.45	0.2483	0.472
Mof_C 	C 	0.3971	0.3971	0.2864	-0.219
Mof_H 	H 	0.3909	0.3909	0.307	0.107
Mof_C 	C 	0.3829	0.3829	0.2599	0.125
Mof_H 	H 	0.3671	0.3671	0.2629	-0.002
Mof_Ni	Ni	0.12899	0.18773	0.87101	1.141
Mof_N 	N 	0.1084	0.2291	0.8916	-0.217
Mof_O 	O 	0.0378	0.2219	0.9622	-0.249
Mof_C 	C 	0.0796	0.2825	0.9204	0.201
Mof_H 	H 	0.0702	0.3006	0.9298	-0.03
Mof_C 	C 	0.0845	0.2251	0.9155	0.16
Mof_H 	H 	0.0783	0.2044	0.9217	0.004
Mof_C 	C 	0.0699	0.252	0.9301	-0.333
Mof_O 	O 	0.033	0.2689	0.967	-0.414
Mof_C 	C 	0.05	0.2483	0.95	0.471
Mof_C 	C 	0.1029	0.2864	0.8971	-0.218
Mof_H 	H 	0.1091	0.307	0.8909	0.107
Mof_C 	C 	0.1171	0.2599	0.8829	0.124
Mof_H 	H 	0.1329	0.2629	0.8671	-0.002
Mof_Ni	Ni	0.12899	0.68773	0.37101	1.141
Mof_N 	N 	0.1084	0.7291	0.3916	-0.217
Mof_O 	O 	0.0378	0.7219	0.4622	-0.251
Mof_C 	C 	0.0796	0.7825	0.4204	0.201
Mof_H 	H 	0.0702	0.8006	0.4298	-0.031
Mof_C 	C 	0.0845	0.7251	0.4155	0.161
Mof_H 	H 	0.0783	0.7044	0.4217	0.003
Mof_C 	C 	0.0699	0.752	0.4301	-0.335
Mof_O 	O 	0.033	0.7689	0.467	-0.416
Mof_C 	C 	0.05	0.7483	0.45	0.472
Mof_C 	C 	0.1029	0.7864	0.3971	-0.219
Mof_H 	H 	0.1091	0.807	0.3909	0.107
Mof_C 	C 	0.1171	0.7599	0.3829	0.125
Mof_H 	H 	0.1329	0.7629	0.3671	-0.002
Mof_Ni	Ni	0.62899	0.18773	0.37101	1.141
Mof_N 	N 	0.6084	0.2291	0.3916	-0.217
Mof_O 	O 	0.5378	0.2219	0.4622	-0.249
Mof_C 	C 	0.5796	0.2825	0.4204	0.201
Mof_H 	H 	0.5702	0.3006	0.4298	-0.03
Mof_C 	C 	0.5845	0.2251	0.4155	0.16
Mof_H 	H 	0.5783	0.2044	0.4217	0.004
Mof_C 	C 	0.5699	0.252	0.4301	-0.334
Mof_O 	O 	0.533	0.2689	0.467	-0.415
Mof_C 	C 	0.55	0.2483	0.45	0.472
Mof_C 	C 	0.6029	0.2864	0.3971	-0.219
Mof_H 	H 	0.6091	0.307	0.3909	0.107
Mof_C 	C 	0.6171	0.2599	0.3829	0.125
Mof_H 	H 	0.6329	0.2629	0.3671	-0.002
Mof_Ni	Ni	0.62899	0.68773	0.87101	1.141
Mof_N 	N 	0.6084	0.7291	0.8916	-0.217
Mof_O 	O 	0.5378	0.7219	0.9622	-0.247
Mof_C 	C 	0.5796	0.7825	0.9204	0.2
Mof_H 	H 	0.5702	0.8006	0.9298	-0.029
Mof_C 	C 	0.5845	0.7251	0.9155	0.16
Mof_H 	H 	0.5783	0.7044	0.9217	0.004
Mof_C 	C 	0.5699	0.752	0.9301	-0.332
Mof_O 	O 	0.533	0.7689	0.967	-0.413
Mof_C 	C 	0.55	0.7483	0.95	0.471
Mof_C 	C 	0.6029	0.7864	0.8971	-0.218
Mof_H 	H 	0.6091	0.807	0.8909	0.107
Mof_C 	C 	0.6171	0.7599	0.8829	0.124
Mof_H 	H 	0.6329	0.7629	0.8671	-0.002
Mof_Ni	Ni	0.87101	0.81227	0.87101	1.141
Mof_N 	N 	0.8916	0.7709	0.8916	-0.217
Mof_O 	O 	0.9622	0.7781	0.9622	-0.245
Mof_C 	C 	0.9204	0.7175	0.9204	0.199
Mof_H 	H 	0.9298	0.6994	0.9298	-0.028
Mof_C 	C 	0.9155	0.7749	0.9155	0.16
Mof_H 	H 	0.9217	0.7956	0.9217	0.005
Mof_C 	C 	0.9301	0.748	0.9301	-0.33
Mof_O 	O 	0.967	0.7311	0.967	-0.41
Mof_C 	C 	0.95	0.7517	0.95	0.469
Mof_C 	C 	0.8971	0.7136	0.8971	-0.217
Mof_H 	H 	0.8909	0.693	0.8909	0.107
Mof_C 	C 	0.8829	0.7401	0.8829	0.124
Mof_H 	H 	0.8671	0.7371	0.8671	-0.002
Mof_Ni	Ni	0.87101	0.31227	0.37101	1.141
Mof_N 	N 	0.8916	0.2709	0.3916	-0.217
Mof_O 	O 	0.9622	0.2781	0.4622	-0.247
Mof_C 	C 	0.9204	0.2175	0.4204	0.2
Mof_H 	H 	0.9298	0.1994	0.4298	-0.029
Mof_C 	C 	0.9155	0.2749	0.4155	0.16
Mof_H 	H 	0.9217	0.2956	0.4217	0.004
Mof_C 	C 	0.9301	0.248	0.4301	-0.332
Mof_O 	O 	0.967	0.2311	0.467	-0.413
Mof_C 	C 	0.95	0.2517	0.45	0.471
Mof_C 	C 	0.8971	0.2136	0.3971	-0.218
Mof_H 	H 	0.8909	0.193	0.3909	0.107
Mof_C 	C 	0.8829	0.2401	0.3829	0.124
Mof_H 	H 	0.8671	0.2371	0.3671	-0.002
Mof_Ni	Ni	0.37101	0.81227	0.37101	1.141
Mof_N 	N 	0.3916	0.7709	0.3916	-0.217
Mof_O 	O 	0.4622	0.7781	0.4622	-0.249
Mof_C 	C 	0.4204	0.7175	0.4204	0.201
Mof_H 	H 	0.4298	0.6994	0.4298	-0.03
Mof_C 	C 	0.4155	0.7749	0.4155	0.16
Mof_H 	H 	0.4217	0.7956	0.4217	0.004
Mof_C 	C 	0.4301	0.748	0.4301	-0.333
Mof_O 	O 	0.467	0.7311	0.467	-0.415
Mof_C 	C 	0.45	0.7517	0.45	0.472
Mof_C 	C 	0.3971	0.7136	0.3971	-0.219
Mof_H 	H 	0.3909	0.693	0.3909	0.107
Mof_C 	C 	0.3829	0.7401	0.3829	0.124
Mof_H 	H 	0.3671	0.7371	0.3671	-0.002
Mof_Ni	Ni	0.37101	0.31227	0.87101	1.141
Mof_N 	N 	0.3916	0.2709	0.8916	-0.217
Mof_O 	O 	0.4622	0.2781	0.9622	-0.247
Mof_C 	C 	0.4204	0.2175	0.9204	0.2
Mof_H 	H 	0.4298	0.1994	0.9298	-0.029
Mof_C 	C 	0.4155	0.2749	0.9155	0.16
Mof_H 	H 	0.4217	0.2956	0.9217	0.004
Mof_C 	C 	0.4301	0.248	0.9301	-0.332
Mof_O 	O 	0.467	0.2311	0.967	-0.413
Mof_C 	C 	0.45	0.2517	0.95	0.471
Mof_C 	C 	0.3971	0.2136	0.8971	-0.218
Mof_H 	H 	0.3909	0.193	0.8909	0.107
Mof_C 	C 	0.3829	0.2401	0.8829	0.124
Mof_H 	H 	0.3671	0.2371	0.8671	-0.002
Mof_Ni	Ni	0.12899	0.81227	0.12899	1.141
Mof_N 	N 	0.1084	0.7709	0.1084	-0.218
Mof_O 	O 	0.0378	0.7781	0.0378	-0.252
Mof_C 	C 	0.0796	0.7175	0.0796	0.202
Mof_H 	H 	0.0702	0.6994	0.0702	-0.032
Mof_C 	C 	0.0845	0.7749	0.0845	0.161
Mof_H 	H 	0.0783	0.7956	0.0783	0.003
Mof_C 	C 	0.0699	0.748	0.0699	-0.336
Mof_O 	O 	0.033	0.7311	0.033	-0.418
Mof_C 	C 	0.05	0.7517	0.05	0.473
Mof_C 	C 	0.1029	0.7136	0.1029	-0.22
Mof_H 	H 	0.1091	0.693	0.1091	0.107
Mof_C 	C 	0.1171	0.7401	0.1171	0.125
Mof_H 	H 	0.1329	0.7371	0.1329	-0.002
Mof_Ni	Ni	0.12899	0.31227	0.62899	1.141
Mof_N 	N 	0.1084	0.2709	0.6084	-0.217
Mof_O 	O 	0.0378	0.2781	0.5378	-0.251
Mof_C 	C 	0.0796	0.2175	0.5796	0.201
Mof_H 	H 	0.0702	0.1994	0.5702	-0.031
Mof_C 	C 	0.0845	0.2749	0.5845	0.161
Mof_H 	H 	0.0783	0.2956	0.5783	0.003
Mof_C 	C 	0.0699	0.248	0.5699	-0.335
Mof_O 	O 	0.033	0.2311	0.533	-0.417
Mof_C 	C 	0.05	0.2517	0.55	0.472
Mof_C 	C 	0.1029	0.2136	0.6029	-0.219
Mof_H 	H 	0.1091	0.193	0.6091	0.107
Mof_C 	C 	0.1171	0.2401	0.6171	0.125
Mof_H 	H 	0.1329	0.2371	0.6329	-0.002
Mof_Ni	Ni	0.62899	0.81227	0.62899	1.141
Mof_N 	N 	0.6084	0.7709	0.6084	-0.217
Mof_O 	O 	0.5378	0.7781	0.5378	-0.249
Mof_C 	C 	0.5796	0.7175	0.5796	0.201
Mof_H 	H 	0.5702	0.6994	0.5702	-0.03
Mof_C 	C 	0.5845	0.7749	0.5845	0.16
Mof_H 	H 	0.5783	0.7956	0.5783	0.004
Mof_C 	C 	0.5699	0.748	0.5699	-0.333
Mof_O 	O 	0.533	0.7311	0.533	-0.415
Mof_C 	C 	0.55	0.7517	0.55	0.472
Mof_C 	C 	0.6029	0.7136	0.6029	-0.219
Mof_H 	H 	0.6091	0.693	0.6091	0.107
Mof_C 	C 	0.6171	0.7401	0.6171	0.124
Mof_H 	H 	0.6329	0.7371	0.6329	-0.002
Mof_Ni	Ni	0.62899	0.31227	0.12899	1.141
Mof_N 	N 	0.6084	0.2709	0.1084	-0.217
Mof_O 	O 	0.5378	0.2781	0.0378	-0.251
Mof_C 	C 	0.5796	0.2175	0.0796	0.201
Mof_H 	H 	0.5702	0.1994	0.0702	-0.031
Mof_C 	C 	0.5845	0.2749	0.0845	0.161
Mof_H 	H 	0.5783	0.2956	0.0783	0.003
Mof_C 	C 	0.5699	0.248	0.0699	-0.335
Mof_O 	O 	0.533	0.2311	0.033	-0.417
Mof_C 	C 	0.55	0.2517	0.05	0.472
Mof_C 	C 	0.6029	0.2136	0.1029	-0.219
Mof_H 	H 	0.6091	0.193	0.1091	0.107
Mof_C 	C 	0.6171	0.2401	0.1171	0.125
Mof_H 	H 	0.6329	0.2371	0.1329	-0.002
Mof_Ni	Ni	0.87101	0.18773	0.12899	1.141
Mof_N 	N 	0.8916	0.2291	0.1084	-0.217
Mof_O 	O 	0.9622	0.2219	0.0378	-0.249
Mof_C 	C 	0.9204	0.2825	0.0796	0.201
Mof_H 	H 	0.9298	0.3006	0.0702	-0.03
Mof_C 	C 	0.9155	0.2251	0.0845	0.16
Mof_H 	H 	0.9217	0.2044	0.0783	0.004
Mof_C 	C 	0.9301	0.252	0.0699	-0.333
Mof_O 	O 	0.967	0.2689	0.033	-0.414
Mof_C 	C 	0.95	0.2483	0.05	0.471
Mof_C 	C 	0.8971	0.2864	0.1029	-0.218
Mof_H 	H 	0.8909	0.307	0.1091	0.107
Mof_C 	C 	0.8829	0.2599	0.1171	0.124
Mof_H 	H 	0.8671	0.2629	0.1329	-0.002
Mof_Ni	Ni	0.87101	0.68773	0.62899	1.141
Mof_N 	N 	0.8916	0.7291	0.6084	-0.217
Mof_O 	O 	0.9622	0.7219	0.5378	-0.247
Mof_C 	C 	0.9204	0.7825	0.5796	0.2
Mof_H 	H 	0.9298	0.8006	0.5702	-0.029
Mof_C 	C 	0.9155	0.7251	0.5845	0.16
Mof_H 	H 	0.9217	0.7044	0.5783	0.004
Mof_C 	C 	0.9301	0.752	0.5699	-0.332
Mof_O 	O 	0.967	0.7689	0.533	-0.413
Mof_C 	C 	0.95	0.7483	0.55	0.471
Mof_C 	C 	0.8971	0.7864	0.6029	-0.218
Mof_H 	H 	0.8909	0.807	0.6091	0.107
Mof_C 	C 	0.8829	0.7599	0.6171	0.124
Mof_H 	H 	0.8671	0.7629	0.6329	-0.002
Mof_Ni	Ni	0.37101	0.18773	0.62899	1.141
Mof_N 	N 	0.3916	0.2291	0.6084	-0.217
Mof_O 	O 	0.4622	0.2219	0.5378	-0.249
Mof_C 	C 	0.4204	0.2825	0.5796	0.201
Mof_H 	H 	0.4298	0.3006	0.5702	-0.03
Mof_C 	C 	0.4155	0.2251	0.5845	0.16
Mof_H 	H 	0.4217	0.2044	0.5783	0.004
Mof_C 	C 	0.4301	0.252	0.5699	-0.334
Mof_O 	O 	0.467	0.2689	0.533	-0.415
Mof_C 	C 	0.45	0.2483	0.55	0.472
Mof_C 	C 	0.3971	0.2864	0.6029	-0.219
Mof_H 	H 	0.3909	0.307	0.6091	0.107
Mof_C 	C 	0.3829	0.2599	0.6171	0.125
Mof_H 	H 	0.3671	0.2629	0.6329	-0.002
Mof_Ni	Ni	0.37101	0.68773	0.12899	1.141
Mof_N 	N 	0.3916	0.7291	0.1084	-0.217
Mof_O 	O 	0.4622	0.7219	0.0378	-0.251
Mof_C 	C 	0.4204	0.7825	0.0796	0.201
Mof_H 	H 	0.4298	0.8006	0.0702	-0.031
Mof_C 	C 	0.4155	0.7251	0.0845	0.161
Mof_H 	H 	0.4217	0.7044	0.0783	0.003
Mof_C 	C 	0.4301	0.752	0.0699	-0.335
Mof_O 	O 	0.467	0.7689	0.033	-0.416
Mof_C 	C 	0.45	0.7483	0.05	0.472
Mof_C 	C 	0.3971	0.7864	0.1029	-0.219
Mof_H 	H 	0.3909	0.807	0.1091	0.107
Mof_C 	C 	0.3829	0.7599	0.1171	0.125
Mof_H 	H 	0.3671	0.7629	0.1329	-0.002
Mof_Ni	Ni	0.18773	0.12899	0.87101	1.141
Mof_N 	N 	0.2291	0.1084	0.8916	-0.217
Mof_O 	O 	0.2219	0.0378	0.9622	-0.249
Mof_C 	C 	0.2825	0.0796	0.9204	0.201
Mof_H 	H 	0.3006	0.0702	0.9298	-0.03
Mof_C 	C 	0.2251	0.0845	0.9155	0.16
Mof_H 	H 	0.2044	0.0783	0.9217	0.004
Mof_C 	C 	0.252	0.0699	0.9301	-0.333
Mof_O 	O 	0.2689	0.033	0.967	-0.414
Mof_C 	C 	0.2483	0.05	0.95	0.471
Mof_C 	C 	0.2864	0.1029	0.8971	-0.218
Mof_H 	H 	0.307	0.1091	0.8909	0.107
Mof_C 	C 	0.2599	0.1171	0.8829	0.124
Mof_H 	H 	0.2629	0.1329	0.8671	-0.002
Mof_Ni	Ni	0.18773	0.62899	0.37101	1.141
Mof_N 	N 	0.2291	0.6084	0.3916	-0.217
Mof_O 	O 	0.2219	0.5378	0.4622	-0.249
Mof_C 	C 	0.2825	0.5796	0.4204	0.201
Mof_H 	H 	0.3006	0.5702	0.4298	-0.03
Mof_C 	C 	0.2251	0.5845	0.4155	0.16
Mof_H 	H 	0.2044	0.5783	0.4217	0.004
Mof_C 	C 	0.252	0.5699	0.4301	-0.334
Mof_O 	O 	0.2689	0.533	0.467	-0.415
Mof_C 	C 	0.2483	0.55	0.45	0.472
Mof_C 	C 	0.2864	0.6029	0.3971	-0.219
Mof_H 	H 	0.307	0.6091	0.3909	0.107
Mof_C 	C 	0.2599	0.6171	0.3829	0.125
Mof_H 	H 	0.2629	0.6329	0.3671	-0.002
Mof_Ni	Ni	0.68773	0.12899	0.37101	1.141
Mof_N 	N 	0.7291	0.1084	0.3916	-0.217
Mof_O 	O 	0.7219	0.0378	0.4622	-0.251
Mof_C 	C 	0.7825	0.0796	0.4204	0.201
Mof_H 	H 	0.8006	0.0702	0.4298	-0.031
Mof_C 	C 	0.7251	0.0845	0.4155	0.161
Mof_H 	H 	0.7044	0.0783	0.4217	0.003
Mof_C 	C 	0.752	0.0699	0.4301	-0.335
Mof_O 	O 	0.7689	0.033	0.467	-0.416
Mof_C 	C 	0.7483	0.05	0.45	0.472
Mof_C 	C 	0.7864	0.1029	0.3971	-0.219
Mof_H 	H 	0.807	0.1091	0.3909	0.107
Mof_C 	C 	0.7599	0.1171	0.3829	0.125
Mof_H 	H 	0.7629	0.1329	0.3671	-0.002
Mof_Ni	Ni	0.68773	0.62899	0.87101	1.141
Mof_N 	N 	0.7291	0.6084	0.8916	-0.217
Mof_O 	O 	0.7219	0.5378	0.9622	-0.247
Mof_C 	C 	0.7825	0.5796	0.9204	0.2
Mof_H 	H 	0.8006	0.5702	0.9298	-0.029
Mof_C 	C 	0.7251	0.5845	0.9155	0.16
Mof_H 	H 	0.7044	0.5783	0.9217	0.004
Mof_C 	C 	0.752	0.5699	0.9301	-0.332
Mof_O 	O 	0.7689	0.533	0.967	-0.413
Mof_C 	C 	0.7483	0.55	0.95	0.471
Mof_C 	C 	0.7864	0.6029	0.8971	-0.218
Mof_H 	H 	0.807	0.6091	0.8909	0.107
Mof_C 	C 	0.7599	0.6171	0.8829	0.124
Mof_H 	H 	0.7629	0.6329	0.8671	-0.002
Mof_Ni	Ni	0.81227	0.12899	0.12899	1.141
Mof_N 	N 	0.7709	0.1084	0.1084	-0.218
Mof_O 	O 	0.7781	0.0378	0.0378	-0.252
Mof_C 	C 	0.7175	0.0796	0.0796	0.202
Mof_H 	H 	0.6994	0.0702	0.0702	-0.032
Mof_C 	C 	0.7749	0.0845	0.0845	0.161
Mof_H 	H 	0.7956	0.0783	0.0783	0.003
Mof_C 	C 	0.748	0.0699	0.0699	-0.336
Mof_O 	O 	0.7311	0.033	0.033	-0.418
Mof_C 	C 	0.7517	0.05	0.05	0.473
Mof_C 	C 	0.7136	0.1029	0.1029	-0.22
Mof_H 	H 	0.693	0.1091	0.1091	0.107
Mof_C 	C 	0.7401	0.1171	0.1171	0.125
Mof_H 	H 	0.7371	0.1329	0.1329	-0.002
Mof_Ni	Ni	0.81227	0.62899	0.62899	1.141
Mof_N 	N 	0.7709	0.6084	0.6084	-0.217
Mof_O 	O 	0.7781	0.5378	0.5378	-0.249
Mof_C 	C 	0.7175	0.5796	0.5796	0.201
Mof_H 	H 	0.6994	0.5702	0.5702	-0.03
Mof_C 	C 	0.7749	0.5845	0.5845	0.16
Mof_H 	H 	0.7956	0.5783	0.5783	0.004
Mof_C 	C 	0.748	0.5699	0.5699	-0.333
Mof_O 	O 	0.7311	0.533	0.533	-0.415
Mof_C 	C 	0.7517	0.55	0.55	0.472
Mof_C 	C 	0.7136	0.6029	0.6029	-0.219
Mof_H 	H 	0.693	0.6091	0.6091	0.107
Mof_C 	C 	0.7401	0.6171	0.6171	0.124
Mof_H 	H 	0.7371	0.6329	0.6329	-0.002
Mof_Ni	Ni	0.31227	0.12899	0.62899	1.141
Mof_N 	N 	0.2709	0.1084	0.6084	-0.217
Mof_O 	O 	0.2781	0.0378	0.5378	-0.251
Mof_C 	C 	0.2175	0.0796	0.5796	0.201
Mof_H 	H 	0.1994	0.0702	0.5702	-0.031
Mof_C 	C 	0.2749	0.0845	0.5845	0.161
Mof_H 	H 	0.2956	0.0783	0.5783	0.003
Mof_C 	C 	0.248	0.0699	0.5699	-0.335
Mof_O 	O 	0.2311	0.033	0.533	-0.417
Mof_C 	C 	0.2517	0.05	0.55	0.472
Mof_C 	C 	0.2136	0.1029	0.6029	-0.219
Mof_H 	H 	0.193	0.1091	0.6091	0.107
Mof_C 	C 	0.2401	0.1171	0.6171	0.125
Mof_H 	H 	0.2371	0.1329	0.6329	-0.002
Mof_Ni	Ni	0.31227	0.62899	0.12899	1.141
Mof_N 	N 	0.2709	0.6084	0.1084	-0.217
Mof_O 	O 	0.2781	0.5378	0.0378	-0.251
Mof_C 	C 	0.2175	0.5796	0.0796	0.201
Mof_H 	H 	0.1994	0.5702	0.0702	-0.031
Mof_C 	C 	0.2749	0.5845	0.0845	0.161
Mof_H 	H 	0.2956	0.5783	0.0783	0.003
Mof_C 	C 	0.248	0.5699	0.0699	-0.335
Mof_O 	O 	0.2311	0.533	0.033	-0.417
Mof_C 	C 	0.2517	0.55	0.05	0.472
Mof_C 	C 	0.2136	0.6029	0.1029	-0.219
Mof_H 	H 	0.193	0.6091	0.1091	0.107
Mof_C 	C 	0.2401	0.6171	0.1171	0.125
Mof_H 	H 	0.2371	0.6329	0.1329	-0.002
Mof_Ni	Ni	0.81227	0.87101	0.87101	1.141
Mof_N 	N 	0.7709	0.8916	0.8916	-0.217
Mof_O 	O 	0.7781	0.9622	0.9622	-0.245
Mof_C 	C 	0.7175	0.9204	0.9204	0.199
Mof_H 	H 	0.6994	0.9298	0.9298	-0.028
Mof_C 	C 	0.7749	0.9155	0.9155	0.16
Mof_H 	H 	0.7956	0.9217	0.9217	0.005
Mof_C 	C 	0.748	0.9301	0.9301	-0.33
Mof_O 	O 	0.7311	0.967	0.967	-0.41
Mof_C 	C 	0.7517	0.95	0.95	0.469
Mof_C 	C 	0.7136	0.8971	0.8971	-0.217
Mof_H 	H 	0.693	0.8909	0.8909	0.107
Mof_C 	C 	0.7401	0.8829	0.8829	0.124
Mof_H 	H 	0.7371	0.8671	0.8671	-0.002
Mof_Ni	Ni	0.81227	0.37101	0.37101	1.141
Mof_N 	N 	0.7709	0.3916	0.3916	-0.217
Mof_O 	O 	0.7781	0.4622	0.4622	-0.249
Mof_C 	C 	0.7175	0.4204	0.4204	0.201
Mof_H 	H 	0.6994	0.4298	0.4298	-0.03
Mof_C 	C 	0.7749	0.4155	0.4155	0.16
Mof_H 	H 	0.7956	0.4217	0.4217	0.004
Mof_C 	C 	0.748	0.4301	0.4301	-0.333
Mof_O 	O 	0.7311	0.467	0.467	-0.415
Mof_C 	C 	0.7517	0.45	0.45	0.472
Mof_C 	C 	0.7136	0.3971	0.3971	-0.219
Mof_H 	H 	0.693	0.3909	0.3909	0.107
Mof_C 	C 	0.7401	0.3829	0.3829	0.124
Mof_H 	H 	0.7371	0.3671	0.3671	-0.002
Mof_Ni	Ni	0.31227	0.87101	0.37101	1.141
Mof_N 	N 	0.2709	0.8916	0.3916	-0.217
Mof_O 	O 	0.2781	0.9622	0.4622	-0.247
Mof_C 	C 	0.2175	0.9204	0.4204	0.2
Mof_H 	H 	0.1994	0.9298	0.4298	-0.029
Mof_C 	C 	0.2749	0.9155	0.4155	0.16
Mof_H 	H 	0.2956	0.9217	0.4217	0.004
Mof_C 	C 	0.248	0.9301	0.4301	-0.332
Mof_O 	O 	0.2311	0.967	0.467	-0.413
Mof_C 	C 	0.2517	0.95	0.45	0.471
Mof_C 	C 	0.2136	0.8971	0.3971	-0.218
Mof_H 	H 	0.193	0.8909	0.3909	0.107
Mof_C 	C 	0.2401	0.8829	0.3829	0.124
Mof_H 	H 	0.2371	0.8671	0.3671	-0.002
Mof_Ni	Ni	0.31227	0.37101	0.87101	1.141
Mof_N 	N 	0.2709	0.3916	0.8916	-0.217
Mof_O 	O 	0.2781	0.4622	0.9622	-0.247
Mof_C 	C 	0.2175	0.4204	0.9204	0.2
Mof_H 	H 	0.1994	0.4298	0.9298	-0.029
Mof_C 	C 	0.2749	0.4155	0.9155	0.16
Mof_H 	H 	0.2956	0.4217	0.9217	0.004
Mof_C 	C 	0.248	0.4301	0.9301	-0.332
Mof_O 	O 	0.2311	0.467	0.967	-0.413
Mof_C 	C 	0.2517	0.45	0.95	0.471
Mof_C 	C 	0.2136	0.3971	0.8971	-0.218
Mof_H 	H 	0.193	0.3909	0.8909	0.107
Mof_C 	C 	0.2401	0.3829	0.8829	0.124
Mof_H 	H 	0.2371	0.3671	0.8671	-0.002
Mof_Ni	Ni	0.18773	0.87101	0.12899	1.141
Mof_N 	N 	0.2291	0.8916	0.1084	-0.217
Mof_O 	O 	0.2219	0.9622	0.0378	-0.249
Mof_C 	C 	0.2825	0.9204	0.0796	0.201
Mof_H 	H 	0.3006	0.9298	0.0702	-0.03
Mof_C 	C 	0.2251	0.9155	0.0845	0.16
Mof_H 	H 	0.2044	0.9217	0.0783	0.004
Mof_C 	C 	0.252	0.9301	0.0699	-0.333
Mof_O 	O 	0.2689	0.967	0.033	-0.414
Mof_C 	C 	0.2483	0.95	0.05	0.471
Mof_C 	C 	0.2864	0.8971	0.1029	-0.218
Mof_H 	H 	0.307	0.8909	0.1091	0.107
Mof_C 	C 	0.2599	0.8829	0.1171	0.124
Mof_H 	H 	0.2629	0.8671	0.1329	-0.002
Mof_Ni	Ni	0.18773	0.37101	0.62899	1.141
Mof_N 	N 	0.2291	0.3916	0.6084	-0.217
Mof_O 	O 	0.2219	0.4622	0.5378	-0.249
Mof_C 	C 	0.2825	0.4204	0.5796	0.201
Mof_H 	H 	0.3006	0.4298	0.5702	-0.03
Mof_C 	C 	0.2251	0.4155	0.5845	0.16
Mof_H 	H 	0.2044	0.4217	0.5783	0.004
Mof_C 	C 	0.252	0.4301	0.5699	-0.334
Mof_O 	O 	0.2689	0.467	0.533	-0.415
Mof_C 	C 	0.2483	0.45	0.55	0.472
Mof_C 	C 	0.2864	0.3971	0.6029	-0.219
Mof_H 	H 	0.307	0.3909	0.6091	0.107
Mof_C 	C 	0.2599	0.3829	0.6171	0.125
Mof_H 	H 	0.2629	0.3671	0.6329	-0.002
Mof_Ni	Ni	0.68773	0.87101	0.62899	1.141
Mof_N 	N 	0.7291	0.8916	0.6084	-0.217
Mof_O 	O 	0.7219	0.9622	0.5378	-0.247
Mof_C 	C 	0.7825	0.9204	0.5796	0.2
Mof_H 	H 	0.8006	0.9298	0.5702	-0.029
Mof_C 	C 	0.7251	0.9155	0.5845	0.16
Mof_H 	H 	0.7044	0.9217	0.5783	0.004
Mof_C 	C 	0.752	0.9301	0.5699	-0.332
Mof_O 	O 	0.7689	0.967	0.533	-0.413
Mof_C 	C 	0.7483	0.95	0.55	0.471
Mof_C 	C 	0.7864	0.8971	0.6029	-0.218
Mof_H 	H 	0.807	0.8909	0.6091	0.107
Mof_C 	C 	0.7599	0.8829	0.6171	0.124
Mof_H 	H 	0.7629	0.8671	0.6329	-0.002
Mof_Ni	Ni	0.68773	0.37101	0.12899	1.141
Mof_N 	N 	0.7291	0.3916	0.1084	-0.217
Mof_O 	O 	0.7219	0.4622	0.0378	-0.251
Mof_C 	C 	0.7825	0.4204	0.0796	0.201
Mof_H 	H 	0.8006	0.4298	0.0702	-0.031
Mof_C 	C 	0.7251	0.4155	0.0845	0.161
Mof_H 	H 	0.7044	0.4217	0.0783	0.003
Mof_C 	C 	0.752	0.4301	0.0699	-0.335
Mof_O 	O 	0.7689	0.467	0.033	-0.416
Mof_C 	C 	0.7483	0.45	0.05	0.472
Mof_C 	C 	0.7864	0.3971	0.1029	-0.219
Mof_H 	H 	0.807	0.3909	0.1091	0.107
Mof_C 	C 	0.7599	0.3829	0.1171	0.125
Mof_H 	H 	0.7629	0.3671	0.1329	-0.002
Mof_Ni	Ni	0.12899	0.12899	0.81227	1.141
Mof_N 	N 	0.1084	0.1084	0.7709	-0.218
Mof_O 	O 	0.0378	0.0378	0.7781	-0.252
Mof_C 	C 	0.0796	0.0796	0.7175	0.202
Mof_H 	H 	0.0702	0.0702	0.6994	-0.032
Mof_C 	C 	0.0845	0.0845	0.7749	0.161
Mof_H 	H 	0.0783	0.0783	0.7956	0.003
Mof_C 	C 	0.0699	0.0699	0.748	-0.336
Mof_O 	O 	0.033	0.033	0.7311	-0.418
Mof_C 	C 	0.05	0.05	0.7517	0.473
Mof_C 	C 	0.1029	0.1029	0.7136	-0.22
Mof_H 	H 	0.1091	0.1091	0.693	0.107
Mof_C 	C 	0.1171	0.1171	0.7401	0.125
Mof_H 	H 	0.1329	0.1329	0.7371	-0.002
Mof_Ni	Ni	0.12899	0.62899	0.31227	1.141
Mof_N 	N 	0.1084	0.6084	0.2709	-0.217
Mof_O 	O 	0.0378	0.5378	0.2781	-0.251
Mof_C 	C 	0.0796	0.5796	0.2175	0.201
Mof_H 	H 	0.0702	0.5702	0.1994	-0.031
Mof_C 	C 	0.0845	0.5845	0.2749	0.161
Mof_H 	H 	0.0783	0.5783	0.2956	0.003
Mof_C 	C 	0.0699	0.5699	0.248	-0.335
Mof_O 	O 	0.033	0.533	0.2311	-0.417
Mof_C 	C 	0.05	0.55	0.2517	0.472
Mof_C 	C 	0.1029	0.6029	0.2136	-0.219
Mof_H 	H 	0.1091	0.6091	0.193	0.107
Mof_C 	C 	0.1171	0.6171	0.2401	0.125
Mof_H 	H 	0.1329	0.6329	0.2371	-0.002
Mof_Ni	Ni	0.62899	0.12899	0.31227	1.141
Mof_N 	N 	0.6084	0.1084	0.2709	-0.217
Mof_O 	O 	0.5378	0.0378	0.2781	-0.251
Mof_C 	C 	0.5796	0.0796	0.2175	0.201
Mof_H 	H 	0.5702	0.0702	0.1994	-0.031
Mof_C 	C 	0.5845	0.0845	0.2749	0.161
Mof_H 	H 	0.5783	0.0783	0.2956	0.003
Mof_C 	C 	0.5699	0.0699	0.248	-0.335
Mof_O 	O 	0.533	0.033	0.2311	-0.417
Mof_C 	C 	0.55	0.05	0.2517	0.472
Mof_C 	C 	0.6029	0.1029	0.2136	-0.219
Mof_H 	H 	0.6091	0.1091	0.193	0.107
Mof_C 	C 	0.6171	0.1171	0.2401	0.125
Mof_H 	H 	0.6329	0.1329	0.2371	-0.002
Mof_Ni	Ni	0.62899	0.62899	0.81227	1.141
Mof_N 	N 	0.6084	0.6084	0.7709	-0.217
Mof_O 	O 	0.5378	0.5378	0.7781	-0.249
Mof_C 	C 	0.5796	0.5796	0.7175	0.201
Mof_H 	H 	0.5702	0.5702	0.6994	-0.03
Mof_C 	C 	0.5845	0.5845	0.7749	0.16
Mof_H 	H 	0.5783	0.5783	0.7956	0.004
Mof_C 	C 	0.5699	0.5699	0.748	-0.333
Mof_O 	O 	0.533	0.533	0.7311	-0.415
Mof_C 	C 	0.55	0.55	0.7517	0.472
Mof_C 	C 	0.6029	0.6029	0.7136	-0.219
Mof_H 	H 	0.6091	0.6091	0.693	0.107
Mof_C 	C 	0.6171	0.6171	0.7401	0.124
Mof_H 	H 	0.6329	0.6329	0.7371	-0.002
Mof_Ni	Ni	0.12899	0.87101	0.18773	1.141
Mof_N 	N 	0.1084	0.8916	0.2291	-0.217
Mof_O 	O 	0.0378	0.9622	0.2219	-0.249
Mof_C 	C 	0.0796	0.9204	0.2825	0.201
Mof_H 	H 	0.0702	0.9298	0.3006	-0.03
Mof_C 	C 	0.0845	0.9155	0.2251	0.16
Mof_H 	H 	0.0783	0.9217	0.2044	0.004
Mof_C 	C 	0.0699	0.9301	0.252	-0.333
Mof_O 	O 	0.033	0.967	0.2689	-0.414
Mof_C 	C 	0.05	0.95	0.2483	0.471
Mof_C 	C 	0.1029	0.8971	0.2864	-0.218
Mof_H 	H 	0.1091	0.8909	0.307	0.107
Mof_C 	C 	0.1171	0.8829	0.2599	0.124
Mof_H 	H 	0.1329	0.8671	0.2629	-0.002
Mof_Ni	Ni	0.12899	0.37101	0.68773	1.141
Mof_N 	N 	0.1084	0.3916	0.7291	-0.217
Mof_O 	O 	0.0378	0.4622	0.7219	-0.251
Mof_C 	C 	0.0796	0.4204	0.7825	0.201
Mof_H 	H 	0.0702	0.4298	0.8006	-0.031
Mof_C 	C 	0.0845	0.4155	0.7251	0.161
Mof_H 	H 	0.0783	0.4217	0.7044	0.003
Mof_C 	C 	0.0699	0.4301	0.752	-0.335
Mof_O 	O 	0.033	0.467	0.7689	-0.416
Mof_C 	C 	0.05	0.45	0.7483	0.472
Mof_C 	C 	0.1029	0.3971	0.7864	-0.219
Mof_H 	H 	0.1091	0.3909	0.807	0.107
Mof_C 	C 	0.1171	0.3829	0.7599	0.125
Mof_H 	H 	0.1329	0.3671	0.7629	-0.002
Mof_Ni	Ni	0.62899	0.87101	0.68773	1.141
Mof_N 	N 	0.6084	0.8916	0.7291	-0.217
Mof_O 	O 	0.5378	0.9622	0.7219	-0.247
Mof_C 	C 	0.5796	0.9204	0.7825	0.2
Mof_H 	H 	0.5702	0.9298	0.8006	-0.029
Mof_C 	C 	0.5845	0.9155	0.7251	0.16
Mof_H 	H 	0.5783	0.9217	0.7044	0.004
Mof_C 	C 	0.5699	0.9301	0.752	-0.332
Mof_O 	O 	0.533	0.967	0.7689	-0.413
Mof_C 	C 	0.55	0.95	0.7483	0.471
Mof_C 	C 	0.6029	0.8971	0.7864	-0.218
Mof_H 	H 	0.6091	0.8909	0.807	0.107
Mof_C 	C 	0.6171	0.8829	0.7599	0.124
Mof_H 	H 	0.6329	0.8671	0.7629	-0.002
Mof_Ni	Ni	0.62899	0.37101	0.18773	1.141
Mof_N 	N 	0.6084	0.3916	0.2291	-0.217
Mof_O 	O 	0.5378	0.4622	0.2219	-0.249
Mof_C 	C 	0.5796	0.4204	0.2825	0.201
Mof_H 	H 	0.5702	0.4298	0.3006	-0.03
Mof_C 	C 	0.5845	0.4155	0.2251	0.16
Mof_H 	H 	0.5783	0.4217	0.2044	0.004
Mof_C 	C 	0.5699	0.4301	0.252	-0.334
Mof_O 	O 	0.533	0.467	0.2689	-0.415
Mof_C 	C 	0.55	0.45	0.2483	0.472
Mof_C 	C 	0.6029	0.3971	0.2864	-0.219
Mof_H 	H 	0.6091	0.3909	0.307	0.107
Mof_C 	C 	0.6171	0.3829	0.2599	0.125
Mof_H 	H 	0.6329	0.3671	0.2629	-0.002
Mof_Ni	Ni	0.87101	0.12899	0.18773	1.141
Mof_N 	N 	0.8916	0.1084	0.2291	-0.217
Mof_O 	O 	0.9622	0.0378	0.2219	-0.249
Mof_C 	C 	0.9204	0.0796	0.2825	0.201
Mof_H 	H 	0.9298	0.0702	0.3006	-0.03
Mof_C 	C 	0.9155	0.0845	0.2251	0.16
Mof_H 	H 	0.9217	0.0783	0.2044	0.004
Mof_C 	C 	0.9301	0.0699	0.252	-0.333
Mof_O 	O 	0.967	0.033	0.2689	-0.414
Mof_C 	C 	0.95	0.05	0.2483	0.471
Mof_C 	C 	0.8971	0.1029	0.2864	-0.218
Mof_H 	H 	0.8909	0.1091	0.307	0.107
Mof_C 	C 	0.8829	0.1171	0.2599	0.124
Mof_H 	H 	0.8671	0.1329	0.2629	-0.002
Mof_Ni	Ni	0.87101	0.62899	0.68773	1.141
Mof_N 	N 	0.8916	0.6084	0.7291	-0.217
Mof_O 	O 	0.9622	0.5378	0.7219	-0.247
Mof_C 	C 	0.9204	0.5796	0.7825	0.2
Mof_H 	H 	0.9298	0.5702	0.8006	-0.029
Mof_C 	C 	0.9155	0.5845	0.7251	0.16
Mof_H 	H 	0.9217	0.5783	0.7044	0.004
Mof_C 	C 	0.9301	0.5699	0.752	-0.332
Mof_O 	O 	0.967	0.533	0.7689	-0.413
Mof_C 	C 	0.95	0.55	0.7483	0.471
Mof_C 	C 	0.8971	0.6029	0.7864	-0.218
Mof_H 	H 	0.8909	0.6091	0.807	0.107
Mof_C 	C 	0.8829	0.6171	0.7599	0.124
Mof_H 	H 	0.8671	0.6329	0.7629	-0.002
Mof_Ni	Ni	0.37101	0.12899	0.68773	1.141
Mof_N 	N 	0.3916	0.1084	0.7291	-0.217
Mof_O 	O 	0.4622	0.0378	0.7219	-0.251
Mof_C 	C 	0.4204	0.0796	0.7825	0.201
Mof_H 	H 	0.4298	0.0702	0.8006	-0.031
Mof_C 	C 	0.4155	0.0845	0.7251	0.161
Mof_H 	H 	0.4217	0.0783	0.7044	0.003
Mof_C 	C 	0.4301	0.0699	0.752	-0.335
Mof_O 	O 	0.467	0.033	0.7689	-0.416
Mof_C 	C 	0.45	0.05	0.7483	0.472
Mof_C 	C 	0.3971	0.1029	0.7864	-0.219
Mof_H 	H 	0.3909	0.1091	0.807	0.107
Mof_C 	C 	0.3829	0.1171	0.7599	0.125
Mof_H 	H 	0.3671	0.1329	0.7629	-0.002
Mof_Ni	Ni	0.37101	0.62899	0.18773	1.141
Mof_N 	N 	0.3916	0.6084	0.2291	-0.217
Mof_O 	O 	0.4622	0.5378	0.2219	-0.249
Mof_C 	C 	0.4204	0.5796	0.2825	0.201
Mof_H 	H 	0.4298	0.5702	0.3006	-0.03
Mof_C 	C 	0.4155	0.5845	0.2251	0.16
Mof_H 	H 	0.4217	0.5783	0.2044	0.004
Mof_C 	C 	0.4301	0.5699	0.252	-0.334
Mof_O 	O 	0.467	0.533	0.2689	-0.415
Mof_C 	C 	0.45	0.55	0.2483	0.472
Mof_C 	C 	0.3971	0.6029	0.2864	-0.219
Mof_H 	H 	0.3909	0.6091	0.307	0.107
Mof_C 	C 	0.3829	0.6171	0.2599	0.125
Mof_H 	H 	0.3671	0.6329	0.2629	-0.002
Mof_Ni	Ni	0.87101	0.87101	0.81227	1.141
Mof_N 	N 	0.8916	0.8916	0.7709	-0.217
Mof_O 	O 	0.9622	0.9622	0.7781	-0.245
Mof_C 	C 	0.9204	0.9204	0.7175	0.199
Mof_H 	H 	0.9298	0.9298	0.6994	-0.028
Mof_C 	C 	0.9155	0.9155	0.7749	0.16
Mof_H 	H 	0.9217	0.9217	0.7956	0.005
Mof_C 	C 	0.9301	0.9301	0.748	-0.33
Mof_O 	O 	0.967	0.967	0.7311	-0.41
Mof_C 	C 	0.95	0.95	0.7517	0.469
Mof_C 	C 	0.8971	0.8971	0.7136	-0.217
Mof_H 	H 	0.8909	0.8909	0.693	0.107
Mof_C 	C 	0.8829	0.8829	0.7401	0.124
Mof_H 	H 	0.8671	0.8671	0.7371	-0.002
Mof_Ni	Ni	0.87101	0.37101	0.31227	1.141
Mof_N 	N 	0.8916	0.3916	0.2709	-0.217
Mof_O 	O 	0.9622	0.4622	0.2781	-0.247
Mof_C 	C 	0.9204	0.4204	0.2175	0.2
Mof_H 	H 	0.9298	0.4298	0.1994	-0.029
Mof_C 	C 	0.9155	0.4155	0.2749	0.16
Mof_H 	H 	0.9217	0.4217	0.2956	0.004
Mof_C 	C 	0.9301	0.4301	0.248	-0.332
Mof_O 	O 	0.967	0.467	0.2311	-0.413
Mof_C 	C 	0.95	0.45	0.2517	0.471
Mof_C 	C 	0.8971	0.3971	0.2136	-0.218
Mof_H 	H 	0.8909	0.3909	0.193	0.107
Mof_C 	C 	0.8829	0.3829	0.2401	0.124
Mof_H 	H 	0.8671	0.3671	0.2371	-0.002
Mof_Ni	Ni	0.37101	0.87101	0.31227	1.141
Mof_N 	N 	0.3916	0.8916	0.2709	-0.217
Mof_O 	O 	0.4622	0.9622	0.2781	-0.247
Mof_C 	C 	0.4204	0.9204	0.2175	0.2
Mof_H 	H 	0.4298	0.9298	0.1994	-0.029
Mof_C 	C 	0.4155	0.9155	0.2749	0.16
Mof_H 	H 	0.4217	0.9217	0.2956	0.004
Mof_C 	C 	0.4301	0.9301	0.248	-0.332
Mof_O 	O 	0.467	0.967	0.2311	-0.413
Mof_C 	C 	0.45	0.95	0.2517	0.471
Mof_C 	C 	0.3971	0.8971	0.2136	-0.218
Mof_H 	H 	0.3909	0.8909	0.193	0.107
Mof_C 	C 	0.3829	0.8829	0.2401	0.124
Mof_H 	H 	0.3671	0.8671	0.2371	-0.002
Mof_Ni	Ni	0.37101	0.37101	0.81227	1.141
Mof_N 	N 	0.3916	0.3916	0.7709	-0.217
Mof_O 	O 	0.4622	0.4622	0.7781	-0.249
Mof_C 	C 	0.4204	0.4204	0.7175	0.201
Mof_H 	H 	0.4298	0.4298	0.6994	-0.03
Mof_C 	C 	0.4155	0.4155	0.7749	0.16
Mof_H 	H 	0.4217	0.4217	0.7956	0.004
Mof_C 	C 	0.4301	0.4301	0.748	-0.333
Mof_O 	O 	0.467	0.467	0.7311	-0.415
Mof_C 	C 	0.45	0.45	0.7517	0.472
Mof_C 	C 	0.3971	0.3971	0.7136	-0.219
Mof_H 	H 	0.3909	0.3909	0.693	0.107
Mof_C 	C 	0.3829	0.3829	0.7401	0.124
Mof_H 	H 	0.3671	0.3671	0.7371	-0.002
Mof_O 	O 	0.14659	0.14659	0.14659	-0.557
Mof_O 	O 	0.14659	0.64659	0.64659	-0.557
Mof_O 	O 	0.64659	0.14659	0.64659	-0.557
Mof_O 	O 	0.64659	0.64659	0.14659	-0.557
Mof_O 	O 	0.85341	0.85341	0.14659	-0.557
Mof_O 	O 	0.85341	0.35341	0.64659	-0.557
Mof_O 	O 	0.35341	0.85341	0.64659	-0.557
Mof_O 	O 	0.35341	0.35341	0.14659	-0.557
Mof_O 	O 	0.85341	0.14659	0.85341	-0.557
Mof_O 	O 	0.85341	0.64659	0.35341	-0.557
Mof_O 	O 	0.35341	0.14659	0.35341	-0.557
Mof_O 	O 	0.35341	0.64659	0.85341	-0.557
Mof_O 	O 	0.14659	0.85341	0.85341	-0.557
Mof_O 	O 	0.14659	0.35341	0.35341	-0.557
Mof_O 	O 	0.64659	0.85341	0.35341	-0.557
Mof_O 	O 	0.64659	0.35341	0.85341	-0.557
Mof_O 	O 	0.14659	0.14659	0.85341	-0.557
Mof_O 	O 	0.14659	0.64659	0.35341	-0.557
Mof_O 	O 	0.64659	0.14659	0.35341	-0.557
Mof_O 	O 	0.64659	0.64659	0.85341	-0.557
Mof_O 	O 	0.85341	0.85341	0.85341	-0.557
Mof_O 	O 	0.85341	0.35341	0.35341	-0.557
Mof_O 	O 	0.35341	0.85341	0.35341	-0.557
Mof_O 	O 	0.35341	0.35341	0.85341	-0.557
Mof_O 	O 	0.14659	0.85341	0.14659	-0.557
Mof_O 	O 	0.14659	0.35341	0.64659	-0.557
Mof_O 	O 	0.64659	0.85341	0.64659	-0.557
Mof_O 	O 	0.64659	0.35341	0.14659	-0.557
Mof_O 	O 	0.85341	0.14659	0.14659	-0.557
Mof_O 	O 	0.85341	0.64659	0.64659	-0.557
Mof_O 	O 	0.35341	0.14659	0.64659	-0.557
Mof_O 	O 	0.35341	0.64659	0.14659	-0.557
Mof_C 	C 	0.14949	0.14949	0.03349	-0.056
Mof_C 	C 	0.15034	0.15034	0.06983	0.378
Mof_C 	C 	0.14949	0.64949	0.53349	-0.068
Mof_C 	C 	0.15034	0.65034	0.56983	0.383
Mof_C 	C 	0.64949	0.14949	0.53349	-0.068
Mof_C 	C 	0.65034	0.15034	0.56983	0.383
Mof_C 	C 	0.64949	0.64949	0.03349	-0.056
Mof_C 	C 	0.65034	0.65034	0.06983	0.379
Mof_C 	C 	0.85051	0.85051	0.03349	-0.056
Mof_C 	C 	0.84966	0.84966	0.06983	0.379
Mof_C 	C 	0.85051	0.35051	0.53349	-0.068
Mof_C 	C 	0.84966	0.34966	0.56983	0.383
Mof_C 	C 	0.35051	0.85051	0.53349	-0.068
Mof_C 	C 	0.34966	0.84966	0.56983	0.383
Mof_C 	C 	0.35051	0.35051	0.03349	-0.056
Mof_C 	C 	0.34966	0.34966	0.06983	0.379
Mof_C 	C 	0.85051	0.14949	0.96651	-0.079
Mof_C 	C 	0.84966	0.15034	0.93017	0.388
Mof_C 	C 	0.85051	0.64949	0.46651	-0.068
Mof_C 	C 	0.84966	0.65034	0.43017	0.383
Mof_C 	C 	0.35051	0.14949	0.46651	-0.068
Mof_C 	C 	0.34966	0.15034	0.43017	0.383
Mof_C 	C 	0.35051	0.64949	0.96651	-0.08
Mof_C 	C 	0.34966	0.65034	0.93017	0.388
Mof_C 	C 	0.14949	0.85051	0.96651	-0.079
Mof_C 	C 	0.15034	0.84966	0.93017	0.388
Mof_C 	C 	0.14949	0.35051	0.46651	-0.068
Mof_C 	C 	0.15034	0.34966	0.43017	0.383
Mof_C 	C 	0.64949	0.85051	0.46651	-0.068
Mof_C 	C 	0.65034	0.84966	0.43017	0.383
Mof_C 	C 	0.64949	0.35051	0.96651	-0.08
Mof_C 	C 	0.65034	0.34966	0.93017	0.388
Mof_C 	C 	0.03349	0.14949	0.14949	-0.056
Mof_C 	C 	0.06983	0.15034	0.15034	0.378
Mof_C 	C 	0.03349	0.64949	0.64949	-0.056
Mof_C 	C 	0.06983	0.65034	0.65034	0.379
Mof_C 	C 	0.53349	0.14949	0.64949	-0.068
Mof_C 	C 	0.56983	0.15034	0.65034	0.383
Mof_C 	C 	0.53349	0.64949	0.14949	-0.068
Mof_C 	C 	0.56983	0.65034	0.15034	0.383
Mof_C 	C 	0.03349	0.85051	0.85051	-0.056
Mof_C 	C 	0.06983	0.84966	0.84966	0.379
Mof_C 	C 	0.03349	0.35051	0.35051	-0.056
Mof_C 	C 	0.06983	0.34966	0.34966	0.379
Mof_C 	C 	0.53349	0.85051	0.35051	-0.068
Mof_C 	C 	0.56983	0.84966	0.34966	0.383
Mof_C 	C 	0.53349	0.35051	0.85051	-0.068
Mof_C 	C 	0.56983	0.34966	0.84966	0.383
Mof_C 	C 	0.96651	0.85051	0.14949	-0.079
Mof_C 	C 	0.93017	0.84966	0.15034	0.388
Mof_C 	C 	0.96651	0.35051	0.64949	-0.08
Mof_C 	C 	0.93017	0.34966	0.65034	0.388
Mof_C 	C 	0.46651	0.85051	0.64949	-0.068
Mof_C 	C 	0.43017	0.84966	0.65034	0.383
Mof_C 	C 	0.46651	0.35051	0.14949	-0.068
Mof_C 	C 	0.43017	0.34966	0.15034	0.383
Mof_C 	C 	0.96651	0.14949	0.85051	-0.079
Mof_C 	C 	0.93017	0.15034	0.84966	0.388
Mof_C 	C 	0.96651	0.64949	0.35051	-0.08
Mof_C 	C 	0.93017	0.65034	0.34966	0.388
Mof_C 	C 	0.46651	0.14949	0.35051	-0.068
Mof_C 	C 	0.43017	0.15034	0.34966	0.383
Mof_C 	C 	0.46651	0.64949	0.85051	-0.068
Mof_C 	C 	0.43017	0.65034	0.84966	0.383
Mof_C 	C 	0.14949	0.03349	0.14949	-0.056
Mof_C 	C 	0.15034	0.06983	0.15034	0.378
Mof_C 	C 	0.14949	0.53349	0.64949	-0.068
Mof_C 	C 	0.15034	0.56983	0.65034	0.383
Mof_C 	C 	0.64949	0.03349	0.64949	-0.056
Mof_C 	C 	0.65034	0.06983	0.65034	0.379
Mof_C 	C 	0.64949	0.53349	0.14949	-0.068
Mof_C 	C 	0.65034	0.56983	0.15034	0.383
Mof_C 	C 	0.85051	0.03349	0.85051	-0.056
Mof_C 	C 	0.84966	0.06983	0.84966	0.379
Mof_C 	C 	0.85051	0.53349	0.35051	-0.068
Mof_C 	C 	0.84966	0.56983	0.34966	0.383
Mof_C 	C 	0.35051	0.03349	0.35051	-0.056
Mof_C 	C 	0.34966	0.06983	0.34966	0.379
Mof_C 	C 	0.35051	0.53349	0.85051	-0.068
Mof_C 	C 	0.34966	0.56983	0.84966	0.383
Mof_C 	C 	0.14949	0.96651	0.85051	-0.079
Mof_C 	C 	0.15034	0.93017	0.84966	0.388
Mof_C 	C 	0.14949	0.46651	0.35051	-0.068
Mof_C 	C 	0.15034	0.43017	0.34966	0.383
Mof_C 	C 	0.64949	0.96651	0.35051	-0.08
Mof_C 	C 	0.65034	0.93017	0.34966	0.388
Mof_C 	C 	0.64949	0.46651	0.85051	-0.068
Mof_C 	C 	0.65034	0.43017	0.84966	0.383
Mof_C 	C 	0.85051	0.96651	0.14949	-0.079
Mof_C 	C 	0.84966	0.93017	0.15034	0.388
Mof_C 	C 	0.85051	0.46651	0.64949	-0.068
Mof_C 	C 	0.84966	0.43017	0.65034	0.383
Mof_C 	C 	0.35051	0.96651	0.64949	-0.08
Mof_C 	C 	0.34966	0.93017	0.65034	0.388
Mof_C 	C 	0.35051	0.46651	0.14949	-0.068
Mof_C 	C 	0.34966	0.43017	0.15034	0.383
Mof_C 	C 	0.14949	0.14949	0.96651	-0.08
Mof_C 	C 	0.15034	0.15034	0.93017	0.388
Mof_C 	C 	0.14949	0.64949	0.46651	-0.068
Mof_C 	C 	0.15034	0.65034	0.43017	0.383
Mof_C 	C 	0.64949	0.14949	0.46651	-0.068
Mof_C 	C 	0.65034	0.15034	0.43017	0.383
Mof_C 	C 	0.64949	0.64949	0.96651	-0.08
Mof_C 	C 	0.65034	0.65034	0.93017	0.388
Mof_C 	C 	0.85051	0.85051	0.96651	-0.079
Mof_C 	C 	0.84966	0.84966	0.93017	0.388
Mof_C 	C 	0.85051	0.35051	0.46651	-0.068
Mof_C 	C 	0.84966	0.34966	0.43017	0.383
Mof_C 	C 	0.35051	0.85051	0.46651	-0.068
Mof_C 	C 	0.34966	0.84966	0.43017	0.383
Mof_C 	C 	0.35051	0.35051	0.96651	-0.08
Mof_C 	C 	0.34966	0.34966	0.93017	0.388
Mof_C 	C 	0.14949	0.85051	0.03349	-0.056
Mof_C 	C 	0.15034	0.84966	0.06983	0.379
Mof_C 	C 	0.14949	0.35051	0.53349	-0.068
Mof_C 	C 	0.15034	0.34966	0.56983	0.383
Mof_C 	C 	0.64949	0.85051	0.53349	-0.068
Mof_C 	C 	0.65034	0.84966	0.56983	0.383
Mof_C 	C 	0.64949	0.35051	0.03349	-0.056
Mof_C 	C 	0.65034	0.34966	0.06983	0.379
Mof_C 	C 	0.85051	0.14949	0.03349	-0.056
Mof_C 	C 	0.84966	0.15034	0.06983	0.379
Mof_C 	C 	0.85051	0.64949	0.53349	-0.068
Mof_C 	C 	0.84966	0.65034	0.56983	0.383
Mof_C 	C 	0.35051	0.14949	0.53349	-0.068
Mof_C 	C 	0.34966	0.15034	0.56983	0.383
Mof_C 	C 	0.35051	0.64949	0.03349	-0.056
Mof_C 	C 	0.34966	0.65034	0.06983	0.379
Mof_C 	C 	0.14949	0.03349	0.85051	-0.056
Mof_C 	C 	0.15034	0.06983	0.84966	0.379
Mof_C 	C 	0.14949	0.53349	0.35051	-0.068
Mof_C 	C 	0.15034	0.56983	0.34966	0.383
Mof_C 	C 	0.64949	0.03349	0.35051	-0.056
Mof_C 	C 	0.65034	0.06983	0.34966	0.379
Mof_C 	C 	0.64949	0.53349	0.85051	-0.068
Mof_C 	C 	0.65034	0.56983	0.84966	0.383
Mof_C 	C 	0.85051	0.03349	0.14949	-0.056
Mof_C 	C 	0.84966	0.06983	0.15034	0.379
Mof_C 	C 	0.85051	0.53349	0.64949	-0.068
Mof_C 	C 	0.84966	0.56983	0.65034	0.383
Mof_C 	C 	0.35051	0.03349	0.64949	-0.056
Mof_C 	C 	0.34966	0.06983	0.65034	0.379
Mof_C 	C 	0.35051	0.53349	0.14949	-0.068
Mof_C 	C 	0.34966	0.56983	0.15034	0.383
Mof_C 	C 	0.85051	0.96651	0.85051	-0.079
Mof_C 	C 	0.84966	0.93017	0.84966	0.388
Mof_C 	C 	0.85051	0.46651	0.35051	-0.068
Mof_C 	C 	0.84966	0.43017	0.34966	0.383
Mof_C 	C 	0.35051	0.96651	0.35051	-0.08
Mof_C 	C 	0.34966	0.93017	0.34966	0.388
Mof_C 	C 	0.35051	0.46651	0.85051	-0.068
Mof_C 	C 	0.34966	0.43017	0.84966	0.383
Mof_C 	C 	0.14949	0.96651	0.14949	-0.08
Mof_C 	C 	0.15034	0.93017	0.15034	0.388
Mof_C 	C 	0.14949	0.46651	0.64949	-0.068
Mof_C 	C 	0.15034	0.43017	0.65034	0.383
Mof_C 	C 	0.64949	0.96651	0.64949	-0.08
Mof_C 	C 	0.65034	0.93017	0.65034	0.388
Mof_C 	C 	0.64949	0.46651	0.14949	-0.068
Mof_C 	C 	0.65034	0.43017	0.15034	0.383
Mof_C 	C 	0.03349	0.14949	0.85051	-0.056
Mof_C 	C 	0.06983	0.15034	0.84966	0.379
Mof_C 	C 	0.03349	0.64949	0.35051	-0.056
Mof_C 	C 	0.06983	0.65034	0.34966	0.379
Mof_C 	C 	0.53349	0.14949	0.35051	-0.068
Mof_C 	C 	0.56983	0.15034	0.34966	0.383
Mof_C 	C 	0.53349	0.64949	0.85051	-0.068
Mof_C 	C 	0.56983	0.65034	0.84966	0.383
Mof_C 	C 	0.03349	0.85051	0.14949	-0.056
Mof_C 	C 	0.06983	0.84966	0.15034	0.379
Mof_C 	C 	0.03349	0.35051	0.64949	-0.056
Mof_C 	C 	0.06983	0.34966	0.65034	0.379
Mof_C 	C 	0.53349	0.85051	0.64949	-0.068
Mof_C 	C 	0.56983	0.84966	0.65034	0.383
Mof_C 	C 	0.53349	0.35051	0.14949	-0.068
Mof_C 	C 	0.56983	0.34966	0.15034	0.383
Mof_C 	C 	0.96651	0.14949	0.14949	-0.08
Mof_C 	C 	0.93017	0.15034	0.15034	0.388
Mof_C 	C 	0.96651	0.64949	0.64949	-0.08
Mof_C 	C 	0.93017	0.65034	0.65034	0.388
Mof_C 	C 	0.46651	0.14949	0.64949	-0.068
Mof_C 	C 	0.43017	0.15034	0.65034	0.383
Mof_C 	C 	0.46651	0.64949	0.14949	-0.068
Mof_C 	C 	0.43017	0.65034	0.15034	0.383
Mof_C 	C 	0.96651	0.85051	0.85051	-0.079
Mof_C 	C 	0.93017	0.84966	0.84966	0.388
Mof_C 	C 	0.96651	0.35051	0.35051	-0.08
Mof_C 	C 	0.93017	0.34966	0.34966	0.388
Mof_C 	C 	0.46651	0.85051	0.35051	-0.068
Mof_C 	C 	0.43017	0.84966	0.34966	0.383
Mof_C 	C 	0.46651	0.35051	0.85051	-0.068
Mof_C 	C 	0.43017	0.34966	0.84966	0.383
Mof_C 	C 	0.19954	0.124	0.19954	0.45
Mof_C 	C 	0.22618	0.1227	0.22618	-0.082
Mof_C 	C 	0.19954	0.624	0.69954	0.45
Mof_C 	C 	0.22618	0.6227	0.72618	-0.081
Mof_C 	C 	0.69954	0.124	0.69954	0.45
Mof_C 	C 	0.72618	0.1227	0.72618	-0.082
Mof_C 	C 	0.69954	0.624	0.19954	0.45
Mof_C 	C 	0.72618	0.6227	0.22618	-0.081
Mof_C 	C 	0.80046	0.876	0.19954	0.45
Mof_C 	C 	0.77382	0.8773	0.22618	-0.081
Mof_C 	C 	0.80046	0.376	0.69954	0.45
Mof_C 	C 	0.77382	0.3773	0.72618	-0.081
Mof_C 	C 	0.30046	0.876	0.69954	0.45
Mof_C 	C 	0.27382	0.8773	0.72618	-0.081
Mof_C 	C 	0.30046	0.376	0.19954	0.45
Mof_C 	C 	0.27382	0.3773	0.22618	-0.081
Mof_C 	C 	0.80046	0.124	0.80046	0.45
Mof_C 	C 	0.77382	0.1227	0.77382	-0.082
Mof_C 	C 	0.80046	0.624	0.30046	0.45
Mof_C 	C 	0.77382	0.6227	0.27382	-0.081
Mof_C 	C 	0.30046	0.124	0.30046	0.45
Mof_C 	C 	0.27382	0.1227	0.27382	-0.082
Mof_C 	C 	0.30046	0.624	0.80046	0.45
Mof_C 	C 	0.27382	0.6227	0.77382	-0.081
Mof_C 	C 	0.19954	0.876	0.80046	0.45
Mof_C 	C 	0.22618	0.8773	0.77382	-0.081
Mof_C 	C 	0.19954	0.376	0.30046	0.45
Mof_C 	C 	0.22618	0.3773	0.27382	-0.081
Mof_C 	C 	0.69954	0.876	0.30046	0.45
Mof_C 	C 	0.72618	0.8773	0.27382	-0.081
Mof_C 	C 	0.69954	0.376	0.80046	0.45
Mof_C 	C 	0.72618	0.3773	0.77382	-0.081
Mof_C 	C 	0.19954	0.19954	0.124	0.45
Mof_C 	C 	0.22618	0.22618	0.1227	-0.082
Mof_C 	C 	0.19954	0.69954	0.624	0.45
Mof_C 	C 	0.22618	0.72618	0.6227	-0.081
Mof_C 	C 	0.69954	0.19954	0.624	0.45
Mof_C 	C 	0.72618	0.22618	0.6227	-0.081
Mof_C 	C 	0.69954	0.69954	0.124	0.45
Mof_C 	C 	0.72618	0.72618	0.1227	-0.082
Mof_C 	C 	0.19954	0.80046	0.876	0.45
Mof_C 	C 	0.22618	0.77382	0.8773	-0.081
Mof_C 	C 	0.19954	0.30046	0.376	0.45
Mof_C 	C 	0.22618	0.27382	0.3773	-0.081
Mof_C 	C 	0.69954	0.80046	0.376	0.45
Mof_C 	C 	0.72618	0.77382	0.3773	-0.081
Mof_C 	C 	0.69954	0.30046	0.876	0.45
Mof_C 	C 	0.72618	0.27382	0.8773	-0.081
Mof_C 	C 	0.80046	0.80046	0.124	0.45
Mof_C 	C 	0.77382	0.77382	0.1227	-0.082
Mof_C 	C 	0.80046	0.30046	0.624	0.45
Mof_C 	C 	0.77382	0.27382	0.6227	-0.081
Mof_C 	C 	0.30046	0.80046	0.624	0.45
Mof_C 	C 	0.27382	0.77382	0.6227	-0.081
Mof_C 	C 	0.30046	0.30046	0.124	0.45
Mof_C 	C 	0.27382	0.27382	0.1227	-0.082
Mof_C 	C 	0.80046	0.19954	0.876	0.45
Mof_C 	C 	0.77382	0.22618	0.8773	-0.081
Mof_C 	C 	0.80046	0.69954	0.376	0.45
Mof_C 	C 	0.77382	0.72618	0.3773	-0.081
Mof_C 	C 	0.30046	0.19954	0.376	0.45
Mof_C 	C 	0.27382	0.22618	0.3773	-0.081
Mof_C 	C 	0.30046	0.69954	0.876	0.45
Mof_C 	C 	0.27382	0.72618	0.8773	-0.081
Mof_C 	C 	0.124	0.19954	0.19954	0.45
Mof_C 	C 	0.1227	0.22618	0.22618	-0.082
Mof_C 	C 	0.124	0.69954	0.69954	0.45
Mof_C 	C 	0.1227	0.72618	0.72618	-0.082
Mof_C 	C 	0.624	0.19954	0.69954	0.45
Mof_C 	C 	0.6227	0.22618	0.72618	-0.081
Mof_C 	C 	0.624	0.69954	0.19954	0.45
Mof_C 	C 	0.6227	0.72618	0.22618	-0.081
Mof_C 	C 	0.876	0.19954	0.80046	0.45
Mof_C 	C 	0.8773	0.22618	0.77382	-0.081
Mof_C 	C 	0.876	0.69954	0.30046	0.45
Mof_C 	C 	0.8773	0.72618	0.27382	-0.081
Mof_C 	C 	0.376	0.19954	0.30046	0.45
Mof_C 	C 	0.3773	0.22618	0.27382	-0.081
Mof_C 	C 	0.376	0.69954	0.80046	0.45
Mof_C 	C 	0.3773	0.72618	0.77382	-0.081
Mof_C 	C 	0.124	0.80046	0.80046	0.45
Mof_C 	C 	0.1227	0.77382	0.77382	-0.082
Mof_C 	C 	0.124	0.30046	0.30046	0.45
Mof_C 	C 	0.1227	0.27382	0.27382	-0.082
Mof_C 	C 	0.624	0.80046	0.30046	0.45
Mof_C 	C 	0.6227	0.77382	0.27382	-0.081
Mof_C 	C 	0.624	0.30046	0.80046	0.45
Mof_C 	C 	0.6227	0.27382	0.77382	-0.081
Mof_C 	C 	0.876	0.80046	0.19954	0.45
Mof_C 	C 	0.8773	0.77382	0.22618	-0.081
Mof_C 	C 	0.876	0.30046	0.69954	0.45
Mof_C 	C 	0.8773	0.27382	0.72618	-0.081
Mof_C 	C 	0.376	0.80046	0.69954	0.45
Mof_C 	C 	0.3773	0.77382	0.72618	-0.081
Mof_C 	C 	0.376	0.30046	0.19954	0.45
Mof_C 	C 	0.3773	0.27382	0.22618	-0.081
Mof_C 	C 	0.124	0.19954	0.80046	0.45
Mof_C 	C 	0.1227	0.22618	0.77382	-0.082
Mof_C 	C 	0.124	0.69954	0.30046	0.45
Mof_C 	C 	0.1227	0.72618	0.27382	-0.082
Mof_C 	C 	0.624	0.19954	0.30046	0.45
Mof_C 	C 	0.6227	0.22618	0.27382	-0.081
Mof_C 	C 	0.624	0.69954	0.80046	0.45
Mof_C 	C 	0.6227	0.72618	0.77382	-0.081
Mof_C 	C 	0.876	0.80046	0.80046	0.45
Mof_C 	C 	0.8773	0.77382	0.77382	-0.081
Mof_C 	C 	0.876	0.30046	0.30046	0.45
Mof_C 	C 	0.8773	0.27382	0.27382	-0.081
Mof_C 	C 	0.376	0.80046	0.30046	0.45
Mof_C 	C 	0.3773	0.77382	0.27382	-0.081
Mof_C 	C 	0.376	0.30046	0.80046	0.45
Mof_C 	C 	0.3773	0.27382	0.77382	-0.081
Mof_C 	C 	0.124	0.80046	0.19954	0.45
Mof_C 	C 	0.1227	0.77382	0.22618	-0.082
Mof_C 	C 	0.124	0.30046	0.69954	0.45
Mof_C 	C 	0.1227	0.27382	0.72618	-0.082
Mof_C 	C 	0.624	0.80046	0.69954	0.45
Mof_C 	C 	0.6227	0.77382	0.72618	-0.081
Mof_C 	C 	0.624	0.30046	0.19954	0.45
Mof_C 	C 	0.6227	0.27382	0.22618	-0.081
Mof_C 	C 	0.876	0.19954	0.19954	0.45
Mof_C 	C 	0.8773	0.22618	0.22618	-0.081
Mof_C 	C 	0.876	0.69954	0.69954	0.45
Mof_C 	C 	0.8773	0.72618	0.72618	-0.081
Mof_C 	C 	0.376	0.19954	0.69954	0.45
Mof_C 	C 	0.3773	0.22618	0.72618	-0.081
Mof_C 	C 	0.376	0.69954	0.19954	0.45
Mof_C 	C 	0.3773	0.72618	0.22618	-0.081
Mof_C 	C 	0.19954	0.19954	0.876	0.45
Mof_C 	C 	0.22618	0.22618	0.8773	-0.081
Mof_C 	C 	0.19954	0.69954	0.376	0.45
Mof_C 	C 	0.22618	0.72618	0.3773	-0.081
Mof_C 	C 	0.69954	0.19954	0.376	0.45
Mof_C 	C 	0.72618	0.22618	0.3773	-0.081
Mof_C 	C 	0.69954	0.69954	0.876	0.45
Mof_C 	C 	0.72618	0.72618	0.8773	-0.081
Mof_C 	C 	0.80046	0.19954	0.124	0.45
Mof_C 	C 	0.77382	0.22618	0.1227	-0.082
Mof_C 	C 	0.80046	0.69954	0.624	0.45
Mof_C 	C 	0.77382	0.72618	0.6227	-0.081
Mof_C 	C 	0.30046	0.19954	0.624	0.45
Mof_C 	C 	0.27382	0.22618	0.6227	-0.081
Mof_C 	C 	0.30046	0.69954	0.124	0.45
Mof_C 	C 	0.27382	0.72618	0.1227	-0.082
Mof_C 	C 	0.80046	0.80046	0.876	0.45
Mof_C 	C 	0.77382	0.77382	0.8773	-0.081
Mof_C 	C 	0.80046	0.30046	0.376	0.45
Mof_C 	C 	0.77382	0.27382	0.3773	-0.081
Mof_C 	C 	0.30046	0.80046	0.376	0.45
Mof_C 	C 	0.27382	0.77382	0.3773	-0.081
Mof_C 	C 	0.30046	0.30046	0.876	0.45
Mof_C 	C 	0.27382	0.27382	0.8773	-0.081
Mof_C 	C 	0.19954	0.80046	0.124	0.45
Mof_C 	C 	0.22618	0.77382	0.1227	-0.082
Mof_C 	C 	0.19954	0.30046	0.624	0.45
Mof_C 	C 	0.22618	0.27382	0.6227	-0.081
Mof_C 	C 	0.69954	0.80046	0.624	0.45
Mof_C 	C 	0.72618	0.77382	0.6227	-0.081
Mof_C 	C 	0.69954	0.30046	0.124	0.45
Mof_C 	C 	0.72618	0.27382	0.1227	-0.082
Mof_C 	C 	0.19954	0.124	0.80046	0.45
Mof_C 	C 	0.22618	0.1227	0.77382	-0.082
Mof_C 	C 	0.19954	0.624	0.30046	0.45
Mof_C 	C 	0.22618	0.6227	0.27382	-0.081
Mof_C 	C 	0.69954	0.124	0.30046	0.45
Mof_C 	C 	0.72618	0.1227	0.27382	-0.082
Mof_C 	C 	0.69954	0.624	0.80046	0.45
Mof_C 	C 	0.72618	0.6227	0.77382	-0.081
Mof_C 	C 	0.19954	0.876	0.19954	0.45
Mof_C 	C 	0.22618	0.8773	0.22618	-0.081
Mof_C 	C 	0.19954	0.376	0.69954	0.45
Mof_C 	C 	0.22618	0.3773	0.72618	-0.081
Mof_C 	C 	0.69954	0.876	0.69954	0.45
Mof_C 	C 	0.72618	0.8773	0.72618	-0.081
Mof_C 	C 	0.69954	0.376	0.19954	0.45
Mof_C 	C 	0.72618	0.3773	0.22618	-0.081
Mof_C 	C 	0.80046	0.124	0.19954	0.45
Mof_C 	C 	0.77382	0.1227	0.22618	-0.082
Mof_C 	C 	0.80046	0.624	0.69954	0.45
Mof_C 	C 	0.77382	0.6227	0.72618	-0.081
Mof_C 	C 	0.30046	0.124	0.69954	0.45
Mof_C 	C 	0.27382	0.1227	0.72618	-0.082
Mof_C 	C 	0.30046	0.624	0.19954	0.45
Mof_C 	C 	0.27382	0.6227	0.22618	-0.081
Mof_C 	C 	0.80046	0.876	0.80046	0.45
Mof_C 	C 	0.77382	0.8773	0.77382	-0.081
Mof_C 	C 	0.80046	0.376	0.30046	0.45
Mof_C 	C 	0.77382	0.3773	0.27382	-0.081
Mof_C 	C 	0.30046	0.876	0.30046	0.45
Mof_C 	C 	0.27382	0.8773	0.27382	-0.081
Mof_C 	C 	0.30046	0.376	0.80046	0.45
Mof_C 	C 	0.27382	0.3773	0.77382	-0.081
Mof_Ni	Ni	0.2722	0	-0	1.135
Mof_Ni	Ni	0.2722	0.5	0.5	1.14
Mof_Ni	Ni	0.7722	0	0.5	1.138
Mof_Ni	Ni	0.7722	0.5	-0	1.138
Mof_Ni	Ni	0.7278	0	-0	1.135
Mof_Ni	Ni	0.7278	0.5	0.5	1.14
Mof_Ni	Ni	0.2278	0	0.5	1.137
Mof_Ni	Ni	0.2278	0.5	-0	1.137
Mof_Ni	Ni	-2.83176e-33	0.2722	-0	1.135
Mof_Ni	Ni	-9.45236e-33	0.7722	0.5	1.138
Mof_Ni	Ni	0.5	0.2722	0.5	1.14
Mof_Ni	Ni	0.5	0.7722	-0	1.138
Mof_Ni	Ni	-0	0.7278	-0	1.135
Mof_Ni	Ni	-3.78883e-33	0.2278	0.5	1.137
Mof_Ni	Ni	0.5	0.7278	0.5	1.14
Mof_Ni	Ni	0.5	0.2278	-0	1.137
Mof_Ni	Ni	-1.81118e-33	-2.83176e-33	0.2722	1.135
Mof_Ni	Ni	-8.43177e-33	0.5	0.7722	1.138
Mof_Ni	Ni	0.5	5.66353e-33	0.7722	1.138
Mof_Ni	Ni	0.5	0.5	0.2722	1.14
Mof_Ni	Ni	2.72881e-33	0	0.7278	1.135
Mof_Ni	Ni	-1.97765e-33	0.5	0.2278	1.137
Mof_Ni	Ni	0.5	2.83176e-33	0.2278	1.137
Mof_Ni	Ni	0.5	0.5	0.7278	1.14
_end
