data_functionalizedCrystal
_audit_creation_method	'EQeq! by Chris Wilmer'
_symmetry_space_group_name_H-M	'P1'
_symmetry_Int_Tables_number	1
_symmetry_cell_setting	triclinic
loop_
_symmetry_equiv_pos_as_xyz
  x,y,z
_cell_length_a	20.782
_cell_length_b	20.782
_cell_length_c	20.782
_cell_angle_alpha	90
_cell_angle_beta	90
_cell_angle_gamma	90
loop_
_atom_site_label
_atom_site_type_symbol
_atom_site_fract_x
_atom_site_fract_y
_atom_site_fract_z
_atom_site_charge
Mof_Zr	Zr	0.12048	0	-0	3.128
Mof_Zr	Zr	0.12048	0.5	0.5	3.197
Mof_Zr	Zr	0.62048	0	0.5	3.163
Mof_Zr	Zr	0.62048	0.5	-0	3.163
Mof_Zr	Zr	0.87952	0	-0	3.129
Mof_Zr	Zr	0.87952	0.5	0.5	3.197
Mof_Zr	Zr	0.37952	0	0.5	3.163
Mof_Zr	Zr	0.37952	0.5	-0	3.163
Mof_Zr	Zr	1.40624e-33	0.12048	-0	3.128
Mof_Zr	Zr	-3.75025e-33	0.62048	0.5	3.163
Mof_Zr	Zr	0.5	0.12048	0.5	3.197
Mof_Zr	Zr	0.5	0.62048	-0	3.163
Mof_Zr	Zr	1.12499e-32	0.87952	-0	3.129
Mof_Zr	Zr	7.49965e-33	0.37952	0.5	3.163
Mof_Zr	Zr	0.5	0.87952	0.5	3.197
Mof_Zr	Zr	0.5	0.37952	-0	3.163
Mof_Zr	Zr	1.85796e-33	1.40624e-33	0.12048	3.128
Mof_Zr	Zr	-3.29852e-33	0.5	0.62048	3.164
Mof_Zr	Zr	0.5	0	0.62048	3.164
Mof_Zr	Zr	0.5	0.5	0.12048	3.198
Mof_Zr	Zr	1.45476e-32	0	0.87952	3.13
Mof_Zr	Zr	9.86039e-33	0.5	0.37952	3.164
Mof_Zr	Zr	0.5	0	0.37952	3.164
Mof_Zr	Zr	0.5	0.5	0.87952	3.198
Mof_O 	O 	0.1805	0	0.0848	-0.643
Mof_C 	C 	0.2675	0	0.1844	0.054
Mof_N 	N 	0.28428	1.40624e-33	0.12171	-0.126
Mof_O 	O 	0.1805	0.5	0.5848	-0.507
Mof_C 	C 	0.2675	0.5	0.6844	0.099
Mof_N 	N 	0.28428	0.5	0.62171	-0.044
Mof_O 	O 	0.6805	0	0.5848	-0.613
Mof_C 	C 	0.7675	0	0.6844	0.083
Mof_N 	N 	0.78428	0	0.62171	-0.069
Mof_O 	O 	0.6805	0.5	0.0848	-0.522
Mof_C 	C 	0.7675	0.5	0.1844	0.113
Mof_N 	N 	0.78428	0.5	0.12171	-0.027
Mof_O 	O 	0.8195	0	0.0848	-0.633
Mof_C 	C 	0.7325	0	0.1844	0.058
Mof_N 	N 	0.71572	1.40624e-33	0.12171	-0.121
Mof_O 	O 	0.8195	0.5	0.5848	-0.498
Mof_C 	C 	0.7325	0.5	0.6844	0.103
Mof_N 	N 	0.71572	0.5	0.62171	-0.039
Mof_O 	O 	0.3195	0	0.5848	-0.624
Mof_C 	C 	0.2325	0	0.6844	0.057
Mof_N 	N 	0.21572	0	0.62171	-0.115
Mof_O 	O 	0.3195	0.5	0.0848	-0.532
Mof_C 	C 	0.2325	0.5	0.1844	0.086
Mof_N 	N 	0.21572	0.5	0.12171	-0.073
Mof_O 	O 	0.8195	0	0.9152	-0.437
Mof_C 	C 	0.7325	-5.62495e-33	0.8156	0.082
Mof_N 	N 	0.71572	0	0.87829	-0.003
Mof_O 	O 	0.8195	0.5	0.4152	-0.5
Mof_C 	C 	0.7325	0.5	0.3156	0.093
Mof_N 	N 	0.71572	0.5	0.37829	-0.04
Mof_O 	O 	0.3195	5.62495e-33	0.4152	-0.625
Mof_C 	C 	0.2325	-2.81247e-33	0.3156	0.048
Mof_N 	N 	0.21572	-2.81247e-33	0.37829	-0.117
Mof_O 	O 	0.3195	0.5	0.9152	-0.332
Mof_C 	C 	0.2325	0.5	0.8156	0.111
Mof_N 	N 	0.21572	0.5	0.87829	0.047
Mof_O 	O 	0.1805	0	0.9152	-0.443
Mof_C 	C 	0.2675	-5.62495e-33	0.8156	0.079
Mof_N 	N 	0.28428	0	0.87829	-0.007
Mof_O 	O 	0.1805	0.5	0.4152	-0.508
Mof_C 	C 	0.2675	0.5	0.3156	0.089
Mof_N 	N 	0.28428	0.5	0.37829	-0.046
Mof_O 	O 	0.6805	5.62495e-33	0.4152	-0.615
Mof_C 	C 	0.7675	-2.81247e-33	0.3156	0.074
Mof_N 	N 	0.78428	-2.81247e-33	0.37829	-0.071
Mof_O 	O 	0.6805	0.5	0.9152	-0.324
Mof_C 	C 	0.7675	0.5	0.8156	0.137
Mof_N 	N 	0.78428	0.5	0.87829	0.091
Mof_O 	O 	0.0848	0.1805	-0	-0.643
Mof_C 	C 	0.1844	0.2675	-0	0.054
Mof_N 	N 	0.12171	0.28428	-0	-0.126
Mof_O 	O 	0.0848	0.6805	0.5	-0.522
Mof_C 	C 	0.1844	0.7675	0.5	0.113
Mof_N 	N 	0.12171	0.78428	0.5	-0.027
Mof_O 	O 	0.5848	0.1805	0.5	-0.507
Mof_C 	C 	0.6844	0.2675	0.5	0.099
Mof_N 	N 	0.62171	0.28428	0.5	-0.044
Mof_O 	O 	0.5848	0.6805	-0	-0.613
Mof_C 	C 	0.6844	0.7675	-0	0.083
Mof_N 	N 	0.62171	0.78428	-0	-0.069
Mof_O 	O 	0.0848	0.8195	-0	-0.633
Mof_C 	C 	0.1844	0.7325	-0	0.058
Mof_N 	N 	0.12171	0.71572	-0	-0.121
Mof_O 	O 	0.0848	0.3195	0.5	-0.532
Mof_C 	C 	0.1844	0.2325	0.5	0.086
Mof_N 	N 	0.12171	0.21572	0.5	-0.073
Mof_O 	O 	0.5848	0.8195	0.5	-0.498
Mof_C 	C 	0.6844	0.7325	0.5	0.103
Mof_N 	N 	0.62171	0.71572	0.5	-0.039
Mof_O 	O 	0.5848	0.3195	-0	-0.624
Mof_C 	C 	0.6844	0.2325	-0	0.057
Mof_N 	N 	0.62171	0.21572	-0	-0.115
Mof_O 	O 	0.9152	0.8195	-0	-0.437
Mof_C 	C 	0.8156	0.7325	-0	0.082
Mof_N 	N 	0.87829	0.71572	-0	-0.003
Mof_O 	O 	0.9152	0.3195	0.5	-0.332
Mof_C 	C 	0.8156	0.2325	0.5	0.111
Mof_N 	N 	0.87829	0.21572	0.5	0.047
Mof_O 	O 	0.4152	0.8195	0.5	-0.5
Mof_C 	C 	0.3156	0.7325	0.5	0.093
Mof_N 	N 	0.37829	0.71572	0.5	-0.04
Mof_O 	O 	0.4152	0.3195	-0	-0.625
Mof_C 	C 	0.3156	0.2325	-0	0.048
Mof_N 	N 	0.37829	0.21572	-0	-0.117
Mof_O 	O 	0.9152	0.1805	-0	-0.443
Mof_C 	C 	0.8156	0.2675	-0	0.079
Mof_N 	N 	0.87829	0.28428	-0	-0.007
Mof_O 	O 	0.9152	0.6805	0.5	-0.324
Mof_C 	C 	0.8156	0.7675	0.5	0.137
Mof_N 	N 	0.87829	0.78428	0.5	0.091
Mof_O 	O 	0.4152	0.1805	0.5	-0.508
Mof_C 	C 	0.3156	0.2675	0.5	0.089
Mof_N 	N 	0.37829	0.28428	0.5	-0.046
Mof_O 	O 	0.4152	0.6805	-0	-0.615
Mof_C 	C 	0.3156	0.7675	-0	0.074
Mof_N 	N 	0.37829	0.78428	-0	-0.071
Mof_O 	O 	2.083e-33	0.0848	0.1805	-0.643
Mof_C 	C 	-1.80951e-33	0.1844	0.2675	0.054
Mof_N 	N 	3.87835e-33	0.12171	0.28428	-0.126
Mof_O 	O 	2.55147e-33	0.5848	0.6805	-0.613
Mof_C 	C 	-2.74728e-33	0.6844	0.7675	0.083
Mof_N 	N 	2.94058e-33	0.62171	0.78428	-0.069
Mof_O 	O 	0.5	0.0848	0.6805	-0.522
Mof_C 	C 	0.5	0.1844	0.7675	0.113
Mof_N 	N 	0.5	0.12171	0.78428	-0.027
Mof_O 	O 	0.5	0.5848	0.1805	-0.507
Mof_C 	C 	0.5	0.6844	0.2675	0.099
Mof_N 	N 	0.5	0.62171	0.28428	-0.044
Mof_O 	O 	-2.55231e-33	0.0848	0.8195	-0.633
Mof_C 	C 	-2.87851e-33	0.1844	0.7325	0.058
Mof_N 	N 	-2.94143e-33	0.12171	0.71572	-0.121
Mof_O 	O 	-1.61454e-33	0.5848	0.3195	-0.624
Mof_C 	C 	-1.94074e-33	0.6844	0.2325	0.057
Mof_N 	N 	3.62129e-33	0.62171	0.21572	-0.115
Mof_O 	O 	0.5	0.0848	0.3195	-0.532
Mof_C 	C 	0.5	0.1844	0.2325	0.086
Mof_N 	N 	0.5	0.12171	0.21572	-0.073
Mof_O 	O 	0.5	0.5848	0.8195	-0.498
Mof_C 	C 	0.5	0.6844	0.7325	0.103
Mof_N 	N 	0.5	0.62171	0.71572	-0.039
Mof_O 	O 	-2.55231e-33	0.9152	0.8195	-0.437
Mof_C 	C 	-2.87851e-33	0.8156	0.7325	0.082
Mof_N 	N 	8.30847e-33	0.87829	0.71572	-0.003
Mof_O 	O 	4.01041e-33	0.4152	0.3195	-0.625
Mof_C 	C 	3.68421e-33	0.3156	0.2325	0.048
Mof_N 	N 	3.62129e-33	0.37829	0.21572	-0.117
Mof_O 	O 	0.5	0.9152	0.3195	-0.332
Mof_C 	C 	0.5	0.8156	0.2325	0.111
Mof_N 	N 	0.5	0.87829	0.21572	0.047
Mof_O 	O 	0.5	0.4152	0.8195	-0.5
Mof_C 	C 	0.5	0.3156	0.7325	0.093
Mof_N 	N 	0.5	0.37829	0.71572	-0.04
Mof_O 	O 	2.083e-33	0.9152	0.1805	-0.443
Mof_C 	C 	1.00296e-33	0.8156	0.2675	0.079
Mof_N 	N 	1.51282e-32	0.87829	0.28428	-0.007
Mof_O 	O 	8.17641e-33	0.4152	0.6805	-0.615
Mof_C 	C 	2.87766e-33	0.3156	0.7675	0.074
Mof_N 	N 	2.94058e-33	0.37829	0.78428	-0.071
Mof_O 	O 	0.5	0.9152	0.6805	-0.324
Mof_C 	C 	0.5	0.8156	0.7675	0.137
Mof_N 	N 	0.5	0.87829	0.78428	0.091
Mof_O 	O 	0.5	0.4152	0.1805	-0.508
Mof_C 	C 	0.5	0.3156	0.2675	0.089
Mof_N 	N 	0.5	0.37829	0.28428	-0.046
Mof_O 	O 	3.43145e-33	0.1805	0.9152	-0.443
Mof_C 	C 	3.05801e-33	0.2675	0.8156	0.079
Mof_N 	N 	1.4543e-32	0.28428	0.87829	-0.007
Mof_O 	O 	7.1817e-33	0.6805	0.4152	-0.615
Mof_C 	C 	6.80826e-33	0.7675	0.3156	0.074
Mof_N 	N 	7.04331e-33	0.78428	0.37829	-0.071
Mof_O 	O 	0.5	0.1805	0.4152	-0.508
Mof_C 	C 	0.5	0.2675	0.3156	0.089
Mof_N 	N 	0.5	0.28428	0.37829	-0.046
Mof_O 	O 	0.5	0.6805	0.9152	-0.324
Mof_C 	C 	0.5	0.7675	0.8156	0.137
Mof_N 	N 	0.5	0.78428	0.87829	0.091
Mof_O 	O 	3.43145e-33	0.8195	0.9152	-0.437
Mof_C 	C 	-8.19188e-33	0.7325	0.8156	0.082
Mof_N 	N 	3.29306e-33	0.71572	0.87829	-0.003
Mof_O 	O 	1.55675e-33	0.3195	0.4152	-0.625
Mof_C 	C 	3.99578e-33	0.2325	0.3156	0.048
Mof_N 	N 	1.41836e-33	0.21572	0.37829	-0.117
Mof_O 	O 	0.5	0.8195	0.4152	-0.5
Mof_C 	C 	0.5	0.7325	0.3156	0.093
Mof_N 	N 	0.5	0.71572	0.37829	-0.04
Mof_O 	O 	0.5	0.3195	0.9152	-0.332
Mof_C 	C 	0.5	0.2325	0.8156	0.111
Mof_N 	N 	0.5	0.21572	0.87829	0.047
Mof_O 	O 	-2.49452e-33	0.8195	0.0848	-0.633
Mof_C 	C 	-7.14847e-34	0.7325	0.1844	0.058
Mof_N 	N 	-2.35613e-33	0.71572	0.12171	-0.121
Mof_O 	O 	-3.4323e-33	0.3195	0.5848	-0.624
Mof_C 	C 	-3.05886e-33	0.2325	0.6844	0.057
Mof_N 	N 	2.33104e-33	0.21572	0.62171	-0.115
Mof_O 	O 	0.5	0.8195	0.5848	-0.498
Mof_C 	C 	0.5	0.7325	0.6844	0.103
Mof_N 	N 	0.5	0.71572	0.62171	-0.039
Mof_O 	O 	0.5	0.3195	0.0848	-0.532
Mof_C 	C 	0.5	0.2325	0.1844	0.086
Mof_N 	N 	0.5	0.21572	0.12171	-0.073
Mof_O 	O 	1.72419e-33	0.1805	0.0848	-0.643
Mof_C 	C 	-7.14847e-34	0.2675	0.1844	0.054
Mof_N 	N 	6.08129e-33	0.28428	0.12171	-0.126
Mof_O 	O 	2.19265e-33	0.6805	0.5848	-0.613
Mof_C 	C 	2.56609e-33	0.7675	0.6844	0.083
Mof_N 	N 	7.95599e-33	0.78428	0.62171	-0.069
Mof_O 	O 	0.5	0.1805	0.5848	-0.507
Mof_C 	C 	0.5	0.2675	0.6844	0.099
Mof_N 	N 	0.5	0.28428	0.62171	-0.044
Mof_O 	O 	0.5	0.6805	0.0848	-0.522
Mof_C 	C 	0.5	0.7675	0.1844	0.113
Mof_N 	N 	0.5	0.78428	0.12171	-0.027
Mof_O 	O 	0.1805	0.0848	-0	-0.643
Mof_C 	C 	0.2675	0.1844	-0	0.054
Mof_N 	N 	0.28428	0.12171	-0	-0.126
Mof_O 	O 	0.1805	0.5848	0.5	-0.507
Mof_C 	C 	0.2675	0.6844	0.5	0.099
Mof_N 	N 	0.28428	0.62171	0.5	-0.044
Mof_O 	O 	0.6805	0.0848	0.5	-0.522
Mof_C 	C 	0.7675	0.1844	0.5	0.113
Mof_N 	N 	0.78428	0.12171	0.5	-0.027
Mof_O 	O 	0.6805	0.5848	-0	-0.613
Mof_C 	C 	0.7675	0.6844	-0	0.083
Mof_N 	N 	0.78428	0.62171	-0	-0.069
Mof_O 	O 	0.8195	0.0848	-0	-0.633
Mof_C 	C 	0.7325	0.1844	-0	0.058
Mof_N 	N 	0.71572	0.12171	-0	-0.121
Mof_O 	O 	0.8195	0.5848	0.5	-0.498
Mof_C 	C 	0.7325	0.6844	0.5	0.103
Mof_N 	N 	0.71572	0.62171	0.5	-0.039
Mof_O 	O 	0.3195	0.0848	0.5	-0.532
Mof_C 	C 	0.2325	0.1844	0.5	0.086
Mof_N 	N 	0.21572	0.12171	0.5	-0.073
Mof_O 	O 	0.3195	0.5848	-0	-0.624
Mof_C 	C 	0.2325	0.6844	-0	0.057
Mof_N 	N 	0.21572	0.62171	-0	-0.115
Mof_O 	O 	0.8195	0.9152	-0	-0.437
Mof_C 	C 	0.7325	0.8156	-0	0.082
Mof_N 	N 	0.71572	0.87829	-0	-0.003
Mof_O 	O 	0.8195	0.4152	0.5	-0.5
Mof_C 	C 	0.7325	0.3156	0.5	0.093
Mof_N 	N 	0.71572	0.37829	0.5	-0.04
Mof_O 	O 	0.3195	0.9152	0.5	-0.332
Mof_C 	C 	0.2325	0.8156	0.5	0.111
Mof_N 	N 	0.21572	0.87829	0.5	0.047
Mof_O 	O 	0.3195	0.4152	-0	-0.625
Mof_C 	C 	0.2325	0.3156	-0	0.048
Mof_N 	N 	0.21572	0.37829	-0	-0.117
Mof_O 	O 	0.1805	0.9152	-0	-0.443
Mof_C 	C 	0.2675	0.8156	-0	0.079
Mof_N 	N 	0.28428	0.87829	-0	-0.007
Mof_O 	O 	0.1805	0.4152	0.5	-0.508
Mof_C 	C 	0.2675	0.3156	0.5	0.089
Mof_N 	N 	0.28428	0.37829	0.5	-0.046
Mof_O 	O 	0.6805	0.9152	0.5	-0.324
Mof_C 	C 	0.7675	0.8156	0.5	0.137
Mof_N 	N 	0.78428	0.87829	0.5	0.091
Mof_O 	O 	0.6805	0.4152	-0	-0.615
Mof_C 	C 	0.7675	0.3156	-0	0.074
Mof_N 	N 	0.78428	0.37829	-0	-0.071
Mof_O 	O 	0.0848	0	0.8195	-0.633
Mof_C 	C 	0.1844	5.62495e-33	0.7325	0.058
Mof_N 	N 	0.12171	0	0.71572	-0.121
Mof_O 	O 	0.0848	0.5	0.3195	-0.532
Mof_C 	C 	0.1844	0.5	0.2325	0.086
Mof_N 	N 	0.12171	0.5	0.21572	-0.073
Mof_O 	O 	0.5848	0	0.3195	-0.624
Mof_C 	C 	0.6844	0	0.2325	0.057
Mof_N 	N 	0.62171	0	0.21572	-0.115
Mof_O 	O 	0.5848	0.5	0.8195	-0.498
Mof_C 	C 	0.6844	0.5	0.7325	0.103
Mof_N 	N 	0.62171	0.5	0.71572	-0.039
Mof_O 	O 	0.0848	0	0.1805	-0.643
Mof_C 	C 	0.1844	-2.81247e-33	0.2675	0.054
Mof_N 	N 	0.12171	0	0.28428	-0.126
Mof_O 	O 	0.0848	0.5	0.6805	-0.522
Mof_C 	C 	0.1844	0.5	0.7675	0.113
Mof_N 	N 	0.12171	0.5	0.78428	-0.027
Mof_O 	O 	0.5848	0	0.6805	-0.613
Mof_C 	C 	0.6844	0	0.7675	0.083
Mof_N 	N 	0.62171	0	0.78428	-0.069
Mof_O 	O 	0.5848	0.5	0.1805	-0.507
Mof_C 	C 	0.6844	0.5	0.2675	0.099
Mof_N 	N 	0.62171	0.5	0.28428	-0.044
Mof_O 	O 	0.9152	0	0.1805	-0.443
Mof_C 	C 	0.8156	-2.81247e-33	0.2675	0.079
Mof_N 	N 	0.87829	0	0.28428	-0.007
Mof_O 	O 	0.9152	0.5	0.6805	-0.324
Mof_C 	C 	0.8156	0.5	0.7675	0.137
Mof_N 	N 	0.87829	0.5	0.78428	0.091
Mof_O 	O 	0.4152	0	0.6805	-0.615
Mof_C 	C 	0.3156	0	0.7675	0.074
Mof_N 	N 	0.37829	0	0.78428	-0.071
Mof_O 	O 	0.4152	0.5	0.1805	-0.508
Mof_C 	C 	0.3156	0.5	0.2675	0.089
Mof_N 	N 	0.37829	0.5	0.28428	-0.046
Mof_O 	O 	0.9152	0	0.8195	-0.437
Mof_C 	C 	0.8156	5.62495e-33	0.7325	0.082
Mof_N 	N 	0.87829	0	0.71572	-0.003
Mof_O 	O 	0.9152	0.5	0.3195	-0.332
Mof_C 	C 	0.8156	0.5	0.2325	0.111
Mof_N 	N 	0.87829	0.5	0.21572	0.047
Mof_O 	O 	0.4152	0	0.3195	-0.625
Mof_C 	C 	0.3156	0	0.2325	0.048
Mof_N 	N 	0.37829	0	0.21572	-0.117
Mof_O 	O 	0.4152	0.5	0.8195	-0.5
Mof_C 	C 	0.3156	0.5	0.7325	0.093
Mof_N 	N 	0.37829	0.5	0.71572	-0.04
Mof_O 	O 	0.0628	0.0628	0.0628	-1.435
Mof_O 	O 	0.0628	0.5628	0.5628	-1.304
Mof_O 	O 	0.5628	0.0628	0.5628	-1.304
Mof_O 	O 	0.5628	0.5628	0.0628	-1.304
Mof_O 	O 	0.9372	0.9372	0.0628	-0.961
Mof_O 	O 	0.9372	0.4372	0.5628	-1.064
Mof_O 	O 	0.4372	0.9372	0.5628	-1.064
Mof_O 	O 	0.4372	0.4372	0.0628	-1.306
Mof_O 	O 	0.9372	0.0628	0.9372	-0.961
Mof_O 	O 	0.9372	0.5628	0.4372	-1.064
Mof_O 	O 	0.4372	0.0628	0.4372	-1.306
Mof_O 	O 	0.4372	0.5628	0.9372	-1.064
Mof_O 	O 	0.0628	0.9372	0.9372	-0.961
Mof_O 	O 	0.0628	0.4372	0.4372	-1.306
Mof_O 	O 	0.5628	0.9372	0.4372	-1.064
Mof_O 	O 	0.5628	0.4372	0.9372	-1.064
Mof_O 	O 	0.0628	0.0628	0.9372	-1.193
Mof_O 	O 	0.0628	0.5628	0.4372	-1.305
Mof_O 	O 	0.5628	0.0628	0.4372	-1.305
Mof_O 	O 	0.5628	0.5628	0.9372	-1.064
Mof_O 	O 	0.9372	0.9372	0.9372	-0.738
Mof_O 	O 	0.9372	0.4372	0.4372	-1.065
Mof_O 	O 	0.4372	0.9372	0.4372	-1.065
Mof_O 	O 	0.4372	0.4372	0.9372	-1.065
Mof_O 	O 	0.0628	0.9372	0.0628	-1.193
Mof_O 	O 	0.0628	0.4372	0.5628	-1.305
Mof_O 	O 	0.5628	0.9372	0.5628	-1.064
Mof_O 	O 	0.5628	0.4372	0.0628	-1.305
Mof_O 	O 	0.9372	0.0628	0.0628	-1.193
Mof_O 	O 	0.9372	0.5628	0.5628	-1.064
Mof_O 	O 	0.4372	0.0628	0.5628	-1.305
Mof_O 	O 	0.4372	0.5628	0.0628	-1.305
Mof_C 	C 	0.1536	0	0.1536	0.183
Mof_C 	C 	0.205	1.40624e-33	0.205	-0.082
Mof_C 	C 	0.1536	0.5	0.6536	0.238
Mof_C 	C 	0.205	0.5	0.705	-0.054
Mof_C 	C 	0.6536	0	0.6536	0.181
Mof_C 	C 	0.705	0	0.705	-0.072
Mof_C 	C 	0.6536	0.5	0.1536	0.238
Mof_C 	C 	0.705	0.5	0.205	-0.054
Mof_C 	C 	0.8464	0	0.1536	0.195
Mof_C 	C 	0.795	1.40624e-33	0.205	-0.056
Mof_C 	C 	0.8464	0.5	0.6536	0.249
Mof_C 	C 	0.795	0.5	0.705	-0.029
Mof_C 	C 	0.3464	0	0.6536	0.176
Mof_C 	C 	0.295	0	0.705	-0.074
Mof_C 	C 	0.3464	0.5	0.1536	0.233
Mof_C 	C 	0.295	0.5	0.205	-0.056
Mof_C 	C 	0.8464	0	0.8464	0.206
Mof_C 	C 	0.795	5.62495e-33	0.795	-0.032
Mof_C 	C 	0.8464	0.5	0.3464	0.244
Mof_C 	C 	0.795	0.5	0.295	-0.03
Mof_C 	C 	0.3464	-2.81247e-33	0.3464	0.17
Mof_C 	C 	0.295	0	0.295	-0.076
Mof_C 	C 	0.3464	0.5	0.8464	0.244
Mof_C 	C 	0.295	0.5	0.795	-0.03
Mof_C 	C 	0.1536	0	0.8464	0.195
Mof_C 	C 	0.205	5.62495e-33	0.795	-0.056
Mof_C 	C 	0.1536	0.5	0.3464	0.233
Mof_C 	C 	0.205	0.5	0.295	-0.056
Mof_C 	C 	0.6536	-2.81247e-33	0.3464	0.176
Mof_C 	C 	0.705	0	0.295	-0.074
Mof_C 	C 	0.6536	0.5	0.8464	0.249
Mof_C 	C 	0.705	0.5	0.795	-0.029
Mof_C 	C 	0.1536	0.1536	-0	0.183
Mof_C 	C 	0.205	0.205	-0	-0.082
Mof_C 	C 	0.1536	0.6536	0.5	0.238
Mof_C 	C 	0.205	0.705	0.5	-0.054
Mof_C 	C 	0.6536	0.1536	0.5	0.238
Mof_C 	C 	0.705	0.205	0.5	-0.054
Mof_C 	C 	0.6536	0.6536	-0	0.181
Mof_C 	C 	0.705	0.705	-0	-0.072
Mof_C 	C 	0.1536	0.8464	-0	0.195
Mof_C 	C 	0.205	0.795	-0	-0.056
Mof_C 	C 	0.1536	0.3464	0.5	0.233
Mof_C 	C 	0.205	0.295	0.5	-0.056
Mof_C 	C 	0.6536	0.8464	0.5	0.249
Mof_C 	C 	0.705	0.795	0.5	-0.029
Mof_C 	C 	0.6536	0.3464	-0	0.176
Mof_C 	C 	0.705	0.295	-0	-0.074
Mof_C 	C 	0.8464	0.8464	-0	0.206
Mof_C 	C 	0.795	0.795	-0	-0.032
Mof_C 	C 	0.8464	0.3464	0.5	0.244
Mof_C 	C 	0.795	0.295	0.5	-0.03
Mof_C 	C 	0.3464	0.8464	0.5	0.244
Mof_C 	C 	0.295	0.795	0.5	-0.03
Mof_C 	C 	0.3464	0.3464	-0	0.17
Mof_C 	C 	0.295	0.295	-0	-0.076
Mof_C 	C 	0.8464	0.1536	-0	0.195
Mof_C 	C 	0.795	0.205	-0	-0.056
Mof_C 	C 	0.8464	0.6536	0.5	0.249
Mof_C 	C 	0.795	0.705	0.5	-0.029
Mof_C 	C 	0.3464	0.1536	0.5	0.233
Mof_C 	C 	0.295	0.205	0.5	-0.056
Mof_C 	C 	0.3464	0.6536	-0	0.176
Mof_C 	C 	0.295	0.705	-0	-0.074
Mof_C 	C 	5.75908e-34	0.1536	0.1536	0.183
Mof_C 	C 	7.68627e-34	0.205	0.205	-0.082
Mof_C 	C 	2.45061e-33	0.6536	0.6536	0.181
Mof_C 	C 	-1.42315e-32	0.705	0.705	-0.072
Mof_C 	C 	0.5	0.1536	0.6536	0.238
Mof_C 	C 	0.5	0.205	0.705	-0.054
Mof_C 	C 	0.5	0.6536	0.1536	0.238
Mof_C 	C 	0.5	0.705	0.205	-0.054
Mof_C 	C 	3.17349e-33	0.1536	0.8464	0.195
Mof_C 	C 	2.98077e-33	0.205	0.795	-0.056
Mof_C 	C 	-1.51368e-33	0.6536	0.3464	0.176
Mof_C 	C 	1.10607e-33	0.705	0.295	-0.074
Mof_C 	C 	0.5	0.1536	0.3464	0.233
Mof_C 	C 	0.5	0.205	0.295	-0.056
Mof_C 	C 	0.5	0.6536	0.8464	0.249
Mof_C 	C 	0.5	0.705	0.795	-0.029
Mof_C 	C 	2.56733e-32	0.8464	0.8464	0.206
Mof_C 	C 	2.54806e-32	0.795	0.795	-0.032
Mof_C 	C 	-4.32615e-33	0.3464	0.3464	0.17
Mof_C 	C 	1.10607e-33	0.295	0.295	-0.076
Mof_C 	C 	0.5	0.8464	0.3464	0.244
Mof_C 	C 	0.5	0.795	0.295	-0.03
Mof_C 	C 	0.5	0.3464	0.8464	0.244
Mof_C 	C 	0.5	0.295	0.795	-0.03
Mof_C 	C 	5.75908e-34	0.8464	0.1536	0.195
Mof_C 	C 	7.68627e-34	0.795	0.205	-0.056
Mof_C 	C 	-3.17434e-33	0.3464	0.6536	0.176
Mof_C 	C 	2.64333e-33	0.295	0.705	-0.074
Mof_C 	C 	0.5	0.8464	0.6536	0.249
Mof_C 	C 	0.5	0.795	0.705	-0.029
Mof_C 	C 	0.5	0.3464	0.1536	0.233
Mof_C 	C 	0.5	0.295	0.205	-0.056
_end
