# CIF file generated by openbabel 3.1.0, see https://openbabel.org
data_I
_chemical_name_common 'image0'
_cell_length_a 25.8784
_cell_length_b 25.8784
_cell_length_c 6.9669
_cell_angle_alpha 90
_cell_angle_beta 90
_cell_angle_gamma 120
_space_group_name_H-M_alt 'P 1'
_space_group_name_Hall 'P 1'
loop_
    _symmetry_equiv_pos_as_xyz
    x,y,z
loop_
    _atom_site_label
    _atom_site_type_symbol
    _atom_site_fract_x
    _atom_site_fract_y
    _atom_site_fract_z
    _atom_site_occupancy
    Fe1      Fe       0.38770    0.35230    0.14500    1.000
    O1       O        0.31830    0.29390    0.34880    1.000
    O2       O        0.30440    0.22750    0.59520    1.000
    O3       O        0.35580    0.27480    0.00630    1.000
    C1       C        0.31670    0.24710    0.41930    1.000
    C2       C        0.32540    0.20550    0.28360    1.000
    C3       C        0.34310    0.22480    0.09540    1.000
    C4       C        0.31710    0.15200    0.34930    1.000
    H1       H        0.30210    0.13860    0.50200    1.000
    Fe2      Fe       0.05437    0.68563    0.47833    1.000
    O4       O        0.98497    0.62723    0.68213    1.000
    O5       O        0.97107    0.56083    0.92853    1.000
    O6       O        0.02247    0.60813    0.33963    1.000
    C5       C        0.98337    0.58043    0.75263    1.000
    C6       C        0.99207    0.53883    0.61693    1.000
    C7       C        0.00977    0.55813    0.42873    1.000
    C8       C        0.98377    0.48533    0.68263    1.000
    H2       H        0.96877    0.47193    0.83533    1.000
    Fe3      Fe       0.72103    0.01897    0.81167    1.000
    O7       O        0.65163    0.96057    0.01547    1.000
    O8       O        0.63773    0.89417    0.26187    1.000
    O9       O        0.68913    0.94147    0.67297    1.000
    C9       C        0.65003    0.91377    0.08597    1.000
    C10      C        0.65873    0.87217    0.95027    1.000
    C11      C        0.67643    0.89147    0.76207    1.000
    C12      C        0.65043    0.81867    0.01597    1.000
    H3       H        0.63543    0.80527    0.16867    1.000
    Fe4      Fe       0.64770    0.03540    0.14500    1.000
    O10      O        0.70610    0.02440    0.34880    1.000
    O11      O        0.77250    0.07690    0.59520    1.000
    O12      O        0.72520    0.08100    0.00630    1.000
    C13      C        0.75290    0.06960    0.41930    1.000
    C14      C        0.79450    0.11990    0.28360    1.000
    C15      C        0.77520    0.11830    0.09540    1.000
    C16      C        0.84800    0.16510    0.34930    1.000
    H4       H        0.86140    0.16350    0.50200    1.000
    Fe5      Fe       0.31437    0.36873    0.47833    1.000
    O13      O        0.37277    0.35773    0.68213    1.000
    O14      O        0.43917    0.41023    0.92853    1.000
    O15      O        0.39187    0.41433    0.33963    1.000
    C17      C        0.41957    0.40293    0.75263    1.000
    C18      C        0.46117    0.45323    0.61693    1.000
    C19      C        0.44187    0.45163    0.42873    1.000
    C20      C        0.51467    0.49843    0.68263    1.000
    H5       H        0.52807    0.49683    0.83533    1.000
    Fe6      Fe       0.98103    0.70207    0.81167    1.000
    O16      O        0.03943    0.69107    0.01547    1.000
    O17      O        0.10583    0.74357    0.26187    1.000
    O18      O        0.05853    0.74767    0.67297    1.000
    C21      C        0.08623    0.73627    0.08597    1.000
    C22      C        0.12783    0.78657    0.95027    1.000
    C23      C        0.10853    0.78497    0.76207    1.000
    C24      C        0.18133    0.83177    0.01597    1.000
    H6       H        0.19473    0.83017    0.16867    1.000
    Fe7      Fe       0.96460    0.61230    0.14500    1.000
    O19      O        0.97560    0.68170    0.34880    1.000
    O20      O        0.92310    0.69560    0.59520    1.000
    O21      O        0.91900    0.64420    0.00630    1.000
    C25      C        0.93040    0.68330    0.41930    1.000
    C26      C        0.88010    0.67460    0.28360    1.000
    C27      C        0.88170    0.65690    0.09540    1.000
    C28      C        0.83490    0.68290    0.34930    1.000
    H7       H        0.83650    0.69790    0.50200    1.000
    Fe8      Fe       0.63127    0.94563    0.47833    1.000
    O22      O        0.64227    0.01503    0.68213    1.000
    O23      O        0.58977    0.02893    0.92853    1.000
    O24      O        0.58567    0.97753    0.33963    1.000
    C29      C        0.59707    0.01663    0.75263    1.000
    C30      C        0.54677    0.00793    0.61693    1.000
    C31      C        0.54837    0.99023    0.42873    1.000
    C32      C        0.50157    0.01623    0.68263    1.000
    H8       H        0.50317    0.03123    0.83533    1.000
    Fe9      Fe       0.29793    0.27897    0.81167    1.000
    O25      O        0.30893    0.34837    0.01547    1.000
    O26      O        0.25643    0.36227    0.26187    1.000
    O27      O        0.25233    0.31087    0.67297    1.000
    C33      C        0.26373    0.34997    0.08597    1.000
    C34      C        0.21343    0.34127    0.95027    1.000
    C35      C        0.21503    0.32357    0.76207    1.000
    C36      C        0.16823    0.34957    0.01597    1.000
    H9       H        0.16983    0.36457    0.16867    1.000
    Fe10     Fe       0.61230    0.64770    0.85500    1.000
    O28      O        0.68170    0.70610    0.65120    1.000
    O29      O        0.69560    0.77250    0.40480    1.000
    O30      O        0.64420    0.72520    0.99370    1.000
    C37      C        0.68330    0.75290    0.58070    1.000
    C38      C        0.67460    0.79450    0.71640    1.000
    C39      C        0.65690    0.77520    0.90460    1.000
    C40      C        0.68290    0.84800    0.65070    1.000
    H10      H        0.69790    0.86140    0.49800    1.000
    Fe11     Fe       0.27897    0.98103    0.18833    1.000
    O31      O        0.34837    0.03943    0.98453    1.000
    O32      O        0.36227    0.10583    0.73813    1.000
    O33      O        0.31087    0.05853    0.32703    1.000
    C41      C        0.34997    0.08623    0.91403    1.000
    C42      C        0.34127    0.12783    0.04973    1.000
    C43      C        0.32357    0.10853    0.23793    1.000
    C44      C        0.34957    0.18133    0.98403    1.000
    H11      H        0.36457    0.19473    0.83133    1.000
    Fe12     Fe       0.94563    0.31437    0.52167    1.000
    O34      O        0.01503    0.37277    0.31787    1.000
    O35      O        0.02893    0.43917    0.07147    1.000
    O36      O        0.97753    0.39187    0.66037    1.000
    C45      C        0.01663    0.41957    0.24737    1.000
    C46      C        0.00793    0.46117    0.38307    1.000
    C47      C        0.99023    0.44187    0.57127    1.000
    C48      C        0.01623    0.51467    0.31737    1.000
    H12      H        0.03123    0.52807    0.16467    1.000
    Fe13     Fe       0.35230    0.96460    0.85500    1.000
    O37      O        0.29390    0.97560    0.65120    1.000
    O38      O        0.22750    0.92310    0.40480    1.000
    O39      O        0.27480    0.91900    0.99370    1.000
    C49      C        0.24710    0.93040    0.58070    1.000
    C50      C        0.20550    0.88010    0.71640    1.000
    C51      C        0.22480    0.88170    0.90460    1.000
    C52      C        0.15200    0.83490    0.65070    1.000
    H13      H        0.13860    0.83650    0.49800    1.000
    Fe14     Fe       0.01897    0.29793    0.18833    1.000
    O40      O        0.96057    0.30893    0.98453    1.000
    O41      O        0.89417    0.25643    0.73813    1.000
    O42      O        0.94147    0.25233    0.32703    1.000
    C53      C        0.91377    0.26373    0.91403    1.000
    C54      C        0.87217    0.21343    0.04973    1.000
    C55      C        0.89147    0.21503    0.23793    1.000
    C56      C        0.81867    0.16823    0.98403    1.000
    H14      H        0.80527    0.16983    0.83133    1.000
    Fe15     Fe       0.68563    0.63127    0.52167    1.000
    O43      O        0.62723    0.64227    0.31787    1.000
    O44      O        0.56083    0.58977    0.07147    1.000
    O45      O        0.60813    0.58567    0.66037    1.000
    C57      C        0.58043    0.59707    0.24737    1.000
    C58      C        0.53883    0.54677    0.38307    1.000
    C59      C        0.55813    0.54837    0.57127    1.000
    C60      C        0.48533    0.50157    0.31737    1.000
    H15      H        0.47193    0.50317    0.16467    1.000
    Fe16     Fe       0.03540    0.38770    0.85500    1.000
    O46      O        0.02440    0.31830    0.65120    1.000
    O47      O        0.07690    0.30440    0.40480    1.000
    O48      O        0.08100    0.35580    0.99370    1.000
    C61      C        0.06960    0.31670    0.58070    1.000
    C62      C        0.11990    0.32540    0.71640    1.000
    C63      C        0.11830    0.34310    0.90460    1.000
    C64      C        0.16510    0.31710    0.65070    1.000
    H16      H        0.16350    0.30210    0.49800    1.000
    Fe17     Fe       0.70207    0.72103    0.18833    1.000
    O49      O        0.69107    0.65163    0.98453    1.000
    O50      O        0.74357    0.63773    0.73813    1.000
    O51      O        0.74767    0.68913    0.32703    1.000
    C65      C        0.73627    0.65003    0.91403    1.000
    C66      C        0.78657    0.65873    0.04973    1.000
    C67      C        0.78497    0.67643    0.23793    1.000
    C68      C        0.83177    0.65043    0.98403    1.000
    H17      H        0.83017    0.63543    0.83133    1.000
    Fe18     Fe       0.36873    0.05437    0.52167    1.000
    O52      O        0.35773    0.98497    0.31787    1.000
    O53      O        0.41023    0.97107    0.07147    1.000
    O54      O        0.41433    0.02247    0.66037    1.000
    C69      C        0.40293    0.98337    0.24737    1.000
    C70      C        0.45323    0.99207    0.38307    1.000
    C71      C        0.45163    0.00977    0.57127    1.000
    C72      C        0.49843    0.98377    0.31737    1.000
    H18      H        0.49683    0.96877    0.16467    1.000
