data_functionalizedCrystal
_audit_creation_method	'EQeq! by Chris Wilmer'
_symmetry_space_group_name_H-M	'P1'
_symmetry_Int_Tables_number	1
_symmetry_cell_setting	triclinic
loop_
_symmetry_equiv_pos_as_xyz
  x,y,z
_cell_length_a	12.6272
_cell_length_b	26.847
_cell_length_c	33.438
_cell_angle_alpha	90
_cell_angle_beta	90
_cell_angle_gamma	90
loop_
_atom_site_label
_atom_site_type_symbol
_atom_site_fract_x
_atom_site_fract_y
_atom_site_fract_z
_atom_site_charge
Mof_Co	Co	0.02532	0.56766	0.38702	1.173
Mof_Co	Co	0.47468	0.06766	0.61298	1.173
Mof_Co	Co	0.52532	0.06766	0.11298	1.173
Mof_Co	Co	0.97468	0.56766	0.88702	1.173
Mof_Ag	Ag	0.23699	0.21942	0.35866	0.891
Mof_Ag	Ag	0.26301	0.71942	0.64134	0.892
Mof_Ag	Ag	0.73699	0.71942	0.14134	0.892
Mof_Ag	Ag	0.76301	0.21942	0.85866	0.891
Mof_H 	H 	0.796	0.5418	0.3567	0.02
Mof_H 	H 	0.7365	0.4576	0.3341	0.075
Mof_H 	H 	0.8915	0.4001	0.3412	0.065
Mof_H 	H 	0.2854	0.4259	0.4018	0.154
Mof_H 	H 	0.3795	0.5004	0.4285	0.071
Mof_H 	H 	0.2533	0.5724	0.4245	0.025
Mof_H 	H 	0.2005	0.404	0.3203	0.121
Mof_H 	H 	0.2431	0.321	0.311	0.012
Mof_H 	H 	0.0531	0.2806	0.3975	0.031
Mof_H 	H 	0.0039	0.362	0.4094	0.098
Mof_H 	H 	0.6362	0.0072	0.562	0.015
Mof_H 	H 	0.6635	0.0158	0.488	0.054
Mof_H 	H 	0.533	0.0791	0.464	0.069
Mof_H 	H 	0.2749	0.2055	0.544	0.079
Mof_H 	H 	0.246	0.22	0.6175	0.046
Mof_H 	H 	0.3453	0.1519	0.6536	0.017
Mof_H 	H 	0.2961	0.0847	0.468	0.101
Mof_H 	H 	0.231	0.1208	0.4101	0.043
Mof_H 	H 	0.3735	0.247	0.4347	0.052
Mof_H 	H 	0.4441	0.2145	0.4932	0.106
Mof_H 	H 	0.7209	0.0346	0.1655	0.028
Mof_H 	H 	0.7352	0.047	0.2397	0.055
Mof_H 	H 	0.5681	0.0881	0.2619	0.07
Mof_H 	H 	0.25	0.1766	0.1779	0.072
Mof_H 	H 	0.2075	0.178	0.1059	0.049
Mof_H 	H 	0.3471	0.1273	0.0705	0.02
Mof_H 	H 	0.2517	0.0962	0.2371	0.099
Mof_H 	H 	0.1838	0.1343	0.2943	0.046
Mof_H 	H 	0.4346	0.219	0.305	0.023
Mof_H 	H 	0.5101	0.1837	0.2476	0.095
Mof_H 	H 	0.704	0.0418	0.6433	0.019
Mof_H 	H 	0.7635	0.9576	0.6659	0.074
Mof_H 	H 	0.6085	0.9001	0.6588	0.064
Mof_H 	H 	0.2146	0.9259	0.5982	0.153
Mof_H 	H 	0.1205	0.0004	0.5715	0.07
Mof_H 	H 	0.2467	0.0724	0.5755	0.024
Mof_H 	H 	0.2995	0.904	0.6797	0.121
Mof_H 	H 	0.2569	0.821	0.689	0.013
Mof_H 	H 	0.4469	0.7806	0.6025	0.031
Mof_H 	H 	0.4961	0.862	0.5906	0.098
Mof_H 	H 	0.8638	0.5072	0.438	0.015
Mof_H 	H 	0.8365	0.5158	0.512	0.054
Mof_H 	H 	0.967	0.5791	0.536	0.069
Mof_H 	H 	0.2251	0.7055	0.456	0.079
Mof_H 	H 	0.254	0.72	0.3825	0.046
Mof_H 	H 	0.1547	0.6519	0.3464	0.017
Mof_H 	H 	0.2039	0.5847	0.532	0.101
Mof_H 	H 	0.269	0.6208	0.5899	0.043
Mof_H 	H 	0.1265	0.747	0.5653	0.052
Mof_H 	H 	0.0559	0.7145	0.5068	0.106
Mof_H 	H 	0.7791	0.5346	0.8345	0.028
Mof_H 	H 	0.7648	0.547	0.7603	0.055
Mof_H 	H 	0.9319	0.5881	0.7381	0.069
Mof_H 	H 	0.25	0.6766	0.8221	0.072
Mof_H 	H 	0.2925	0.678	0.8941	0.049
Mof_H 	H 	0.1529	0.6273	0.9295	0.02
Mof_H 	H 	0.2483	0.5962	0.7629	0.099
Mof_H 	H 	0.3162	0.6343	0.7057	0.046
Mof_H 	H 	0.0654	0.719	0.695	0.024
Mof_H 	H 	0.9899	0.6837	0.7524	0.092
Mof_H 	H 	0.296	0.0418	0.1433	0.019
Mof_H 	H 	0.2365	0.9576	0.1659	0.074
Mof_H 	H 	0.3915	0.9001	0.1588	0.064
Mof_H 	H 	0.7854	0.9259	0.0982	0.153
Mof_H 	H 	0.8795	0.0004	0.0715	0.07
Mof_H 	H 	0.7533	0.0724	0.0755	0.024
Mof_H 	H 	0.7005	0.904	0.1797	0.121
Mof_H 	H 	0.7431	0.821	0.189	0.013
Mof_H 	H 	0.5531	0.7806	0.1025	0.031
Mof_H 	H 	0.5039	0.862	0.0906	0.098
Mof_H 	H 	0.1362	0.5072	0.938	0.015
Mof_H 	H 	0.1635	0.5158	0.012	0.053
Mof_H 	H 	0.033	0.5791	0.036	0.069
Mof_H 	H 	0.7749	0.7055	0.956	0.079
Mof_H 	H 	0.746	0.72	0.8825	0.046
Mof_H 	H 	0.8453	0.6519	0.8464	0.017
Mof_H 	H 	0.7961	0.5847	0.032	0.101
Mof_H 	H 	0.731	0.6208	0.0899	0.043
Mof_H 	H 	0.8735	0.747	0.0653	0.052
Mof_H 	H 	0.9441	0.7145	0.0068	0.106
Mof_H 	H 	0.2209	0.5346	0.3345	0.028
Mof_H 	H 	0.2352	0.547	0.2603	0.055
Mof_H 	H 	0.0681	0.5881	0.2381	0.069
Mof_H 	H 	0.75	0.6766	0.3221	0.072
Mof_H 	H 	0.7075	0.678	0.3941	0.049
Mof_H 	H 	0.8471	0.6273	0.4295	0.02
Mof_H 	H 	0.7517	0.5962	0.2629	0.099
Mof_H 	H 	0.6838	0.6343	0.2057	0.046
Mof_H 	H 	0.9346	0.719	0.195	0.024
Mof_H 	H 	0.0101	0.6837	0.2524	0.092
Mof_H 	H 	0.204	0.5418	0.8567	0.019
Mof_H 	H 	0.2635	0.4576	0.8341	0.074
Mof_H 	H 	0.1085	0.4001	0.8412	0.064
Mof_H 	H 	0.7146	0.4259	0.9018	0.153
Mof_H 	H 	0.6205	0.5004	0.9285	0.07
Mof_H 	H 	0.7467	0.5724	0.9245	0.024
Mof_H 	H 	0.7995	0.404	0.8203	0.121
Mof_H 	H 	0.7569	0.321	0.811	0.012
Mof_H 	H 	0.9469	0.2806	0.8975	0.031
Mof_H 	H 	0.9961	0.362	0.9094	0.098
Mof_H 	H 	0.3638	0.0072	0.062	0.015
Mof_H 	H 	0.3365	0.0158	0.988	0.054
Mof_H 	H 	0.467	0.0791	0.964	0.069
Mof_H 	H 	0.7251	0.2055	0.044	0.079
Mof_H 	H 	0.754	0.22	0.1175	0.046
Mof_H 	H 	0.6547	0.1519	0.1536	0.017
Mof_H 	H 	0.7039	0.0847	0.968	0.101
Mof_H 	H 	0.769	0.1208	0.9101	0.043
Mof_H 	H 	0.6265	0.247	0.9347	0.052
Mof_H 	H 	0.5559	0.2145	0.9932	0.106
Mof_H 	H 	0.2791	0.0346	0.6655	0.028
Mof_H 	H 	0.2648	0.047	0.7397	0.055
Mof_H 	H 	0.4319	0.0881	0.7619	0.07
Mof_H 	H 	0.75	0.1766	0.6779	0.072
Mof_H 	H 	0.7925	0.178	0.6059	0.049
Mof_H 	H 	0.6529	0.1273	0.5705	0.02
Mof_H 	H 	0.7483	0.0962	0.7371	0.099
Mof_H 	H 	0.8162	0.1343	0.7943	0.046
Mof_H 	H 	0.5654	0.219	0.805	0.023
Mof_H 	H 	0.4899	0.1837	0.7476	0.095
Mof_C 	C 	0.8389	0.51276	0.35691	0.039
Mof_C 	C 	0.8048	0.46593	0.34389	-0.044
Mof_C 	C 	0.8895	0.43445	0.34807	-0.091
Mof_C 	C 	0.9738	0.46282	0.36463	0.115
Mof_C 	C 	0.0744	0.44596	0.37531	-0.163
Mof_C 	C 	0.1532	0.47476	0.39252	0.132
Mof_C 	C 	0.2577	0.45867	0.40398	-0.115
Mof_C 	C 	0.309	0.49933	0.41859	-0.004
Mof_C 	C 	0.2375	0.53939	0.41618	0.021
Mof_C 	C 	0.0993	0.39268	0.36702	0.161
Mof_C 	C 	0.1699	0.37927	0.33704	-0.174
Mof_C 	C 	0.1953	0.32964	0.33186	0.151
Mof_C 	C 	0.085	0.30616	0.38205	0.124
Mof_C 	C 	0.0547	0.35476	0.38932	-0.186
Mof_C 	C 	0.598	0.0294	0.54524	0.038
Mof_C 	C 	0.6137	0.03357	0.50379	-0.038
Mof_C 	C 	0.5426	0.06837	0.49085	-0.094
Mof_C 	C 	0.4853	0.08564	0.52479	0.116
Mof_C 	C 	0.4138	0.12392	0.52652	-0.153
Mof_C 	C 	0.372	0.14479	0.56112	0.119
Mof_C 	C 	0.3039	0.18638	0.56522	-0.103
Mof_C 	C 	0.2869	0.19427	0.60558	-0.034
Mof_C 	C 	0.3433	0.15605	0.62534	0.031
Mof_C 	C 	0.3755	0.14623	0.48786	0.141
Mof_C 	C 	0.3128	0.11839	0.46188	-0.172
Mof_C 	C 	0.275	0.14002	0.42725	0.114
Mof_C 	C 	0.3582	0.21342	0.44162	0.092
Mof_C 	C 	0.3997	0.19453	0.47683	-0.169
Mof_C 	C 	0.6692	0.05054	0.18166	0.026
Mof_C 	C 	0.6776	0.05685	0.22319	-0.032
Mof_C 	C 	0.5867	0.07986	0.23522	-0.102
Mof_C 	C 	0.5243	0.08944	0.20013	0.121
Mof_C 	C 	0.4324	0.11671	0.19761	-0.157
Mof_C 	C 	0.3784	0.12881	0.16247	0.117
Mof_C 	C 	0.2876	0.15984	0.15731	-0.102
Mof_C 	C 	0.2649	0.16102	0.11813	-0.033
Mof_C 	C 	0.343	0.13197	0.09858	0.033
Mof_C 	C 	0.387	0.13791	0.23516	0.144
Mof_C 	C 	0.2902	0.12202	0.25005	-0.174
Mof_C 	C 	0.2507	0.14476	0.28444	0.092
Mof_C 	C 	0.3963	0.19416	0.2908	0.087
Mof_C 	C 	0.442	0.17333	0.25622	-0.174
Mof_C 	C 	0.6611	0.01276	0.64309	0.039
Mof_C 	C 	0.6952	0.96593	0.65611	-0.045
Mof_C 	C 	0.6105	0.93445	0.65193	-0.091
Mof_C 	C 	0.5262	0.96282	0.63537	0.113
Mof_C 	C 	0.4256	0.94596	0.62469	-0.162
Mof_C 	C 	0.3468	0.97476	0.60748	0.131
Mof_C 	C 	0.2423	0.95867	0.59602	-0.115
Mof_C 	C 	0.191	0.99933	0.58141	-0.005
Mof_C 	C 	0.2625	0.03939	0.58382	0.022
Mof_C 	C 	0.4007	0.89268	0.63298	0.161
Mof_C 	C 	0.3301	0.87927	0.66296	-0.174
Mof_C 	C 	0.3047	0.82964	0.66814	0.151
Mof_C 	C 	0.415	0.80616	0.61795	0.124
Mof_C 	C 	0.4453	0.85476	0.61068	-0.186
Mof_C 	C 	0.902	0.5294	0.45476	0.038
Mof_C 	C 	0.8863	0.53357	0.49621	-0.038
Mof_C 	C 	0.9574	0.56837	0.50915	-0.094
Mof_C 	C 	0.0147	0.58564	0.47521	0.115
Mof_C 	C 	0.0862	0.62392	0.47348	-0.153
Mof_C 	C 	0.128	0.64479	0.43888	0.119
Mof_C 	C 	0.1961	0.68638	0.43478	-0.103
Mof_C 	C 	0.2131	0.69427	0.39442	-0.034
Mof_C 	C 	0.1567	0.65605	0.37466	0.031
Mof_C 	C 	0.1245	0.64623	0.51214	0.141
Mof_C 	C 	0.1872	0.61839	0.53812	-0.172
Mof_C 	C 	0.225	0.64002	0.57275	0.114
Mof_C 	C 	0.1418	0.71342	0.55838	0.092
Mof_C 	C 	0.1003	0.69453	0.52317	-0.169
Mof_C 	C 	0.8308	0.55054	0.81834	0.026
Mof_C 	C 	0.8224	0.55685	0.77681	-0.033
Mof_C 	C 	0.9133	0.57986	0.76478	-0.101
Mof_C 	C 	0.9757	0.58944	0.79987	0.118
Mof_C 	C 	0.0676	0.61671	0.80239	-0.154
Mof_C 	C 	0.1216	0.62881	0.83753	0.116
Mof_C 	C 	0.2124	0.65984	0.84269	-0.101
Mof_C 	C 	0.2351	0.66102	0.88187	-0.033
Mof_C 	C 	0.157	0.63197	0.90142	0.033
Mof_C 	C 	0.113	0.63791	0.76484	0.141
Mof_C 	C 	0.2098	0.62202	0.74995	-0.172
Mof_C 	C 	0.2493	0.64476	0.71556	0.091
Mof_C 	C 	0.1037	0.69416	0.7092	0.086
Mof_C 	C 	0.058	0.67333	0.74378	-0.169
Mof_C 	C 	0.3389	0.01276	0.14309	0.038
Mof_C 	C 	0.3048	0.96593	0.15611	-0.044
Mof_C 	C 	0.3895	0.93445	0.15193	-0.091
Mof_C 	C 	0.4738	0.96282	0.13537	0.114
Mof_C 	C 	0.5744	0.94596	0.12469	-0.162
Mof_C 	C 	0.6532	0.97476	0.10748	0.132
Mof_C 	C 	0.7577	0.95867	0.09602	-0.115
Mof_C 	C 	0.809	0.99933	0.08141	-0.004
Mof_C 	C 	0.7375	0.03939	0.08382	0.021
Mof_C 	C 	0.5993	0.89268	0.13298	0.161
Mof_C 	C 	0.6699	0.87927	0.16296	-0.174
Mof_C 	C 	0.6953	0.82964	0.16814	0.151
Mof_C 	C 	0.585	0.80616	0.11795	0.124
Mof_C 	C 	0.5547	0.85476	0.11068	-0.186
Mof_C 	C 	0.098	0.5294	0.95476	0.037
Mof_C 	C 	0.1137	0.53357	0.99621	-0.037
Mof_C 	C 	0.0426	0.56837	0.00915	-0.095
Mof_C 	C 	0.9853	0.58564	0.97521	0.115
Mof_C 	C 	0.9138	0.62392	0.97348	-0.153
Mof_C 	C 	0.872	0.64479	0.93888	0.119
Mof_C 	C 	0.8039	0.68638	0.93478	-0.103
Mof_C 	C 	0.7869	0.69427	0.89442	-0.034
Mof_C 	C 	0.8433	0.65605	0.87466	0.031
Mof_C 	C 	0.8755	0.64623	0.01214	0.142
Mof_C 	C 	0.8128	0.61839	0.03812	-0.172
Mof_C 	C 	0.775	0.64002	0.07275	0.114
Mof_C 	C 	0.8582	0.71342	0.05838	0.092
Mof_C 	C 	0.8997	0.69453	0.02317	-0.169
Mof_C 	C 	0.1692	0.55054	0.31834	0.026
Mof_C 	C 	0.1776	0.55685	0.27681	-0.033
Mof_C 	C 	0.0867	0.57986	0.26478	-0.101
Mof_C 	C 	0.0243	0.58944	0.29987	0.118
Mof_C 	C 	0.9324	0.61671	0.30239	-0.154
Mof_C 	C 	0.8784	0.62881	0.33753	0.116
Mof_C 	C 	0.7876	0.65984	0.34269	-0.101
Mof_C 	C 	0.7649	0.66102	0.38187	-0.033
Mof_C 	C 	0.843	0.63197	0.40142	0.033
Mof_C 	C 	0.887	0.63791	0.26484	0.141
Mof_C 	C 	0.7902	0.62202	0.24995	-0.172
Mof_C 	C 	0.7507	0.64476	0.21556	0.091
Mof_C 	C 	0.8963	0.69416	0.2092	0.086
Mof_C 	C 	0.942	0.67333	0.24378	-0.169
Mof_C 	C 	0.1611	0.51276	0.85691	0.038
Mof_C 	C 	0.1952	0.46593	0.84389	-0.044
Mof_C 	C 	0.1105	0.43445	0.84807	-0.091
Mof_C 	C 	0.0262	0.46282	0.86463	0.115
Mof_C 	C 	0.9256	0.44596	0.87531	-0.163
Mof_C 	C 	0.8468	0.47476	0.89252	0.132
Mof_C 	C 	0.7423	0.45867	0.90398	-0.115
Mof_C 	C 	0.691	0.49933	0.91859	-0.004
Mof_C 	C 	0.7625	0.53939	0.91618	0.021
Mof_C 	C 	0.9007	0.39268	0.86702	0.161
Mof_C 	C 	0.8301	0.37927	0.83704	-0.174
Mof_C 	C 	0.8047	0.32964	0.83186	0.151
Mof_C 	C 	0.915	0.30616	0.88205	0.124
Mof_C 	C 	0.9453	0.35476	0.88932	-0.186
Mof_C 	C 	0.402	0.0294	0.04524	0.038
Mof_C 	C 	0.3863	0.03357	0.00379	-0.039
Mof_C 	C 	0.4574	0.06837	0.99085	-0.093
Mof_C 	C 	0.5147	0.08564	0.02479	0.116
Mof_C 	C 	0.5862	0.12392	0.02652	-0.153
Mof_C 	C 	0.628	0.14479	0.06112	0.119
Mof_C 	C 	0.6961	0.18638	0.06522	-0.103
Mof_C 	C 	0.7131	0.19427	0.10558	-0.034
Mof_C 	C 	0.6567	0.15605	0.12534	0.031
Mof_C 	C 	0.6245	0.14623	0.98786	0.141
Mof_C 	C 	0.6872	0.11839	0.96188	-0.172
Mof_C 	C 	0.725	0.14002	0.92725	0.114
Mof_C 	C 	0.6418	0.21342	0.94162	0.092
Mof_C 	C 	0.6003	0.19453	0.97683	-0.169
Mof_C 	C 	0.3308	0.05054	0.68166	0.026
Mof_C 	C 	0.3224	0.05685	0.72319	-0.032
Mof_C 	C 	0.4133	0.07986	0.73522	-0.102
Mof_C 	C 	0.4757	0.08944	0.70013	0.121
Mof_C 	C 	0.5676	0.11671	0.69761	-0.157
Mof_C 	C 	0.6216	0.12881	0.66247	0.117
Mof_C 	C 	0.7124	0.15984	0.65731	-0.102
Mof_C 	C 	0.7351	0.16102	0.61813	-0.033
Mof_C 	C 	0.657	0.13197	0.59858	0.033
Mof_C 	C 	0.613	0.13791	0.73516	0.144
Mof_C 	C 	0.7098	0.12202	0.75005	-0.174
Mof_C 	C 	0.7493	0.14476	0.78444	0.092
Mof_C 	C 	0.6037	0.19416	0.7908	0.087
Mof_C 	C 	0.558	0.17333	0.75622	-0.174
Mof_N 	N 	0.9395	0.51165	0.36967	-0.257
Mof_N 	N 	0.1448	0.52535	0.40073	-0.257
Mof_N 	N 	0.1561	0.29311	0.35461	-0.202
Mof_N 	N 	0.5239	0.05998	0.55818	-0.257
Mof_N 	N 	0.3933	0.12644	0.5995	-0.256
Mof_N 	N 	0.2976	0.18648	0.41686	-0.194
Mof_N 	N 	0.5778	0.07019	0.16763	-0.254
Mof_N 	N 	0.4094	0.11221	0.12475	-0.258
Mof_N 	N 	0.3021	0.18043	0.30423	-0.205
Mof_N 	N 	0.5605	0.01165	0.63033	-0.257
Mof_N 	N 	0.3552	0.02535	0.59927	-0.257
Mof_N 	N 	0.3439	0.79311	0.64539	-0.202
Mof_N 	N 	0.9761	0.55998	0.44182	-0.257
Mof_N 	N 	0.1067	0.62644	0.4005	-0.256
Mof_N 	N 	0.2024	0.68648	0.58314	-0.194
Mof_N 	N 	0.9222	0.57019	0.83237	-0.254
Mof_N 	N 	0.0906	0.61221	0.87525	-0.258
Mof_N 	N 	0.1979	0.68043	0.69577	-0.204
Mof_N 	N 	0.4395	0.01165	0.13033	-0.257
Mof_N 	N 	0.6448	0.02535	0.09927	-0.257
Mof_N 	N 	0.6561	0.79311	0.14539	-0.202
Mof_N 	N 	0.0239	0.55998	0.94182	-0.256
Mof_N 	N 	0.8933	0.62644	0.9005	-0.256
Mof_N 	N 	0.7976	0.68648	0.08314	-0.194
Mof_N 	N 	0.0778	0.57019	0.33237	-0.254
Mof_N 	N 	0.9094	0.61221	0.37525	-0.258
Mof_N 	N 	0.8021	0.68043	0.19577	-0.204
Mof_N 	N 	0.0605	0.51165	0.86967	-0.257
Mof_N 	N 	0.8552	0.52535	0.90073	-0.257
Mof_N 	N 	0.8439	0.29311	0.85461	-0.202
Mof_N 	N 	0.4761	0.05998	0.05818	-0.257
Mof_N 	N 	0.6067	0.12644	0.0995	-0.256
Mof_N 	N 	0.7024	0.18648	0.91686	-0.194
Mof_N 	N 	0.4222	0.07019	0.66763	-0.254
Mof_N 	N 	0.5906	0.11221	0.62475	-0.258
Mof_N 	N 	0.6979	0.18043	0.80423	-0.205
Mof_Co	Co	0.47468	0.93234	0.88702	1.172
Mof_Co	Co	0.02532	0.43234	0.11298	1.172
Mof_Co	Co	0.97468	0.43234	0.61298	1.172
Mof_Co	Co	0.52532	0.93234	0.38702	1.172
Mof_Ag	Ag	0.26301	0.28058	0.85866	0.891
Mof_Ag	Ag	0.23699	0.78058	0.14134	0.89
Mof_Ag	Ag	0.76301	0.78058	0.64134	0.89
Mof_Ag	Ag	0.73699	0.28058	0.35866	0.891
Mof_H 	H 	0.704	0.9582	0.8567	0.019
Mof_H 	H 	0.7635	0.0424	0.8341	0.074
Mof_H 	H 	0.6085	0.0999	0.8412	0.064
Mof_H 	H 	0.2146	0.0741	0.9018	0.153
Mof_H 	H 	0.1205	0.9996	0.9285	0.07
Mof_H 	H 	0.2467	0.9276	0.9245	0.024
Mof_H 	H 	0.2995	0.096	0.8203	0.121
Mof_H 	H 	0.2569	0.179	0.811	0.013
Mof_H 	H 	0.4469	0.2194	0.8975	0.031
Mof_H 	H 	0.4961	0.138	0.9094	0.098
Mof_H 	H 	0.8638	0.4928	0.062	0.015
Mof_H 	H 	0.8365	0.4842	0.988	0.053
Mof_H 	H 	0.967	0.4209	0.964	0.069
Mof_H 	H 	0.2251	0.2945	0.044	0.079
Mof_H 	H 	0.254	0.28	0.1175	0.046
Mof_H 	H 	0.1547	0.3481	0.1536	0.017
Mof_H 	H 	0.2039	0.4153	0.968	0.101
Mof_H 	H 	0.269	0.3792	0.9101	0.043
Mof_H 	H 	0.1265	0.253	0.9347	0.052
Mof_H 	H 	0.0559	0.2855	0.9932	0.106
Mof_H 	H 	0.7791	0.4654	0.6655	0.028
Mof_H 	H 	0.7648	0.453	0.7397	0.055
Mof_H 	H 	0.9319	0.4119	0.7619	0.069
Mof_H 	H 	0.25	0.3234	0.6779	0.072
Mof_H 	H 	0.2925	0.322	0.6059	0.049
Mof_H 	H 	0.1529	0.3727	0.5705	0.02
Mof_H 	H 	0.2483	0.4038	0.7371	0.099
Mof_H 	H 	0.3162	0.3657	0.7943	0.046
Mof_H 	H 	0.0654	0.281	0.805	0.024
Mof_H 	H 	0.9899	0.3163	0.7476	0.092
Mof_H 	H 	0.796	0.4582	0.1433	0.019
Mof_H 	H 	0.7365	0.5424	0.1659	0.074
Mof_H 	H 	0.8915	0.5999	0.1588	0.064
Mof_H 	H 	0.2854	0.5741	0.0982	0.153
Mof_H 	H 	0.3795	0.4996	0.0715	0.07
Mof_H 	H 	0.2533	0.4276	0.0755	0.024
Mof_H 	H 	0.2005	0.596	0.1797	0.121
Mof_H 	H 	0.2431	0.679	0.189	0.012
Mof_H 	H 	0.0531	0.7194	0.1025	0.031
Mof_H 	H 	0.0039	0.638	0.0906	0.098
Mof_H 	H 	0.6362	0.9928	0.938	0.015
Mof_H 	H 	0.6635	0.9842	0.012	0.054
Mof_H 	H 	0.533	0.9209	0.036	0.069
Mof_H 	H 	0.2749	0.7945	0.956	0.079
Mof_H 	H 	0.246	0.78	0.8825	0.046
Mof_H 	H 	0.3453	0.8481	0.8464	0.017
Mof_H 	H 	0.2961	0.9153	0.032	0.101
Mof_H 	H 	0.231	0.8792	0.0899	0.043
Mof_H 	H 	0.3735	0.753	0.0653	0.052
Mof_H 	H 	0.4441	0.7855	0.0068	0.106
Mof_H 	H 	0.7209	0.9654	0.3345	0.028
Mof_H 	H 	0.7352	0.953	0.2603	0.055
Mof_H 	H 	0.5681	0.9119	0.2381	0.07
Mof_H 	H 	0.25	0.8234	0.3221	0.072
Mof_H 	H 	0.2075	0.822	0.3941	0.049
Mof_H 	H 	0.3471	0.8727	0.4295	0.02
Mof_H 	H 	0.2517	0.9038	0.2629	0.099
Mof_H 	H 	0.1838	0.8657	0.2057	0.046
Mof_H 	H 	0.4346	0.781	0.195	0.023
Mof_H 	H 	0.5101	0.8163	0.2524	0.095
Mof_H 	H 	0.204	0.4582	0.6433	0.019
Mof_H 	H 	0.2635	0.5424	0.6659	0.074
Mof_H 	H 	0.1085	0.5999	0.6588	0.064
Mof_H 	H 	0.7146	0.5741	0.5982	0.153
Mof_H 	H 	0.6205	0.4996	0.5715	0.07
Mof_H 	H 	0.7467	0.4276	0.5755	0.024
Mof_H 	H 	0.7995	0.596	0.6797	0.121
Mof_H 	H 	0.7569	0.679	0.689	0.012
Mof_H 	H 	0.9469	0.7194	0.6025	0.031
Mof_H 	H 	0.9961	0.638	0.5906	0.098
Mof_H 	H 	0.3638	0.9928	0.438	0.015
Mof_H 	H 	0.3365	0.9842	0.512	0.054
Mof_H 	H 	0.467	0.9209	0.536	0.069
Mof_H 	H 	0.7251	0.7945	0.456	0.079
Mof_H 	H 	0.754	0.78	0.3825	0.046
Mof_H 	H 	0.6547	0.8481	0.3464	0.017
Mof_H 	H 	0.7039	0.9153	0.532	0.101
Mof_H 	H 	0.769	0.8792	0.5899	0.043
Mof_H 	H 	0.6265	0.753	0.5653	0.052
Mof_H 	H 	0.5559	0.7855	0.5068	0.106
Mof_H 	H 	0.2791	0.9654	0.8345	0.028
Mof_H 	H 	0.2648	0.953	0.7603	0.055
Mof_H 	H 	0.4319	0.9119	0.7381	0.07
Mof_H 	H 	0.75	0.8234	0.8221	0.072
Mof_H 	H 	0.7925	0.822	0.8941	0.049
Mof_H 	H 	0.6529	0.8727	0.9295	0.02
Mof_H 	H 	0.7483	0.9038	0.7629	0.099
Mof_H 	H 	0.8162	0.8657	0.7057	0.046
Mof_H 	H 	0.5654	0.781	0.695	0.023
Mof_H 	H 	0.4899	0.8163	0.7524	0.095
Mof_H 	H 	0.296	0.9582	0.3567	0.019
Mof_H 	H 	0.2365	0.0424	0.3341	0.074
Mof_H 	H 	0.3915	0.0999	0.3412	0.064
Mof_H 	H 	0.7854	0.0741	0.4018	0.153
Mof_H 	H 	0.8795	0.9996	0.4285	0.07
Mof_H 	H 	0.7533	0.9276	0.4245	0.024
Mof_H 	H 	0.7005	0.096	0.3203	0.121
Mof_H 	H 	0.7431	0.179	0.311	0.013
Mof_H 	H 	0.5531	0.2194	0.3975	0.031
Mof_H 	H 	0.5039	0.138	0.4094	0.098
Mof_H 	H 	0.1362	0.4928	0.562	0.015
Mof_H 	H 	0.1635	0.4842	0.488	0.054
Mof_H 	H 	0.033	0.4209	0.464	0.069
Mof_H 	H 	0.7749	0.2945	0.544	0.079
Mof_H 	H 	0.746	0.28	0.6175	0.046
Mof_H 	H 	0.8453	0.3481	0.6536	0.017
Mof_H 	H 	0.7961	0.4153	0.468	0.101
Mof_H 	H 	0.731	0.3792	0.4101	0.043
Mof_H 	H 	0.8735	0.253	0.4347	0.052
Mof_H 	H 	0.9441	0.2855	0.4932	0.106
Mof_H 	H 	0.2209	0.4654	0.1655	0.028
Mof_H 	H 	0.2352	0.453	0.2397	0.055
Mof_H 	H 	0.0681	0.4119	0.2619	0.069
Mof_H 	H 	0.75	0.3234	0.1779	0.072
Mof_H 	H 	0.7075	0.322	0.1059	0.049
Mof_H 	H 	0.8471	0.3727	0.0705	0.02
Mof_H 	H 	0.7517	0.4038	0.2371	0.099
Mof_H 	H 	0.6838	0.3657	0.2943	0.046
Mof_H 	H 	0.9346	0.281	0.305	0.024
Mof_H 	H 	0.0101	0.3163	0.2476	0.092
Mof_C 	C 	0.6611	0.98724	0.85691	0.038
Mof_C 	C 	0.6952	0.03407	0.84389	-0.044
Mof_C 	C 	0.6105	0.06555	0.84807	-0.091
Mof_C 	C 	0.5262	0.03718	0.86463	0.114
Mof_C 	C 	0.4256	0.05404	0.87531	-0.162
Mof_C 	C 	0.3468	0.02524	0.89252	0.132
Mof_C 	C 	0.2423	0.04133	0.90398	-0.115
Mof_C 	C 	0.191	0.00067	0.91859	-0.004
Mof_C 	C 	0.2625	0.96061	0.91618	0.021
Mof_C 	C 	0.4007	0.10732	0.86702	0.161
Mof_C 	C 	0.3301	0.12073	0.83704	-0.174
Mof_C 	C 	0.3047	0.17036	0.83186	0.151
Mof_C 	C 	0.415	0.19384	0.88205	0.124
Mof_C 	C 	0.4453	0.14524	0.88932	-0.186
Mof_C 	C 	0.902	0.4706	0.04524	0.037
Mof_C 	C 	0.8863	0.46643	0.00379	-0.037
Mof_C 	C 	0.9574	0.43163	0.99085	-0.095
Mof_C 	C 	0.0147	0.41436	0.02479	0.115
Mof_C 	C 	0.0862	0.37608	0.02652	-0.153
Mof_C 	C 	0.128	0.35521	0.06112	0.119
Mof_C 	C 	0.1961	0.31362	0.06522	-0.103
Mof_C 	C 	0.2131	0.30573	0.10558	-0.034
Mof_C 	C 	0.1567	0.34395	0.12534	0.031
Mof_C 	C 	0.1245	0.35377	0.98786	0.142
Mof_C 	C 	0.1872	0.38161	0.96188	-0.172
Mof_C 	C 	0.225	0.35998	0.92725	0.114
Mof_C 	C 	0.1418	0.28658	0.94162	0.092
Mof_C 	C 	0.1003	0.30547	0.97683	-0.169
Mof_C 	C 	0.8308	0.44946	0.68166	0.026
Mof_C 	C 	0.8224	0.44315	0.72319	-0.033
Mof_C 	C 	0.9133	0.42014	0.73522	-0.101
Mof_C 	C 	0.9757	0.41056	0.70013	0.118
Mof_C 	C 	0.0676	0.38329	0.69761	-0.154
Mof_C 	C 	0.1216	0.37119	0.66247	0.116
Mof_C 	C 	0.2124	0.34016	0.65731	-0.101
Mof_C 	C 	0.2351	0.33898	0.61813	-0.033
Mof_C 	C 	0.157	0.36803	0.59858	0.033
Mof_C 	C 	0.113	0.36209	0.73516	0.141
Mof_C 	C 	0.2098	0.37798	0.75005	-0.172
Mof_C 	C 	0.2493	0.35524	0.78444	0.091
Mof_C 	C 	0.1037	0.30584	0.7908	0.086
Mof_C 	C 	0.058	0.32667	0.75622	-0.169
Mof_C 	C 	0.8389	0.48724	0.14309	0.038
Mof_C 	C 	0.8048	0.53407	0.15611	-0.044
Mof_C 	C 	0.8895	0.56555	0.15193	-0.091
Mof_C 	C 	0.9738	0.53718	0.13537	0.115
Mof_C 	C 	0.0744	0.55404	0.12469	-0.163
Mof_C 	C 	0.1532	0.52524	0.10748	0.132
Mof_C 	C 	0.2577	0.54133	0.09602	-0.115
Mof_C 	C 	0.309	0.50067	0.08141	-0.004
Mof_C 	C 	0.2375	0.46061	0.08382	0.021
Mof_C 	C 	0.0993	0.60732	0.13298	0.161
Mof_C 	C 	0.1699	0.62073	0.16296	-0.174
Mof_C 	C 	0.1953	0.67036	0.16814	0.151
Mof_C 	C 	0.085	0.69384	0.11795	0.124
Mof_C 	C 	0.0547	0.64524	0.11068	-0.186
Mof_C 	C 	0.598	0.9706	0.95476	0.038
Mof_C 	C 	0.6137	0.96643	0.99621	-0.039
Mof_C 	C 	0.5426	0.93163	0.00915	-0.093
Mof_C 	C 	0.4853	0.91436	0.97521	0.116
Mof_C 	C 	0.4138	0.87608	0.97348	-0.153
Mof_C 	C 	0.372	0.85521	0.93888	0.119
Mof_C 	C 	0.3039	0.81362	0.93478	-0.103
Mof_C 	C 	0.2869	0.80573	0.89442	-0.034
Mof_C 	C 	0.3433	0.84395	0.87466	0.031
Mof_C 	C 	0.3755	0.85377	0.01214	0.141
Mof_C 	C 	0.3128	0.88161	0.03812	-0.172
Mof_C 	C 	0.275	0.85998	0.07275	0.114
Mof_C 	C 	0.3582	0.78658	0.05838	0.092
Mof_C 	C 	0.3997	0.80547	0.02317	-0.169
Mof_C 	C 	0.6692	0.94946	0.31834	0.026
Mof_C 	C 	0.6776	0.94315	0.27681	-0.032
Mof_C 	C 	0.5867	0.92014	0.26478	-0.102
Mof_C 	C 	0.5243	0.91056	0.29987	0.121
Mof_C 	C 	0.4324	0.88329	0.30239	-0.157
Mof_C 	C 	0.3784	0.87119	0.33753	0.117
Mof_C 	C 	0.2876	0.84016	0.34269	-0.102
Mof_C 	C 	0.2649	0.83898	0.38187	-0.033
Mof_C 	C 	0.343	0.86803	0.40142	0.033
Mof_C 	C 	0.387	0.86209	0.26484	0.144
Mof_C 	C 	0.2902	0.87798	0.24995	-0.174
Mof_C 	C 	0.2507	0.85524	0.21556	0.092
Mof_C 	C 	0.3963	0.80584	0.2092	0.087
Mof_C 	C 	0.442	0.82667	0.24378	-0.174
Mof_C 	C 	0.1611	0.48724	0.64309	0.039
Mof_C 	C 	0.1952	0.53407	0.65611	-0.044
Mof_C 	C 	0.1105	0.56555	0.65193	-0.091
Mof_C 	C 	0.0262	0.53718	0.63537	0.115
Mof_C 	C 	0.9256	0.55404	0.62469	-0.163
Mof_C 	C 	0.8468	0.52524	0.60748	0.132
Mof_C 	C 	0.7423	0.54133	0.59602	-0.115
Mof_C 	C 	0.691	0.50067	0.58141	-0.004
Mof_C 	C 	0.7625	0.46061	0.58382	0.021
Mof_C 	C 	0.9007	0.60732	0.63298	0.161
Mof_C 	C 	0.8301	0.62073	0.66296	-0.174
Mof_C 	C 	0.8047	0.67036	0.66814	0.151
Mof_C 	C 	0.915	0.69384	0.61795	0.124
Mof_C 	C 	0.9453	0.64524	0.61068	-0.186
Mof_C 	C 	0.402	0.9706	0.45476	0.038
Mof_C 	C 	0.3863	0.96643	0.49621	-0.038
Mof_C 	C 	0.4574	0.93163	0.50915	-0.094
Mof_C 	C 	0.5147	0.91436	0.47521	0.116
Mof_C 	C 	0.5862	0.87608	0.47348	-0.153
Mof_C 	C 	0.628	0.85521	0.43888	0.119
Mof_C 	C 	0.6961	0.81362	0.43478	-0.103
Mof_C 	C 	0.7131	0.80573	0.39442	-0.034
Mof_C 	C 	0.6567	0.84395	0.37466	0.031
Mof_C 	C 	0.6245	0.85377	0.51214	0.141
Mof_C 	C 	0.6872	0.88161	0.53812	-0.172
Mof_C 	C 	0.725	0.85998	0.57275	0.114
Mof_C 	C 	0.6418	0.78658	0.55838	0.092
Mof_C 	C 	0.6003	0.80547	0.52317	-0.169
Mof_C 	C 	0.3308	0.94946	0.81834	0.026
Mof_C 	C 	0.3224	0.94315	0.77681	-0.032
Mof_C 	C 	0.4133	0.92014	0.76478	-0.102
Mof_C 	C 	0.4757	0.91056	0.79987	0.121
Mof_C 	C 	0.5676	0.88329	0.80239	-0.157
Mof_C 	C 	0.6216	0.87119	0.83753	0.117
Mof_C 	C 	0.7124	0.84016	0.84269	-0.102
Mof_C 	C 	0.7351	0.83898	0.88187	-0.033
Mof_C 	C 	0.657	0.86803	0.90142	0.033
Mof_C 	C 	0.613	0.86209	0.76484	0.144
Mof_C 	C 	0.7098	0.87798	0.74995	-0.174
Mof_C 	C 	0.7493	0.85524	0.71556	0.092
Mof_C 	C 	0.6037	0.80584	0.7092	0.087
Mof_C 	C 	0.558	0.82667	0.74378	-0.174
Mof_C 	C 	0.3389	0.98724	0.35691	0.039
Mof_C 	C 	0.3048	0.03407	0.34389	-0.045
Mof_C 	C 	0.3895	0.06555	0.34807	-0.091
Mof_C 	C 	0.4738	0.03718	0.36463	0.113
Mof_C 	C 	0.5744	0.05404	0.37531	-0.162
Mof_C 	C 	0.6532	0.02524	0.39252	0.131
Mof_C 	C 	0.7577	0.04133	0.40398	-0.115
Mof_C 	C 	0.809	0.00067	0.41859	-0.005
Mof_C 	C 	0.7375	0.96061	0.41618	0.022
Mof_C 	C 	0.5993	0.10732	0.36702	0.161
Mof_C 	C 	0.6699	0.12073	0.33704	-0.174
Mof_C 	C 	0.6953	0.17036	0.33186	0.151
Mof_C 	C 	0.585	0.19384	0.38205	0.124
Mof_C 	C 	0.5547	0.14524	0.38932	-0.186
Mof_C 	C 	0.098	0.4706	0.54524	0.038
Mof_C 	C 	0.1137	0.46643	0.50379	-0.038
Mof_C 	C 	0.0426	0.43163	0.49085	-0.094
Mof_C 	C 	0.9853	0.41436	0.52479	0.115
Mof_C 	C 	0.9138	0.37608	0.52652	-0.153
Mof_C 	C 	0.872	0.35521	0.56112	0.119
Mof_C 	C 	0.8039	0.31362	0.56522	-0.103
Mof_C 	C 	0.7869	0.30573	0.60558	-0.034
Mof_C 	C 	0.8433	0.34395	0.62534	0.031
Mof_C 	C 	0.8755	0.35377	0.48786	0.141
Mof_C 	C 	0.8128	0.38161	0.46188	-0.172
Mof_C 	C 	0.775	0.35998	0.42725	0.114
Mof_C 	C 	0.8582	0.28658	0.44162	0.092
Mof_C 	C 	0.8997	0.30547	0.47683	-0.169
Mof_C 	C 	0.1692	0.44946	0.18166	0.026
Mof_C 	C 	0.1776	0.44315	0.22319	-0.033
Mof_C 	C 	0.0867	0.42014	0.23522	-0.101
Mof_C 	C 	0.0243	0.41056	0.20013	0.118
Mof_C 	C 	0.9324	0.38329	0.19761	-0.154
Mof_C 	C 	0.8784	0.37119	0.16247	0.116
Mof_C 	C 	0.7876	0.34016	0.15731	-0.101
Mof_C 	C 	0.7649	0.33898	0.11813	-0.033
Mof_C 	C 	0.843	0.36803	0.09858	0.033
Mof_C 	C 	0.887	0.36209	0.23516	0.141
Mof_C 	C 	0.7902	0.37798	0.25005	-0.172
Mof_C 	C 	0.7507	0.35524	0.28444	0.091
Mof_C 	C 	0.8963	0.30584	0.2908	0.086
Mof_C 	C 	0.942	0.32667	0.25622	-0.169
Mof_N 	N 	0.5605	0.98835	0.86967	-0.257
Mof_N 	N 	0.3552	0.97465	0.90073	-0.257
Mof_N 	N 	0.3439	0.20689	0.85461	-0.202
Mof_N 	N 	0.9761	0.44002	0.05818	-0.256
Mof_N 	N 	0.1067	0.37356	0.0995	-0.256
Mof_N 	N 	0.2024	0.31352	0.91686	-0.194
Mof_N 	N 	0.9222	0.42981	0.66763	-0.254
Mof_N 	N 	0.0906	0.38779	0.62475	-0.258
Mof_N 	N 	0.1979	0.31957	0.80423	-0.204
Mof_N 	N 	0.9395	0.48835	0.13033	-0.257
Mof_N 	N 	0.1448	0.47465	0.09927	-0.257
Mof_N 	N 	0.1561	0.70689	0.14539	-0.202
Mof_N 	N 	0.5239	0.94002	0.94182	-0.257
Mof_N 	N 	0.3933	0.87356	0.9005	-0.256
Mof_N 	N 	0.2976	0.81352	0.08314	-0.194
Mof_N 	N 	0.5778	0.92981	0.33237	-0.254
Mof_N 	N 	0.4094	0.88779	0.37525	-0.258
Mof_N 	N 	0.3021	0.81957	0.19577	-0.205
Mof_N 	N 	0.0605	0.48835	0.63033	-0.257
Mof_N 	N 	0.8552	0.47465	0.59927	-0.257
Mof_N 	N 	0.8439	0.70689	0.64539	-0.202
Mof_N 	N 	0.4761	0.94002	0.44182	-0.257
Mof_N 	N 	0.6067	0.87356	0.4005	-0.256
Mof_N 	N 	0.7024	0.81352	0.58314	-0.194
Mof_N 	N 	0.4222	0.92981	0.83237	-0.254
Mof_N 	N 	0.5906	0.88779	0.87525	-0.258
Mof_N 	N 	0.6979	0.81957	0.69577	-0.205
Mof_N 	N 	0.4395	0.98835	0.36967	-0.257
Mof_N 	N 	0.6448	0.97465	0.40073	-0.257
Mof_N 	N 	0.6561	0.20689	0.35461	-0.202
Mof_N 	N 	0.0239	0.44002	0.55818	-0.257
Mof_N 	N 	0.8933	0.37356	0.5995	-0.256
Mof_N 	N 	0.7976	0.31352	0.41686	-0.194
Mof_N 	N 	0.0778	0.42981	0.16763	-0.254
Mof_N 	N 	0.9094	0.38779	0.12475	-0.258
Mof_N 	N 	0.8021	0.31957	0.30423	-0.204
Mof_P 	P 	0.47529	0.34519	0.37439	1.124
Mof_F 	F 	0.41497	0.37962	0.34346	-0.412
Mof_F 	F 	0.53762	0.31117	0.40524	-0.427
Mof_F 	F 	0.5837	0.3521	0.35438	-0.47
Mof_F 	F 	0.4502	0.29674	0.3493	-0.451
Mof_F 	F 	0.3648	0.3357	0.39912	-0.405
Mof_F 	F 	0.4976	0.3915	0.40372	-0.387
Mof_P 	P 	0.02471	0.15481	0.87439	1.125
Mof_F 	F 	0.08503	0.12038	0.84346	-0.412
Mof_F 	F 	0.96238	0.18883	0.90524	-0.428
Mof_F 	F 	0.9163	0.1479	0.85438	-0.47
Mof_F 	F 	0.0498	0.20326	0.8493	-0.451
Mof_F 	F 	0.1352	0.1643	0.89912	-0.405
Mof_F 	F 	0.0024	0.1085	0.90372	-0.387
Mof_P 	P 	0.47529	0.65481	0.12561	1.124
Mof_F 	F 	0.41497	0.62038	0.15654	-0.412
Mof_F 	F 	0.53762	0.68883	0.09476	-0.427
Mof_F 	F 	0.5837	0.6479	0.14562	-0.47
Mof_F 	F 	0.4502	0.70326	0.1507	-0.451
Mof_F 	F 	0.3648	0.6643	0.10088	-0.405
Mof_F 	F 	0.4976	0.6085	0.09628	-0.387
Mof_P 	P 	0.02471	0.84519	0.62561	1.125
Mof_F 	F 	0.08503	0.87962	0.65654	-0.412
Mof_F 	F 	0.96238	0.81117	0.59476	-0.428
Mof_F 	F 	0.9163	0.8521	0.64562	-0.47
Mof_F 	F 	0.0498	0.79674	0.6507	-0.451
Mof_F 	F 	0.1352	0.8357	0.60088	-0.405
Mof_F 	F 	0.0024	0.8915	0.59628	-0.387
Mof_P 	P 	0.52471	0.65481	0.62561	1.124
Mof_F 	F 	0.58503	0.62038	0.65654	-0.412
Mof_F 	F 	0.46238	0.68883	0.59476	-0.427
Mof_F 	F 	0.4163	0.6479	0.64562	-0.47
Mof_F 	F 	0.5498	0.70326	0.6507	-0.451
Mof_F 	F 	0.6352	0.6643	0.60088	-0.405
Mof_F 	F 	0.5024	0.6085	0.59628	-0.387
Mof_P 	P 	0.97529	0.84519	0.12561	1.125
Mof_F 	F 	0.91497	0.87962	0.15654	-0.412
Mof_F 	F 	0.03762	0.81117	0.09476	-0.428
Mof_F 	F 	0.0837	0.8521	0.14562	-0.47
Mof_F 	F 	0.9502	0.79674	0.1507	-0.451
Mof_F 	F 	0.8648	0.8357	0.10088	-0.405
Mof_F 	F 	0.9976	0.8915	0.09628	-0.387
Mof_P 	P 	0.52471	0.34519	0.87439	1.124
Mof_F 	F 	0.58503	0.37962	0.84346	-0.412
Mof_F 	F 	0.46238	0.31117	0.90524	-0.427
Mof_F 	F 	0.4163	0.3521	0.85438	-0.47
Mof_F 	F 	0.5498	0.29674	0.8493	-0.451
Mof_F 	F 	0.6352	0.3357	0.89912	-0.405
Mof_F 	F 	0.5024	0.3915	0.90372	-0.387
Mof_P 	P 	0.97529	0.15481	0.37439	1.125
Mof_F 	F 	0.91497	0.12038	0.34346	-0.412
Mof_F 	F 	0.03762	0.18883	0.40524	-0.428
Mof_F 	F 	0.0837	0.1479	0.35438	-0.47
Mof_F 	F 	0.9502	0.20326	0.3493	-0.451
Mof_F 	F 	0.8648	0.1643	0.39912	-0.405
Mof_F 	F 	0.9976	0.1085	0.40372	-0.387
_end
