# CIF file generated by openbabel 3.1.0, see https://openbabel.org
data_I
_chemical_name_common 'image0'
_cell_length_a 14.1985
_cell_length_b 12.0745
_cell_length_c 16.5616
_cell_angle_alpha 90
_cell_angle_beta 90
_cell_angle_gamma 90
_space_group_name_H-M_alt 'P 1'
_space_group_name_Hall 'P 1'
loop_
    _symmetry_equiv_pos_as_xyz
    x,y,z
loop_
    _atom_site_label
    _atom_site_type_symbol
    _atom_site_fract_x
    _atom_site_fract_y
    _atom_site_fract_z
    _atom_site_occupancy
    Mn1      Mn       0.60887    0.47342    0.56774    1.000
    O1       O        0.79280    0.52410    0.96760    1.000
    O2       O        0.79030    0.37740    0.04570    1.000
    O3       O        0.60190    0.32250    0.65060    1.000
    O4       O        0.49630    0.06680    0.86740    1.000
    C1       C        0.64400    0.28160    0.95130    1.000
    H1       H        0.64270    0.26090    0.00540    1.000
    O5       O        0.50940    0.11900    0.99540    1.000
    C2       C        0.76440    0.42820    0.98470    1.000
    C3       C        0.69640    0.40460    0.84650    1.000
    H2       H        0.72870    0.46810    0.83100    1.000
    C4       C        0.64560    0.38040    0.70260    1.000
    C5       C        0.69850    0.37010    0.92740    1.000
    C6       C        0.52770    0.13130    0.92050    1.000
    O6       O        0.68790    0.46800    0.68380    1.000
    C7       C        0.59340    0.25410    0.81350    1.000
    H3       H        0.55950    0.21400    0.77540    1.000
    C8       C        0.59050    0.22270    0.89480    1.000
    C9       C        0.64610    0.34420    0.78960    1.000
    Mn2      Mn       0.89113    0.52658    0.06774    1.000
    O7       O        0.70720    0.47590    0.46760    1.000
    O8       O        0.70970    0.62260    0.54570    1.000
    O9       O        0.89810    0.67750    0.15060    1.000
    O10      O        0.00370    0.93320    0.36740    1.000
    C10      C        0.85600    0.71840    0.45130    1.000
    H4       H        0.85730    0.73910    0.50540    1.000
    O11      O        0.99060    0.88100    0.49540    1.000
    C11      C        0.73560    0.57180    0.48470    1.000
    C12      C        0.80360    0.59540    0.34650    1.000
    H5       H        0.77130    0.53190    0.33100    1.000
    C13      C        0.85440    0.61960    0.20260    1.000
    C14      C        0.80150    0.62990    0.42740    1.000
    C15      C        0.97230    0.86870    0.42050    1.000
    O12      O        0.81210    0.53200    0.18380    1.000
    C16      C        0.90660    0.74590    0.31350    1.000
    H6       H        0.94050    0.78600    0.27540    1.000
    C17      C        0.90950    0.77730    0.39480    1.000
    C18      C        0.85390    0.65580    0.28960    1.000
    Mn3      Mn       0.39113    0.97342    0.93226    1.000
    O13      O        0.20720    0.02410    0.53240    1.000
    O14      O        0.20970    0.87740    0.45430    1.000
    O15      O        0.39810    0.82250    0.84940    1.000
    O16      O        0.50370    0.56680    0.63260    1.000
    C19      C        0.35600    0.78160    0.54870    1.000
    H7       H        0.35730    0.76090    0.49460    1.000
    O17      O        0.49060    0.61900    0.50460    1.000
    C20      C        0.23560    0.92820    0.51530    1.000
    C21      C        0.30360    0.90460    0.65350    1.000
    H8       H        0.27130    0.96810    0.66900    1.000
    C22      C        0.35440    0.88040    0.79740    1.000
    C23      C        0.30150    0.87010    0.57260    1.000
    C24      C        0.47230    0.63130    0.57950    1.000
    O18      O        0.31210    0.96800    0.81620    1.000
    C25      C        0.40660    0.75410    0.68650    1.000
    H9       H        0.44050    0.71400    0.72460    1.000
    C26      C        0.40950    0.72270    0.60520    1.000
    C27      C        0.35390    0.84420    0.71040    1.000
    Mn4      Mn       0.10887    0.02658    0.43226    1.000
    O19      O        0.29280    0.97590    0.03240    1.000
    O20      O        0.29030    0.12260    0.95430    1.000
    O21      O        0.10190    0.17750    0.34940    1.000
    O22      O        0.99630    0.43320    0.13260    1.000
    C28      C        0.14400    0.21840    0.04870    1.000
    H10      H        0.14270    0.23910    0.99460    1.000
    O23      O        0.00940    0.38100    0.00460    1.000
    C29      C        0.26440    0.07180    0.01530    1.000
    C30      C        0.19640    0.09540    0.15350    1.000
    H11      H        0.22870    0.03190    0.16900    1.000
    C31      C        0.14560    0.11960    0.29740    1.000
    C32      C        0.19850    0.12990    0.07260    1.000
    C33      C        0.02770    0.36870    0.07950    1.000
    O24      O        0.18790    0.03200    0.31620    1.000
    C34      C        0.09340    0.24590    0.18650    1.000
    H12      H        0.05950    0.28600    0.22460    1.000
    C35      C        0.09050    0.27730    0.10520    1.000
    C36      C        0.14610    0.15580    0.21040    1.000
    Mn5      Mn       0.39113    0.52658    0.43226    1.000
    O25      O        0.20720    0.47590    0.03240    1.000
    O26      O        0.20970    0.62260    0.95430    1.000
    O27      O        0.39810    0.67750    0.34940    1.000
    O28      O        0.50370    0.93320    0.13260    1.000
    C37      C        0.35600    0.71840    0.04870    1.000
    H13      H        0.35730    0.73910    0.99460    1.000
    O29      O        0.49060    0.88100    0.00460    1.000
    C38      C        0.23560    0.57180    0.01530    1.000
    C39      C        0.30360    0.59540    0.15350    1.000
    H14      H        0.27130    0.53190    0.16900    1.000
    C40      C        0.35440    0.61960    0.29740    1.000
    C41      C        0.30150    0.62990    0.07260    1.000
    C42      C        0.47230    0.86870    0.07950    1.000
    O30      O        0.31210    0.53200    0.31620    1.000
    C43      C        0.40660    0.74590    0.18650    1.000
    H15      H        0.44050    0.78600    0.22460    1.000
    C44      C        0.40950    0.77730    0.10520    1.000
    C45      C        0.35390    0.65580    0.21040    1.000
    Mn6      Mn       0.10887    0.47342    0.93226    1.000
    O31      O        0.29280    0.52410    0.53240    1.000
    O32      O        0.29030    0.37740    0.45430    1.000
    O33      O        0.10190    0.32250    0.84940    1.000
    O34      O        0.99630    0.06680    0.63260    1.000
    C46      C        0.14400    0.28160    0.54870    1.000
    H16      H        0.14270    0.26090    0.49460    1.000
    O35      O        0.00940    0.11900    0.50460    1.000
    C47      C        0.26440    0.42820    0.51530    1.000
    C48      C        0.19640    0.40460    0.65350    1.000
    H17      H        0.22870    0.46810    0.66900    1.000
    C49      C        0.14560    0.38040    0.79740    1.000
    C50      C        0.19850    0.37010    0.57260    1.000
    C51      C        0.02770    0.13130    0.57950    1.000
    O36      O        0.18790    0.46800    0.81620    1.000
    C52      C        0.09340    0.25410    0.68650    1.000
    H18      H        0.05950    0.21400    0.72460    1.000
    C53      C        0.09050    0.22270    0.60520    1.000
    C54      C        0.14610    0.34420    0.71040    1.000
    Mn7      Mn       0.60887    0.02658    0.06774    1.000
    O37      O        0.79280    0.97590    0.46760    1.000
    O38      O        0.79030    0.12260    0.54570    1.000
    O39      O        0.60190    0.17750    0.15060    1.000
    O40      O        0.49630    0.43320    0.36740    1.000
    C55      C        0.64400    0.21840    0.45130    1.000
    H19      H        0.64270    0.23910    0.50540    1.000
    O41      O        0.50940    0.38100    0.49540    1.000
    C56      C        0.76440    0.07180    0.48470    1.000
    C57      C        0.69640    0.09540    0.34650    1.000
    H20      H        0.72870    0.03190    0.33100    1.000
    C58      C        0.64560    0.11960    0.20260    1.000
    C59      C        0.69850    0.12990    0.42740    1.000
    C60      C        0.52770    0.36870    0.42050    1.000
    O42      O        0.68790    0.03200    0.18380    1.000
    C61      C        0.59340    0.24590    0.31350    1.000
    H21      H        0.55950    0.28600    0.27540    1.000
    C62      C        0.59050    0.27730    0.39480    1.000
    C63      C        0.64610    0.15580    0.28960    1.000
    Mn8      Mn       0.89113    0.97342    0.56774    1.000
    O43      O        0.70720    0.02410    0.96760    1.000
    O44      O        0.70970    0.87740    0.04570    1.000
    O45      O        0.89810    0.82250    0.65060    1.000
    O46      O        0.00370    0.56680    0.86740    1.000
    C64      C        0.85600    0.78160    0.95130    1.000
    H22      H        0.85730    0.76090    0.00540    1.000
    O47      O        0.99060    0.61900    0.99540    1.000
    C65      C        0.73560    0.92820    0.98470    1.000
    C66      C        0.80360    0.90460    0.84650    1.000
    H23      H        0.77130    0.96810    0.83100    1.000
    C67      C        0.85440    0.88040    0.70260    1.000
    C68      C        0.80150    0.87010    0.92740    1.000
    C69      C        0.97230    0.63130    0.92050    1.000
    O48      O        0.81210    0.96800    0.68380    1.000
    C70      C        0.90660    0.75410    0.81350    1.000
    H24      H        0.94050    0.71400    0.77540    1.000
    C71      C        0.90950    0.72270    0.89480    1.000
    C72      C        0.85390    0.84420    0.78960    1.000
