# CIF file generated by openbabel 3.1.0, see https://openbabel.org
data_I
_chemical_name_common 'image0'
_cell_length_a 11.4712
_cell_length_b 11.6147
_cell_length_c 19.8781
_cell_angle_alpha 81.156
_cell_angle_beta 74.921
_cell_angle_gamma 65.987
_space_group_name_H-M_alt 'P 1'
_space_group_name_Hall 'P 1'
loop_
    _symmetry_equiv_pos_as_xyz
    x,y,z
loop_
    _atom_site_label
    _atom_site_type_symbol
    _atom_site_fract_x
    _atom_site_fract_y
    _atom_site_fract_z
    _atom_site_occupancy
    N1       N        0.32210    0.64870    0.01290    1.000
    N2       N        0.14570    0.82610    0.01260    1.000
    N3       N        0.45470    0.42600    0.10690    1.000
    N4       N        0.10050    0.01770    0.89110    1.000
    N5       N        0.02510    0.52340    0.10050    1.000
    O1       O        0.39210    0.41950    0.96890    1.000
    O2       O        0.19500    0.45480    0.95500    1.000
    O3       O        0.95200    0.68700    0.96740    1.000
    O4       O        0.92360    0.88550    0.97190    1.000
    C1       C        0.27240    0.49000    0.97140    1.000
    C2       C        0.23180    0.62150    0.99210    1.000
    C3       C        0.12160    0.73160    0.99260    1.000
    C4       C        0.26560    0.77090    0.02490    1.000
    H1       H        0.30680    0.81460    0.04070    1.000
    C5       C        0.99070    0.76820    0.97590    1.000
    C6       C        0.42460    0.49380    0.15940    1.000
    H2       H        0.41090    0.58050    0.15020    1.000
    C7       C        0.41120    0.44780    0.22790    1.000
    H3       H        0.38810    0.50280    0.26410    1.000
    C8       C        0.43120    0.32220    0.24400    1.000
    C9       C        0.46200    0.25030    0.18680    1.000
    H4       H        0.47560    0.16350    0.19410    1.000
    C10      C        0.47270    0.30440    0.12020    1.000
    H5       H        0.49370    0.25350    0.08230    1.000
    C11      C        0.41510    0.26880    0.31680    1.000
    C12      C        0.42730    0.32590    0.36810    1.000
    H6       H        0.44870    0.39850    0.35650    1.000
    C13      C        0.40850    0.27870    0.43810    1.000
    H7       H        0.41940    0.31870    0.47300    1.000
    C14      C        0.37450    0.17440    0.45680    1.000
    C15      C        0.36540    0.11850    0.40450    1.000
    H8       H        0.34610    0.04480    0.41510    1.000
    C16      C        0.38370    0.16620    0.33550    1.000
    H9       H        0.37390    0.12550    0.30060    1.000
    C17      C        0.34330    0.13360    0.53200    1.000
    C18      C        0.37730    0.17500    0.58380    1.000
    H10      H        0.42750    0.22590    0.57030    1.000
    C19      C        0.34070    0.14470    0.65350    1.000
    H11      H        0.36550    0.17470    0.68720    1.000
    C20      C        0.26700    0.06990    0.67480    1.000
    C21      C        0.23910    0.02580    0.62370    1.000
    H12      H        0.19250    0.97150    0.63710    1.000
    C22      C        0.27530    0.05600    0.55330    1.000
    H13      H        0.25310    0.02300    0.51980    1.000
    C23      C        0.21350    0.04720    0.74920    1.000
    C24      C        0.27400    0.04420    0.80270    1.000
    H14      H        0.35510    0.05420    0.79130    1.000
    C25      C        0.21680    0.02680    0.87190    1.000
    H15      H        0.26210    0.02120    0.90680    1.000
    C26      C        0.09030    0.04000    0.77210    1.000
    H16      H        0.04150    0.04510    0.73890    1.000
    C27      C        0.03940    0.02550    0.84220    1.000
    H17      H        0.95560    0.02080    0.85590    1.000
    C28      C        0.11560    0.43200    0.12940    1.000
    H18      H        0.18080    0.36690    0.10100    1.000
    C29      C        0.12030    0.42630    0.19790    1.000
    H19      H        0.18570    0.35690    0.21600    1.000
    C30      C        0.03050    0.52100    0.24100    1.000
    C31      C        0.93890    0.61980    0.20860    1.000
    H20      H        0.87570    0.68930    0.23460    1.000
    C32      C        0.94020    0.61640    0.14010    1.000
    H21      H        0.87670    0.68450    0.11990    1.000
    C33      C        0.02720    0.51730    0.31610    1.000
    C34      C        0.06390    0.40090    0.35430    1.000
    H22      H        0.09670    0.32500    0.33080    1.000
    C35      C        0.05310    0.39480    0.42530    1.000
    H23      H        0.07760    0.31480    0.45000    1.000
    C36      C        0.00720    0.50360    0.46130    1.000
    C37      C        0.98410    0.61070    0.42310    1.000
    H24      H        0.95860    0.68660    0.44540    1.000
    C38      C        0.99560    0.61660    0.35150    1.000
    H25      H        0.97980    0.69640    0.32680    1.000
    N6       N        0.67790    0.35130    0.98710    1.000
    N7       N        0.85430    0.17390    0.98740    1.000
    N8       N        0.54530    0.57400    0.89310    1.000
    N9       N        0.89950    0.98230    0.10890    1.000
    N10      N        0.97490    0.47660    0.89950    1.000
    O5       O        0.60790    0.58050    0.03110    1.000
    O6       O        0.80500    0.54520    0.04500    1.000
    O7       O        0.04800    0.31300    0.03260    1.000
    O8       O        0.07640    0.11450    0.02810    1.000
    C39      C        0.72760    0.51000    0.02860    1.000
    C40      C        0.76820    0.37850    0.00790    1.000
    C41      C        0.87840    0.26840    0.00740    1.000
    C42      C        0.73440    0.22910    0.97510    1.000
    H26      H        0.69320    0.18540    0.95930    1.000
    C43      C        0.00930    0.23180    0.02410    1.000
    C44      C        0.57540    0.50620    0.84060    1.000
    H27      H        0.58910    0.41950    0.84980    1.000
    C45      C        0.58880    0.55220    0.77210    1.000
    H28      H        0.61190    0.49720    0.73590    1.000
    C46      C        0.56880    0.67780    0.75600    1.000
    C47      C        0.53800    0.74970    0.81320    1.000
    H29      H        0.52440    0.83650    0.80590    1.000
    C48      C        0.52730    0.69560    0.87980    1.000
    H30      H        0.50630    0.74650    0.91770    1.000
    C49      C        0.58490    0.73120    0.68320    1.000
    C50      C        0.57270    0.67410    0.63190    1.000
    H31      H        0.55130    0.60150    0.64350    1.000
    C51      C        0.59150    0.72130    0.56190    1.000
    H32      H        0.58060    0.68130    0.52700    1.000
    C52      C        0.62550    0.82560    0.54320    1.000
    C53      C        0.63460    0.88150    0.59550    1.000
    H33      H        0.65390    0.95520    0.58490    1.000
    C54      C        0.61630    0.83380    0.66450    1.000
    H34      H        0.62610    0.87450    0.69940    1.000
    C55      C        0.65670    0.86640    0.46800    1.000
    C56      C        0.62270    0.82500    0.41620    1.000
    H35      H        0.57250    0.77410    0.42970    1.000
    C57      C        0.65930    0.85530    0.34650    1.000
    H36      H        0.63450    0.82530    0.31280    1.000
    C58      C        0.73300    0.93010    0.32520    1.000
    C59      C        0.76090    0.97420    0.37630    1.000
    H37      H        0.80750    0.02850    0.36290    1.000
    C60      C        0.72470    0.94400    0.44670    1.000
    H38      H        0.74690    0.97700    0.48020    1.000
    C61      C        0.78650    0.95280    0.25080    1.000
    C62      C        0.72600    0.95580    0.19730    1.000
    H39      H        0.64490    0.94580    0.20870    1.000
    C63      C        0.78320    0.97320    0.12810    1.000
    H40      H        0.73790    0.97880    0.09320    1.000
    C64      C        0.90970    0.96000    0.22790    1.000
    H41      H        0.95850    0.95490    0.26110    1.000
    C65      C        0.96060    0.97450    0.15780    1.000
    H42      H        0.04440    0.97920    0.14410    1.000
    C66      C        0.88440    0.56800    0.87060    1.000
    H43      H        0.81920    0.63310    0.89900    1.000
    C67      C        0.87970    0.57370    0.80210    1.000
    H44      H        0.81430    0.64310    0.78400    1.000
    C68      C        0.96950    0.47900    0.75900    1.000
    C69      C        0.06110    0.38020    0.79140    1.000
    H45      H        0.12430    0.31070    0.76540    1.000
    C70      C        0.05980    0.38360    0.85990    1.000
    H46      H        0.12330    0.31550    0.88010    1.000
    C71      C        0.97280    0.48270    0.68390    1.000
    C72      C        0.93610    0.59910    0.64570    1.000
    H47      H        0.90330    0.67500    0.66920    1.000
    C73      C        0.94690    0.60520    0.57470    1.000
    H48      H        0.92240    0.68520    0.55000    1.000
    C74      C        0.99280    0.49640    0.53870    1.000
    C75      C        0.01590    0.38930    0.57690    1.000
    H49      H        0.04140    0.31340    0.55460    1.000
    C76      C        0.00440    0.38340    0.64850    1.000
    H50      H        0.02020    0.30360    0.67320    1.000
    Co1      Co       0.50000    0.50000    0.00000    1.000
    Co2      Co       0.00000    0.50000    0.00000    1.000
    Co3      Co       0.00000    0.00000    0.00000    1.000
