data_functionalizedCrystal
_audit_creation_method	'EQeq! by Chris Wilmer'
_symmetry_space_group_name_H-M	'P1'
_symmetry_Int_Tables_number	1
_symmetry_cell_setting	triclinic
loop_
_symmetry_equiv_pos_as_xyz
  x,y,z
_cell_length_a	6.942
_cell_length_b	12.584
_cell_length_c	12.584
_cell_angle_alpha	95.3528
_cell_angle_beta	96.7152
_cell_angle_gamma	83.2848
loop_
_atom_site_label
_atom_site_type_symbol
_atom_site_fract_x
_atom_site_fract_y
_atom_site_fract_z
_atom_site_charge
Mof_Cu	Cu	0.93301	0.31335	0.05783	0.828
Mof_Cu	Cu	0.43301	0.94217	0.68665	0.83
Mof_H 	H 	0.4357	0.42264	0.54936	0.166
Mof_H 	H 	0.9357	0.45064	0.57736	0.166
Mof_C 	C 	0.4477	0.5325	0.6679	0.213
Mof_C 	C 	0.3766	0.3538	0.672	0.212
Mof_C 	C 	0.3501	0.474	0.8172	0.178
Mof_C 	C 	0.517	0.7006	0.6498	0.167
Mof_C 	C 	0.338	0.1751	0.6559	0.163
Mof_C 	C 	0.221	0.4361	0.9669	0.141
Mof_C 	C 	0.9477	0.3321	0.4675	0.21
Mof_C 	C 	0.8766	0.328	0.6462	0.211
Mof_C 	C 	0.8501	0.1828	0.526	0.177
Mof_C 	C 	0.017	0.3502	0.2994	0.168
Mof_C 	C 	0.838	0.3441	0.8249	0.163
Mof_C 	C 	0.721	0.0331	0.5639	0.145
Mof_N 	N 	0.4226	0.43426	0.61674	-0.261
Mof_N 	N 	0.344	0.3716	0.7744	-0.181
Mof_N 	N 	0.4096	0.555	0.7686	-0.192
Mof_N 	N 	0.5078	0.6021	0.6079	-0.187
Mof_N 	N 	0.5293	0.7899	0.6779	-0.292
Mof_N 	N 	0.3623	0.2611	0.6121	-0.181
Mof_N 	N 	0.317	0.0929	0.6849	-0.288
Mof_N 	N 	0.2912	0.5052	0.9146	-0.216
Mof_N 	N 	0.1528	0.3853	0.0213	-0.269
Mof_N 	N 	0.9226	0.38326	0.56574	-0.261
Mof_N 	N 	0.844	0.2256	0.6284	-0.181
Mof_N 	N 	0.9096	0.2314	0.445	-0.192
Mof_N 	N 	0.0078	0.3921	0.3979	-0.186
Mof_N 	N 	0.0293	0.3221	0.2101	-0.29
Mof_N 	N 	0.8623	0.3879	0.7389	-0.181
Mof_N 	N 	0.817	0.3151	0.9071	-0.287
Mof_N 	N 	0.7912	0.0854	0.4948	-0.217
Mof_N 	N 	0.6528	0.9787	0.6147	-0.272
Mof_Cu	Cu	0.56699	0.05783	0.31335	0.829
Mof_Cu	Cu	0.06699	0.68665	0.94217	0.827
Mof_H 	H 	0.0643	0.54936	0.42264	0.165
Mof_H 	H 	0.5643	0.57736	0.45064	0.165
Mof_C 	C 	0.0523	0.6679	0.5325	0.21
Mof_C 	C 	0.1234	0.672	0.3538	0.211
Mof_C 	C 	0.1499	0.8172	0.474	0.177
Mof_C 	C 	0.983	0.6498	0.7006	0.168
Mof_C 	C 	0.162	0.6559	0.1751	0.163
Mof_C 	C 	0.279	0.9669	0.4361	0.145
Mof_C 	C 	0.5523	0.4675	0.3321	0.212
Mof_C 	C 	0.6234	0.6462	0.328	0.211
Mof_C 	C 	0.6499	0.526	0.1828	0.177
Mof_C 	C 	0.483	0.2994	0.3502	0.166
Mof_C 	C 	0.662	0.8249	0.3441	0.163
Mof_C 	C 	0.779	0.5639	0.0331	0.141
Mof_N 	N 	0.0774	0.61674	0.43426	-0.261
Mof_N 	N 	0.156	0.7744	0.3716	-0.181
Mof_N 	N 	0.0904	0.7686	0.555	-0.192
Mof_N 	N 	0.9922	0.6079	0.6021	-0.186
Mof_N 	N 	0.9707	0.6779	0.7899	-0.29
Mof_N 	N 	0.1377	0.6121	0.2611	-0.181
Mof_N 	N 	0.183	0.6849	0.0929	-0.287
Mof_N 	N 	0.2088	0.9146	0.5052	-0.217
Mof_N 	N 	0.3472	0.0213	0.3853	-0.272
Mof_N 	N 	0.5774	0.56574	0.38326	-0.261
Mof_N 	N 	0.656	0.6284	0.2256	-0.181
Mof_N 	N 	0.5904	0.445	0.2314	-0.192
Mof_N 	N 	0.4922	0.3979	0.3921	-0.187
Mof_N 	N 	0.4707	0.2101	0.3221	-0.292
Mof_N 	N 	0.6377	0.7389	0.3879	-0.181
Mof_N 	N 	0.683	0.9071	0.3151	-0.288
Mof_N 	N 	0.7088	0.4948	0.0854	-0.216
Mof_N 	N 	0.8472	0.6147	0.9787	-0.269
_end
