data_functionalizedCrystal
_audit_creation_method	'EQeq! by Chris Wilmer'
_symmetry_space_group_name_H-M	'P1'
_symmetry_Int_Tables_number	1
_symmetry_cell_setting	triclinic
loop_
_symmetry_equiv_pos_as_xyz
  x,y,z
_cell_length_a	18.9381
_cell_length_b	18.9381
_cell_length_c	21.2008
_cell_angle_alpha	90
_cell_angle_beta	90
_cell_angle_gamma	90
loop_
_atom_site_label
_atom_site_type_symbol
_atom_site_fract_x
_atom_site_fract_y
_atom_site_fract_z
_atom_site_charge
Mof_O 	O 	0.28506	0.56137	0.07599	-0.392
Mof_O 	O 	0.2646	0.62156	0.16366	-0.241
Mof_C 	C 	0.2791	0.6188	0.1065	0.318
Mof_C 	C 	0.2923	0.68595	0.07039	-0.024
Mof_O 	O 	0.26662	0.59792	0.94017	-0.402
Mof_C 	C 	0.3119	0.68597	0.00658	-0.02
Mof_C 	C 	0.3226	0.62129	0.96587	0.34
Mof_O 	O 	0.38171	0.5997	0.95516	-0.261
Mof_O 	O 	0.78506	0.06137	0.57599	-0.391
Mof_O 	O 	0.7646	0.12156	0.66366	-0.24
Mof_C 	C 	0.7791	0.1188	0.6065	0.317
Mof_C 	C 	0.7923	0.18595	0.57039	-0.022
Mof_O 	O 	0.76662	0.09792	0.44017	-0.402
Mof_C 	C 	0.8119	0.18597	0.50658	-0.025
Mof_C 	C 	0.8226	0.12129	0.46587	0.34
Mof_O 	O 	0.88171	0.0997	0.45516	-0.259
Mof_O 	O 	0.21494	0.43863	0.57599	-0.393
Mof_O 	O 	0.2354	0.37844	0.66366	-0.242
Mof_C 	C 	0.2209	0.3812	0.6065	0.316
Mof_C 	C 	0.2077	0.31405	0.57039	-0.023
Mof_O 	O 	0.23338	0.40208	0.44017	-0.403
Mof_C 	C 	0.1881	0.31403	0.50658	-0.027
Mof_C 	C 	0.1774	0.37871	0.46587	0.342
Mof_O 	O 	0.11829	0.4003	0.45516	-0.264
Mof_O 	O 	0.71494	0.93863	0.07599	-0.391
Mof_O 	O 	0.7354	0.87844	0.16366	-0.241
Mof_C 	C 	0.7209	0.8812	0.1065	0.318
Mof_C 	C 	0.7077	0.81405	0.07039	-0.025
Mof_O 	O 	0.73338	0.90208	0.94017	-0.402
Mof_C 	C 	0.6881	0.81403	0.00658	-0.02
Mof_C 	C 	0.6774	0.87871	0.96587	0.337
Mof_O 	O 	0.61829	0.9003	0.95516	-0.262
Mof_O 	O 	0.68863	0.03506	0.32599	-0.393
Mof_O 	O 	0.62844	0.0146	0.41366	-0.242
Mof_C 	C 	0.6312	0.0291	0.3565	0.316
Mof_C 	C 	0.56405	0.0423	0.32039	-0.022
Mof_O 	O 	0.65208	0.01662	0.19017	-0.403
Mof_C 	C 	0.56403	0.0619	0.25658	-0.026
Mof_C 	C 	0.62871	0.0726	0.21587	0.341
Mof_O 	O 	0.6503	0.13171	0.20516	-0.262
Mof_O 	O 	0.18863	0.53506	0.82599	-0.393
Mof_O 	O 	0.12844	0.5146	0.91366	-0.243
Mof_C 	C 	0.1312	0.5291	0.8565	0.315
Mof_C 	C 	0.06405	0.5423	0.82039	-0.02
Mof_O 	O 	0.15208	0.51662	0.69017	-0.403
Mof_C 	C 	0.06403	0.5619	0.75658	-0.024
Mof_C 	C 	0.12871	0.5726	0.71587	0.34
Mof_O 	O 	0.1503	0.63171	0.70516	-0.263
Mof_O 	O 	0.81137	0.96494	0.82599	-0.392
Mof_O 	O 	0.87156	0.9854	0.91366	-0.239
Mof_C 	C 	0.8688	0.9709	0.8565	0.314
Mof_C 	C 	0.93595	0.9577	0.82039	-0.012
Mof_O 	O 	0.84792	0.98338	0.69017	-0.401
Mof_C 	C 	0.93597	0.9381	0.75658	-0.016
Mof_C 	C 	0.87129	0.9274	0.71587	0.339
Mof_O 	O 	0.8497	0.86829	0.70516	-0.26
Mof_O 	O 	0.31137	0.46494	0.32599	-0.393
Mof_O 	O 	0.37156	0.4854	0.41366	-0.242
Mof_C 	C 	0.3688	0.4709	0.3565	0.316
Mof_C 	C 	0.43595	0.4577	0.32039	-0.022
Mof_O 	O 	0.34792	0.48338	0.19017	-0.403
Mof_C 	C 	0.43597	0.4381	0.25658	-0.026
Mof_C 	C 	0.37129	0.4274	0.21587	0.341
Mof_O 	O 	0.3497	0.36829	0.20516	-0.262
Mof_O 	O 	0.21494	0.56137	0.42401	-0.393
Mof_O 	O 	0.2354	0.62156	0.33634	-0.242
Mof_C 	C 	0.2209	0.6188	0.3935	0.316
Mof_C 	C 	0.2077	0.68595	0.42961	-0.023
Mof_O 	O 	0.23338	0.59792	0.55983	-0.403
Mof_C 	C 	0.1881	0.68597	0.49342	-0.027
Mof_C 	C 	0.1774	0.62129	0.53413	0.342
Mof_O 	O 	0.11829	0.5997	0.54484	-0.264
Mof_O 	O 	0.71494	0.06137	0.92401	-0.391
Mof_O 	O 	0.7354	0.12156	0.83634	-0.241
Mof_C 	C 	0.7209	0.1188	0.8935	0.318
Mof_C 	C 	0.7077	0.18595	0.92961	-0.025
Mof_O 	O 	0.73338	0.09792	0.05983	-0.402
Mof_C 	C 	0.6881	0.18597	0.99342	-0.02
Mof_C 	C 	0.6774	0.12129	0.03413	0.337
Mof_O 	O 	0.61829	0.0997	0.04484	-0.262
Mof_O 	O 	0.28506	0.43863	0.92401	-0.393
Mof_O 	O 	0.2646	0.37844	0.83634	-0.242
Mof_C 	C 	0.2791	0.3812	0.8935	0.317
Mof_C 	C 	0.2923	0.31405	0.92961	-0.025
Mof_O 	O 	0.26662	0.40208	0.05983	-0.403
Mof_C 	C 	0.3119	0.31403	0.99342	-0.021
Mof_C 	C 	0.3226	0.37871	0.03413	0.339
Mof_O 	O 	0.38171	0.4003	0.04484	-0.262
Mof_O 	O 	0.78506	0.93863	0.42401	-0.392
Mof_O 	O 	0.7646	0.87844	0.33634	-0.241
Mof_C 	C 	0.7791	0.8812	0.3935	0.317
Mof_C 	C 	0.7923	0.81405	0.42961	-0.022
Mof_O 	O 	0.76662	0.90208	0.55983	-0.402
Mof_C 	C 	0.8119	0.81403	0.49342	-0.025
Mof_C 	C 	0.8226	0.87871	0.53413	0.34
Mof_O 	O 	0.88171	0.9003	0.54484	-0.259
Mof_O 	O 	0.81137	0.03506	0.17401	-0.392
Mof_O 	O 	0.87156	0.0146	0.08634	-0.239
Mof_C 	C 	0.8688	0.0291	0.1435	0.314
Mof_C 	C 	0.93595	0.0423	0.17961	-0.012
Mof_O 	O 	0.84792	0.01662	0.30983	-0.401
Mof_C 	C 	0.93597	0.0619	0.24342	-0.016
Mof_C 	C 	0.87129	0.0726	0.28413	0.339
Mof_O 	O 	0.8497	0.13171	0.29484	-0.26
Mof_O 	O 	0.31137	0.53506	0.67401	-0.393
Mof_O 	O 	0.37156	0.5146	0.58634	-0.242
Mof_C 	C 	0.3688	0.5291	0.6435	0.316
Mof_C 	C 	0.43595	0.5423	0.67961	-0.022
Mof_O 	O 	0.34792	0.51662	0.80983	-0.403
Mof_C 	C 	0.43597	0.5619	0.74342	-0.026
Mof_C 	C 	0.37129	0.5726	0.78413	0.341
Mof_O 	O 	0.3497	0.63171	0.79484	-0.262
Mof_O 	O 	0.68863	0.96494	0.67401	-0.393
Mof_O 	O 	0.62844	0.9854	0.58634	-0.242
Mof_C 	C 	0.6312	0.9709	0.6435	0.316
Mof_C 	C 	0.56405	0.9577	0.67961	-0.022
Mof_O 	O 	0.65208	0.98338	0.80983	-0.403
Mof_C 	C 	0.56403	0.9381	0.74342	-0.026
Mof_C 	C 	0.62871	0.9274	0.78413	0.341
Mof_O 	O 	0.6503	0.86829	0.79484	-0.262
Mof_O 	O 	0.18863	0.46494	0.17401	-0.393
Mof_O 	O 	0.12844	0.4854	0.08634	-0.243
Mof_C 	C 	0.1312	0.4709	0.1435	0.315
Mof_C 	C 	0.06405	0.4577	0.17961	-0.02
Mof_O 	O 	0.15208	0.48338	0.30983	-0.403
Mof_C 	C 	0.06403	0.4381	0.24342	-0.024
Mof_C 	C 	0.12871	0.4274	0.28413	0.34
Mof_O 	O 	0.1503	0.36829	0.29484	-0.263
Mof_O 	O 	0.71494	0.43863	0.92401	-0.393
Mof_O 	O 	0.7354	0.37844	0.83634	-0.241
Mof_C 	C 	0.7209	0.3812	0.8935	0.317
Mof_C 	C 	0.7077	0.31405	0.92961	-0.025
Mof_O 	O 	0.73338	0.40208	0.05983	-0.402
Mof_C 	C 	0.6881	0.31403	0.99342	-0.021
Mof_C 	C 	0.6774	0.37871	0.03413	0.338
Mof_O 	O 	0.61829	0.4003	0.04484	-0.262
Mof_O 	O 	0.21494	0.93863	0.42401	-0.392
Mof_O 	O 	0.2354	0.87844	0.33634	-0.242
Mof_C 	C 	0.2209	0.8812	0.3935	0.316
Mof_C 	C 	0.2077	0.81405	0.42961	-0.023
Mof_O 	O 	0.23338	0.90208	0.55983	-0.403
Mof_C 	C 	0.1881	0.81403	0.49342	-0.027
Mof_C 	C 	0.1774	0.87871	0.53413	0.342
Mof_O 	O 	0.11829	0.9003	0.54484	-0.264
Mof_O 	O 	0.78506	0.56137	0.42401	-0.392
Mof_O 	O 	0.7646	0.62156	0.33634	-0.241
Mof_C 	C 	0.7791	0.6188	0.3935	0.317
Mof_C 	C 	0.7923	0.68595	0.42961	-0.022
Mof_O 	O 	0.76662	0.59792	0.55983	-0.402
Mof_C 	C 	0.8119	0.68597	0.49342	-0.025
Mof_C 	C 	0.8226	0.62129	0.53413	0.34
Mof_O 	O 	0.88171	0.5997	0.54484	-0.259
Mof_O 	O 	0.28506	0.06137	0.92401	-0.391
Mof_O 	O 	0.2646	0.12156	0.83634	-0.242
Mof_C 	C 	0.2791	0.1188	0.8935	0.317
Mof_C 	C 	0.2923	0.18595	0.92961	-0.025
Mof_O 	O 	0.26662	0.09792	0.05983	-0.403
Mof_C 	C 	0.3119	0.18597	0.99342	-0.02
Mof_C 	C 	0.3226	0.12129	0.03413	0.337
Mof_O 	O 	0.38171	0.0997	0.04484	-0.262
Mof_O 	O 	0.31137	0.96494	0.67401	-0.393
Mof_O 	O 	0.37156	0.9854	0.58634	-0.242
Mof_C 	C 	0.3688	0.9709	0.6435	0.316
Mof_C 	C 	0.43595	0.9577	0.67961	-0.022
Mof_O 	O 	0.34792	0.98338	0.80983	-0.403
Mof_C 	C 	0.43597	0.9381	0.74342	-0.026
Mof_C 	C 	0.37129	0.9274	0.78413	0.341
Mof_O 	O 	0.3497	0.86829	0.79484	-0.262
Mof_O 	O 	0.81137	0.46494	0.17401	-0.392
Mof_O 	O 	0.87156	0.4854	0.08634	-0.238
Mof_C 	C 	0.8688	0.4709	0.1435	0.314
Mof_C 	C 	0.93595	0.4577	0.17961	-0.012
Mof_O 	O 	0.84792	0.48338	0.30983	-0.401
Mof_C 	C 	0.93597	0.4381	0.24342	-0.016
Mof_C 	C 	0.87129	0.4274	0.28413	0.339
Mof_O 	O 	0.8497	0.36829	0.29484	-0.26
Mof_O 	O 	0.18863	0.03506	0.17401	-0.393
Mof_O 	O 	0.12844	0.0146	0.08634	-0.244
Mof_C 	C 	0.1312	0.0291	0.1435	0.315
Mof_C 	C 	0.06405	0.0423	0.17961	-0.021
Mof_O 	O 	0.15208	0.01662	0.30983	-0.403
Mof_C 	C 	0.06403	0.0619	0.24342	-0.024
Mof_C 	C 	0.12871	0.0726	0.28413	0.34
Mof_O 	O 	0.1503	0.13171	0.29484	-0.263
Mof_O 	O 	0.68863	0.53506	0.67401	-0.393
Mof_O 	O 	0.62844	0.5146	0.58634	-0.242
Mof_C 	C 	0.6312	0.5291	0.6435	0.316
Mof_C 	C 	0.56405	0.5423	0.67961	-0.022
Mof_O 	O 	0.65208	0.51662	0.80983	-0.403
Mof_C 	C 	0.56403	0.5619	0.74342	-0.026
Mof_C 	C 	0.62871	0.5726	0.78413	0.341
Mof_O 	O 	0.6503	0.63171	0.79484	-0.262
Mof_O 	O 	0.78506	0.43863	0.57599	-0.392
Mof_O 	O 	0.7646	0.37844	0.66366	-0.241
Mof_C 	C 	0.7791	0.3812	0.6065	0.317
Mof_C 	C 	0.7923	0.31405	0.57039	-0.022
Mof_O 	O 	0.76662	0.40208	0.44017	-0.402
Mof_C 	C 	0.8119	0.31403	0.50658	-0.025
Mof_C 	C 	0.8226	0.37871	0.46587	0.34
Mof_O 	O 	0.88171	0.4003	0.45516	-0.259
Mof_O 	O 	0.28506	0.93863	0.07599	-0.391
Mof_O 	O 	0.2646	0.87844	0.16366	-0.242
Mof_C 	C 	0.2791	0.8812	0.1065	0.317
Mof_C 	C 	0.2923	0.81405	0.07039	-0.025
Mof_O 	O 	0.26662	0.90208	0.94017	-0.403
Mof_C 	C 	0.3119	0.81403	0.00658	-0.02
Mof_C 	C 	0.3226	0.87871	0.96587	0.337
Mof_O 	O 	0.38171	0.9003	0.95516	-0.262
Mof_O 	O 	0.71494	0.56137	0.07599	-0.393
Mof_O 	O 	0.7354	0.62156	0.16366	-0.241
Mof_C 	C 	0.7209	0.6188	0.1065	0.317
Mof_C 	C 	0.7077	0.68595	0.07039	-0.025
Mof_O 	O 	0.73338	0.59792	0.94017	-0.402
Mof_C 	C 	0.6881	0.68597	0.00658	-0.021
Mof_C 	C 	0.6774	0.62129	0.96587	0.338
Mof_O 	O 	0.61829	0.5997	0.95516	-0.262
Mof_O 	O 	0.21494	0.06137	0.57599	-0.392
Mof_O 	O 	0.2354	0.12156	0.66366	-0.242
Mof_C 	C 	0.2209	0.1188	0.6065	0.316
Mof_C 	C 	0.2077	0.18595	0.57039	-0.023
Mof_O 	O 	0.23338	0.09792	0.44017	-0.403
Mof_C 	C 	0.1881	0.18597	0.50658	-0.027
Mof_C 	C 	0.1774	0.12129	0.46587	0.342
Mof_O 	O 	0.11829	0.0997	0.45516	-0.264
Mof_O 	O 	0.18863	0.96494	0.82599	-0.393
Mof_O 	O 	0.12844	0.9854	0.91366	-0.244
Mof_C 	C 	0.1312	0.9709	0.8565	0.315
Mof_C 	C 	0.06405	0.9577	0.82039	-0.021
Mof_O 	O 	0.15208	0.98338	0.69017	-0.403
Mof_C 	C 	0.06403	0.9381	0.75658	-0.024
Mof_C 	C 	0.12871	0.9274	0.71587	0.34
Mof_O 	O 	0.1503	0.86829	0.70516	-0.263
Mof_O 	O 	0.68863	0.46494	0.32599	-0.393
Mof_O 	O 	0.62844	0.4854	0.41366	-0.242
Mof_C 	C 	0.6312	0.4709	0.3565	0.316
Mof_C 	C 	0.56405	0.4577	0.32039	-0.022
Mof_O 	O 	0.65208	0.48338	0.19017	-0.403
Mof_C 	C 	0.56403	0.4381	0.25658	-0.026
Mof_C 	C 	0.62871	0.4274	0.21587	0.341
Mof_O 	O 	0.6503	0.36829	0.20516	-0.262
Mof_O 	O 	0.31137	0.03506	0.32599	-0.393
Mof_O 	O 	0.37156	0.0146	0.41366	-0.242
Mof_C 	C 	0.3688	0.0291	0.3565	0.316
Mof_C 	C 	0.43595	0.0423	0.32039	-0.022
Mof_O 	O 	0.34792	0.01662	0.19017	-0.403
Mof_C 	C 	0.43597	0.0619	0.25658	-0.026
Mof_C 	C 	0.37129	0.0726	0.21587	0.341
Mof_O 	O 	0.3497	0.13171	0.20516	-0.262
Mof_O 	O 	0.81137	0.53506	0.82599	-0.392
Mof_O 	O 	0.87156	0.5146	0.91366	-0.238
Mof_C 	C 	0.8688	0.5291	0.8565	0.314
Mof_C 	C 	0.93595	0.5423	0.82039	-0.012
Mof_O 	O 	0.84792	0.51662	0.69017	-0.401
Mof_C 	C 	0.93597	0.5619	0.75658	-0.016
Mof_C 	C 	0.87129	0.5726	0.71587	0.339
Mof_O 	O 	0.8497	0.63171	0.70516	-0.26
Mof_Zn	Zn	0.27647	0.47353	0.125	1.249
Mof_Zn	Zn	0.22353	0.52647	0.625	1.249
Mof_Zn	Zn	0.77647	0.02647	0.375	1.249
Mof_Zn	Zn	0.72353	0.97353	0.875	1.248
Mof_Zn	Zn	0.22353	0.47353	0.375	1.249
Mof_Zn	Zn	0.27647	0.52647	0.875	1.249
Mof_Zn	Zn	0.72353	0.02647	0.125	1.248
Mof_Zn	Zn	0.77647	0.97353	0.625	1.249
Mof_Zn	Zn	0.72353	0.52647	0.875	1.249
Mof_Zn	Zn	0.77647	0.47353	0.375	1.249
Mof_Zn	Zn	0.22353	0.97353	0.625	1.249
Mof_Zn	Zn	0.27647	0.02647	0.125	1.248
Mof_Zn	Zn	0.77647	0.52647	0.625	1.249
Mof_Zn	Zn	0.72353	0.47353	0.125	1.249
Mof_Zn	Zn	0.27647	0.97353	0.875	1.248
Mof_Zn	Zn	0.22353	0.02647	0.375	1.249
Mof_C 	C 	0.2836	0.75	0.1002	-0.012
Mof_H 	H 	0.2712	0.75	0.1427	0.084
Mof_C 	C 	0.3212	0.75	0.9763	-0.014
Mof_H 	H 	0.3342	0.75	0.934	0.07
Mof_C 	C 	0.2164	0.25	0.6002	-0.015
Mof_H 	H 	0.2288	0.25	0.6427	0.085
Mof_C 	C 	0.1788	0.25	0.4763	-0.006
Mof_H 	H 	0.1658	0.25	0.434	0.067
Mof_C 	C 	0.5	0.0336	0.3502	-0.015
Mof_H 	H 	0.5	0.0212	0.3927	0.086
Mof_C 	C 	0.5	0.0712	0.2263	-0.006
Mof_H 	H 	0.5	0.0842	0.184	0.067
Mof_C 	C 	3.56861e-33	0.5336	0.8502	-0.03
Mof_H 	H 	3.74699e-33	0.5212	0.8927	0.087
Mof_C 	C 	-3.59125e-33	0.5712	0.7263	-0.021
Mof_H 	H 	2.871e-33	0.5842	0.684	0.069
Mof_C 	C 	2.3488e-32	0.9664	0.8502	-0.03
Mof_H 	H 	-9.53262e-33	0.9788	0.8927	0.087
Mof_C 	C 	-1.02311e-32	0.9288	0.7263	-0.021
Mof_H 	H 	-3.7688e-33	0.9158	0.684	0.069
Mof_C 	C 	0.5	0.4664	0.3502	-0.015
Mof_H 	H 	0.5	0.4788	0.3927	0.085
Mof_C 	C 	0.5	0.4288	0.2263	-0.006
Mof_H 	H 	0.5	0.4158	0.184	0.067
Mof_C 	C 	0.2164	0.75	0.3998	-0.015
Mof_H 	H 	0.2288	0.75	0.3573	0.085
Mof_C 	C 	0.1788	0.75	0.5237	-0.006
Mof_H 	H 	0.1658	0.75	0.566	0.067
Mof_C 	C 	0.2836	0.25	0.8998	-0.012
Mof_H 	H 	0.2712	0.25	0.8573	0.084
Mof_C 	C 	0.3212	0.25	0.0237	-0.014
Mof_H 	H 	0.3342	0.25	0.066	0.07
Mof_C 	C 	6.28766e-34	0.0336	0.1498	-0.03
Mof_H 	H 	4.50378e-34	0.0212	0.1073	0.087
Mof_C 	C 	-5.49098e-33	0.0712	0.2737	-0.021
Mof_H 	H 	1.32637e-33	0.0842	0.316	0.069
Mof_C 	C 	0.5	0.5336	0.6498	-0.015
Mof_H 	H 	0.5	0.5212	0.6073	0.085
Mof_C 	C 	0.5	0.5712	0.7737	-0.006
Mof_H 	H 	0.5	0.5842	0.816	0.067
Mof_C 	C 	0.5	0.9664	0.6498	-0.015
Mof_H 	H 	0.5	0.9788	0.6073	0.086
Mof_C 	C 	0.5	0.9288	0.7737	-0.006
Mof_H 	H 	0.5	0.9158	0.816	0.067
Mof_C 	C 	6.28766e-34	0.4664	0.1498	-0.03
Mof_H 	H 	5.43023e-33	0.4788	0.1073	0.087
Mof_C 	C 	-2.17108e-33	0.4288	0.2737	-0.021
Mof_H 	H 	-8.63334e-33	0.4158	0.316	0.069
Mof_C 	C 	0.7164	0.25	0.8998	-0.012
Mof_H 	H 	0.7288	0.25	0.8573	0.085
Mof_C 	C 	0.6788	0.25	0.0237	-0.014
Mof_H 	H 	0.6658	0.25	0.066	0.07
Mof_C 	C 	0.7836	0.75	0.3998	-0.014
Mof_H 	H 	0.7712	0.75	0.3573	0.086
Mof_C 	C 	0.8212	0.75	0.5237	-0.006
Mof_H 	H 	0.8342	0.75	0.566	0.068
Mof_C 	C 	0.7836	0.25	0.6002	-0.014
Mof_H 	H 	0.7712	0.25	0.6427	0.086
Mof_C 	C 	0.8212	0.25	0.4763	-0.006
Mof_H 	H 	0.8342	0.25	0.434	0.068
Mof_C 	C 	0.7164	0.75	0.1002	-0.012
Mof_H 	H 	0.7288	0.75	0.1427	0.085
Mof_C 	C 	0.6788	0.75	0.9763	-0.014
Mof_H 	H 	0.6658	0.75	0.934	0.07
_end
