# CIF file generated by openbabel 3.1.0, see https://openbabel.org
data_I
_chemical_name_common 'REGJIW02_clean'
_cell_length_a 5.494
_cell_length_b 7.9316
_cell_length_c 7.9316
_cell_angle_alpha 108.473
_cell_angle_beta 90.4003
_cell_angle_gamma 90.4003
_space_group_name_H-M_alt 'P 1'
_space_group_name_Hall 'P 1'
loop_
    _symmetry_equiv_pos_as_xyz
    x,y,z
loop_
    _atom_site_label
    _atom_site_type_symbol
    _atom_site_fract_x
    _atom_site_fract_y
    _atom_site_fract_z
    _atom_site_occupancy
    Co1      Co       0.50000    0.00000    0.00000    1.000
    Co2      Co       0.00000    0.88011    0.11989    1.000
    Co3      Co       0.00000    0.11989    0.88011    1.000
    H1       H        0.14400    0.80800    0.80800    1.000
    H2       H        0.85600    0.19200    0.19200    1.000
    C1       C        0.42460    0.00850    0.38390    1.000
    C2       C        0.65840    0.94780    0.43260    1.000
    C3       C        0.57540    0.61610    0.99150    1.000
    C4       C        0.34160    0.56740    0.05220    1.000
    C5       C        0.57540    0.99150    0.61610    1.000
    C6       C        0.34160    0.05220    0.56740    1.000
    C7       C        0.42460    0.38390    0.00850    1.000
    C8       C        0.65840    0.43260    0.94780    1.000
    O1       O        0.32900    0.02001    0.24299    1.000
    O2       O        0.85010    0.88186    0.35614    1.000
    O3       O        0.67100    0.75701    0.97999    1.000
    O4       O        0.14990    0.64386    0.11814    1.000
    O5       O        0.67100    0.97999    0.75701    1.000
    O6       O        0.14990    0.11814    0.64386    1.000
    O7       O        0.32900    0.24299    0.02001    1.000
    O8       O        0.85010    0.35614    0.88186    1.000
    O9       O        0.17440    0.89700    0.89700    1.000
    O10      O        0.82560    0.10300    0.10300    1.000
