data_functionalizedCrystal
_audit_creation_method	'EQeq! by Chris Wilmer'
_symmetry_space_group_name_H-M	'P1'
_symmetry_Int_Tables_number	1
_symmetry_cell_setting	triclinic
loop_
_symmetry_equiv_pos_as_xyz
  x,y,z
_cell_length_a	14.366
_cell_length_b	15.189
_cell_length_c	18.833
_cell_angle_alpha	67.91
_cell_angle_beta	82.666
_cell_angle_gamma	81.065
loop_
_atom_site_label
_atom_site_type_symbol
_atom_site_fract_x
_atom_site_fract_y
_atom_site_fract_z
_atom_site_charge
Mof_C 	C 	0.608	0.0371	0.2284	-0.005
Mof_H 	H 	0.6241	0.0655	0.1761	0.018
Mof_C 	C 	0.6526	0.0436	0.2832	0.012
Mof_H 	H 	0.7052	0.0753	0.2768	0.032
Mof_C 	C 	0.5352	0.9587	0.3336	0.112
Mof_H 	H 	0.4922	0.9219	0.3693	-0.026
Mof_C 	C 	0.6307	0.975	0.4273	0.243
Mof_C 	C 	0.5816	0.9139	0.4893	-0.285
Mof_H 	H 	0.5308	0.8876	0.4823	0.142
Mof_C 	C 	0.6097	0.8924	0.5627	0.232
Mof_C 	C 	0.6853	0.9299	0.5741	-0.29
Mof_H 	H 	0.704	0.9146	0.6232	0.125
Mof_C 	C 	0.7329	0.9912	0.5103	0.235
Mof_C 	C 	0.7059	0.0145	0.4375	-0.295
Mof_H 	H 	0.7379	0.0565	0.3955	0.139
Mof_C 	C 	0.4956	0.7728	0.6232	0.015
Mof_H 	H 	0.477	0.7689	0.5791	0.033
Mof_C 	C 	0.466	0.7238	0.6964	-0.003
Mof_H 	H 	0.4228	0.6792	0.7114	0.025
Mof_C 	C 	0.5639	0.8125	0.702	0.127
Mof_H 	H 	0.602	0.8423	0.7203	-0.045
Mof_C 	C 	0.8331	0.0358	0.5856	0.102
Mof_H 	H 	0.7988	0.0119	0.6328	-0.053
Mof_C 	C 	0.9385	0.1031	0.4978	-0.007
Mof_H 	H 	0.9911	0.1342	0.4733	0.033
Mof_C 	C 	0.8782	0.0742	0.4639	0.013
Mof_H 	H 	0.8812	0.0822	0.4122	0.004
Mof_C 	C 	0.5326	0.0541	0.0541	0.092
Mof_H 	H 	0.4837	0.1022	0.0536	-0.018
Mof_C 	C 	0.6205	0.9193	0.0851	-0.001
Mof_H 	H 	0.6432	0.8559	0.1114	0.035
Mof_C 	C 	0.6643	0.979	0.0231	0.002
Mof_H 	H 	0.7213	0.9647	0.9979	0.012
Mof_C 	C 	0.6251	0.1528	0.9408	0.222
Mof_C 	C 	0.5652	0.235	0.9345	-0.3
Mof_H 	H 	0.5137	0.2345	0.9699	0.155
Mof_C 	C 	0.5835	0.3179	0.8743	0.254
Mof_C 	C 	0.6579	0.322	0.8211	-0.31
Mof_H 	H 	0.6683	0.3792	0.781	0.144
Mof_C 	C 	0.717	0.2397	0.828	0.238
Mof_C 	C 	0.702	0.1548	0.8883	-0.316
Mof_H 	H 	0.7433	0.0996	0.8934	0.119
Mof_C 	C 	0.8391	0.3173	0.7248	0.004
Mof_H 	H 	0.8274	0.3795	0.7244	0.026
Mof_C 	C 	0.9034	0.2852	0.6803	0.007
Mof_H 	H 	0.9461	0.3217	0.6439	0.021
Mof_C 	C 	0.8292	0.1665	0.751	0.109
Mof_H 	H 	0.8088	0.1061	0.7725	-0.067
Mof_C 	C 	0.5463	0.4857	0.8631	0.112
Mof_H 	H 	0.6088	0.4972	0.8598	-0.009
Mof_C 	C 	0.4242	0.4142	0.8706	0.008
Mof_H 	H 	0.3858	0.3685	0.8743	0.04
Mof_C 	C 	0.3968	0.5033	0.8664	0.01
Mof_H 	H 	0.3344	0.5313	0.8659	0.031
Mof_C 	C 	0.306	0.7097	0.8964	0.357
Mof_C 	C 	0.2146	0.6966	0.9447	-0.192
Mof_C 	C 	0.2063	0.6808	0.0211	0.155
Mof_H 	H 	0.2595	0.6801	0.0448	-0.003
Mof_C 	C 	0.1209	0.666	0.0648	-0.283
Mof_H 	H 	0.1171	0.6541	0.1172	0.142
Mof_C 	C 	0.0423	0.669	0.0293	0.289
Mof_C 	C 	0.0465	0.6877	0.951	-0.281
Mof_H 	H 	0.9927	0.6908	0.9271	0.124
Mof_C 	C 	0.1332	0.7016	0.9096	0.145
Mof_H 	H 	0.1373	0.7146	0.857	-0.013
Mof_C 	C 	0.8782	0.6638	0.0381	0.32
Mof_C 	C 	0.8535	0.5872	0.0262	-0.313
Mof_H 	H 	0.8905	0.5283	0.0433	0.15
Mof_C 	C 	0.7735	0.5972	0.9886	0.177
Mof_H 	H 	0.756	0.5451	0.9811	-0.016
Mof_C 	C 	0.7193	0.6858	0.9621	-0.228
Mof_C 	C 	0.7437	0.7612	0.9771	0.18
Mof_H 	H 	0.7059	0.8197	0.9616	-0.042
Mof_C 	C 	0.8233	0.751	0.0148	-0.317
Mof_H 	H 	0.8396	0.8022	0.0243	0.143
Mof_C 	C 	0.633	0.6996	0.9204	0.384
Mof_C 	C 	0.4654	0.7511	0.2808	0.378
Mof_C 	C 	0.4534	0.6525	0.3336	-0.241
Mof_C 	C 	0.5253	0.5794	0.3323	0.204
Mof_H 	H 	0.5772	0.5942	0.2968	-0.025
Mof_C 	C 	0.5216	0.486	0.3822	-0.343
Mof_H 	H 	0.5701	0.4383	0.3807	0.163
Mof_C 	C 	0.445	0.4655	0.4335	0.368
Mof_C 	C 	0.3736	0.5357	0.4361	-0.357
Mof_H 	H 	0.322	0.5203	0.4718	0.161
Mof_C 	C 	0.3774	0.6289	0.3861	0.227
Mof_H 	H 	0.3284	0.6759	0.3881	-0.034
Mof_C 	C 	0.3659	0.3292	0.5111	0.446
Mof_C 	C 	0.3022	0.337	0.4595	-0.455
Mof_H 	H 	0.3128	0.3729	0.4075	0.192
Mof_C 	C 	0.2226	0.2904	0.4865	0.353
Mof_H 	H 	0.1778	0.2968	0.4529	-0.08
Mof_C 	C 	0.209	0.2338	0.564	-0.433
Mof_C 	C 	0.278	0.2263	0.613	0.373
Mof_H 	H 	0.2709	0.1878	0.6647	-0.092
Mof_C 	C 	0.3549	0.2744	0.586	-0.483
Mof_H 	H 	0.3998	0.2695	0.6192	0.213
Mof_C 	C 	0.1213	0.1825	0.5936	0.768
Mof_N 	N 	0.5348	0.9829	0.25932	-0.28
Mof_N 	N 	0.6052	0.9934	0.35203	-0.162
Mof_N 	N 	0.5584	0.8291	0.62695	-0.165
Mof_N 	N 	0.5089	0.7494	0.74555	-0.268
Mof_N 	N 	0.8115	0.0306	0.52017	-0.167
Mof_N 	N 	0.9096	0.0793	0.5739	-0.277
Mof_N 	N 	0.5358	0.9661	0.10447	-0.268
Mof_N 	N 	0.6086	0.0661	0.00359	-0.163
Mof_N 	N 	0.793	0.2401	0.7718	-0.168
Mof_N 	N 	0.8976	0.1899	0.6961	-0.28
Mof_N 	N 	0.4738	0.5484	0.8629	-0.249
Mof_N 	N 	0.5206	0.4034	0.8686	-0.164
Mof_O 	O 	0.9589	0.6541	0.07542	-0.314
Mof_O 	O 	0.4483	0.3726	0.4859	-0.362
Mof_O 	O 	0.3793	0.7032	0.9305	-0.447
Mof_O 	O 	0.3096	0.7203	0.82817	-0.349
Mof_O 	O 	0.5788	0.7732	0.90588	-0.409
Mof_O 	O 	0.6158	0.6311	0.9036	-0.452
Mof_O 	O 	0.5334	0.7685	0.2301	-0.369
Mof_O 	O 	0.4054	0.8168	0.288	-0.48
Mof_O 	O 	0.0555	0.2094	0.5516	-0.478
Mof_O 	O 	0.1249	0.1357	0.681	0.005
Mof_Zn	Zn	0.45302	0.93428	0.20537	1.166
Mof_Zn	Zn	0.97802	0.09642	0.65379	1.182
Mof_Zn	Zn	0.48812	0.68308	0.86036	1.209
Mof_O 	O 	0.1075	0.1219	0.6396	-0.719
Mof_C 	C 	0.392	0.9629	0.7716	-0.006
Mof_H 	H 	0.3759	0.9345	0.8239	0.017
Mof_C 	C 	0.3474	0.9564	0.7168	0.011
Mof_H 	H 	0.2948	0.9247	0.7232	0.031
Mof_C 	C 	0.4648	0.0413	0.6664	0.111
Mof_H 	H 	0.5078	0.0781	0.6307	-0.027
Mof_C 	C 	0.3693	0.025	0.5727	0.242
Mof_C 	C 	0.4184	0.0861	0.5107	-0.286
Mof_H 	H 	0.4692	0.1124	0.5177	0.141
Mof_C 	C 	0.3903	0.1076	0.4373	0.231
Mof_C 	C 	0.3147	0.0701	0.4259	-0.291
Mof_H 	H 	0.296	0.0854	0.3768	0.124
Mof_C 	C 	0.2671	0.0088	0.4897	0.235
Mof_C 	C 	0.2941	0.9855	0.5625	-0.295
Mof_H 	H 	0.2621	0.9435	0.6045	0.139
Mof_C 	C 	0.5044	0.2272	0.3768	0.015
Mof_H 	H 	0.523	0.2311	0.4209	0.033
Mof_C 	C 	0.534	0.2762	0.3036	-0.003
Mof_H 	H 	0.5772	0.3208	0.2886	0.025
Mof_C 	C 	0.4361	0.1875	0.298	0.127
Mof_H 	H 	0.398	0.1577	0.2797	-0.045
Mof_C 	C 	0.1669	0.9642	0.4144	0.102
Mof_H 	H 	0.2012	0.9881	0.3672	-0.053
Mof_C 	C 	0.0615	0.8969	0.5022	-0.007
Mof_H 	H 	0.0089	0.8658	0.5267	0.033
Mof_C 	C 	0.1218	0.9258	0.5361	0.013
Mof_H 	H 	0.1188	0.9178	0.5878	0.004
Mof_C 	C 	0.4674	0.9459	0.9459	0.092
Mof_H 	H 	0.5163	0.8978	0.9464	-0.018
Mof_C 	C 	0.3795	0.0807	0.9149	-0.001
Mof_H 	H 	0.3568	0.1441	0.8886	0.035
Mof_C 	C 	0.3357	0.021	0.9769	0.002
Mof_H 	H 	0.2787	0.0353	0.0021	0.012
Mof_C 	C 	0.3749	0.8472	0.0592	0.222
Mof_C 	C 	0.4348	0.765	0.0655	-0.3
Mof_H 	H 	0.4863	0.7655	0.0301	0.155
Mof_C 	C 	0.4165	0.6821	0.1257	0.254
Mof_C 	C 	0.3421	0.678	0.1789	-0.31
Mof_H 	H 	0.3317	0.6208	0.219	0.144
Mof_C 	C 	0.283	0.7603	0.172	0.238
Mof_C 	C 	0.298	0.8452	0.1117	-0.316
Mof_H 	H 	0.2567	0.9004	0.1066	0.119
Mof_C 	C 	0.1609	0.6827	0.2752	0.004
Mof_H 	H 	0.1726	0.6205	0.2756	0.026
Mof_C 	C 	0.0966	0.7148	0.3197	0.007
Mof_H 	H 	0.0539	0.6783	0.3561	0.021
Mof_C 	C 	0.1708	0.8335	0.249	0.109
Mof_H 	H 	0.1912	0.8939	0.2275	-0.067
Mof_C 	C 	0.4537	0.5143	0.1369	0.112
Mof_H 	H 	0.3912	0.5028	0.1402	-0.009
Mof_C 	C 	0.5758	0.5858	0.1294	0.008
Mof_H 	H 	0.6142	0.6315	0.1257	0.04
Mof_C 	C 	0.6032	0.4967	0.1336	0.01
Mof_H 	H 	0.6656	0.4687	0.1341	0.031
Mof_C 	C 	0.694	0.2903	0.1036	0.357
Mof_C 	C 	0.7854	0.3034	0.0553	-0.192
Mof_C 	C 	0.7937	0.3192	0.9789	0.155
Mof_H 	H 	0.7405	0.3199	0.9552	-0.003
Mof_C 	C 	0.8791	0.334	0.9352	-0.283
Mof_H 	H 	0.8829	0.3459	0.8828	0.142
Mof_C 	C 	0.9577	0.331	0.9707	0.289
Mof_C 	C 	0.9535	0.3123	0.049	-0.281
Mof_H 	H 	0.0073	0.3092	0.0729	0.124
Mof_C 	C 	0.8668	0.2984	0.0904	0.145
Mof_H 	H 	0.8627	0.2854	0.143	-0.013
Mof_C 	C 	0.1218	0.3362	0.9619	0.32
Mof_C 	C 	0.1465	0.4128	0.9738	-0.313
Mof_H 	H 	0.1095	0.4717	0.9567	0.15
Mof_C 	C 	0.2265	0.4028	0.0114	0.177
Mof_H 	H 	0.244	0.4549	0.0189	-0.016
Mof_C 	C 	0.2807	0.3142	0.0379	-0.228
Mof_C 	C 	0.2563	0.2388	0.0229	0.18
Mof_H 	H 	0.2941	0.1803	0.0384	-0.042
Mof_C 	C 	0.1767	0.249	0.9852	-0.317
Mof_H 	H 	0.1604	0.1978	0.9757	0.143
Mof_C 	C 	0.367	0.3004	0.0796	0.384
Mof_C 	C 	0.5346	0.2489	0.7192	0.378
Mof_C 	C 	0.5466	0.3475	0.6664	-0.241
Mof_C 	C 	0.4747	0.4206	0.6677	0.204
Mof_H 	H 	0.4228	0.4058	0.7032	-0.025
Mof_C 	C 	0.4784	0.514	0.6178	-0.343
Mof_H 	H 	0.4299	0.5617	0.6193	0.163
Mof_C 	C 	0.555	0.5345	0.5665	0.368
Mof_C 	C 	0.6264	0.4643	0.5639	-0.357
Mof_H 	H 	0.678	0.4797	0.5282	0.161
Mof_C 	C 	0.6226	0.3711	0.6139	0.227
Mof_H 	H 	0.6716	0.3241	0.6119	-0.034
Mof_C 	C 	0.6341	0.6708	0.4889	0.446
Mof_C 	C 	0.6978	0.663	0.5405	-0.455
Mof_H 	H 	0.6872	0.6271	0.5925	0.192
Mof_C 	C 	0.7774	0.7096	0.5135	0.353
Mof_H 	H 	0.8222	0.7032	0.5471	-0.08
Mof_C 	C 	0.791	0.7662	0.436	-0.433
Mof_C 	C 	0.722	0.7737	0.387	0.373
Mof_H 	H 	0.7291	0.8122	0.3353	-0.092
Mof_C 	C 	0.6451	0.7256	0.414	-0.483
Mof_H 	H 	0.6002	0.7305	0.3808	0.213
Mof_C 	C 	0.8787	0.8175	0.4064	0.768
Mof_N 	N 	0.4652	0.0171	0.74068	-0.28
Mof_N 	N 	0.3948	0.0066	0.64797	-0.162
Mof_N 	N 	0.4416	0.1709	0.37305	-0.165
Mof_N 	N 	0.4911	0.2506	0.25445	-0.268
Mof_N 	N 	0.1885	0.9694	0.47983	-0.167
Mof_N 	N 	0.0904	0.9207	0.4261	-0.277
Mof_N 	N 	0.4642	0.0339	0.89553	-0.268
Mof_N 	N 	0.3914	0.9339	0.99641	-0.163
Mof_N 	N 	0.207	0.7599	0.2282	-0.168
Mof_N 	N 	0.1024	0.8101	0.3039	-0.28
Mof_N 	N 	0.5262	0.4516	0.1371	-0.249
Mof_N 	N 	0.4794	0.5966	0.1314	-0.164
Mof_O 	O 	0.0411	0.3459	0.92458	-0.314
Mof_O 	O 	0.5517	0.6274	0.5141	-0.362
Mof_O 	O 	0.6207	0.2968	0.0695	-0.447
Mof_O 	O 	0.6904	0.2797	0.17183	-0.349
Mof_O 	O 	0.4212	0.2268	0.09412	-0.409
Mof_O 	O 	0.3842	0.3689	0.0964	-0.452
Mof_O 	O 	0.4666	0.2315	0.7699	-0.369
Mof_O 	O 	0.5946	0.1832	0.712	-0.48
Mof_O 	O 	0.9445	0.7906	0.4484	-0.478
Mof_O 	O 	0.8751	0.8643	0.319	0.005
Mof_Zn	Zn	0.54698	0.06572	0.79463	1.166
Mof_Zn	Zn	0.02198	0.90358	0.34621	1.182
Mof_Zn	Zn	0.51188	0.31692	0.13964	1.209
Mof_O 	O 	0.8925	0.8781	0.3604	-0.719
_end
