data_functionalizedCrystal
_audit_creation_method	'EQeq! by Chris Wilmer'
_symmetry_space_group_name_H-M	'P1'
_symmetry_Int_Tables_number	1
_symmetry_cell_setting	triclinic
loop_
_symmetry_equiv_pos_as_xyz
  x,y,z
_cell_length_a	18.348
_cell_length_b	18.348
_cell_length_c	34.631
_cell_angle_alpha	90
_cell_angle_beta	90
_cell_angle_gamma	120
loop_
_atom_site_label
_atom_site_type_symbol
_atom_site_fract_x
_atom_site_fract_y
_atom_site_fract_z
_atom_site_charge
Mof_O 	O 	0.704	0.1444	0.16416	-0.446
Mof_O 	O 	0.7448	0.1012	0.11235	-0.438
Mof_N 	N 	0.762	0.3112	0.2428	-0.047
Mof_C 	C 	0.5959	0.0604	0.07392	-0.026
Mof_H 	H 	0.6344	0.0494	0.0616	0.067
Mof_C 	C 	0.6121	0.0924	0.11085	-0.077
Mof_C 	C 	0.693	0.1135	0.13075	0.379
Mof_C 	C 	0.8525	0.3844	0.2427	0.03
Mof_C 	C 	0.7238	0.3197	0.2803	0.028
Mof_O 	O 	0.37067	0.47773	0.49749	-0.446
Mof_O 	O 	0.41147	0.43453	0.44568	-0.438
Mof_N 	N 	0.42867	0.64453	0.57613	-0.047
Mof_C 	C 	0.26257	0.39373	0.40725	-0.026
Mof_H 	H 	0.30107	0.38273	0.39493	0.067
Mof_C 	C 	0.27877	0.42573	0.44418	-0.077
Mof_C 	C 	0.35967	0.44683	0.46408	0.379
Mof_C 	C 	0.51917	0.71773	0.57603	0.03
Mof_C 	C 	0.39047	0.65303	0.61363	0.028
Mof_O 	O 	0.03733	0.81107	0.83083	-0.446
Mof_O 	O 	0.07813	0.76787	0.77902	-0.438
Mof_N 	N 	0.09533	0.97787	0.90947	-0.047
Mof_C 	C 	0.92923	0.72707	0.74059	-0.026
Mof_H 	H 	0.96773	0.71607	0.72827	0.067
Mof_C 	C 	0.94543	0.75907	0.77752	-0.076
Mof_C 	C 	0.02633	0.78017	0.79742	0.379
Mof_C 	C 	0.18583	0.05107	0.90937	0.03
Mof_C 	C 	0.05713	0.98637	0.94697	0.028
Mof_O 	O 	0.8556	0.5596	0.16416	-0.446
Mof_O 	O 	0.8988	0.6436	0.11235	-0.438
Mof_N 	N 	0.6888	0.4508	0.2428	-0.047
Mof_C 	C 	0.9396	0.5355	0.07392	-0.026
Mof_H 	H 	0.9506	0.585	0.0616	0.067
Mof_C 	C 	0.9076	0.5197	0.11085	-0.077
Mof_C 	C 	0.8865	0.5795	0.13075	0.379
Mof_C 	C 	0.6156	0.4681	0.2427	0.03
Mof_C 	C 	0.6803	0.4041	0.2803	0.028
Mof_O 	O 	0.52227	0.89293	0.49749	-0.446
Mof_O 	O 	0.56547	0.97693	0.44568	-0.438
Mof_N 	N 	0.35547	0.78413	0.57613	-0.047
Mof_C 	C 	0.60627	0.86883	0.40725	-0.026
Mof_H 	H 	0.61727	0.91833	0.39493	0.067
Mof_C 	C 	0.57427	0.85303	0.44418	-0.077
Mof_C 	C 	0.55317	0.91283	0.46408	0.379
Mof_C 	C 	0.28227	0.80143	0.57603	0.03
Mof_C 	C 	0.34697	0.73743	0.61363	0.028
Mof_O 	O 	0.18893	0.22627	0.83083	-0.446
Mof_O 	O 	0.23213	0.31027	0.77902	-0.438
Mof_N 	N 	0.02213	0.11747	0.90947	-0.047
Mof_C 	C 	0.27293	0.20217	0.74059	-0.026
Mof_H 	H 	0.28393	0.25167	0.72827	0.067
Mof_C 	C 	0.24093	0.18637	0.77752	-0.078
Mof_C 	C 	0.21983	0.24617	0.79742	0.378
Mof_C 	C 	0.94893	0.13477	0.90937	0.029
Mof_C 	C 	0.01363	0.07077	0.94697	0.027
Mof_O 	O 	0.4404	0.296	0.16416	-0.447
Mof_O 	O 	0.3564	0.2552	0.11235	-0.439
Mof_N 	N 	0.5492	0.238	0.2428	-0.048
Mof_C 	C 	0.4645	0.4041	0.07392	-0.027
Mof_H 	H 	0.415	0.3656	0.0616	0.066
Mof_C 	C 	0.4803	0.3879	0.11085	-0.078
Mof_C 	C 	0.4205	0.307	0.13075	0.378
Mof_C 	C 	0.5319	0.1475	0.2427	0.029
Mof_C 	C 	0.5959	0.2762	0.2803	0.027
Mof_O 	O 	0.10707	0.62933	0.49749	-0.447
Mof_O 	O 	0.02307	0.58853	0.44568	-0.439
Mof_N 	N 	0.21587	0.57133	0.57613	-0.048
Mof_C 	C 	0.13117	0.73743	0.40725	-0.027
Mof_H 	H 	0.08167	0.69893	0.39493	0.066
Mof_C 	C 	0.14697	0.72123	0.44418	-0.078
Mof_C 	C 	0.08717	0.64033	0.46408	0.378
Mof_C 	C 	0.19857	0.48083	0.57603	0.029
Mof_C 	C 	0.26257	0.60953	0.61363	0.027
Mof_O 	O 	0.77373	0.96267	0.83083	-0.447
Mof_O 	O 	0.68973	0.92187	0.77902	-0.439
Mof_N 	N 	0.88253	0.90467	0.90947	-0.048
Mof_C 	C 	0.79783	0.07077	0.74059	-0.027
Mof_H 	H 	0.74833	0.03227	0.72827	0.066
Mof_C 	C 	0.81363	0.05457	0.77752	-0.078
Mof_C 	C 	0.75383	0.97367	0.79742	0.378
Mof_C 	C 	0.86523	0.81417	0.90937	0.029
Mof_C 	C 	0.92923	0.94287	0.94697	0.027
Mof_O 	O 	0.1444	0.704	0.83584	-0.447
Mof_O 	O 	0.1012	0.7448	0.88765	-0.439
Mof_N 	N 	0.3112	0.762	0.7572	-0.048
Mof_C 	C 	0.0604	0.5959	0.92608	-0.027
Mof_H 	H 	0.0494	0.6344	0.9384	0.066
Mof_C 	C 	0.0924	0.6121	0.88915	-0.078
Mof_C 	C 	0.1135	0.693	0.86925	0.378
Mof_C 	C 	0.3844	0.8525	0.7573	0.029
Mof_C 	C 	0.3197	0.7238	0.7197	0.027
Mof_O 	O 	0.81107	0.03733	0.16917	-0.447
Mof_O 	O 	0.76787	0.07813	0.22098	-0.439
Mof_N 	N 	0.97787	0.09533	0.09053	-0.048
Mof_C 	C 	0.72707	0.92923	0.25941	-0.027
Mof_H 	H 	0.71607	0.96773	0.27173	0.066
Mof_C 	C 	0.75907	0.94543	0.22248	-0.077
Mof_C 	C 	0.78017	0.02633	0.20258	0.378
Mof_C 	C 	0.05107	0.18583	0.09063	0.029
Mof_C 	C 	0.98637	0.05713	0.05303	0.027
Mof_O 	O 	0.47773	0.37067	0.50251	-0.447
Mof_O 	O 	0.43453	0.41147	0.55432	-0.439
Mof_N 	N 	0.64453	0.42867	0.42387	-0.048
Mof_C 	C 	0.39373	0.26257	0.59275	-0.027
Mof_H 	H 	0.38273	0.30107	0.60507	0.066
Mof_C 	C 	0.42573	0.27877	0.55582	-0.078
Mof_C 	C 	0.44683	0.35967	0.53592	0.378
Mof_C 	C 	0.71773	0.51917	0.42397	0.029
Mof_C 	C 	0.65303	0.39047	0.38637	0.027
Mof_O 	O 	0.5596	0.8556	0.83584	-0.447
Mof_O 	O 	0.6436	0.8988	0.88765	-0.439
Mof_N 	N 	0.4508	0.6888	0.7572	-0.048
Mof_C 	C 	0.5355	0.9396	0.92608	-0.027
Mof_H 	H 	0.585	0.9506	0.9384	0.066
Mof_C 	C 	0.5197	0.9076	0.88915	-0.078
Mof_C 	C 	0.5795	0.8865	0.86925	0.378
Mof_C 	C 	0.4681	0.6156	0.7573	0.029
Mof_C 	C 	0.4041	0.6803	0.7197	0.027
Mof_O 	O 	0.22627	0.18893	0.16917	-0.447
Mof_O 	O 	0.31027	0.23213	0.22098	-0.439
Mof_N 	N 	0.11747	0.02213	0.09053	-0.048
Mof_C 	C 	0.20217	0.27293	0.25941	-0.027
Mof_H 	H 	0.25167	0.28393	0.27173	0.066
Mof_C 	C 	0.18637	0.24093	0.22248	-0.078
Mof_C 	C 	0.24617	0.21983	0.20258	0.378
Mof_C 	C 	0.13477	0.94893	0.09063	0.029
Mof_C 	C 	0.07077	0.01363	0.05303	0.027
Mof_O 	O 	0.89293	0.52227	0.50251	-0.447
Mof_O 	O 	0.97693	0.56547	0.55432	-0.439
Mof_N 	N 	0.78413	0.35547	0.42387	-0.048
Mof_C 	C 	0.86883	0.60627	0.59275	-0.027
Mof_H 	H 	0.91833	0.61727	0.60507	0.066
Mof_C 	C 	0.85303	0.57427	0.55582	-0.078
Mof_C 	C 	0.91283	0.55317	0.53592	0.378
Mof_C 	C 	0.80143	0.28227	0.42397	0.029
Mof_C 	C 	0.73743	0.34697	0.38637	0.027
Mof_O 	O 	0.296	0.4404	0.83584	-0.447
Mof_O 	O 	0.2552	0.3564	0.88765	-0.439
Mof_N 	N 	0.238	0.5492	0.7572	-0.048
Mof_C 	C 	0.4041	0.4645	0.92608	-0.027
Mof_H 	H 	0.3656	0.415	0.9384	0.066
Mof_C 	C 	0.3879	0.4803	0.88915	-0.078
Mof_C 	C 	0.307	0.4205	0.86925	0.378
Mof_C 	C 	0.1475	0.5319	0.7573	0.029
Mof_C 	C 	0.2762	0.5959	0.7197	0.027
Mof_O 	O 	0.96267	0.77373	0.16917	-0.447
Mof_O 	O 	0.92187	0.68973	0.22098	-0.439
Mof_N 	N 	0.90467	0.88253	0.09053	-0.048
Mof_C 	C 	0.07077	0.79783	0.25941	-0.027
Mof_H 	H 	0.03227	0.74833	0.27173	0.066
Mof_C 	C 	0.05457	0.81363	0.22248	-0.078
Mof_C 	C 	0.97367	0.75383	0.20258	0.378
Mof_C 	C 	0.81417	0.86523	0.09063	0.029
Mof_C 	C 	0.94287	0.92923	0.05303	0.027
Mof_O 	O 	0.62933	0.10707	0.50251	-0.447
Mof_O 	O 	0.58853	0.02307	0.55432	-0.439
Mof_N 	N 	0.57133	0.21587	0.42387	-0.048
Mof_C 	C 	0.73743	0.13117	0.59275	-0.027
Mof_H 	H 	0.69893	0.08167	0.60507	0.066
Mof_C 	C 	0.72123	0.14697	0.55582	-0.078
Mof_C 	C 	0.64033	0.08717	0.53592	0.378
Mof_C 	C 	0.48083	0.19857	0.42397	0.029
Mof_C 	C 	0.60953	0.26257	0.38637	0.027
Mof_O 	O 	0.296	0.8556	0.83584	-0.447
Mof_O 	O 	0.2552	0.8988	0.88765	-0.439
Mof_N 	N 	0.238	0.6888	0.7572	-0.048
Mof_C 	C 	0.4041	0.9396	0.92608	-0.027
Mof_H 	H 	0.3656	0.9506	0.9384	0.066
Mof_C 	C 	0.3879	0.9076	0.88915	-0.078
Mof_C 	C 	0.307	0.8865	0.86925	0.378
Mof_C 	C 	0.1475	0.6156	0.7573	0.029
Mof_C 	C 	0.2762	0.6803	0.7197	0.027
Mof_O 	O 	0.96267	0.18893	0.16917	-0.447
Mof_O 	O 	0.92187	0.23213	0.22098	-0.439
Mof_N 	N 	0.90467	0.02213	0.09053	-0.048
Mof_C 	C 	0.07077	0.27293	0.25941	-0.027
Mof_H 	H 	0.03227	0.28393	0.27173	0.066
Mof_C 	C 	0.05457	0.24093	0.22248	-0.077
Mof_C 	C 	0.97367	0.21983	0.20258	0.378
Mof_C 	C 	0.81417	0.94893	0.09063	0.029
Mof_C 	C 	0.94287	0.01363	0.05303	0.027
Mof_O 	O 	0.62933	0.52227	0.50251	-0.447
Mof_O 	O 	0.58853	0.56547	0.55432	-0.439
Mof_N 	N 	0.57133	0.35547	0.42387	-0.048
Mof_C 	C 	0.73743	0.60627	0.59275	-0.027
Mof_H 	H 	0.69893	0.61727	0.60507	0.066
Mof_C 	C 	0.72123	0.57427	0.55582	-0.078
Mof_C 	C 	0.64033	0.55317	0.53592	0.378
Mof_C 	C 	0.48083	0.28227	0.42397	0.029
Mof_C 	C 	0.60953	0.34697	0.38637	0.027
Mof_O 	O 	0.1444	0.4404	0.83584	-0.447
Mof_O 	O 	0.1012	0.3564	0.88765	-0.439
Mof_N 	N 	0.3112	0.5492	0.7572	-0.048
Mof_C 	C 	0.0604	0.4645	0.92608	-0.027
Mof_H 	H 	0.0494	0.415	0.9384	0.066
Mof_C 	C 	0.0924	0.4803	0.88915	-0.078
Mof_C 	C 	0.1135	0.4205	0.86925	0.378
Mof_C 	C 	0.3844	0.5319	0.7573	0.029
Mof_C 	C 	0.3197	0.5959	0.7197	0.027
Mof_O 	O 	0.81107	0.77373	0.16917	-0.447
Mof_O 	O 	0.76787	0.68973	0.22098	-0.439
Mof_N 	N 	0.97787	0.88253	0.09053	-0.048
Mof_C 	C 	0.72707	0.79783	0.25941	-0.027
Mof_H 	H 	0.71607	0.74833	0.27173	0.066
Mof_C 	C 	0.75907	0.81363	0.22248	-0.078
Mof_C 	C 	0.78017	0.75383	0.20258	0.378
Mof_C 	C 	0.05107	0.86523	0.09063	0.029
Mof_C 	C 	0.98637	0.92923	0.05303	0.027
Mof_O 	O 	0.47773	0.10707	0.50251	-0.447
Mof_O 	O 	0.43453	0.02307	0.55432	-0.439
Mof_N 	N 	0.64453	0.21587	0.42387	-0.048
Mof_C 	C 	0.39373	0.13117	0.59275	-0.027
Mof_H 	H 	0.38273	0.08167	0.60507	0.066
Mof_C 	C 	0.42573	0.14697	0.55582	-0.078
Mof_C 	C 	0.44683	0.08717	0.53592	0.378
Mof_C 	C 	0.71773	0.19857	0.42397	0.029
Mof_C 	C 	0.65303	0.26257	0.38637	0.027
Mof_O 	O 	0.5596	0.704	0.83584	-0.447
Mof_O 	O 	0.6436	0.7448	0.88765	-0.439
Mof_N 	N 	0.4508	0.762	0.7572	-0.048
Mof_C 	C 	0.5355	0.5959	0.92608	-0.027
Mof_H 	H 	0.585	0.6344	0.9384	0.066
Mof_C 	C 	0.5197	0.6121	0.88915	-0.078
Mof_C 	C 	0.5795	0.693	0.86925	0.378
Mof_C 	C 	0.4681	0.8525	0.7573	0.029
Mof_C 	C 	0.4041	0.7238	0.7197	0.027
Mof_O 	O 	0.22627	0.03733	0.16917	-0.447
Mof_O 	O 	0.31027	0.07813	0.22098	-0.439
Mof_N 	N 	0.11747	0.09533	0.09053	-0.048
Mof_C 	C 	0.20217	0.92923	0.25941	-0.027
Mof_H 	H 	0.25167	0.96773	0.27173	0.066
Mof_C 	C 	0.18637	0.94543	0.22248	-0.078
Mof_C 	C 	0.24617	0.02633	0.20258	0.378
Mof_C 	C 	0.13477	0.18583	0.09063	0.029
Mof_C 	C 	0.07077	0.05713	0.05303	0.027
Mof_O 	O 	0.89293	0.37067	0.50251	-0.447
Mof_O 	O 	0.97693	0.41147	0.55432	-0.439
Mof_N 	N 	0.78413	0.42867	0.42387	-0.048
Mof_C 	C 	0.86883	0.26257	0.59275	-0.027
Mof_H 	H 	0.91833	0.30107	0.60507	0.066
Mof_C 	C 	0.85303	0.27877	0.55582	-0.078
Mof_C 	C 	0.91283	0.35967	0.53592	0.378
Mof_C 	C 	0.80143	0.51917	0.42397	0.029
Mof_C 	C 	0.73743	0.39047	0.38637	0.027
Mof_O 	O 	0.8556	0.296	0.16416	-0.447
Mof_O 	O 	0.8988	0.2552	0.11235	-0.439
Mof_N 	N 	0.6888	0.238	0.2428	-0.048
Mof_C 	C 	0.9396	0.4041	0.07392	-0.027
Mof_H 	H 	0.9506	0.3656	0.0616	0.066
Mof_C 	C 	0.9076	0.3879	0.11085	-0.078
Mof_C 	C 	0.8865	0.307	0.13075	0.378
Mof_C 	C 	0.6156	0.1475	0.2427	0.029
Mof_C 	C 	0.6803	0.2762	0.2803	0.027
Mof_O 	O 	0.52227	0.62933	0.49749	-0.447
Mof_O 	O 	0.56547	0.58853	0.44568	-0.439
Mof_N 	N 	0.35547	0.57133	0.57613	-0.048
Mof_C 	C 	0.60627	0.73743	0.40725	-0.027
Mof_H 	H 	0.61727	0.69893	0.39493	0.066
Mof_C 	C 	0.57427	0.72123	0.44418	-0.078
Mof_C 	C 	0.55317	0.64033	0.46408	0.378
Mof_C 	C 	0.28227	0.48083	0.57603	0.029
Mof_C 	C 	0.34697	0.60953	0.61363	0.027
Mof_O 	O 	0.18893	0.96267	0.83083	-0.447
Mof_O 	O 	0.23213	0.92187	0.77902	-0.439
Mof_N 	N 	0.02213	0.90467	0.90947	-0.048
Mof_C 	C 	0.27293	0.07077	0.74059	-0.027
Mof_H 	H 	0.28393	0.03227	0.72827	0.066
Mof_C 	C 	0.24093	0.05457	0.77752	-0.077
Mof_C 	C 	0.21983	0.97367	0.79742	0.378
Mof_C 	C 	0.94893	0.81417	0.90937	0.029
Mof_C 	C 	0.01363	0.94287	0.94697	0.027
Mof_O 	O 	0.4404	0.1444	0.16416	-0.447
Mof_O 	O 	0.3564	0.1012	0.11235	-0.439
Mof_N 	N 	0.5492	0.3112	0.2428	-0.048
Mof_C 	C 	0.4645	0.0604	0.07392	-0.027
Mof_H 	H 	0.415	0.0494	0.0616	0.066
Mof_C 	C 	0.4803	0.0924	0.11085	-0.078
Mof_C 	C 	0.4205	0.1135	0.13075	0.378
Mof_C 	C 	0.5319	0.3844	0.2427	0.029
Mof_C 	C 	0.5959	0.3197	0.2803	0.027
Mof_O 	O 	0.10707	0.47773	0.49749	-0.447
Mof_O 	O 	0.02307	0.43453	0.44568	-0.439
Mof_N 	N 	0.21587	0.64453	0.57613	-0.048
Mof_C 	C 	0.13117	0.39373	0.40725	-0.027
Mof_H 	H 	0.08167	0.38273	0.39493	0.066
Mof_C 	C 	0.14697	0.42573	0.44418	-0.078
Mof_C 	C 	0.08717	0.44683	0.46408	0.378
Mof_C 	C 	0.19857	0.71773	0.57603	0.029
Mof_C 	C 	0.26257	0.65303	0.61363	0.027
Mof_O 	O 	0.77373	0.81107	0.83083	-0.447
Mof_O 	O 	0.68973	0.76787	0.77902	-0.439
Mof_N 	N 	0.88253	0.97787	0.90947	-0.048
Mof_C 	C 	0.79783	0.72707	0.74059	-0.027
Mof_H 	H 	0.74833	0.71607	0.72827	0.066
Mof_C 	C 	0.81363	0.75907	0.77752	-0.078
Mof_C 	C 	0.75383	0.78017	0.79742	0.378
Mof_C 	C 	0.86523	0.05107	0.90937	0.029
Mof_C 	C 	0.92923	0.98637	0.94697	0.027
Mof_O 	O 	0.704	0.5596	0.16416	-0.447
Mof_O 	O 	0.7448	0.6436	0.11235	-0.439
Mof_N 	N 	0.762	0.4508	0.2428	-0.048
Mof_C 	C 	0.5959	0.5355	0.07392	-0.027
Mof_H 	H 	0.6344	0.585	0.0616	0.066
Mof_C 	C 	0.6121	0.5197	0.11085	-0.078
Mof_C 	C 	0.693	0.5795	0.13075	0.378
Mof_C 	C 	0.8525	0.4681	0.2427	0.029
Mof_C 	C 	0.7238	0.4041	0.2803	0.027
Mof_O 	O 	0.37067	0.89293	0.49749	-0.447
Mof_O 	O 	0.41147	0.97693	0.44568	-0.439
Mof_N 	N 	0.42867	0.78413	0.57613	-0.048
Mof_C 	C 	0.26257	0.86883	0.40725	-0.027
Mof_H 	H 	0.30107	0.91833	0.39493	0.066
Mof_C 	C 	0.27877	0.85303	0.44418	-0.078
Mof_C 	C 	0.35967	0.91283	0.46408	0.378
Mof_C 	C 	0.51917	0.80143	0.57603	0.029
Mof_C 	C 	0.39047	0.73743	0.61363	0.027
Mof_O 	O 	0.03733	0.22627	0.83083	-0.447
Mof_O 	O 	0.07813	0.31027	0.77902	-0.439
Mof_N 	N 	0.09533	0.11747	0.90947	-0.048
Mof_C 	C 	0.92923	0.20217	0.74059	-0.027
Mof_H 	H 	0.96773	0.25167	0.72827	0.066
Mof_C 	C 	0.94543	0.18637	0.77752	-0.078
Mof_C 	C 	0.02633	0.24617	0.79742	0.378
Mof_C 	C 	0.18583	0.13477	0.90937	0.029
Mof_C 	C 	0.05713	0.07077	0.94697	0.027
Mof_Zn	Zn	0.80414	0.19586	0.20159	1.229
Mof_O 	O 	0.76208	0.23792	0.24354	-0.28
Mof_C 	C 	0.6991	0.3009	0.2098	0.034
Mof_Zn	Zn	0.47081	0.52919	0.53492	1.229
Mof_O 	O 	0.42875	0.57125	0.57687	-0.28
Mof_C 	C 	0.36577	0.63423	0.54313	0.034
Mof_Zn	Zn	0.13747	0.86253	0.86826	1.229
Mof_O 	O 	0.09541	0.90459	0.91021	-0.28
Mof_C 	C 	0.03243	0.96757	0.87647	0.034
Mof_Zn	Zn	0.80414	0.60828	0.20159	1.229
Mof_O 	O 	0.76208	0.52416	0.24354	-0.28
Mof_C 	C 	0.6991	0.3982	0.2098	0.034
Mof_Zn	Zn	0.47081	0.94162	0.53492	1.229
Mof_O 	O 	0.42875	0.85749	0.57687	-0.28
Mof_C 	C 	0.36577	0.73153	0.54313	0.034
Mof_Zn	Zn	0.13747	0.27495	0.86826	1.229
Mof_O 	O 	0.09541	0.19083	0.91021	-0.28
Mof_C 	C 	0.03243	0.06487	0.87647	0.034
Mof_Zn	Zn	0.39172	0.19586	0.20159	1.229
Mof_O 	O 	0.47584	0.23792	0.24354	-0.28
Mof_C 	C 	0.6018	0.3009	0.2098	0.034
Mof_Zn	Zn	0.05838	0.52919	0.53492	1.229
Mof_O 	O 	0.14251	0.57125	0.57687	-0.28
Mof_C 	C 	0.26847	0.63423	0.54313	0.034
Mof_Zn	Zn	0.72505	0.86253	0.86826	1.229
Mof_O 	O 	0.80917	0.90459	0.91021	-0.28
Mof_C 	C 	0.93513	0.96757	0.87647	0.034
Mof_Zn	Zn	0.19586	0.80414	0.79841	1.229
Mof_O 	O 	0.23792	0.76208	0.75646	-0.28
Mof_C 	C 	0.3009	0.6991	0.7902	0.034
Mof_Zn	Zn	0.86253	0.13747	0.13174	1.229
Mof_O 	O 	0.90459	0.09541	0.08979	-0.28
Mof_C 	C 	0.96757	0.03243	0.12353	0.034
Mof_Zn	Zn	0.52919	0.47081	0.46508	1.229
Mof_O 	O 	0.57125	0.42875	0.42313	-0.28
Mof_C 	C 	0.63423	0.36577	0.45687	0.034
Mof_Zn	Zn	0.60828	0.80414	0.79841	1.229
Mof_O 	O 	0.52416	0.76208	0.75646	-0.28
Mof_C 	C 	0.3982	0.6991	0.7902	0.034
Mof_Zn	Zn	0.27495	0.13747	0.13174	1.229
Mof_O 	O 	0.19083	0.09541	0.08979	-0.28
Mof_C 	C 	0.06487	0.03243	0.12353	0.034
Mof_Zn	Zn	0.94162	0.47081	0.46508	1.229
Mof_O 	O 	0.85749	0.42875	0.42313	-0.28
Mof_C 	C 	0.73153	0.36577	0.45687	0.034
Mof_Zn	Zn	0.19586	0.39172	0.79841	1.229
Mof_O 	O 	0.23792	0.47584	0.75646	-0.28
Mof_C 	C 	0.3009	0.6018	0.7902	0.034
Mof_Zn	Zn	0.86253	0.72505	0.13174	1.229
Mof_O 	O 	0.90459	0.80917	0.08979	-0.28
Mof_C 	C 	0.96757	0.93513	0.12353	0.034
Mof_Zn	Zn	0.52919	0.05838	0.46508	1.229
Mof_O 	O 	0.57125	0.14251	0.42313	-0.28
Mof_C 	C 	0.63423	0.26847	0.45687	0.034
Mof_C 	C 	0.50575	0.0115	0.016	-0.008
Mof_C 	C 	0.52205	0.0441	0.0546	0.021
Mof_C 	C 	0.55415	0.1083	0.1296	0.022
Mof_H 	H 	0.5648	0.1296	0.1546	0.057
Mof_C 	C 	0.17242	0.34483	0.34933	-0.008
Mof_C 	C 	0.18872	0.37743	0.38793	0.021
Mof_C 	C 	0.22082	0.44163	0.46293	0.022
Mof_H 	H 	0.23147	0.46293	0.48793	0.057
Mof_C 	C 	0.83908	0.67817	0.68267	-0.008
Mof_C 	C 	0.85538	0.71077	0.72127	0.021
Mof_C 	C 	0.88748	0.77497	0.79627	0.022
Mof_H 	H 	0.89813	0.79627	0.82127	0.057
Mof_C 	C 	0.9885	0.49425	0.016	-0.008
Mof_C 	C 	0.9559	0.47795	0.0546	0.021
Mof_C 	C 	0.8917	0.44585	0.1296	0.022
Mof_H 	H 	0.8704	0.4352	0.1546	0.057
Mof_C 	C 	0.65517	0.82758	0.34933	-0.008
Mof_C 	C 	0.62257	0.81128	0.38793	0.021
Mof_C 	C 	0.55837	0.77918	0.46293	0.022
Mof_H 	H 	0.53707	0.76853	0.48793	0.057
Mof_C 	C 	0.32183	0.16092	0.68267	-0.008
Mof_C 	C 	0.28923	0.14462	0.72127	0.021
Mof_C 	C 	0.22503	0.11252	0.79627	0.022
Mof_H 	H 	0.20373	0.10187	0.82127	0.057
Mof_C 	C 	0.50575	0.49425	0.016	-0.008
Mof_C 	C 	0.52205	0.47795	0.0546	0.021
Mof_C 	C 	0.55415	0.44585	0.1296	0.022
Mof_H 	H 	0.5648	0.4352	0.1546	0.057
Mof_C 	C 	0.17242	0.82758	0.34933	-0.008
Mof_C 	C 	0.18872	0.81128	0.38793	0.021
Mof_C 	C 	0.22082	0.77918	0.46293	0.022
Mof_H 	H 	0.23147	0.76853	0.48793	0.057
Mof_C 	C 	0.83908	0.16092	0.68267	-0.008
Mof_C 	C 	0.85538	0.14462	0.72127	0.021
Mof_C 	C 	0.88748	0.11252	0.79627	0.022
Mof_H 	H 	0.89813	0.10187	0.82127	0.057
Mof_C 	C 	0.0115	0.50575	0.984	-0.008
Mof_C 	C 	0.0441	0.52205	0.9454	0.021
Mof_C 	C 	0.1083	0.55415	0.8704	0.022
Mof_H 	H 	0.1296	0.5648	0.8454	0.057
Mof_C 	C 	0.67817	0.83908	0.31733	-0.008
Mof_C 	C 	0.71077	0.85538	0.27873	0.021
Mof_C 	C 	0.77497	0.88748	0.20373	0.022
Mof_H 	H 	0.79627	0.89813	0.17873	0.057
Mof_C 	C 	0.34483	0.17242	0.65067	-0.008
Mof_C 	C 	0.37743	0.18872	0.61207	0.021
Mof_C 	C 	0.44163	0.22082	0.53707	0.022
Mof_H 	H 	0.46293	0.23147	0.51207	0.057
Mof_C 	C 	0.49425	0.9885	0.984	-0.008
Mof_C 	C 	0.47795	0.9559	0.9454	0.021
Mof_C 	C 	0.44585	0.8917	0.8704	0.022
Mof_H 	H 	0.4352	0.8704	0.8454	0.057
Mof_C 	C 	0.16092	0.32183	0.31733	-0.008
Mof_C 	C 	0.14462	0.28923	0.27873	0.021
Mof_C 	C 	0.11252	0.22503	0.20373	0.022
Mof_H 	H 	0.10187	0.20373	0.17873	0.057
Mof_C 	C 	0.82758	0.65517	0.65067	-0.008
Mof_C 	C 	0.81128	0.62257	0.61207	0.021
Mof_C 	C 	0.77918	0.55837	0.53707	0.022
Mof_H 	H 	0.76853	0.53707	0.51207	0.057
Mof_C 	C 	0.49425	0.50575	0.984	-0.008
Mof_C 	C 	0.47795	0.52205	0.9454	0.021
Mof_C 	C 	0.44585	0.55415	0.8704	0.022
Mof_H 	H 	0.4352	0.5648	0.8454	0.057
Mof_C 	C 	0.16092	0.83908	0.31733	-0.008
Mof_C 	C 	0.14462	0.85538	0.27873	0.021
Mof_C 	C 	0.11252	0.88748	0.20373	0.022
Mof_H 	H 	0.10187	0.89813	0.17873	0.057
Mof_C 	C 	0.82758	0.17242	0.65067	-0.008
Mof_C 	C 	0.81128	0.18872	0.61207	0.021
Mof_C 	C 	0.77918	0.22082	0.53707	0.022
Mof_H 	H 	0.76853	0.23147	0.51207	0.057
_end
