data_functionalizedCrystal
_audit_creation_method	'EQeq! by Chris Wilmer'
_symmetry_space_group_name_H-M	'P1'
_symmetry_Int_Tables_number	1
_symmetry_cell_setting	triclinic
loop_
_symmetry_equiv_pos_as_xyz
  x,y,z
_cell_length_a	21.2245
_cell_length_b	21.2245
_cell_length_c	21.2245
_cell_angle_alpha	90
_cell_angle_beta	90
_cell_angle_gamma	90
loop_
_atom_site_label
_atom_site_type_symbol
_atom_site_fract_x
_atom_site_fract_y
_atom_site_fract_z
_atom_site_charge
Mof_Bi	Bi	0.27771	0.42258	0.52774	0.93
Mof_Na	Na	0.08647	0.44965	0.32479	2.34
Mof_Na	Na	0.00812	0.54555	0.2142	2.401
Mof_O 	O 	0.1768	0.2582	0.3615	-0.197
Mof_O 	O 	0.4237	0.258	0.6623	-0.25
Mof_O 	O 	0.2427	0.3984	0.4325	-0.331
Mof_O 	O 	0.3266	0.3912	0.6184	-0.323
Mof_O 	O 	0.2182	0.3401	0.5451	-0.345
Mof_O 	O 	0.346	0.3538	0.4976	-0.356
Mof_O 	O 	0.0856	0.3404	0.5452	-0.366
Mof_O 	O 	0.4733	0.3772	0.4804	-0.367
Mof_O 	O 	0.119	0.3503	0.3753	-0.462
Mof_O 	O 	0.4649	0.3596	0.6532	-0.488
Mof_O 	O 	0.0205	0.4275	0.4138	-0.977
Mof_H 	H 	0.0202	0.4442	0.4445	0.449
Mof_O 	O 	0.5482	0.4532	0.6158	-0.951
Mof_H 	H 	0.5355	0.4691	0.5875	0.427
Mof_C 	C 	0.1803	0.3238	0.3714	0.237
Mof_H 	H 	0.2013	0.3423	0.3359	-0.065
Mof_C 	C 	0.409	0.323	0.6611	0.263
Mof_H 	H 	0.3905	0.3339	0.7009	-0.099
Mof_C 	C 	0.2214	0.3349	0.4298	-0.016
Mof_H 	H 	0.2572	0.3073	0.4281	0.035
Mof_C 	C 	0.3592	0.3339	0.6092	-0.038
Mof_H 	H 	0.3293	0.3	0.6107	0.035
Mof_C 	C 	0.1838	0.3208	0.49	0.046
Mof_H 	H 	0.1767	0.2762	0.4924	0.001
Mof_C 	C 	0.3901	0.3344	0.5443	0.071
Mof_H 	H 	0.4034	0.2922	0.5346	-0.017
Mof_C 	C 	0.1196	0.3542	0.4891	0.106
Mof_H 	H 	0.1264	0.3989	0.4868	-0.041
Mof_C 	C 	0.4477	0.3772	0.5427	0.087
Mof_H 	H 	0.4351	0.4192	0.5535	-0.044
Mof_C 	C 	0.0835	0.3332	0.431	-0.091
Mof_H 	H 	0.0791	0.2882	0.4322	0.048
Mof_C 	C 	0.4946	0.3535	0.5916	-0.068
Mof_H 	H 	0.5039	0.3099	0.5837	0.04
Mof_C 	C 	0.0184	0.3624	0.4242	0.355
Mof_H 	H 	0.997	0.3427	0.3896	-0.105
Mof_H 	H 	0.9946	0.3543	0.4617	-0.136
Mof_C 	C 	0.5557	0.3903	0.5954	0.295
Mof_H 	H 	0.5837	0.369	0.6238	-0.078
Mof_H 	H 	0.5751	0.3905	0.5546	-0.123
Mof_C 	C 	0.1484	0.2423	0.3029	-0.131
Mof_H 	H 	0.1472	0.1974	0.2984	0.088
Mof_H 	H 	0.1725	0.2602	0.2691	0.079
Mof_H 	H 	0.1062	0.2587	0.3017	0.066
Mof_C 	C 	0.4568	0.2402	0.7176	-0.017
Mof_H 	H 	0.4656	0.1958	0.7162	0.022
Mof_H 	H 	0.4315	0.2494	0.754	0.019
Mof_H 	H 	0.4957	0.2632	0.72	0.025
Mof_O 	O 	0.0591	0.5607	0.3142	-0.771
Mof_O 	O 	0.998	0.4357	0.2513	-0.717
Mof_O 	O 	0.9226	0.6032	0.269	-0.26
Mof_O 	O 	0.9064	0.5645	0.269	-0.22
Mof_O 	O 	0.163	0.425	0.2401	-0.34
Mof_O 	O 	0.1374	0.3988	0.2289	-0.193
Mof_O 	O 	0.8725	0.6078	0.2979	0.075
Mof_O 	O 	0.842	0.5593	0.2924	-0.132
Mof_Bi	Bi	0.22229	0.57742	0.02774	0.928
Mof_Na	Na	0.41353	0.55035	0.82479	2.34
Mof_Na	Na	0.49188	0.45445	0.7142	2.403
Mof_O 	O 	0.3232	0.7418	0.8615	-0.197
Mof_O 	O 	0.0763	0.742	0.1623	-0.25
Mof_O 	O 	0.2573	0.6016	0.9325	-0.33
Mof_O 	O 	0.1734	0.6088	0.1184	-0.324
Mof_O 	O 	0.2818	0.6599	0.0451	-0.345
Mof_O 	O 	0.154	0.6462	0.9976	-0.355
Mof_O 	O 	0.4144	0.6596	0.0452	-0.367
Mof_O 	O 	0.0267	0.6228	0.9804	-0.365
Mof_O 	O 	0.381	0.6497	0.8753	-0.462
Mof_O 	O 	0.0351	0.6404	0.1532	-0.487
Mof_O 	O 	0.4795	0.5725	0.9138	-0.979
Mof_H 	H 	0.4798	0.5558	0.9445	0.45
Mof_O 	O 	0.9518	0.5468	0.1158	-0.951
Mof_H 	H 	0.9645	0.5309	0.0875	0.428
Mof_C 	C 	0.3197	0.6762	0.8714	0.236
Mof_H 	H 	0.2987	0.6577	0.8359	-0.065
Mof_C 	C 	0.091	0.677	0.1611	0.263
Mof_H 	H 	0.1095	0.6661	0.2009	-0.099
Mof_C 	C 	0.2786	0.6651	0.9298	-0.016
Mof_H 	H 	0.2428	0.6927	0.9281	0.035
Mof_C 	C 	0.1408	0.6661	0.1092	-0.038
Mof_H 	H 	0.1707	0.7	0.1107	0.034
Mof_C 	C 	0.3162	0.6792	0.99	0.046
Mof_H 	H 	0.3233	0.7238	0.9924	0.001
Mof_C 	C 	0.1099	0.6656	0.0443	0.07
Mof_H 	H 	0.0966	0.7078	0.0346	-0.017
Mof_C 	C 	0.3804	0.6458	0.9891	0.107
Mof_H 	H 	0.3736	0.6011	0.9868	-0.041
Mof_C 	C 	0.0523	0.6228	0.0427	0.087
Mof_H 	H 	0.0649	0.5808	0.0535	-0.044
Mof_C 	C 	0.4165	0.6668	0.931	-0.093
Mof_H 	H 	0.4209	0.7118	0.9322	0.049
Mof_C 	C 	0.0054	0.6465	0.0916	-0.071
Mof_H 	H 	0.9961	0.6901	0.0837	0.041
Mof_C 	C 	0.4816	0.6376	0.9242	0.361
Mof_H 	H 	0.503	0.6573	0.8896	-0.108
Mof_H 	H 	0.5054	0.6457	0.9617	-0.139
Mof_C 	C 	0.9443	0.6097	0.0954	0.297
Mof_H 	H 	0.9163	0.631	0.1238	-0.079
Mof_H 	H 	0.9249	0.6095	0.0546	-0.124
Mof_C 	C 	0.3516	0.7577	0.8029	-0.131
Mof_H 	H 	0.3528	0.8026	0.7984	0.088
Mof_H 	H 	0.3275	0.7398	0.7691	0.079
Mof_H 	H 	0.3938	0.7413	0.8017	0.067
Mof_C 	C 	0.0432	0.7598	0.2176	-0.017
Mof_H 	H 	0.0344	0.8042	0.2162	0.022
Mof_H 	H 	0.0685	0.7506	0.254	0.019
Mof_H 	H 	0.0043	0.7368	0.22	0.025
Mof_O 	O 	0.4409	0.4393	0.8142	-0.771
Mof_O 	O 	0.502	0.5643	0.7513	-0.718
Mof_O 	O 	0.5774	0.3968	0.769	-0.261
Mof_O 	O 	0.5936	0.4355	0.769	-0.22
Mof_O 	O 	0.337	0.575	0.7401	-0.34
Mof_O 	O 	0.3626	0.6012	0.7289	-0.193
Mof_O 	O 	0.6275	0.3922	0.7979	0.075
Mof_O 	O 	0.658	0.4407	0.7924	-0.132
Mof_Bi	Bi	0.72229	0.92258	0.97226	0.927
Mof_Na	Na	0.91353	0.94965	0.17521	2.341
Mof_Na	Na	0.99188	0.04555	0.2858	2.411
Mof_O 	O 	0.8232	0.7582	0.1385	-0.196
Mof_O 	O 	0.5763	0.758	0.8377	-0.25
Mof_O 	O 	0.7573	0.8984	0.0675	-0.33
Mof_O 	O 	0.6734	0.8912	0.8816	-0.324
Mof_O 	O 	0.7818	0.8401	0.9549	-0.345
Mof_O 	O 	0.654	0.8538	0.0024	-0.355
Mof_O 	O 	0.9144	0.8404	0.9548	-0.368
Mof_O 	O 	0.5267	0.8772	0.0196	-0.366
Mof_O 	O 	0.881	0.8503	0.1247	-0.462
Mof_O 	O 	0.5351	0.8596	0.8468	-0.488
Mof_O 	O 	0.9795	0.9275	0.0862	-0.98
Mof_H 	H 	0.9798	0.9442	0.0555	0.451
Mof_O 	O 	0.4518	0.9532	0.8842	-0.951
Mof_H 	H 	0.4645	0.9691	0.9125	0.427
Mof_C 	C 	0.8197	0.8238	0.1286	0.236
Mof_H 	H 	0.7987	0.8423	0.1641	-0.065
Mof_C 	C 	0.591	0.823	0.8389	0.263
Mof_H 	H 	0.6095	0.8339	0.7991	-0.099
Mof_C 	C 	0.7786	0.8349	0.0702	-0.016
Mof_H 	H 	0.7428	0.8073	0.0719	0.035
Mof_C 	C 	0.6408	0.8339	0.8908	-0.038
Mof_H 	H 	0.6707	0.8	0.8893	0.034
Mof_C 	C 	0.8162	0.8208	0.01	0.046
Mof_H 	H 	0.8233	0.7762	0.0076	0.001
Mof_C 	C 	0.6099	0.8344	0.9557	0.07
Mof_H 	H 	0.5966	0.7922	0.9654	-0.017
Mof_C 	C 	0.8804	0.8542	0.0109	0.109
Mof_H 	H 	0.8736	0.8989	0.0132	-0.042
Mof_C 	C 	0.5523	0.8772	0.9573	0.086
Mof_H 	H 	0.5649	0.9192	0.9465	-0.044
Mof_C 	C 	0.9165	0.8332	0.069	-0.095
Mof_H 	H 	0.9209	0.7882	0.0678	0.05
Mof_C 	C 	0.5054	0.8535	0.9084	-0.068
Mof_H 	H 	0.4961	0.8099	0.9163	0.04
Mof_C 	C 	0.9816	0.8624	0.0758	0.365
Mof_H 	H 	0.003	0.8427	0.1104	-0.109
Mof_H 	H 	0.0054	0.8543	0.0383	-0.14
Mof_C 	C 	0.4443	0.8903	0.9046	0.295
Mof_H 	H 	0.4163	0.869	0.8762	-0.078
Mof_H 	H 	0.4249	0.8905	0.9454	-0.123
Mof_C 	C 	0.8516	0.7423	0.1971	-0.132
Mof_H 	H 	0.8528	0.6974	0.2016	0.088
Mof_H 	H 	0.8275	0.7602	0.2309	0.079
Mof_H 	H 	0.8938	0.7587	0.1983	0.067
Mof_C 	C 	0.5432	0.7402	0.7824	-0.017
Mof_H 	H 	0.5344	0.6958	0.7838	0.022
Mof_H 	H 	0.5685	0.7494	0.746	0.019
Mof_H 	H 	0.5043	0.7632	0.78	0.025
Mof_O 	O 	0.9409	0.0607	0.1858	-0.772
Mof_O 	O 	0.002	0.9357	0.2487	-0.719
Mof_O 	O 	0.0774	0.1032	0.231	-0.262
Mof_O 	O 	0.0936	0.0645	0.231	-0.221
Mof_O 	O 	0.837	0.925	0.2599	-0.34
Mof_O 	O 	0.8626	0.8988	0.2711	-0.193
Mof_O 	O 	0.1275	0.1078	0.2021	0.075
Mof_O 	O 	0.158	0.0593	0.2076	-0.133
Mof_Bi	Bi	0.77771	0.07742	0.47226	0.93
Mof_Na	Na	0.58647	0.05035	0.67521	2.342
Mof_Na	Na	0.50812	0.95445	0.7858	2.403
Mof_O 	O 	0.6768	0.2418	0.6385	-0.197
Mof_O 	O 	0.9237	0.242	0.3377	-0.25
Mof_O 	O 	0.7427	0.1016	0.5675	-0.331
Mof_O 	O 	0.8266	0.1088	0.3816	-0.323
Mof_O 	O 	0.7182	0.1599	0.4549	-0.345
Mof_O 	O 	0.846	0.1462	0.5024	-0.356
Mof_O 	O 	0.5856	0.1596	0.4548	-0.367
Mof_O 	O 	0.9733	0.1228	0.5196	-0.365
Mof_O 	O 	0.619	0.1497	0.6247	-0.462
Mof_O 	O 	0.9649	0.1404	0.3468	-0.489
Mof_O 	O 	0.5205	0.0725	0.5862	-0.979
Mof_H 	H 	0.5202	0.0558	0.5555	0.45
Mof_O 	O 	0.0482	0.0468	0.3842	-0.952
Mof_H 	H 	0.0355	0.0309	0.4125	0.427
Mof_C 	C 	0.6803	0.1762	0.6286	0.236
Mof_H 	H 	0.7013	0.1577	0.6641	-0.065
Mof_C 	C 	0.909	0.177	0.3389	0.264
Mof_H 	H 	0.8905	0.1661	0.2991	-0.1
Mof_C 	C 	0.7214	0.1651	0.5702	-0.016
Mof_H 	H 	0.7572	0.1927	0.5719	0.035
Mof_C 	C 	0.8592	0.1661	0.3908	-0.039
Mof_H 	H 	0.8293	0.2	0.3893	0.035
Mof_C 	C 	0.6838	0.1792	0.51	0.045
Mof_H 	H 	0.6767	0.2238	0.5076	0.001
Mof_C 	C 	0.8901	0.1656	0.4557	0.072
Mof_H 	H 	0.9034	0.2078	0.4654	-0.017
Mof_C 	C 	0.6196	0.1458	0.5109	0.107
Mof_H 	H 	0.6264	0.1011	0.5132	-0.042
Mof_C 	C 	0.9477	0.1228	0.4573	0.085
Mof_H 	H 	0.9351	0.0808	0.4465	-0.043
Mof_C 	C 	0.5835	0.1668	0.569	-0.093
Mof_H 	H 	0.5791	0.2118	0.5678	0.049
Mof_C 	C 	0.9946	0.1465	0.4084	-0.063
Mof_H 	H 	0.0039	0.1901	0.4163	0.037
Mof_C 	C 	0.5184	0.1376	0.5758	0.361
Mof_H 	H 	0.497	0.1573	0.6104	-0.108
Mof_H 	H 	0.4946	0.1457	0.5383	-0.139
Mof_C 	C 	0.0557	0.1097	0.4046	0.29
Mof_H 	H 	0.0837	0.131	0.3762	-0.077
Mof_H 	H 	0.0751	0.1095	0.4454	-0.122
Mof_C 	C 	0.6484	0.2577	0.6971	-0.131
Mof_H 	H 	0.6472	0.3026	0.7016	0.088
Mof_H 	H 	0.6725	0.2398	0.7309	0.079
Mof_H 	H 	0.6062	0.2413	0.6983	0.067
Mof_C 	C 	0.9568	0.2598	0.2824	-0.018
Mof_H 	H 	0.9656	0.3042	0.2838	0.023
Mof_H 	H 	0.9315	0.2506	0.246	0.02
Mof_H 	H 	0.9957	0.2368	0.28	0.026
Mof_O 	O 	0.5591	0.9393	0.6858	-0.772
Mof_O 	O 	0.498	0.0643	0.7487	-0.718
Mof_O 	O 	0.4226	0.8968	0.731	-0.261
Mof_O 	O 	0.4064	0.9355	0.731	-0.22
Mof_O 	O 	0.663	0.075	0.7599	-0.34
Mof_O 	O 	0.6374	0.1012	0.7711	-0.193
Mof_O 	O 	0.3725	0.8922	0.7021	0.075
Mof_O 	O 	0.342	0.9407	0.7076	-0.132
Mof_Bi	Bi	0.52774	0.27771	0.42258	0.929
Mof_Na	Na	0.32479	0.08647	0.44965	2.339
Mof_Na	Na	0.2142	0.00812	0.54555	2.401
Mof_O 	O 	0.3615	0.1768	0.2582	-0.197
Mof_O 	O 	0.6623	0.4237	0.258	-0.25
Mof_O 	O 	0.4325	0.2427	0.3984	-0.331
Mof_O 	O 	0.6184	0.3266	0.3912	-0.323
Mof_O 	O 	0.5451	0.2182	0.3401	-0.345
Mof_O 	O 	0.4976	0.346	0.3538	-0.356
Mof_O 	O 	0.5452	0.0856	0.3404	-0.366
Mof_O 	O 	0.4804	0.4733	0.3772	-0.367
Mof_O 	O 	0.3753	0.119	0.3503	-0.462
Mof_O 	O 	0.6532	0.4649	0.3596	-0.488
Mof_O 	O 	0.4138	0.0205	0.4275	-0.977
Mof_H 	H 	0.4445	0.0202	0.4442	0.449
Mof_O 	O 	0.6158	0.5482	0.4532	-0.951
Mof_H 	H 	0.5875	0.5355	0.4691	0.427
Mof_C 	C 	0.3714	0.1803	0.3238	0.237
Mof_H 	H 	0.3359	0.2013	0.3423	-0.065
Mof_C 	C 	0.6611	0.409	0.323	0.263
Mof_H 	H 	0.7009	0.3905	0.3339	-0.099
Mof_C 	C 	0.4298	0.2214	0.3349	-0.016
Mof_H 	H 	0.4281	0.2572	0.3073	0.035
Mof_C 	C 	0.6092	0.3592	0.3339	-0.038
Mof_H 	H 	0.6107	0.3293	0.3	0.035
Mof_C 	C 	0.49	0.1838	0.3208	0.046
Mof_H 	H 	0.4924	0.1767	0.2762	0.001
Mof_C 	C 	0.5443	0.3901	0.3344	0.071
Mof_H 	H 	0.5346	0.4034	0.2922	-0.017
Mof_C 	C 	0.4891	0.1196	0.3542	0.106
Mof_H 	H 	0.4868	0.1264	0.3989	-0.041
Mof_C 	C 	0.5427	0.4477	0.3772	0.087
Mof_H 	H 	0.5535	0.4351	0.4192	-0.044
Mof_C 	C 	0.431	0.0835	0.3332	-0.091
Mof_H 	H 	0.4322	0.0791	0.2882	0.048
Mof_C 	C 	0.5916	0.4946	0.3535	-0.068
Mof_H 	H 	0.5837	0.5039	0.3099	0.04
Mof_C 	C 	0.4242	0.0184	0.3624	0.355
Mof_H 	H 	0.3896	0.997	0.3427	-0.105
Mof_H 	H 	0.4617	0.9946	0.3543	-0.136
Mof_C 	C 	0.5954	0.5557	0.3903	0.295
Mof_H 	H 	0.6238	0.5837	0.369	-0.078
Mof_H 	H 	0.5546	0.5751	0.3905	-0.123
Mof_C 	C 	0.3029	0.1484	0.2423	-0.131
Mof_H 	H 	0.2984	0.1472	0.1974	0.088
Mof_H 	H 	0.2691	0.1725	0.2602	0.079
Mof_H 	H 	0.3017	0.1062	0.2587	0.066
Mof_C 	C 	0.7176	0.4568	0.2402	-0.017
Mof_H 	H 	0.7162	0.4656	0.1958	0.022
Mof_H 	H 	0.754	0.4315	0.2494	0.019
Mof_H 	H 	0.72	0.4957	0.2632	0.025
Mof_O 	O 	0.3142	0.0591	0.5607	-0.771
Mof_O 	O 	0.2513	0.998	0.4357	-0.717
Mof_O 	O 	0.269	0.9226	0.6032	-0.26
Mof_O 	O 	0.269	0.9064	0.5645	-0.22
Mof_O 	O 	0.2401	0.163	0.425	-0.34
Mof_O 	O 	0.2289	0.1374	0.3988	-0.193
Mof_O 	O 	0.2979	0.8725	0.6078	0.075
Mof_O 	O 	0.2924	0.842	0.5593	-0.132
Mof_Bi	Bi	0.02774	0.22229	0.57742	0.928
Mof_Na	Na	0.82479	0.41353	0.55035	2.34
Mof_Na	Na	0.7142	0.49188	0.45445	2.403
Mof_O 	O 	0.8615	0.3232	0.7418	-0.197
Mof_O 	O 	0.1623	0.0763	0.742	-0.25
Mof_O 	O 	0.9325	0.2573	0.6016	-0.33
Mof_O 	O 	0.1184	0.1734	0.6088	-0.324
Mof_O 	O 	0.0451	0.2818	0.6599	-0.345
Mof_O 	O 	0.9976	0.154	0.6462	-0.355
Mof_O 	O 	0.0452	0.4144	0.6596	-0.367
Mof_O 	O 	0.9804	0.0267	0.6228	-0.365
Mof_O 	O 	0.8753	0.381	0.6497	-0.462
Mof_O 	O 	0.1532	0.0351	0.6404	-0.487
Mof_O 	O 	0.9138	0.4795	0.5725	-0.979
Mof_H 	H 	0.9445	0.4798	0.5558	0.45
Mof_O 	O 	0.1158	0.9518	0.5468	-0.951
Mof_H 	H 	0.0875	0.9645	0.5309	0.428
Mof_C 	C 	0.8714	0.3197	0.6762	0.236
Mof_H 	H 	0.8359	0.2987	0.6577	-0.065
Mof_C 	C 	0.1611	0.091	0.677	0.263
Mof_H 	H 	0.2009	0.1095	0.6661	-0.099
Mof_C 	C 	0.9298	0.2786	0.6651	-0.016
Mof_H 	H 	0.9281	0.2428	0.6927	0.035
Mof_C 	C 	0.1092	0.1408	0.6661	-0.038
Mof_H 	H 	0.1107	0.1707	0.7	0.034
Mof_C 	C 	0.99	0.3162	0.6792	0.046
Mof_H 	H 	0.9924	0.3233	0.7238	0.001
Mof_C 	C 	0.0443	0.1099	0.6656	0.07
Mof_H 	H 	0.0346	0.0966	0.7078	-0.017
Mof_C 	C 	0.9891	0.3804	0.6458	0.107
Mof_H 	H 	0.9868	0.3736	0.6011	-0.041
Mof_C 	C 	0.0427	0.0523	0.6228	0.087
Mof_H 	H 	0.0535	0.0649	0.5808	-0.044
Mof_C 	C 	0.931	0.4165	0.6668	-0.093
Mof_H 	H 	0.9322	0.4209	0.7118	0.049
Mof_C 	C 	0.0916	0.0054	0.6465	-0.071
Mof_H 	H 	0.0837	0.9961	0.6901	0.041
Mof_C 	C 	0.9242	0.4816	0.6376	0.361
Mof_H 	H 	0.8896	0.503	0.6573	-0.108
Mof_H 	H 	0.9617	0.5054	0.6457	-0.139
Mof_C 	C 	0.0954	0.9443	0.6097	0.297
Mof_H 	H 	0.1238	0.9163	0.631	-0.079
Mof_H 	H 	0.0546	0.9249	0.6095	-0.124
Mof_C 	C 	0.8029	0.3516	0.7577	-0.131
Mof_H 	H 	0.7984	0.3528	0.8026	0.088
Mof_H 	H 	0.7691	0.3275	0.7398	0.079
Mof_H 	H 	0.8017	0.3938	0.7413	0.067
Mof_C 	C 	0.2176	0.0432	0.7598	-0.017
Mof_H 	H 	0.2162	0.0344	0.8042	0.022
Mof_H 	H 	0.254	0.0685	0.7506	0.019
Mof_H 	H 	0.22	0.0043	0.7368	0.025
Mof_O 	O 	0.8142	0.4409	0.4393	-0.771
Mof_O 	O 	0.7513	0.502	0.5643	-0.718
Mof_O 	O 	0.769	0.5774	0.3968	-0.261
Mof_O 	O 	0.769	0.5936	0.4355	-0.22
Mof_O 	O 	0.7401	0.337	0.575	-0.34
Mof_O 	O 	0.7289	0.3626	0.6012	-0.193
Mof_O 	O 	0.7979	0.6275	0.3922	0.075
Mof_O 	O 	0.7924	0.658	0.4407	-0.132
Mof_Bi	Bi	0.97226	0.72229	0.92258	0.927
Mof_Na	Na	0.17521	0.91353	0.94965	2.341
Mof_Na	Na	0.2858	0.99188	0.04555	2.411
Mof_O 	O 	0.1385	0.8232	0.7582	-0.196
Mof_O 	O 	0.8377	0.5763	0.758	-0.25
Mof_O 	O 	0.0675	0.7573	0.8984	-0.33
Mof_O 	O 	0.8816	0.6734	0.8912	-0.324
Mof_O 	O 	0.9549	0.7818	0.8401	-0.346
Mof_O 	O 	0.0024	0.654	0.8538	-0.355
Mof_O 	O 	0.9548	0.9144	0.8404	-0.368
Mof_O 	O 	0.0196	0.5267	0.8772	-0.366
Mof_O 	O 	0.1247	0.881	0.8503	-0.462
Mof_O 	O 	0.8468	0.5351	0.8596	-0.488
Mof_O 	O 	0.0862	0.9795	0.9275	-0.98
Mof_H 	H 	0.0555	0.9798	0.9442	0.451
Mof_O 	O 	0.8842	0.4518	0.9532	-0.951
Mof_H 	H 	0.9125	0.4645	0.9691	0.427
Mof_C 	C 	0.1286	0.8197	0.8238	0.236
Mof_H 	H 	0.1641	0.7987	0.8423	-0.065
Mof_C 	C 	0.8389	0.591	0.823	0.263
Mof_H 	H 	0.7991	0.6095	0.8339	-0.099
Mof_C 	C 	0.0702	0.7786	0.8349	-0.016
Mof_H 	H 	0.0719	0.7428	0.8073	0.035
Mof_C 	C 	0.8908	0.6408	0.8339	-0.038
Mof_H 	H 	0.8893	0.6707	0.8	0.034
Mof_C 	C 	0.01	0.8162	0.8208	0.046
Mof_H 	H 	0.0076	0.8233	0.7762	0.001
Mof_C 	C 	0.9557	0.6099	0.8344	0.07
Mof_H 	H 	0.9654	0.5966	0.7922	-0.017
Mof_C 	C 	0.0109	0.8804	0.8542	0.109
Mof_H 	H 	0.0132	0.8736	0.8989	-0.042
Mof_C 	C 	0.9573	0.5523	0.8772	0.086
Mof_H 	H 	0.9465	0.5649	0.9192	-0.044
Mof_C 	C 	0.069	0.9165	0.8332	-0.095
Mof_H 	H 	0.0678	0.9209	0.7882	0.05
Mof_C 	C 	0.9084	0.5054	0.8535	-0.068
Mof_H 	H 	0.9163	0.4961	0.8099	0.04
Mof_C 	C 	0.0758	0.9816	0.8624	0.365
Mof_H 	H 	0.1104	0.003	0.8427	-0.109
Mof_H 	H 	0.0383	0.0054	0.8543	-0.14
Mof_C 	C 	0.9046	0.4443	0.8903	0.295
Mof_H 	H 	0.8762	0.4163	0.869	-0.078
Mof_H 	H 	0.9454	0.4249	0.8905	-0.123
Mof_C 	C 	0.1971	0.8516	0.7423	-0.132
Mof_H 	H 	0.2016	0.8528	0.6974	0.088
Mof_H 	H 	0.2309	0.8275	0.7602	0.079
Mof_H 	H 	0.1983	0.8938	0.7587	0.067
Mof_C 	C 	0.7824	0.5432	0.7402	-0.017
Mof_H 	H 	0.7838	0.5344	0.6958	0.022
Mof_H 	H 	0.746	0.5685	0.7494	0.019
Mof_H 	H 	0.78	0.5043	0.7632	0.025
Mof_O 	O 	0.1858	0.9409	0.0607	-0.772
Mof_O 	O 	0.2487	0.002	0.9357	-0.719
Mof_O 	O 	0.231	0.0774	0.1032	-0.262
Mof_O 	O 	0.231	0.0936	0.0645	-0.221
Mof_O 	O 	0.2599	0.837	0.925	-0.34
Mof_O 	O 	0.2711	0.8626	0.8988	-0.193
Mof_O 	O 	0.2021	0.1275	0.1078	0.075
Mof_O 	O 	0.2076	0.158	0.0593	-0.133
Mof_Bi	Bi	0.47226	0.77771	0.07742	0.93
Mof_Na	Na	0.67521	0.58647	0.05035	2.342
Mof_Na	Na	0.7858	0.50812	0.95445	2.403
Mof_O 	O 	0.6385	0.6768	0.2418	-0.197
Mof_O 	O 	0.3377	0.9237	0.242	-0.25
Mof_O 	O 	0.5675	0.7427	0.1016	-0.331
Mof_O 	O 	0.3816	0.8266	0.1088	-0.323
Mof_O 	O 	0.4549	0.7182	0.1599	-0.345
Mof_O 	O 	0.5024	0.846	0.1462	-0.356
Mof_O 	O 	0.4548	0.5856	0.1596	-0.367
Mof_O 	O 	0.5196	0.9733	0.1228	-0.365
Mof_O 	O 	0.6247	0.619	0.1497	-0.462
Mof_O 	O 	0.3468	0.9649	0.1404	-0.489
Mof_O 	O 	0.5862	0.5205	0.0725	-0.979
Mof_H 	H 	0.5555	0.5202	0.0558	0.45
Mof_O 	O 	0.3842	0.0482	0.0468	-0.952
Mof_H 	H 	0.4125	0.0355	0.0309	0.427
Mof_C 	C 	0.6286	0.6803	0.1762	0.236
Mof_H 	H 	0.6641	0.7013	0.1577	-0.065
Mof_C 	C 	0.3389	0.909	0.177	0.264
Mof_H 	H 	0.2991	0.8905	0.1661	-0.1
Mof_C 	C 	0.5702	0.7214	0.1651	-0.016
Mof_H 	H 	0.5719	0.7572	0.1927	0.035
Mof_C 	C 	0.3908	0.8592	0.1661	-0.039
Mof_H 	H 	0.3893	0.8293	0.2	0.035
Mof_C 	C 	0.51	0.6838	0.1792	0.045
Mof_H 	H 	0.5076	0.6767	0.2238	0.001
Mof_C 	C 	0.4557	0.8901	0.1656	0.072
Mof_H 	H 	0.4654	0.9034	0.2078	-0.017
Mof_C 	C 	0.5109	0.6196	0.1458	0.107
Mof_H 	H 	0.5132	0.6264	0.1011	-0.042
Mof_C 	C 	0.4573	0.9477	0.1228	0.085
Mof_H 	H 	0.4465	0.9351	0.0808	-0.043
Mof_C 	C 	0.569	0.5835	0.1668	-0.093
Mof_H 	H 	0.5678	0.5791	0.2118	0.049
Mof_C 	C 	0.4084	0.9946	0.1465	-0.063
Mof_H 	H 	0.4163	0.0039	0.1901	0.037
Mof_C 	C 	0.5758	0.5184	0.1376	0.361
Mof_H 	H 	0.6104	0.497	0.1573	-0.108
Mof_H 	H 	0.5383	0.4946	0.1457	-0.139
Mof_C 	C 	0.4046	0.0557	0.1097	0.29
Mof_H 	H 	0.3762	0.0837	0.131	-0.077
Mof_H 	H 	0.4454	0.0751	0.1095	-0.122
Mof_C 	C 	0.6971	0.6484	0.2577	-0.131
Mof_H 	H 	0.7016	0.6472	0.3026	0.088
Mof_H 	H 	0.7309	0.6725	0.2398	0.079
Mof_H 	H 	0.6983	0.6062	0.2413	0.067
Mof_C 	C 	0.2824	0.9568	0.2598	-0.018
Mof_H 	H 	0.2838	0.9656	0.3042	0.023
Mof_H 	H 	0.246	0.9315	0.2506	0.02
Mof_H 	H 	0.28	0.9957	0.2368	0.026
Mof_O 	O 	0.6858	0.5591	0.9393	-0.772
Mof_O 	O 	0.7487	0.498	0.0643	-0.718
Mof_O 	O 	0.731	0.4226	0.8968	-0.261
Mof_O 	O 	0.731	0.4064	0.9355	-0.22
Mof_O 	O 	0.7599	0.663	0.075	-0.34
Mof_O 	O 	0.7711	0.6374	0.1012	-0.193
Mof_O 	O 	0.7021	0.3725	0.8922	0.075
Mof_O 	O 	0.7076	0.342	0.9407	-0.132
Mof_Bi	Bi	0.42258	0.52774	0.27771	0.929
Mof_Na	Na	0.44965	0.32479	0.08647	2.339
Mof_Na	Na	0.54555	0.2142	0.00812	2.401
Mof_O 	O 	0.2582	0.3615	0.1768	-0.197
Mof_O 	O 	0.258	0.6623	0.4237	-0.25
Mof_O 	O 	0.3984	0.4325	0.2427	-0.331
Mof_O 	O 	0.3912	0.6184	0.3266	-0.323
Mof_O 	O 	0.3401	0.5451	0.2182	-0.345
Mof_O 	O 	0.3538	0.4976	0.346	-0.356
Mof_O 	O 	0.3404	0.5452	0.0856	-0.366
Mof_O 	O 	0.3772	0.4804	0.4733	-0.367
Mof_O 	O 	0.3503	0.3753	0.119	-0.462
Mof_O 	O 	0.3596	0.6532	0.4649	-0.488
Mof_O 	O 	0.4275	0.4138	0.0205	-0.977
Mof_H 	H 	0.4442	0.4445	0.0202	0.449
Mof_O 	O 	0.4532	0.6158	0.5482	-0.951
Mof_H 	H 	0.4691	0.5875	0.5355	0.427
Mof_C 	C 	0.3238	0.3714	0.1803	0.237
Mof_H 	H 	0.3423	0.3359	0.2013	-0.065
Mof_C 	C 	0.323	0.6611	0.409	0.263
Mof_H 	H 	0.3339	0.7009	0.3905	-0.099
Mof_C 	C 	0.3349	0.4298	0.2214	-0.016
Mof_H 	H 	0.3073	0.4281	0.2572	0.035
Mof_C 	C 	0.3339	0.6092	0.3592	-0.038
Mof_H 	H 	0.3	0.6107	0.3293	0.035
Mof_C 	C 	0.3208	0.49	0.1838	0.046
Mof_H 	H 	0.2762	0.4924	0.1767	0.001
Mof_C 	C 	0.3344	0.5443	0.3901	0.071
Mof_H 	H 	0.2922	0.5346	0.4034	-0.017
Mof_C 	C 	0.3542	0.4891	0.1196	0.106
Mof_H 	H 	0.3989	0.4868	0.1264	-0.041
Mof_C 	C 	0.3772	0.5427	0.4477	0.087
Mof_H 	H 	0.4192	0.5535	0.4351	-0.044
Mof_C 	C 	0.3332	0.431	0.0835	-0.091
Mof_H 	H 	0.2882	0.4322	0.0791	0.048
Mof_C 	C 	0.3535	0.5916	0.4946	-0.068
Mof_H 	H 	0.3099	0.5837	0.5039	0.04
Mof_C 	C 	0.3624	0.4242	0.0184	0.355
Mof_H 	H 	0.3427	0.3896	0.997	-0.105
Mof_H 	H 	0.3543	0.4617	0.9946	-0.136
Mof_C 	C 	0.3903	0.5954	0.5557	0.295
Mof_H 	H 	0.369	0.6238	0.5837	-0.078
Mof_H 	H 	0.3905	0.5546	0.5751	-0.123
Mof_C 	C 	0.2423	0.3029	0.1484	-0.131
Mof_H 	H 	0.1974	0.2984	0.1472	0.088
Mof_H 	H 	0.2602	0.2691	0.1725	0.079
Mof_H 	H 	0.2587	0.3017	0.1062	0.066
Mof_C 	C 	0.2402	0.7176	0.4568	-0.017
Mof_H 	H 	0.1958	0.7162	0.4656	0.022
Mof_H 	H 	0.2494	0.754	0.4315	0.019
Mof_H 	H 	0.2632	0.72	0.4957	0.025
Mof_O 	O 	0.5607	0.3142	0.0591	-0.771
Mof_O 	O 	0.4357	0.2513	0.998	-0.717
Mof_O 	O 	0.6032	0.269	0.9226	-0.26
Mof_O 	O 	0.5645	0.269	0.9064	-0.22
Mof_O 	O 	0.425	0.2401	0.163	-0.34
Mof_O 	O 	0.3988	0.2289	0.1374	-0.193
Mof_O 	O 	0.6078	0.2979	0.8725	0.075
Mof_O 	O 	0.5593	0.2924	0.842	-0.132
Mof_Bi	Bi	0.57742	0.02774	0.22229	0.928
Mof_Na	Na	0.55035	0.82479	0.41353	2.34
Mof_Na	Na	0.45445	0.7142	0.49188	2.403
Mof_O 	O 	0.7418	0.8615	0.3232	-0.197
Mof_O 	O 	0.742	0.1623	0.0763	-0.25
Mof_O 	O 	0.6016	0.9325	0.2573	-0.33
Mof_O 	O 	0.6088	0.1184	0.1734	-0.324
Mof_O 	O 	0.6599	0.0451	0.2818	-0.345
Mof_O 	O 	0.6462	0.9976	0.154	-0.355
Mof_O 	O 	0.6596	0.0452	0.4144	-0.367
Mof_O 	O 	0.6228	0.9804	0.0267	-0.365
Mof_O 	O 	0.6497	0.8753	0.381	-0.462
Mof_O 	O 	0.6404	0.1532	0.0351	-0.487
Mof_O 	O 	0.5725	0.9138	0.4795	-0.979
Mof_H 	H 	0.5558	0.9445	0.4798	0.45
Mof_O 	O 	0.5468	0.1158	0.9518	-0.951
Mof_H 	H 	0.5309	0.0875	0.9645	0.428
Mof_C 	C 	0.6762	0.8714	0.3197	0.236
Mof_H 	H 	0.6577	0.8359	0.2987	-0.065
Mof_C 	C 	0.677	0.1611	0.091	0.263
Mof_H 	H 	0.6661	0.2009	0.1095	-0.099
Mof_C 	C 	0.6651	0.9298	0.2786	-0.016
Mof_H 	H 	0.6927	0.9281	0.2428	0.035
Mof_C 	C 	0.6661	0.1092	0.1408	-0.038
Mof_H 	H 	0.7	0.1107	0.1707	0.034
Mof_C 	C 	0.6792	0.99	0.3162	0.046
Mof_H 	H 	0.7238	0.9924	0.3233	0.001
Mof_C 	C 	0.6656	0.0443	0.1099	0.07
Mof_H 	H 	0.7078	0.0346	0.0966	-0.017
Mof_C 	C 	0.6458	0.9891	0.3804	0.107
Mof_H 	H 	0.6011	0.9868	0.3736	-0.041
Mof_C 	C 	0.6228	0.0427	0.0523	0.087
Mof_H 	H 	0.5808	0.0535	0.0649	-0.044
Mof_C 	C 	0.6668	0.931	0.4165	-0.093
Mof_H 	H 	0.7118	0.9322	0.4209	0.049
Mof_C 	C 	0.6465	0.0916	0.0054	-0.071
Mof_H 	H 	0.6901	0.0837	0.9961	0.041
Mof_C 	C 	0.6376	0.9242	0.4816	0.361
Mof_H 	H 	0.6573	0.8896	0.503	-0.108
Mof_H 	H 	0.6457	0.9617	0.5054	-0.139
Mof_C 	C 	0.6097	0.0954	0.9443	0.297
Mof_H 	H 	0.631	0.1238	0.9163	-0.079
Mof_H 	H 	0.6095	0.0546	0.9249	-0.124
Mof_C 	C 	0.7577	0.8029	0.3516	-0.131
Mof_H 	H 	0.8026	0.7984	0.3528	0.088
Mof_H 	H 	0.7398	0.7691	0.3275	0.079
Mof_H 	H 	0.7413	0.8017	0.3938	0.067
Mof_C 	C 	0.7598	0.2176	0.0432	-0.017
Mof_H 	H 	0.8042	0.2162	0.0344	0.022
Mof_H 	H 	0.7506	0.254	0.0685	0.019
Mof_H 	H 	0.7368	0.22	0.0043	0.025
Mof_O 	O 	0.4393	0.8142	0.4409	-0.771
Mof_O 	O 	0.5643	0.7513	0.502	-0.718
Mof_O 	O 	0.3968	0.769	0.5774	-0.261
Mof_O 	O 	0.4355	0.769	0.5936	-0.22
Mof_O 	O 	0.575	0.7401	0.337	-0.34
Mof_O 	O 	0.6012	0.7289	0.3626	-0.193
Mof_O 	O 	0.3922	0.7979	0.6275	0.075
Mof_O 	O 	0.4407	0.7924	0.658	-0.132
Mof_Bi	Bi	0.92258	0.97226	0.72229	0.927
Mof_Na	Na	0.94965	0.17521	0.91353	2.341
Mof_Na	Na	0.04555	0.2858	0.99188	2.411
Mof_O 	O 	0.7582	0.1385	0.8232	-0.196
Mof_O 	O 	0.758	0.8377	0.5763	-0.25
Mof_O 	O 	0.8984	0.0675	0.7573	-0.33
Mof_O 	O 	0.8912	0.8816	0.6734	-0.324
Mof_O 	O 	0.8401	0.9549	0.7818	-0.346
Mof_O 	O 	0.8538	0.0024	0.654	-0.355
Mof_O 	O 	0.8404	0.9548	0.9144	-0.368
Mof_O 	O 	0.8772	0.0196	0.5267	-0.366
Mof_O 	O 	0.8503	0.1247	0.881	-0.462
Mof_O 	O 	0.8596	0.8468	0.5351	-0.488
Mof_O 	O 	0.9275	0.0862	0.9795	-0.98
Mof_H 	H 	0.9442	0.0555	0.9798	0.451
Mof_O 	O 	0.9532	0.8842	0.4518	-0.951
Mof_H 	H 	0.9691	0.9125	0.4645	0.427
Mof_C 	C 	0.8238	0.1286	0.8197	0.236
Mof_H 	H 	0.8423	0.1641	0.7987	-0.065
Mof_C 	C 	0.823	0.8389	0.591	0.263
Mof_H 	H 	0.8339	0.7991	0.6095	-0.099
Mof_C 	C 	0.8349	0.0702	0.7786	-0.016
Mof_H 	H 	0.8073	0.0719	0.7428	0.035
Mof_C 	C 	0.8339	0.8908	0.6408	-0.038
Mof_H 	H 	0.8	0.8893	0.6707	0.034
Mof_C 	C 	0.8208	0.01	0.8162	0.046
Mof_H 	H 	0.7762	0.0076	0.8233	0.001
Mof_C 	C 	0.8344	0.9557	0.6099	0.07
Mof_H 	H 	0.7922	0.9654	0.5966	-0.017
Mof_C 	C 	0.8542	0.0109	0.8804	0.109
Mof_H 	H 	0.8989	0.0132	0.8736	-0.042
Mof_C 	C 	0.8772	0.9573	0.5523	0.086
Mof_H 	H 	0.9192	0.9465	0.5649	-0.044
Mof_C 	C 	0.8332	0.069	0.9165	-0.095
Mof_H 	H 	0.7882	0.0678	0.9209	0.05
Mof_C 	C 	0.8535	0.9084	0.5054	-0.068
Mof_H 	H 	0.8099	0.9163	0.4961	0.04
Mof_C 	C 	0.8624	0.0758	0.9816	0.365
Mof_H 	H 	0.8427	0.1104	0.003	-0.109
Mof_H 	H 	0.8543	0.0383	0.0054	-0.14
Mof_C 	C 	0.8903	0.9046	0.4443	0.295
Mof_H 	H 	0.869	0.8762	0.4163	-0.078
Mof_H 	H 	0.8905	0.9454	0.4249	-0.123
Mof_C 	C 	0.7423	0.1971	0.8516	-0.132
Mof_H 	H 	0.6974	0.2016	0.8528	0.088
Mof_H 	H 	0.7602	0.2309	0.8275	0.079
Mof_H 	H 	0.7587	0.1983	0.8938	0.067
Mof_C 	C 	0.7402	0.7824	0.5432	-0.017
Mof_H 	H 	0.6958	0.7838	0.5344	0.022
Mof_H 	H 	0.7494	0.746	0.5685	0.019
Mof_H 	H 	0.7632	0.78	0.5043	0.025
Mof_O 	O 	0.0607	0.1858	0.9409	-0.772
Mof_O 	O 	0.9357	0.2487	0.002	-0.719
Mof_O 	O 	0.1032	0.231	0.0774	-0.262
Mof_O 	O 	0.0645	0.231	0.0936	-0.221
Mof_O 	O 	0.925	0.2599	0.837	-0.34
Mof_O 	O 	0.8988	0.2711	0.8626	-0.193
Mof_O 	O 	0.1078	0.2021	0.1275	0.075
Mof_O 	O 	0.0593	0.2076	0.158	-0.133
Mof_Bi	Bi	0.07742	0.47226	0.77771	0.93
Mof_Na	Na	0.05035	0.67521	0.58647	2.342
Mof_Na	Na	0.95445	0.7858	0.50812	2.403
Mof_O 	O 	0.2418	0.6385	0.6768	-0.197
Mof_O 	O 	0.242	0.3377	0.9237	-0.25
Mof_O 	O 	0.1016	0.5675	0.7427	-0.331
Mof_O 	O 	0.1088	0.3816	0.8266	-0.323
Mof_O 	O 	0.1599	0.4549	0.7182	-0.345
Mof_O 	O 	0.1462	0.5024	0.846	-0.356
Mof_O 	O 	0.1596	0.4548	0.5856	-0.367
Mof_O 	O 	0.1228	0.5196	0.9733	-0.365
Mof_O 	O 	0.1497	0.6247	0.619	-0.462
Mof_O 	O 	0.1404	0.3468	0.9649	-0.489
Mof_O 	O 	0.0725	0.5862	0.5205	-0.979
Mof_H 	H 	0.0558	0.5555	0.5202	0.45
Mof_O 	O 	0.0468	0.3842	0.0482	-0.952
Mof_H 	H 	0.0309	0.4125	0.0355	0.427
Mof_C 	C 	0.1762	0.6286	0.6803	0.236
Mof_H 	H 	0.1577	0.6641	0.7013	-0.065
Mof_C 	C 	0.177	0.3389	0.909	0.264
Mof_H 	H 	0.1661	0.2991	0.8905	-0.1
Mof_C 	C 	0.1651	0.5702	0.7214	-0.016
Mof_H 	H 	0.1927	0.5719	0.7572	0.035
Mof_C 	C 	0.1661	0.3908	0.8592	-0.039
Mof_H 	H 	0.2	0.3893	0.8293	0.035
Mof_C 	C 	0.1792	0.51	0.6838	0.045
Mof_H 	H 	0.2238	0.5076	0.6767	0.001
Mof_C 	C 	0.1656	0.4557	0.8901	0.072
Mof_H 	H 	0.2078	0.4654	0.9034	-0.017
Mof_C 	C 	0.1458	0.5109	0.6196	0.107
Mof_H 	H 	0.1011	0.5132	0.6264	-0.042
Mof_C 	C 	0.1228	0.4573	0.9477	0.085
Mof_H 	H 	0.0808	0.4465	0.9351	-0.043
Mof_C 	C 	0.1668	0.569	0.5835	-0.093
Mof_H 	H 	0.2118	0.5678	0.5791	0.049
Mof_C 	C 	0.1465	0.4084	0.9946	-0.063
Mof_H 	H 	0.1901	0.4163	0.0039	0.037
Mof_C 	C 	0.1376	0.5758	0.5184	0.361
Mof_H 	H 	0.1573	0.6104	0.497	-0.108
Mof_H 	H 	0.1457	0.5383	0.4946	-0.139
Mof_C 	C 	0.1097	0.4046	0.0557	0.29
Mof_H 	H 	0.131	0.3762	0.0837	-0.077
Mof_H 	H 	0.1095	0.4454	0.0751	-0.122
Mof_C 	C 	0.2577	0.6971	0.6484	-0.131
Mof_H 	H 	0.3026	0.7016	0.6472	0.088
Mof_H 	H 	0.2398	0.7309	0.6725	0.079
Mof_H 	H 	0.2413	0.6983	0.6062	0.067
Mof_C 	C 	0.2598	0.2824	0.9568	-0.018
Mof_H 	H 	0.3042	0.2838	0.9656	0.023
Mof_H 	H 	0.2506	0.246	0.9315	0.02
Mof_H 	H 	0.2368	0.28	0.9957	0.026
Mof_O 	O 	0.9393	0.6858	0.5591	-0.772
Mof_O 	O 	0.0643	0.7487	0.498	-0.718
Mof_O 	O 	0.8968	0.731	0.4226	-0.261
Mof_O 	O 	0.9355	0.731	0.4064	-0.22
Mof_O 	O 	0.075	0.7599	0.663	-0.34
Mof_O 	O 	0.1012	0.7711	0.6374	-0.193
Mof_O 	O 	0.8922	0.7021	0.3725	0.075
Mof_O 	O 	0.9407	0.7076	0.342	-0.132
Mof_Bi	Bi	0.13182	0.36818	0.63182	0.917
Mof_Bi	Bi	0.36818	0.63182	0.13182	0.917
Mof_Bi	Bi	0.86819	0.86819	0.86818	0.917
Mof_Bi	Bi	0.63182	0.13182	0.36818	0.917
Mof_Bi	Bi	0.40643	0.40643	0.40643	0.942
Mof_O 	O 	0.1549	0.1549	0.1549	-0.128
Mof_Bi	Bi	0.09357	0.59357	0.90643	0.942
Mof_O 	O 	0.3451	0.8451	0.6549	-0.127
Mof_Bi	Bi	0.59357	0.90643	0.09357	0.942
Mof_O 	O 	0.8451	0.6549	0.3451	-0.127
Mof_Bi	Bi	0.90643	0.09357	0.59357	0.942
Mof_O 	O 	0.6549	0.3451	0.8451	-0.127
_end
