data_functionalizedCrystal
_audit_creation_method	'EQeq! by Chris Wilmer'
_symmetry_space_group_name_H-M	'P1'
_symmetry_Int_Tables_number	1
_symmetry_cell_setting	triclinic
loop_
_symmetry_equiv_pos_as_xyz
  x,y,z
_cell_length_a	9.6239
_cell_length_b	11.603
_cell_length_c	14.305
_cell_angle_alpha	90
_cell_angle_beta	122.463
_cell_angle_gamma	90
loop_
_atom_site_label
_atom_site_type_symbol
_atom_site_fract_x
_atom_site_fract_y
_atom_site_fract_z
_atom_site_charge
Mof_Dy	Dy	0.11766	0.98689	0.83232	2.017
Mof_O 	O 	0.2048	0.78776	0.84376	-0.391
Mof_O 	O 	0.897	0.86288	0.70709	-0.405
Mof_O 	O 	0.8061	0.6817	0.67093	-0.409
Mof_O 	O 	0.1169	0.60625	0.79662	-0.391
Mof_O 	O 	0.34	0.98878	0.02214	-0.399
Mof_O 	O 	0.0192	0.88221	0.93259	-0.399
Mof_O 	O 	0.9619	0.88866	0.06433	-0.366
Mof_O 	O 	0.6106	0.01101	0.14319	-0.407
Mof_C 	C 	0.0965	0.7128	0.7931	0.265
Mof_C 	C 	0.9171	0.7565	0.7168	0.289
Mof_C 	C 	0.4856	0.9999	0.0483	0.303
Mof_C 	C 	0.9945	0.9336	0.999	0.277
Mof_Dy	Dy	0.88234	0.48689	0.66768	2.051
Mof_O 	O 	0.7952	0.28776	0.65624	-0.39
Mof_O 	O 	0.103	0.36288	0.79291	-0.41
Mof_O 	O 	0.1939	0.1817	0.82907	-0.401
Mof_O 	O 	0.8831	0.10625	0.70338	-0.387
Mof_O 	O 	0.66	0.48878	0.47786	-0.404
Mof_O 	O 	0.9808	0.38221	0.56741	-0.396
Mof_O 	O 	0.0381	0.38866	0.43567	-0.382
Mof_O 	O 	0.3894	0.51101	0.35681	-0.399
Mof_C 	C 	0.9035	0.2128	0.7069	0.263
Mof_C 	C 	0.0829	0.2565	0.7832	0.291
Mof_C 	C 	0.5144	0.4999	0.4517	0.293
Mof_C 	C 	0.0055	0.4336	0.501	0.285
Mof_Dy	Dy	0.88234	0.01311	0.16768	2.018
Mof_O 	O 	0.7952	0.21224	0.15624	-0.39
Mof_O 	O 	0.103	0.13712	0.29291	-0.404
Mof_O 	O 	0.1939	0.3183	0.32907	-0.408
Mof_O 	O 	0.8831	0.39375	0.20338	-0.391
Mof_O 	O 	0.66	0.01122	0.97786	-0.399
Mof_O 	O 	0.9808	0.11779	0.06741	-0.399
Mof_O 	O 	0.0381	0.11134	0.93567	-0.366
Mof_O 	O 	0.3894	0.98899	0.85681	-0.407
Mof_C 	C 	0.9035	0.2872	0.2069	0.265
Mof_C 	C 	0.0829	0.2435	0.2832	0.289
Mof_C 	C 	0.5144	0.0001	0.9517	0.303
Mof_C 	C 	0.0055	0.0664	0.001	0.277
Mof_Dy	Dy	0.11766	0.51311	0.33232	2.051
Mof_O 	O 	0.2048	0.71224	0.34376	-0.39
Mof_O 	O 	0.897	0.63712	0.20709	-0.41
Mof_O 	O 	0.8061	0.8183	0.17093	-0.401
Mof_O 	O 	0.1169	0.89375	0.29662	-0.387
Mof_O 	O 	0.34	0.51122	0.52214	-0.404
Mof_O 	O 	0.0192	0.61779	0.43259	-0.396
Mof_O 	O 	0.9619	0.61134	0.56433	-0.382
Mof_O 	O 	0.6106	0.48899	0.64319	-0.399
Mof_C 	C 	0.0965	0.7872	0.2931	0.263
Mof_C 	C 	0.9171	0.7435	0.2168	0.291
Mof_C 	C 	0.4856	0.5001	0.5483	0.293
Mof_C 	C 	0.9945	0.5664	0.499	0.285
_end
