data_functionalizedCrystal
_audit_creation_method	'EQeq! by Chris Wilmer'
_symmetry_space_group_name_H-M	'P1'
_symmetry_Int_Tables_number	1
_symmetry_cell_setting	triclinic
loop_
_symmetry_equiv_pos_as_xyz
  x,y,z
_cell_length_a	7.1091
_cell_length_b	14.5399
_cell_length_c	16.7754
_cell_angle_alpha	104.119
_cell_angle_beta	102.233
_cell_angle_gamma	90
loop_
_atom_site_label
_atom_site_type_symbol
_atom_site_fract_x
_atom_site_fract_y
_atom_site_fract_z
_atom_site_charge
Mof_Eu	Eu	0.50907	0.96882	0.50256	2.393
Mof_Eu	Eu	0.00651	0.03118	0.49744	2.289
Mof_H 	H 	0.2874	0.527	0.1004	0.048
Mof_H 	H 	0.3097	0.4338	0.033	0.049
Mof_H 	H 	0.8898	0.495	0.1138	0.008
Mof_H 	H 	0.9149	0.4282	0.1758	0.012
Mof_H 	H 	0.376	0.3456	0.1322	0.036
Mof_H 	H 	0.36	0.434	0.2058	0.037
Mof_H 	H 	0.9525	0.2876	0.0706	0.105
Mof_H 	H 	0.8903	0.3536	0.0092	0.097
Mof_H 	H 	0.5872	0.3402	0.2514	0.156
Mof_H 	H 	0.789	0.2623	0.338	-0.023
Mof_H 	H 	0.3374	0.1272	0.3728	-0.06
Mof_H 	H 	0.1354	0.203	0.2834	0.157
Mof_H 	H 	0.261	0.2098	0.8656	0.115
Mof_H 	H 	0.1183	0.1195	0.732	-0.003
Mof_H 	H 	0.6114	0.1273	0.7988	0.003
Mof_H 	H 	0.7571	0.2154	0.934	0.098
Mof_H 	H 	0.7085	0.5621	0.2032	0.209
Mof_H 	H 	0.5619	0.6835	0.2806	-0.088
Mof_H 	H 	0.0732	0.79	0.424	-0.191
Mof_H 	H 	0.2222	0.6717	0.3434	0.265
Mof_H 	H 	0.187	0.473	0.8996	0.036
Mof_H 	H 	0.2767	0.5662	0.967	0.033
Mof_H 	H 	0.776	0.505	0.8862	0.012
Mof_H 	H 	0.7391	0.5718	0.8242	0.015
Mof_H 	H 	0.2438	0.6544	0.8678	0.025
Mof_H 	H 	0.1542	0.566	0.7942	0.026
Mof_H 	H 	0.8819	0.7124	0.9294	0.016
Mof_H 	H 	0.8811	0.6464	0.9908	0.006
Mof_H 	H 	0.3358	0.6598	0.7486	0.115
Mof_H 	H 	0.451	0.7377	0.662	0.008
Mof_H 	H 	0.9646	0.8728	0.6272	0.038
Mof_H 	H 	0.852	0.797	0.7166	0.095
Mof_H 	H 	0.3954	0.7902	0.1344	0.166
Mof_H 	H 	0.3863	0.8805	0.268	-0.055
Mof_H 	H 	0.8126	0.8727	0.2012	-0.05
Mof_H 	H 	0.8231	0.7846	0.066	0.154
Mof_H 	H 	0.5053	0.4379	0.7968	0.152
Mof_H 	H 	0.2813	0.3165	0.7194	-0.043
Mof_H 	H 	0.6492	0.21	0.576	-0.081
Mof_H 	H 	0.8788	0.3283	0.6566	0.187
Mof_C 	C 	0.122	0.4131	0.1064	-0.002
Mof_C 	C 	0.218	0.4715	0.0604	-0.007
Mof_C 	C 	0.9834	0.4691	0.1524	0.12
Mof_C 	C 	0.2887	0.3797	0.1648	0.025
Mof_C 	C 	0.0002	0.3299	0.0418	-0.105
Mof_C 	C 	0.3414	0.2777	0.2582	0.344
Mof_C 	C 	0.5363	0.2966	0.2746	-0.337
Mof_C 	C 	0.6564	0.2493	0.3268	0.23
Mof_C 	C 	0.5881	0.1846	0.3622	-0.28
Mof_C 	C 	0.3888	0.1684	0.3476	0.242
Mof_C 	C 	0.2682	0.215	0.2944	-0.339
Mof_C 	C 	0.022	0.2228	0.9116	0.199
Mof_C 	C 	0.1296	0.1932	0.8522	-0.215
Mof_C 	C 	0.0448	0.1386	0.7724	0.091
Mof_C 	C 	0.8492	0.1129	0.753	-0.171
Mof_C 	C 	0.7431	0.1429	0.8122	0.117
Mof_C 	C 	0.8297	0.1971	0.8932	-0.18
Mof_C 	C 	0.7477	0.0588	0.6668	0.499
Mof_C 	C 	0.9798	0.6084	0.2616	0.535
Mof_C 	C 	0.783	0.6091	0.246	-0.506
Mof_C 	C 	0.6952	0.68	0.2944	0.384
Mof_C 	C 	0.8029	0.7454	0.3624	-0.436
Mof_C 	C 	0.9995	0.7442	0.3796	0.535
Mof_C 	C 	0.0889	0.6743	0.3304	-0.609
Mof_C 	C 	0.702	0.8229	0.412	0.537
Mof_C 	C 	0.7219	0.1352	0.416	0.497
Mof_C 	C 	0.0156	0.5869	0.8936	-0.081
Mof_C 	C 	0.1576	0.5285	0.9396	0.015
Mof_C 	C 	0.831	0.5309	0.8476	0.102
Mof_C 	C 	0.1239	0.6203	0.8352	0.05
Mof_C 	C 	0.9584	0.6701	0.9582	0.121
Mof_C 	C 	0.0832	0.7223	0.7418	0.206
Mof_C 	C 	0.2617	0.7034	0.7254	-0.226
Mof_C 	C 	0.3296	0.7507	0.6732	0.118
Mof_C 	C 	0.2259	0.8154	0.6378	-0.171
Mof_C 	C 	0.0412	0.8316	0.6524	0.019
Mof_C 	C 	0.9738	0.785	0.7056	-0.121
Mof_C 	C 	0.1104	0.7772	0.0884	0.326
Mof_C 	C 	0.2774	0.8068	0.1478	-0.346
Mof_C 	C 	0.2724	0.8614	0.2276	0.263
Mof_C 	C 	0.0962	0.8871	0.247	-0.34
Mof_C 	C 	0.9309	0.8571	0.1878	0.28
Mof_C 	C 	0.9365	0.8029	0.1068	-0.32
Mof_C 	C 	0.0809	0.9412	0.3332	0.521
Mof_C 	C 	0.7182	0.3916	0.7384	0.343
Mof_C 	C 	0.537	0.3909	0.754	-0.35
Mof_C 	C 	0.4008	0.32	0.7056	0.239
Mof_C 	C 	0.4405	0.2546	0.6376	-0.299
Mof_C 	C 	0.6199	0.2558	0.6204	0.273
Mof_C 	C 	0.7585	0.3257	0.6696	-0.349
Mof_C 	C 	0.29	0.1771	0.588	0.487
Mof_C 	C 	0.3059	0.8648	0.584	0.453
Mof_O 	O 	0.8311	0.0405	0.6048	-0.657
Mof_O 	O 	0.58042	0.0333	0.65484	-0.527
Mof_O 	O 	0.9005	0.1593	0.4352	-0.485
Mof_O 	O 	0.6594	0.0664	0.4404	-0.693
Mof_O 	O 	0.8021	0.8889	0.4712	-0.687
Mof_O 	O 	0.5239	0.8234	0.3962	-0.526
Mof_O 	O 	0.2113	0.318	0.2074	-0.266
Mof_O 	O 	0.0888	0.5445	0.2184	-0.341
Mof_O 	O 	0.1146	0.2793	0.9872	-0.22
Mof_O 	O 	0.2263	0.9595	0.3952	-0.686
Mof_O 	O 	0.92558	0.9667	0.34516	-0.509
Mof_O 	O 	0.4653	0.8407	0.5648	-0.504
Mof_O 	O 	0.219	0.9336	0.5596	-0.693
Mof_O 	O 	0.3309	0.1111	0.5288	-0.683
Mof_O 	O 	0.1277	0.1766	0.6038	-0.52
Mof_O 	O 	0.0039	0.682	0.7926	-0.246
Mof_O 	O 	0.8704	0.4555	0.7816	-0.254
Mof_O 	O 	0.1274	0.7207	0.0128	-0.276
Mof_O 	O 	0.0774	0.5	-0	-0.175
_end
