data_functionalizedCrystal
_audit_creation_method	'EQeq! by Chris Wilmer'
_symmetry_space_group_name_H-M	'P1'
_symmetry_Int_Tables_number	1
_symmetry_cell_setting	triclinic
loop_
_symmetry_equiv_pos_as_xyz
  x,y,z
_cell_length_a	18.3559
_cell_length_b	26.314
_cell_length_c	42.406
_cell_angle_alpha	90
_cell_angle_beta	90
_cell_angle_gamma	90
loop_
_atom_site_label
_atom_site_type_symbol
_atom_site_fract_x
_atom_site_fract_y
_atom_site_fract_z
_atom_site_charge
Mof_C 	C 	0.7524	0.1226	0.3029	0.313
Mof_C 	C 	0.7511	0.1748	0.2873	-0.114
Mof_C 	C 	0.6849	0.198	0.2804	0.083
Mof_C 	C 	0.749	0.272	0.2615	0.046
Mof_C 	C 	0.816	0.2003	0.2813	0.083
Mof_O 	O 	0.8164	0.1095	0.3164	-0.437
Mof_C 	C 	0.7568	0.4135	0.2167	-0.089
Mof_C 	C 	0.6894	0.3915	0.2228	0.067
Mof_C 	C 	0.749	0.3189	0.2457	0.021
Mof_C 	C 	0.8204	0.3881	0.2251	0.072
Mof_C 	C 	0.526	0.0433	0.3088	0.202
Mof_C 	C 	0.4388	0.0465	0.3075	-0.055
Mof_C 	C 	0.3981	0.0412	0.3349	0.051
Mof_C 	C 	0.3226	0.0375	0.3333	-0.072
Mof_C 	C 	0.2879	0.0392	0.3042	0.017
Mof_C 	C 	0.3286	0.0445	0.2767	-0.016
Mof_C 	C 	0.4041	0.0481	0.2784	0.059
Mof_O 	O 	0.5602	0.0515	0.2809	-0.25
Mof_C 	C 	0.9726	0.0417	0.316	0.19
Mof_C 	C 	0.0577	0.0355	0.3116	-0.055
Mof_C 	C 	0.1018	0.0314	0.3381	0.055
Mof_C 	C 	0.1772	0.0329	0.3349	-0.083
Mof_C 	C 	0.2084	0.0385	0.3053	0.023
Mof_C 	C 	0.1642	0.0427	0.2788	-0.014
Mof_C 	C 	0.0889	0.0412	0.2819	0.055
Mof_O 	O 	0.9534	0.0493	0.3456	-0.322
Mof_O 	O 	0.9336	0.0386	0.2896	-0.296
Mof_C 	C 	0.7495	0.03	0.3831	0.281
Mof_C 	C 	0.7515	0.0199	0.4186	-0.082
Mof_C 	C 	0.8139	0.0302	0.436	0.046
Mof_C 	C 	0.815	0.0209	0.4683	-0.014
Mof_C 	C 	0.7536	0.0013	0.4831	0.009
Mof_C 	C 	0.6911	0.9911	0.4657	-0.015
Mof_C 	C 	0.6901	0.0004	0.4334	0.049
Mof_Zn	Zn	0.844	0.0412	0.32649	1.223
Mof_C 	C 	0.2488	0.089	0.3771	-0.131
Mof_C 	C 	0.1984	0.0953	0.4012	0.014
Mof_C 	C 	0.1843	0.1435	0.4131	-0.005
Mof_C 	C 	0.221	0.1855	0.4008	0.009
Mof_C 	C 	0.271	0.1792	0.3767	-0.017
Mof_C 	C 	0.2851	0.1309	0.3648	0.046
Mof_O 	O 	0.6846	0.0206	0.3699	-0.401
Mof_N 	N 	0.1725	0.0043	0.4059	-0.145
Mof_C 	C 	0.1599	0.0533	0.4169	0.039
Mof_C 	C 	0.108	0.0617	0.4401	-0.012
Mof_C 	C 	0.0679	0.021	0.4521	0.017
Mof_C 	C 	0.08	0.9722	0.4411	-0.022
Mof_C 	C 	0.133	0.9638	0.418	0.062
Mof_O 	O 	0.8116	0.0464	0.3696	-0.434
Mof_N 	N 	0.279	0.9528	0.3802	-0.151
Mof_C 	C 	0.333	0.9494	0.403	0.057
Mof_C 	C 	0.368	0.903	0.4086	-0.019
Mof_C 	C 	0.348	0.8604	0.3913	0.017
Mof_C 	C 	0.294	0.8638	0.3685	-0.024
Mof_C 	C 	0.259	0.91	0.363	0.054
Mof_C 	C 	0.327	0.042	0.4108	-0.046
Mof_C 	C 	0.361	0.9964	0.4179	-0.006
Mof_C 	C 	0.416	0.995	0.4403	0.004
Mof_C 	C 	0.437	0.039	0.4556	0.003
Mof_C 	C 	0.403	0.085	0.4486	-0.006
Mof_C 	C 	0.348	0.0864	0.4262	0.016
Mof_Ir	Ir	0.2483	0.0246	0.37348	0.372
Mof_Zn	Zn	0.6549	0.04096	0.32607	1.233
Mof_C 	C 	0.7584	0.4647	0.1994	0.269
Mof_O 	O 	0.6916	0.0963	0.3015	-0.465
Mof_O 	O 	0.6929	0.4871	0.203	-0.419
Mof_O 	O 	0.821	0.4765	0.1844	-0.448
Mof_O 	O 	0.552	0.0328	0.3372	-0.371
Mof_C 	C 	0.6836	0.2465	0.2675	-0.117
Mof_C 	C 	0.8147	0.2488	0.2684	-0.114
Mof_C 	C 	0.6856	0.3442	0.2373	-0.079
Mof_C 	C 	0.8166	0.3408	0.2396	-0.099
Mof_Ir	Ir	0.6034	0.289	0.2525	0.351
Mof_Ir	Ir	0.896	0.2938	0.2538	0.372
Mof_C 	C 	0.973	0.2404	0.2658	-0.034
Mof_C 	C 	0.009	0.2636	0.2909	-0.055
Mof_C 	C 	0.065	0.238	0.3065	0.007
Mof_C 	C 	0.085	0.19	0.297	0.013
Mof_C 	C 	0.05	0.1668	0.2718	-0
Mof_C 	C 	0.994	0.192	0.2562	0.006
Mof_N 	N 	0.935	0.343	0.2867	-0.143
Mof_C 	C 	0.991	0.3157	0.3009	0.02
Mof_C 	C 	0.027	0.336	0.3268	-0.029
Mof_C 	C 	0.008	0.383	0.3384	0.024
Mof_C 	C 	0.952	0.411	0.3241	-0.024
Mof_C 	C 	0.915	0.39	0.2982	0.045
Mof_C 	C 	0.104	0.239	0.2792	-0.09
Mof_C 	C 	0.055	0.2605	0.3006	0.042
Mof_C 	C 	0.042	0.236	0.329	-0.016
Mof_C 	C 	0.076	0.191	0.3361	0.014
Mof_C 	C 	0.125	0.17	0.315	-0.016
Mof_C 	C 	0.139	0.194	0.2862	0.026
Mof_N 	N 	0.026	0.333	0.2648	-0.139
Mof_C 	C 	0.016	0.3078	0.2933	0.047
Mof_C 	C 	0.971	0.329	0.3163	0.017
Mof_C 	C 	0.936	0.375	0.3108	0.032
Mof_C 	C 	0.946	0.4	0.2822	-0.021
Mof_C 	C 	0.991	0.379	0.2592	0.07
Mof_C 	C 	0.58	0.3418	0.2917	-0.061
Mof_C 	C 	0.534	0.381	0.2823	0.019
Mof_C 	C 	0.514	0.419	0.3035	-0.009
Mof_C 	C 	0.541	0.418	0.3341	0.002
Mof_C 	C 	0.588	0.379	0.3435	-0.01
Mof_C 	C 	0.607	0.341	0.3223	0.012
Mof_N 	N 	0.527	0.3409	0.2311	-0.142
Mof_C 	C 	0.504	0.38	0.2498	0.046
Mof_C 	C 	0.463	0.419	0.2405	-0.019
Mof_C 	C 	0.437	0.418	0.2096	0.017
Mof_C 	C 	0.457	0.379	0.1895	-0.012
Mof_C 	C 	0.502	0.34	0.2003	0.053
Mof_N 	N 	0.519	0.247	0.2717	-0.149
Mof_C 	C 	0.449	0.1726	0.2583	-0.03
Mof_C 	C 	0.41	0.177	0.2862	0.024
Mof_C 	C 	0.426	0.217	0.3069	0.001
Mof_C 	C 	0.48	0.252	0.2997	0.048
Mof_C 	C 	0.6	0.2394	0.2167	-0.088
Mof_C 	C 	0.546	0.203	0.2216	0.021
Mof_C 	C 	0.535	0.165	0.1994	-0.01
Mof_C 	C 	0.577	0.163	0.1722	0.001
Mof_C 	C 	0.631	0.2	0.1673	-0.013
Mof_C 	C 	0.642	0.238	0.1895	0.019
Mof_N 	N 	0.3226	0.9625	0.6667	-0.142
Mof_N 	N 	0.1772	0.9671	0.6651	-0.147
Mof_C 	C 	0.2524	0.6226	0.3029	0.312
Mof_C 	C 	0.2511	0.6748	0.2873	-0.115
Mof_C 	C 	0.1849	0.698	0.2804	0.083
Mof_C 	C 	0.249	0.772	0.2615	0.046
Mof_C 	C 	0.316	0.7003	0.2813	0.083
Mof_O 	O 	0.3164	0.6095	0.3164	-0.437
Mof_C 	C 	0.2568	0.9135	0.2167	-0.089
Mof_C 	C 	0.1894	0.8915	0.2228	0.067
Mof_C 	C 	0.249	0.8189	0.2457	0.021
Mof_C 	C 	0.3204	0.8881	0.2251	0.072
Mof_C 	C 	0.026	0.5433	0.3088	0.201
Mof_C 	C 	0.9388	0.5465	0.3075	-0.054
Mof_C 	C 	0.8981	0.5412	0.3349	0.051
Mof_C 	C 	0.8226	0.5375	0.3333	-0.071
Mof_C 	C 	0.7879	0.5392	0.3042	0.017
Mof_C 	C 	0.8286	0.5445	0.2767	-0.016
Mof_C 	C 	0.9041	0.5481	0.2784	0.059
Mof_O 	O 	0.0602	0.5515	0.2809	-0.25
Mof_C 	C 	0.4726	0.5417	0.316	0.189
Mof_C 	C 	0.5577	0.5355	0.3116	-0.054
Mof_C 	C 	0.6018	0.5314	0.3381	0.055
Mof_C 	C 	0.6772	0.5329	0.3349	-0.083
Mof_C 	C 	0.7084	0.5385	0.3053	0.023
Mof_C 	C 	0.6642	0.5427	0.2788	-0.014
Mof_C 	C 	0.5889	0.5412	0.2819	0.055
Mof_O 	O 	0.4534	0.5493	0.3456	-0.322
Mof_O 	O 	0.4336	0.5386	0.2896	-0.297
Mof_C 	C 	0.2495	0.53	0.3831	0.281
Mof_C 	C 	0.2515	0.5199	0.4186	-0.082
Mof_C 	C 	0.3139	0.5302	0.436	0.046
Mof_C 	C 	0.315	0.5209	0.4683	-0.014
Mof_C 	C 	0.2536	0.5013	0.4831	0.009
Mof_C 	C 	0.1911	0.4911	0.4657	-0.015
Mof_C 	C 	0.1901	0.5004	0.4334	0.048
Mof_Zn	Zn	0.344	0.5412	0.32649	1.223
Mof_C 	C 	0.7488	0.589	0.3771	-0.131
Mof_C 	C 	0.6984	0.5953	0.4012	0.014
Mof_C 	C 	0.6843	0.6435	0.4131	-0.005
Mof_C 	C 	0.721	0.6855	0.4008	0.009
Mof_C 	C 	0.771	0.6792	0.3767	-0.017
Mof_C 	C 	0.7851	0.6309	0.3648	0.046
Mof_O 	O 	0.1846	0.5206	0.3699	-0.402
Mof_N 	N 	0.6725	0.5043	0.4059	-0.145
Mof_C 	C 	0.6599	0.5533	0.4169	0.039
Mof_C 	C 	0.608	0.5617	0.4401	-0.011
Mof_C 	C 	0.5679	0.521	0.4521	0.017
Mof_C 	C 	0.58	0.4722	0.4411	-0.021
Mof_C 	C 	0.633	0.4638	0.418	0.062
Mof_O 	O 	0.3116	0.5464	0.3696	-0.434
Mof_N 	N 	0.779	0.4528	0.3802	-0.151
Mof_C 	C 	0.833	0.4494	0.403	0.057
Mof_C 	C 	0.868	0.403	0.4086	-0.019
Mof_C 	C 	0.848	0.3604	0.3913	0.017
Mof_C 	C 	0.794	0.3638	0.3685	-0.024
Mof_C 	C 	0.759	0.41	0.363	0.054
Mof_C 	C 	0.827	0.542	0.4108	-0.046
Mof_C 	C 	0.861	0.4964	0.4179	-0.006
Mof_C 	C 	0.916	0.495	0.4403	0.004
Mof_C 	C 	0.937	0.539	0.4556	0.004
Mof_C 	C 	0.903	0.585	0.4486	-0.005
Mof_C 	C 	0.848	0.5864	0.4262	0.016
Mof_Ir	Ir	0.7483	0.5246	0.37348	0.372
Mof_Zn	Zn	0.1549	0.54096	0.32607	1.233
Mof_C 	C 	0.2584	0.9647	0.1994	0.269
Mof_O 	O 	0.1916	0.5963	0.3015	-0.466
Mof_O 	O 	0.1929	0.9871	0.203	-0.419
Mof_O 	O 	0.321	0.9765	0.1844	-0.448
Mof_O 	O 	0.052	0.5328	0.3372	-0.371
Mof_C 	C 	0.1836	0.7465	0.2675	-0.117
Mof_C 	C 	0.3147	0.7488	0.2684	-0.114
Mof_C 	C 	0.1856	0.8442	0.2373	-0.079
Mof_C 	C 	0.3166	0.8408	0.2396	-0.1
Mof_Ir	Ir	0.1034	0.789	0.2525	0.351
Mof_Ir	Ir	0.396	0.7938	0.2538	0.373
Mof_C 	C 	0.473	0.7404	0.2658	-0.04
Mof_C 	C 	0.509	0.7636	0.2909	-0.05
Mof_C 	C 	0.565	0.738	0.3065	0.004
Mof_C 	C 	0.585	0.69	0.297	0.015
Mof_C 	C 	0.55	0.6668	0.2718	-0.001
Mof_C 	C 	0.494	0.692	0.2562	0.013
Mof_N 	N 	0.435	0.843	0.2867	-0.142
Mof_C 	C 	0.491	0.8157	0.3009	0.023
Mof_C 	C 	0.527	0.836	0.3268	-0.028
Mof_C 	C 	0.508	0.883	0.3384	0.027
Mof_C 	C 	0.452	0.911	0.3241	-0.024
Mof_C 	C 	0.415	0.89	0.2982	0.054
Mof_C 	C 	0.604	0.739	0.2792	-0.09
Mof_C 	C 	0.555	0.7605	0.3006	0.042
Mof_C 	C 	0.542	0.736	0.329	-0.014
Mof_C 	C 	0.576	0.691	0.3361	0.014
Mof_C 	C 	0.625	0.67	0.315	-0.017
Mof_C 	C 	0.639	0.694	0.2862	0.026
Mof_N 	N 	0.526	0.833	0.2648	-0.136
Mof_C 	C 	0.516	0.8078	0.2933	0.043
Mof_C 	C 	0.471	0.829	0.3163	0.015
Mof_C 	C 	0.436	0.875	0.3108	0.023
Mof_C 	C 	0.446	0.9	0.2822	-0.023
Mof_C 	C 	0.491	0.879	0.2592	0.061
Mof_C 	C 	0.08	0.8418	0.2917	-0.062
Mof_C 	C 	0.034	0.881	0.2823	0.018
Mof_C 	C 	0.014	0.919	0.3035	-0.01
Mof_C 	C 	0.041	0.918	0.3341	0.002
Mof_C 	C 	0.088	0.879	0.3435	-0.011
Mof_C 	C 	0.107	0.841	0.3223	0.011
Mof_N 	N 	0.027	0.8409	0.2311	-0.143
Mof_C 	C 	0.004	0.88	0.2498	0.05
Mof_C 	C 	0.963	0.919	0.2405	-0.017
Mof_C 	C 	0.937	0.918	0.2096	0.015
Mof_C 	C 	0.957	0.879	0.1895	-0.011
Mof_C 	C 	0.002	0.84	0.2003	0.051
Mof_N 	N 	0.019	0.747	0.2717	-0.149
Mof_C 	C 	0.949	0.6726	0.2583	-0.028
Mof_C 	C 	0.91	0.677	0.2862	0.023
Mof_C 	C 	0.926	0.717	0.3069	0.001
Mof_C 	C 	0.98	0.752	0.2997	0.049
Mof_C 	C 	0.1	0.7394	0.2167	-0.088
Mof_C 	C 	0.046	0.703	0.2216	0.022
Mof_C 	C 	0.035	0.665	0.1994	-0.011
Mof_C 	C 	0.077	0.663	0.1722	0.001
Mof_C 	C 	0.131	0.7	0.1673	-0.014
Mof_C 	C 	0.142	0.738	0.1895	0.019
Mof_N 	N 	0.8226	0.4625	0.6667	-0.142
Mof_N 	N 	0.6772	0.4671	0.6651	-0.147
Mof_C 	C 	0.2476	0.8774	0.8029	0.312
Mof_C 	C 	0.2489	0.8252	0.7873	-0.115
Mof_C 	C 	0.3151	0.802	0.7804	0.083
Mof_C 	C 	0.251	0.728	0.7615	0.046
Mof_C 	C 	0.184	0.7997	0.7813	0.083
Mof_O 	O 	0.1836	0.8905	0.8164	-0.437
Mof_C 	C 	0.2432	0.5865	0.7167	-0.089
Mof_C 	C 	0.3106	0.6085	0.7228	0.067
Mof_C 	C 	0.251	0.6811	0.7457	0.021
Mof_C 	C 	0.1796	0.6119	0.7251	0.072
Mof_C 	C 	0.474	0.9567	0.8088	0.202
Mof_C 	C 	0.5612	0.9535	0.8075	-0.055
Mof_C 	C 	0.6019	0.9588	0.8349	0.051
Mof_C 	C 	0.6774	0.9625	0.8333	-0.072
Mof_C 	C 	0.7121	0.9608	0.8042	0.017
Mof_C 	C 	0.6714	0.9555	0.7767	-0.016
Mof_C 	C 	0.5959	0.9519	0.7784	0.059
Mof_O 	O 	0.4398	0.9485	0.7809	-0.25
Mof_C 	C 	0.0274	0.9583	0.816	0.187
Mof_C 	C 	0.9423	0.9645	0.8116	-0.052
Mof_C 	C 	0.8982	0.9686	0.8381	0.055
Mof_C 	C 	0.8228	0.9671	0.8349	-0.083
Mof_C 	C 	0.7916	0.9615	0.8053	0.023
Mof_C 	C 	0.8358	0.9573	0.7788	-0.014
Mof_C 	C 	0.9111	0.9588	0.7819	0.055
Mof_O 	O 	0.0466	0.9507	0.8456	-0.322
Mof_O 	O 	0.0664	0.9614	0.7896	-0.297
Mof_C 	C 	0.2505	0.97	0.8831	0.281
Mof_C 	C 	0.2485	0.9801	0.9186	-0.082
Mof_C 	C 	0.1861	0.9698	0.936	0.045
Mof_C 	C 	0.185	0.9791	0.9683	-0.015
Mof_C 	C 	0.2464	0.9987	0.9831	0.009
Mof_C 	C 	0.3089	0.0089	0.9657	-0.014
Mof_C 	C 	0.3099	0.9996	0.9334	0.048
Mof_Zn	Zn	0.156	0.9588	0.82649	1.223
Mof_C 	C 	0.7512	0.911	0.8771	-0.131
Mof_C 	C 	0.8016	0.9047	0.9012	0.014
Mof_C 	C 	0.8157	0.8565	0.9131	-0.004
Mof_C 	C 	0.779	0.8145	0.9008	0.009
Mof_C 	C 	0.729	0.8208	0.8767	-0.017
Mof_C 	C 	0.7149	0.8691	0.8648	0.046
Mof_O 	O 	0.3154	0.9794	0.8699	-0.401
Mof_N 	N 	0.8275	0.9957	0.9059	-0.145
Mof_C 	C 	0.8401	0.9467	0.9169	0.039
Mof_C 	C 	0.892	0.9383	0.9401	-0.011
Mof_C 	C 	0.9321	0.979	0.9521	0.017
Mof_C 	C 	0.92	0.0278	0.9411	-0.021
Mof_C 	C 	0.867	0.0362	0.918	0.062
Mof_O 	O 	0.1884	0.9536	0.8696	-0.434
Mof_N 	N 	0.721	0.0472	0.8802	-0.151
Mof_C 	C 	0.667	0.0506	0.903	0.057
Mof_C 	C 	0.632	0.097	0.9086	-0.019
Mof_C 	C 	0.652	0.1396	0.8913	0.017
Mof_C 	C 	0.706	0.1362	0.8685	-0.024
Mof_C 	C 	0.741	0.09	0.863	0.054
Mof_C 	C 	0.673	0.958	0.9108	-0.046
Mof_C 	C 	0.639	0.0036	0.9179	-0.006
Mof_C 	C 	0.584	0.005	0.9403	0.004
Mof_C 	C 	0.563	0.961	0.9556	0.003
Mof_C 	C 	0.597	0.915	0.9486	-0.006
Mof_C 	C 	0.652	0.9136	0.9262	0.016
Mof_Ir	Ir	0.7517	0.9754	0.87348	0.372
Mof_Zn	Zn	0.3451	0.95904	0.82607	1.233
Mof_C 	C 	0.2416	0.5353	0.6994	0.269
Mof_O 	O 	0.3084	0.9037	0.8015	-0.465
Mof_O 	O 	0.3071	0.5129	0.703	-0.419
Mof_O 	O 	0.179	0.5235	0.6844	-0.449
Mof_O 	O 	0.448	0.9672	0.8372	-0.371
Mof_C 	C 	0.3164	0.7535	0.7675	-0.117
Mof_C 	C 	0.1853	0.7512	0.7684	-0.114
Mof_C 	C 	0.3144	0.6558	0.7373	-0.08
Mof_C 	C 	0.1834	0.6592	0.7396	-0.1
Mof_Ir	Ir	0.3966	0.711	0.7525	0.351
Mof_Ir	Ir	0.104	0.7062	0.7538	0.373
Mof_C 	C 	0.027	0.7596	0.7658	-0.045
Mof_C 	C 	0.991	0.7364	0.7909	-0.044
Mof_C 	C 	0.935	0.762	0.8065	0.001
Mof_C 	C 	0.915	0.81	0.797	0.016
Mof_C 	C 	0.95	0.8332	0.7718	-0.001
Mof_C 	C 	0.006	0.808	0.7562	0.019
Mof_N 	N 	0.065	0.657	0.7867	-0.142
Mof_C 	C 	0.009	0.6843	0.8009	0.026
Mof_C 	C 	0.973	0.664	0.8268	-0.026
Mof_C 	C 	0.992	0.617	0.8384	0.029
Mof_C 	C 	0.048	0.589	0.8241	-0.024
Mof_C 	C 	0.085	0.61	0.7982	0.063
Mof_C 	C 	0.896	0.761	0.7792	-0.089
Mof_C 	C 	0.945	0.7395	0.8006	0.041
Mof_C 	C 	0.958	0.764	0.829	-0.013
Mof_C 	C 	0.924	0.809	0.8361	0.014
Mof_C 	C 	0.875	0.83	0.815	-0.017
Mof_C 	C 	0.861	0.806	0.7862	0.025
Mof_N 	N 	0.974	0.667	0.7648	-0.134
Mof_C 	C 	0.984	0.6922	0.7933	0.038
Mof_C 	C 	0.029	0.671	0.8163	0.014
Mof_C 	C 	0.064	0.625	0.8108	0.015
Mof_C 	C 	0.054	0.6	0.7822	-0.025
Mof_C 	C 	0.009	0.621	0.7592	0.053
Mof_C 	C 	0.42	0.6582	0.7917	-0.061
Mof_C 	C 	0.466	0.619	0.7823	0.019
Mof_C 	C 	0.486	0.581	0.8035	-0.009
Mof_C 	C 	0.459	0.582	0.8341	0.002
Mof_C 	C 	0.412	0.621	0.8435	-0.01
Mof_C 	C 	0.393	0.659	0.8223	0.011
Mof_N 	N 	0.473	0.6591	0.7311	-0.142
Mof_C 	C 	0.496	0.62	0.7498	0.046
Mof_C 	C 	0.537	0.581	0.7405	-0.019
Mof_C 	C 	0.563	0.582	0.7096	0.017
Mof_C 	C 	0.543	0.621	0.6895	-0.012
Mof_C 	C 	0.498	0.66	0.7003	0.053
Mof_N 	N 	0.481	0.753	0.7717	-0.149
Mof_C 	C 	0.551	0.8274	0.7583	-0.03
Mof_C 	C 	0.59	0.823	0.7862	0.024
Mof_C 	C 	0.574	0.783	0.8069	0.001
Mof_C 	C 	0.52	0.748	0.7997	0.048
Mof_C 	C 	0.4	0.7606	0.7167	-0.088
Mof_C 	C 	0.454	0.797	0.7216	0.021
Mof_C 	C 	0.465	0.835	0.6994	-0.01
Mof_C 	C 	0.423	0.837	0.6722	0.001
Mof_C 	C 	0.369	0.8	0.6673	-0.013
Mof_C 	C 	0.358	0.762	0.6895	0.019
Mof_N 	N 	0.6774	0.0375	0.1667	-0.142
Mof_N 	N 	0.8228	0.0329	0.1651	-0.146
Mof_C 	C 	0.7476	0.3774	0.8029	0.312
Mof_C 	C 	0.7489	0.3252	0.7873	-0.115
Mof_C 	C 	0.8151	0.302	0.7804	0.083
Mof_C 	C 	0.751	0.228	0.7615	0.046
Mof_C 	C 	0.684	0.2997	0.7813	0.083
Mof_O 	O 	0.6836	0.3905	0.8164	-0.437
Mof_C 	C 	0.7432	0.0865	0.7167	-0.089
Mof_C 	C 	0.8106	0.1085	0.7228	0.067
Mof_C 	C 	0.751	0.1811	0.7457	0.021
Mof_C 	C 	0.6796	0.1119	0.7251	0.072
Mof_C 	C 	0.974	0.4567	0.8088	0.204
Mof_C 	C 	0.0612	0.4535	0.8075	-0.056
Mof_C 	C 	0.1019	0.4588	0.8349	0.051
Mof_C 	C 	0.1774	0.4625	0.8333	-0.072
Mof_C 	C 	0.2121	0.4608	0.8042	0.017
Mof_C 	C 	0.1714	0.4555	0.7767	-0.016
Mof_C 	C 	0.0959	0.4519	0.7784	0.059
Mof_O 	O 	0.9398	0.4485	0.7809	-0.25
Mof_C 	C 	0.5274	0.4583	0.816	0.189
Mof_C 	C 	0.4423	0.4645	0.8116	-0.054
Mof_C 	C 	0.3982	0.4686	0.8381	0.055
Mof_C 	C 	0.3228	0.4671	0.8349	-0.083
Mof_C 	C 	0.2916	0.4615	0.8053	0.023
Mof_C 	C 	0.3358	0.4573	0.7788	-0.014
Mof_C 	C 	0.4111	0.4588	0.7819	0.055
Mof_O 	O 	0.5466	0.4507	0.8456	-0.322
Mof_O 	O 	0.5664	0.4614	0.7896	-0.297
Mof_C 	C 	0.7505	0.47	0.8831	0.281
Mof_C 	C 	0.7485	0.4801	0.9186	-0.082
Mof_C 	C 	0.6861	0.4698	0.936	0.046
Mof_C 	C 	0.685	0.4791	0.9683	-0.014
Mof_C 	C 	0.7464	0.4987	0.9831	0.01
Mof_C 	C 	0.8089	0.5089	0.9657	-0.014
Mof_C 	C 	0.8099	0.4996	0.9334	0.049
Mof_Zn	Zn	0.656	0.4588	0.82649	1.223
Mof_C 	C 	0.2512	0.411	0.8771	-0.131
Mof_C 	C 	0.3016	0.4047	0.9012	0.014
Mof_C 	C 	0.3157	0.3565	0.9131	-0.005
Mof_C 	C 	0.279	0.3145	0.9008	0.009
Mof_C 	C 	0.229	0.3208	0.8767	-0.017
Mof_C 	C 	0.2149	0.3691	0.8648	0.046
Mof_O 	O 	0.8154	0.4794	0.8699	-0.401
Mof_N 	N 	0.3275	0.4957	0.9059	-0.145
Mof_C 	C 	0.3401	0.4467	0.9169	0.039
Mof_C 	C 	0.392	0.4383	0.9401	-0.011
Mof_C 	C 	0.4321	0.479	0.9521	0.017
Mof_C 	C 	0.42	0.5278	0.9411	-0.021
Mof_C 	C 	0.367	0.5362	0.918	0.062
Mof_O 	O 	0.6884	0.4536	0.8696	-0.434
Mof_N 	N 	0.221	0.5472	0.8802	-0.151
Mof_C 	C 	0.167	0.5506	0.903	0.057
Mof_C 	C 	0.132	0.597	0.9086	-0.019
Mof_C 	C 	0.152	0.6396	0.8913	0.017
Mof_C 	C 	0.206	0.6362	0.8685	-0.024
Mof_C 	C 	0.241	0.59	0.863	0.054
Mof_C 	C 	0.173	0.458	0.9108	-0.046
Mof_C 	C 	0.139	0.5036	0.9179	-0.006
Mof_C 	C 	0.084	0.505	0.9403	0.004
Mof_C 	C 	0.063	0.461	0.9556	0.003
Mof_C 	C 	0.097	0.415	0.9486	-0.006
Mof_C 	C 	0.152	0.4136	0.9262	0.016
Mof_Ir	Ir	0.2517	0.4754	0.87348	0.372
Mof_Zn	Zn	0.8451	0.45904	0.82607	1.233
Mof_C 	C 	0.7416	0.0353	0.6994	0.269
Mof_O 	O 	0.8084	0.4037	0.8015	-0.465
Mof_O 	O 	0.8071	0.0129	0.703	-0.419
Mof_O 	O 	0.679	0.0235	0.6844	-0.448
Mof_O 	O 	0.948	0.4672	0.8372	-0.371
Mof_C 	C 	0.8164	0.2535	0.7675	-0.117
Mof_C 	C 	0.6853	0.2512	0.7684	-0.114
Mof_C 	C 	0.8144	0.1558	0.7373	-0.08
Mof_C 	C 	0.6834	0.1592	0.7396	-0.1
Mof_Ir	Ir	0.8966	0.211	0.7525	0.352
Mof_Ir	Ir	0.604	0.2062	0.7538	0.373
Mof_C 	C 	0.527	0.2596	0.7658	-0.04
Mof_C 	C 	0.491	0.2364	0.7909	-0.05
Mof_C 	C 	0.435	0.262	0.8065	0.004
Mof_C 	C 	0.415	0.31	0.797	0.015
Mof_C 	C 	0.45	0.3332	0.7718	-0.001
Mof_C 	C 	0.506	0.308	0.7562	0.013
Mof_N 	N 	0.565	0.157	0.7867	-0.142
Mof_C 	C 	0.509	0.1843	0.8009	0.023
Mof_C 	C 	0.473	0.164	0.8268	-0.028
Mof_C 	C 	0.492	0.117	0.8384	0.027
Mof_C 	C 	0.548	0.089	0.8241	-0.024
Mof_C 	C 	0.585	0.11	0.7982	0.054
Mof_C 	C 	0.396	0.261	0.7792	-0.09
Mof_C 	C 	0.445	0.2395	0.8006	0.041
Mof_C 	C 	0.458	0.264	0.829	-0.014
Mof_C 	C 	0.424	0.309	0.8361	0.014
Mof_C 	C 	0.375	0.33	0.815	-0.016
Mof_C 	C 	0.361	0.306	0.7862	0.026
Mof_N 	N 	0.474	0.167	0.7648	-0.136
Mof_C 	C 	0.484	0.1922	0.7933	0.042
Mof_C 	C 	0.529	0.171	0.8163	0.016
Mof_C 	C 	0.564	0.125	0.8108	0.023
Mof_C 	C 	0.554	0.1	0.7822	-0.023
Mof_C 	C 	0.509	0.121	0.7592	0.061
Mof_C 	C 	0.92	0.1582	0.7917	-0.061
Mof_C 	C 	0.966	0.119	0.7823	0.02
Mof_C 	C 	0.986	0.081	0.8035	-0.008
Mof_C 	C 	0.959	0.082	0.8341	0.002
Mof_C 	C 	0.912	0.121	0.8435	-0.01
Mof_C 	C 	0.893	0.159	0.8223	0.012
Mof_N 	N 	0.973	0.1591	0.7311	-0.142
Mof_C 	C 	0.996	0.12	0.7498	0.042
Mof_C 	C 	0.037	0.081	0.7405	-0.021
Mof_C 	C 	0.063	0.082	0.7096	0.019
Mof_C 	C 	0.043	0.121	0.6895	-0.013
Mof_C 	C 	0.998	0.16	0.7003	0.055
Mof_N 	N 	0.981	0.253	0.7717	-0.147
Mof_C 	C 	0.051	0.3274	0.7583	-0.03
Mof_C 	C 	0.09	0.323	0.7862	0.024
Mof_C 	C 	0.074	0.283	0.8069	0.002
Mof_C 	C 	0.02	0.248	0.7997	0.047
Mof_C 	C 	0.9	0.2606	0.7167	-0.088
Mof_C 	C 	0.954	0.297	0.7216	0.023
Mof_C 	C 	0.965	0.335	0.6994	-0.01
Mof_C 	C 	0.923	0.337	0.6722	0.001
Mof_C 	C 	0.869	0.3	0.6673	-0.013
Mof_C 	C 	0.858	0.262	0.6895	0.02
Mof_N 	N 	0.1774	0.5375	0.1667	-0.142
Mof_N 	N 	0.3228	0.5329	0.1651	-0.147
Mof_C 	C 	0.2476	0.1226	0.1971	0.312
Mof_C 	C 	0.2489	0.1748	0.2127	-0.115
Mof_C 	C 	0.3151	0.198	0.2196	0.083
Mof_C 	C 	0.251	0.272	0.2385	0.046
Mof_C 	C 	0.184	0.2003	0.2187	0.083
Mof_O 	O 	0.1836	0.1095	0.1836	-0.437
Mof_C 	C 	0.2432	0.4135	0.2833	-0.089
Mof_C 	C 	0.3106	0.3915	0.2772	0.067
Mof_C 	C 	0.251	0.3189	0.2543	0.021
Mof_C 	C 	0.1796	0.3881	0.2749	0.072
Mof_C 	C 	0.474	0.0433	0.1912	0.206
Mof_C 	C 	0.5612	0.0465	0.1925	-0.068
Mof_C 	C 	0.6019	0.0412	0.1651	0.086
Mof_C 	C 	0.7121	0.0392	0.1958	0.049
Mof_C 	C 	0.6714	0.0445	0.2233	-0.027
Mof_C 	C 	0.5959	0.0481	0.2216	0.069
Mof_O 	O 	0.4398	0.0515	0.2191	-0.251
Mof_C 	C 	0.0274	0.0417	0.184	0.19
Mof_C 	C 	0.9423	0.0355	0.1884	-0.064
Mof_C 	C 	0.8982	0.0314	0.1619	0.087
Mof_C 	C 	0.7916	0.0385	0.1947	0.05
Mof_C 	C 	0.8358	0.0427	0.2212	-0.023
Mof_C 	C 	0.9111	0.0412	0.2181	0.064
Mof_O 	O 	0.0466	0.0493	0.1544	-0.324
Mof_O 	O 	0.0664	0.0386	0.2104	-0.298
Mof_C 	C 	0.2505	0.03	0.1169	0.281
Mof_C 	C 	0.2485	0.0199	0.0814	-0.082
Mof_C 	C 	0.1861	0.0302	0.064	0.045
Mof_C 	C 	0.185	0.0209	0.0317	-0.015
Mof_C 	C 	0.2464	0.0013	0.0169	0.009
Mof_C 	C 	0.3089	0.9911	0.0343	-0.014
Mof_C 	C 	0.3099	0.0004	0.0666	0.048
Mof_Zn	Zn	0.156	0.0412	0.17351	1.223
Mof_C 	C 	0.7512	0.089	0.1229	-0.13
Mof_C 	C 	0.8016	0.0953	0.0988	0.014
Mof_C 	C 	0.8157	0.1435	0.0869	-0.005
Mof_C 	C 	0.779	0.1855	0.0992	0.01
Mof_C 	C 	0.729	0.1792	0.1233	-0.019
Mof_C 	C 	0.7149	0.1309	0.1352	0.052
Mof_O 	O 	0.3154	0.0206	0.1301	-0.401
Mof_N 	N 	0.8275	0.0043	0.0941	-0.146
Mof_C 	C 	0.8401	0.0533	0.0831	0.039
Mof_C 	C 	0.892	0.0617	0.0599	-0.011
Mof_C 	C 	0.9321	0.021	0.0479	0.017
Mof_C 	C 	0.92	0.9722	0.0589	-0.021
Mof_C 	C 	0.867	0.9638	0.082	0.062
Mof_O 	O 	0.1884	0.0464	0.1304	-0.434
Mof_N 	N 	0.721	0.9528	0.1198	-0.152
Mof_C 	C 	0.667	0.9494	0.097	0.057
Mof_C 	C 	0.632	0.903	0.0914	-0.019
Mof_C 	C 	0.652	0.8604	0.1087	0.017
Mof_C 	C 	0.706	0.8638	0.1315	-0.024
Mof_C 	C 	0.741	0.91	0.137	0.056
Mof_C 	C 	0.673	0.042	0.0892	-0.048
Mof_C 	C 	0.639	0.9964	0.0821	-0.006
Mof_C 	C 	0.584	0.995	0.0597	0.004
Mof_C 	C 	0.563	0.039	0.0444	0.003
Mof_C 	C 	0.597	0.085	0.0514	-0.006
Mof_C 	C 	0.652	0.0864	0.0738	0.017
Mof_Ir	Ir	0.7517	0.0246	0.12652	0.401
Mof_Zn	Zn	0.3451	0.04096	0.17393	1.233
Mof_C 	C 	0.2416	0.4647	0.3006	0.269
Mof_O 	O 	0.3084	0.0963	0.1985	-0.466
Mof_O 	O 	0.3071	0.4871	0.297	-0.419
Mof_O 	O 	0.179	0.4765	0.3156	-0.448
Mof_O 	O 	0.448	0.0328	0.1628	-0.373
Mof_C 	C 	0.3164	0.2465	0.2325	-0.117
Mof_C 	C 	0.1853	0.2488	0.2316	-0.114
Mof_C 	C 	0.3144	0.3442	0.2627	-0.079
Mof_C 	C 	0.1834	0.3408	0.2604	-0.1
Mof_Ir	Ir	0.3966	0.289	0.2475	0.351
Mof_Ir	Ir	0.104	0.2938	0.2462	0.373
Mof_C 	C 	0.027	0.2404	0.2342	-0.045
Mof_C 	C 	0.991	0.2636	0.2091	-0.045
Mof_C 	C 	0.935	0.238	0.1935	0
Mof_C 	C 	0.915	0.19	0.203	0.015
Mof_C 	C 	0.95	0.1668	0.2282	-0.001
Mof_C 	C 	0.006	0.192	0.2438	0.02
Mof_N 	N 	0.065	0.343	0.2133	-0.142
Mof_C 	C 	0.009	0.3157	0.1991	0.026
Mof_C 	C 	0.973	0.336	0.1732	-0.026
Mof_C 	C 	0.992	0.383	0.1616	0.028
Mof_C 	C 	0.048	0.411	0.1759	-0.024
Mof_C 	C 	0.085	0.39	0.2018	0.063
Mof_C 	C 	0.896	0.239	0.2208	-0.089
Mof_C 	C 	0.945	0.2605	0.1994	0.042
Mof_C 	C 	0.958	0.236	0.171	-0.012
Mof_C 	C 	0.924	0.191	0.1639	0.014
Mof_C 	C 	0.875	0.17	0.185	-0.015
Mof_C 	C 	0.861	0.194	0.2138	0.025
Mof_N 	N 	0.974	0.333	0.2352	-0.134
Mof_C 	C 	0.984	0.3078	0.2067	0.038
Mof_C 	C 	0.029	0.329	0.1837	0.014
Mof_C 	C 	0.064	0.375	0.1892	0.015
Mof_C 	C 	0.054	0.4	0.2178	-0.024
Mof_C 	C 	0.009	0.379	0.2408	0.05
Mof_C 	C 	0.42	0.3418	0.2083	-0.061
Mof_C 	C 	0.466	0.381	0.2177	0.019
Mof_C 	C 	0.486	0.419	0.1965	-0.009
Mof_C 	C 	0.459	0.418	0.1659	0.002
Mof_C 	C 	0.412	0.379	0.1565	-0.01
Mof_C 	C 	0.393	0.341	0.1777	0.011
Mof_N 	N 	0.473	0.3409	0.2689	-0.142
Mof_C 	C 	0.496	0.38	0.2502	0.046
Mof_C 	C 	0.537	0.419	0.2595	-0.019
Mof_C 	C 	0.563	0.418	0.2904	0.016
Mof_C 	C 	0.543	0.379	0.3105	-0.012
Mof_C 	C 	0.498	0.34	0.2997	0.053
Mof_N 	N 	0.481	0.247	0.2283	-0.149
Mof_C 	C 	0.551	0.1726	0.2417	-0.03
Mof_C 	C 	0.59	0.177	0.2138	0.025
Mof_C 	C 	0.574	0.217	0.1931	0.001
Mof_C 	C 	0.52	0.252	0.2003	0.048
Mof_C 	C 	0.4	0.2394	0.2833	-0.088
Mof_C 	C 	0.454	0.203	0.2784	0.021
Mof_C 	C 	0.465	0.165	0.3006	-0.01
Mof_C 	C 	0.423	0.163	0.3278	0
Mof_C 	C 	0.369	0.2	0.3327	-0.013
Mof_C 	C 	0.358	0.238	0.3105	0.019
Mof_C 	C 	0.7476	0.6226	0.1971	0.312
Mof_C 	C 	0.7489	0.6748	0.2127	-0.115
Mof_C 	C 	0.8151	0.698	0.2196	0.083
Mof_C 	C 	0.751	0.772	0.2385	0.046
Mof_C 	C 	0.684	0.7003	0.2187	0.083
Mof_O 	O 	0.6836	0.6095	0.1836	-0.437
Mof_C 	C 	0.7432	0.9135	0.2833	-0.089
Mof_C 	C 	0.8106	0.8915	0.2772	0.067
Mof_C 	C 	0.751	0.8189	0.2543	0.021
Mof_C 	C 	0.6796	0.8881	0.2749	0.072
Mof_C 	C 	0.974	0.5433	0.1912	0.207
Mof_C 	C 	0.0612	0.5465	0.1925	-0.069
Mof_C 	C 	0.1019	0.5412	0.1651	0.086
Mof_C 	C 	0.2121	0.5392	0.1958	0.049
Mof_C 	C 	0.1714	0.5445	0.2233	-0.027
Mof_C 	C 	0.0959	0.5481	0.2216	0.069
Mof_O 	O 	0.9398	0.5515	0.2191	-0.25
Mof_C 	C 	0.5274	0.5417	0.184	0.192
Mof_C 	C 	0.4423	0.5355	0.1884	-0.065
Mof_C 	C 	0.3982	0.5314	0.1619	0.087
Mof_C 	C 	0.2916	0.5385	0.1947	0.05
Mof_C 	C 	0.3358	0.5427	0.2212	-0.023
Mof_C 	C 	0.4111	0.5412	0.2181	0.064
Mof_O 	O 	0.5466	0.5493	0.1544	-0.323
Mof_O 	O 	0.5664	0.5386	0.2104	-0.297
Mof_C 	C 	0.7505	0.53	0.1169	0.281
Mof_C 	C 	0.7485	0.5199	0.0814	-0.082
Mof_C 	C 	0.6861	0.5302	0.064	0.046
Mof_C 	C 	0.685	0.5209	0.0317	-0.014
Mof_C 	C 	0.7464	0.5013	0.0169	0.01
Mof_C 	C 	0.8089	0.4911	0.0343	-0.014
Mof_C 	C 	0.8099	0.5004	0.0666	0.049
Mof_Zn	Zn	0.656	0.5412	0.17351	1.223
Mof_C 	C 	0.2512	0.589	0.1229	-0.13
Mof_C 	C 	0.3016	0.5953	0.0988	0.014
Mof_C 	C 	0.3157	0.6435	0.0869	-0.005
Mof_C 	C 	0.279	0.6855	0.0992	0.01
Mof_C 	C 	0.229	0.6792	0.1233	-0.019
Mof_C 	C 	0.2149	0.6309	0.1352	0.052
Mof_O 	O 	0.8154	0.5206	0.1301	-0.401
Mof_N 	N 	0.3275	0.5043	0.0941	-0.146
Mof_C 	C 	0.3401	0.5533	0.0831	0.038
Mof_C 	C 	0.392	0.5617	0.0599	-0.011
Mof_C 	C 	0.4321	0.521	0.0479	0.017
Mof_C 	C 	0.42	0.4722	0.0589	-0.022
Mof_C 	C 	0.367	0.4638	0.082	0.062
Mof_O 	O 	0.6884	0.5464	0.1304	-0.434
Mof_N 	N 	0.221	0.4528	0.1198	-0.152
Mof_C 	C 	0.167	0.4494	0.097	0.057
Mof_C 	C 	0.132	0.403	0.0914	-0.019
Mof_C 	C 	0.152	0.3604	0.1087	0.017
Mof_C 	C 	0.206	0.3638	0.1315	-0.025
Mof_C 	C 	0.241	0.41	0.137	0.056
Mof_C 	C 	0.173	0.542	0.0892	-0.048
Mof_C 	C 	0.139	0.4964	0.0821	-0.006
Mof_C 	C 	0.084	0.495	0.0597	0.003
Mof_C 	C 	0.063	0.539	0.0444	0.003
Mof_C 	C 	0.097	0.585	0.0514	-0.006
Mof_C 	C 	0.152	0.5864	0.0738	0.017
Mof_Ir	Ir	0.2517	0.5246	0.12652	0.401
Mof_Zn	Zn	0.8451	0.54096	0.17393	1.233
Mof_C 	C 	0.7416	0.9647	0.3006	0.269
Mof_O 	O 	0.8084	0.5963	0.1985	-0.465
Mof_O 	O 	0.8071	0.9871	0.297	-0.419
Mof_O 	O 	0.679	0.9765	0.3156	-0.448
Mof_O 	O 	0.948	0.5328	0.1628	-0.372
Mof_C 	C 	0.8164	0.7465	0.2325	-0.117
Mof_C 	C 	0.6853	0.7488	0.2316	-0.114
Mof_C 	C 	0.8144	0.8442	0.2627	-0.08
Mof_C 	C 	0.6834	0.8408	0.2604	-0.1
Mof_Ir	Ir	0.8966	0.789	0.2475	0.352
Mof_Ir	Ir	0.604	0.7938	0.2462	0.373
Mof_C 	C 	0.527	0.7404	0.2342	-0.04
Mof_C 	C 	0.491	0.7636	0.2091	-0.05
Mof_C 	C 	0.435	0.738	0.1935	0.003
Mof_C 	C 	0.415	0.69	0.203	0.014
Mof_C 	C 	0.45	0.6668	0.2282	-0.001
Mof_C 	C 	0.506	0.692	0.2438	0.013
Mof_N 	N 	0.565	0.843	0.2133	-0.142
Mof_C 	C 	0.509	0.8157	0.1991	0.023
Mof_C 	C 	0.473	0.836	0.1732	-0.028
Mof_C 	C 	0.492	0.883	0.1616	0.026
Mof_C 	C 	0.548	0.911	0.1759	-0.024
Mof_C 	C 	0.585	0.89	0.2018	0.054
Mof_C 	C 	0.396	0.739	0.2208	-0.09
Mof_C 	C 	0.445	0.7605	0.1994	0.042
Mof_C 	C 	0.458	0.736	0.171	-0.014
Mof_C 	C 	0.424	0.691	0.1639	0.014
Mof_C 	C 	0.375	0.67	0.185	-0.015
Mof_C 	C 	0.361	0.694	0.2138	0.026
Mof_N 	N 	0.474	0.833	0.2352	-0.136
Mof_C 	C 	0.484	0.8078	0.2067	0.042
Mof_C 	C 	0.529	0.829	0.1837	0.016
Mof_C 	C 	0.564	0.875	0.1892	0.023
Mof_C 	C 	0.554	0.9	0.2178	-0.022
Mof_C 	C 	0.509	0.879	0.2408	0.058
Mof_C 	C 	0.92	0.8418	0.2083	-0.061
Mof_C 	C 	0.966	0.881	0.2177	0.02
Mof_C 	C 	0.986	0.919	0.1965	-0.008
Mof_C 	C 	0.959	0.918	0.1659	0.002
Mof_C 	C 	0.912	0.879	0.1565	-0.01
Mof_C 	C 	0.893	0.841	0.1777	0.012
Mof_N 	N 	0.973	0.8409	0.2689	-0.142
Mof_C 	C 	0.996	0.88	0.2502	0.042
Mof_C 	C 	0.037	0.919	0.2595	-0.021
Mof_C 	C 	0.063	0.918	0.2904	0.018
Mof_C 	C 	0.043	0.879	0.3105	-0.013
Mof_C 	C 	0.998	0.84	0.2997	0.055
Mof_N 	N 	0.981	0.747	0.2283	-0.147
Mof_C 	C 	0.051	0.6726	0.2417	-0.03
Mof_C 	C 	0.09	0.677	0.2138	0.024
Mof_C 	C 	0.074	0.717	0.1931	0.001
Mof_C 	C 	0.02	0.752	0.2003	0.047
Mof_C 	C 	0.9	0.7394	0.2833	-0.088
Mof_C 	C 	0.954	0.703	0.2784	0.023
Mof_C 	C 	0.965	0.665	0.3006	-0.01
Mof_C 	C 	0.923	0.663	0.3278	0.001
Mof_C 	C 	0.869	0.7	0.3327	-0.013
Mof_C 	C 	0.858	0.738	0.3105	0.02
Mof_C 	C 	0.7524	0.8774	0.6971	0.312
Mof_C 	C 	0.7511	0.8252	0.7127	-0.115
Mof_C 	C 	0.6849	0.802	0.7196	0.083
Mof_C 	C 	0.749	0.728	0.7385	0.046
Mof_C 	C 	0.816	0.7997	0.7187	0.083
Mof_O 	O 	0.8164	0.8905	0.6836	-0.437
Mof_C 	C 	0.7568	0.5865	0.7833	-0.089
Mof_C 	C 	0.6894	0.6085	0.7772	0.067
Mof_C 	C 	0.749	0.6811	0.7543	0.021
Mof_C 	C 	0.8204	0.6119	0.7749	0.072
Mof_C 	C 	0.526	0.9567	0.6912	0.206
Mof_C 	C 	0.4388	0.9535	0.6925	-0.068
Mof_C 	C 	0.3981	0.9588	0.6651	0.086
Mof_C 	C 	0.2879	0.9608	0.6958	0.049
Mof_C 	C 	0.3286	0.9555	0.7233	-0.027
Mof_C 	C 	0.4041	0.9519	0.7216	0.069
Mof_O 	O 	0.5602	0.9485	0.7191	-0.251
Mof_C 	C 	0.9726	0.9583	0.684	0.193
Mof_C 	C 	0.0577	0.9645	0.6884	-0.066
Mof_C 	C 	0.1018	0.9686	0.6619	0.087
Mof_C 	C 	0.2084	0.9615	0.6947	0.05
Mof_C 	C 	0.1642	0.9573	0.7212	-0.023
Mof_C 	C 	0.0889	0.9588	0.7181	0.064
Mof_O 	O 	0.9534	0.9507	0.6544	-0.323
Mof_O 	O 	0.9336	0.9614	0.7104	-0.297
Mof_C 	C 	0.7495	0.97	0.6169	0.281
Mof_C 	C 	0.7515	0.9801	0.5814	-0.082
Mof_C 	C 	0.8139	0.9698	0.564	0.046
Mof_C 	C 	0.815	0.9791	0.5317	-0.014
Mof_C 	C 	0.7536	0.9987	0.5169	0.009
Mof_C 	C 	0.6911	0.0089	0.5343	-0.015
Mof_C 	C 	0.6901	0.9996	0.5666	0.049
Mof_Zn	Zn	0.844	0.9588	0.67351	1.223
Mof_C 	C 	0.2488	0.911	0.6229	-0.13
Mof_C 	C 	0.1984	0.9047	0.5988	0.014
Mof_C 	C 	0.1843	0.8565	0.5869	-0.005
Mof_C 	C 	0.221	0.8145	0.5992	0.01
Mof_C 	C 	0.271	0.8208	0.6233	-0.019
Mof_C 	C 	0.2851	0.8691	0.6352	0.052
Mof_O 	O 	0.6846	0.9794	0.6301	-0.401
Mof_N 	N 	0.1725	0.9957	0.5941	-0.146
Mof_C 	C 	0.1599	0.9467	0.5831	0.038
Mof_C 	C 	0.108	0.9383	0.5599	-0.012
Mof_C 	C 	0.0679	0.979	0.5479	0.017
Mof_C 	C 	0.08	0.0278	0.5589	-0.022
Mof_C 	C 	0.133	0.0362	0.582	0.062
Mof_O 	O 	0.8116	0.9536	0.6304	-0.434
Mof_N 	N 	0.279	0.0472	0.6198	-0.152
Mof_C 	C 	0.333	0.0506	0.597	0.057
Mof_C 	C 	0.368	0.097	0.5914	-0.019
Mof_C 	C 	0.348	0.1396	0.6087	0.017
Mof_C 	C 	0.294	0.1362	0.6315	-0.025
Mof_C 	C 	0.259	0.09	0.637	0.056
Mof_C 	C 	0.327	0.958	0.5892	-0.048
Mof_C 	C 	0.361	0.0036	0.5821	-0.006
Mof_C 	C 	0.416	0.005	0.5597	0.004
Mof_C 	C 	0.437	0.961	0.5444	0.004
Mof_C 	C 	0.403	0.915	0.5514	-0.006
Mof_C 	C 	0.348	0.9136	0.5738	0.017
Mof_Ir	Ir	0.2483	0.9754	0.62652	0.401
Mof_Zn	Zn	0.6549	0.95904	0.67393	1.233
Mof_C 	C 	0.7584	0.5353	0.8006	0.269
Mof_O 	O 	0.6916	0.9037	0.6985	-0.466
Mof_O 	O 	0.6929	0.5129	0.797	-0.419
Mof_O 	O 	0.821	0.5235	0.8156	-0.448
Mof_O 	O 	0.552	0.9672	0.6628	-0.373
Mof_C 	C 	0.6836	0.7535	0.7325	-0.117
Mof_C 	C 	0.8147	0.7512	0.7316	-0.114
Mof_C 	C 	0.6856	0.6558	0.7627	-0.079
Mof_C 	C 	0.8166	0.6592	0.7604	-0.099
Mof_Ir	Ir	0.6034	0.711	0.7475	0.351
Mof_Ir	Ir	0.896	0.7062	0.7462	0.372
Mof_C 	C 	0.973	0.7596	0.7342	-0.034
Mof_C 	C 	0.009	0.7364	0.7091	-0.055
Mof_C 	C 	0.065	0.762	0.6935	0.006
Mof_C 	C 	0.085	0.81	0.703	0.012
Mof_C 	C 	0.05	0.8332	0.7282	-0
Mof_C 	C 	0.994	0.808	0.7438	0.006
Mof_N 	N 	0.935	0.657	0.7133	-0.142
Mof_C 	C 	0.991	0.6843	0.6991	0.02
Mof_C 	C 	0.027	0.664	0.6732	-0.029
Mof_C 	C 	0.008	0.617	0.6616	0.024
Mof_C 	C 	0.952	0.589	0.6759	-0.024
Mof_C 	C 	0.915	0.61	0.7018	0.045
Mof_C 	C 	0.104	0.761	0.7208	-0.09
Mof_C 	C 	0.055	0.7395	0.6994	0.042
Mof_C 	C 	0.042	0.764	0.671	-0.016
Mof_C 	C 	0.076	0.809	0.6639	0.014
Mof_C 	C 	0.125	0.83	0.685	-0.015
Mof_C 	C 	0.139	0.806	0.7138	0.026
Mof_N 	N 	0.026	0.667	0.7352	-0.138
Mof_C 	C 	0.016	0.6922	0.7067	0.047
Mof_C 	C 	0.971	0.671	0.6837	0.017
Mof_C 	C 	0.936	0.625	0.6892	0.031
Mof_C 	C 	0.946	0.6	0.7178	-0.02
Mof_C 	C 	0.991	0.621	0.7408	0.067
Mof_C 	C 	0.58	0.6582	0.7083	-0.061
Mof_C 	C 	0.534	0.619	0.7177	0.019
Mof_C 	C 	0.514	0.581	0.6965	-0.009
Mof_C 	C 	0.541	0.582	0.6659	0.002
Mof_C 	C 	0.588	0.621	0.6565	-0.01
Mof_C 	C 	0.607	0.659	0.6777	0.012
Mof_N 	N 	0.527	0.6591	0.7689	-0.142
Mof_C 	C 	0.504	0.62	0.7502	0.046
Mof_C 	C 	0.463	0.581	0.7595	-0.019
Mof_C 	C 	0.437	0.582	0.7904	0.016
Mof_C 	C 	0.457	0.621	0.8105	-0.012
Mof_C 	C 	0.502	0.66	0.7997	0.053
Mof_N 	N 	0.519	0.753	0.7283	-0.149
Mof_C 	C 	0.449	0.8274	0.7417	-0.03
Mof_C 	C 	0.41	0.823	0.7138	0.025
Mof_C 	C 	0.426	0.783	0.6931	0.001
Mof_C 	C 	0.48	0.748	0.7003	0.048
Mof_C 	C 	0.6	0.7606	0.7833	-0.088
Mof_C 	C 	0.546	0.797	0.7784	0.021
Mof_C 	C 	0.535	0.835	0.8006	-0.01
Mof_C 	C 	0.577	0.837	0.8278	0
Mof_C 	C 	0.631	0.8	0.8327	-0.013
Mof_C 	C 	0.642	0.762	0.8105	0.019
Mof_C 	C 	0.2524	0.3774	0.6971	0.312
Mof_C 	C 	0.2511	0.3252	0.7127	-0.115
Mof_C 	C 	0.1849	0.302	0.7196	0.083
Mof_C 	C 	0.249	0.228	0.7385	0.046
Mof_C 	C 	0.316	0.2997	0.7187	0.083
Mof_O 	O 	0.3164	0.3905	0.6836	-0.437
Mof_C 	C 	0.2568	0.0865	0.7833	-0.089
Mof_C 	C 	0.1894	0.1085	0.7772	0.067
Mof_C 	C 	0.249	0.1811	0.7543	0.021
Mof_C 	C 	0.3204	0.1119	0.7749	0.072
Mof_C 	C 	0.026	0.4567	0.6912	0.204
Mof_C 	C 	0.9388	0.4535	0.6925	-0.067
Mof_C 	C 	0.8981	0.4588	0.6651	0.086
Mof_C 	C 	0.7879	0.4608	0.6958	0.049
Mof_C 	C 	0.8286	0.4555	0.7233	-0.026
Mof_C 	C 	0.9041	0.4519	0.7216	0.069
Mof_O 	O 	0.0602	0.4485	0.7191	-0.251
Mof_C 	C 	0.4726	0.4583	0.684	0.192
Mof_C 	C 	0.5577	0.4645	0.6884	-0.065
Mof_C 	C 	0.6018	0.4686	0.6619	0.087
Mof_C 	C 	0.7084	0.4615	0.6947	0.05
Mof_C 	C 	0.6642	0.4573	0.7212	-0.023
Mof_C 	C 	0.5889	0.4588	0.7181	0.064
Mof_O 	O 	0.4534	0.4507	0.6544	-0.323
Mof_O 	O 	0.4336	0.4614	0.7104	-0.297
Mof_C 	C 	0.2495	0.47	0.6169	0.281
Mof_C 	C 	0.2515	0.4801	0.5814	-0.082
Mof_C 	C 	0.3139	0.4698	0.564	0.046
Mof_C 	C 	0.315	0.4791	0.5317	-0.014
Mof_C 	C 	0.2536	0.4987	0.5169	0.009
Mof_C 	C 	0.1911	0.5089	0.5343	-0.015
Mof_C 	C 	0.1901	0.4996	0.5666	0.048
Mof_Zn	Zn	0.344	0.4588	0.67351	1.223
Mof_C 	C 	0.7488	0.411	0.6229	-0.13
Mof_C 	C 	0.6984	0.4047	0.5988	0.014
Mof_C 	C 	0.6843	0.3565	0.5869	-0.005
Mof_C 	C 	0.721	0.3145	0.5992	0.01
Mof_C 	C 	0.771	0.3208	0.6233	-0.019
Mof_C 	C 	0.7851	0.3691	0.6352	0.052
Mof_O 	O 	0.1846	0.4794	0.6301	-0.402
Mof_N 	N 	0.6725	0.4957	0.5941	-0.146
Mof_C 	C 	0.6599	0.4467	0.5831	0.038
Mof_C 	C 	0.608	0.4383	0.5599	-0.011
Mof_C 	C 	0.5679	0.479	0.5479	0.017
Mof_C 	C 	0.58	0.5278	0.5589	-0.022
Mof_C 	C 	0.633	0.5362	0.582	0.062
Mof_O 	O 	0.3116	0.4536	0.6304	-0.434
Mof_N 	N 	0.779	0.5472	0.6198	-0.152
Mof_C 	C 	0.833	0.5506	0.597	0.057
Mof_C 	C 	0.868	0.597	0.5914	-0.019
Mof_C 	C 	0.848	0.6396	0.6087	0.017
Mof_C 	C 	0.794	0.6362	0.6315	-0.024
Mof_C 	C 	0.759	0.59	0.637	0.056
Mof_C 	C 	0.827	0.458	0.5892	-0.048
Mof_C 	C 	0.861	0.5036	0.5821	-0.006
Mof_C 	C 	0.916	0.505	0.5597	0.004
Mof_C 	C 	0.937	0.461	0.5444	0.004
Mof_C 	C 	0.903	0.415	0.5514	-0.006
Mof_C 	C 	0.848	0.4136	0.5738	0.017
Mof_Ir	Ir	0.7483	0.4754	0.62652	0.401
Mof_Zn	Zn	0.1549	0.45904	0.67393	1.233
Mof_C 	C 	0.2584	0.0353	0.8006	0.269
Mof_O 	O 	0.1916	0.4037	0.6985	-0.466
Mof_O 	O 	0.1929	0.0129	0.797	-0.419
Mof_O 	O 	0.321	0.0235	0.8156	-0.448
Mof_O 	O 	0.052	0.4672	0.6628	-0.373
Mof_C 	C 	0.1836	0.2535	0.7325	-0.117
Mof_C 	C 	0.3147	0.2512	0.7316	-0.114
Mof_C 	C 	0.1856	0.1558	0.7627	-0.079
Mof_C 	C 	0.3166	0.1592	0.7604	-0.1
Mof_Ir	Ir	0.1034	0.211	0.7475	0.351
Mof_Ir	Ir	0.396	0.2062	0.7462	0.373
Mof_C 	C 	0.473	0.2596	0.7342	-0.04
Mof_C 	C 	0.509	0.2364	0.7091	-0.05
Mof_C 	C 	0.565	0.262	0.6935	0.003
Mof_C 	C 	0.585	0.31	0.703	0.014
Mof_C 	C 	0.55	0.3332	0.7282	-0.001
Mof_C 	C 	0.494	0.308	0.7438	0.013
Mof_N 	N 	0.435	0.157	0.7133	-0.142
Mof_C 	C 	0.491	0.1843	0.6991	0.023
Mof_C 	C 	0.527	0.164	0.6732	-0.028
Mof_C 	C 	0.508	0.117	0.6616	0.026
Mof_C 	C 	0.452	0.089	0.6759	-0.024
Mof_C 	C 	0.415	0.11	0.7018	0.054
Mof_C 	C 	0.604	0.261	0.7208	-0.09
Mof_C 	C 	0.555	0.2395	0.6994	0.042
Mof_C 	C 	0.542	0.264	0.671	-0.014
Mof_C 	C 	0.576	0.309	0.6639	0.014
Mof_C 	C 	0.625	0.33	0.685	-0.015
Mof_C 	C 	0.639	0.306	0.7138	0.026
Mof_N 	N 	0.526	0.167	0.7352	-0.136
Mof_C 	C 	0.516	0.1922	0.7067	0.042
Mof_C 	C 	0.471	0.171	0.6837	0.016
Mof_C 	C 	0.436	0.125	0.6892	0.023
Mof_C 	C 	0.446	0.1	0.7178	-0.022
Mof_C 	C 	0.491	0.121	0.7408	0.059
Mof_C 	C 	0.08	0.1582	0.7083	-0.062
Mof_C 	C 	0.034	0.119	0.7177	0.018
Mof_C 	C 	0.014	0.081	0.6965	-0.011
Mof_C 	C 	0.041	0.082	0.6659	0.002
Mof_C 	C 	0.088	0.121	0.6565	-0.01
Mof_C 	C 	0.107	0.159	0.6777	0.011
Mof_N 	N 	0.027	0.1591	0.7689	-0.143
Mof_C 	C 	0.004	0.12	0.7502	0.05
Mof_C 	C 	0.963	0.081	0.7595	-0.017
Mof_C 	C 	0.937	0.082	0.7904	0.014
Mof_C 	C 	0.957	0.121	0.8105	-0.011
Mof_C 	C 	0.002	0.16	0.7997	0.051
Mof_N 	N 	0.019	0.253	0.7283	-0.149
Mof_C 	C 	0.949	0.3274	0.7417	-0.028
Mof_C 	C 	0.91	0.323	0.7138	0.023
Mof_C 	C 	0.926	0.283	0.6931	0.001
Mof_C 	C 	0.98	0.248	0.7003	0.049
Mof_C 	C 	0.1	0.2606	0.7833	-0.088
Mof_C 	C 	0.046	0.297	0.7784	0.022
Mof_C 	C 	0.035	0.335	0.8006	-0.011
Mof_C 	C 	0.077	0.337	0.8278	0
Mof_C 	C 	0.131	0.3	0.8327	-0.014
Mof_C 	C 	0.142	0.262	0.8105	0.019
Mof_C 	C 	0.5	0.2074	0.25	0.106
Mof_C 	C 	2.16548e-33	0.7074	0.25	0.102
Mof_C 	C 	0.5	0.7926	0.75	0.106
Mof_C 	C 	2.62152e-32	0.2926	0.75	0.102
_end
