data_functionalizedCrystal
_audit_creation_method	'EQeq! by Chris Wilmer'
_symmetry_space_group_name_H-M	'P1'
_symmetry_Int_Tables_number	1
_symmetry_cell_setting	triclinic
loop_
_symmetry_equiv_pos_as_xyz
  x,y,z
_cell_length_a	13.118
_cell_length_b	14.624
_cell_length_c	15.193
_cell_angle_alpha	95
_cell_angle_beta	114.61
_cell_angle_gamma	111.88
loop_
_atom_site_label
_atom_site_type_symbol
_atom_site_fract_x
_atom_site_fract_y
_atom_site_fract_z
_atom_site_charge
Mof_V 	V 	0.23848	0.00236	0.2395	1.762
Mof_V 	V 	0.76152	0.99764	0.7605	1.81
Mof_Cu	Cu	-0	0	-0	0.873
Mof_Mo	Mo	0.66603	0.27822	0.57424	1.751
Mof_Mo	Mo	0.68145	0.98201	0.37795	1.841
Mof_Mo	Mo	0.83733	0.13302	0.63259	1.71
Mof_Mo	Mo	0.52323	0.13677	0.31819	1.655
Mof_Mo	Mo	0.31855	0.01799	0.62205	1.641
Mof_Mo	Mo	0.66528	0.84598	0.55849	1.65
Mof_Mo	Mo	0.47677	0.86323	0.68181	1.741
Mof_Mo	Mo	0.65083	0.149	0.75928	1.699
Mof_Mo	Mo	0.33472	0.15402	0.44151	1.62
Mof_Mo	Mo	0.34917	0.851	0.24072	1.684
Mof_Mo	Mo	0.33397	0.72178	0.42576	1.74
Mof_Mo	Mo	0.16267	0.86698	0.36741	1.756
Mof_P 	P 	0.5	0	0.5	1.076
Mof_H 	H 	0.4542	0.8513	0.0499	0.101
Mof_H 	H 	0.788	0.0718	0.9771	-0.046
Mof_H 	H 	0.2501	0.2871	0.8339	0.002
Mof_H 	H 	0.2922	0.1785	0.1418	-0.072
Mof_H 	H 	0.6433	0.7474	0.1253	0.018
Mof_H 	H 	0.6519	0.9904	0.1382	-0.075
Mof_H 	H 	0.212	0.9282	0.0229	-0.054
Mof_H 	H 	0.3567	0.2526	0.8747	0.028
Mof_H 	H 	0.5482	0.3946	0.9259	0.042
Mof_H 	H 	0.7078	0.8215	0.8582	-0.062
Mof_H 	H 	0.0822	0.1359	0.2265	-0.063
Mof_H 	H 	0.3481	0.0096	0.8618	0.091
Mof_H 	H 	0.252	0.7732	0.9197	0.054
Mof_H 	H 	0.4518	0.6054	0.0741	-0
Mof_H 	H 	0.7602	0.1959	0.179	-0.019
Mof_H 	H 	0.7499	0.7129	0.1661	-0
Mof_H 	H 	0.748	0.2268	0.0803	-0.024
Mof_H 	H 	0.9186	0.8609	0.1405	-0.054
Mof_H 	H 	0.6834	0.5618	0.991	0.014
Mof_H 	H 	0.0814	0.1391	0.8595	-0.092
Mof_H 	H 	0.9178	0.8641	0.7735	-0.09
Mof_H 	H 	0.3166	0.4382	0.009	0.044
Mof_H 	H 	0.2398	0.8041	0.821	0.066
Mof_H 	H 	0.5458	0.1487	0.9501	-0.075
Mof_C 	C 	0.3895	0.4625	0.0035	-0.14
Mof_C 	C 	0.5897	0.9944	0.0819	0.228
Mof_C 	C 	0.1507	0.9039	0.9552	0.097
Mof_C 	C 	0.4722	0.5613	0.0447	-0.024
Mof_C 	C 	0.5288	0.0896	0.9713	0.182
Mof_C 	C 	0.2555	0.8289	0.8889	-0.226
Mof_C 	C 	0.4103	0.0056	0.9181	-0.34
Mof_C 	C 	0.4712	0.9104	0.0287	-0.343
Mof_C 	C 	0.5278	0.4387	0.9553	-0.126
Mof_C 	C 	0.5884	0.6028	0.0464	-0.025
Mof_C 	C 	0.6105	0.5375	0.9965	-0.011
Mof_C 	C 	0.0054	0.1308	0.1796	-0.004
Mof_C 	C 	0.7364	0.8155	0.9236	0.083
Mof_C 	C 	0.6174	0.0847	0.0528	-0.256
Mof_C 	C 	0.3826	0.9153	0.9472	0.263
Mof_C 	C 	0.9946	0.8692	0.8204	0.161
Mof_C 	C 	0.1495	0.1625	0.9243	0.103
Mof_C 	C 	0.7445	0.1711	0.1111	0.056
Mof_C 	C 	0.6835	0.7124	0.1051	-0.05
Mof_C 	C 	0.8505	0.8375	0.0757	0.093
Mof_C 	C 	0.4116	0.3972	0.9536	0.078
Mof_C 	C 	0.3165	0.2876	0.8949	-0.099
Mof_C 	C 	0.8493	0.0961	0.0448	0.076
Mof_C 	C 	0.2636	0.1845	0.0764	0.066
Mof_N 	N 	0.157	0.8548	0.8827	-0.088
Mof_N 	N 	0.2609	0.2305	0.9497	-0.104
Mof_N 	N 	0.857	0.8704	0.9981	-0.204
Mof_N 	N 	0.943	0.1656	0.2048	-0.108
Mof_N 	N 	0.843	0.1452	0.1173	-0.125
Mof_N 	N 	0.6617	0.7509	0.9542	-0.116
Mof_N 	N 	0.057	0.8344	0.7952	-0.168
Mof_N 	N 	0.7391	0.7695	0.0503	-0.112
Mof_N 	N 	0.143	0.1296	0.0019	-0.247
Mof_N 	N 	0.3383	0.2491	0.0458	-0.128
Mof_N 	N 	0.0481	0.9143	0.9206	-0.236
Mof_N 	N 	0.9519	0.0857	0.0794	-0.197
Mof_O 	O 	0.5121	0.9979	0.3988	-0.404
Mof_O 	O 	0.7971	0.9906	0.6507	-0.84
Mof_O 	O 	0.2102	0.8677	0.2558	-0.856
Mof_O 	O 	0.3865	0.0063	0.4829	-0.431
Mof_O 	O 	0.3302	0.7479	0.303	-0.759
Mof_O 	O 	0.3762	0.9944	0.2332	-0.823
Mof_O 	O 	0.2029	0.0094	0.3493	-0.903
Mof_O 	O 	0.6287	0.8633	0.6753	-0.85
Mof_O 	O 	0.8715	0.001	0.8677	-0.715
Mof_O 	O 	0.5126	0.884	0.2783	-0.757
Mof_O 	O 	0.1285	0.999	0.1323	-0.673
Mof_O 	O 	0.3778	0.902	0.4208	-0.394
Mof_O 	O 	0.4874	0.116	0.7217	-0.738
Mof_O 	O 	0.6351	0.0871	0.3308	-0.775
Mof_O 	O 	0.8075	0.0844	0.5055	-0.802
Mof_O 	O 	0.5046	0.7456	0.4773	-0.768
Mof_O 	O 	0.4879	0.0021	0.6012	-0.448
Mof_O 	O 	0.6135	0.9937	0.5171	-0.388
Mof_O 	O 	0.6275	0.2416	0.4363	-0.76
Mof_O 	O 	0.6238	0.0056	0.7668	-0.889
Mof_O 	O 	0.7898	0.1323	0.7442	-0.864
Mof_O 	O 	0.3725	0.7584	0.5637	-0.776
Mof_O 	O 	0.3649	0.9129	0.6692	-0.713
Mof_O 	O 	0.4949	0.0938	0.4721	-0.426
Mof_O 	O 	0.6698	0.2521	0.697	-0.752
Mof_O 	O 	0.5051	0.9062	0.5279	-0.408
Mof_O 	O 	0.2024	0.7634	0.3924	-0.783
Mof_O 	O 	0.7976	0.2366	0.6076	-0.766
Mof_O 	O 	0.3713	0.1367	0.3247	-0.855
Mof_O 	O 	0.4954	0.2544	0.5227	-0.762
Mof_O 	O 	0.6871	0.8836	0.4516	-0.762
Mof_O 	O 	0.1925	0.9156	0.4945	-0.74
Mof_O 	O 	0.3129	0.1164	0.5484	-0.747
Mof_O 	O 	0.6222	0.098	0.5792	-0.425
_end
