data_functionalizedCrystal
_audit_creation_method	'EQeq! by Chris Wilmer'
_symmetry_space_group_name_H-M	'P1'
_symmetry_Int_Tables_number	1
_symmetry_cell_setting	triclinic
loop_
_symmetry_equiv_pos_as_xyz
  x,y,z
_cell_length_a	19.857
_cell_length_b	19.857
_cell_length_c	19.857
_cell_angle_alpha	90
_cell_angle_beta	90
_cell_angle_gamma	90
loop_
_atom_site_label
_atom_site_type_symbol
_atom_site_fract_x
_atom_site_fract_y
_atom_site_fract_z
_atom_site_charge
Mof_Re	Re	0.1877	0.28124	0.1877	0.285
Mof_C 	C 	0.1169	0.3159	0.1169	-0.046
Mof_N 	N 	0.0775	0.3322	0.0775	-0.181
Mof_Re	Re	0.6877	0.78124	0.6877	0.279
Mof_C 	C 	0.6169	0.8159	0.6169	-0.025
Mof_N 	N 	0.5775	0.8322	0.5775	-0.174
Mof_Re	Re	0.8123	0.71876	0.1877	0.281
Mof_C 	C 	0.8831	0.6841	0.1169	-0.028
Mof_N 	N 	0.9225	0.6678	0.0775	-0.157
Mof_Re	Re	0.3123	0.21876	0.6877	0.283
Mof_C 	C 	0.3831	0.1841	0.6169	-0.034
Mof_N 	N 	0.4225	0.1678	0.5775	-0.178
Mof_Re	Re	0.8123	0.28124	0.8123	0.282
Mof_C 	C 	0.8831	0.3159	0.8831	-0.014
Mof_N 	N 	0.9225	0.3322	0.9225	-0.135
Mof_Re	Re	0.3123	0.78124	0.3123	0.281
Mof_C 	C 	0.3831	0.8159	0.3831	-0.025
Mof_N 	N 	0.4225	0.8322	0.4225	-0.174
Mof_Re	Re	0.1877	0.71876	0.8123	0.281
Mof_C 	C 	0.1169	0.6841	0.8831	-0.028
Mof_N 	N 	0.0775	0.6678	0.9225	-0.157
Mof_Re	Re	0.6877	0.21876	0.3123	0.283
Mof_C 	C 	0.6169	0.1841	0.3831	-0.034
Mof_N 	N 	0.5775	0.1678	0.4225	-0.178
Mof_Re	Re	0.1877	0.1877	0.28124	0.286
Mof_C 	C 	0.1169	0.1169	0.3159	-0.045
Mof_N 	N 	0.0775	0.0775	0.3322	-0.18
Mof_Re	Re	0.6877	0.6877	0.78124	0.279
Mof_C 	C 	0.6169	0.6169	0.8159	-0.025
Mof_N 	N 	0.5775	0.5775	0.8322	-0.174
Mof_Re	Re	0.1877	0.8123	0.71876	0.281
Mof_C 	C 	0.1169	0.8831	0.6841	-0.028
Mof_N 	N 	0.0775	0.9225	0.6678	-0.157
Mof_Re	Re	0.6877	0.3123	0.21876	0.283
Mof_C 	C 	0.6169	0.3831	0.1841	-0.034
Mof_N 	N 	0.5775	0.4225	0.1678	-0.178
Mof_Re	Re	0.8123	0.8123	0.28124	0.282
Mof_C 	C 	0.8831	0.8831	0.3159	-0.014
Mof_N 	N 	0.9225	0.9225	0.3322	-0.135
Mof_Re	Re	0.3123	0.3123	0.78124	0.281
Mof_C 	C 	0.3831	0.3831	0.8159	-0.025
Mof_N 	N 	0.4225	0.4225	0.8322	-0.174
Mof_Re	Re	0.8123	0.1877	0.71876	0.281
Mof_C 	C 	0.8831	0.1169	0.6841	-0.028
Mof_N 	N 	0.9225	0.0775	0.6678	-0.157
Mof_Re	Re	0.3123	0.6877	0.21876	0.283
Mof_C 	C 	0.3831	0.6169	0.1841	-0.034
Mof_N 	N 	0.4225	0.5775	0.1678	-0.178
Mof_Re	Re	0.28124	0.1877	0.1877	0.286
Mof_C 	C 	0.3159	0.1169	0.1169	-0.045
Mof_N 	N 	0.3322	0.0775	0.0775	-0.18
Mof_Re	Re	0.78124	0.6877	0.6877	0.279
Mof_C 	C 	0.8159	0.6169	0.6169	-0.025
Mof_N 	N 	0.8322	0.5775	0.5775	-0.174
Mof_Re	Re	0.71876	0.1877	0.8123	0.281
Mof_C 	C 	0.6841	0.1169	0.8831	-0.028
Mof_N 	N 	0.6678	0.0775	0.9225	-0.157
Mof_Re	Re	0.21876	0.6877	0.3123	0.283
Mof_C 	C 	0.1841	0.6169	0.3831	-0.034
Mof_N 	N 	0.1678	0.5775	0.4225	-0.178
Mof_Re	Re	0.28124	0.8123	0.8123	0.282
Mof_C 	C 	0.3159	0.8831	0.8831	-0.014
Mof_N 	N 	0.3322	0.9225	0.9225	-0.135
Mof_Re	Re	0.78124	0.3123	0.3123	0.281
Mof_C 	C 	0.8159	0.3831	0.3831	-0.025
Mof_N 	N 	0.8322	0.4225	0.4225	-0.174
Mof_Re	Re	0.71876	0.8123	0.1877	0.281
Mof_C 	C 	0.6841	0.8831	0.1169	-0.028
Mof_N 	N 	0.6678	0.9225	0.0775	-0.157
Mof_Re	Re	0.21876	0.3123	0.6877	0.283
Mof_C 	C 	0.1841	0.3831	0.6169	-0.034
Mof_N 	N 	0.1678	0.4225	0.5775	-0.178
Mof_Re	Re	0.28124	0.1877	0.8123	0.284
Mof_C 	C 	0.3159	0.1169	0.8831	-0.029
Mof_N 	N 	0.3322	0.0775	0.9225	-0.157
Mof_Re	Re	0.78124	0.6877	0.3123	0.28
Mof_C 	C 	0.8159	0.6169	0.3831	-0.025
Mof_N 	N 	0.8322	0.5775	0.4225	-0.174
Mof_Re	Re	0.71876	0.8123	0.8123	0.28
Mof_C 	C 	0.6841	0.8831	0.8831	-0.013
Mof_N 	N 	0.6678	0.9225	0.9225	-0.135
Mof_Re	Re	0.21876	0.3123	0.3123	0.284
Mof_C 	C 	0.1841	0.3831	0.3831	-0.034
Mof_N 	N 	0.1678	0.4225	0.4225	-0.178
Mof_Re	Re	0.28124	0.8123	0.1877	0.284
Mof_C 	C 	0.3159	0.8831	0.1169	-0.029
Mof_N 	N 	0.3322	0.9225	0.0775	-0.157
Mof_Re	Re	0.78124	0.3123	0.6877	0.28
Mof_C 	C 	0.8159	0.3831	0.6169	-0.025
Mof_N 	N 	0.8322	0.4225	0.5775	-0.174
Mof_Re	Re	0.71876	0.1877	0.1877	0.283
Mof_C 	C 	0.6841	0.1169	0.1169	-0.043
Mof_N 	N 	0.6678	0.0775	0.0775	-0.18
Mof_Re	Re	0.21876	0.6877	0.6877	0.282
Mof_C 	C 	0.1841	0.6169	0.6169	-0.034
Mof_N 	N 	0.1678	0.5775	0.5775	-0.178
Mof_Re	Re	0.1877	0.1877	0.71876	0.283
Mof_C 	C 	0.1169	0.1169	0.6841	-0.043
Mof_N 	N 	0.0775	0.0775	0.6678	-0.18
Mof_Re	Re	0.6877	0.6877	0.21876	0.282
Mof_C 	C 	0.6169	0.6169	0.1841	-0.034
Mof_N 	N 	0.5775	0.5775	0.1678	-0.178
Mof_Re	Re	0.8123	0.1877	0.28124	0.284
Mof_C 	C 	0.8831	0.1169	0.3159	-0.029
Mof_N 	N 	0.9225	0.0775	0.3322	-0.157
Mof_Re	Re	0.3123	0.6877	0.78124	0.28
Mof_C 	C 	0.3831	0.6169	0.8159	-0.025
Mof_N 	N 	0.4225	0.5775	0.8322	-0.174
Mof_Re	Re	0.8123	0.8123	0.71876	0.28
Mof_C 	C 	0.8831	0.8831	0.6841	-0.013
Mof_N 	N 	0.9225	0.9225	0.6678	-0.135
Mof_Re	Re	0.3123	0.3123	0.21876	0.284
Mof_C 	C 	0.3831	0.3831	0.1841	-0.034
Mof_N 	N 	0.4225	0.4225	0.1678	-0.178
Mof_Re	Re	0.1877	0.8123	0.28124	0.284
Mof_C 	C 	0.1169	0.8831	0.3159	-0.029
Mof_N 	N 	0.0775	0.9225	0.3322	-0.157
Mof_Re	Re	0.6877	0.3123	0.78124	0.28
Mof_C 	C 	0.6169	0.3831	0.8159	-0.025
Mof_N 	N 	0.5775	0.4225	0.8322	-0.174
Mof_Re	Re	0.1877	0.28124	0.8123	0.284
Mof_C 	C 	0.1169	0.3159	0.8831	-0.029
Mof_N 	N 	0.0775	0.3322	0.9225	-0.157
Mof_Re	Re	0.6877	0.78124	0.3123	0.28
Mof_C 	C 	0.6169	0.8159	0.3831	-0.025
Mof_N 	N 	0.5775	0.8322	0.4225	-0.174
Mof_Re	Re	0.1877	0.71876	0.1877	0.283
Mof_C 	C 	0.1169	0.6841	0.1169	-0.043
Mof_N 	N 	0.0775	0.6678	0.0775	-0.18
Mof_Re	Re	0.6877	0.21876	0.6877	0.282
Mof_C 	C 	0.6169	0.1841	0.6169	-0.034
Mof_N 	N 	0.5775	0.1678	0.5775	-0.178
Mof_Re	Re	0.8123	0.28124	0.1877	0.284
Mof_C 	C 	0.8831	0.3159	0.1169	-0.029
Mof_N 	N 	0.9225	0.3322	0.0775	-0.157
Mof_Re	Re	0.3123	0.78124	0.6877	0.28
Mof_C 	C 	0.3831	0.8159	0.6169	-0.025
Mof_N 	N 	0.4225	0.8322	0.5775	-0.174
Mof_Re	Re	0.8123	0.71876	0.8123	0.28
Mof_C 	C 	0.8831	0.6841	0.8831	-0.013
Mof_N 	N 	0.9225	0.6678	0.9225	-0.135
Mof_Re	Re	0.3123	0.21876	0.3123	0.284
Mof_C 	C 	0.3831	0.1841	0.3831	-0.034
Mof_N 	N 	0.4225	0.1678	0.4225	-0.178
Mof_Se	Se	0.2798	0.2798	0.10045	-0.2
Mof_Se	Se	0.7798	0.7798	0.60045	-0.16
Mof_Se	Se	0.7202	0.7202	0.10045	-0.193
Mof_Se	Se	0.2202	0.2202	0.60045	-0.182
Mof_Se	Se	0.7202	0.2798	0.89955	-0.143
Mof_Se	Se	0.2202	0.7798	0.39955	-0.171
Mof_Se	Se	0.2798	0.7202	0.89955	-0.143
Mof_Se	Se	0.7798	0.2202	0.39955	-0.171
Mof_Se	Se	0.10045	0.2798	0.2798	-0.2
Mof_Se	Se	0.60045	0.7798	0.7798	-0.16
Mof_Se	Se	0.10045	0.7202	0.7202	-0.193
Mof_Se	Se	0.60045	0.2202	0.2202	-0.182
Mof_Se	Se	0.89955	0.7202	0.2798	-0.143
Mof_Se	Se	0.39955	0.2202	0.7798	-0.171
Mof_Se	Se	0.89955	0.2798	0.7202	-0.143
Mof_Se	Se	0.39955	0.7798	0.2202	-0.171
Mof_Se	Se	0.2798	0.10045	0.2798	-0.2
Mof_Se	Se	0.7798	0.60045	0.7798	-0.16
Mof_Se	Se	0.7202	0.10045	0.7202	-0.193
Mof_Se	Se	0.2202	0.60045	0.2202	-0.182
Mof_Se	Se	0.2798	0.89955	0.7202	-0.143
Mof_Se	Se	0.7798	0.39955	0.2202	-0.171
Mof_Se	Se	0.7202	0.89955	0.2798	-0.143
Mof_Se	Se	0.2202	0.39955	0.7798	-0.171
Mof_Se	Se	0.2798	0.2798	0.89955	-0.146
Mof_Se	Se	0.7798	0.7798	0.39955	-0.16
Mof_Se	Se	0.7202	0.7202	0.89955	-0.141
Mof_Se	Se	0.2202	0.2202	0.39955	-0.182
Mof_Se	Se	0.2798	0.7202	0.10045	-0.196
Mof_Se	Se	0.7798	0.2202	0.60045	-0.171
Mof_Se	Se	0.7202	0.2798	0.10045	-0.196
Mof_Se	Se	0.2202	0.7798	0.60045	-0.171
Mof_Se	Se	0.2798	0.10045	0.7202	-0.196
Mof_Se	Se	0.7798	0.60045	0.2202	-0.171
Mof_Se	Se	0.7202	0.10045	0.2798	-0.196
Mof_Se	Se	0.2202	0.60045	0.7798	-0.171
Mof_Se	Se	0.7202	0.89955	0.7202	-0.141
Mof_Se	Se	0.2202	0.39955	0.2202	-0.182
Mof_Se	Se	0.2798	0.89955	0.2798	-0.146
Mof_Se	Se	0.7798	0.39955	0.7798	-0.16
Mof_Se	Se	0.10045	0.2798	0.7202	-0.196
Mof_Se	Se	0.60045	0.7798	0.2202	-0.171
Mof_Se	Se	0.10045	0.7202	0.2798	-0.196
Mof_Se	Se	0.60045	0.2202	0.7798	-0.171
Mof_Se	Se	0.89955	0.2798	0.2798	-0.146
Mof_Se	Se	0.39955	0.7798	0.7798	-0.16
Mof_Se	Se	0.89955	0.7202	0.7202	-0.141
Mof_Se	Se	0.39955	0.2202	0.2202	-0.182
Mof_Se	Se	0.16075	0.16075	0.16075	-0.218
Mof_Se	Se	0.66075	0.66075	0.66075	-0.186
Mof_Se	Se	0.83925	0.83925	0.16075	-0.164
Mof_Se	Se	0.33925	0.33925	0.66075	-0.186
Mof_Se	Se	0.83925	0.16075	0.83925	-0.164
Mof_Se	Se	0.33925	0.66075	0.33925	-0.186
Mof_Se	Se	0.16075	0.83925	0.83925	-0.164
Mof_Se	Se	0.66075	0.33925	0.33925	-0.186
Mof_Se	Se	0.16075	0.16075	0.83925	-0.19
Mof_Se	Se	0.66075	0.66075	0.33925	-0.186
Mof_Se	Se	0.83925	0.83925	0.83925	-0.139
Mof_Se	Se	0.33925	0.33925	0.33925	-0.186
Mof_Se	Se	0.16075	0.83925	0.16075	-0.19
Mof_Se	Se	0.66075	0.33925	0.66075	-0.186
Mof_Se	Se	0.83925	0.16075	0.16075	-0.19
Mof_Se	Se	0.33925	0.66075	0.66075	-0.186
Mof_Mn	Mn	-3.22411e-33	0.34	-0	0.515
Mof_Mn	Mn	0.5	0.84	0.5	0.653
Mof_Mn	Mn	-0	0.66	-0	0.521
Mof_Mn	Mn	0.5	0.16	0.5	0.625
Mof_Mn	Mn	-1.94931e-33	-3.22411e-33	0.34	0.515
Mof_Mn	Mn	0.5	0.5	0.84	0.653
Mof_Mn	Mn	2.4746e-33	0	0.66	0.521
Mof_Mn	Mn	0.5	0.5	0.16	0.625
Mof_Mn	Mn	0.34	0	-0	0.515
Mof_Mn	Mn	0.84	0.5	0.5	0.653
Mof_Mn	Mn	0.66	0	-0	0.521
Mof_Mn	Mn	0.16	0.5	0.5	0.625
_end
