data_functionalizedCrystal
_audit_creation_method	'EQeq! by Chris Wilmer'
_symmetry_space_group_name_H-M	'P1'
_symmetry_Int_Tables_number	1
_symmetry_cell_setting	triclinic
loop_
_symmetry_equiv_pos_as_xyz
  x,y,z
_cell_length_a	8.6716
_cell_length_b	8.6716
_cell_length_c	10.865
_cell_angle_alpha	90
_cell_angle_beta	90
_cell_angle_gamma	120
loop_
_atom_site_label
_atom_site_type_symbol
_atom_site_fract_x
_atom_site_fract_y
_atom_site_fract_z
_atom_site_charge
Mof_Fe	Fe	0.94182	0	0.5	0.964
Mof_Fe	Fe	0.05818	0.05818	0.16667	0.901
Mof_Fe	Fe	3.28092e-17	0.94182	0.83333	0.958
Mof_H 	H 	0.3908	0.4882	0.4902	0.1
Mof_H 	H 	0.0974	0.6092	0.15687	0.103
Mof_H 	H 	0.5118	0.9026	0.82353	0.104
Mof_H 	H 	0.9026	0.5118	0.5098	0.1
Mof_H 	H 	0.4882	0.3908	0.84313	0.096
Mof_H 	H 	0.6092	0.0974	0.17647	0.098
Mof_C 	C 	0.6246	0.6852	0.5625	0.151
Mof_C 	C 	0.4651	0.5243	0.5609	-0.11
Mof_C 	C 	0.0606	0.3754	0.22917	0.153
Mof_C 	C 	0.0592	0.5349	0.22757	-0.116
Mof_C 	C 	0.3148	0.9394	0.89583	0.172
Mof_C 	C 	0.4757	0.9408	0.89423	-0.079
Mof_C 	C 	0.9394	0.3148	0.4375	0.185
Mof_C 	C 	0.9408	0.4757	0.4391	-0.066
Mof_C 	C 	0.6852	0.6246	0.77083	0.15
Mof_C 	C 	0.5243	0.4651	0.77243	-0.111
Mof_C 	C 	0.3754	0.0606	0.10417	0.15
Mof_C 	C 	0.5349	0.0592	0.10577	-0.12
Mof_C 	C 	0.7306	0.7306	0.66667	0.033
Mof_C 	C 	0.4164	0.4164	0.66667	-0.016
Mof_C 	C 	0.2453	0.2453	0.66667	0.355
Mof_C 	C 	2.91916e-17	0.2694	0.33333	-0.016
Mof_C 	C 	-1.09774e-17	0.5836	0.33333	-0.039
Mof_C 	C 	-5.11465e-17	0.7547	0.33333	0.292
Mof_C 	C 	0.2694	0	-0	-0.004
Mof_C 	C 	0.5836	0	-0	-0.028
Mof_C 	C 	0.7547	0	-0	0.282
Mof_O 	O 	0.6871	0.8075	0.4703	-0.247
Mof_O 	O 	0.1891	0.1664	0.5647	-0.377
Mof_O 	O 	0.1204	0.3129	0.13697	-0.278
Mof_O 	O 	0.9773	0.8109	0.23137	-0.248
Mof_O 	O 	0.1925	0.8796	0.80363	-0.287
Mof_O 	O 	0.8336	0.0227	0.89803	-0.348
Mof_O 	O 	0.8796	0.1925	0.5297	-0.288
Mof_O 	O 	0.0227	0.8336	0.4353	-0.341
Mof_O 	O 	0.8075	0.6871	0.86303	-0.254
Mof_O 	O 	0.1664	0.1891	0.76863	-0.379
Mof_O 	O 	0.3129	0.1204	0.19637	-0.282
Mof_O 	O 	0.8109	0.9773	0.10197	-0.237
Mof_O 	O 	0.8874	0.8874	0.66667	-0.311
Mof_O 	O 	-9.35191e-19	0.1126	0.33333	-0.385
Mof_O 	O 	0.1126	0	-0	-0.38
_end
