# CIF file generated by openbabel 3.1.0, see https://openbabel.org
data_I
_chemical_name_common 'XUBJAF01_clean'
_cell_length_a 10.5085
_cell_length_b 10.5085
_cell_length_c 10.8772
_cell_angle_alpha 101.173
_cell_angle_beta 117.53
_cell_angle_gamma 108.723
_space_group_name_H-M_alt 'P 1'
_space_group_name_Hall 'P 1'
loop_
    _symmetry_equiv_pos_as_xyz
    x,y,z
loop_
    _atom_site_label
    _atom_site_type_symbol
    _atom_site_fract_x
    _atom_site_fract_y
    _atom_site_fract_z
    _atom_site_occupancy
    Eu1      Eu       0.25506    0.06835    0.62039    1.000
    Eu2      Eu       0.94796    0.63467    0.87961    1.000
    Eu3      Eu       0.74494    0.93165    0.37961    1.000
    Eu4      Eu       0.05204    0.36533    0.12039    1.000
    H1       H        0.36230    0.74830    0.85200    1.000
    H2       H        0.29800    0.72210    0.68350    1.000
    H3       H        0.89260    0.55070    0.28310    1.000
    H4       H        0.39630    0.51030    0.64800    1.000
    H5       H        0.53860    0.61450    0.81650    1.000
    H6       H        0.76760    0.60950    0.21690    1.000
    H7       H        0.63770    0.25170    0.14800    1.000
    H8       H        0.70200    0.27790    0.31650    1.000
    H9       H        0.10740    0.44930    0.71690    1.000
    H10      H        0.60370    0.48970    0.35200    1.000
    H11      H        0.46140    0.38550    0.18350    1.000
    H12      H        0.23240    0.39050    0.78310    1.000
    C1       C        0.47990    0.92810    0.83100    1.000
    C2       C        0.33080    0.79140    0.77880    1.000
    C3       C        0.18450    0.80350    0.75620    1.000
    C4       C        0.00080    0.77590    0.37490    1.000
    C5       C        0.59710    0.64890    0.66900    1.000
    C6       C        0.51260    0.55200    0.72120    1.000
    C7       C        0.54730    0.42830    0.74380    1.000
    C8       C        0.90100    0.62590    0.12510    1.000
    C9       C        0.52010    0.07190    0.16900    1.000
    C10      C        0.66920    0.20860    0.22120    1.000
    C11      C        0.81550    0.19650    0.24380    1.000
    C12      C        0.99920    0.22410    0.62510    1.000
    C13      C        0.40290    0.35110    0.33100    1.000
    C14      C        0.48740    0.44800    0.27880    1.000
    C15      C        0.45270    0.57170    0.25620    1.000
    C16      C        0.09900    0.37410    0.87490    1.000
    C17      C        0.87560    0.62560    0.25000    1.000
    C18      C        0.12440    0.37440    0.75000    1.000
    O1       O        0.46530    0.02120    0.77470    1.000
    O2       O        0.14870    0.89390    0.70720    1.000
    O3       O        0.09860    0.71640    0.78360    1.000
    O4       O        0.61600    0.94420    0.92780    1.000
    O5       O        0.14830    0.80960    0.44170    1.000
    O6       O        0.95750    0.86900    0.40790    1.000
    O7       O        0.74650    0.69060    0.72530    1.000
    O8       O        0.68670    0.44150    0.79280    1.000
    O9       O        0.43280    0.31500    0.71640    1.000
    O10      O        0.51640    0.68820    0.57220    1.000
    O11      O        0.86790    0.70660    0.05830    1.000
    O12      O        0.96110    0.54960    0.09210    1.000
    O13      O        0.53470    0.97880    0.22530    1.000
    O14      O        0.85130    0.10610    0.29280    1.000
    O15      O        0.90140    0.28360    0.21640    1.000
    O16      O        0.38400    0.05580    0.07220    1.000
    O17      O        0.85170    0.19040    0.55830    1.000
    O18      O        0.04250    0.13100    0.59210    1.000
    O19      O        0.25350    0.30940    0.27470    1.000
    O20      O        0.31330    0.55850    0.20720    1.000
    O21      O        0.56720    0.68500    0.28360    1.000
    O22      O        0.48360    0.31180    0.42780    1.000
    O23      O        0.13210    0.29340    0.94170    1.000
    O24      O        0.03890    0.45040    0.90790    1.000
