# CIF file generated by openbabel 3.1.0, see https://openbabel.org
data_I
_chemical_name_common 'OGIYAF_clean'
_cell_length_a 8.307
_cell_length_b 8.3825
_cell_length_c 8.3825
_cell_angle_alpha 62.1863
_cell_angle_beta 60.2976
_cell_angle_gamma 60.2976
_space_group_name_H-M_alt 'P 1'
_space_group_name_Hall 'P 1'
loop_
    _symmetry_equiv_pos_as_xyz
    x,y,z
loop_
    _atom_site_label
    _atom_site_type_symbol
    _atom_site_fract_x
    _atom_site_fract_y
    _atom_site_fract_z
    _atom_site_occupancy
    Co1      Co       0.00000    0.00000    0.00000    1.000
    Co2      Co       0.50000    0.50000    0.50000    1.000
    H1       H        0.29900    0.75000    0.75000    1.000
    H2       H        0.70100    0.25000    0.25000    1.000
    H3       H        0.79820    0.70180    0.20180    1.000
    H4       H        0.20180    0.79820    0.29820    1.000
    H5       H        0.20180    0.29820    0.79820    1.000
    H6       H        0.79820    0.20180    0.70180    1.000
    C1       C        0.18710    0.75000    0.75000    1.000
    C2       C        0.81290    0.25000    0.25000    1.000
    C3       C        0.71880    0.78120    0.28120    1.000
    C4       C        0.28120    0.71880    0.21880    1.000
    C5       C        0.28120    0.21880    0.71880    1.000
    C6       C        0.71880    0.28120    0.78120    1.000
    O1       O        0.77710    0.90630    0.23490    1.000
    O2       O        0.41830    0.59370    0.26510    1.000
    O3       O        0.58170    0.73490    0.40630    1.000
    O4       O        0.22290    0.76510    0.09370    1.000
    O5       O        0.22290    0.09370    0.76510    1.000
    O6       O        0.58170    0.40630    0.73490    1.000
    O7       O        0.41830    0.26510    0.59370    1.000
    O8       O        0.77710    0.23490    0.90630    1.000
    O9       O        0.02360    0.84380    0.84380    1.000
    O10      O        0.21120    0.65620    0.65620    1.000
    O11      O        0.78880    0.34380    0.34380    1.000
    O12      O        0.97640    0.15620    0.15620    1.000
