data_functionalizedCrystal
_audit_creation_method	'EQeq! by Chris Wilmer'
_symmetry_space_group_name_H-M	'P1'
_symmetry_Int_Tables_number	1
_symmetry_cell_setting	triclinic
loop_
_symmetry_equiv_pos_as_xyz
  x,y,z
_cell_length_a	28.8641
_cell_length_b	12.8331
_cell_length_c	14.7632
_cell_angle_alpha	90
_cell_angle_beta	113.11
_cell_angle_gamma	90
loop_
_atom_site_label
_atom_site_type_symbol
_atom_site_fract_x
_atom_site_fract_y
_atom_site_fract_z
_atom_site_charge
Mof_Ag	Ag	0.98649	0.88631	0.02129	0.495
Mof_Ag	Ag	0.91695	0.98399	0.0887	0.575
Mof_Ag	Ag	0.91878	0.95914	0.31487	0.563
Mof_Ag	Ag	0.69178	0.52867	0.61847	0.949
Mof_C 	C 	0.9989	0.0111	0.1303	-0.5
Mof_C 	C 	0.0075	0.0959	0.1614	0.121
Mof_C 	C 	0.0163	0.1953	0.2161	-0.224
Mof_H 	H 	0.0061	0.2533	0.1703	0.159
Mof_H 	H 	0.0518	0.2029	0.2572	0.125
Mof_C 	C 	0.0873	0.7799	0.0432	0.061
Mof_C 	C 	0.118	0.699	0.0158	1.047
Mof_C 	C 	0.8239	0.0436	0.141	0.192
Mof_C 	C 	0.7673	0.0674	0.0953	0.882
Mof_C 	C 	0.8997	0.7457	0.185	0.113
Mof_C 	C 	0.8649	0.656	0.149	1.02
Mof_C 	C 	0.8745	0.8185	0.9068	0.358
Mof_C 	C 	0.8316	0.7504	0.8384	0.021
Mof_C 	C 	0.8397	0.6841	0.7723	-0.029
Mof_H 	H 	0.8714	0.6803	0.7702	0.131
Mof_C 	C 	0.8002	0.6228	0.7084	0.13
Mof_H 	H 	0.8056	0.579	0.6632	0.124
Mof_C 	C 	0.7845	0.752	0.8387	-0.053
Mof_H 	H 	0.7775	0.796	0.8818	0.127
Mof_C 	C 	0.748	0.6905	0.777	0.164
Mof_H 	H 	0.7165	0.6927	0.7802	0.043
Mof_F 	F 	0.1012	0.6776	0.9268	-0.503
Mof_F 	F 	0.1631	0.7235	0.0353	-0.486
Mof_F 	F 	0.1194	0.6138	0.053	-0.467
Mof_F 	F 	0.7424	0.9959	0.0331	-0.449
Mof_F 	F 	0.7462	0.0729	0.1572	-0.469
Mof_F 	F 	0.7587	0.1541	0.0477	-0.425
Mof_F 	F 	0.8652	0.6208	0.0641	-0.393
Mof_F 	F 	0.883	0.5652	0.187	-0.424
Mof_F 	F 	0.8233	0.661	0.13	-0.581
Mof_N 	N 	0.7542	0.6273	0.7125	-0.172
Mof_O 	O 	0.1086	0.865	0.0748	-0.32
Mof_O 	O 	0.0439	0.7533	0.0255	-0.2
Mof_O 	O 	0.8426	0.0406	0.0801	-0.298
Mof_O 	O 	0.8417	0.0308	0.2295	-0.317
Mof_O 	O 	0.9359	0.7523	0.1694	-0.162
Mof_O 	O 	0.8759	0.8097	0.2265	-0.083
Mof_O 	O 	0.9184	0.7873	0.9242	-0.309
Mof_O 	O 	0.8629	0.8941	0.9453	-0.431
Mof_O 	O 	0.9435	0.7303	0.2217	-0.064
Mof_O 	O 	0.8821	0.8258	0.1803	-0.19
Mof_Ag	Ag	0.48649	0.38631	0.02129	0.493
Mof_Ag	Ag	0.41695	0.48399	0.0887	0.588
Mof_Ag	Ag	0.41878	0.45914	0.31487	0.555
Mof_Ag	Ag	0.19178	0.02867	0.61847	0.944
Mof_C 	C 	0.4989	0.5111	0.1303	-0.543
Mof_C 	C 	0.5075	0.5959	0.1614	0.146
Mof_C 	C 	0.5163	0.6953	0.2161	-0.236
Mof_H 	H 	0.5061	0.7533	0.1703	0.162
Mof_H 	H 	0.5518	0.7029	0.2572	0.127
Mof_C 	C 	0.5873	0.2799	0.0432	0.058
Mof_C 	C 	0.618	0.199	0.0158	1.055
Mof_C 	C 	0.3239	0.5436	0.141	0.194
Mof_C 	C 	0.2673	0.5674	0.0953	0.872
Mof_C 	C 	0.3997	0.2457	0.185	0.116
Mof_C 	C 	0.3649	0.156	0.149	1.017
Mof_C 	C 	0.3745	0.3185	0.9068	0.36
Mof_C 	C 	0.3316	0.2504	0.8384	0.017
Mof_C 	C 	0.3397	0.1841	0.7723	-0.027
Mof_H 	H 	0.3714	0.1803	0.7702	0.129
Mof_C 	C 	0.3002	0.1228	0.7084	0.128
Mof_H 	H 	0.3056	0.079	0.6632	0.124
Mof_C 	C 	0.2845	0.252	0.8387	-0.051
Mof_H 	H 	0.2775	0.296	0.8818	0.124
Mof_C 	C 	0.248	0.1905	0.777	0.161
Mof_H 	H 	0.2165	0.1927	0.7802	0.043
Mof_F 	F 	0.6012	0.1776	0.9268	-0.51
Mof_F 	F 	0.6631	0.2235	0.0353	-0.485
Mof_F 	F 	0.6194	0.1138	0.053	-0.466
Mof_F 	F 	0.2424	0.4959	0.0331	-0.442
Mof_F 	F 	0.2462	0.5729	0.1572	-0.469
Mof_F 	F 	0.2587	0.6541	0.0477	-0.427
Mof_F 	F 	0.3652	0.1208	0.0641	-0.39
Mof_F 	F 	0.383	0.0652	0.187	-0.423
Mof_F 	F 	0.3233	0.161	0.13	-0.579
Mof_N 	N 	0.2542	0.1273	0.7125	-0.172
Mof_O 	O 	0.6086	0.365	0.0748	-0.319
Mof_O 	O 	0.5439	0.2533	0.0255	-0.192
Mof_O 	O 	0.3426	0.5406	0.0801	-0.307
Mof_O 	O 	0.3417	0.5308	0.2295	-0.32
Mof_O 	O 	0.4359	0.2523	0.1694	-0.163
Mof_O 	O 	0.3759	0.3097	0.2265	-0.083
Mof_O 	O 	0.4184	0.2873	0.9242	-0.315
Mof_O 	O 	0.3629	0.3941	0.9453	-0.439
Mof_O 	O 	0.4435	0.2303	0.2217	-0.07
Mof_O 	O 	0.3821	0.3258	0.1803	-0.191
Mof_Ag	Ag	0.01351	0.88631	0.47871	0.481
Mof_Ag	Ag	0.08305	0.98399	0.4113	0.591
Mof_Ag	Ag	0.08122	0.95914	0.18513	0.54
Mof_Ag	Ag	0.30822	0.52867	0.88153	0.948
Mof_C 	C 	0.0011	0.0111	0.3697	-0.56
Mof_C 	C 	0.9925	0.0959	0.3386	0.169
Mof_C 	C 	0.9837	0.1953	0.2839	-0.245
Mof_H 	H 	0.9939	0.2533	0.3297	0.17
Mof_H 	H 	0.9482	0.2029	0.2428	0.132
Mof_C 	C 	0.9127	0.7799	0.4568	0.059
Mof_C 	C 	0.882	0.699	0.4842	1.05
Mof_C 	C 	0.1761	0.0436	0.359	0.193
Mof_C 	C 	0.2327	0.0674	0.4047	0.873
Mof_C 	C 	0.1003	0.7457	0.315	0.114
Mof_C 	C 	0.1351	0.656	0.351	1.018
Mof_C 	C 	0.1255	0.8185	0.5932	0.36
Mof_C 	C 	0.1684	0.7504	0.6616	0.018
Mof_C 	C 	0.1603	0.6841	0.7277	-0.028
Mof_H 	H 	0.1286	0.6803	0.7298	0.13
Mof_C 	C 	0.1998	0.6228	0.7916	0.129
Mof_H 	H 	0.1944	0.579	0.8368	0.125
Mof_C 	C 	0.2155	0.752	0.6613	-0.051
Mof_H 	H 	0.2225	0.796	0.6182	0.125
Mof_C 	C 	0.252	0.6905	0.723	0.162
Mof_H 	H 	0.2835	0.6927	0.7198	0.043
Mof_F 	F 	0.8988	0.6776	0.5732	-0.503
Mof_F 	F 	0.8369	0.7235	0.4647	-0.486
Mof_F 	F 	0.8806	0.6138	0.447	-0.466
Mof_F 	F 	0.2576	0.9959	0.4669	-0.442
Mof_F 	F 	0.2538	0.0729	0.3428	-0.468
Mof_F 	F 	0.2413	0.1541	0.4523	-0.426
Mof_F 	F 	0.1348	0.6208	0.4359	-0.394
Mof_F 	F 	0.117	0.5652	0.313	-0.426
Mof_F 	F 	0.1767	0.661	0.37	-0.581
Mof_N 	N 	0.2458	0.6273	0.7875	-0.172
Mof_O 	O 	0.8914	0.865	0.4252	-0.319
Mof_O 	O 	0.9561	0.7533	0.4745	-0.187
Mof_O 	O 	0.1574	0.0406	0.4199	-0.305
Mof_O 	O 	0.1583	0.0308	0.2705	-0.314
Mof_O 	O 	0.0641	0.7523	0.3306	-0.162
Mof_O 	O 	0.1241	0.8097	0.2735	-0.082
Mof_O 	O 	0.0816	0.7873	0.5758	-0.312
Mof_O 	O 	0.1371	0.8941	0.5547	-0.437
Mof_O 	O 	0.0565	0.7303	0.2783	-0.071
Mof_O 	O 	0.1179	0.8258	0.3197	-0.191
Mof_Ag	Ag	0.51351	0.38631	0.47871	0.491
Mof_Ag	Ag	0.58305	0.48399	0.4113	0.588
Mof_Ag	Ag	0.58122	0.45914	0.18513	0.555
Mof_Ag	Ag	0.80822	0.02867	0.88153	0.937
Mof_C 	C 	0.5011	0.5111	0.3697	-0.542
Mof_C 	C 	0.4925	0.5959	0.3386	0.146
Mof_C 	C 	0.4837	0.6953	0.2839	-0.237
Mof_H 	H 	0.4939	0.7533	0.3297	0.164
Mof_H 	H 	0.4482	0.7029	0.2428	0.128
Mof_C 	C 	0.4127	0.2799	0.4568	0.06
Mof_C 	C 	0.382	0.199	0.4842	1.05
Mof_C 	C 	0.6761	0.5436	0.359	0.194
Mof_C 	C 	0.7327	0.5674	0.4047	0.872
Mof_C 	C 	0.6003	0.2457	0.315	0.115
Mof_C 	C 	0.6351	0.156	0.351	1.018
Mof_C 	C 	0.6255	0.3185	0.5932	0.36
Mof_C 	C 	0.6684	0.2504	0.6616	0.018
Mof_C 	C 	0.6603	0.1841	0.7277	-0.028
Mof_H 	H 	0.6286	0.1803	0.7298	0.13
Mof_C 	C 	0.6998	0.1228	0.7916	0.129
Mof_H 	H 	0.6944	0.079	0.8368	0.123
Mof_C 	C 	0.7155	0.252	0.6613	-0.051
Mof_H 	H 	0.7225	0.296	0.6182	0.124
Mof_C 	C 	0.752	0.1905	0.723	0.162
Mof_H 	H 	0.7835	0.1927	0.7198	0.043
Mof_F 	F 	0.3988	0.1776	0.5732	-0.505
Mof_F 	F 	0.3369	0.2235	0.4647	-0.486
Mof_F 	F 	0.3806	0.1138	0.447	-0.467
Mof_F 	F 	0.7576	0.4959	0.4669	-0.442
Mof_F 	F 	0.7538	0.5729	0.3428	-0.469
Mof_F 	F 	0.7413	0.6541	0.4523	-0.425
Mof_F 	F 	0.6348	0.1208	0.4359	-0.393
Mof_F 	F 	0.617	0.0652	0.313	-0.424
Mof_F 	F 	0.6767	0.161	0.37	-0.58
Mof_N 	N 	0.7458	0.1273	0.7875	-0.171
Mof_O 	O 	0.3914	0.365	0.4252	-0.319
Mof_O 	O 	0.4561	0.2533	0.4745	-0.194
Mof_O 	O 	0.6574	0.5406	0.4199	-0.306
Mof_O 	O 	0.6583	0.5308	0.2705	-0.32
Mof_O 	O 	0.5641	0.2523	0.3306	-0.164
Mof_O 	O 	0.6241	0.3097	0.2735	-0.083
Mof_O 	O 	0.5816	0.2873	0.5758	-0.313
Mof_O 	O 	0.6371	0.3941	0.5547	-0.438
Mof_O 	O 	0.5565	0.2303	0.2783	-0.069
Mof_O 	O 	0.6179	0.3258	0.3197	-0.191
Mof_Ag	Ag	0.01351	0.11369	0.97871	0.469
Mof_Ag	Ag	0.08305	0.01601	0.9113	0.577
Mof_Ag	Ag	0.08122	0.04086	0.68513	0.543
Mof_Ag	Ag	0.30822	0.47133	0.38153	0.948
Mof_C 	C 	0.0011	0.9889	0.8697	-0.545
Mof_C 	C 	0.9925	0.9041	0.8386	0.163
Mof_C 	C 	0.9837	0.8047	0.7839	-0.239
Mof_H 	H 	0.9939	0.7467	0.8297	0.169
Mof_H 	H 	0.9482	0.7971	0.7428	0.13
Mof_C 	C 	0.9127	0.2201	0.9568	0.059
Mof_C 	C 	0.882	0.301	0.9842	1.046
Mof_C 	C 	0.1761	0.9564	0.859	0.191
Mof_C 	C 	0.2327	0.9326	0.9047	0.881
Mof_C 	C 	0.1003	0.2543	0.815	0.114
Mof_C 	C 	0.1351	0.344	0.851	1.018
Mof_C 	C 	0.1255	0.1815	0.0932	0.358
Mof_C 	C 	0.1684	0.2496	0.1616	0.021
Mof_C 	C 	0.1603	0.3159	0.2277	-0.029
Mof_H 	H 	0.1286	0.3197	0.2298	0.13
Mof_C 	C 	0.1998	0.3772	0.2916	0.13
Mof_H 	H 	0.1944	0.421	0.3368	0.124
Mof_C 	C 	0.2155	0.248	0.1613	-0.053
Mof_H 	H 	0.2225	0.204	0.1182	0.127
Mof_C 	C 	0.252	0.3095	0.223	0.163
Mof_H 	H 	0.2835	0.3073	0.2198	0.043
Mof_F 	F 	0.8988	0.3224	0.0732	-0.5
Mof_F 	F 	0.8369	0.2765	0.9647	-0.486
Mof_F 	F 	0.8806	0.3862	0.947	-0.466
Mof_F 	F 	0.2576	0.0041	0.9669	-0.449
Mof_F 	F 	0.2538	0.9271	0.8428	-0.469
Mof_F 	F 	0.2413	0.8459	0.9523	-0.425
Mof_F 	F 	0.1348	0.3792	0.9359	-0.394
Mof_F 	F 	0.117	0.4348	0.813	-0.426
Mof_F 	F 	0.1767	0.339	0.87	-0.581
Mof_N 	N 	0.2458	0.3727	0.2875	-0.172
Mof_O 	O 	0.8914	0.135	0.9252	-0.319
Mof_O 	O 	0.9561	0.2467	0.9745	-0.188
Mof_O 	O 	0.1574	0.9594	0.9199	-0.299
Mof_O 	O 	0.1583	0.9692	0.7705	-0.315
Mof_O 	O 	0.0641	0.2477	0.8306	-0.162
Mof_O 	O 	0.1241	0.1903	0.7735	-0.082
Mof_O 	O 	0.0816	0.2127	0.0758	-0.308
Mof_O 	O 	0.1371	0.1059	0.0547	-0.431
Mof_O 	O 	0.0565	0.2697	0.7783	-0.071
Mof_O 	O 	0.1179	0.1742	0.8197	-0.191
Mof_Ag	Ag	0.51351	0.61369	0.97871	0.493
Mof_Ag	Ag	0.58305	0.51601	0.9113	0.588
Mof_Ag	Ag	0.58122	0.54086	0.68513	0.555
Mof_Ag	Ag	0.80822	0.97133	0.38153	0.944
Mof_C 	C 	0.5011	0.4889	0.8697	-0.543
Mof_C 	C 	0.4925	0.4041	0.8386	0.145
Mof_C 	C 	0.4837	0.3047	0.7839	-0.236
Mof_H 	H 	0.4939	0.2467	0.8297	0.162
Mof_H 	H 	0.4482	0.2971	0.7428	0.127
Mof_C 	C 	0.4127	0.7201	0.9568	0.058
Mof_C 	C 	0.382	0.801	0.9842	1.055
Mof_C 	C 	0.6761	0.4564	0.859	0.194
Mof_C 	C 	0.7327	0.4326	0.9047	0.872
Mof_C 	C 	0.6003	0.7543	0.815	0.115
Mof_C 	C 	0.6351	0.844	0.851	1.017
Mof_C 	C 	0.6255	0.6815	0.0932	0.36
Mof_C 	C 	0.6684	0.7496	0.1616	0.017
Mof_C 	C 	0.6603	0.8159	0.2277	-0.027
Mof_H 	H 	0.6286	0.8197	0.2298	0.129
Mof_C 	C 	0.6998	0.8772	0.2916	0.128
Mof_H 	H 	0.6944	0.921	0.3368	0.124
Mof_C 	C 	0.7155	0.748	0.1613	-0.051
Mof_H 	H 	0.7225	0.704	0.1182	0.124
Mof_C 	C 	0.752	0.8095	0.223	0.161
Mof_H 	H 	0.7835	0.8073	0.2198	0.043
Mof_F 	F 	0.3988	0.8224	0.0732	-0.51
Mof_F 	F 	0.3369	0.7765	0.9647	-0.485
Mof_F 	F 	0.3806	0.8862	0.947	-0.466
Mof_F 	F 	0.7576	0.5041	0.9669	-0.442
Mof_F 	F 	0.7538	0.4271	0.8428	-0.469
Mof_F 	F 	0.7413	0.3459	0.9523	-0.427
Mof_F 	F 	0.6348	0.8792	0.9359	-0.391
Mof_F 	F 	0.617	0.9348	0.813	-0.423
Mof_F 	F 	0.6767	0.839	0.87	-0.579
Mof_N 	N 	0.7458	0.8727	0.2875	-0.172
Mof_O 	O 	0.3914	0.635	0.9252	-0.319
Mof_O 	O 	0.4561	0.7467	0.9745	-0.192
Mof_O 	O 	0.6574	0.4594	0.9199	-0.307
Mof_O 	O 	0.6583	0.4692	0.7705	-0.32
Mof_O 	O 	0.5641	0.7477	0.8306	-0.163
Mof_O 	O 	0.6241	0.6903	0.7735	-0.083
Mof_O 	O 	0.5816	0.7127	0.0758	-0.315
Mof_O 	O 	0.6371	0.6059	0.0547	-0.439
Mof_O 	O 	0.5565	0.7697	0.7783	-0.07
Mof_O 	O 	0.6179	0.6742	0.8197	-0.191
Mof_Ag	Ag	0.98649	0.11369	0.52129	0.505
Mof_Ag	Ag	0.91695	0.01601	0.5887	0.587
Mof_Ag	Ag	0.91878	0.04086	0.81487	0.559
Mof_Ag	Ag	0.69178	0.47133	0.11847	0.948
Mof_C 	C 	0.9989	0.9889	0.6303	-0.516
Mof_C 	C 	0.0075	0.9041	0.6614	0.126
Mof_C 	C 	0.0163	0.8047	0.7161	-0.23
Mof_H 	H 	0.0061	0.7467	0.6703	0.159
Mof_H 	H 	0.0518	0.7971	0.7572	0.126
Mof_C 	C 	0.0873	0.2201	0.5432	0.06
Mof_C 	C 	0.118	0.301	0.5158	1.049
Mof_C 	C 	0.8239	0.9564	0.641	0.193
Mof_C 	C 	0.7673	0.9326	0.5953	0.873
Mof_C 	C 	0.8997	0.2543	0.685	0.112
Mof_C 	C 	0.8649	0.344	0.649	1.019
Mof_C 	C 	0.8745	0.1815	0.4068	0.36
Mof_C 	C 	0.8316	0.2496	0.3384	0.019
Mof_C 	C 	0.8397	0.3159	0.2723	-0.028
Mof_H 	H 	0.8714	0.3197	0.2702	0.131
Mof_C 	C 	0.8002	0.3772	0.2084	0.13
Mof_H 	H 	0.8056	0.421	0.1632	0.125
Mof_C 	C 	0.7845	0.248	0.3387	-0.051
Mof_H 	H 	0.7775	0.204	0.3818	0.125
Mof_C 	C 	0.748	0.3095	0.277	0.163
Mof_H 	H 	0.7165	0.3073	0.2802	0.043
Mof_F 	F 	0.1012	0.3224	0.4268	-0.506
Mof_F 	F 	0.1631	0.2765	0.5353	-0.486
Mof_F 	F 	0.1194	0.3862	0.553	-0.468
Mof_F 	F 	0.7424	0.0041	0.5331	-0.442
Mof_F 	F 	0.7462	0.9271	0.6572	-0.468
Mof_F 	F 	0.7587	0.8459	0.5477	-0.426
Mof_F 	F 	0.8652	0.3792	0.5641	-0.393
Mof_F 	F 	0.883	0.4348	0.687	-0.424
Mof_F 	F 	0.8233	0.339	0.63	-0.581
Mof_N 	N 	0.7542	0.3727	0.2125	-0.172
Mof_O 	O 	0.1086	0.135	0.5748	-0.32
Mof_O 	O 	0.0439	0.2467	0.5255	-0.2
Mof_O 	O 	0.8426	0.9594	0.5801	-0.305
Mof_O 	O 	0.8417	0.9692	0.7295	-0.317
Mof_O 	O 	0.9359	0.2477	0.6694	-0.162
Mof_O 	O 	0.8759	0.1903	0.7265	-0.083
Mof_O 	O 	0.9184	0.2127	0.4242	-0.313
Mof_O 	O 	0.8629	0.1059	0.4453	-0.438
Mof_O 	O 	0.9435	0.2697	0.7217	-0.064
Mof_O 	O 	0.8821	0.1742	0.6803	-0.19
Mof_Ag	Ag	0.48649	0.61369	0.52129	0.491
Mof_Ag	Ag	0.41695	0.51601	0.5887	0.588
Mof_Ag	Ag	0.41878	0.54086	0.81487	0.555
Mof_Ag	Ag	0.19178	0.97133	0.11847	0.938
Mof_C 	C 	0.4989	0.4889	0.6303	-0.542
Mof_C 	C 	0.5075	0.4041	0.6614	0.146
Mof_C 	C 	0.5163	0.3047	0.7161	-0.237
Mof_H 	H 	0.5061	0.2467	0.6703	0.164
Mof_H 	H 	0.5518	0.2971	0.7572	0.128
Mof_C 	C 	0.5873	0.7201	0.5432	0.06
Mof_C 	C 	0.618	0.801	0.5158	1.05
Mof_C 	C 	0.3239	0.4564	0.641	0.194
Mof_C 	C 	0.2673	0.4326	0.5953	0.872
Mof_C 	C 	0.3997	0.7543	0.685	0.115
Mof_C 	C 	0.3649	0.844	0.649	1.018
Mof_C 	C 	0.3745	0.6815	0.4068	0.36
Mof_C 	C 	0.3316	0.7496	0.3384	0.018
Mof_C 	C 	0.3397	0.8159	0.2723	-0.028
Mof_H 	H 	0.3714	0.8197	0.2702	0.13
Mof_C 	C 	0.3002	0.8772	0.2084	0.129
Mof_H 	H 	0.3056	0.921	0.1632	0.123
Mof_C 	C 	0.2845	0.748	0.3387	-0.051
Mof_H 	H 	0.2775	0.704	0.3818	0.124
Mof_C 	C 	0.248	0.8095	0.277	0.162
Mof_H 	H 	0.2165	0.8073	0.2802	0.043
Mof_F 	F 	0.6012	0.8224	0.4268	-0.505
Mof_F 	F 	0.6631	0.7765	0.5353	-0.486
Mof_F 	F 	0.6194	0.8862	0.553	-0.467
Mof_F 	F 	0.2424	0.5041	0.5331	-0.442
Mof_F 	F 	0.2462	0.4271	0.6572	-0.469
Mof_F 	F 	0.2587	0.3459	0.5477	-0.425
Mof_F 	F 	0.3652	0.8792	0.5641	-0.393
Mof_F 	F 	0.383	0.9348	0.687	-0.424
Mof_F 	F 	0.3233	0.839	0.63	-0.58
Mof_N 	N 	0.2542	0.8727	0.2125	-0.171
Mof_O 	O 	0.6086	0.635	0.5748	-0.319
Mof_O 	O 	0.5439	0.7467	0.5255	-0.194
Mof_O 	O 	0.3426	0.4594	0.5801	-0.306
Mof_O 	O 	0.3417	0.4692	0.7295	-0.32
Mof_O 	O 	0.4359	0.7477	0.6694	-0.164
Mof_O 	O 	0.3759	0.6903	0.7265	-0.083
Mof_O 	O 	0.4184	0.7127	0.4242	-0.313
Mof_O 	O 	0.3629	0.6059	0.4453	-0.438
Mof_O 	O 	0.4435	0.7697	0.7217	-0.069
Mof_O 	O 	0.3821	0.6742	0.6803	-0.191
Mof_Ag	Ag	6.67604e-34	0.87028	0.25	0.377
Mof_Ag	Ag	0.5	0.37028	0.25	0.397
Mof_Ag	Ag	2.00281e-33	0.12972	0.75	0.376
Mof_Ag	Ag	0.5	0.62972	0.75	0.398
_end
