# CIF file generated by openbabel 3.1.0, see https://openbabel.org
data_I
_chemical_name_common 'image0'
_cell_length_a 9.005
_cell_length_b 12.573
_cell_length_c 19.675
_cell_angle_alpha 82.313
_cell_angle_beta 79.259
_cell_angle_gamma 86.749
_space_group_name_H-M_alt 'P 1'
_space_group_name_Hall 'P 1'
loop_
    _symmetry_equiv_pos_as_xyz
    x,y,z
loop_
    _atom_site_label
    _atom_site_type_symbol
    _atom_site_fract_x
    _atom_site_fract_y
    _atom_site_fract_z
    _atom_site_occupancy
    C1       C        0.85120    0.77360    0.89960    1.000
    C2       C        0.86340    0.85370    0.83560    1.000
    C3       C        0.95870    0.83570    0.77370    1.000
    H1       H        0.02570    0.77660    0.77300    1.000
    C4       C        0.95440    0.90410    0.71420    1.000
    H2       H        0.01670    0.88930    0.67300    1.000
    C5       C        0.86020    0.99480    0.71330    1.000
    C6       C        0.76620    0.01340    0.77470    1.000
    H3       H        0.70010    0.07300    0.77530    1.000
    C7       C        0.76900    0.94470    0.83510    1.000
    H4       H        0.70660    0.95960    0.87620    1.000
    C8       C        0.85080    0.06450    0.64800    1.000
    C9       C        0.85040    0.17230    0.63800    1.000
    C10      C        0.97140    0.46240    0.82120    1.000
    C11      C        0.98590    0.21960    0.72860    1.000
    H5       H        0.03880    0.15390    0.72770    1.000
    C12      C        0.01260    0.28930    0.77300    1.000
    H6       H        0.08170    0.27040    0.80260    1.000
    C13      C        0.93510    0.38820    0.77300    1.000
    C14      C        0.83390    0.41560    0.72970    1.000
    H7       H        0.78380    0.48240    0.72970    1.000
    C15      C        0.80490    0.34660    0.68640    1.000
    H8       H        0.73430    0.36600    0.65760    1.000
    C16      C        0.88100    0.24640    0.68520    1.000
    C17      C        0.78100    0.11430    0.52580    1.000
    C18      C        0.73600    0.11150    0.46650    1.000
    C19      C        0.65130    0.05650    0.35640    1.000
    C20      C        0.63170    0.98170    0.30780    1.000
    C21      C        0.56600    0.88390    0.33400    1.000
    H9       H        0.52990    0.86880    0.38160    1.000
    C22      C        0.55350    0.80900    0.29060    1.000
    H10      H        0.50670    0.74460    0.30860    1.000
    C23      C        0.61080    0.83000    0.22000    1.000
    C24      C        0.67620    0.92680    0.19440    1.000
    H11      H        0.71420    0.94150    0.14700    1.000
    C25      C        0.68660    0.00180    0.23760    1.000
    H12      H        0.73110    0.06680    0.21920    1.000
    C26      C        0.64310    0.16480    0.34710    1.000
    C27      C        0.60290    0.23610    0.28800    1.000
    C28      C        0.47920    0.21640    0.25870    1.000
    H13      H        0.42220    0.15630    0.27660    1.000
    C29      C        0.44030    0.28490    0.20340    1.000
    H14      H        0.35890    0.26960    0.18380    1.000
    C30      C        0.52100    0.37550    0.17700    1.000
    C31      C        0.64120    0.39700    0.20710    1.000
    H15      H        0.69530    0.45890    0.19040    1.000
    C32      C        0.68230    0.32710    0.26200    1.000
    H16      H        0.76430    0.34220    0.28120    1.000
    C33      C        0.48080    0.44870    0.11730    1.000
    C34      C        0.60160    0.74980    0.17220    1.000
    C35      C        0.26950    0.71440    0.02640    1.000
    H17      H        0.26470    0.64000    0.03370    1.000
    C36      C        0.13640    0.77340    0.02940    1.000
    H18      H        0.04410    0.73990    0.03850    1.000
    C37      C        0.14290    0.88490    0.01830    1.000
    C38      C        0.28260    0.92730    0.00290    1.000
    H19      H        0.29160    0.00140    0.99290    1.000
    C39      C        0.41090    0.86190    0.00190    1.000
    H20      H        0.50500    0.89320    0.99240    1.000
    C40      C        0.99860    0.95450    0.02660    1.000
    H21      H        0.91400    0.91080    0.02540    1.000
    H22      H        0.98230    0.98000    0.07180    1.000
    Cd1      Cd       0.62347    0.65929    0.01739    1.000
    N1       N        0.40450    0.75670    0.01390    1.000
    O1       O        0.93800    0.68960    0.89720    1.000
    O2       O        0.76000    0.79380    0.95270    1.000
    O3       O        0.91330    0.55990    0.80790    1.000
    H23      H        0.93670    0.59850    0.83640    1.000
    O4       O        0.04500    0.43560    0.86530    1.000
    O5       O        0.54520    0.65940    0.20350    1.000
    H24      H        0.46130    0.65360    0.19410    1.000
    O6       O        0.64890    0.76560    0.10970    1.000
    O7       O        0.41130    0.41610    0.07660    1.000
    O8       O        0.52310    0.54490    0.11010    1.000
    S1       S        0.69720    0.22899    0.41216    1.000
    S2       S        0.70810    0.99426    0.43336    1.000
    S3       S        0.82100    0.99833    0.57984    1.000
    S4       S        0.81600    0.23345    0.55584    1.000
    C41      C        0.14880    0.22640    0.10040    1.000
    C42      C        0.13660    0.14630    0.16440    1.000
    C43      C        0.04130    0.16430    0.22630    1.000
    H25      H        0.97430    0.22340    0.22700    1.000
    C44      C        0.04560    0.09590    0.28580    1.000
    H26      H        0.98330    0.11070    0.32700    1.000
    C45      C        0.13980    0.00520    0.28670    1.000
    C46      C        0.23380    0.98660    0.22530    1.000
    H27      H        0.29990    0.92700    0.22470    1.000
    C47      C        0.23100    0.05530    0.16490    1.000
    H28      H        0.29340    0.04040    0.12380    1.000
    C48      C        0.14920    0.93550    0.35200    1.000
    C49      C        0.14960    0.82770    0.36200    1.000
    C50      C        0.02860    0.53760    0.17880    1.000
    C51      C        0.01410    0.78040    0.27140    1.000
    H29      H        0.96120    0.84610    0.27230    1.000
    C52      C        0.98740    0.71070    0.22700    1.000
    H30      H        0.91830    0.72960    0.19740    1.000
    C53      C        0.06490    0.61180    0.22700    1.000
    C54      C        0.16610    0.58440    0.27030    1.000
    H31      H        0.21620    0.51760    0.27030    1.000
    C55      C        0.19510    0.65340    0.31360    1.000
    H32      H        0.26570    0.63400    0.34240    1.000
    C56      C        0.11900    0.75360    0.31480    1.000
    C57      C        0.21900    0.88570    0.47420    1.000
    C58      C        0.26400    0.88850    0.53350    1.000
    C59      C        0.34870    0.94350    0.64360    1.000
    C60      C        0.36830    0.01830    0.69220    1.000
    C61      C        0.43400    0.11610    0.66600    1.000
    H33      H        0.47010    0.13120    0.61840    1.000
    C62      C        0.44650    0.19100    0.70940    1.000
    H34      H        0.49330    0.25540    0.69140    1.000
    C63      C        0.38920    0.17000    0.78000    1.000
    C64      C        0.32380    0.07320    0.80560    1.000
    H35      H        0.28580    0.05850    0.85300    1.000
    C65      C        0.31340    0.99820    0.76240    1.000
    H36      H        0.26890    0.93320    0.78080    1.000
    C66      C        0.35690    0.83520    0.65290    1.000
    C67      C        0.39710    0.76390    0.71200    1.000
    C68      C        0.52080    0.78360    0.74130    1.000
    H37      H        0.57780    0.84370    0.72340    1.000
    C69      C        0.55970    0.71510    0.79660    1.000
    H38      H        0.64110    0.73040    0.81620    1.000
    C70      C        0.47900    0.62450    0.82300    1.000
    C71      C        0.35880    0.60300    0.79290    1.000
    H39      H        0.30470    0.54110    0.80960    1.000
    C72      C        0.31770    0.67290    0.73800    1.000
    H40      H        0.23570    0.65780    0.71880    1.000
    C73      C        0.51920    0.55130    0.88270    1.000
    C74      C        0.39840    0.25020    0.82780    1.000
    C75      C        0.73050    0.28560    0.97360    1.000
    H41      H        0.73530    0.36000    0.96630    1.000
    C76      C        0.86360    0.22660    0.97060    1.000
    H42      H        0.95590    0.26010    0.96150    1.000
    C77      C        0.85710    0.11510    0.98170    1.000
    C78      C        0.71740    0.07270    0.99710    1.000
    H43      H        0.70840    0.99860    0.00710    1.000
    C79      C        0.58910    0.13810    0.99810    1.000
    H44      H        0.49500    0.10680    0.00760    1.000
    C80      C        0.00140    0.04550    0.97340    1.000
    H45      H        0.08600    0.08920    0.97460    1.000
    H46      H        0.01770    0.02000    0.92820    1.000
    Cd2      Cd       0.37653    0.34071    0.98261    1.000
    N2       N        0.59550    0.24330    0.98610    1.000
    O9       O        0.06200    0.31040    0.10280    1.000
    O10      O        0.24000    0.20620    0.04730    1.000
    O11      O        0.08670    0.44010    0.19210    1.000
    H47      H        0.06330    0.40150    0.16360    1.000
    O12      O        0.95500    0.56440    0.13470    1.000
    O13      O        0.45480    0.34060    0.79650    1.000
    H48      H        0.53870    0.34640    0.80590    1.000
    O14      O        0.35110    0.23440    0.89030    1.000
    O15      O        0.58870    0.58390    0.92340    1.000
    O16      O        0.47690    0.45510    0.88990    1.000
    S5       S        0.30280    0.77101    0.58784    1.000
    S6       S        0.29190    0.00574    0.56664    1.000
    S7       S        0.17900    0.00167    0.42016    1.000
    S8       S        0.18400    0.76655    0.44416    1.000
