data_functionalizedCrystal
_audit_creation_method	'EQeq! by Chris Wilmer'
_symmetry_space_group_name_H-M	'P1'
_symmetry_Int_Tables_number	1
_symmetry_cell_setting	triclinic
loop_
_symmetry_equiv_pos_as_xyz
  x,y,z
_cell_length_a	14.751
_cell_length_b	15.0645
_cell_length_c	15.0645
_cell_angle_alpha	120
_cell_angle_beta	90
_cell_angle_gamma	90
loop_
_atom_site_label
_atom_site_type_symbol
_atom_site_fract_x
_atom_site_fract_y
_atom_site_fract_z
_atom_site_charge
Mof_Nd	Nd	0.25	0.33333	0.66666	2.702
Mof_Nd	Nd	0.25	0.66667	0.33334	2.702
Mof_Nd	Nd	0.75	0.66667	0.33334	2.728
Mof_Nd	Nd	0.75	0.33333	0.66666	2.728
Mof_Cu	Cu	6.53056e-33	0.5	0.5	0.889
Mof_Cu	Cu	-2.17685e-33	0	0.5	0.856
Mof_Cu	Cu	4.3537e-33	0.5	-0	0.856
Mof_Cu	Cu	0.5	0	0.5	0.914
Mof_Cu	Cu	0.5	0.5	0.5	0.948
Mof_Cu	Cu	0.5	0.5	-0	0.914
Mof_H 	H 	0.8373	0.7882	0.1526	0.111
Mof_H 	H 	0.7597	0.711	0.0883	0.073
Mof_H 	H 	0.8373	0.3644	0.2118	0.093
Mof_H 	H 	0.7597	0.3773	0.289	0.083
Mof_H 	H 	0.8373	0.8474	0.6356	0.129
Mof_H 	H 	0.7597	0.9117	0.6227	0.122
Mof_H 	H 	0.8373	0.2118	0.8474	0.111
Mof_H 	H 	0.7597	0.289	0.9117	0.112
Mof_H 	H 	0.8373	0.6356	0.7882	0.13
Mof_H 	H 	0.7597	0.6227	0.711	0.103
Mof_H 	H 	0.8373	0.1526	0.3644	0.092
Mof_H 	H 	0.7597	0.0883	0.3773	0.064
Mof_H 	H 	0.6627	0.6356	0.8474	0.115
Mof_H 	H 	0.7403	0.6227	0.9117	0.125
Mof_H 	H 	0.6627	0.1526	0.7882	0.096
Mof_H 	H 	0.7403	0.0883	0.711	0.077
Mof_H 	H 	0.6627	0.2118	0.3644	0.077
Mof_H 	H 	0.7403	0.289	0.3773	0.086
Mof_H 	H 	0.6627	0.3644	0.1526	0.077
Mof_H 	H 	0.7403	0.3773	0.0883	0.067
Mof_H 	H 	0.6627	0.8474	0.2118	0.096
Mof_H 	H 	0.7403	0.9117	0.289	0.115
Mof_H 	H 	0.6627	0.7882	0.6356	0.115
Mof_H 	H 	0.7403	0.711	0.6227	0.106
Mof_H 	H 	0.1627	0.2118	0.8474	0.075
Mof_H 	H 	0.2403	0.289	0.9117	0.105
Mof_H 	H 	0.1627	0.6356	0.7882	0.094
Mof_H 	H 	0.2403	0.6227	0.711	0.096
Mof_H 	H 	0.1627	0.1526	0.3644	0.055
Mof_H 	H 	0.2403	0.0883	0.3773	0.055
Mof_H 	H 	0.1627	0.7882	0.1526	0.075
Mof_H 	H 	0.2403	0.711	0.0883	0.066
Mof_H 	H 	0.1627	0.3644	0.2118	0.056
Mof_H 	H 	0.2403	0.3773	0.289	0.075
Mof_H 	H 	0.1627	0.8474	0.6356	0.094
Mof_H 	H 	0.2403	0.9117	0.6227	0.115
Mof_H 	H 	0.3373	0.3644	0.1526	0.07
Mof_H 	H 	0.2597	0.3773	0.0883	0.054
Mof_H 	H 	0.3373	0.8474	0.2118	0.09
Mof_H 	H 	0.2597	0.9117	0.289	0.104
Mof_H 	H 	0.3373	0.7882	0.6356	0.109
Mof_H 	H 	0.2597	0.711	0.6227	0.094
Mof_H 	H 	0.3373	0.6356	0.8474	0.109
Mof_H 	H 	0.2597	0.6227	0.9117	0.114
Mof_H 	H 	0.3373	0.1526	0.7882	0.09
Mof_H 	H 	0.2597	0.0883	0.711	0.064
Mof_H 	H 	0.3373	0.2118	0.3644	0.071
Mof_H 	H 	0.2597	0.289	0.3773	0.073
Mof_C 	C 	0.3601	0.1278	0.6436	0.435
Mof_C 	C 	0.6996	0.854	0.2681	-0.202
Mof_C 	C 	0.3601	0.5158	0.8722	0.446
Mof_C 	C 	0.6996	0.4141	0.146	-0.178
Mof_C 	C 	0.3601	0.3564	0.4842	0.431
Mof_C 	C 	0.6996	0.7319	0.5859	-0.214
Mof_C 	C 	0.3601	0.8722	0.3564	0.439
Mof_C 	C 	0.6996	0.146	0.7319	-0.193
Mof_C 	C 	0.3601	0.4842	0.1278	0.428
Mof_C 	C 	0.6996	0.5859	0.854	-0.218
Mof_C 	C 	0.3601	0.6436	0.5158	0.446
Mof_C 	C 	0.6996	0.2681	0.4141	-0.184
Mof_C 	C 	0.1399	0.4842	0.3564	0.428
Mof_C 	C 	0.8004	0.5859	0.7319	-0.211
Mof_C 	C 	0.1399	0.6436	0.1278	0.432
Mof_C 	C 	0.8004	0.2681	0.854	-0.199
Mof_C 	C 	0.1399	0.8722	0.5158	0.443
Mof_C 	C 	0.8004	0.146	0.4141	-0.175
Mof_C 	C 	0.1399	0.5158	0.6436	0.443
Mof_C 	C 	0.8004	0.4141	0.2681	-0.18
Mof_C 	C 	0.1399	0.3564	0.8722	0.436
Mof_C 	C 	0.8004	0.7319	0.146	-0.19
Mof_C 	C 	0.1399	0.1278	0.4842	0.424
Mof_C 	C 	0.8004	0.854	0.5859	-0.214
Mof_C 	C 	0.6399	0.8722	0.3564	0.443
Mof_C 	C 	0.3004	0.146	0.7319	-0.183
Mof_C 	C 	0.6399	0.4842	0.1278	0.433
Mof_C 	C 	0.3004	0.5859	0.854	-0.208
Mof_C 	C 	0.6399	0.6436	0.5158	0.451
Mof_C 	C 	0.3004	0.2681	0.4141	-0.173
Mof_C 	C 	0.6399	0.1278	0.6436	0.44
Mof_C 	C 	0.3004	0.854	0.2681	-0.193
Mof_C 	C 	0.6399	0.5158	0.8722	0.451
Mof_C 	C 	0.3004	0.4141	0.146	-0.167
Mof_C 	C 	0.6399	0.3564	0.4842	0.436
Mof_C 	C 	0.3004	0.7319	0.5859	-0.204
Mof_C 	C 	0.8601	0.5158	0.6436	0.448
Mof_C 	C 	0.1996	0.4141	0.2681	-0.173
Mof_C 	C 	0.8601	0.3564	0.8722	0.441
Mof_C 	C 	0.1996	0.7319	0.146	-0.183
Mof_C 	C 	0.8601	0.1278	0.4842	0.43
Mof_C 	C 	0.1996	0.854	0.5859	-0.208
Mof_C 	C 	0.8601	0.4842	0.3564	0.433
Mof_C 	C 	0.1996	0.5859	0.7319	-0.204
Mof_C 	C 	0.8601	0.6436	0.1278	0.437
Mof_C 	C 	0.1996	0.2681	0.854	-0.192
Mof_C 	C 	0.8601	0.8722	0.5158	0.448
Mof_C 	C 	0.1996	0.146	0.4141	-0.167
Mof_O 	O 	0.3589	0.1925	0.6144	-0.547
Mof_O 	O 	0.4076	0.049	0.6071	-0.446
Mof_O 	O 	0.3589	0.4219	0.8075	-0.533
Mof_O 	O 	0.4076	0.5581	0.951	-0.382
Mof_O 	O 	0.3589	0.3856	0.5781	-0.539
Mof_O 	O 	0.4076	0.3929	0.4419	-0.424
Mof_O 	O 	0.3589	0.8075	0.3856	-0.531
Mof_O 	O 	0.4076	0.951	0.3929	-0.384
Mof_O 	O 	0.3589	0.5781	0.1925	-0.545
Mof_O 	O 	0.4076	0.4419	0.049	-0.448
Mof_O 	O 	0.3589	0.6144	0.4219	-0.542
Mof_O 	O 	0.4076	0.6071	0.5581	-0.419
Mof_O 	O 	0.1411	0.5781	0.3856	-0.56
Mof_O 	O 	0.0924	0.4419	0.3929	-0.457
Mof_O 	O 	0.1411	0.6144	0.1925	-0.567
Mof_O 	O 	0.0924	0.6071	0.049	-0.478
Mof_O 	O 	0.1411	0.8075	0.4219	-0.553
Mof_O 	O 	0.0924	0.951	0.5581	-0.413
Mof_O 	O 	0.1411	0.4219	0.6144	-0.563
Mof_O 	O 	0.0924	0.5581	0.6071	-0.452
Mof_O 	O 	0.1411	0.3856	0.8075	-0.552
Mof_O 	O 	0.0924	0.3929	0.951	-0.415
Mof_O 	O 	0.1411	0.1925	0.5781	-0.566
Mof_O 	O 	0.0924	0.049	0.4419	-0.48
Mof_O 	O 	0.6411	0.8075	0.3856	-0.536
Mof_O 	O 	0.5924	0.951	0.3929	-0.385
Mof_O 	O 	0.6411	0.5781	0.1925	-0.549
Mof_O 	O 	0.5924	0.4419	0.049	-0.449
Mof_O 	O 	0.6411	0.6144	0.4219	-0.546
Mof_O 	O 	0.5924	0.6071	0.5581	-0.42
Mof_O 	O 	0.6411	0.1925	0.6144	-0.551
Mof_O 	O 	0.5924	0.049	0.6071	-0.447
Mof_O 	O 	0.6411	0.4219	0.8075	-0.537
Mof_O 	O 	0.5924	0.5581	0.951	-0.383
Mof_O 	O 	0.6411	0.3856	0.5781	-0.543
Mof_O 	O 	0.5924	0.3929	0.4419	-0.425
Mof_O 	O 	0.8589	0.4219	0.6144	-0.519
Mof_O 	O 	0.9076	0.5581	0.6071	-0.364
Mof_O 	O 	0.8589	0.3856	0.8075	-0.508
Mof_O 	O 	0.9076	0.3929	0.951	-0.331
Mof_O 	O 	0.8589	0.1925	0.5781	-0.522
Mof_O 	O 	0.9076	0.049	0.4419	-0.393
Mof_O 	O 	0.8589	0.5781	0.3856	-0.516
Mof_O 	O 	0.9076	0.4419	0.3929	-0.369
Mof_O 	O 	0.8589	0.6144	0.1925	-0.523
Mof_O 	O 	0.9076	0.6071	0.049	-0.391
Mof_O 	O 	0.8589	0.8075	0.4219	-0.51
Mof_O 	O 	0.9076	0.951	0.5581	-0.329
Mof_O 	O 	0.75	0.76375	0.23625	-0.303
Mof_O 	O 	0.75	0.4725	0.23625	-0.314
Mof_O 	O 	0.75	0.76375	0.5275	-0.292
Mof_O 	O 	0.75	0.23625	0.76375	-0.303
Mof_O 	O 	0.75	0.5275	0.76375	-0.292
Mof_O 	O 	0.75	0.23625	0.4725	-0.314
Mof_O 	O 	0.25	0.23625	0.76375	-0.311
Mof_O 	O 	0.25	0.5275	0.76375	-0.299
Mof_O 	O 	0.25	0.23625	0.4725	-0.322
Mof_O 	O 	0.25	0.76375	0.23625	-0.311
Mof_O 	O 	0.25	0.4725	0.23625	-0.322
Mof_O 	O 	0.25	0.76375	0.5275	-0.299
_end
