# CIF file generated by openbabel 3.1.0, see https://openbabel.org
data_I
_chemical_name_common 'IBUDOZ_clean'
_cell_length_a 5.7266
_cell_length_b 9.9412
_cell_length_c 16.474
_cell_angle_alpha 90
_cell_angle_beta 90
_cell_angle_gamma 94.294
_space_group_name_H-M_alt 'P 1'
_space_group_name_Hall 'P 1'
loop_
    _symmetry_equiv_pos_as_xyz
    x,y,z
loop_
    _atom_site_label
    _atom_site_type_symbol
    _atom_site_fract_x
    _atom_site_fract_y
    _atom_site_fract_z
    _atom_site_occupancy
    Cu1      Cu       0.24641    0.51161    0.56730    1.000
    Cu2      Cu       0.75359    0.98839    0.06730    1.000
    Cu3      Cu       0.75359    0.48839    0.43270    1.000
    Cu4      Cu       0.24641    0.01161    0.93270    1.000
    H1       H        0.56500    0.30300    0.59000    1.000
    H2       H        0.74200    0.18500    0.68800    1.000
    H3       H        0.30700    0.32400    0.84700    1.000
    H4       H        0.13100    0.43700    0.74200    1.000
    H5       H        0.43500    0.19700    0.09000    1.000
    H6       H        0.25800    0.31500    0.18800    1.000
    H7       H        0.69300    0.17600    0.34700    1.000
    H8       H        0.86900    0.06300    0.24200    1.000
    H9       H        0.43500    0.69700    0.41000    1.000
    H10      H        0.25800    0.81500    0.31200    1.000
    H11      H        0.69300    0.67600    0.15300    1.000
    H12      H        0.86900    0.56300    0.25800    1.000
    H13      H        0.56500    0.80300    0.91000    1.000
    H14      H        0.74200    0.68500    0.81200    1.000
    H15      H        0.30700    0.82400    0.65300    1.000
    H16      H        0.13100    0.93700    0.75800    1.000
    C1       C        0.51560    0.30190    0.64250    1.000
    C2       C        0.62510    0.23220    0.70200    1.000
    C3       C        0.54350    0.23720    0.78100    1.000
    C4       C        0.35740    0.31250    0.79620    1.000
    C5       C        0.25860    0.38030    0.73350    1.000
    C6       C        0.66540    0.16740    0.84540    1.000
    C7       C        0.48440    0.19810    0.14250    1.000
    C8       C        0.37490    0.26780    0.20200    1.000
    C9       C        0.45650    0.26280    0.28100    1.000
    C10      C        0.64260    0.18750    0.29620    1.000
    C11      C        0.74140    0.11970    0.23350    1.000
    C12      C        0.33460    0.33260    0.34540    1.000
    C13      C        0.48440    0.69810    0.35750    1.000
    C14      C        0.37490    0.76780    0.29800    1.000
    C15      C        0.45650    0.76280    0.21900    1.000
    C16      C        0.64260    0.68750    0.20380    1.000
    C17      C        0.74140    0.61970    0.26650    1.000
    C18      C        0.33460    0.83260    0.15460    1.000
    C19      C        0.51560    0.80190    0.85750    1.000
    C20      C        0.62510    0.73220    0.79800    1.000
    C21      C        0.54350    0.73720    0.71900    1.000
    C22      C        0.35740    0.81250    0.70380    1.000
    C23      C        0.25860    0.88030    0.76650    1.000
    C24      C        0.66540    0.66740    0.65460    1.000
    N1       N        0.33520    0.37620    0.65650    1.000
    N2       N        0.57350    0.12510    0.91665    1.000
    N3       N        0.75170    0.07130    0.95581    1.000
    N4       N        0.93950    0.08290    0.90830    1.000
    N5       N        0.88870    0.14110    0.83830    1.000
    N6       N        0.66480    0.12380    0.15650    1.000
    N7       N        0.42650    0.37490    0.41665    1.000
    N8       N        0.24830    0.42870    0.45581    1.000
    N9       N        0.06050    0.41710    0.40830    1.000
    N10      N        0.11130    0.35890    0.33830    1.000
    N11      N        0.66480    0.62380    0.34350    1.000
    N12      N        0.42650    0.87490    0.08335    1.000
    N13      N        0.24830    0.92870    0.04419    1.000
    N14      N        0.06050    0.91710    0.09170    1.000
    N15      N        0.11130    0.85890    0.16170    1.000
    N16      N        0.33520    0.87620    0.84350    1.000
    N17      N        0.57350    0.62510    0.58335    1.000
    N18      N        0.75170    0.57130    0.54419    1.000
    N19      N        0.93950    0.58290    0.59170    1.000
    N20      N        0.88870    0.64110    0.66170    1.000
