data_functionalizedCrystal
_audit_creation_method	'EQeq! by Chris Wilmer'
_symmetry_space_group_name_H-M	'P1'
_symmetry_Int_Tables_number	1
_symmetry_cell_setting	triclinic
loop_
_symmetry_equiv_pos_as_xyz
  x,y,z
_cell_length_a	10.2325
_cell_length_b	10.4579
_cell_length_c	11.665
_cell_angle_alpha	106.737
_cell_angle_beta	108.856
_cell_angle_gamma	104.541
loop_
_atom_site_label
_atom_site_type_symbol
_atom_site_fract_x
_atom_site_fract_y
_atom_site_fract_z
_atom_site_charge
Mof_Sr	Sr	0.36042	0.09467	0.43399	1.496
Mof_O 	O 	0.2828	0.3183	0.4894	-0.539
Mof_O 	O 	0.119	0.1084	0.4479	-0.416
Mof_O 	O 	0.6227	0.331	0.5495	-0.658
Mof_H 	H 	0.6418	0.3569	0.641	0.18
Mof_O 	O 	0.6403	0.1172	0.5004	-0.565
Mof_O 	O 	0.5592	0.4111	0.8704	-0.248
Mof_O 	O 	0.4564	0.2073	0.6901	-0.426
Mof_O 	O 	0.3995	0.2166	0.2839	-0.506
Mof_O 	O 	0.441	0.4158	0.252	-0.407
Mof_C 	C 	0.1658	0.2424	0.4909	0.4
Mof_C 	C 	0.0833	0.3207	0.5501	-0.155
Mof_C 	C 	0.9359	0.2488	0.5243	0.1
Mof_H 	H 	0.8888	0.1499	0.474	0
Mof_C 	C 	0.859	0.3251	0.5739	-0.207
Mof_C 	C 	0.9313	0.4722	0.6524	0.05
Mof_H 	H 	0.8794	0.5235	0.6843	-0.006
Mof_C 	C 	0.0809	0.5437	0.6836	-0.046
Mof_C 	C 	0.1548	0.4663	0.6291	0.04
Mof_H 	H 	0.2535	0.5137	0.6464	0.013
Mof_C 	C 	0.6968	0.253	0.5398	0.468
Mof_C 	C 	0.1586	0.6959	0.7643	-0.002
Mof_C 	C 	0.2301	0.8213	0.8269	-0.028
Mof_C 	C 	0.3122	0.9745	0.893	-0.007
Mof_C 	C 	0.3704	0.0471	0.8268	-0.007
Mof_H 	H 	0.3599	0.9958	0.7425	0.03
Mof_C 	C 	0.444	0.1961	0.8863	-0.117
Mof_C 	C 	0.462	0.2732	0.0128	0.047
Mof_H 	H 	0.5123	0.3729	0.0527	0.05
Mof_C 	C 	0.4047	0.2015	0.08	-0.126
Mof_C 	C 	0.3323	0.0527	0.0207	0.001
Mof_H 	H 	0.2966	0.0043	0.0665	0.011
Mof_C 	C 	0.4872	0.2699	0.8051	0.354
Mof_C 	C 	0.4163	0.2837	0.2145	0.397
Mof_Sr	Sr	0.63958	0.90533	0.56601	1.495
Mof_O 	O 	0.7172	0.6817	0.5106	-0.539
Mof_O 	O 	0.881	0.8916	0.5521	-0.416
Mof_O 	O 	0.3773	0.669	0.4505	-0.658
Mof_H 	H 	0.3582	0.6431	0.359	0.18
Mof_O 	O 	0.3597	0.8828	0.4996	-0.565
Mof_O 	O 	0.4408	0.5889	0.1296	-0.248
Mof_O 	O 	0.5436	0.7927	0.3099	-0.426
Mof_O 	O 	0.6005	0.7834	0.7161	-0.506
Mof_O 	O 	0.559	0.5842	0.748	-0.407
Mof_C 	C 	0.8342	0.7576	0.5091	0.4
Mof_C 	C 	0.9167	0.6793	0.4499	-0.155
Mof_C 	C 	0.0641	0.7512	0.4757	0.1
Mof_H 	H 	0.1112	0.8501	0.526	0
Mof_C 	C 	0.141	0.6749	0.4261	-0.207
Mof_C 	C 	0.0687	0.5278	0.3476	0.05
Mof_H 	H 	0.1206	0.4765	0.3157	-0.006
Mof_C 	C 	0.9191	0.4563	0.3164	-0.046
Mof_C 	C 	0.8452	0.5337	0.3709	0.04
Mof_H 	H 	0.7465	0.4863	0.3536	0.013
Mof_C 	C 	0.3032	0.747	0.4602	0.468
Mof_C 	C 	0.8414	0.3041	0.2357	-0.002
Mof_C 	C 	0.7699	0.1787	0.1731	-0.028
Mof_C 	C 	0.6878	0.0255	0.107	-0.007
Mof_C 	C 	0.6296	0.9529	0.1732	-0.007
Mof_H 	H 	0.6401	0.0042	0.2575	0.03
Mof_C 	C 	0.556	0.8039	0.1137	-0.117
Mof_C 	C 	0.538	0.7268	0.9872	0.047
Mof_H 	H 	0.4877	0.6271	0.9473	0.05
Mof_C 	C 	0.5953	0.7985	0.92	-0.126
Mof_C 	C 	0.6677	0.9473	0.9793	0.001
Mof_H 	H 	0.7034	0.9957	0.9335	0.011
Mof_C 	C 	0.5128	0.7301	0.1949	0.354
Mof_C 	C 	0.5837	0.7163	0.7855	0.397
Mof_Sr	Sr	0.5	0.5	0.5	1.659
_end
