data_functionalizedCrystal
_audit_creation_method	'EQeq! by Chris Wilmer'
_symmetry_space_group_name_H-M	'P1'
_symmetry_Int_Tables_number	1
_symmetry_cell_setting	triclinic
loop_
_symmetry_equiv_pos_as_xyz
  x,y,z
_cell_length_a	6.277
_cell_length_b	17.702
_cell_length_c	20.486
_cell_angle_alpha	90
_cell_angle_beta	97.565
_cell_angle_gamma	90
loop_
_atom_site_label
_atom_site_type_symbol
_atom_site_fract_x
_atom_site_fract_y
_atom_site_fract_z
_atom_site_charge
Mof_Zn	Zn	0.1896	0.51275	0.77638	1.211
Mof_Zn	Zn	0.3104	0.01275	0.72362	1.211
Mof_Zn	Zn	0.8104	0.48725	0.22362	1.211
Mof_Zn	Zn	0.6896	0.98725	0.27638	1.211
Mof_H 	H 	0.0174	0.791	0.5934	0.072
Mof_H 	H 	0.2335	0.7569	0.5159	0.035
Mof_H 	H 	0.5641	0.7047	0.5472	0.032
Mof_H 	H 	0.683	0.687	0.6573	0.073
Mof_H 	H 	0.6569	0.707	0.7697	0.162
Mof_H 	H 	0.4687	0.7559	0.7907	0.171
Mof_H 	H 	0.0909	0.7535	0.76	0.167
Mof_H 	H 	0.9329	0.7906	0.7034	0.163
Mof_H 	H 	0.7355	0.4753	0.7232	-0.029
Mof_H 	H 	0.509	0.4769	0.6275	0.118
Mof_H 	H 	0.9645	0.5838	0.543	0.098
Mof_H 	H 	0.1789	0.5797	0.6418	-0.013
Mof_H 	H 	0.6531	0.5399	0.4735	0.08
Mof_H 	H 	0.4712	0.5753	0.5088	0.081
Mof_H 	H 	0.0175	0.3969	0.8629	-0.018
Mof_H 	H 	0.813	0.3877	0.9459	0.099
Mof_H 	H 	0.7004	0.6084	0.9313	0.104
Mof_H 	H 	0.9185	0.6155	0.8507	-0.022
Mof_H 	H 	0.6609	0.5289	0.0394	0.075
Mof_H 	H 	0.619	0.4434	0.0247	0.076
Mof_H 	H 	0.4826	0.291	0.9066	0.083
Mof_H 	H 	0.2665	0.2569	0.9841	0.017
Mof_H 	H 	0.9359	0.2047	0.9528	0.054
Mof_H 	H 	0.817	0.187	0.8427	0.053
Mof_H 	H 	0.8431	0.207	0.7303	0.147
Mof_H 	H 	0.0313	0.2559	0.7093	0.153
Mof_H 	H 	0.4091	0.2535	0.74	0.172
Mof_H 	H 	0.5671	0.2906	0.7966	0.167
Mof_H 	H 	0.7645	0.9753	0.7768	-0.031
Mof_H 	H 	0.991	0.9769	0.8725	0.118
Mof_H 	H 	0.5355	0.0838	0.957	0.1
Mof_H 	H 	0.3211	0.0797	0.8582	-0.016
Mof_H 	H 	0.8469	0.0399	0.0265	0.079
Mof_H 	H 	0.0288	0.0753	0.9912	0.077
Mof_H 	H 	0.4825	0.8969	0.6371	-0.012
Mof_H 	H 	0.687	0.8877	0.5541	0.097
Mof_H 	H 	0.7996	0.1084	0.5687	0.103
Mof_H 	H 	0.5815	0.1155	0.6493	-0.022
Mof_H 	H 	0.8391	0.0289	0.4606	0.076
Mof_H 	H 	0.881	0.9434	0.4753	0.076
Mof_H 	H 	0.9826	0.209	0.4066	0.071
Mof_H 	H 	0.7665	0.2431	0.4841	0.034
Mof_H 	H 	0.4359	0.2953	0.4528	0.031
Mof_H 	H 	0.317	0.313	0.3427	0.072
Mof_H 	H 	0.3431	0.293	0.2303	0.161
Mof_H 	H 	0.5313	0.2441	0.2093	0.17
Mof_H 	H 	0.9091	0.2465	0.24	0.166
Mof_H 	H 	0.0671	0.2094	0.2966	0.162
Mof_H 	H 	0.2645	0.5247	0.2768	-0.03
Mof_H 	H 	0.491	0.5231	0.3725	0.117
Mof_H 	H 	0.0355	0.4162	0.457	0.098
Mof_H 	H 	0.8211	0.4203	0.3582	-0.013
Mof_H 	H 	0.3469	0.4601	0.5265	0.08
Mof_H 	H 	0.5288	0.4247	0.4912	0.081
Mof_H 	H 	0.9825	0.6031	0.1371	-0.018
Mof_H 	H 	0.187	0.6123	0.0541	0.099
Mof_H 	H 	0.2996	0.3916	0.0687	0.104
Mof_H 	H 	0.0815	0.3845	0.1493	-0.022
Mof_H 	H 	0.3391	0.4711	0.9606	0.075
Mof_H 	H 	0.381	0.5566	0.9753	0.076
Mof_H 	H 	0.5174	0.709	0.0934	0.083
Mof_H 	H 	0.7335	0.7431	0.0159	0.017
Mof_H 	H 	0.0641	0.7953	0.0472	0.054
Mof_H 	H 	0.183	0.813	0.1573	0.053
Mof_H 	H 	0.1569	0.793	0.2697	0.147
Mof_H 	H 	0.9687	0.7441	0.2907	0.153
Mof_H 	H 	0.5909	0.7465	0.26	0.172
Mof_H 	H 	0.4329	0.7094	0.2034	0.167
Mof_H 	H 	0.2355	0.0247	0.2232	-0.031
Mof_H 	H 	0.009	0.0231	0.1275	0.118
Mof_H 	H 	0.4645	0.9162	0.043	0.1
Mof_H 	H 	0.6789	0.9203	0.1418	-0.016
Mof_H 	H 	0.1531	0.9601	0.9735	0.079
Mof_H 	H 	0.9712	0.9247	0.0088	0.077
Mof_H 	H 	0.5175	0.1031	0.3629	-0.012
Mof_H 	H 	0.313	0.1123	0.4459	0.097
Mof_H 	H 	0.2004	0.8916	0.4313	0.103
Mof_H 	H 	0.4185	0.8845	0.3507	-0.022
Mof_H 	H 	0.1609	0.9711	0.5394	0.076
Mof_H 	H 	0.119	0.0566	0.5247	0.076
Mof_C 	C 	0.4226	0.7289	0.6926	0.095
Mof_C 	C 	0.22	0.7609	0.6736	0.097
Mof_C 	C 	0.1522	0.7703	0.607	-0.115
Mof_C 	C 	0.2816	0.7496	0.5603	-0.022
Mof_C 	C 	0.4779	0.7187	0.5788	-0.018
Mof_C 	C 	0.5484	0.7083	0.6447	-0.118
Mof_C 	C 	0.502	0.7132	0.7641	-0.442
Mof_C 	C 	0.3984	0.6424	0.7874	0.464
Mof_C 	C 	0.0815	0.7889	0.7237	-0.44
Mof_C 	C 	0.1466	0.866	0.7499	0.452
Mof_C 	C 	0.7826	0.4967	0.6862	0.129
Mof_C 	C 	0.6456	0.4977	0.629	-0.207
Mof_C 	C 	0.7095	0.5301	0.5723	0.151
Mof_C 	C 	0.9144	0.561	0.5789	-0.201
Mof_C 	C 	0.043	0.558	0.6383	0.105
Mof_C 	C 	0.5648	0.5318	0.5084	-0.169
Mof_C 	C 	0.9556	0.4404	0.8775	0.112
Mof_C 	C 	0.8328	0.4346	0.9272	-0.204
Mof_C 	C 	0.7372	0.4977	0.9502	0.147
Mof_C 	C 	0.768	0.5649	0.9189	-0.205
Mof_C 	C 	0.8963	0.569	0.8698	0.113
Mof_C 	C 	0.6008	0.4936	0.0057	-0.158
Mof_C 	C 	0.0774	0.2289	0.8074	0.051
Mof_C 	C 	0.28	0.2609	0.8264	0.127
Mof_C 	C 	0.3478	0.2703	0.893	-0.151
Mof_C 	C 	0.2184	0.2496	0.9397	0.023
Mof_C 	C 	0.0221	0.2187	0.9212	-0.077
Mof_C 	C 	0.9516	0.2083	0.8553	-0.063
Mof_C 	C 	0.998	0.2132	0.7359	-0.394
Mof_C 	C 	0.1016	0.1424	0.7126	0.446
Mof_C 	C 	0.4185	0.2889	0.7763	-0.457
Mof_C 	C 	0.3534	0.366	0.7501	0.458
Mof_C 	C 	0.7174	0.9967	0.8138	0.131
Mof_C 	C 	0.8544	0.9977	0.871	-0.209
Mof_C 	C 	0.7905	0.0301	0.9277	0.153
Mof_C 	C 	0.5856	0.061	0.9211	-0.207
Mof_C 	C 	0.457	0.058	0.8617	0.113
Mof_C 	C 	0.9352	0.0318	0.9916	-0.166
Mof_C 	C 	0.5444	0.9404	0.6225	0.103
Mof_C 	C 	0.6672	0.9346	0.5728	-0.198
Mof_C 	C 	0.7628	0.9977	0.5498	0.144
Mof_C 	C 	0.732	0.0649	0.5811	-0.202
Mof_C 	C 	0.6037	0.069	0.6302	0.112
Mof_C 	C 	0.8992	0.9936	0.4943	-0.158
Mof_C 	C 	0.5774	0.2711	0.3074	0.095
Mof_C 	C 	0.78	0.2391	0.3264	0.097
Mof_C 	C 	0.8478	0.2297	0.393	-0.115
Mof_C 	C 	0.7184	0.2504	0.4397	-0.022
Mof_C 	C 	0.5221	0.2813	0.4212	-0.018
Mof_C 	C 	0.4516	0.2917	0.3553	-0.118
Mof_C 	C 	0.498	0.2868	0.2359	-0.442
Mof_C 	C 	0.6016	0.3576	0.2126	0.464
Mof_C 	C 	0.9185	0.2111	0.2763	-0.44
Mof_C 	C 	0.8534	0.134	0.2501	0.452
Mof_C 	C 	0.2174	0.5033	0.3138	0.129
Mof_C 	C 	0.3544	0.5023	0.371	-0.207
Mof_C 	C 	0.2905	0.4699	0.4277	0.151
Mof_C 	C 	0.0856	0.439	0.4211	-0.201
Mof_C 	C 	0.957	0.442	0.3617	0.105
Mof_C 	C 	0.4352	0.4682	0.4916	-0.169
Mof_C 	C 	0.0444	0.5596	0.1225	0.112
Mof_C 	C 	0.1672	0.5654	0.0728	-0.204
Mof_C 	C 	0.2628	0.5023	0.0498	0.147
Mof_C 	C 	0.232	0.4351	0.0811	-0.205
Mof_C 	C 	0.1037	0.431	0.1302	0.113
Mof_C 	C 	0.3992	0.5064	0.9943	-0.158
Mof_C 	C 	0.9226	0.7711	0.1926	0.051
Mof_C 	C 	0.72	0.7391	0.1736	0.127
Mof_C 	C 	0.6522	0.7297	0.107	-0.151
Mof_C 	C 	0.7816	0.7504	0.0603	0.023
Mof_C 	C 	0.9779	0.7813	0.0788	-0.077
Mof_C 	C 	0.0484	0.7917	0.1447	-0.063
Mof_C 	C 	0.002	0.7868	0.2641	-0.394
Mof_C 	C 	0.8984	0.8576	0.2874	0.446
Mof_C 	C 	0.5815	0.7111	0.2237	-0.457
Mof_C 	C 	0.6466	0.634	0.2499	0.458
Mof_C 	C 	0.2826	0.0033	0.1862	0.131
Mof_C 	C 	0.1456	0.0023	0.129	-0.209
Mof_C 	C 	0.2095	0.9699	0.0723	0.153
Mof_C 	C 	0.4144	0.939	0.0789	-0.207
Mof_C 	C 	0.543	0.942	0.1383	0.113
Mof_C 	C 	0.0648	0.9682	0.0084	-0.166
Mof_C 	C 	0.4556	0.0596	0.3775	0.103
Mof_C 	C 	0.3328	0.0654	0.4272	-0.198
Mof_C 	C 	0.2372	0.0023	0.4502	0.144
Mof_C 	C 	0.268	0.9351	0.4189	-0.202
Mof_C 	C 	0.3963	0.931	0.3698	0.112
Mof_C 	C 	0.1008	0.0064	0.5057	-0.158
Mof_N 	N 	0.9811	0.5249	0.6917	-0.28
Mof_N 	N 	0.991	0.5069	0.8486	-0.275
Mof_N 	N 	0.5189	0.0249	0.8083	-0.284
Mof_N 	N 	0.509	0.0069	0.6514	-0.274
Mof_N 	N 	0.0189	0.4751	0.3083	-0.28
Mof_N 	N 	0.009	0.4931	0.1514	-0.275
Mof_N 	N 	0.4811	0.9751	0.1917	-0.284
Mof_N 	N 	0.491	0.9931	0.3486	-0.274
Mof_O 	O 	0.4122	0.5837	0.7552	-0.495
Mof_O 	O 	0.3013	0.6429	0.8343	-0.399
Mof_O 	O 	0.1886	0.9135	0.7072	-0.499
Mof_O 	O 	0.1569	0.8806	0.8093	-0.342
Mof_O 	O 	0.0878	0.0837	0.7448	-0.491
Mof_O 	O 	0.1987	0.1429	0.6657	-0.393
Mof_O 	O 	0.3114	0.4135	0.7928	-0.501
Mof_O 	O 	0.3431	0.3806	0.6907	-0.344
Mof_O 	O 	0.5878	0.4163	0.2448	-0.495
Mof_O 	O 	0.6987	0.3571	0.1657	-0.399
Mof_O 	O 	0.8114	0.0865	0.2928	-0.499
Mof_O 	O 	0.8431	0.1194	0.1907	-0.342
Mof_O 	O 	0.9122	0.9163	0.2552	-0.491
Mof_O 	O 	0.8013	0.8571	0.3343	-0.393
Mof_O 	O 	0.6886	0.5865	0.2072	-0.501
Mof_O 	O 	0.6569	0.6194	0.3093	-0.344
_end
