data_functionalizedCrystal
_audit_creation_method	'EQeq! by Chris Wilmer'
_symmetry_space_group_name_H-M	'P1'
_symmetry_Int_Tables_number	1
_symmetry_cell_setting	triclinic
loop_
_symmetry_equiv_pos_as_xyz
  x,y,z
_cell_length_a	37.441
_cell_length_b	37.449
_cell_length_c	27.25
_cell_angle_alpha	90
_cell_angle_beta	90
_cell_angle_gamma	90
loop_
_atom_site_label
_atom_site_type_symbol
_atom_site_fract_x
_atom_site_fract_y
_atom_site_fract_z
_atom_site_charge
Mof_Cu	Cu	0.00102	0.00335	0.14958	0.902
Mof_Cu	Cu	0.99089	0.99795	0.24613	0.918
Mof_Cu	Cu	0.23856	0.28367	0.03999	0.924
Mof_N 	N 	0.09341	0.30135	0.3418	-0.206
Mof_N 	N 	0.09182	0.19675	0.236	-0.208
Mof_N 	N 	0.19445	0.90888	0.2246	-0.211
Mof_O 	O 	0.0252	0.0476	0.17054	-0.42
Mof_O 	O 	0.04497	0.97601	0.1647	-0.419
Mof_O 	O 	0.26616	0.79492	0.0812	-0.428
Mof_O 	O 	0.20991	0.77551	0.0817	-0.409
Mof_O 	O 	0.03889	0.9757	0.24578	-0.408
Mof_O 	O 	0.01457	0.04553	0.25101	-0.397
Mof_O 	O 	0.4455	0.97811	0.27184	-0.41
Mof_O 	O 	0.23272	0.79443	0.4802	-0.434
Mof_O 	O 	0.28887	0.77646	0.4789	-0.417
Mof_O 	O 	0.45533	0.97111	0.35204	-0.41
Mof_O 	O 	0.20498	0.26665	0.0891	-0.396
Mof_O 	O 	0.22513	0.2102	0.0903	-0.403
Mof_O 	O 	0.02528	0.45707	0.3568	-0.393
Mof_O 	O 	0.0299	0.45143	0.27513	-0.412
Mof_O 	O 	0.22472	0.29159	0.4905	-0.399
Mof_O 	O 	0.20582	0.23482	0.4902	-0.402
Mof_C 	C 	0.07391	0.27466	0.3147	0.249
Mof_C 	C 	0.09156	0.24868	0.2884	-0.323
Mof_H 	H 	0.1164	0.2487	0.2873	0.152
Mof_C 	C 	0.07297	0.22308	0.2639	0.258
Mof_C 	C 	0.07597	0.16252	0.229	0.189
Mof_C 	C 	0.0731	0.1463	0.1843	-0.226
Mof_H 	H 	0.0822	0.1579	0.1568	0.116
Mof_C 	C 	0.0574	0.11355	0.1784	0.128
Mof_H 	H 	0.0556	0.1035	0.1473	0.003
Mof_C 	C 	0.04399	0.09513	0.2189	-0.176
Mof_C 	C 	0.02714	0.06006	0.2129	0.395
Mof_C 	C 	0.05558	0.96924	0.2071	0.408
Mof_C 	C 	0.0908	0.95164	0.2125	-0.193
Mof_C 	C 	0.1101	0.9423	0.172	0.135
Mof_H 	H 	0.0997	0.9453	0.1413	0.002
Mof_C 	C 	0.1445	0.9284	0.1743	-0.228
Mof_H 	H 	0.1575	0.9236	0.1461	0.118
Mof_C 	C 	0.15858	0.9221	0.2212	0.198
Mof_C 	C 	0.21886	0.927	0.2534	0.251
Mof_C 	C 	0.24538	0.9087	0.2797	-0.308
Mof_H 	H 	0.2461	0.8839	0.279	0.147
Mof_C 	C 	0.27	0.9272	0.3063	0.237
Mof_C 	C 	0.2685	0.9644	0.3091	-0.289
Mof_H 	H 	0.2852	0.9769	0.3275	0.138
Mof_C 	C 	0.2425	0.982	0.2848	0.203
Mof_H 	H 	0.2407	0.0067	0.2875	-0.039
Mof_C 	C 	0.2182	0.963	0.2554	-0.294
Mof_H 	H 	0.2014	0.9755	0.237	0.138
Mof_C 	C 	0.2043	0.8802	0.1933	0.183
Mof_C 	C 	0.2376	0.879	0.1728	-0.211
Mof_H 	H 	0.2536	0.8973	0.1801	0.107
Mof_C 	C 	0.2487	0.8521	0.142	0.105
Mof_H 	H 	0.2716	0.852	0.1289	0.009
Mof_C 	C 	0.224	0.824	0.1306	-0.16
Mof_C 	C 	0.2358	0.7958	0.0957	0.399
Mof_C 	C 	0.1899	0.8251	0.1508	0.108
Mof_H 	H 	0.1735	0.8074	0.1431	0.01
Mof_C 	C 	0.1803	0.8527	0.1827	-0.206
Mof_H 	H 	0.1578	0.8528	0.1969	0.109
Mof_C 	C 	0.13975	0.9307	0.2618	-0.239
Mof_H 	H 	0.1495	0.9267	0.2927	0.118
Mof_C 	C 	0.10594	0.9457	0.2575	0.14
Mof_H 	H 	0.0934	0.9518	0.2857	-0.001
Mof_C 	C 	0.43655	0.96824	0.3135	0.39
Mof_C 	C 	0.40094	0.95071	0.3192	-0.175
Mof_C 	C 	0.38809	0.9405	0.3642	0.129
Mof_H 	H 	0.4024	0.9431	0.3919	0.001
Mof_C 	C 	0.35419	0.9266	0.3687	-0.23
Mof_H 	H 	0.3457	0.92	0.3994	0.116
Mof_C 	C 	0.3329	0.9223	0.3281	0.193
Mof_C 	C 	0.34581	0.9323	0.2824	-0.226
Mof_H 	H 	0.3314	0.9296	0.2549	0.114
Mof_C 	C 	0.37909	0.946	0.2775	0.125
Mof_H 	H 	0.3876	0.9523	0.2466	0.005
Mof_N 	N 	0.29766	0.9082	0.3324	-0.208
Mof_C 	C 	0.28929	0.8794	0.3646	0.208
Mof_C 	C 	0.25588	0.8777	0.3876	-0.258
Mof_H 	H 	0.2392	0.8954	0.3809	0.124
Mof_C 	C 	0.2472	0.8525	0.4178	0.16
Mof_H 	H 	0.2243	0.852	0.4311	-0.011
Mof_C 	C 	0.2726	0.8254	0.431	-0.187
Mof_C 	C 	0.2636	0.7966	0.4668	0.423
Mof_C 	C 	0.30616	0.8267	0.4085	0.13
Mof_H 	H 	0.3234	0.8097	0.4161	0.002
Mof_C 	C 	0.3139	0.8538	0.3746	-0.235
Mof_H 	H 	0.3359	0.8541	0.3588	0.118
Mof_C 	C 	0.0486	0.11005	0.2652	0.114
Mof_H 	H 	0.0412	0.0976	0.293	0.008
Mof_C 	C 	0.0644	0.1438	0.2702	-0.212
Mof_H 	H 	0.0672	0.1537	0.3012	0.109
Mof_C 	C 	0.11954	0.20724	0.2043	0.185
Mof_C 	C 	0.1476	0.18339	0.1939	-0.214
Mof_H 	H 	0.1479	0.161	0.2087	0.111
Mof_C 	C 	0.1745	0.19279	0.1623	0.122
Mof_H 	H 	0.1924	0.1765	0.155	0.006
Mof_C 	C 	0.1751	0.2253	0.1418	-0.165
Mof_C 	C 	0.2045	0.2343	0.1045	0.368
Mof_C 	C 	0.1482	0.2494	0.152	0.125
Mof_H 	H 	0.1491	0.2722	0.1383	0.004
Mof_C 	C 	0.1206	0.24055	0.1816	-0.224
Mof_H 	H 	0.1023	0.2568	0.1869	0.113
Mof_C 	C 	0.0364	0.2232	0.2655	-0.312
Mof_H 	H 	0.0234	0.2057	0.2491	0.144
Mof_C 	C 	0.0189	0.2498	0.2917	0.236
Mof_H 	H 	0.9941	0.2502	0.2919	-0.051
Mof_C 	C 	0.0366	0.2745	0.3165	-0.315
Mof_H 	H 	0.0244	0.2915	0.3349	0.146
Mof_C 	C 	0.08075	0.33753	0.3369	0.167
Mof_C 	C 	0.0736	0.35106	0.2897	-0.192
Mof_H 	H 	0.0792	0.3374	0.2622	0.102
Mof_C 	C 	0.0586	0.38445	0.2837	0.098
Mof_H 	H 	0.0533	0.3929	0.2524	0.013
Mof_C 	C 	0.05126	0.40527	0.3244	-0.153
Mof_C 	C 	0.03444	0.44074	0.317	0.379
Mof_C 	C 	0.0592	0.39259	0.3717	0.094
Mof_H 	H 	0.0544	0.4066	0.3991	0.014
Mof_C 	C 	0.0745	0.35848	0.3772	-0.198
Mof_H 	H 	0.0803	0.3501	0.4083	0.104
Mof_C 	C 	0.12078	0.29301	0.3746	0.211
Mof_C 	C 	0.1472	0.31775	0.3864	-0.246
Mof_H 	H 	0.1462	0.3405	0.3729	0.122
Mof_C 	C 	0.1741	0.30925	0.417	0.148
Mof_H 	H 	0.1919	0.3259	0.4234	-0.006
Mof_C 	C 	0.17526	0.27578	0.439	-0.188
Mof_C 	C 	0.2042	0.2668	0.4757	0.378
Mof_C 	C 	0.1506	0.252	0.4279	0.144
Mof_H 	H 	0.1521	0.2292	0.4415	0
Mof_C 	C 	0.1222	0.26006	0.3962	-0.241
Mof_H 	H 	0.1046	0.2432	0.39	0.12
Mof_N 	N 	0.97543	0.98961	0.318	-0.175
Mof_C 	C 	0.9923	0.0004	0.3622	0.069
Mof_H 	H 	0.0131	0.014	0.3646	0.014
Mof_N 	N 	0.972	0.987	0.40206	-0.12
Mof_C 	C 	0.9425	0.9678	0.3825	0.003
Mof_H 	H 	0.9249	0.9562	0.4005	0.035
Mof_C 	C 	0.9446	0.9695	0.3305	0.003
Mof_H 	H 	0.9287	0.9591	0.3085	0.042
Mof_N 	N 	0.2182	0.33785	0.0405	-0.164
Mof_C 	C 	0.1899	0.3502	0.0709	0.065
Mof_H 	H 	0.1805	0.3382	0.0979	0.024
Mof_N 	N 	0.1787	0.3839	0.0529	-0.11
Mof_C 	C 	0.1999	0.3925	0.0114	0.002
Mof_H 	H 	0.1981	0.4131	0.9925	0.037
Mof_C 	C 	0.2243	0.364	0.0037	0.002
Mof_H 	H 	0.2413	0.3627	0.9789	0.04
Mof_C 	C 	0.9881	0.9953	0.4532	0.074
Mof_C 	C 	0.9655	0.9914	0.4905	-0.073
Mof_H 	H 	0.942	0.9851	0.484	0.063
Mof_C 	C 	0.1449	0.4022	0.0751	0.016
Mof_C 	C 	0.0243	0.0037	0.4629	-0.065
Mof_H 	H 	0.0407	0.0058	0.4374	0.058
Mof_Cu	Cu	0.2834	0.76109	0.03072	0.903
Mof_Cu	Cu	0.49898	0.49665	0.14958	0.901
Mof_Cu	Cu	0.50911	0.50205	0.24613	0.917
Mof_Cu	Cu	0.26144	0.21633	0.03999	0.923
Mof_N 	N 	0.40659	0.19865	0.3418	-0.207
Mof_N 	N 	0.40818	0.30325	0.236	-0.209
Mof_N 	N 	0.30555	0.59112	0.2246	-0.212
Mof_O 	O 	0.4748	0.4524	0.17054	-0.421
Mof_O 	O 	0.45503	0.52399	0.1647	-0.42
Mof_O 	O 	0.23384	0.70508	0.0812	-0.429
Mof_O 	O 	0.29009	0.72449	0.0817	-0.41
Mof_O 	O 	0.46111	0.5243	0.24578	-0.409
Mof_O 	O 	0.48543	0.45447	0.25101	-0.398
Mof_O 	O 	0.0545	0.52189	0.27184	-0.411
Mof_O 	O 	0.26728	0.70557	0.4802	-0.435
Mof_O 	O 	0.21113	0.72354	0.4789	-0.418
Mof_O 	O 	0.04467	0.52889	0.35204	-0.411
Mof_O 	O 	0.29502	0.23335	0.0891	-0.397
Mof_O 	O 	0.27487	0.2898	0.0903	-0.404
Mof_O 	O 	0.47472	0.04293	0.3568	-0.394
Mof_O 	O 	0.4701	0.04857	0.27513	-0.413
Mof_O 	O 	0.27528	0.20841	0.4905	-0.4
Mof_O 	O 	0.29418	0.26518	0.4902	-0.403
Mof_C 	C 	0.42609	0.22534	0.3147	0.248
Mof_C 	C 	0.40844	0.25132	0.2884	-0.324
Mof_H 	H 	0.3836	0.2513	0.2873	0.151
Mof_C 	C 	0.42703	0.27692	0.2639	0.257
Mof_C 	C 	0.42403	0.33748	0.229	0.188
Mof_C 	C 	0.4269	0.3537	0.1843	-0.227
Mof_H 	H 	0.4178	0.3421	0.1568	0.115
Mof_C 	C 	0.4426	0.38645	0.1784	0.127
Mof_H 	H 	0.4444	0.3965	0.1473	0.002
Mof_C 	C 	0.45601	0.40487	0.2189	-0.177
Mof_C 	C 	0.47286	0.43994	0.2129	0.394
Mof_C 	C 	0.44442	0.53076	0.2071	0.407
Mof_C 	C 	0.4092	0.54836	0.2125	-0.194
Mof_C 	C 	0.3899	0.5577	0.172	0.134
Mof_H 	H 	0.4003	0.5547	0.1413	0.001
Mof_C 	C 	0.3555	0.5716	0.1743	-0.229
Mof_H 	H 	0.3425	0.5764	0.1461	0.117
Mof_C 	C 	0.34142	0.5779	0.2212	0.197
Mof_C 	C 	0.28114	0.573	0.2534	0.25
Mof_C 	C 	0.25462	0.5913	0.2797	-0.309
Mof_H 	H 	0.2539	0.6161	0.279	0.146
Mof_C 	C 	0.23	0.5728	0.3063	0.236
Mof_C 	C 	0.2315	0.5356	0.3091	-0.29
Mof_H 	H 	0.2148	0.5231	0.3275	0.137
Mof_C 	C 	0.2575	0.518	0.2848	0.202
Mof_H 	H 	0.2593	0.4933	0.2875	-0.04
Mof_C 	C 	0.2818	0.537	0.2554	-0.293
Mof_H 	H 	0.2986	0.5245	0.237	0.138
Mof_C 	C 	0.2957	0.6198	0.1933	0.183
Mof_C 	C 	0.2624	0.621	0.1728	-0.211
Mof_H 	H 	0.2464	0.6027	0.1801	0.107
Mof_C 	C 	0.2513	0.6479	0.142	0.105
Mof_H 	H 	0.2284	0.648	0.1289	0.009
Mof_C 	C 	0.276	0.676	0.1306	-0.16
Mof_C 	C 	0.2642	0.7042	0.0957	0.399
Mof_C 	C 	0.3101	0.6749	0.1508	0.108
Mof_H 	H 	0.3265	0.6926	0.1431	0.01
Mof_C 	C 	0.3197	0.6473	0.1827	-0.206
Mof_H 	H 	0.3422	0.6472	0.1969	0.109
Mof_C 	C 	0.36025	0.5693	0.2618	-0.239
Mof_H 	H 	0.3505	0.5733	0.2927	0.118
Mof_C 	C 	0.39406	0.5543	0.2575	0.14
Mof_H 	H 	0.4066	0.5482	0.2857	-0.001
Mof_C 	C 	0.06345	0.53176	0.3135	0.39
Mof_C 	C 	0.09906	0.54929	0.3192	-0.175
Mof_C 	C 	0.11191	0.5595	0.3642	0.129
Mof_H 	H 	0.0976	0.5569	0.3919	0.001
Mof_C 	C 	0.14581	0.5734	0.3687	-0.23
Mof_H 	H 	0.1543	0.58	0.3994	0.116
Mof_C 	C 	0.1671	0.5777	0.3281	0.193
Mof_C 	C 	0.15419	0.5677	0.2824	-0.226
Mof_H 	H 	0.1686	0.5704	0.2549	0.114
Mof_C 	C 	0.12091	0.554	0.2775	0.125
Mof_H 	H 	0.1124	0.5477	0.2466	0.005
Mof_N 	N 	0.20234	0.5918	0.3324	-0.208
Mof_C 	C 	0.21071	0.6206	0.3646	0.208
Mof_C 	C 	0.24412	0.6223	0.3876	-0.258
Mof_H 	H 	0.2608	0.6046	0.3809	0.124
Mof_C 	C 	0.2528	0.6475	0.4178	0.16
Mof_H 	H 	0.2757	0.648	0.4311	-0.011
Mof_C 	C 	0.2274	0.6746	0.431	-0.187
Mof_C 	C 	0.2364	0.7034	0.4668	0.423
Mof_C 	C 	0.19384	0.6733	0.4085	0.13
Mof_H 	H 	0.1766	0.6903	0.4161	0.002
Mof_C 	C 	0.1861	0.6462	0.3746	-0.235
Mof_H 	H 	0.1641	0.6459	0.3588	0.118
Mof_C 	C 	0.4514	0.38995	0.2652	0.114
Mof_H 	H 	0.4588	0.4024	0.293	0.008
Mof_C 	C 	0.4356	0.3562	0.2702	-0.212
Mof_H 	H 	0.4328	0.3463	0.3012	0.109
Mof_C 	C 	0.38046	0.29276	0.2043	0.185
Mof_C 	C 	0.3524	0.31661	0.1939	-0.214
Mof_H 	H 	0.3521	0.339	0.2087	0.111
Mof_C 	C 	0.3255	0.30721	0.1623	0.122
Mof_H 	H 	0.3076	0.3235	0.155	0.006
Mof_C 	C 	0.3249	0.2747	0.1418	-0.165
Mof_C 	C 	0.2955	0.2657	0.1045	0.368
Mof_C 	C 	0.3518	0.2506	0.152	0.125
Mof_H 	H 	0.3509	0.2278	0.1383	0.004
Mof_C 	C 	0.3794	0.25945	0.1816	-0.224
Mof_H 	H 	0.3977	0.2432	0.1869	0.113
Mof_C 	C 	0.4636	0.2768	0.2655	-0.312
Mof_H 	H 	0.4766	0.2943	0.2491	0.144
Mof_C 	C 	0.4811	0.2502	0.2917	0.236
Mof_H 	H 	0.5059	0.2498	0.2919	-0.051
Mof_C 	C 	0.4634	0.2255	0.3165	-0.316
Mof_H 	H 	0.4756	0.2085	0.3349	0.146
Mof_C 	C 	0.41925	0.16247	0.3369	0.167
Mof_C 	C 	0.4264	0.14894	0.2897	-0.192
Mof_H 	H 	0.4208	0.1626	0.2622	0.102
Mof_C 	C 	0.4414	0.11555	0.2837	0.098
Mof_H 	H 	0.4467	0.1071	0.2524	0.013
Mof_C 	C 	0.44874	0.09473	0.3244	-0.153
Mof_C 	C 	0.46556	0.05926	0.317	0.379
Mof_C 	C 	0.4408	0.10741	0.3717	0.094
Mof_H 	H 	0.4456	0.0934	0.3991	0.014
Mof_C 	C 	0.4255	0.14152	0.3772	-0.198
Mof_H 	H 	0.4197	0.1499	0.4083	0.104
Mof_C 	C 	0.37922	0.20699	0.3746	0.211
Mof_C 	C 	0.3528	0.18225	0.3864	-0.246
Mof_H 	H 	0.3538	0.1595	0.3729	0.122
Mof_C 	C 	0.3259	0.19075	0.417	0.148
Mof_H 	H 	0.3081	0.1741	0.4234	-0.006
Mof_C 	C 	0.32474	0.22422	0.439	-0.188
Mof_C 	C 	0.2958	0.2332	0.4757	0.378
Mof_C 	C 	0.3494	0.248	0.4279	0.144
Mof_H 	H 	0.3479	0.2708	0.4415	0
Mof_C 	C 	0.3778	0.23994	0.3962	-0.241
Mof_H 	H 	0.3954	0.2568	0.39	0.12
Mof_N 	N 	0.52457	0.51039	0.318	-0.175
Mof_C 	C 	0.5077	0.4996	0.3622	0.069
Mof_H 	H 	0.4869	0.486	0.3646	0.015
Mof_N 	N 	0.528	0.513	0.40206	-0.12
Mof_C 	C 	0.5575	0.5322	0.3825	0.003
Mof_H 	H 	0.5751	0.5438	0.4005	0.035
Mof_C 	C 	0.5554	0.5305	0.3305	0.003
Mof_H 	H 	0.5713	0.5409	0.3085	0.042
Mof_N 	N 	0.2818	0.16215	0.0405	-0.164
Mof_C 	C 	0.3101	0.1498	0.0709	0.065
Mof_H 	H 	0.3195	0.1618	0.0979	0.024
Mof_N 	N 	0.3213	0.1161	0.0529	-0.11
Mof_C 	C 	0.3001	0.1075	0.0114	0.002
Mof_H 	H 	0.3019	0.0869	0.9925	0.037
Mof_C 	C 	0.2757	0.136	0.0037	0.002
Mof_H 	H 	0.2587	0.1373	0.9789	0.04
Mof_C 	C 	0.5119	0.5047	0.4532	0.074
Mof_C 	C 	0.5345	0.5086	0.4905	-0.073
Mof_H 	H 	0.558	0.5149	0.484	0.063
Mof_C 	C 	0.3551	0.0978	0.0751	0.016
Mof_C 	C 	0.4757	0.4963	0.4629	-0.065
Mof_H 	H 	0.4593	0.4942	0.4374	0.058
Mof_Cu	Cu	0.2166	0.73891	0.03072	0.903
Mof_Cu	Cu	0.99898	0.50335	0.35042	0.901
Mof_Cu	Cu	0.00911	0.49795	0.25387	0.917
Mof_Cu	Cu	0.76144	0.78367	0.46001	0.923
Mof_N 	N 	0.90659	0.80135	0.1582	-0.207
Mof_N 	N 	0.90818	0.69675	0.264	-0.209
Mof_N 	N 	0.80555	0.40888	0.2754	-0.212
Mof_O 	O 	0.9748	0.5476	0.32946	-0.421
Mof_O 	O 	0.95503	0.47601	0.3353	-0.42
Mof_O 	O 	0.73384	0.29492	0.4188	-0.429
Mof_O 	O 	0.79009	0.27551	0.4183	-0.41
Mof_O 	O 	0.96111	0.4757	0.25422	-0.409
Mof_O 	O 	0.98543	0.54553	0.24899	-0.398
Mof_O 	O 	0.5545	0.47811	0.22816	-0.411
Mof_O 	O 	0.76728	0.29443	0.0198	-0.435
Mof_O 	O 	0.71113	0.27646	0.0211	-0.418
Mof_O 	O 	0.54467	0.47111	0.14796	-0.411
Mof_O 	O 	0.79502	0.76665	0.4109	-0.397
Mof_O 	O 	0.77487	0.7102	0.4097	-0.404
Mof_O 	O 	0.97472	0.95707	0.1432	-0.394
Mof_O 	O 	0.9701	0.95143	0.22487	-0.413
Mof_O 	O 	0.77528	0.79159	0.0095	-0.4
Mof_O 	O 	0.79418	0.73482	0.0098	-0.403
Mof_C 	C 	0.92609	0.77466	0.1853	0.248
Mof_C 	C 	0.90844	0.74868	0.2116	-0.324
Mof_H 	H 	0.8836	0.7487	0.2127	0.151
Mof_C 	C 	0.92703	0.72308	0.2361	0.257
Mof_C 	C 	0.92403	0.66252	0.271	0.188
Mof_C 	C 	0.9269	0.6463	0.3157	-0.227
Mof_H 	H 	0.9178	0.6579	0.3432	0.115
Mof_C 	C 	0.9426	0.61355	0.3216	0.127
Mof_H 	H 	0.9444	0.6035	0.3527	0.002
Mof_C 	C 	0.95601	0.59513	0.2811	-0.177
Mof_C 	C 	0.97286	0.56006	0.2871	0.394
Mof_C 	C 	0.94442	0.46924	0.2929	0.407
Mof_C 	C 	0.9092	0.45164	0.2875	-0.194
Mof_C 	C 	0.8899	0.4423	0.328	0.134
Mof_H 	H 	0.9003	0.4453	0.3587	0.001
Mof_C 	C 	0.8555	0.4284	0.3257	-0.229
Mof_H 	H 	0.8425	0.4236	0.3539	0.117
Mof_C 	C 	0.84142	0.4221	0.2788	0.197
Mof_C 	C 	0.78114	0.427	0.2466	0.25
Mof_C 	C 	0.75462	0.4087	0.2203	-0.309
Mof_H 	H 	0.7539	0.3839	0.221	0.146
Mof_C 	C 	0.73	0.4272	0.1937	0.236
Mof_C 	C 	0.7315	0.4644	0.1909	-0.29
Mof_H 	H 	0.7148	0.4769	0.1725	0.137
Mof_C 	C 	0.7575	0.482	0.2152	0.202
Mof_H 	H 	0.7593	0.5067	0.2125	-0.04
Mof_C 	C 	0.7818	0.463	0.2446	-0.293
Mof_H 	H 	0.7986	0.4755	0.263	0.138
Mof_C 	C 	0.7957	0.3802	0.3067	0.183
Mof_C 	C 	0.7624	0.379	0.3272	-0.211
Mof_H 	H 	0.7464	0.3973	0.3199	0.107
Mof_C 	C 	0.7513	0.3521	0.358	0.105
Mof_H 	H 	0.7284	0.352	0.3711	0.009
Mof_C 	C 	0.776	0.324	0.3694	-0.16
Mof_C 	C 	0.7642	0.2958	0.4043	0.399
Mof_C 	C 	0.8101	0.3251	0.3492	0.108
Mof_H 	H 	0.8265	0.3074	0.3569	0.01
Mof_C 	C 	0.8197	0.3527	0.3173	-0.206
Mof_H 	H 	0.8422	0.3528	0.3031	0.109
Mof_C 	C 	0.86025	0.4307	0.2382	-0.239
Mof_H 	H 	0.8505	0.4267	0.2073	0.118
Mof_C 	C 	0.89406	0.4457	0.2425	0.14
Mof_H 	H 	0.9066	0.4518	0.2143	-0.001
Mof_C 	C 	0.56345	0.46824	0.1865	0.39
Mof_C 	C 	0.59906	0.45071	0.1808	-0.175
Mof_C 	C 	0.61191	0.4405	0.1358	0.129
Mof_H 	H 	0.5976	0.4431	0.1081	0.001
Mof_C 	C 	0.64581	0.4266	0.1313	-0.23
Mof_H 	H 	0.6543	0.42	0.1006	0.116
Mof_C 	C 	0.6671	0.4223	0.1719	0.193
Mof_C 	C 	0.65419	0.4323	0.2176	-0.226
Mof_H 	H 	0.6686	0.4296	0.2451	0.114
Mof_C 	C 	0.62091	0.446	0.2225	0.125
Mof_H 	H 	0.6124	0.4523	0.2534	0.005
Mof_N 	N 	0.70234	0.4082	0.1676	-0.208
Mof_C 	C 	0.71071	0.3794	0.1354	0.208
Mof_C 	C 	0.74412	0.3777	0.1124	-0.258
Mof_H 	H 	0.7608	0.3954	0.1191	0.124
Mof_C 	C 	0.7528	0.3525	0.0822	0.16
Mof_H 	H 	0.7757	0.352	0.0689	-0.011
Mof_C 	C 	0.7274	0.3254	0.069	-0.187
Mof_C 	C 	0.7364	0.2966	0.0332	0.423
Mof_C 	C 	0.69384	0.3267	0.0915	0.13
Mof_H 	H 	0.6766	0.3097	0.0839	0.002
Mof_C 	C 	0.6861	0.3538	0.1254	-0.235
Mof_H 	H 	0.6641	0.3541	0.1412	0.118
Mof_C 	C 	0.9514	0.61005	0.2348	0.114
Mof_H 	H 	0.9588	0.5976	0.207	0.008
Mof_C 	C 	0.9356	0.6438	0.2298	-0.212
Mof_H 	H 	0.9328	0.6537	0.1988	0.109
Mof_C 	C 	0.88046	0.70724	0.2957	0.185
Mof_C 	C 	0.8524	0.68339	0.3061	-0.214
Mof_H 	H 	0.8521	0.661	0.2913	0.111
Mof_C 	C 	0.8255	0.69279	0.3377	0.122
Mof_H 	H 	0.8076	0.6765	0.345	0.006
Mof_C 	C 	0.8249	0.7253	0.3582	-0.165
Mof_C 	C 	0.7955	0.7343	0.3955	0.368
Mof_C 	C 	0.8518	0.7494	0.348	0.125
Mof_H 	H 	0.8509	0.7722	0.3617	0.004
Mof_C 	C 	0.8794	0.74055	0.3184	-0.224
Mof_H 	H 	0.8977	0.7568	0.3131	0.113
Mof_C 	C 	0.9636	0.7232	0.2345	-0.312
Mof_H 	H 	0.9766	0.7057	0.2509	0.144
Mof_C 	C 	0.9811	0.7498	0.2083	0.237
Mof_H 	H 	0.0059	0.7502	0.2081	-0.051
Mof_C 	C 	0.9634	0.7745	0.1835	-0.316
Mof_H 	H 	0.9756	0.7915	0.1651	0.147
Mof_C 	C 	0.91925	0.83753	0.1631	0.167
Mof_C 	C 	0.9264	0.85106	0.2103	-0.192
Mof_H 	H 	0.9208	0.8374	0.2378	0.102
Mof_C 	C 	0.9414	0.88445	0.2163	0.098
Mof_H 	H 	0.9467	0.8929	0.2476	0.013
Mof_C 	C 	0.94874	0.90527	0.1756	-0.153
Mof_C 	C 	0.96556	0.94074	0.183	0.379
Mof_C 	C 	0.9408	0.89259	0.1283	0.094
Mof_H 	H 	0.9456	0.9066	0.1009	0.014
Mof_C 	C 	0.9255	0.85848	0.1228	-0.198
Mof_H 	H 	0.9197	0.8501	0.0917	0.104
Mof_C 	C 	0.87922	0.79301	0.1254	0.211
Mof_C 	C 	0.8528	0.81775	0.1136	-0.246
Mof_H 	H 	0.8538	0.8405	0.1271	0.122
Mof_C 	C 	0.8259	0.80925	0.083	0.148
Mof_H 	H 	0.8081	0.8259	0.0766	-0.006
Mof_C 	C 	0.82474	0.77578	0.061	-0.188
Mof_C 	C 	0.7958	0.7668	0.0243	0.378
Mof_C 	C 	0.8494	0.752	0.0721	0.144
Mof_H 	H 	0.8479	0.7292	0.0585	0
Mof_C 	C 	0.8778	0.76006	0.1038	-0.241
Mof_H 	H 	0.8954	0.7432	0.11	0.12
Mof_N 	N 	0.02457	0.48961	0.182	-0.175
Mof_C 	C 	0.0077	0.5004	0.1378	0.069
Mof_H 	H 	0.9869	0.514	0.1354	0.015
Mof_N 	N 	0.028	0.487	0.09794	-0.12
Mof_C 	C 	0.0575	0.4678	0.1175	0.003
Mof_H 	H 	0.0751	0.4562	0.0995	0.035
Mof_C 	C 	0.0554	0.4695	0.1695	0.003
Mof_H 	H 	0.0713	0.4591	0.1915	0.042
Mof_N 	N 	0.7818	0.83785	0.4595	-0.164
Mof_C 	C 	0.8101	0.8502	0.4291	0.065
Mof_H 	H 	0.8195	0.8382	0.4021	0.024
Mof_N 	N 	0.8213	0.8839	0.4471	-0.11
Mof_C 	C 	0.8001	0.8925	0.4886	0.002
Mof_H 	H 	0.8019	0.9131	0.5075	0.037
Mof_C 	C 	0.7757	0.864	0.4963	0.002
Mof_H 	H 	0.7587	0.8627	0.5211	0.04
Mof_C 	C 	0.0119	0.4953	0.0468	0.074
Mof_C 	C 	0.0345	0.4914	0.0095	-0.074
Mof_H 	H 	0.058	0.4851	0.016	0.064
Mof_C 	C 	0.8551	0.9022	0.4249	0.016
Mof_C 	C 	0.9757	0.5037	0.0371	-0.064
Mof_H 	H 	0.9593	0.5058	0.0626	0.057
Mof_Cu	Cu	0.7166	0.26109	0.46928	0.903
Mof_Cu	Cu	0.50102	0.99665	0.35042	0.901
Mof_Cu	Cu	0.49089	0.00205	0.25387	0.917
Mof_Cu	Cu	0.73856	0.71633	0.46001	0.923
Mof_N 	N 	0.59341	0.69865	0.1582	-0.207
Mof_N 	N 	0.59182	0.80325	0.264	-0.209
Mof_N 	N 	0.69445	0.09112	0.2754	-0.212
Mof_O 	O 	0.5252	0.9524	0.32946	-0.421
Mof_O 	O 	0.54497	0.02399	0.3353	-0.42
Mof_O 	O 	0.76616	0.20508	0.4188	-0.429
Mof_O 	O 	0.70991	0.22449	0.4183	-0.41
Mof_O 	O 	0.53889	0.0243	0.25422	-0.409
Mof_O 	O 	0.51457	0.95447	0.24899	-0.398
Mof_O 	O 	0.9455	0.02189	0.22816	-0.411
Mof_O 	O 	0.73272	0.20557	0.0198	-0.435
Mof_O 	O 	0.78887	0.22354	0.0211	-0.418
Mof_O 	O 	0.95533	0.02889	0.14796	-0.411
Mof_O 	O 	0.70498	0.73335	0.4109	-0.397
Mof_O 	O 	0.72513	0.7898	0.4097	-0.404
Mof_O 	O 	0.52528	0.54293	0.1432	-0.394
Mof_O 	O 	0.5299	0.54857	0.22487	-0.413
Mof_O 	O 	0.72472	0.70841	0.0095	-0.4
Mof_O 	O 	0.70582	0.76518	0.0098	-0.403
Mof_C 	C 	0.57391	0.72534	0.1853	0.248
Mof_C 	C 	0.59156	0.75132	0.2116	-0.324
Mof_H 	H 	0.6164	0.7513	0.2127	0.151
Mof_C 	C 	0.57297	0.77692	0.2361	0.257
Mof_C 	C 	0.57597	0.83748	0.271	0.188
Mof_C 	C 	0.5731	0.8537	0.3157	-0.227
Mof_H 	H 	0.5822	0.8421	0.3432	0.115
Mof_C 	C 	0.5574	0.88645	0.3216	0.127
Mof_H 	H 	0.5556	0.8965	0.3527	0.002
Mof_C 	C 	0.54399	0.90487	0.2811	-0.177
Mof_C 	C 	0.52714	0.93994	0.2871	0.394
Mof_C 	C 	0.55558	0.03076	0.2929	0.407
Mof_C 	C 	0.5908	0.04836	0.2875	-0.194
Mof_C 	C 	0.6101	0.0577	0.328	0.134
Mof_H 	H 	0.5997	0.0547	0.3587	0.001
Mof_C 	C 	0.6445	0.0716	0.3257	-0.229
Mof_H 	H 	0.6575	0.0764	0.3539	0.117
Mof_C 	C 	0.65858	0.0779	0.2788	0.197
Mof_C 	C 	0.71886	0.073	0.2466	0.25
Mof_C 	C 	0.74538	0.0913	0.2203	-0.309
Mof_H 	H 	0.7461	0.1161	0.221	0.146
Mof_C 	C 	0.77	0.0728	0.1937	0.236
Mof_C 	C 	0.7685	0.0356	0.1909	-0.29
Mof_H 	H 	0.7852	0.0231	0.1725	0.137
Mof_C 	C 	0.7425	0.018	0.2152	0.202
Mof_H 	H 	0.7407	0.9933	0.2125	-0.04
Mof_C 	C 	0.7182	0.037	0.2446	-0.294
Mof_H 	H 	0.7014	0.0245	0.263	0.138
Mof_C 	C 	0.7043	0.1198	0.3067	0.183
Mof_C 	C 	0.7376	0.121	0.3272	-0.211
Mof_H 	H 	0.7536	0.1027	0.3199	0.107
Mof_C 	C 	0.7487	0.1479	0.358	0.105
Mof_H 	H 	0.7716	0.148	0.3711	0.009
Mof_C 	C 	0.724	0.176	0.3694	-0.16
Mof_C 	C 	0.7358	0.2042	0.4043	0.399
Mof_C 	C 	0.6899	0.1749	0.3492	0.108
Mof_H 	H 	0.6735	0.1926	0.3569	0.01
Mof_C 	C 	0.6803	0.1473	0.3173	-0.206
Mof_H 	H 	0.6578	0.1472	0.3031	0.109
Mof_C 	C 	0.63975	0.0693	0.2382	-0.239
Mof_H 	H 	0.6495	0.0733	0.2073	0.118
Mof_C 	C 	0.60594	0.0543	0.2425	0.14
Mof_H 	H 	0.5934	0.0482	0.2143	-0.001
Mof_C 	C 	0.93655	0.03176	0.1865	0.39
Mof_C 	C 	0.90094	0.04929	0.1808	-0.175
Mof_C 	C 	0.88809	0.0595	0.1358	0.129
Mof_H 	H 	0.9024	0.0569	0.1081	0.001
Mof_C 	C 	0.85419	0.0734	0.1313	-0.23
Mof_H 	H 	0.8457	0.08	0.1006	0.116
Mof_C 	C 	0.8329	0.0777	0.1719	0.193
Mof_C 	C 	0.84581	0.0677	0.2176	-0.226
Mof_H 	H 	0.8314	0.0704	0.2451	0.114
Mof_C 	C 	0.87909	0.054	0.2225	0.125
Mof_H 	H 	0.8876	0.0477	0.2534	0.005
Mof_N 	N 	0.79766	0.0918	0.1676	-0.208
Mof_C 	C 	0.78929	0.1206	0.1354	0.208
Mof_C 	C 	0.75588	0.1223	0.1124	-0.258
Mof_H 	H 	0.7392	0.1046	0.1191	0.124
Mof_C 	C 	0.7472	0.1475	0.0822	0.16
Mof_H 	H 	0.7243	0.148	0.0689	-0.011
Mof_C 	C 	0.7726	0.1746	0.069	-0.187
Mof_C 	C 	0.7636	0.2034	0.0332	0.423
Mof_C 	C 	0.80616	0.1733	0.0915	0.13
Mof_H 	H 	0.8234	0.1903	0.0839	0.002
Mof_C 	C 	0.8139	0.1462	0.1254	-0.235
Mof_H 	H 	0.8359	0.1459	0.1412	0.118
Mof_C 	C 	0.5486	0.88995	0.2348	0.114
Mof_H 	H 	0.5412	0.9024	0.207	0.008
Mof_C 	C 	0.5644	0.8562	0.2298	-0.212
Mof_H 	H 	0.5672	0.8463	0.1988	0.109
Mof_C 	C 	0.61954	0.79276	0.2957	0.185
Mof_C 	C 	0.6476	0.81661	0.3061	-0.214
Mof_H 	H 	0.6479	0.839	0.2913	0.111
Mof_C 	C 	0.6745	0.80721	0.3377	0.122
Mof_H 	H 	0.6924	0.8235	0.345	0.006
Mof_C 	C 	0.6751	0.7747	0.3582	-0.165
Mof_C 	C 	0.7045	0.7657	0.3955	0.368
Mof_C 	C 	0.6482	0.7506	0.348	0.125
Mof_H 	H 	0.6491	0.7278	0.3617	0.004
Mof_C 	C 	0.6206	0.75945	0.3184	-0.224
Mof_H 	H 	0.6023	0.7432	0.3131	0.113
Mof_C 	C 	0.5364	0.7768	0.2345	-0.312
Mof_H 	H 	0.5234	0.7943	0.2509	0.144
Mof_C 	C 	0.5189	0.7502	0.2083	0.236
Mof_H 	H 	0.4941	0.7498	0.2081	-0.051
Mof_C 	C 	0.5366	0.7255	0.1835	-0.316
Mof_H 	H 	0.5244	0.7085	0.1651	0.146
Mof_C 	C 	0.58075	0.66247	0.1631	0.167
Mof_C 	C 	0.5736	0.64894	0.2103	-0.192
Mof_H 	H 	0.5792	0.6626	0.2378	0.102
Mof_C 	C 	0.5586	0.61555	0.2163	0.098
Mof_H 	H 	0.5533	0.6071	0.2476	0.013
Mof_C 	C 	0.55126	0.59473	0.1756	-0.153
Mof_C 	C 	0.53444	0.55926	0.183	0.379
Mof_C 	C 	0.5592	0.60741	0.1283	0.094
Mof_H 	H 	0.5544	0.5934	0.1009	0.014
Mof_C 	C 	0.5745	0.64152	0.1228	-0.198
Mof_H 	H 	0.5803	0.6499	0.0917	0.104
Mof_C 	C 	0.62078	0.70699	0.1254	0.211
Mof_C 	C 	0.6472	0.68225	0.1136	-0.246
Mof_H 	H 	0.6462	0.6595	0.1271	0.122
Mof_C 	C 	0.6741	0.69075	0.083	0.148
Mof_H 	H 	0.6919	0.6741	0.0766	-0.006
Mof_C 	C 	0.67526	0.72422	0.061	-0.188
Mof_C 	C 	0.7042	0.7332	0.0243	0.378
Mof_C 	C 	0.6506	0.748	0.0721	0.144
Mof_H 	H 	0.6521	0.7708	0.0585	0
Mof_C 	C 	0.6222	0.73994	0.1038	-0.241
Mof_H 	H 	0.6046	0.7568	0.11	0.12
Mof_N 	N 	0.47543	0.01039	0.182	-0.175
Mof_C 	C 	0.4923	0.9996	0.1378	0.069
Mof_H 	H 	0.5131	0.986	0.1354	0.015
Mof_N 	N 	0.472	0.013	0.09794	-0.12
Mof_C 	C 	0.4425	0.0322	0.1175	0.003
Mof_H 	H 	0.4249	0.0438	0.0995	0.035
Mof_C 	C 	0.4446	0.0305	0.1695	0.003
Mof_H 	H 	0.4287	0.0409	0.1915	0.042
Mof_N 	N 	0.7182	0.66215	0.4595	-0.164
Mof_C 	C 	0.6899	0.6498	0.4291	0.065
Mof_H 	H 	0.6805	0.6618	0.4021	0.024
Mof_N 	N 	0.6787	0.6161	0.4471	-0.11
Mof_C 	C 	0.6999	0.6075	0.4886	0.002
Mof_H 	H 	0.6981	0.5869	0.5075	0.037
Mof_C 	C 	0.7243	0.636	0.4963	0.002
Mof_H 	H 	0.7413	0.6373	0.5211	0.04
Mof_C 	C 	0.4881	0.0047	0.0468	0.074
Mof_C 	C 	0.4655	0.0086	0.0095	-0.073
Mof_H 	H 	0.442	0.0149	0.016	0.063
Mof_C 	C 	0.6449	0.5978	0.4249	0.016
Mof_C 	C 	0.5243	0.9963	0.0371	-0.065
Mof_H 	H 	0.5407	0.9942	0.0626	0.058
Mof_Cu	Cu	0.7834	0.23891	0.46928	0.903
Mof_Cu	Cu	0.99898	0.99665	0.85042	0.901
Mof_Cu	Cu	0.00911	0.00205	0.75387	0.917
Mof_Cu	Cu	0.76144	0.71633	0.96001	0.923
Mof_N 	N 	0.90659	0.69865	0.6582	-0.207
Mof_N 	N 	0.90818	0.80325	0.764	-0.209
Mof_N 	N 	0.80555	0.09112	0.7754	-0.212
Mof_O 	O 	0.9748	0.9524	0.82946	-0.421
Mof_O 	O 	0.95503	0.02399	0.8353	-0.42
Mof_O 	O 	0.73384	0.20508	0.9188	-0.429
Mof_O 	O 	0.79009	0.22449	0.9183	-0.41
Mof_O 	O 	0.96111	0.0243	0.75422	-0.409
Mof_O 	O 	0.98543	0.95447	0.74899	-0.398
Mof_O 	O 	0.5545	0.02189	0.72816	-0.411
Mof_O 	O 	0.76728	0.20557	0.5198	-0.435
Mof_O 	O 	0.71113	0.22354	0.5211	-0.418
Mof_O 	O 	0.54467	0.02889	0.64796	-0.411
Mof_O 	O 	0.79502	0.73335	0.9109	-0.397
Mof_O 	O 	0.77487	0.7898	0.9097	-0.404
Mof_O 	O 	0.97472	0.54293	0.6432	-0.394
Mof_O 	O 	0.9701	0.54857	0.72487	-0.413
Mof_O 	O 	0.77528	0.70841	0.5095	-0.4
Mof_O 	O 	0.79418	0.76518	0.5098	-0.403
Mof_C 	C 	0.92609	0.72534	0.6853	0.248
Mof_C 	C 	0.90844	0.75132	0.7116	-0.324
Mof_H 	H 	0.8836	0.7513	0.7127	0.151
Mof_C 	C 	0.92703	0.77692	0.7361	0.257
Mof_C 	C 	0.92403	0.83748	0.771	0.188
Mof_C 	C 	0.9269	0.8537	0.8157	-0.227
Mof_H 	H 	0.9178	0.8421	0.8432	0.115
Mof_C 	C 	0.9426	0.88645	0.8216	0.127
Mof_H 	H 	0.9444	0.8965	0.8527	0.002
Mof_C 	C 	0.95601	0.90487	0.7811	-0.177
Mof_C 	C 	0.97286	0.93994	0.7871	0.394
Mof_C 	C 	0.94442	0.03076	0.7929	0.407
Mof_C 	C 	0.9092	0.04836	0.7875	-0.194
Mof_C 	C 	0.8899	0.0577	0.828	0.134
Mof_H 	H 	0.9003	0.0547	0.8587	0.001
Mof_C 	C 	0.8555	0.0716	0.8257	-0.229
Mof_H 	H 	0.8425	0.0764	0.8539	0.117
Mof_C 	C 	0.84142	0.0779	0.7788	0.197
Mof_C 	C 	0.78114	0.073	0.7466	0.25
Mof_C 	C 	0.75462	0.0913	0.7203	-0.309
Mof_H 	H 	0.7539	0.1161	0.721	0.146
Mof_C 	C 	0.73	0.0728	0.6937	0.236
Mof_C 	C 	0.7315	0.0356	0.6909	-0.29
Mof_H 	H 	0.7148	0.0231	0.6725	0.137
Mof_C 	C 	0.7575	0.018	0.7152	0.202
Mof_H 	H 	0.7593	0.9933	0.7125	-0.04
Mof_C 	C 	0.7818	0.037	0.7446	-0.294
Mof_H 	H 	0.7986	0.0245	0.763	0.138
Mof_C 	C 	0.7957	0.1198	0.8067	0.183
Mof_C 	C 	0.7624	0.121	0.8272	-0.211
Mof_H 	H 	0.7464	0.1027	0.8199	0.107
Mof_C 	C 	0.7513	0.1479	0.858	0.105
Mof_H 	H 	0.7284	0.148	0.8711	0.009
Mof_C 	C 	0.776	0.176	0.8694	-0.16
Mof_C 	C 	0.7642	0.2042	0.9043	0.399
Mof_C 	C 	0.8101	0.1749	0.8492	0.108
Mof_H 	H 	0.8265	0.1926	0.8569	0.01
Mof_C 	C 	0.8197	0.1473	0.8173	-0.206
Mof_H 	H 	0.8422	0.1472	0.8031	0.109
Mof_C 	C 	0.86025	0.0693	0.7382	-0.239
Mof_H 	H 	0.8505	0.0733	0.7073	0.118
Mof_C 	C 	0.89406	0.0543	0.7425	0.14
Mof_H 	H 	0.9066	0.0482	0.7143	-0.001
Mof_C 	C 	0.56345	0.03176	0.6865	0.39
Mof_C 	C 	0.59906	0.04929	0.6808	-0.175
Mof_C 	C 	0.61191	0.0595	0.6358	0.129
Mof_H 	H 	0.5976	0.0569	0.6081	0.001
Mof_C 	C 	0.64581	0.0734	0.6313	-0.23
Mof_H 	H 	0.6543	0.08	0.6006	0.116
Mof_C 	C 	0.6671	0.0777	0.6719	0.193
Mof_C 	C 	0.65419	0.0677	0.7176	-0.226
Mof_H 	H 	0.6686	0.0704	0.7451	0.114
Mof_C 	C 	0.62091	0.054	0.7225	0.125
Mof_H 	H 	0.6124	0.0477	0.7534	0.005
Mof_N 	N 	0.70234	0.0918	0.6676	-0.208
Mof_C 	C 	0.71071	0.1206	0.6354	0.208
Mof_C 	C 	0.74412	0.1223	0.6124	-0.258
Mof_H 	H 	0.7608	0.1046	0.6191	0.124
Mof_C 	C 	0.7528	0.1475	0.5822	0.16
Mof_H 	H 	0.7757	0.148	0.5689	-0.011
Mof_C 	C 	0.7274	0.1746	0.569	-0.187
Mof_C 	C 	0.7364	0.2034	0.5332	0.423
Mof_C 	C 	0.69384	0.1733	0.5915	0.13
Mof_H 	H 	0.6766	0.1903	0.5839	0.002
Mof_C 	C 	0.6861	0.1462	0.6254	-0.235
Mof_H 	H 	0.6641	0.1459	0.6412	0.118
Mof_C 	C 	0.9514	0.88995	0.7348	0.114
Mof_H 	H 	0.9588	0.9024	0.707	0.008
Mof_C 	C 	0.9356	0.8562	0.7298	-0.212
Mof_H 	H 	0.9328	0.8463	0.6988	0.109
Mof_C 	C 	0.88046	0.79276	0.7957	0.185
Mof_C 	C 	0.8524	0.81661	0.8061	-0.214
Mof_H 	H 	0.8521	0.839	0.7913	0.111
Mof_C 	C 	0.8255	0.80721	0.8377	0.122
Mof_H 	H 	0.8076	0.8235	0.845	0.006
Mof_C 	C 	0.8249	0.7747	0.8582	-0.165
Mof_C 	C 	0.7955	0.7657	0.8955	0.368
Mof_C 	C 	0.8518	0.7506	0.848	0.125
Mof_H 	H 	0.8509	0.7278	0.8617	0.004
Mof_C 	C 	0.8794	0.75945	0.8184	-0.224
Mof_H 	H 	0.8977	0.7432	0.8131	0.113
Mof_C 	C 	0.9636	0.7768	0.7345	-0.312
Mof_H 	H 	0.9766	0.7943	0.7509	0.144
Mof_C 	C 	0.9811	0.7502	0.7083	0.236
Mof_H 	H 	0.0059	0.7498	0.7081	-0.051
Mof_C 	C 	0.9634	0.7255	0.6835	-0.315
Mof_H 	H 	0.9756	0.7085	0.6651	0.146
Mof_C 	C 	0.91925	0.66247	0.6631	0.167
Mof_C 	C 	0.9264	0.64894	0.7103	-0.192
Mof_H 	H 	0.9208	0.6626	0.7378	0.102
Mof_C 	C 	0.9414	0.61555	0.7163	0.098
Mof_H 	H 	0.9467	0.6071	0.7476	0.013
Mof_C 	C 	0.94874	0.59473	0.6756	-0.153
Mof_C 	C 	0.96556	0.55926	0.683	0.379
Mof_C 	C 	0.9408	0.60741	0.6283	0.094
Mof_H 	H 	0.9456	0.5934	0.6009	0.014
Mof_C 	C 	0.9255	0.64152	0.6228	-0.198
Mof_H 	H 	0.9197	0.6499	0.5917	0.104
Mof_C 	C 	0.87922	0.70699	0.6254	0.211
Mof_C 	C 	0.8528	0.68225	0.6136	-0.246
Mof_H 	H 	0.8538	0.6595	0.6271	0.122
Mof_C 	C 	0.8259	0.69075	0.583	0.148
Mof_H 	H 	0.8081	0.6741	0.5766	-0.006
Mof_C 	C 	0.82474	0.72422	0.561	-0.188
Mof_C 	C 	0.7958	0.7332	0.5243	0.378
Mof_C 	C 	0.8494	0.748	0.5721	0.144
Mof_H 	H 	0.8479	0.7708	0.5585	0
Mof_C 	C 	0.8778	0.73994	0.6038	-0.241
Mof_H 	H 	0.8954	0.7568	0.61	0.12
Mof_N 	N 	0.02457	0.01039	0.682	-0.175
Mof_C 	C 	0.0077	0.9996	0.6378	0.069
Mof_H 	H 	0.9869	0.986	0.6354	0.014
Mof_N 	N 	0.028	0.013	0.59794	-0.12
Mof_C 	C 	0.0575	0.0322	0.6175	0.003
Mof_H 	H 	0.0751	0.0438	0.5995	0.035
Mof_C 	C 	0.0554	0.0305	0.6695	0.003
Mof_H 	H 	0.0713	0.0409	0.6915	0.042
Mof_N 	N 	0.7818	0.66215	0.9595	-0.164
Mof_C 	C 	0.8101	0.6498	0.9291	0.065
Mof_H 	H 	0.8195	0.6618	0.9021	0.024
Mof_N 	N 	0.8213	0.6161	0.9471	-0.11
Mof_C 	C 	0.8001	0.6075	0.9886	0.002
Mof_H 	H 	0.8019	0.5869	0.0075	0.037
Mof_C 	C 	0.7757	0.636	0.9963	0.002
Mof_H 	H 	0.7587	0.6373	0.0211	0.04
Mof_C 	C 	0.0119	0.0047	0.5468	0.074
Mof_C 	C 	0.0345	0.0086	0.5095	-0.073
Mof_H 	H 	0.058	0.0149	0.516	0.063
Mof_C 	C 	0.8551	0.5978	0.9249	0.016
Mof_C 	C 	0.9757	0.9963	0.5371	-0.065
Mof_H 	H 	0.9593	0.9942	0.5626	0.058
Mof_Cu	Cu	0.7166	0.23891	0.96928	0.903
Mof_Cu	Cu	0.50102	0.50335	0.85042	0.901
Mof_Cu	Cu	0.49089	0.49795	0.75387	0.917
Mof_Cu	Cu	0.73856	0.78367	0.96001	0.923
Mof_N 	N 	0.59341	0.80135	0.6582	-0.207
Mof_N 	N 	0.59182	0.69675	0.764	-0.209
Mof_N 	N 	0.69445	0.40888	0.7754	-0.212
Mof_O 	O 	0.5252	0.5476	0.82946	-0.421
Mof_O 	O 	0.54497	0.47601	0.8353	-0.42
Mof_O 	O 	0.76616	0.29492	0.9188	-0.429
Mof_O 	O 	0.70991	0.27551	0.9183	-0.41
Mof_O 	O 	0.53889	0.4757	0.75422	-0.409
Mof_O 	O 	0.51457	0.54553	0.74899	-0.398
Mof_O 	O 	0.9455	0.47811	0.72816	-0.411
Mof_O 	O 	0.73272	0.29443	0.5198	-0.435
Mof_O 	O 	0.78887	0.27646	0.5211	-0.418
Mof_O 	O 	0.95533	0.47111	0.64796	-0.411
Mof_O 	O 	0.70498	0.76665	0.9109	-0.397
Mof_O 	O 	0.72513	0.7102	0.9097	-0.404
Mof_O 	O 	0.52528	0.95707	0.6432	-0.394
Mof_O 	O 	0.5299	0.95143	0.72487	-0.413
Mof_O 	O 	0.72472	0.79159	0.5095	-0.4
Mof_O 	O 	0.70582	0.73482	0.5098	-0.403
Mof_C 	C 	0.57391	0.77466	0.6853	0.248
Mof_C 	C 	0.59156	0.74868	0.7116	-0.324
Mof_H 	H 	0.6164	0.7487	0.7127	0.151
Mof_C 	C 	0.57297	0.72308	0.7361	0.257
Mof_C 	C 	0.57597	0.66252	0.771	0.188
Mof_C 	C 	0.5731	0.6463	0.8157	-0.227
Mof_H 	H 	0.5822	0.6579	0.8432	0.115
Mof_C 	C 	0.5574	0.61355	0.8216	0.127
Mof_H 	H 	0.5556	0.6035	0.8527	0.002
Mof_C 	C 	0.54399	0.59513	0.7811	-0.177
Mof_C 	C 	0.52714	0.56006	0.7871	0.394
Mof_C 	C 	0.55558	0.46924	0.7929	0.407
Mof_C 	C 	0.5908	0.45164	0.7875	-0.194
Mof_C 	C 	0.6101	0.4423	0.828	0.134
Mof_H 	H 	0.5997	0.4453	0.8587	0.001
Mof_C 	C 	0.6445	0.4284	0.8257	-0.229
Mof_H 	H 	0.6575	0.4236	0.8539	0.117
Mof_C 	C 	0.65858	0.4221	0.7788	0.197
Mof_C 	C 	0.71886	0.427	0.7466	0.25
Mof_C 	C 	0.74538	0.4087	0.7203	-0.309
Mof_H 	H 	0.7461	0.3839	0.721	0.146
Mof_C 	C 	0.77	0.4272	0.6937	0.236
Mof_C 	C 	0.7685	0.4644	0.6909	-0.29
Mof_H 	H 	0.7852	0.4769	0.6725	0.137
Mof_C 	C 	0.7425	0.482	0.7152	0.202
Mof_H 	H 	0.7407	0.5067	0.7125	-0.04
Mof_C 	C 	0.7182	0.463	0.7446	-0.293
Mof_H 	H 	0.7014	0.4755	0.763	0.138
Mof_C 	C 	0.7043	0.3802	0.8067	0.183
Mof_C 	C 	0.7376	0.379	0.8272	-0.211
Mof_H 	H 	0.7536	0.3973	0.8199	0.107
Mof_C 	C 	0.7487	0.3521	0.858	0.105
Mof_H 	H 	0.7716	0.352	0.8711	0.009
Mof_C 	C 	0.724	0.324	0.8694	-0.16
Mof_C 	C 	0.7358	0.2958	0.9043	0.399
Mof_C 	C 	0.6899	0.3251	0.8492	0.108
Mof_H 	H 	0.6735	0.3074	0.8569	0.01
Mof_C 	C 	0.6803	0.3527	0.8173	-0.206
Mof_H 	H 	0.6578	0.3528	0.8031	0.109
Mof_C 	C 	0.63975	0.4307	0.7382	-0.239
Mof_H 	H 	0.6495	0.4267	0.7073	0.118
Mof_C 	C 	0.60594	0.4457	0.7425	0.14
Mof_H 	H 	0.5934	0.4518	0.7143	-0.001
Mof_C 	C 	0.93655	0.46824	0.6865	0.39
Mof_C 	C 	0.90094	0.45071	0.6808	-0.175
Mof_C 	C 	0.88809	0.4405	0.6358	0.129
Mof_H 	H 	0.9024	0.4431	0.6081	0.001
Mof_C 	C 	0.85419	0.4266	0.6313	-0.23
Mof_H 	H 	0.8457	0.42	0.6006	0.116
Mof_C 	C 	0.8329	0.4223	0.6719	0.193
Mof_C 	C 	0.84581	0.4323	0.7176	-0.226
Mof_H 	H 	0.8314	0.4296	0.7451	0.114
Mof_C 	C 	0.87909	0.446	0.7225	0.125
Mof_H 	H 	0.8876	0.4523	0.7534	0.005
Mof_N 	N 	0.79766	0.4082	0.6676	-0.208
Mof_C 	C 	0.78929	0.3794	0.6354	0.208
Mof_C 	C 	0.75588	0.3777	0.6124	-0.258
Mof_H 	H 	0.7392	0.3954	0.6191	0.124
Mof_C 	C 	0.7472	0.3525	0.5822	0.16
Mof_H 	H 	0.7243	0.352	0.5689	-0.011
Mof_C 	C 	0.7726	0.3254	0.569	-0.187
Mof_C 	C 	0.7636	0.2966	0.5332	0.423
Mof_C 	C 	0.80616	0.3267	0.5915	0.13
Mof_H 	H 	0.8234	0.3097	0.5839	0.002
Mof_C 	C 	0.8139	0.3538	0.6254	-0.235
Mof_H 	H 	0.8359	0.3541	0.6412	0.118
Mof_C 	C 	0.5486	0.61005	0.7348	0.114
Mof_H 	H 	0.5412	0.5976	0.707	0.008
Mof_C 	C 	0.5644	0.6438	0.7298	-0.212
Mof_H 	H 	0.5672	0.6537	0.6988	0.109
Mof_C 	C 	0.61954	0.70724	0.7957	0.185
Mof_C 	C 	0.6476	0.68339	0.8061	-0.214
Mof_H 	H 	0.6479	0.661	0.7913	0.111
Mof_C 	C 	0.6745	0.69279	0.8377	0.122
Mof_H 	H 	0.6924	0.6765	0.845	0.006
Mof_C 	C 	0.6751	0.7253	0.8582	-0.165
Mof_C 	C 	0.7045	0.7343	0.8955	0.368
Mof_C 	C 	0.6482	0.7494	0.848	0.125
Mof_H 	H 	0.6491	0.7722	0.8617	0.004
Mof_C 	C 	0.6206	0.74055	0.8184	-0.224
Mof_H 	H 	0.6023	0.7568	0.8131	0.113
Mof_C 	C 	0.5364	0.7232	0.7345	-0.312
Mof_H 	H 	0.5234	0.7057	0.7509	0.144
Mof_C 	C 	0.5189	0.7498	0.7083	0.236
Mof_H 	H 	0.4941	0.7502	0.7081	-0.051
Mof_C 	C 	0.5366	0.7745	0.6835	-0.316
Mof_H 	H 	0.5244	0.7915	0.6651	0.146
Mof_C 	C 	0.58075	0.83753	0.6631	0.167
Mof_C 	C 	0.5736	0.85106	0.7103	-0.192
Mof_H 	H 	0.5792	0.8374	0.7378	0.102
Mof_C 	C 	0.5586	0.88445	0.7163	0.098
Mof_H 	H 	0.5533	0.8929	0.7476	0.013
Mof_C 	C 	0.55126	0.90527	0.6756	-0.153
Mof_C 	C 	0.53444	0.94074	0.683	0.379
Mof_C 	C 	0.5592	0.89259	0.6283	0.094
Mof_H 	H 	0.5544	0.9066	0.6009	0.014
Mof_C 	C 	0.5745	0.85848	0.6228	-0.198
Mof_H 	H 	0.5803	0.8501	0.5917	0.104
Mof_C 	C 	0.62078	0.79301	0.6254	0.211
Mof_C 	C 	0.6472	0.81775	0.6136	-0.246
Mof_H 	H 	0.6462	0.8405	0.6271	0.122
Mof_C 	C 	0.6741	0.80925	0.583	0.148
Mof_H 	H 	0.6919	0.8259	0.5766	-0.006
Mof_C 	C 	0.67526	0.77578	0.561	-0.188
Mof_C 	C 	0.7042	0.7668	0.5243	0.378
Mof_C 	C 	0.6506	0.752	0.5721	0.144
Mof_H 	H 	0.6521	0.7292	0.5585	0
Mof_C 	C 	0.6222	0.76006	0.6038	-0.241
Mof_H 	H 	0.6046	0.7432	0.61	0.12
Mof_N 	N 	0.47543	0.48961	0.682	-0.175
Mof_C 	C 	0.4923	0.5004	0.6378	0.069
Mof_H 	H 	0.5131	0.514	0.6354	0.015
Mof_N 	N 	0.472	0.487	0.59794	-0.12
Mof_C 	C 	0.4425	0.4678	0.6175	0.003
Mof_H 	H 	0.4249	0.4562	0.5995	0.035
Mof_C 	C 	0.4446	0.4695	0.6695	0.003
Mof_H 	H 	0.4287	0.4591	0.6915	0.042
Mof_N 	N 	0.7182	0.83785	0.9595	-0.164
Mof_C 	C 	0.6899	0.8502	0.9291	0.065
Mof_H 	H 	0.6805	0.8382	0.9021	0.024
Mof_N 	N 	0.6787	0.8839	0.9471	-0.11
Mof_C 	C 	0.6999	0.8925	0.9886	0.002
Mof_H 	H 	0.6981	0.9131	0.0075	0.037
Mof_C 	C 	0.7243	0.864	0.9963	0.002
Mof_H 	H 	0.7413	0.8627	0.0211	0.04
Mof_C 	C 	0.4881	0.4953	0.5468	0.074
Mof_C 	C 	0.4655	0.4914	0.5095	-0.073
Mof_H 	H 	0.442	0.4851	0.516	0.063
Mof_C 	C 	0.6449	0.9022	0.9249	0.016
Mof_C 	C 	0.5243	0.5037	0.5371	-0.065
Mof_H 	H 	0.5407	0.5058	0.5626	0.058
Mof_Cu	Cu	0.7834	0.26109	0.96928	0.903
Mof_Cu	Cu	0.00102	0.49665	0.64958	0.901
Mof_Cu	Cu	0.99089	0.50205	0.74613	0.917
Mof_Cu	Cu	0.23856	0.21633	0.53999	0.923
Mof_N 	N 	0.09341	0.19865	0.8418	-0.207
Mof_N 	N 	0.09182	0.30325	0.736	-0.209
Mof_N 	N 	0.19445	0.59112	0.7246	-0.212
Mof_O 	O 	0.0252	0.4524	0.67054	-0.421
Mof_O 	O 	0.04497	0.52399	0.6647	-0.42
Mof_O 	O 	0.26616	0.70508	0.5812	-0.429
Mof_O 	O 	0.20991	0.72449	0.5817	-0.41
Mof_O 	O 	0.03889	0.5243	0.74578	-0.409
Mof_O 	O 	0.01457	0.45447	0.75101	-0.398
Mof_O 	O 	0.4455	0.52189	0.77184	-0.411
Mof_O 	O 	0.23272	0.70557	0.9802	-0.435
Mof_O 	O 	0.28887	0.72354	0.9789	-0.418
Mof_O 	O 	0.45533	0.52889	0.85204	-0.411
Mof_O 	O 	0.20498	0.23335	0.5891	-0.397
Mof_O 	O 	0.22513	0.2898	0.5903	-0.404
Mof_O 	O 	0.02528	0.04293	0.8568	-0.394
Mof_O 	O 	0.0299	0.04857	0.77513	-0.413
Mof_O 	O 	0.22472	0.20841	0.9905	-0.4
Mof_O 	O 	0.20582	0.26518	0.9902	-0.403
Mof_C 	C 	0.07391	0.22534	0.8147	0.248
Mof_C 	C 	0.09156	0.25132	0.7884	-0.324
Mof_H 	H 	0.1164	0.2513	0.7873	0.151
Mof_C 	C 	0.07297	0.27692	0.7639	0.257
Mof_C 	C 	0.07597	0.33748	0.729	0.188
Mof_C 	C 	0.0731	0.3537	0.6843	-0.227
Mof_H 	H 	0.0822	0.3421	0.6568	0.115
Mof_C 	C 	0.0574	0.38645	0.6784	0.127
Mof_H 	H 	0.0556	0.3965	0.6473	0.002
Mof_C 	C 	0.04399	0.40487	0.7189	-0.177
Mof_C 	C 	0.02714	0.43994	0.7129	0.394
Mof_C 	C 	0.05558	0.53076	0.7071	0.407
Mof_C 	C 	0.0908	0.54836	0.7125	-0.194
Mof_C 	C 	0.1101	0.5577	0.672	0.134
Mof_H 	H 	0.0997	0.5547	0.6413	0.001
Mof_C 	C 	0.1445	0.5716	0.6743	-0.229
Mof_H 	H 	0.1575	0.5764	0.6461	0.117
Mof_C 	C 	0.15858	0.5779	0.7212	0.197
Mof_C 	C 	0.21886	0.573	0.7534	0.25
Mof_C 	C 	0.24538	0.5913	0.7797	-0.309
Mof_H 	H 	0.2461	0.6161	0.779	0.146
Mof_C 	C 	0.27	0.5728	0.8063	0.236
Mof_C 	C 	0.2685	0.5356	0.8091	-0.29
Mof_H 	H 	0.2852	0.5231	0.8275	0.137
Mof_C 	C 	0.2425	0.518	0.7848	0.202
Mof_H 	H 	0.2407	0.4933	0.7875	-0.04
Mof_C 	C 	0.2182	0.537	0.7554	-0.293
Mof_H 	H 	0.2014	0.5245	0.737	0.138
Mof_C 	C 	0.2043	0.6198	0.6933	0.183
Mof_C 	C 	0.2376	0.621	0.6728	-0.211
Mof_H 	H 	0.2536	0.6027	0.6801	0.107
Mof_C 	C 	0.2487	0.6479	0.642	0.105
Mof_H 	H 	0.2716	0.648	0.6289	0.009
Mof_C 	C 	0.224	0.676	0.6306	-0.16
Mof_C 	C 	0.2358	0.7042	0.5957	0.399
Mof_C 	C 	0.1899	0.6749	0.6508	0.108
Mof_H 	H 	0.1735	0.6926	0.6431	0.01
Mof_C 	C 	0.1803	0.6473	0.6827	-0.206
Mof_H 	H 	0.1578	0.6472	0.6969	0.109
Mof_C 	C 	0.13975	0.5693	0.7618	-0.239
Mof_H 	H 	0.1495	0.5733	0.7927	0.118
Mof_C 	C 	0.10594	0.5543	0.7575	0.14
Mof_H 	H 	0.0934	0.5482	0.7857	-0.001
Mof_C 	C 	0.43655	0.53176	0.8135	0.39
Mof_C 	C 	0.40094	0.54929	0.8192	-0.175
Mof_C 	C 	0.38809	0.5595	0.8642	0.129
Mof_H 	H 	0.4024	0.5569	0.8919	0.001
Mof_C 	C 	0.35419	0.5734	0.8687	-0.23
Mof_H 	H 	0.3457	0.58	0.8994	0.116
Mof_C 	C 	0.3329	0.5777	0.8281	0.193
Mof_C 	C 	0.34581	0.5677	0.7824	-0.226
Mof_H 	H 	0.3314	0.5704	0.7549	0.114
Mof_C 	C 	0.37909	0.554	0.7775	0.125
Mof_H 	H 	0.3876	0.5477	0.7466	0.005
Mof_N 	N 	0.29766	0.5918	0.8324	-0.208
Mof_C 	C 	0.28929	0.6206	0.8646	0.208
Mof_C 	C 	0.25588	0.6223	0.8876	-0.258
Mof_H 	H 	0.2392	0.6046	0.8809	0.124
Mof_C 	C 	0.2472	0.6475	0.9178	0.16
Mof_H 	H 	0.2243	0.648	0.9311	-0.011
Mof_C 	C 	0.2726	0.6746	0.931	-0.187
Mof_C 	C 	0.2636	0.7034	0.9668	0.423
Mof_C 	C 	0.30616	0.6733	0.9085	0.13
Mof_H 	H 	0.3234	0.6903	0.9161	0.002
Mof_C 	C 	0.3139	0.6462	0.8746	-0.235
Mof_H 	H 	0.3359	0.6459	0.8588	0.118
Mof_C 	C 	0.0486	0.38995	0.7652	0.114
Mof_H 	H 	0.0412	0.4024	0.793	0.008
Mof_C 	C 	0.0644	0.3562	0.7702	-0.212
Mof_H 	H 	0.0672	0.3463	0.8012	0.109
Mof_C 	C 	0.11954	0.29276	0.7043	0.185
Mof_C 	C 	0.1476	0.31661	0.6939	-0.214
Mof_H 	H 	0.1479	0.339	0.7087	0.111
Mof_C 	C 	0.1745	0.30721	0.6623	0.122
Mof_H 	H 	0.1924	0.3235	0.655	0.006
Mof_C 	C 	0.1751	0.2747	0.6418	-0.165
Mof_C 	C 	0.2045	0.2657	0.6045	0.368
Mof_C 	C 	0.1482	0.2506	0.652	0.125
Mof_H 	H 	0.1491	0.2278	0.6383	0.004
Mof_C 	C 	0.1206	0.25945	0.6816	-0.224
Mof_H 	H 	0.1023	0.2432	0.6869	0.113
Mof_C 	C 	0.0364	0.2768	0.7655	-0.312
Mof_H 	H 	0.0234	0.2943	0.7491	0.144
Mof_C 	C 	0.0189	0.2502	0.7917	0.237
Mof_H 	H 	0.9941	0.2498	0.7919	-0.051
Mof_C 	C 	0.0366	0.2255	0.8165	-0.316
Mof_H 	H 	0.0244	0.2085	0.8349	0.147
Mof_C 	C 	0.08075	0.16247	0.8369	0.167
Mof_C 	C 	0.0736	0.14894	0.7897	-0.192
Mof_H 	H 	0.0792	0.1626	0.7622	0.102
Mof_C 	C 	0.0586	0.11555	0.7837	0.098
Mof_H 	H 	0.0533	0.1071	0.7524	0.013
Mof_C 	C 	0.05126	0.09473	0.8244	-0.153
Mof_C 	C 	0.03444	0.05926	0.817	0.379
Mof_C 	C 	0.0592	0.10741	0.8717	0.094
Mof_H 	H 	0.0544	0.0934	0.8991	0.014
Mof_C 	C 	0.0745	0.14152	0.8772	-0.198
Mof_H 	H 	0.0803	0.1499	0.9083	0.104
Mof_C 	C 	0.12078	0.20699	0.8746	0.211
Mof_C 	C 	0.1472	0.18225	0.8864	-0.246
Mof_H 	H 	0.1462	0.1595	0.8729	0.122
Mof_C 	C 	0.1741	0.19075	0.917	0.148
Mof_H 	H 	0.1919	0.1741	0.9234	-0.006
Mof_C 	C 	0.17526	0.22422	0.939	-0.188
Mof_C 	C 	0.2042	0.2332	0.9757	0.378
Mof_C 	C 	0.1506	0.248	0.9279	0.144
Mof_H 	H 	0.1521	0.2708	0.9415	0
Mof_C 	C 	0.1222	0.23994	0.8962	-0.241
Mof_H 	H 	0.1046	0.2568	0.89	0.12
Mof_N 	N 	0.97543	0.51039	0.818	-0.175
Mof_C 	C 	0.9923	0.4996	0.8622	0.069
Mof_H 	H 	0.0131	0.486	0.8646	0.015
Mof_N 	N 	0.972	0.513	0.90206	-0.12
Mof_C 	C 	0.9425	0.5322	0.8825	0.003
Mof_H 	H 	0.9249	0.5438	0.9005	0.035
Mof_C 	C 	0.9446	0.5305	0.8305	0.003
Mof_H 	H 	0.9287	0.5409	0.8085	0.042
Mof_N 	N 	0.2182	0.16215	0.5405	-0.164
Mof_C 	C 	0.1899	0.1498	0.5709	0.065
Mof_H 	H 	0.1805	0.1618	0.5979	0.024
Mof_N 	N 	0.1787	0.1161	0.5529	-0.11
Mof_C 	C 	0.1999	0.1075	0.5114	0.002
Mof_H 	H 	0.1981	0.0869	0.4925	0.037
Mof_C 	C 	0.2243	0.136	0.5037	0.002
Mof_H 	H 	0.2413	0.1373	0.4789	0.04
Mof_C 	C 	0.9881	0.5047	0.9532	0.074
Mof_C 	C 	0.9655	0.5086	0.9905	-0.074
Mof_H 	H 	0.942	0.5149	0.984	0.064
Mof_C 	C 	0.1449	0.0978	0.5751	0.016
Mof_C 	C 	0.0243	0.4963	0.9629	-0.064
Mof_H 	H 	0.0407	0.4942	0.9374	0.057
Mof_Cu	Cu	0.2834	0.73891	0.53072	0.903
Mof_Cu	Cu	0.49898	0.00335	0.64958	0.901
Mof_Cu	Cu	0.50911	0.99795	0.74613	0.917
Mof_Cu	Cu	0.26144	0.28367	0.53999	0.923
Mof_N 	N 	0.40659	0.30135	0.8418	-0.207
Mof_N 	N 	0.40818	0.19675	0.736	-0.209
Mof_N 	N 	0.30555	0.90888	0.7246	-0.212
Mof_O 	O 	0.4748	0.0476	0.67054	-0.421
Mof_O 	O 	0.45503	0.97601	0.6647	-0.42
Mof_O 	O 	0.23384	0.79492	0.5812	-0.429
Mof_O 	O 	0.29009	0.77551	0.5817	-0.41
Mof_O 	O 	0.46111	0.9757	0.74578	-0.409
Mof_O 	O 	0.48543	0.04553	0.75101	-0.398
Mof_O 	O 	0.0545	0.97811	0.77184	-0.411
Mof_O 	O 	0.26728	0.79443	0.9802	-0.435
Mof_O 	O 	0.21113	0.77646	0.9789	-0.418
Mof_O 	O 	0.04467	0.97111	0.85204	-0.411
Mof_O 	O 	0.29502	0.26665	0.5891	-0.397
Mof_O 	O 	0.27487	0.2102	0.5903	-0.404
Mof_O 	O 	0.47472	0.45707	0.8568	-0.394
Mof_O 	O 	0.4701	0.45143	0.77513	-0.413
Mof_O 	O 	0.27528	0.29159	0.9905	-0.4
Mof_O 	O 	0.29418	0.23482	0.9902	-0.403
Mof_C 	C 	0.42609	0.27466	0.8147	0.248
Mof_C 	C 	0.40844	0.24868	0.7884	-0.324
Mof_H 	H 	0.3836	0.2487	0.7873	0.151
Mof_C 	C 	0.42703	0.22308	0.7639	0.257
Mof_C 	C 	0.42403	0.16252	0.729	0.188
Mof_C 	C 	0.4269	0.1463	0.6843	-0.227
Mof_H 	H 	0.4178	0.1579	0.6568	0.115
Mof_C 	C 	0.4426	0.11355	0.6784	0.127
Mof_H 	H 	0.4444	0.1035	0.6473	0.002
Mof_C 	C 	0.45601	0.09513	0.7189	-0.177
Mof_C 	C 	0.47286	0.06006	0.7129	0.394
Mof_C 	C 	0.44442	0.96924	0.7071	0.407
Mof_C 	C 	0.4092	0.95164	0.7125	-0.194
Mof_C 	C 	0.3899	0.9423	0.672	0.134
Mof_H 	H 	0.4003	0.9453	0.6413	0.001
Mof_C 	C 	0.3555	0.9284	0.6743	-0.229
Mof_H 	H 	0.3425	0.9236	0.6461	0.117
Mof_C 	C 	0.34142	0.9221	0.7212	0.197
Mof_C 	C 	0.28114	0.927	0.7534	0.25
Mof_C 	C 	0.25462	0.9087	0.7797	-0.309
Mof_H 	H 	0.2539	0.8839	0.779	0.146
Mof_C 	C 	0.23	0.9272	0.8063	0.236
Mof_C 	C 	0.2315	0.9644	0.8091	-0.29
Mof_H 	H 	0.2148	0.9769	0.8275	0.137
Mof_C 	C 	0.2575	0.982	0.7848	0.202
Mof_H 	H 	0.2593	0.0067	0.7875	-0.04
Mof_C 	C 	0.2818	0.963	0.7554	-0.294
Mof_H 	H 	0.2986	0.9755	0.737	0.138
Mof_C 	C 	0.2957	0.8802	0.6933	0.183
Mof_C 	C 	0.2624	0.879	0.6728	-0.211
Mof_H 	H 	0.2464	0.8973	0.6801	0.107
Mof_C 	C 	0.2513	0.8521	0.642	0.105
Mof_H 	H 	0.2284	0.852	0.6289	0.009
Mof_C 	C 	0.276	0.824	0.6306	-0.16
Mof_C 	C 	0.2642	0.7958	0.5957	0.399
Mof_C 	C 	0.3101	0.8251	0.6508	0.108
Mof_H 	H 	0.3265	0.8074	0.6431	0.01
Mof_C 	C 	0.3197	0.8527	0.6827	-0.206
Mof_H 	H 	0.3422	0.8528	0.6969	0.109
Mof_C 	C 	0.36025	0.9307	0.7618	-0.239
Mof_H 	H 	0.3505	0.9267	0.7927	0.118
Mof_C 	C 	0.39406	0.9457	0.7575	0.14
Mof_H 	H 	0.4066	0.9518	0.7857	-0.001
Mof_C 	C 	0.06345	0.96824	0.8135	0.39
Mof_C 	C 	0.09906	0.95071	0.8192	-0.175
Mof_C 	C 	0.11191	0.9405	0.8642	0.129
Mof_H 	H 	0.0976	0.9431	0.8919	0.001
Mof_C 	C 	0.14581	0.9266	0.8687	-0.23
Mof_H 	H 	0.1543	0.92	0.8994	0.116
Mof_C 	C 	0.1671	0.9223	0.8281	0.193
Mof_C 	C 	0.15419	0.9323	0.7824	-0.226
Mof_H 	H 	0.1686	0.9296	0.7549	0.114
Mof_C 	C 	0.12091	0.946	0.7775	0.125
Mof_H 	H 	0.1124	0.9523	0.7466	0.005
Mof_N 	N 	0.20234	0.9082	0.8324	-0.208
Mof_C 	C 	0.21071	0.8794	0.8646	0.208
Mof_C 	C 	0.24412	0.8777	0.8876	-0.258
Mof_H 	H 	0.2608	0.8954	0.8809	0.124
Mof_C 	C 	0.2528	0.8525	0.9178	0.16
Mof_H 	H 	0.2757	0.852	0.9311	-0.011
Mof_C 	C 	0.2274	0.8254	0.931	-0.187
Mof_C 	C 	0.2364	0.7966	0.9668	0.423
Mof_C 	C 	0.19384	0.8267	0.9085	0.13
Mof_H 	H 	0.1766	0.8097	0.9161	0.002
Mof_C 	C 	0.1861	0.8538	0.8746	-0.235
Mof_H 	H 	0.1641	0.8541	0.8588	0.118
Mof_C 	C 	0.4514	0.11005	0.7652	0.114
Mof_H 	H 	0.4588	0.0976	0.793	0.008
Mof_C 	C 	0.4356	0.1438	0.7702	-0.212
Mof_H 	H 	0.4328	0.1537	0.8012	0.109
Mof_C 	C 	0.38046	0.20724	0.7043	0.185
Mof_C 	C 	0.3524	0.18339	0.6939	-0.214
Mof_H 	H 	0.3521	0.161	0.7087	0.111
Mof_C 	C 	0.3255	0.19279	0.6623	0.122
Mof_H 	H 	0.3076	0.1765	0.655	0.006
Mof_C 	C 	0.3249	0.2253	0.6418	-0.165
Mof_C 	C 	0.2955	0.2343	0.6045	0.368
Mof_C 	C 	0.3518	0.2494	0.652	0.125
Mof_H 	H 	0.3509	0.2722	0.6383	0.004
Mof_C 	C 	0.3794	0.24055	0.6816	-0.224
Mof_H 	H 	0.3977	0.2568	0.6869	0.113
Mof_C 	C 	0.4636	0.2232	0.7655	-0.312
Mof_H 	H 	0.4766	0.2057	0.7491	0.144
Mof_C 	C 	0.4811	0.2498	0.7917	0.236
Mof_H 	H 	0.5059	0.2502	0.7919	-0.051
Mof_C 	C 	0.4634	0.2745	0.8165	-0.316
Mof_H 	H 	0.4756	0.2915	0.8349	0.146
Mof_C 	C 	0.41925	0.33753	0.8369	0.167
Mof_C 	C 	0.4264	0.35106	0.7897	-0.192
Mof_H 	H 	0.4208	0.3374	0.7622	0.102
Mof_C 	C 	0.4414	0.38445	0.7837	0.098
Mof_H 	H 	0.4467	0.3929	0.7524	0.013
Mof_C 	C 	0.44874	0.40527	0.8244	-0.153
Mof_C 	C 	0.46556	0.44074	0.817	0.379
Mof_C 	C 	0.4408	0.39259	0.8717	0.094
Mof_H 	H 	0.4456	0.4066	0.8991	0.014
Mof_C 	C 	0.4255	0.35848	0.8772	-0.198
Mof_H 	H 	0.4197	0.3501	0.9083	0.104
Mof_C 	C 	0.37922	0.29301	0.8746	0.211
Mof_C 	C 	0.3528	0.31775	0.8864	-0.246
Mof_H 	H 	0.3538	0.3405	0.8729	0.122
Mof_C 	C 	0.3259	0.30925	0.917	0.148
Mof_H 	H 	0.3081	0.3259	0.9234	-0.006
Mof_C 	C 	0.32474	0.27578	0.939	-0.188
Mof_C 	C 	0.2958	0.2668	0.9757	0.378
Mof_C 	C 	0.3494	0.252	0.9279	0.144
Mof_H 	H 	0.3479	0.2292	0.9415	0
Mof_C 	C 	0.3778	0.26006	0.8962	-0.241
Mof_H 	H 	0.3954	0.2432	0.89	0.12
Mof_N 	N 	0.52457	0.98961	0.818	-0.175
Mof_C 	C 	0.5077	0.0004	0.8622	0.069
Mof_H 	H 	0.4869	0.014	0.8646	0.015
Mof_N 	N 	0.528	0.987	0.90206	-0.12
Mof_C 	C 	0.5575	0.9678	0.8825	0.003
Mof_H 	H 	0.5751	0.9562	0.9005	0.035
Mof_C 	C 	0.5554	0.9695	0.8305	0.003
Mof_H 	H 	0.5713	0.9591	0.8085	0.042
Mof_N 	N 	0.2818	0.33785	0.5405	-0.164
Mof_C 	C 	0.3101	0.3502	0.5709	0.065
Mof_H 	H 	0.3195	0.3382	0.5979	0.024
Mof_N 	N 	0.3213	0.3839	0.5529	-0.11
Mof_C 	C 	0.3001	0.3925	0.5114	0.002
Mof_H 	H 	0.3019	0.4131	0.4925	0.037
Mof_C 	C 	0.2757	0.364	0.5037	0.002
Mof_H 	H 	0.2587	0.3627	0.4789	0.04
Mof_C 	C 	0.5119	0.9953	0.9532	0.074
Mof_C 	C 	0.5345	0.9914	0.9905	-0.073
Mof_H 	H 	0.558	0.9851	0.984	0.063
Mof_C 	C 	0.3551	0.4022	0.5751	0.016
Mof_C 	C 	0.4757	0.0037	0.9629	-0.065
Mof_H 	H 	0.4593	0.0058	0.9374	0.058
Mof_Cu	Cu	0.2166	0.76109	0.53072	0.903
_end
