data_functionalizedCrystal
_audit_creation_method	'EQeq! by Chris Wilmer'
_symmetry_space_group_name_H-M	'P1'
_symmetry_Int_Tables_number	1
_symmetry_cell_setting	triclinic
loop_
_symmetry_equiv_pos_as_xyz
  x,y,z
_cell_length_a	16.4797
_cell_length_b	16.4797
_cell_length_c	8.8635
_cell_angle_alpha	90
_cell_angle_beta	90
_cell_angle_gamma	90
loop_
_atom_site_label
_atom_site_type_symbol
_atom_site_fract_x
_atom_site_fract_y
_atom_site_fract_z
_atom_site_charge
Mof_Zn	Zn	0.71631	0.41268	0.91888	1.272
Mof_P 	P 	0.66299	0.42876	0.5885	0.648
Mof_P 	P 	0.90889	0.39651	0.9236	0.437
Mof_O 	O 	0.9598	0.4098	0.0616	-0.335
Mof_O 	O 	0.9119	0.4649	0.8122	-0.398
Mof_O 	O 	0.8233	0.3732	0.9677	-0.404
Mof_O 	O 	0.6877	0.3655	0.716	-0.282
Mof_O 	O 	0.6526	0.3704	0.4499	-0.293
Mof_O 	O 	0.6835	0.481	0.4466	-0.304
Mof_O 	O 	0.7182	0.5341	0.2158	-0.295
Mof_O 	O 	0.6524	0.6627	0.5637	-0.219
Mof_O 	O 	0.7195	0.4886	0.5597	-0.238
Mof_H 	H 	0.5896	0.4516	0.6307	-0.066
Mof_H 	H 	0.9379	0.3324	0.8506	-0.001
Mof_Zn	Zn	0.28369	0.58732	0.91888	1.271
Mof_P 	P 	0.33701	0.57124	0.5885	0.648
Mof_P 	P 	0.09111	0.60349	0.9236	0.435
Mof_O 	O 	0.0402	0.5902	0.0616	-0.451
Mof_O 	O 	0.0881	0.5351	0.8122	-0.482
Mof_O 	O 	0.1767	0.6268	0.9677	-0.413
Mof_O 	O 	0.3123	0.6345	0.716	-0.283
Mof_O 	O 	0.3474	0.6296	0.4499	-0.296
Mof_O 	O 	0.3165	0.519	0.4466	-0.306
Mof_O 	O 	0.2818	0.4659	0.2158	-0.302
Mof_O 	O 	0.3476	0.3373	0.5637	-0.234
Mof_O 	O 	0.2805	0.5114	0.5597	-0.245
Mof_H 	H 	0.4104	0.5484	0.6307	-0.066
Mof_H 	H 	0.0621	0.6676	0.8506	-0.053
Mof_Zn	Zn	0.58732	0.71631	0.91888	1.272
Mof_P 	P 	0.57124	0.66299	0.5885	0.644
Mof_P 	P 	0.60349	0.90889	0.9236	0.437
Mof_O 	O 	0.5902	0.9598	0.0616	-0.325
Mof_O 	O 	0.5351	0.9119	0.8122	-0.398
Mof_O 	O 	0.6268	0.8233	0.9677	-0.391
Mof_O 	O 	0.6345	0.6877	0.716	-0.273
Mof_O 	O 	0.6296	0.6526	0.4499	-0.291
Mof_O 	O 	0.519	0.6835	0.4466	-0.303
Mof_O 	O 	0.4659	0.7182	0.2158	-0.295
Mof_O 	O 	0.3373	0.6524	0.5637	-0.227
Mof_O 	O 	0.5114	0.7195	0.5597	-0.236
Mof_H 	H 	0.5484	0.5896	0.6307	-0.065
Mof_H 	H 	0.6676	0.9379	0.8506	0.018
Mof_Zn	Zn	0.41268	0.28369	0.91888	1.27
Mof_P 	P 	0.42876	0.33701	0.5885	0.651
Mof_P 	P 	0.39651	0.09111	0.9236	0.434
Mof_O 	O 	0.4098	0.0402	0.0616	-0.461
Mof_O 	O 	0.4649	0.0881	0.8122	-0.482
Mof_O 	O 	0.3732	0.1767	0.9677	-0.426
Mof_O 	O 	0.3655	0.3123	0.716	-0.291
Mof_O 	O 	0.3704	0.3474	0.4499	-0.298
Mof_O 	O 	0.481	0.3165	0.4466	-0.307
Mof_O 	O 	0.5341	0.2818	0.2158	-0.302
Mof_O 	O 	0.6627	0.3476	0.5637	-0.226
Mof_O 	O 	0.4886	0.2805	0.5597	-0.246
Mof_H 	H 	0.4516	0.4104	0.6307	-0.066
Mof_H 	H 	0.3324	0.0621	0.8506	-0.072
Mof_Zn	Zn	0.71631	0.58732	0.41888	1.279
Mof_P 	P 	0.66299	0.57124	0.0885	0.667
Mof_P 	P 	0.90889	0.60349	0.4236	0.475
Mof_O 	O 	0.9598	0.5902	0.5616	-0.365
Mof_O 	O 	0.9119	0.5351	0.3122	-0.388
Mof_O 	O 	0.8233	0.6268	0.4677	-0.372
Mof_O 	O 	0.6877	0.6345	0.216	-0.278
Mof_O 	O 	0.6526	0.6296	0.9499	-0.344
Mof_O 	O 	0.6835	0.519	0.9466	-0.349
Mof_O 	O 	0.7182	0.4659	0.7158	-0.29
Mof_O 	O 	0.6524	0.3373	0.0637	-0.178
Mof_O 	O 	0.7195	0.5114	0.0597	-0.193
Mof_H 	H 	0.5896	0.5484	0.1307	-0.059
Mof_H 	H 	0.9379	0.6676	0.3506	0.025
Mof_Zn	Zn	0.28369	0.41268	0.41888	1.276
Mof_P 	P 	0.33701	0.42876	0.0885	0.675
Mof_P 	P 	0.09111	0.39651	0.4236	0.47
Mof_O 	O 	0.0402	0.4098	0.5616	-0.501
Mof_O 	O 	0.0881	0.4649	0.3122	-0.474
Mof_O 	O 	0.1767	0.3732	0.4677	-0.409
Mof_O 	O 	0.3123	0.3655	0.216	-0.296
Mof_O 	O 	0.3474	0.3704	0.9499	-0.35
Mof_O 	O 	0.3165	0.481	0.9466	-0.353
Mof_O 	O 	0.2818	0.5341	0.7158	-0.297
Mof_O 	O 	0.3476	0.6627	0.0637	-0.177
Mof_O 	O 	0.2805	0.4886	0.0597	-0.203
Mof_H 	H 	0.4104	0.4516	0.1307	-0.059
Mof_H 	H 	0.0621	0.3324	0.3506	-0.064
Mof_Zn	Zn	0.58732	0.28369	0.41888	1.277
Mof_P 	P 	0.57124	0.33701	0.0885	0.672
Mof_P 	P 	0.60349	0.09111	0.4236	0.471
Mof_O 	O 	0.5902	0.0402	0.5616	-0.491
Mof_O 	O 	0.5351	0.0881	0.3122	-0.473
Mof_O 	O 	0.6268	0.1767	0.4677	-0.396
Mof_O 	O 	0.6345	0.3123	0.216	-0.288
Mof_O 	O 	0.6296	0.3474	0.9499	-0.348
Mof_O 	O 	0.519	0.3165	0.9466	-0.351
Mof_O 	O 	0.4659	0.2818	0.7158	-0.297
Mof_O 	O 	0.3373	0.3476	0.0637	-0.186
Mof_O 	O 	0.5114	0.2805	0.0597	-0.202
Mof_H 	H 	0.5484	0.4104	0.1307	-0.059
Mof_H 	H 	0.6676	0.0621	0.3506	-0.045
Mof_Zn	Zn	0.41268	0.71631	0.41888	1.278
Mof_P 	P 	0.42876	0.66299	0.0885	0.67
Mof_P 	P 	0.39651	0.90889	0.4236	0.474
Mof_O 	O 	0.4098	0.9598	0.5616	-0.375
Mof_O 	O 	0.4649	0.9119	0.3122	-0.389
Mof_O 	O 	0.3732	0.8233	0.4677	-0.386
Mof_O 	O 	0.3655	0.6877	0.216	-0.287
Mof_O 	O 	0.3704	0.6526	0.9499	-0.345
Mof_O 	O 	0.481	0.6835	0.9466	-0.351
Mof_O 	O 	0.5341	0.7182	0.7158	-0.29
Mof_O 	O 	0.6627	0.6524	0.0637	-0.17
Mof_O 	O 	0.4886	0.7195	0.0597	-0.194
Mof_H 	H 	0.4516	0.5896	0.1307	-0.059
Mof_H 	H 	0.3324	0.9379	0.3506	0.006
Mof_Zn	Zn	1.66881e-33	0.5	0.1775	1.196
Mof_Zn	Zn	0.5	0	0.1775	1.196
Mof_Zn	Zn	-1.25548e-33	0.5	0.6775	1.192
Mof_Zn	Zn	0.5	0	0.6775	1.192
_end
