data_functionalizedCrystal
_audit_creation_method	'EQeq! by Chris Wilmer'
_symmetry_space_group_name_H-M	'P1'
_symmetry_Int_Tables_number	1
_symmetry_cell_setting	triclinic
loop_
_symmetry_equiv_pos_as_xyz
  x,y,z
_cell_length_a	10.089
_cell_length_b	14.789
_cell_length_c	13.988
_cell_angle_alpha	90
_cell_angle_beta	90
_cell_angle_gamma	90
loop_
_atom_site_label
_atom_site_type_symbol
_atom_site_fract_x
_atom_site_fract_y
_atom_site_fract_z
_atom_site_charge
Mof_Zn	Zn	0.04048	0.41273	0.106	1.212
Mof_P 	P 	0.01889	0.37686	0.88962	0.321
Mof_H 	H 	0.117	0.393	0.833	-0.067
Mof_P 	P 	0.26875	0.10697	0.78128	0.237
Mof_O 	O 	0.0862	0.3568	0.9846	-0.436
Mof_O 	O 	0.941	0.2956	0.8537	-0.336
Mof_O 	O 	0.9311	0.4591	0.8945	-0.406
Mof_O 	O 	0.337	0.1451	0.6918	-0.499
Mof_O 	O 	0.1422	0.1502	0.803	-0.475
Mof_O 	O 	0.3555	0.1137	0.87	-0.461
Mof_P 	P 	0.205	0.3325	0.2861	0.227
Mof_Zn	Zn	0.45952	0.08727	0.606	1.23
Mof_P 	P 	0.48111	0.12314	0.38962	0.449
Mof_H 	H 	0.383	0.107	0.333	-0.078
Mof_P 	P 	0.23125	0.39303	0.28128	0.264
Mof_O 	O 	0.4138	0.1432	0.4846	-0.434
Mof_O 	O 	0.559	0.2044	0.3537	-0.416
Mof_O 	O 	0.5689	0.0409	0.3945	-0.472
Mof_O 	O 	0.163	0.3549	0.1918	-0.511
Mof_O 	O 	0.3578	0.3498	0.303	-0.453
Mof_O 	O 	0.1445	0.3863	0.37	-0.487
Mof_P 	P 	0.295	0.1675	0.7861	0.258
Mof_Zn	Zn	0.95952	0.41273	0.394	1.249
Mof_P 	P 	0.98111	0.37686	0.61038	0.581
Mof_H 	H 	0.883	0.393	0.667	-0.077
Mof_P 	P 	0.73125	0.10697	0.71872	0.26
Mof_O 	O 	0.9138	0.3568	0.5154	-0.42
Mof_O 	O 	0.059	0.2956	0.6463	-0.495
Mof_O 	O 	0.0689	0.4591	0.6055	-0.552
Mof_O 	O 	0.663	0.1451	0.8082	-0.488
Mof_O 	O 	0.8578	0.1502	0.697	-0.415
Mof_O 	O 	0.6445	0.1137	0.63	-0.449
Mof_P 	P 	0.795	0.3325	0.2139	0.271
Mof_Zn	Zn	0.54048	0.08727	0.894	1.23
Mof_P 	P 	0.51889	0.12314	0.11038	0.449
Mof_H 	H 	0.617	0.107	0.167	-0.066
Mof_P 	P 	0.76875	0.39303	0.21872	0.237
Mof_O 	O 	0.5862	0.1432	0.0154	-0.423
Mof_O 	O 	0.441	0.2044	0.1463	-0.424
Mof_O 	O 	0.4311	0.0409	0.1055	-0.482
Mof_O 	O 	0.837	0.3549	0.3082	-0.475
Mof_O 	O 	0.6422	0.3498	0.197	-0.449
Mof_O 	O 	0.8555	0.3863	0.13	-0.421
Mof_P 	P 	0.705	0.1675	0.7139	0.242
Mof_Zn	Zn	0.95952	0.58727	0.894	1.249
Mof_P 	P 	0.98111	0.62314	0.11038	0.584
Mof_H 	H 	0.883	0.607	0.167	-0.077
Mof_P 	P 	0.73125	0.89303	0.21872	0.261
Mof_O 	O 	0.9138	0.6432	0.0154	-0.422
Mof_O 	O 	0.059	0.7044	0.1463	-0.499
Mof_O 	O 	0.0689	0.5409	0.1055	-0.555
Mof_O 	O 	0.663	0.8549	0.3082	-0.487
Mof_O 	O 	0.8578	0.8498	0.197	-0.415
Mof_O 	O 	0.6445	0.8863	0.13	-0.451
Mof_P 	P 	0.795	0.6675	0.7139	0.271
Mof_Zn	Zn	0.54048	0.91273	0.394	1.231
Mof_P 	P 	0.51889	0.87686	0.61038	0.449
Mof_H 	H 	0.617	0.893	0.667	-0.066
Mof_P 	P 	0.76875	0.60697	0.71872	0.238
Mof_O 	O 	0.5862	0.8568	0.5154	-0.423
Mof_O 	O 	0.441	0.7956	0.6463	-0.423
Mof_O 	O 	0.4311	0.9591	0.6055	-0.482
Mof_O 	O 	0.837	0.6451	0.8082	-0.475
Mof_O 	O 	0.6422	0.6502	0.697	-0.449
Mof_O 	O 	0.8555	0.6137	0.63	-0.421
Mof_P 	P 	0.705	0.8325	0.2139	0.242
Mof_Zn	Zn	0.04048	0.58727	0.606	1.212
Mof_P 	P 	0.01889	0.62314	0.38962	0.316
Mof_H 	H 	0.117	0.607	0.333	-0.067
Mof_P 	P 	0.26875	0.89303	0.28128	0.236
Mof_O 	O 	0.0862	0.6432	0.4846	-0.436
Mof_O 	O 	0.941	0.7044	0.3537	-0.332
Mof_O 	O 	0.9311	0.5409	0.3945	-0.402
Mof_O 	O 	0.337	0.8549	0.1918	-0.5
Mof_O 	O 	0.1422	0.8498	0.303	-0.476
Mof_O 	O 	0.3555	0.8863	0.37	-0.46
Mof_P 	P 	0.205	0.6675	0.7861	0.228
Mof_Zn	Zn	0.45952	0.91273	0.106	1.228
Mof_P 	P 	0.48111	0.87686	0.88962	0.449
Mof_H 	H 	0.383	0.893	0.833	-0.077
Mof_P 	P 	0.23125	0.60697	0.78128	0.263
Mof_O 	O 	0.4138	0.8568	0.9846	-0.431
Mof_O 	O 	0.559	0.7956	0.8537	-0.416
Mof_O 	O 	0.5689	0.9591	0.8945	-0.471
Mof_O 	O 	0.163	0.6451	0.6918	-0.51
Mof_O 	O 	0.3578	0.6502	0.803	-0.453
Mof_O 	O 	0.1445	0.6137	0.87	-0.485
Mof_P 	P 	0.295	0.8325	0.2861	0.259
Mof_Zn	Zn	3.8988e-33	0.21703	0.75	1.21
Mof_Zn	Zn	0.5	0.28297	0.25	1.238
Mof_Zn	Zn	1.2996e-33	0.78297	0.25	1.209
Mof_Zn	Zn	0.5	0.71703	0.75	1.238
_end
