data_functionalizedCrystal
_audit_creation_method	'EQeq! by Chris Wilmer'
_symmetry_space_group_name_H-M	'P1'
_symmetry_Int_Tables_number	1
_symmetry_cell_setting	triclinic
loop_
_symmetry_equiv_pos_as_xyz
  x,y,z
_cell_length_a	7.5238
_cell_length_b	21.9578
_cell_length_c	33.012
_cell_angle_alpha	90
_cell_angle_beta	95.252
_cell_angle_gamma	90
loop_
_atom_site_label
_atom_site_type_symbol
_atom_site_fract_x
_atom_site_fract_y
_atom_site_fract_z
_atom_site_charge
Mof_Zn	Zn	0.75595	0.13912	0.33409	1.207
Mof_Zn	Zn	0.20745	0.37941	0.16732	1.207
Mof_O 	O 	0.8956	0.21286	0.34901	-0.457
Mof_O 	O 	0.0691	0.15358	0.38894	-0.334
Mof_O 	O 	0.6754	0.60656	0.21713	-0.481
Mof_O 	O 	0.6751	0.51051	0.19774	-0.326
Mof_O 	O 	0.0693	0.30635	0.15162	-0.465
Mof_O 	O 	0.8859	0.37006	0.11732	-0.331
Mof_O 	O 	0.3618	0.91211	0.2815	-0.479
Mof_O 	O 	0.3231	0.00762	0.29948	-0.327
Mof_S 	S 	0.40092	0.11779	0.09063	-0.034
Mof_S 	S 	0.58466	0.39732	0.40332	-0.006
Mof_S 	S 	0.48328	0.48135	0.39104	-0.027
Mof_S 	S 	0.52181	0.03801	0.10655	-0.008
Mof_N 	N 	0.54	0.45284	0.31188	-0.138
Mof_N 	N 	0.4485	0.28975	0.40775	-0.139
Mof_N 	N 	0.6782	0.09317	0.38209	-0.282
Mof_N 	N 	0.5218	0.18659	0.31616	-0.264
Mof_N 	N 	0.4424	0.33194	0.18572	-0.262
Mof_N 	N 	0.2915	0.42591	0.12024	-0.285
Mof_N 	N 	0.5066	0.96736	0.1683	-0.14
Mof_N 	N 	0.7324	0.16075	0.11882	-0.141
Mof_C 	C 	0.0328	0.20329	0.37343	0.364
Mof_C 	C 	0.1551	0.25608	0.38274	-0.144
Mof_C 	C 	0.3236	0.24668	0.40164	0.091
Mof_H 	H 	0.3525	0.2076	0.4108	0.018
Mof_C 	C 	0.1116	0.3155	0.37175	0.091
Mof_H 	H 	0.9981	0.3245	0.3597	0.021
Mof_C 	C 	0.2348	0.36077	0.3785	-0.169
Mof_H 	H 	0.2061	0.4009	0.3717	0.105
Mof_C 	C 	0.4013	0.34585	0.39555	0.116
Mof_C 	C 	0.5276	0.49707	0.33998	0.133
Mof_C 	C 	0.5421	0.55606	0.33187	-0.198
Mof_H 	H 	0.5251	0.5851	0.3517	0.111
Mof_C 	C 	0.5815	0.57306	0.29475	0.123
Mof_H 	H 	0.5939	0.6143	0.2894	0
Mof_C 	C 	0.6041	0.53208	0.26448	-0.161
Mof_C 	C 	0.5793	0.47121	0.27394	0.097
Mof_H 	H 	0.5896	0.4419	0.2539	0.012
Mof_C 	C 	0.6547	0.54962	0.22292	0.382
Mof_C 	C 	0.6511	0.1275	0.41486	0.106
Mof_H 	H 	0.6722	0.1692	0.4135	-0.024
Mof_C 	C 	0.5951	0.1046	0.44955	-0.184
Mof_H 	H 	0.576	0.1306	0.471	0.097
Mof_C 	C 	0.566	0.0433	0.45334	0.127
Mof_C 	C 	0.5959	0.0075	0.42023	-0.179
Mof_H 	H 	0.5794	0.9656	0.4216	0.108
Mof_C 	C 	0.6499	0.03312	0.38509	0.107
Mof_H 	H 	0.667	0.0081	0.363	-0.002
Mof_C 	C 	0.5013	0.0286	0.4942	-0.034
Mof_H 	H 	0.4642	0.0594	0.5108	0.014
Mof_C 	C 	0.3723	0.15522	0.30587	0.098
Mof_H 	H 	0.3719	0.1138	0.3116	-0.007
Mof_C 	C 	0.2193	0.18068	0.28729	-0.181
Mof_H 	H 	0.1194	0.1566	0.2805	0.101
Mof_C 	C 	0.2146	0.24271	0.27873	0.134
Mof_C 	C 	0.3672	0.27593	0.291	-0.182
Mof_H 	H 	0.3692	0.3178	0.2869	0.103
Mof_C 	C 	0.5161	0.24673	0.30928	0.107
Mof_H 	H 	0.6169	0.2698	0.3172	-0.001
Mof_C 	C 	0.0595	0.27264	0.25685	-0.093
Mof_H 	H 	0.0722	0.3135	0.2503	0.068
Mof_C 	C 	0.9041	0.24715	0.24555	-0.085
Mof_H 	H 	0.8914	0.2063	0.2523	0.064
Mof_C 	C 	0.7498	0.27653	0.22355	0.13
Mof_C 	C 	0.5962	0.24383	0.21204	-0.178
Mof_H 	H 	0.5946	0.2021	0.2167	0.095
Mof_C 	C 	0.4461	0.27171	0.19381	0.101
Mof_H 	H 	0.3444	0.2485	0.1869	-0.006
Mof_C 	C 	0.5934	0.363	0.1944	0.1
Mof_H 	H 	0.5948	0.404	0.1873	-0.006
Mof_C 	C 	0.7465	0.33818	0.21311	-0.176
Mof_H 	H 	0.8475	0.3622	0.2188	0.102
Mof_C 	C 	0.3038	0.39469	0.08552	0.108
Mof_H 	H 	0.2668	0.3543	0.0844	-0.031
Mof_C 	C 	0.3682	0.41959	0.05187	-0.187
Mof_H 	H 	0.378	0.3959	0.0288	0.098
Mof_C 	C 	0.4194	0.48088	0.05227	0.144
Mof_C 	C 	0.4035	0.51262	0.08785	-0.198
Mof_H 	H 	0.4348	0.5536	0.0895	0.117
Mof_C 	C 	0.3421	0.48441	0.12072	0.12
Mof_H 	H 	0.3351	0.5068	0.1444	-0.006
Mof_C 	C 	0.483	0.51258	0.01732	-0.092
Mof_H 	H 	0.5008	0.5544	0.0198	0.068
Mof_C 	C 	0.3615	0.96908	0.27508	0.378
Mof_C 	C 	0.4076	0.9898	0.2339	-0.153
Mof_C 	C 	0.3856	0.0496	0.22196	0.093
Mof_H 	H 	0.3469	0.0781	0.2401	0.008
Mof_C 	C 	0.4201	0.0678	0.18351	-0.17
Mof_H 	H 	0.4052	0.1082	0.1754	0.094
Mof_C 	C 	0.4765	0.02519	0.15788	0.117
Mof_C 	C 	0.4703	0.95084	0.20585	0.098
Mof_H 	H 	0.4888	0.9104	0.2134	0.016
Mof_C 	C 	0.5671	0.1753	0.10139	0.13
Mof_C 	C 	0.517	0.23096	0.09216	-0.201
Mof_H 	H 	0.4023	0.2389	0.0803	0.103
Mof_C 	C 	0.6331	0.2762	0.09997	0.111
Mof_H 	H 	0.5987	0.3157	0.0927	0.003
Mof_C 	C 	0.804	0.26653	0.11866	-0.152
Mof_C 	C 	0.8504	0.20704	0.12721	0.092
Mof_H 	H 	0.9646	0.1983	0.139	0.017
Mof_C 	C 	0.9278	0.31832	0.12963	0.363
Mof_C 	C 	0.5297	0.99	0.4836	-0.034
Mof_H 	H 	0.5489	0.949	0.4783	0.039
Mof_Zn	Zn	0.74405	0.63912	0.16591	1.208
Mof_Zn	Zn	0.29255	0.87941	0.33268	1.208
Mof_O 	O 	0.6044	0.71286	0.15099	-0.457
Mof_O 	O 	0.4309	0.65358	0.11106	-0.333
Mof_O 	O 	0.8246	0.10656	0.28287	-0.48
Mof_O 	O 	0.8249	0.01051	0.30226	-0.325
Mof_O 	O 	0.4307	0.80635	0.34838	-0.464
Mof_O 	O 	0.6141	0.87006	0.38268	-0.331
Mof_O 	O 	0.1382	0.41211	0.2185	-0.479
Mof_O 	O 	0.1769	0.50762	0.20052	-0.327
Mof_S 	S 	0.09908	0.61779	0.40937	-0.036
Mof_S 	S 	0.91534	0.89732	0.09668	-0.004
Mof_S 	S 	0.01672	0.98135	0.10896	-0.029
Mof_S 	S 	0.97819	0.53801	0.39345	-0.005
Mof_N 	N 	0.96	0.95284	0.18812	-0.138
Mof_N 	N 	0.0515	0.78975	0.09225	-0.139
Mof_N 	N 	0.8218	0.59317	0.11791	-0.282
Mof_N 	N 	0.9782	0.68659	0.18384	-0.263
Mof_N 	N 	0.0576	0.83194	0.31428	-0.263
Mof_N 	N 	0.2085	0.92591	0.37976	-0.285
Mof_N 	N 	0.9934	0.46736	0.3317	-0.138
Mof_N 	N 	0.7676	0.66075	0.38118	-0.141
Mof_C 	C 	0.4672	0.70329	0.12657	0.365
Mof_C 	C 	0.3449	0.75608	0.11726	-0.146
Mof_C 	C 	0.1764	0.74668	0.09836	0.092
Mof_H 	H 	0.1475	0.7076	0.0892	0.018
Mof_C 	C 	0.3884	0.8155	0.12825	0.095
Mof_H 	H 	0.5019	0.8245	0.1403	0.019
Mof_C 	C 	0.2652	0.86077	0.1215	-0.17
Mof_H 	H 	0.2939	0.9009	0.1283	0.106
Mof_C 	C 	0.0987	0.84585	0.10445	0.116
Mof_C 	C 	0.9724	0.99707	0.16002	0.134
Mof_C 	C 	0.9579	0.05606	0.16813	-0.2
Mof_H 	H 	0.9749	0.0851	0.1483	0.112
Mof_C 	C 	0.9185	0.07306	0.20525	0.124
Mof_H 	H 	0.9061	0.1143	0.2106	-0
Mof_C 	C 	0.8959	0.03208	0.23552	-0.162
Mof_C 	C 	0.9207	0.97121	0.22606	0.098
Mof_H 	H 	0.9104	0.9419	0.2461	0.012
Mof_C 	C 	0.8453	0.04962	0.27708	0.382
Mof_C 	C 	0.8489	0.6275	0.08514	0.106
Mof_H 	H 	0.8278	0.6692	0.0865	-0.024
Mof_C 	C 	0.9049	0.6046	0.05045	-0.184
Mof_H 	H 	0.924	0.6306	0.029	0.097
Mof_C 	C 	0.934	0.5433	0.04666	0.127
Mof_C 	C 	0.9041	0.5075	0.07977	-0.179
Mof_H 	H 	0.9206	0.4656	0.0784	0.108
Mof_C 	C 	0.8501	0.53312	0.11491	0.107
Mof_H 	H 	0.833	0.5081	0.137	-0.002
Mof_C 	C 	0.9987	0.5286	0.0058	-0.035
Mof_H 	H 	0.0358	0.5594	0.9892	0.013
Mof_C 	C 	0.1277	0.65522	0.19413	0.096
Mof_H 	H 	0.1281	0.6138	0.1884	-0.007
Mof_C 	C 	0.2807	0.68068	0.21271	-0.181
Mof_H 	H 	0.3806	0.6566	0.2195	0.102
Mof_C 	C 	0.2854	0.74271	0.22127	0.134
Mof_C 	C 	0.1328	0.77593	0.209	-0.185
Mof_H 	H 	0.1308	0.8178	0.2131	0.103
Mof_C 	C 	0.9839	0.74673	0.19072	0.11
Mof_H 	H 	0.8831	0.7698	0.1828	-0.002
Mof_C 	C 	0.4405	0.77264	0.24315	-0.092
Mof_H 	H 	0.4278	0.8135	0.2497	0.067
Mof_C 	C 	0.5959	0.74715	0.25445	-0.087
Mof_H 	H 	0.6086	0.7063	0.2477	0.065
Mof_C 	C 	0.7502	0.77653	0.27645	0.13
Mof_C 	C 	0.9038	0.74383	0.28796	-0.175
Mof_H 	H 	0.9054	0.7021	0.2833	0.095
Mof_C 	C 	0.0539	0.77171	0.30619	0.098
Mof_H 	H 	0.1556	0.7485	0.3131	-0.005
Mof_C 	C 	0.9066	0.863	0.3056	0.102
Mof_H 	H 	0.9052	0.904	0.3127	-0.006
Mof_C 	C 	0.7535	0.83818	0.28689	-0.177
Mof_H 	H 	0.6525	0.8622	0.2812	0.102
Mof_C 	C 	0.1962	0.89469	0.41448	0.107
Mof_H 	H 	0.2332	0.8543	0.4156	-0.03
Mof_C 	C 	0.1318	0.91959	0.44813	-0.186
Mof_H 	H 	0.122	0.8959	0.4712	0.097
Mof_C 	C 	0.0806	0.98088	0.44773	0.142
Mof_C 	C 	0.0965	0.01262	0.41215	-0.196
Mof_H 	H 	0.0652	0.0536	0.4105	0.116
Mof_C 	C 	0.1579	0.98441	0.37928	0.118
Mof_H 	H 	0.1649	0.0068	0.3556	-0.005
Mof_C 	C 	0.017	0.01258	0.48268	-0.091
Mof_H 	H 	0.9992	0.0544	0.4802	0.068
Mof_C 	C 	0.1385	0.46908	0.22492	0.378
Mof_C 	C 	0.0924	0.4898	0.2661	-0.151
Mof_C 	C 	0.1144	0.5496	0.27804	0.091
Mof_H 	H 	0.1531	0.5781	0.2599	0.009
Mof_C 	C 	0.0799	0.5678	0.31649	-0.168
Mof_H 	H 	0.0948	0.6082	0.3246	0.093
Mof_C 	C 	0.0235	0.52519	0.34212	0.114
Mof_C 	C 	0.0297	0.45084	0.29415	0.095
Mof_H 	H 	0.0112	0.4104	0.2866	0.017
Mof_C 	C 	0.9329	0.6753	0.39861	0.13
Mof_C 	C 	0.983	0.73096	0.40784	-0.198
Mof_H 	H 	0.0977	0.7389	0.4197	0.101
Mof_C 	C 	0.8669	0.7762	0.40003	0.109
Mof_H 	H 	0.9013	0.8157	0.4073	0.004
Mof_C 	C 	0.696	0.76653	0.38134	-0.151
Mof_C 	C 	0.6496	0.70704	0.37279	0.091
Mof_H 	H 	0.5354	0.6983	0.361	0.017
Mof_C 	C 	0.5722	0.81832	0.37037	0.361
Mof_C 	C 	0.9703	0.49	0.0164	-0.034
Mof_H 	H 	0.9511	0.449	0.0217	0.039
Mof_Zn	Zn	0.24405	0.86088	0.66591	1.208
Mof_Zn	Zn	0.79255	0.62059	0.83268	1.208
Mof_O 	O 	0.1044	0.78714	0.65099	-0.456
Mof_O 	O 	0.9309	0.84642	0.61106	-0.333
Mof_O 	O 	0.3246	0.39344	0.78287	-0.48
Mof_O 	O 	0.3249	0.48949	0.80226	-0.325
Mof_O 	O 	0.9307	0.69365	0.84838	-0.465
Mof_O 	O 	0.1141	0.62994	0.88268	-0.331
Mof_O 	O 	0.6382	0.08789	0.7185	-0.479
Mof_O 	O 	0.6769	0.99238	0.70052	-0.327
Mof_S 	S 	0.59908	0.88221	0.90937	-0.034
Mof_S 	S 	0.41534	0.60268	0.59668	-0.006
Mof_S 	S 	0.51672	0.51865	0.60896	-0.027
Mof_S 	S 	0.47819	0.96199	0.89345	-0.008
Mof_N 	N 	0.46	0.54716	0.68812	-0.138
Mof_N 	N 	0.5515	0.71025	0.59225	-0.139
Mof_N 	N 	0.3218	0.90683	0.61791	-0.282
Mof_N 	N 	0.4782	0.81341	0.68384	-0.264
Mof_N 	N 	0.5576	0.66806	0.81428	-0.262
Mof_N 	N 	0.7085	0.57409	0.87976	-0.285
Mof_N 	N 	0.4934	0.03264	0.8317	-0.14
Mof_N 	N 	0.2676	0.83925	0.88118	-0.141
Mof_C 	C 	0.9672	0.79671	0.62657	0.364
Mof_C 	C 	0.8449	0.74392	0.61726	-0.144
Mof_C 	C 	0.6764	0.75332	0.59836	0.091
Mof_H 	H 	0.6475	0.7924	0.5892	0.018
Mof_C 	C 	0.8884	0.6845	0.62825	0.091
Mof_H 	H 	0.0019	0.6755	0.6403	0.021
Mof_C 	C 	0.7652	0.63923	0.6215	-0.169
Mof_H 	H 	0.7939	0.5991	0.6283	0.105
Mof_C 	C 	0.5987	0.65415	0.60445	0.116
Mof_C 	C 	0.4724	0.50293	0.66002	0.133
Mof_C 	C 	0.4579	0.44394	0.66813	-0.198
Mof_H 	H 	0.4749	0.4149	0.6483	0.111
Mof_C 	C 	0.4185	0.42694	0.70525	0.123
Mof_H 	H 	0.4061	0.3857	0.7106	0
Mof_C 	C 	0.3959	0.46792	0.73552	-0.161
Mof_C 	C 	0.4207	0.52879	0.72606	0.097
Mof_H 	H 	0.4104	0.5581	0.7461	0.012
Mof_C 	C 	0.3453	0.45038	0.77708	0.382
Mof_C 	C 	0.3489	0.8725	0.58514	0.106
Mof_H 	H 	0.3278	0.8308	0.5865	-0.024
Mof_C 	C 	0.4049	0.8954	0.55045	-0.184
Mof_H 	H 	0.424	0.8694	0.529	0.097
Mof_C 	C 	0.434	0.9567	0.54666	0.127
Mof_C 	C 	0.4041	0.9925	0.57977	-0.179
Mof_H 	H 	0.4206	0.0344	0.5784	0.108
Mof_C 	C 	0.3501	0.96688	0.61491	0.107
Mof_H 	H 	0.333	0.9919	0.637	-0.002
Mof_C 	C 	0.4987	0.9714	0.5058	-0.034
Mof_H 	H 	0.5358	0.9406	0.4892	0.014
Mof_C 	C 	0.6277	0.84478	0.69413	0.098
Mof_H 	H 	0.6281	0.8862	0.6884	-0.007
Mof_C 	C 	0.7807	0.81932	0.71271	-0.181
Mof_H 	H 	0.8806	0.8434	0.7195	0.101
Mof_C 	C 	0.7854	0.75729	0.72127	0.134
Mof_C 	C 	0.6328	0.72407	0.709	-0.182
Mof_H 	H 	0.6308	0.6822	0.7131	0.103
Mof_C 	C 	0.4839	0.75327	0.69072	0.107
Mof_H 	H 	0.3831	0.7302	0.6828	-0.001
Mof_C 	C 	0.9405	0.72736	0.74315	-0.093
Mof_H 	H 	0.9278	0.6865	0.7497	0.068
Mof_C 	C 	0.0959	0.75285	0.75445	-0.085
Mof_H 	H 	0.1086	0.7937	0.7477	0.064
Mof_C 	C 	0.2502	0.72347	0.77645	0.13
Mof_C 	C 	0.4038	0.75617	0.78796	-0.178
Mof_H 	H 	0.4054	0.7979	0.7833	0.095
Mof_C 	C 	0.5539	0.72829	0.80619	0.101
Mof_H 	H 	0.6556	0.7515	0.8131	-0.006
Mof_C 	C 	0.4066	0.637	0.8056	0.1
Mof_H 	H 	0.4052	0.596	0.8127	-0.006
Mof_C 	C 	0.2535	0.66182	0.78689	-0.176
Mof_H 	H 	0.1525	0.6378	0.7812	0.102
Mof_C 	C 	0.6962	0.60531	0.91448	0.108
Mof_H 	H 	0.7332	0.6457	0.9156	-0.031
Mof_C 	C 	0.6318	0.58041	0.94813	-0.187
Mof_H 	H 	0.622	0.6041	0.9712	0.098
Mof_C 	C 	0.5806	0.51912	0.94773	0.144
Mof_C 	C 	0.5965	0.48738	0.91215	-0.198
Mof_H 	H 	0.5652	0.4464	0.9105	0.117
Mof_C 	C 	0.6579	0.51559	0.87928	0.12
Mof_H 	H 	0.6649	0.4932	0.8556	-0.006
Mof_C 	C 	0.517	0.48742	0.98268	-0.092
Mof_H 	H 	0.4992	0.4456	0.9802	0.068
Mof_C 	C 	0.6385	0.03092	0.72492	0.378
Mof_C 	C 	0.5924	0.0102	0.7661	-0.153
Mof_C 	C 	0.6144	0.9504	0.77804	0.093
Mof_H 	H 	0.6531	0.9219	0.7599	0.008
Mof_C 	C 	0.5799	0.9322	0.81649	-0.17
Mof_H 	H 	0.5948	0.8918	0.8246	0.094
Mof_C 	C 	0.5235	0.97481	0.84212	0.117
Mof_C 	C 	0.5297	0.04916	0.79415	0.098
Mof_H 	H 	0.5112	0.0896	0.7866	0.016
Mof_C 	C 	0.4329	0.8247	0.89861	0.13
Mof_C 	C 	0.483	0.76904	0.90784	-0.201
Mof_H 	H 	0.5977	0.7611	0.9197	0.103
Mof_C 	C 	0.3669	0.7238	0.90003	0.111
Mof_H 	H 	0.4013	0.6843	0.9073	0.003
Mof_C 	C 	0.196	0.73347	0.88134	-0.152
Mof_C 	C 	0.1496	0.79296	0.87279	0.092
Mof_H 	H 	0.0354	0.8017	0.861	0.017
Mof_C 	C 	0.0722	0.68168	0.87037	0.363
Mof_C 	C 	0.4703	0.01	0.5164	-0.034
Mof_H 	H 	0.4511	0.051	0.5217	0.039
Mof_Zn	Zn	0.25595	0.36088	0.83409	1.208
Mof_Zn	Zn	0.70745	0.12059	0.66732	1.208
Mof_O 	O 	0.3956	0.28714	0.84901	-0.457
Mof_O 	O 	0.5691	0.34642	0.88894	-0.333
Mof_O 	O 	0.1754	0.89344	0.71713	-0.48
Mof_O 	O 	0.1751	0.98949	0.69774	-0.325
Mof_O 	O 	0.5693	0.19365	0.65162	-0.464
Mof_O 	O 	0.3859	0.12994	0.61732	-0.331
Mof_O 	O 	0.8618	0.58789	0.7815	-0.479
Mof_O 	O 	0.8231	0.49238	0.79948	-0.327
Mof_S 	S 	0.90092	0.38221	0.59063	-0.036
Mof_S 	S 	0.08466	0.10268	0.90332	-0.004
Mof_S 	S 	0.98328	0.01865	0.89104	-0.029
Mof_S 	S 	0.02181	0.46199	0.60655	-0.005
Mof_N 	N 	0.04	0.04716	0.81188	-0.138
Mof_N 	N 	0.9485	0.21025	0.90775	-0.139
Mof_N 	N 	0.1782	0.40683	0.88209	-0.282
Mof_N 	N 	0.0218	0.31341	0.81616	-0.263
Mof_N 	N 	0.9424	0.16806	0.68572	-0.263
Mof_N 	N 	0.7915	0.07409	0.62024	-0.285
Mof_N 	N 	0.0066	0.53264	0.6683	-0.138
Mof_N 	N 	0.2324	0.33925	0.61882	-0.141
Mof_C 	C 	0.5328	0.29671	0.87343	0.365
Mof_C 	C 	0.6551	0.24392	0.88274	-0.146
Mof_C 	C 	0.8236	0.25332	0.90164	0.092
Mof_H 	H 	0.8525	0.2924	0.9108	0.018
Mof_C 	C 	0.6116	0.1845	0.87175	0.095
Mof_H 	H 	0.4981	0.1755	0.8597	0.019
Mof_C 	C 	0.7348	0.13923	0.8785	-0.17
Mof_H 	H 	0.7061	0.0991	0.8717	0.106
Mof_C 	C 	0.9013	0.15415	0.89555	0.116
Mof_C 	C 	0.0276	0.00293	0.83998	0.134
Mof_C 	C 	0.0421	0.94394	0.83187	-0.2
Mof_H 	H 	0.0251	0.9149	0.8517	0.112
Mof_C 	C 	0.0815	0.92694	0.79475	0.124
Mof_H 	H 	0.0939	0.8857	0.7894	-0
Mof_C 	C 	0.1041	0.96792	0.76448	-0.162
Mof_C 	C 	0.0793	0.02879	0.77394	0.098
Mof_H 	H 	0.0896	0.0581	0.7539	0.012
Mof_C 	C 	0.1547	0.95038	0.72292	0.382
Mof_C 	C 	0.1511	0.3725	0.91486	0.106
Mof_H 	H 	0.1722	0.3308	0.9135	-0.024
Mof_C 	C 	0.0951	0.3954	0.94955	-0.184
Mof_H 	H 	0.076	0.3694	0.971	0.097
Mof_C 	C 	0.066	0.4567	0.95334	0.127
Mof_C 	C 	0.0959	0.4925	0.92023	-0.179
Mof_H 	H 	0.0794	0.5344	0.9216	0.108
Mof_C 	C 	0.1499	0.46688	0.88509	0.107
Mof_H 	H 	0.167	0.4919	0.863	-0.002
Mof_C 	C 	0.0013	0.4714	0.9942	-0.035
Mof_H 	H 	0.9642	0.4406	0.0108	0.013
Mof_C 	C 	0.8723	0.34478	0.80587	0.096
Mof_H 	H 	0.8719	0.3862	0.8116	-0.007
Mof_C 	C 	0.7193	0.31932	0.78729	-0.181
Mof_H 	H 	0.6194	0.3434	0.7805	0.102
Mof_C 	C 	0.7146	0.25729	0.77873	0.134
Mof_C 	C 	0.8672	0.22407	0.791	-0.185
Mof_H 	H 	0.8692	0.1822	0.7869	0.103
Mof_C 	C 	0.0161	0.25327	0.80928	0.11
Mof_H 	H 	0.1169	0.2302	0.8172	-0.002
Mof_C 	C 	0.5595	0.22736	0.75685	-0.092
Mof_H 	H 	0.5722	0.1865	0.7503	0.067
Mof_C 	C 	0.4041	0.25285	0.74555	-0.087
Mof_H 	H 	0.3914	0.2937	0.7523	0.065
Mof_C 	C 	0.2498	0.22347	0.72355	0.13
Mof_C 	C 	0.0962	0.25617	0.71204	-0.175
Mof_H 	H 	0.0946	0.2979	0.7167	0.095
Mof_C 	C 	0.9461	0.22829	0.69381	0.098
Mof_H 	H 	0.8444	0.2515	0.6869	-0.005
Mof_C 	C 	0.0934	0.137	0.6944	0.102
Mof_H 	H 	0.0948	0.096	0.6873	-0.006
Mof_C 	C 	0.2465	0.16182	0.71311	-0.177
Mof_H 	H 	0.3475	0.1378	0.7188	0.102
Mof_C 	C 	0.8038	0.10531	0.58552	0.107
Mof_H 	H 	0.7668	0.1457	0.5844	-0.03
Mof_C 	C 	0.8682	0.08041	0.55187	-0.186
Mof_H 	H 	0.878	0.1041	0.5288	0.097
Mof_C 	C 	0.9194	0.01912	0.55227	0.142
Mof_C 	C 	0.9035	0.98738	0.58785	-0.196
Mof_H 	H 	0.9348	0.9464	0.5895	0.116
Mof_C 	C 	0.8421	0.01559	0.62072	0.118
Mof_H 	H 	0.8351	0.9932	0.6444	-0.005
Mof_C 	C 	0.983	0.98742	0.51732	-0.091
Mof_H 	H 	0.0008	0.9456	0.5198	0.068
Mof_C 	C 	0.8615	0.53092	0.77508	0.378
Mof_C 	C 	0.9076	0.5102	0.7339	-0.151
Mof_C 	C 	0.8856	0.4504	0.72196	0.091
Mof_H 	H 	0.8469	0.4219	0.7401	0.009
Mof_C 	C 	0.9201	0.4322	0.68351	-0.168
Mof_H 	H 	0.9052	0.3918	0.6754	0.093
Mof_C 	C 	0.9765	0.47481	0.65788	0.114
Mof_C 	C 	0.9703	0.54916	0.70585	0.095
Mof_H 	H 	0.9888	0.5896	0.7134	0.017
Mof_C 	C 	0.0671	0.3247	0.60139	0.13
Mof_C 	C 	0.017	0.26904	0.59216	-0.198
Mof_H 	H 	0.9023	0.2611	0.5803	0.101
Mof_C 	C 	0.1331	0.2238	0.59997	0.109
Mof_H 	H 	0.0987	0.1843	0.5927	0.004
Mof_C 	C 	0.304	0.23347	0.61866	-0.151
Mof_C 	C 	0.3504	0.29296	0.62721	0.091
Mof_H 	H 	0.4646	0.3017	0.639	0.017
Mof_C 	C 	0.4278	0.18168	0.62963	0.361
Mof_C 	C 	0.0297	0.51	0.9836	-0.034
Mof_H 	H 	0.0489	0.551	0.9783	0.039
_end
