# CIF file generated by openbabel 3.1.0, see https://openbabel.org
data_I
_chemical_name_common 'image0'
_cell_length_a 31.28
_cell_length_b 14.735
_cell_length_c 28.51
_cell_angle_alpha 90
_cell_angle_beta 120.13
_cell_angle_gamma 90
_space_group_name_H-M_alt 'P 1'
_space_group_name_Hall 'P 1'
loop_
    _symmetry_equiv_pos_as_xyz
    x,y,z
loop_
    _atom_site_label
    _atom_site_type_symbol
    _atom_site_fract_x
    _atom_site_fract_y
    _atom_site_fract_z
    _atom_site_occupancy
    Dy1      Dy       0.23194    0.88217    0.51246    1.000
    C1       C        0.19120    0.02870    0.12780    1.000
    C2       C        0.22660    0.03980    0.18440    1.000
    C3       C        0.16800    0.98160    0.20770    1.000
    C4       C        0.14560    0.99590    0.11300    1.000
    H1       H        0.12280    0.98800    0.07630    1.000
    C5       C        0.21610    0.01200    0.22380    1.000
    C6       C        0.13180    0.97390    0.15130    1.000
    C7       C        0.15220    0.95960    0.24580    1.000
    H2       H        0.17420    0.96560    0.28280    1.000
    C8       C        0.10500    0.92990    0.22790    1.000
    H3       H        0.09590    0.91430    0.25330    1.000
    C9       C        0.07030    0.92230    0.17320    1.000
    H4       H        0.03840    0.90240    0.16230    1.000
    O1       O        0.27090    0.07690    0.19960    1.000
    H5       H        0.26960    0.10410    0.17380    1.000
    C10      C        0.08250    0.79260    0.32970    1.000
    H6       H        0.99990    0.86730    0.27740    1.000
    C11      C        0.16470    0.76230    0.41410    1.000
    C12      C        0.05670    0.70680    0.24810    1.000
    C13      C        0.04740    0.77360    0.27630    1.000
    C14      C        0.12640    0.74000    0.35710    1.000
    C15      C        0.13390    0.67050    0.33160    1.000
    H7       H        0.16160    0.63380    0.35050    1.000
    C16      C        0.09980    0.65230    0.27600    1.000
    C17      C        0.02540    0.69020    0.19190    1.000
    H8       H        0.99740    0.72580    0.17230    1.000
    C18      C        0.03550    0.62340    0.16610    1.000
    H9       H        0.01480    0.61480    0.12910    1.000
    C19      C        0.07760    0.56600    0.19540    1.000
    H10      H        0.08340    0.51850    0.17790    1.000
    O2       O        0.07330    0.86070    0.35490    1.000
    H11      H        0.09960    0.88210    0.37860    1.000
    C20      C        0.30300    0.87110    0.30190    1.000
    C21      C        0.31430    0.88640    0.26020    1.000
    H12      H        0.30400    0.93960    0.23990    1.000
    C22      C        0.35620    0.74350    0.27780    1.000
    H13      H        0.37300    0.70080    0.26900    1.000
    C23      C        0.32060    0.78960    0.33160    1.000
    C24      C        0.34730    0.72700    0.31890    1.000
    H14      H        0.35890    0.67370    0.33890    1.000
    C25      C        0.34090    0.82160    0.24970    1.000
    H15      H        0.34830    0.83270    0.22240    1.000
    C26      C        0.28820    0.83470    0.38930    1.000
    C27      C        0.26980    0.91550    0.35870    1.000
    C28      C        0.27530    0.93340    0.31410    1.000
    C29      C        0.31270    0.77370    0.37540    1.000
    H16      H        0.32450    0.72040    0.39530    1.000
    O3       O        0.15910    0.83500    0.43410    1.000
    O4       O        0.24530    0.97750    0.37180    1.000
    H17      H        0.23840    0.95510    0.39350    1.000
    C30      C        0.25490    0.02170    0.28260    1.000
    H18      H        0.24110    0.05710    0.30050    1.000
    H19      H        0.28230    0.05610    0.28470    1.000
    C31      C        0.28110    0.81400    0.43610    1.000
    C32      C        0.20530    0.05070    0.08660    1.000
    O5       O        0.24880    0.07820    0.10170    1.000
    O6       O        0.17380    0.04640    0.03650    1.000
    O7       O        0.25940    0.87170    0.44910    1.000
    O8       O        0.29690    0.73930    0.45940    1.000
    O9       O        0.20080    0.71130    0.43880    1.000
    C33      C        0.08310    0.94410    0.13610    1.000
    H20      H        0.05960    0.93970    0.09940    1.000
    C34      C        0.10850    0.58100    0.24790    1.000
    H21      H        0.13620    0.54430    0.26670    1.000
    Dy2      Dy       0.73194    0.38217    0.51246    1.000
    C35      C        0.69120    0.52870    0.12780    1.000
    C36      C        0.72660    0.53980    0.18440    1.000
    C37      C        0.66800    0.48160    0.20770    1.000
    C38      C        0.64560    0.49590    0.11300    1.000
    H22      H        0.62280    0.48800    0.07630    1.000
    C39      C        0.71610    0.51200    0.22380    1.000
    C40      C        0.63180    0.47390    0.15130    1.000
    C41      C        0.65220    0.45960    0.24580    1.000
    H23      H        0.67420    0.46560    0.28280    1.000
    C42      C        0.60500    0.42990    0.22790    1.000
    H24      H        0.59590    0.41430    0.25330    1.000
    C43      C        0.57030    0.42230    0.17320    1.000
    H25      H        0.53840    0.40240    0.16230    1.000
    O10      O        0.77090    0.57690    0.19960    1.000
    H26      H        0.76960    0.60410    0.17380    1.000
    C44      C        0.58250    0.29260    0.32970    1.000
    H27      H        0.49990    0.36730    0.27740    1.000
    C45      C        0.66470    0.26230    0.41410    1.000
    C46      C        0.55670    0.20680    0.24810    1.000
    C47      C        0.54740    0.27360    0.27630    1.000
    C48      C        0.62640    0.24000    0.35710    1.000
    C49      C        0.63390    0.17050    0.33160    1.000
    H28      H        0.66160    0.13380    0.35050    1.000
    C50      C        0.59980    0.15230    0.27600    1.000
    C51      C        0.52540    0.19020    0.19190    1.000
    H29      H        0.49740    0.22580    0.17230    1.000
    C52      C        0.53550    0.12340    0.16610    1.000
    H30      H        0.51480    0.11480    0.12910    1.000
    C53      C        0.57760    0.06600    0.19540    1.000
    H31      H        0.58340    0.01850    0.17790    1.000
    O11      O        0.57330    0.36070    0.35490    1.000
    H32      H        0.59960    0.38210    0.37860    1.000
    C54      C        0.80300    0.37110    0.30190    1.000
    C55      C        0.81430    0.38640    0.26020    1.000
    H33      H        0.80400    0.43960    0.23990    1.000
    C56      C        0.85620    0.24350    0.27780    1.000
    H34      H        0.87300    0.20080    0.26900    1.000
    C57      C        0.82060    0.28960    0.33160    1.000
    C58      C        0.84730    0.22700    0.31890    1.000
    H35      H        0.85890    0.17370    0.33890    1.000
    C59      C        0.84090    0.32160    0.24970    1.000
    H36      H        0.84830    0.33270    0.22240    1.000
    C60      C        0.78820    0.33470    0.38930    1.000
    C61      C        0.76980    0.41550    0.35870    1.000
    C62      C        0.77530    0.43340    0.31410    1.000
    C63      C        0.81270    0.27370    0.37540    1.000
    H37      H        0.82450    0.22040    0.39530    1.000
    O12      O        0.65910    0.33500    0.43410    1.000
    O13      O        0.74530    0.47750    0.37180    1.000
    H38      H        0.73840    0.45510    0.39350    1.000
    C64      C        0.75490    0.52170    0.28260    1.000
    H39      H        0.74110    0.55710    0.30050    1.000
    H40      H        0.78230    0.55610    0.28470    1.000
    C65      C        0.78110    0.31400    0.43610    1.000
    C66      C        0.70530    0.55070    0.08660    1.000
    O14      O        0.74880    0.57820    0.10170    1.000
    O15      O        0.67380    0.54640    0.03650    1.000
    O16      O        0.75940    0.37170    0.44910    1.000
    O17      O        0.79690    0.23930    0.45940    1.000
    O18      O        0.70080    0.21130    0.43880    1.000
    C67      C        0.58310    0.44410    0.13610    1.000
    H41      H        0.55960    0.43970    0.09940    1.000
    C68      C        0.60850    0.08100    0.24790    1.000
    H42      H        0.63620    0.04430    0.26670    1.000
    Dy3      Dy       0.76806    0.88217    0.98754    1.000
    C69      C        0.80880    0.02870    0.37220    1.000
    C70      C        0.77340    0.03980    0.31560    1.000
    C71      C        0.83200    0.98160    0.29230    1.000
    C72      C        0.85440    0.99590    0.38700    1.000
    H43      H        0.87720    0.98800    0.42370    1.000
    C73      C        0.78390    0.01200    0.27620    1.000
    C74      C        0.86820    0.97390    0.34870    1.000
    C75      C        0.84780    0.95960    0.25420    1.000
    H44      H        0.82580    0.96560    0.21720    1.000
    C76      C        0.89500    0.92990    0.27210    1.000
    H45      H        0.90410    0.91430    0.24670    1.000
    C77      C        0.92970    0.92230    0.32680    1.000
    H46      H        0.96160    0.90240    0.33770    1.000
    O19      O        0.72910    0.07690    0.30040    1.000
    H47      H        0.73040    0.10410    0.32620    1.000
    C78      C        0.91750    0.79260    0.17030    1.000
    H48      H        0.00010    0.86730    0.22260    1.000
    C79      C        0.83530    0.76230    0.08590    1.000
    C80      C        0.94330    0.70680    0.25190    1.000
    C81      C        0.95260    0.77360    0.22370    1.000
    C82      C        0.87360    0.74000    0.14290    1.000
    C83      C        0.86610    0.67050    0.16840    1.000
    H49      H        0.83840    0.63380    0.14950    1.000
    C84      C        0.90020    0.65230    0.22400    1.000
    C85      C        0.97460    0.69020    0.30810    1.000
    H50      H        0.00260    0.72580    0.32770    1.000
    C86      C        0.96450    0.62340    0.33390    1.000
    H51      H        0.98520    0.61480    0.37090    1.000
    C87      C        0.92240    0.56600    0.30460    1.000
    H52      H        0.91660    0.51850    0.32210    1.000
    O20      O        0.92670    0.86070    0.14510    1.000
    H53      H        0.90040    0.88210    0.12140    1.000
    C88      C        0.69700    0.87110    0.19810    1.000
    C89      C        0.68570    0.88640    0.23980    1.000
    H54      H        0.69600    0.93960    0.26010    1.000
    C90      C        0.64380    0.74350    0.22220    1.000
    H55      H        0.62700    0.70080    0.23100    1.000
    C91      C        0.67940    0.78960    0.16840    1.000
    C92      C        0.65270    0.72700    0.18110    1.000
    H56      H        0.64110    0.67370    0.16110    1.000
    C93      C        0.65910    0.82160    0.25030    1.000
    H57      H        0.65170    0.83270    0.27760    1.000
    C94      C        0.71180    0.83470    0.11070    1.000
    C95      C        0.73020    0.91550    0.14130    1.000
    C96      C        0.72470    0.93340    0.18590    1.000
    C97      C        0.68730    0.77370    0.12460    1.000
    H58      H        0.67550    0.72040    0.10470    1.000
    O21      O        0.84090    0.83500    0.06590    1.000
    O22      O        0.75470    0.97750    0.12820    1.000
    H59      H        0.76160    0.95510    0.10650    1.000
    C98      C        0.74510    0.02170    0.21740    1.000
    H60      H        0.75890    0.05710    0.19950    1.000
    H61      H        0.71770    0.05610    0.21530    1.000
    C99      C        0.71890    0.81400    0.06390    1.000
    C100     C        0.79470    0.05070    0.41340    1.000
    O23      O        0.75120    0.07820    0.39830    1.000
    O24      O        0.82620    0.04640    0.46350    1.000
    O25      O        0.74060    0.87170    0.05090    1.000
    O26      O        0.70310    0.73930    0.04060    1.000
    O27      O        0.79920    0.71130    0.06120    1.000
    C101     C        0.91690    0.94410    0.36390    1.000
    H62      H        0.94040    0.93970    0.40060    1.000
    C102     C        0.89150    0.58100    0.25210    1.000
    H63      H        0.86380    0.54430    0.23330    1.000
    Dy4      Dy       0.26806    0.38217    0.98754    1.000
    C103     C        0.30880    0.52870    0.37220    1.000
    C104     C        0.27340    0.53980    0.31560    1.000
    C105     C        0.33200    0.48160    0.29230    1.000
    C106     C        0.35440    0.49590    0.38700    1.000
    H64      H        0.37720    0.48800    0.42370    1.000
    C107     C        0.28390    0.51200    0.27620    1.000
    C108     C        0.36820    0.47390    0.34870    1.000
    C109     C        0.34780    0.45960    0.25420    1.000
    H65      H        0.32580    0.46560    0.21720    1.000
    C110     C        0.39500    0.42990    0.27210    1.000
    H66      H        0.40410    0.41430    0.24670    1.000
    C111     C        0.42970    0.42230    0.32680    1.000
    H67      H        0.46160    0.40240    0.33770    1.000
    O28      O        0.22910    0.57690    0.30040    1.000
    H68      H        0.23040    0.60410    0.32620    1.000
    C112     C        0.41750    0.29260    0.17030    1.000
    H69      H        0.50010    0.36730    0.22260    1.000
    C113     C        0.33530    0.26230    0.08590    1.000
    C114     C        0.44330    0.20680    0.25190    1.000
    C115     C        0.45260    0.27360    0.22370    1.000
    C116     C        0.37360    0.24000    0.14290    1.000
    C117     C        0.36610    0.17050    0.16840    1.000
    H70      H        0.33840    0.13380    0.14950    1.000
    C118     C        0.40020    0.15230    0.22400    1.000
    C119     C        0.47460    0.19020    0.30810    1.000
    H71      H        0.50260    0.22580    0.32770    1.000
    C120     C        0.46450    0.12340    0.33390    1.000
    H72      H        0.48520    0.11480    0.37090    1.000
    C121     C        0.42240    0.06600    0.30460    1.000
    H73      H        0.41660    0.01850    0.32210    1.000
    O29      O        0.42670    0.36070    0.14510    1.000
    H74      H        0.40040    0.38210    0.12140    1.000
    C122     C        0.19700    0.37110    0.19810    1.000
    C123     C        0.18570    0.38640    0.23980    1.000
    H75      H        0.19600    0.43960    0.26010    1.000
    C124     C        0.14380    0.24350    0.22220    1.000
    H76      H        0.12700    0.20080    0.23100    1.000
    C125     C        0.17940    0.28960    0.16840    1.000
    C126     C        0.15270    0.22700    0.18110    1.000
    H77      H        0.14110    0.17370    0.16110    1.000
    C127     C        0.15910    0.32160    0.25030    1.000
    H78      H        0.15170    0.33270    0.27760    1.000
    C128     C        0.21180    0.33470    0.11070    1.000
    C129     C        0.23020    0.41550    0.14130    1.000
    C130     C        0.22470    0.43340    0.18590    1.000
    C131     C        0.18730    0.27370    0.12460    1.000
    H79      H        0.17550    0.22040    0.10470    1.000
    O30      O        0.34090    0.33500    0.06590    1.000
    O31      O        0.25470    0.47750    0.12820    1.000
    H80      H        0.26160    0.45510    0.10650    1.000
    C132     C        0.24510    0.52170    0.21740    1.000
    H81      H        0.25890    0.55710    0.19950    1.000
    H82      H        0.21770    0.55610    0.21530    1.000
    C133     C        0.21890    0.31400    0.06390    1.000
    C134     C        0.29470    0.55070    0.41340    1.000
    O32      O        0.25120    0.57820    0.39830    1.000
    O33      O        0.32620    0.54640    0.46350    1.000
    O34      O        0.24060    0.37170    0.05090    1.000
    O35      O        0.20310    0.23930    0.04060    1.000
    O36      O        0.29920    0.21130    0.06120    1.000
    C135     C        0.41690    0.44410    0.36390    1.000
    H83      H        0.44040    0.43970    0.40060    1.000
    C136     C        0.39150    0.08100    0.25210    1.000
    H84      H        0.36380    0.04430    0.23330    1.000
    Dy5      Dy       0.76806    0.11783    0.48754    1.000
    C137     C        0.80880    0.97130    0.87220    1.000
    C138     C        0.77340    0.96020    0.81560    1.000
    C139     C        0.83200    0.01840    0.79230    1.000
    C140     C        0.85440    0.00410    0.88700    1.000
    H85      H        0.87720    0.01200    0.92370    1.000
    C141     C        0.78390    0.98800    0.77620    1.000
    C142     C        0.86820    0.02610    0.84870    1.000
    C143     C        0.84780    0.04040    0.75420    1.000
    H86      H        0.82580    0.03440    0.71720    1.000
    C144     C        0.89500    0.07010    0.77210    1.000
    H87      H        0.90410    0.08570    0.74670    1.000
    C145     C        0.92970    0.07770    0.82680    1.000
    H88      H        0.96160    0.09760    0.83770    1.000
    O37      O        0.72910    0.92310    0.80040    1.000
    H89      H        0.73040    0.89590    0.82620    1.000
    C146     C        0.91750    0.20740    0.67030    1.000
    H90      H        0.00010    0.13270    0.72260    1.000
    C147     C        0.83530    0.23770    0.58590    1.000
    C148     C        0.94330    0.29320    0.75190    1.000
    C149     C        0.95260    0.22640    0.72370    1.000
    C150     C        0.87360    0.26000    0.64290    1.000
    C151     C        0.86610    0.32950    0.66840    1.000
    H91      H        0.83840    0.36620    0.64950    1.000
    C152     C        0.90020    0.34770    0.72400    1.000
    C153     C        0.97460    0.30980    0.80810    1.000
    H92      H        0.00260    0.27420    0.82770    1.000
    C154     C        0.96450    0.37660    0.83390    1.000
    H93      H        0.98520    0.38520    0.87090    1.000
    C155     C        0.92240    0.43400    0.80460    1.000
    H94      H        0.91660    0.48150    0.82210    1.000
    O38      O        0.92670    0.13930    0.64510    1.000
    H95      H        0.90040    0.11790    0.62140    1.000
    C156     C        0.69700    0.12890    0.69810    1.000
    C157     C        0.68570    0.11360    0.73980    1.000
    H96      H        0.69600    0.06040    0.76010    1.000
    C158     C        0.64380    0.25650    0.72220    1.000
    H97      H        0.62700    0.29920    0.73100    1.000
    C159     C        0.67940    0.21040    0.66840    1.000
    C160     C        0.65270    0.27300    0.68110    1.000
    H98      H        0.64110    0.32630    0.66110    1.000
    C161     C        0.65910    0.17840    0.75030    1.000
    H99      H        0.65170    0.16730    0.77760    1.000
    C162     C        0.71180    0.16530    0.61070    1.000
    C163     C        0.73020    0.08450    0.64130    1.000
    C164     C        0.72470    0.06660    0.68590    1.000
    C165     C        0.68730    0.22630    0.62460    1.000
    H100     H        0.67550    0.27960    0.60470    1.000
    O39      O        0.84090    0.16500    0.56590    1.000
    O40      O        0.75470    0.02250    0.62820    1.000
    H101     H        0.76160    0.04490    0.60650    1.000
    C166     C        0.74510    0.97830    0.71740    1.000
    H102     H        0.75890    0.94290    0.69950    1.000
    H103     H        0.71770    0.94390    0.71530    1.000
    C167     C        0.71890    0.18600    0.56390    1.000
    C168     C        0.79470    0.94930    0.91340    1.000
    O41      O        0.75120    0.92180    0.89830    1.000
    O42      O        0.82620    0.95360    0.96350    1.000
    O43      O        0.74060    0.12830    0.55090    1.000
    O44      O        0.70310    0.26070    0.54060    1.000
    O45      O        0.79920    0.28870    0.56120    1.000
    C169     C        0.91690    0.05590    0.86390    1.000
    H104     H        0.94040    0.06030    0.90060    1.000
    C170     C        0.89150    0.41900    0.75210    1.000
    H105     H        0.86380    0.45570    0.73330    1.000
    Dy6      Dy       0.26806    0.61783    0.48754    1.000
    C171     C        0.30880    0.47130    0.87220    1.000
    C172     C        0.27340    0.46020    0.81560    1.000
    C173     C        0.33200    0.51840    0.79230    1.000
    C174     C        0.35440    0.50410    0.88700    1.000
    H106     H        0.37720    0.51200    0.92370    1.000
    C175     C        0.28390    0.48800    0.77620    1.000
    C176     C        0.36820    0.52610    0.84870    1.000
    C177     C        0.34780    0.54040    0.75420    1.000
    H107     H        0.32580    0.53440    0.71720    1.000
    C178     C        0.39500    0.57010    0.77210    1.000
    H108     H        0.40410    0.58570    0.74670    1.000
    C179     C        0.42970    0.57770    0.82680    1.000
    H109     H        0.46160    0.59760    0.83770    1.000
    O46      O        0.22910    0.42310    0.80040    1.000
    H110     H        0.23040    0.39590    0.82620    1.000
    C180     C        0.41750    0.70740    0.67030    1.000
    H111     H        0.50010    0.63270    0.72260    1.000
    C181     C        0.33530    0.73770    0.58590    1.000
    C182     C        0.44330    0.79320    0.75190    1.000
    C183     C        0.45260    0.72640    0.72370    1.000
    C184     C        0.37360    0.76000    0.64290    1.000
    C185     C        0.36610    0.82950    0.66840    1.000
    H112     H        0.33840    0.86620    0.64950    1.000
    C186     C        0.40020    0.84770    0.72400    1.000
    C187     C        0.47460    0.80980    0.80810    1.000
    H113     H        0.50260    0.77420    0.82770    1.000
    C188     C        0.46450    0.87660    0.83390    1.000
    H114     H        0.48520    0.88520    0.87090    1.000
    C189     C        0.42240    0.93400    0.80460    1.000
    H115     H        0.41660    0.98150    0.82210    1.000
    O47      O        0.42670    0.63930    0.64510    1.000
    H116     H        0.40040    0.61790    0.62140    1.000
    C190     C        0.19700    0.62890    0.69810    1.000
    C191     C        0.18570    0.61360    0.73980    1.000
    H117     H        0.19600    0.56040    0.76010    1.000
    C192     C        0.14380    0.75650    0.72220    1.000
    H118     H        0.12700    0.79920    0.73100    1.000
    C193     C        0.17940    0.71040    0.66840    1.000
    C194     C        0.15270    0.77300    0.68110    1.000
    H119     H        0.14110    0.82630    0.66110    1.000
    C195     C        0.15910    0.67840    0.75030    1.000
    H120     H        0.15170    0.66730    0.77760    1.000
    C196     C        0.21180    0.66530    0.61070    1.000
    C197     C        0.23020    0.58450    0.64130    1.000
    C198     C        0.22470    0.56660    0.68590    1.000
    C199     C        0.18730    0.72630    0.62460    1.000
    H121     H        0.17550    0.77960    0.60470    1.000
    O48      O        0.34090    0.66500    0.56590    1.000
    O49      O        0.25470    0.52250    0.62820    1.000
    H122     H        0.26160    0.54490    0.60650    1.000
    C200     C        0.24510    0.47830    0.71740    1.000
    H123     H        0.25890    0.44290    0.69950    1.000
    H124     H        0.21770    0.44390    0.71530    1.000
    C201     C        0.21890    0.68600    0.56390    1.000
    C202     C        0.29470    0.44930    0.91340    1.000
    O50      O        0.25120    0.42180    0.89830    1.000
    O51      O        0.32620    0.45360    0.96350    1.000
    O52      O        0.24060    0.62830    0.55090    1.000
    O53      O        0.20310    0.76070    0.54060    1.000
    O54      O        0.29920    0.78870    0.56120    1.000
    C203     C        0.41690    0.55590    0.86390    1.000
    H125     H        0.44040    0.56030    0.90060    1.000
    C204     C        0.39150    0.91900    0.75210    1.000
    H126     H        0.36380    0.95570    0.73330    1.000
    Dy7      Dy       0.23194    0.11783    0.01246    1.000
    C205     C        0.19120    0.97130    0.62780    1.000
    C206     C        0.22660    0.96020    0.68440    1.000
    C207     C        0.16800    0.01840    0.70770    1.000
    C208     C        0.14560    0.00410    0.61300    1.000
    H127     H        0.12280    0.01200    0.57630    1.000
    C209     C        0.21610    0.98800    0.72380    1.000
    C210     C        0.13180    0.02610    0.65130    1.000
    C211     C        0.15220    0.04040    0.74580    1.000
    H128     H        0.17420    0.03440    0.78280    1.000
    C212     C        0.10500    0.07010    0.72790    1.000
    H129     H        0.09590    0.08570    0.75330    1.000
    C213     C        0.07030    0.07770    0.67320    1.000
    H130     H        0.03840    0.09760    0.66230    1.000
    O55      O        0.27090    0.92310    0.69960    1.000
    H131     H        0.26960    0.89590    0.67380    1.000
    C214     C        0.08250    0.20740    0.82970    1.000
    H132     H        0.99990    0.13270    0.77740    1.000
    C215     C        0.16470    0.23770    0.91410    1.000
    C216     C        0.05670    0.29320    0.74810    1.000
    C217     C        0.04740    0.22640    0.77630    1.000
    C218     C        0.12640    0.26000    0.85710    1.000
    C219     C        0.13390    0.32950    0.83160    1.000
    H133     H        0.16160    0.36620    0.85050    1.000
    C220     C        0.09980    0.34770    0.77600    1.000
    C221     C        0.02540    0.30980    0.69190    1.000
    H134     H        0.99740    0.27420    0.67230    1.000
    C222     C        0.03550    0.37660    0.66610    1.000
    H135     H        0.01480    0.38520    0.62910    1.000
    C223     C        0.07760    0.43400    0.69540    1.000
    H136     H        0.08340    0.48150    0.67790    1.000
    O56      O        0.07330    0.13930    0.85490    1.000
    H137     H        0.09960    0.11790    0.87860    1.000
    C224     C        0.30300    0.12890    0.80190    1.000
    C225     C        0.31430    0.11360    0.76020    1.000
    H138     H        0.30400    0.06040    0.73990    1.000
    C226     C        0.35620    0.25650    0.77780    1.000
    H139     H        0.37300    0.29920    0.76900    1.000
    C227     C        0.32060    0.21040    0.83160    1.000
    C228     C        0.34730    0.27300    0.81890    1.000
    H140     H        0.35890    0.32630    0.83890    1.000
    C229     C        0.34090    0.17840    0.74970    1.000
    H141     H        0.34830    0.16730    0.72240    1.000
    C230     C        0.28820    0.16530    0.88930    1.000
    C231     C        0.26980    0.08450    0.85870    1.000
    C232     C        0.27530    0.06660    0.81410    1.000
    C233     C        0.31270    0.22630    0.87540    1.000
    H142     H        0.32450    0.27960    0.89530    1.000
    O57      O        0.15910    0.16500    0.93410    1.000
    O58      O        0.24530    0.02250    0.87180    1.000
    H143     H        0.23840    0.04490    0.89350    1.000
    C234     C        0.25490    0.97830    0.78260    1.000
    H144     H        0.24110    0.94290    0.80050    1.000
    H145     H        0.28230    0.94390    0.78470    1.000
    C235     C        0.28110    0.18600    0.93610    1.000
    C236     C        0.20530    0.94930    0.58660    1.000
    O59      O        0.24880    0.92180    0.60170    1.000
    O60      O        0.17380    0.95360    0.53650    1.000
    O61      O        0.25940    0.12830    0.94910    1.000
    O62      O        0.29690    0.26070    0.95940    1.000
    O63      O        0.20080    0.28870    0.93880    1.000
    C237     C        0.08310    0.05590    0.63610    1.000
    H146     H        0.05960    0.06030    0.59940    1.000
    C238     C        0.10850    0.41900    0.74790    1.000
    H147     H        0.13620    0.45570    0.76670    1.000
    Dy8      Dy       0.73194    0.61783    0.01246    1.000
    C239     C        0.69120    0.47130    0.62780    1.000
    C240     C        0.72660    0.46020    0.68440    1.000
    C241     C        0.66800    0.51840    0.70770    1.000
    C242     C        0.64560    0.50410    0.61300    1.000
    H148     H        0.62280    0.51200    0.57630    1.000
    C243     C        0.71610    0.48800    0.72380    1.000
    C244     C        0.63180    0.52610    0.65130    1.000
    C245     C        0.65220    0.54040    0.74580    1.000
    H149     H        0.67420    0.53440    0.78280    1.000
    C246     C        0.60500    0.57010    0.72790    1.000
    H150     H        0.59590    0.58570    0.75330    1.000
    C247     C        0.57030    0.57770    0.67320    1.000
    H151     H        0.53840    0.59760    0.66230    1.000
    O64      O        0.77090    0.42310    0.69960    1.000
    H152     H        0.76960    0.39590    0.67380    1.000
    C248     C        0.58250    0.70740    0.82970    1.000
    H153     H        0.49990    0.63270    0.77740    1.000
    C249     C        0.66470    0.73770    0.91410    1.000
    C250     C        0.55670    0.79320    0.74810    1.000
    C251     C        0.54740    0.72640    0.77630    1.000
    C252     C        0.62640    0.76000    0.85710    1.000
    C253     C        0.63390    0.82950    0.83160    1.000
    H154     H        0.66160    0.86620    0.85050    1.000
    C254     C        0.59980    0.84770    0.77600    1.000
    C255     C        0.52540    0.80980    0.69190    1.000
    H155     H        0.49740    0.77420    0.67230    1.000
    C256     C        0.53550    0.87660    0.66610    1.000
    H156     H        0.51480    0.88520    0.62910    1.000
    C257     C        0.57760    0.93400    0.69540    1.000
    H157     H        0.58340    0.98150    0.67790    1.000
    O65      O        0.57330    0.63930    0.85490    1.000
    H158     H        0.59960    0.61790    0.87860    1.000
    C258     C        0.80300    0.62890    0.80190    1.000
    C259     C        0.81430    0.61360    0.76020    1.000
    H159     H        0.80400    0.56040    0.73990    1.000
    C260     C        0.85620    0.75650    0.77780    1.000
    H160     H        0.87300    0.79920    0.76900    1.000
    C261     C        0.82060    0.71040    0.83160    1.000
    C262     C        0.84730    0.77300    0.81890    1.000
    H161     H        0.85890    0.82630    0.83890    1.000
    C263     C        0.84090    0.67840    0.74970    1.000
    H162     H        0.84830    0.66730    0.72240    1.000
    C264     C        0.78820    0.66530    0.88930    1.000
    C265     C        0.76980    0.58450    0.85870    1.000
    C266     C        0.77530    0.56660    0.81410    1.000
    C267     C        0.81270    0.72630    0.87540    1.000
    H163     H        0.82450    0.77960    0.89530    1.000
    O66      O        0.65910    0.66500    0.93410    1.000
    O67      O        0.74530    0.52250    0.87180    1.000
    H164     H        0.73840    0.54490    0.89350    1.000
    C268     C        0.75490    0.47830    0.78260    1.000
    H165     H        0.74110    0.44290    0.80050    1.000
    H166     H        0.78230    0.44390    0.78470    1.000
    C269     C        0.78110    0.68600    0.93610    1.000
    C270     C        0.70530    0.44930    0.58660    1.000
    O68      O        0.74880    0.42180    0.60170    1.000
    O69      O        0.67380    0.45360    0.53650    1.000
    O70      O        0.75940    0.62830    0.94910    1.000
    O71      O        0.79690    0.76070    0.95940    1.000
    O72      O        0.70080    0.78870    0.93880    1.000
    C271     C        0.58310    0.55590    0.63610    1.000
    H167     H        0.55960    0.56030    0.59940    1.000
    C272     C        0.60850    0.91900    0.74790    1.000
    H168     H        0.63620    0.95570    0.76670    1.000
    C273     C        0.00000    0.82830    0.25000    1.000
    C274     C        0.50000    0.32830    0.25000    1.000
    C275     C        0.00000    0.17170    0.75000    1.000
    C276     C        0.50000    0.67170    0.75000    1.000
