# CIF file generated by openbabel 3.1.0, see https://openbabel.org
data_I
_chemical_name_common 'image0'
_cell_length_a 16.846
_cell_length_b 14.179
_cell_length_c 18.754
_cell_angle_alpha 90
_cell_angle_beta 97.701
_cell_angle_gamma 90
_space_group_name_H-M_alt 'P 1'
_space_group_name_Hall 'P 1'
loop_
    _symmetry_equiv_pos_as_xyz
    x,y,z
loop_
    _atom_site_label
    _atom_site_type_symbol
    _atom_site_fract_x
    _atom_site_fract_y
    _atom_site_fract_z
    _atom_site_occupancy
    C1       C        0.30800    0.62540    0.97021    1.000
    H1       H        0.25520    0.60630    0.97000    1.000
    C2       C        0.36405    0.60300    0.02657    1.000
    C3       C        0.44117    0.63083    0.02683    1.000
    H2       H        0.47960    0.61540    0.06540    1.000
    Co1      Co       0.04017    0.71858    0.16799    1.000
    C4       C        0.16253    0.56310    0.19682    1.000
    O1       O        0.12882    0.62831    0.15898    1.000
    O2       O        0.13927    0.53032    0.25142    1.000
    H3       H        0.95650    0.59040    0.22880    1.000
    C5       C        0.46225    0.68119    0.97074    1.000
    H4       H        0.51510    0.70030    0.97090    1.000
    N1       N        0.40621    0.70366    0.91438    1.000
    C6       C        0.32909    0.67578    0.91412    1.000
    H5       H        0.29070    0.69120    0.87550    1.000
    C7       C        0.39798    0.33720    0.20394    1.000
    O3       O        0.45149    0.31074    0.16773    1.000
    O4       O        0.38310    0.29900    0.26076    1.000
    C8       C        0.35057    0.42050    0.17446    1.000
    C9       C        0.28115    0.45090    0.20202    1.000
    H6       H        0.26380    0.41940    0.24060    1.000
    C10      C        0.23881    0.52800    0.17147    1.000
    C11      C        0.26709    0.57610    0.11581    1.000
    H7       H        0.23910    0.62870    0.09660    1.000
    C12      C        0.33606    0.54870    0.08739    1.000
    C13      C        0.37574    0.46970    0.11698    1.000
    H8       H        0.42080    0.44850    0.09800    1.000
    N2       N        0.43648    0.70101    0.92183    1.000
    C14      C        0.37584    0.70142    0.03320    1.000
    H9       H        0.35990    0.73390    0.07200    1.000
    C15      C        0.41235    0.75036    0.98068    1.000
    H10      H        0.42050    0.81510    0.98480    1.000
    C16      C        0.42410    0.60273    0.91551    1.000
    H11      H        0.44000    0.57020    0.87670    1.000
    C17      C        0.38757    0.55379    0.96803    1.000
    H12      H        0.37940    0.48900    0.96390    1.000
    Ni1      Ni       0.95983    0.71858    0.33201    1.000
    C18      C        0.80800    0.12540    0.97021    1.000
    H13      H        0.75520    0.10630    0.97000    1.000
    C19      C        0.86405    0.10300    0.02657    1.000
    C20      C        0.94117    0.13083    0.02683    1.000
    H14      H        0.97960    0.11540    0.06540    1.000
    Co2      Co       0.54017    0.21858    0.16799    1.000
    C21      C        0.66253    0.06310    0.19682    1.000
    O5       O        0.62882    0.12831    0.15898    1.000
    O6       O        0.63927    0.03032    0.25142    1.000
    H15      H        0.45650    0.09040    0.22880    1.000
    C22      C        0.96225    0.18119    0.97074    1.000
    H16      H        0.01510    0.20030    0.97090    1.000
    N3       N        0.90621    0.20366    0.91438    1.000
    C23      C        0.82909    0.17578    0.91412    1.000
    H17      H        0.79070    0.19120    0.87550    1.000
    C24      C        0.89798    0.83720    0.20394    1.000
    O7       O        0.95149    0.81074    0.16773    1.000
    O8       O        0.88310    0.79900    0.26076    1.000
    C25      C        0.85057    0.92050    0.17446    1.000
    C26      C        0.78115    0.95090    0.20202    1.000
    H18      H        0.76380    0.91940    0.24060    1.000
    C27      C        0.73881    0.02800    0.17147    1.000
    C28      C        0.76709    0.07610    0.11581    1.000
    H19      H        0.73910    0.12870    0.09660    1.000
    C29      C        0.83606    0.04870    0.08739    1.000
    C30      C        0.87574    0.96970    0.11698    1.000
    H20      H        0.92080    0.94850    0.09800    1.000
    N4       N        0.93648    0.20101    0.92183    1.000
    C31      C        0.87584    0.20142    0.03320    1.000
    H21      H        0.85990    0.23390    0.07200    1.000
    C32      C        0.91235    0.25036    0.98068    1.000
    H22      H        0.92050    0.31510    0.98480    1.000
    C33      C        0.92410    0.10273    0.91551    1.000
    H23      H        0.94000    0.07020    0.87670    1.000
    C34      C        0.88757    0.05379    0.96803    1.000
    H24      H        0.87940    0.98900    0.96390    1.000
    Ni2      Ni       0.45983    0.21858    0.33201    1.000
    C35      C        0.69200    0.62540    0.52979    1.000
    H25      H        0.74480    0.60630    0.53000    1.000
    C36      C        0.63595    0.60300    0.47343    1.000
    C37      C        0.55883    0.63083    0.47317    1.000
    H26      H        0.52040    0.61540    0.43460    1.000
    C38      C        0.83747    0.56310    0.30318    1.000
    O9       O        0.87118    0.62831    0.34102    1.000
    O10      O        0.86073    0.53032    0.24858    1.000
    H27      H        0.04350    0.59040    0.27120    1.000
    C39      C        0.53775    0.68119    0.52926    1.000
    H28      H        0.48490    0.70030    0.52910    1.000
    N5       N        0.59379    0.70366    0.58562    1.000
    C40      C        0.67091    0.67578    0.58588    1.000
    H29      H        0.70930    0.69120    0.62450    1.000
    C41      C        0.60202    0.33720    0.29606    1.000
    O11      O        0.54851    0.31074    0.33227    1.000
    O12      O        0.61690    0.29900    0.23924    1.000
    C42      C        0.64943    0.42050    0.32554    1.000
    C43      C        0.71885    0.45090    0.29798    1.000
    H30      H        0.73620    0.41940    0.25940    1.000
    C44      C        0.76119    0.52800    0.32853    1.000
    C45      C        0.73291    0.57610    0.38419    1.000
    H31      H        0.76090    0.62870    0.40340    1.000
    C46      C        0.66394    0.54870    0.41261    1.000
    C47      C        0.62426    0.46970    0.38302    1.000
    H32      H        0.57920    0.44850    0.40200    1.000
    N6       N        0.56352    0.70101    0.57817    1.000
    C48      C        0.62416    0.70142    0.46680    1.000
    H33      H        0.64010    0.73390    0.42800    1.000
    C49      C        0.58765    0.75036    0.51932    1.000
    H34      H        0.57950    0.81510    0.51520    1.000
    C50      C        0.57590    0.60273    0.58449    1.000
    H35      H        0.56000    0.57020    0.62330    1.000
    C51      C        0.61243    0.55379    0.53197    1.000
    H36      H        0.62060    0.48900    0.53610    1.000
    C52      C        0.19200    0.12540    0.52979    1.000
    H37      H        0.24480    0.10630    0.53000    1.000
    C53      C        0.13595    0.10300    0.47343    1.000
    C54      C        0.05883    0.13083    0.47317    1.000
    H38      H        0.02040    0.11540    0.43460    1.000
    C55      C        0.33747    0.06310    0.30318    1.000
    O13      O        0.37118    0.12831    0.34102    1.000
    O14      O        0.36073    0.03032    0.24858    1.000
    H39      H        0.54350    0.09040    0.27120    1.000
    C56      C        0.03775    0.18119    0.52926    1.000
    H40      H        0.98490    0.20030    0.52910    1.000
    N7       N        0.09379    0.20366    0.58562    1.000
    C57      C        0.17091    0.17578    0.58588    1.000
    H41      H        0.20930    0.19120    0.62450    1.000
    C58      C        0.10202    0.83720    0.29606    1.000
    O15      O        0.04851    0.81074    0.33227    1.000
    O16      O        0.11690    0.79900    0.23924    1.000
    C59      C        0.14943    0.92050    0.32554    1.000
    C60      C        0.21885    0.95090    0.29798    1.000
    H42      H        0.23620    0.91940    0.25940    1.000
    C61      C        0.26119    0.02800    0.32853    1.000
    C62      C        0.23291    0.07610    0.38419    1.000
    H43      H        0.26090    0.12870    0.40340    1.000
    C63      C        0.16394    0.04870    0.41261    1.000
    C64      C        0.12426    0.96970    0.38302    1.000
    H44      H        0.07920    0.94850    0.40200    1.000
    N8       N        0.06352    0.20101    0.57817    1.000
    C65      C        0.12416    0.20142    0.46680    1.000
    H45      H        0.14010    0.23390    0.42800    1.000
    C66      C        0.08765    0.25036    0.51932    1.000
    H46      H        0.07950    0.31510    0.51520    1.000
    C67      C        0.07590    0.10273    0.58449    1.000
    H47      H        0.06000    0.07020    0.62330    1.000
    C68      C        0.11243    0.05379    0.53197    1.000
    H48      H        0.12060    0.98900    0.53610    1.000
    C69      C        0.69200    0.37460    0.02979    1.000
    H49      H        0.74480    0.39370    0.03000    1.000
    C70      C        0.63595    0.39700    0.97343    1.000
    C71      C        0.55883    0.36917    0.97317    1.000
    H50      H        0.52040    0.38460    0.93460    1.000
    Co3      Co       0.95983    0.28142    0.83201    1.000
    C72      C        0.83747    0.43690    0.80318    1.000
    O17      O        0.87118    0.37169    0.84102    1.000
    O18      O        0.86073    0.46968    0.74858    1.000
    H51      H        0.04350    0.40960    0.77120    1.000
    C73      C        0.53775    0.31881    0.02926    1.000
    H52      H        0.48490    0.29970    0.02910    1.000
    N9       N        0.59379    0.29634    0.08562    1.000
    C74      C        0.67091    0.32422    0.08588    1.000
    H53      H        0.70930    0.30880    0.12450    1.000
    C75      C        0.60202    0.66280    0.79606    1.000
    O19      O        0.54851    0.68926    0.83227    1.000
    O20      O        0.61690    0.70100    0.73924    1.000
    C76      C        0.64943    0.57950    0.82554    1.000
    C77      C        0.71885    0.54910    0.79798    1.000
    H54      H        0.73620    0.58060    0.75940    1.000
    C78      C        0.76119    0.47200    0.82853    1.000
    C79      C        0.73291    0.42390    0.88419    1.000
    H55      H        0.76090    0.37130    0.90340    1.000
    C80      C        0.66394    0.45130    0.91261    1.000
    C81      C        0.62426    0.53030    0.88302    1.000
    H56      H        0.57920    0.55150    0.90200    1.000
    N10      N        0.56352    0.29899    0.07817    1.000
    C82      C        0.62416    0.29858    0.96680    1.000
    H57      H        0.64010    0.26610    0.92800    1.000
    C83      C        0.58765    0.24964    0.01932    1.000
    H58      H        0.57950    0.18490    0.01520    1.000
    C84      C        0.57590    0.39727    0.08449    1.000
    H59      H        0.56000    0.42980    0.12330    1.000
    C85      C        0.61243    0.44621    0.03197    1.000
    H60      H        0.62060    0.51100    0.03610    1.000
    Ni3      Ni       0.04017    0.28142    0.66799    1.000
    C86      C        0.19200    0.87460    0.02979    1.000
    H61      H        0.24480    0.89370    0.03000    1.000
    C87      C        0.13595    0.89700    0.97343    1.000
    C88      C        0.05883    0.86917    0.97317    1.000
    H62      H        0.02040    0.88460    0.93460    1.000
    Co4      Co       0.45983    0.78142    0.83201    1.000
    C89      C        0.33747    0.93690    0.80318    1.000
    O21      O        0.37118    0.87169    0.84102    1.000
    O22      O        0.36073    0.96968    0.74858    1.000
    H63      H        0.54350    0.90960    0.77120    1.000
    C90      C        0.03775    0.81881    0.02926    1.000
    H64      H        0.98490    0.79970    0.02910    1.000
    N11      N        0.09379    0.79634    0.08562    1.000
    C91      C        0.17091    0.82422    0.08588    1.000
    H65      H        0.20930    0.80880    0.12450    1.000
    C92      C        0.10202    0.16280    0.79606    1.000
    O23      O        0.04851    0.18926    0.83227    1.000
    O24      O        0.11690    0.20100    0.73924    1.000
    C93      C        0.14943    0.07950    0.82554    1.000
    C94      C        0.21885    0.04910    0.79798    1.000
    H66      H        0.23620    0.08060    0.75940    1.000
    C95      C        0.26119    0.97200    0.82853    1.000
    C96      C        0.23291    0.92390    0.88419    1.000
    H67      H        0.26090    0.87130    0.90340    1.000
    C97      C        0.16394    0.95130    0.91261    1.000
    C98      C        0.12426    0.03030    0.88302    1.000
    H68      H        0.07920    0.05150    0.90200    1.000
    N12      N        0.06352    0.79899    0.07817    1.000
    C99      C        0.12416    0.79858    0.96680    1.000
    H69      H        0.14010    0.76610    0.92800    1.000
    C100     C        0.08765    0.74964    0.01932    1.000
    H70      H        0.07950    0.68490    0.01520    1.000
    C101     C        0.07590    0.89727    0.08449    1.000
    H71      H        0.06000    0.92980    0.12330    1.000
    C102     C        0.11243    0.94621    0.03197    1.000
    H72      H        0.12060    0.01100    0.03610    1.000
    Ni4      Ni       0.54017    0.78142    0.66799    1.000
    C103     C        0.30800    0.37460    0.47021    1.000
    H73      H        0.25520    0.39370    0.47000    1.000
    C104     C        0.36405    0.39700    0.52657    1.000
    C105     C        0.44117    0.36917    0.52683    1.000
    H74      H        0.47960    0.38460    0.56540    1.000
    C106     C        0.16253    0.43690    0.69682    1.000
    O25      O        0.12882    0.37169    0.65898    1.000
    O26      O        0.13927    0.46968    0.75142    1.000
    H75      H        0.95650    0.40960    0.72880    1.000
    C107     C        0.46225    0.31881    0.47074    1.000
    H76      H        0.51510    0.29970    0.47090    1.000
    N13      N        0.40621    0.29634    0.41438    1.000
    C108     C        0.32909    0.32422    0.41412    1.000
    H77      H        0.29070    0.30880    0.37550    1.000
    C109     C        0.39798    0.66280    0.70394    1.000
    O27      O        0.45149    0.68926    0.66773    1.000
    O28      O        0.38310    0.70100    0.76076    1.000
    C110     C        0.35057    0.57950    0.67446    1.000
    C111     C        0.28115    0.54910    0.70202    1.000
    H78      H        0.26380    0.58060    0.74060    1.000
    C112     C        0.23881    0.47200    0.67147    1.000
    C113     C        0.26709    0.42390    0.61581    1.000
    H79      H        0.23910    0.37130    0.59660    1.000
    C114     C        0.33606    0.45130    0.58739    1.000
    C115     C        0.37574    0.53030    0.61698    1.000
    H80      H        0.42080    0.55150    0.59800    1.000
    N14      N        0.43648    0.29899    0.42183    1.000
    C116     C        0.37584    0.29858    0.53320    1.000
    H81      H        0.35990    0.26610    0.57200    1.000
    C117     C        0.41235    0.24964    0.48068    1.000
    H82      H        0.42050    0.18490    0.48480    1.000
    C118     C        0.42410    0.39727    0.41551    1.000
    H83      H        0.44000    0.42980    0.37670    1.000
    C119     C        0.38757    0.44621    0.46803    1.000
    H84      H        0.37940    0.51100    0.46390    1.000
    C120     C        0.80800    0.87460    0.47021    1.000
    H85      H        0.75520    0.89370    0.47000    1.000
    C121     C        0.86405    0.89700    0.52657    1.000
    C122     C        0.94117    0.86917    0.52683    1.000
    H86      H        0.97960    0.88460    0.56540    1.000
    C123     C        0.66253    0.93690    0.69682    1.000
    O29      O        0.62882    0.87169    0.65898    1.000
    O30      O        0.63927    0.96968    0.75142    1.000
    H87      H        0.45650    0.90960    0.72880    1.000
    C124     C        0.96225    0.81881    0.47074    1.000
    H88      H        0.01510    0.79970    0.47090    1.000
    N15      N        0.90621    0.79634    0.41438    1.000
    C125     C        0.82909    0.82422    0.41412    1.000
    H89      H        0.79070    0.80880    0.37550    1.000
    C126     C        0.89798    0.16280    0.70394    1.000
    O31      O        0.95149    0.18926    0.66773    1.000
    O32      O        0.88310    0.20100    0.76076    1.000
    C127     C        0.85057    0.07950    0.67446    1.000
    C128     C        0.78115    0.04910    0.70202    1.000
    H90      H        0.76380    0.08060    0.74060    1.000
    C129     C        0.73881    0.97200    0.67147    1.000
    C130     C        0.76709    0.92390    0.61581    1.000
    H91      H        0.73910    0.87130    0.59660    1.000
    C131     C        0.83606    0.95130    0.58739    1.000
    C132     C        0.87574    0.03030    0.61698    1.000
    H92      H        0.92080    0.05150    0.59800    1.000
    N16      N        0.93648    0.79899    0.42183    1.000
    C133     C        0.87584    0.79858    0.53320    1.000
    H93      H        0.85990    0.76610    0.57200    1.000
    C134     C        0.91235    0.74964    0.48068    1.000
    H94      H        0.92050    0.68490    0.48480    1.000
    C135     C        0.92410    0.89727    0.41551    1.000
    H95      H        0.94000    0.92980    0.37670    1.000
    C136     C        0.88757    0.94621    0.46803    1.000
    H96      H        0.87940    0.01100    0.46390    1.000
    O33      O        0.00000    0.63045    0.25000    1.000
    O34      O        0.50000    0.13045    0.25000    1.000
    O35      O        0.00000    0.36955    0.75000    1.000
    O36      O        0.50000    0.86955    0.75000    1.000
