data_functionalizedCrystal
_audit_creation_method	'EQeq! by Chris Wilmer'
_symmetry_space_group_name_H-M	'P1'
_symmetry_Int_Tables_number	1
_symmetry_cell_setting	triclinic
loop_
_symmetry_equiv_pos_as_xyz
  x,y,z
_cell_length_a	13.6618
_cell_length_b	13.6618
_cell_length_c	13.6618
_cell_angle_alpha	103.244
_cell_angle_beta	103.244
_cell_angle_gamma	103.244
loop_
_atom_site_label
_atom_site_type_symbol
_atom_site_fract_x
_atom_site_fract_y
_atom_site_fract_z
_atom_site_charge
Mof_Cr	Cr	0.5	0.28698	0.71302	1.495
Mof_Cr	Cr	0.71302	0.5	0.28698	1.495
Mof_Cr	Cr	0.28698	0.71302	0.5	1.495
Mof_Co	Co	0.61809	0.38191	-0	1.154
Mof_Co	Co	-9.24018e-18	0.61809	0.38191	1.154
Mof_Co	Co	0.38191	4.92809e-17	0.61809	1.154
Mof_H 	H 	0.0794	0.3498	0.8872	0.052
Mof_H 	H 	0.2369	0.3694	0.8733	0.072
Mof_H 	H 	0.3144	0.333	0.1607	0.063
Mof_H 	H 	0.9044	0.363	0.8153	0.098
Mof_H 	H 	0.7453	0.3773	0.8356	-0.069
Mof_H 	H 	0.483	0.3535	0.1534	-0.077
Mof_H 	H 	0.138	0.3506	0.0924	0.045
Mof_H 	H 	0.4043	0.3777	0.8701	-0.085
Mof_H 	H 	0.9903	0.3596	0.1186	0.112
Mof_H 	H 	0.8288	0.3829	0.1299	-0.022
Mof_H 	H 	0.8872	0.0794	0.3498	0.052
Mof_H 	H 	0.8733	0.2369	0.3694	0.072
Mof_H 	H 	0.1607	0.3144	0.333	0.063
Mof_H 	H 	0.8153	0.9044	0.363	0.098
Mof_H 	H 	0.8356	0.7453	0.3773	-0.069
Mof_H 	H 	0.1534	0.483	0.3535	-0.077
Mof_H 	H 	0.0924	0.138	0.3506	0.045
Mof_H 	H 	0.8701	0.4043	0.3777	-0.085
Mof_H 	H 	0.1186	0.9903	0.3596	0.112
Mof_H 	H 	0.1299	0.8288	0.3829	-0.022
Mof_H 	H 	0.3498	0.8872	0.0794	0.052
Mof_H 	H 	0.3694	0.8733	0.2369	0.072
Mof_H 	H 	0.333	0.1607	0.3144	0.063
Mof_H 	H 	0.363	0.8153	0.9044	0.098
Mof_H 	H 	0.3773	0.8356	0.7453	-0.069
Mof_H 	H 	0.3535	0.1534	0.483	-0.077
Mof_H 	H 	0.3506	0.0924	0.138	0.045
Mof_H 	H 	0.3777	0.8701	0.4043	-0.085
Mof_H 	H 	0.3596	0.1186	0.9903	0.112
Mof_H 	H 	0.3829	0.1299	0.8288	-0.022
Mof_H 	H 	0.6502	0.9206	0.1128	0.039
Mof_H 	H 	0.6306	0.7631	0.1267	0.1
Mof_H 	H 	0.667	0.6856	0.8393	0.083
Mof_H 	H 	0.637	0.0956	0.1847	0.056
Mof_H 	H 	0.6227	0.2547	0.1644	-0.054
Mof_H 	H 	0.6465	0.517	0.8466	-0.084
Mof_H 	H 	0.6494	0.862	0.9076	0.07
Mof_H 	H 	0.6223	0.5957	0.1299	-0.081
Mof_H 	H 	0.6404	0.0097	0.8814	0.052
Mof_H 	H 	0.6171	0.1712	0.8701	-0.023
Mof_H 	H 	0.9206	0.1128	0.6502	0.039
Mof_H 	H 	0.7631	0.1267	0.6306	0.1
Mof_H 	H 	0.6856	0.8393	0.667	0.083
Mof_H 	H 	0.0956	0.1847	0.637	0.056
Mof_H 	H 	0.2547	0.1644	0.6227	-0.054
Mof_H 	H 	0.517	0.8466	0.6465	-0.084
Mof_H 	H 	0.862	0.9076	0.6494	0.07
Mof_H 	H 	0.5957	0.1299	0.6223	-0.081
Mof_H 	H 	0.0097	0.8814	0.6404	0.052
Mof_H 	H 	0.1712	0.8701	0.6171	-0.023
Mof_H 	H 	0.1128	0.6502	0.9206	0.039
Mof_H 	H 	0.1267	0.6306	0.7631	0.1
Mof_H 	H 	0.8393	0.667	0.6856	0.083
Mof_H 	H 	0.1847	0.637	0.0956	0.056
Mof_H 	H 	0.1644	0.6227	0.2547	-0.054
Mof_H 	H 	0.8466	0.6465	0.517	-0.084
Mof_H 	H 	0.9076	0.6494	0.862	0.07
Mof_H 	H 	0.1299	0.6223	0.5957	-0.081
Mof_H 	H 	0.8814	0.6404	0.0097	0.052
Mof_H 	H 	0.8701	0.6171	0.1712	-0.023
Mof_C 	C 	0.07	0.3543	0.9539	-0.105
Mof_C 	C 	0.2856	0.3659	0.9322	-0.176
Mof_C 	C 	0.3317	0.3461	0.1012	-0.209
Mof_C 	C 	0.2552	0.3554	0.0202	0.09
Mof_C 	C 	0.8916	0.3664	0.8805	-0.227
Mof_C 	C 	0.7966	0.3757	0.8939	0.153
Mof_C 	C 	0.4319	0.3556	0.0953	0.106
Mof_C 	C 	0.9684	0.3618	0.9649	0.203
Mof_C 	C 	0.1499	0.3532	0.0278	-0.116
Mof_C 	C 	0.3862	0.3711	0.9311	0.152
Mof_C 	C 	0.9425	0.3654	0.0601	-0.224
Mof_C 	C 	0.8447	0.3778	0.066	0.091
Mof_C 	C 	0.9539	0.07	0.3543	-0.105
Mof_C 	C 	0.9322	0.2856	0.3659	-0.176
Mof_C 	C 	0.1012	0.3317	0.3461	-0.209
Mof_C 	C 	0.0202	0.2552	0.3554	0.09
Mof_C 	C 	0.8805	0.8916	0.3664	-0.227
Mof_C 	C 	0.8939	0.7966	0.3757	0.153
Mof_C 	C 	0.0953	0.4319	0.3556	0.106
Mof_C 	C 	0.9649	0.9684	0.3618	0.203
Mof_C 	C 	0.0278	0.1499	0.3532	-0.116
Mof_C 	C 	0.9311	0.3862	0.3711	0.152
Mof_C 	C 	0.0601	0.9425	0.3654	-0.224
Mof_C 	C 	0.066	0.8447	0.3778	0.091
Mof_C 	C 	0.3543	0.9539	0.07	-0.105
Mof_C 	C 	0.3659	0.9322	0.2856	-0.176
Mof_C 	C 	0.3461	0.1012	0.3317	-0.209
Mof_C 	C 	0.3554	0.0202	0.2552	0.09
Mof_C 	C 	0.3664	0.8805	0.8916	-0.227
Mof_C 	C 	0.3757	0.8939	0.7966	0.153
Mof_C 	C 	0.3556	0.0953	0.4319	0.106
Mof_C 	C 	0.3618	0.9649	0.9684	0.203
Mof_C 	C 	0.3532	0.0278	0.1499	-0.116
Mof_C 	C 	0.3711	0.9311	0.3862	0.152
Mof_C 	C 	0.3654	0.0601	0.9425	-0.224
Mof_C 	C 	0.3778	0.066	0.8447	0.091
Mof_C 	C 	0.6457	0.93	0.0461	-0.042
Mof_C 	C 	0.6341	0.7144	0.0678	-0.273
Mof_C 	C 	0.6539	0.6683	0.8988	-0.244
Mof_C 	C 	0.6446	0.7448	0.9798	0.194
Mof_C 	C 	0.6336	0.1084	0.1195	-0.151
Mof_C 	C 	0.6243	0.2034	0.1061	0.095
Mof_C 	C 	0.6444	0.5681	0.9047	0.144
Mof_C 	C 	0.6382	0.0316	0.0351	0.021
Mof_C 	C 	0.6468	0.8501	0.9722	-0.112
Mof_C 	C 	0.6289	0.6138	0.0689	0.124
Mof_C 	C 	0.6346	0.0575	0.9399	-0.1
Mof_C 	C 	0.6222	0.1553	0.934	0.1
Mof_C 	C 	0.93	0.0461	0.6457	-0.042
Mof_C 	C 	0.7144	0.0678	0.6341	-0.273
Mof_C 	C 	0.6683	0.8988	0.6539	-0.244
Mof_C 	C 	0.7448	0.9798	0.6446	0.194
Mof_C 	C 	0.1084	0.1195	0.6336	-0.151
Mof_C 	C 	0.2034	0.1061	0.6243	0.095
Mof_C 	C 	0.5681	0.9047	0.6444	0.144
Mof_C 	C 	0.0316	0.0351	0.6382	0.021
Mof_C 	C 	0.8501	0.9722	0.6468	-0.112
Mof_C 	C 	0.6138	0.0689	0.6289	0.124
Mof_C 	C 	0.0575	0.9399	0.6346	-0.1
Mof_C 	C 	0.1553	0.934	0.6222	0.1
Mof_C 	C 	0.0461	0.6457	0.93	-0.042
Mof_C 	C 	0.0678	0.6341	0.7144	-0.273
Mof_C 	C 	0.8988	0.6539	0.6683	-0.244
Mof_C 	C 	0.9798	0.6446	0.7448	0.194
Mof_C 	C 	0.1195	0.6336	0.1084	-0.151
Mof_C 	C 	0.1061	0.6243	0.2034	0.095
Mof_C 	C 	0.9047	0.6444	0.5681	0.144
Mof_C 	C 	0.0351	0.6382	0.0316	0.021
Mof_C 	C 	0.9722	0.6468	0.8501	-0.112
Mof_C 	C 	0.0689	0.6289	0.6138	0.124
Mof_C 	C 	0.9399	0.6346	0.0575	-0.1
Mof_C 	C 	0.934	0.6222	0.1553	0.1
Mof_N 	N 	0.45992	0.36752	0.01132	-0.281
Mof_N 	N 	0.77313	0.38257	0.9831	-0.229
Mof_N 	N 	0.01132	0.45992	0.36752	-0.281
Mof_N 	N 	0.9831	0.77313	0.38257	-0.229
Mof_N 	N 	0.36752	0.01132	0.45992	-0.281
Mof_N 	N 	0.38257	0.9831	0.77313	-0.229
Mof_N 	N 	0.63248	0.54008	0.98868	-0.247
Mof_N 	N 	0.61743	0.22687	0.0169	-0.254
Mof_N 	N 	0.54008	0.98868	0.63248	-0.247
Mof_N 	N 	0.22687	0.0169	0.61743	-0.254
Mof_N 	N 	0.98868	0.63248	0.54008	-0.247
Mof_N 	N 	0.0169	0.61743	0.22687	-0.254
Mof_O 	O 	0.55842	0.32566	0.84018	-0.734
Mof_O 	O 	0.84018	0.55842	0.32566	-0.734
Mof_O 	O 	0.32566	0.84018	0.55842	-0.734
Mof_O 	O 	0.67434	0.44158	0.15982	-0.745
Mof_O 	O 	0.44158	0.15982	0.67434	-0.745
Mof_O 	O 	0.15982	0.67434	0.44158	-0.745
_end
