data_functionalizedCrystal
_audit_creation_method	'EQeq! by Chris Wilmer'
_symmetry_space_group_name_H-M	'P1'
_symmetry_Int_Tables_number	1
_symmetry_cell_setting	triclinic
loop_
_symmetry_equiv_pos_as_xyz
  x,y,z
_cell_length_a	11.396
_cell_length_b	11.396
_cell_length_c	13.913
_cell_angle_alpha	90
_cell_angle_beta	90
_cell_angle_gamma	90
loop_
_atom_site_label
_atom_site_type_symbol
_atom_site_fract_x
_atom_site_fract_y
_atom_site_fract_z
_atom_site_charge
Mof_Ag	Ag	0.89081	0.89081	-0	0.669
Mof_Ag	Ag	0.10919	0.10919	0.5	0.895
Mof_Ag	Ag	0.60919	0.39081	0.25	0.907
Mof_Ag	Ag	0.39081	0.60919	0.75	0.947
Mof_H 	H 	0.5874	0.5537	0.0688	-0.001
Mof_H 	H 	0.584	0.8075	0.7145	0.065
Mof_H 	H 	0.8999	0.7357	0.2071	0.097
Mof_H 	H 	0.4126	0.4463	0.5688	0.076
Mof_H 	H 	0.416	0.1925	0.2145	0.044
Mof_H 	H 	0.1001	0.2643	0.7071	0.087
Mof_H 	H 	0.9463	0.0874	0.3188	0.077
Mof_H 	H 	0.6925	0.084	0.9645	0.32
Mof_H 	H 	0.7643	0.3999	0.4571	0.087
Mof_H 	H 	0.0537	0.9126	0.8188	0.087
Mof_H 	H 	0.3075	0.916	0.4645	0.063
Mof_H 	H 	0.2357	0.6001	0.9571	0.197
Mof_H 	H 	0.9126	0.0537	0.1812	0.084
Mof_H 	H 	0.916	0.3075	0.5355	0.068
Mof_H 	H 	0.6001	0.2357	0.0429	-0.026
Mof_H 	H 	0.0874	0.9463	0.6812	0.079
Mof_H 	H 	0.084	0.6925	0.0355	-0.17
Mof_H 	H 	0.3999	0.7643	0.5429	0.084
Mof_H 	H 	0.5537	0.5874	0.9312	0.155
Mof_H 	H 	0.8075	0.584	0.2855	0.058
Mof_H 	H 	0.7357	0.8999	0.7929	0.098
Mof_H 	H 	0.4463	0.4126	0.4312	0.075
Mof_H 	H 	0.1925	0.416	0.7855	0.079
Mof_H 	H 	0.2643	0.1001	0.2929	0.075
Mof_C 	C 	0.6772	0.7121	0.9503	0.275
Mof_C 	C 	0.5896	0.6532	0.9014	-0.067
Mof_C 	C 	0.6077	0.7795	0.7758	0.04
Mof_C 	C 	0.8364	0.6966	0.1765	0.006
Mof_C 	C 	0.3228	0.2879	0.4503	0.046
Mof_C 	C 	0.4104	0.3468	0.4014	0.007
Mof_C 	C 	0.3923	0.2205	0.2758	0.037
Mof_C 	C 	0.1636	0.3034	0.6765	0.033
Mof_C 	C 	0.7879	0.1772	0.2003	0.064
Mof_C 	C 	0.8468	0.0896	0.1514	-0.022
Mof_C 	C 	0.7205	0.1077	0.0258	-0.36
Mof_C 	C 	0.8034	0.3364	0.4265	0.028
Mof_C 	C 	0.2121	0.8228	0.7003	0.056
Mof_C 	C 	0.1532	0.9104	0.6514	0.009
Mof_C 	C 	0.2795	0.8923	0.5258	0.039
Mof_C 	C 	0.1966	0.6636	0.9265	-0.133
Mof_C 	C 	0.8228	0.2121	0.2997	0.04
Mof_C 	C 	0.9104	0.1532	0.3486	0.012
Mof_C 	C 	0.8923	0.2795	0.4742	0.039
Mof_C 	C 	0.6636	0.1966	0.0735	0.196
Mof_C 	C 	0.1772	0.7879	0.7997	0.039
Mof_C 	C 	0.0896	0.8468	0.8486	0.035
Mof_C 	C 	0.1077	0.7205	0.9742	0.418
Mof_C 	C 	0.3364	0.8034	0.5735	0.029
Mof_C 	C 	0.7121	0.6772	0.0497	-0.164
Mof_C 	C 	0.6532	0.5896	0.0986	0.085
Mof_C 	C 	0.7795	0.6077	0.2242	0.048
Mof_C 	C 	0.6966	0.8364	0.8235	0.045
Mof_C 	C 	0.2879	0.3228	0.5497	0.048
Mof_C 	C 	0.3468	0.4104	0.5986	0.01
Mof_C 	C 	0.2205	0.3923	0.7242	0.037
Mof_C 	C 	0.3034	0.1636	0.3235	0.02
Mof_N 	N 	0.7291	0.8049	0.9113	-0.137
Mof_N 	N 	0.553	0.6852	0.8133	-0.141
Mof_N 	N 	0.2709	0.1951	0.4113	-0.162
Mof_N 	N 	0.447	0.3148	0.3133	-0.163
Mof_N 	N 	0.6951	0.2291	0.1613	-0.2
Mof_N 	N 	0.8148	0.053	0.0633	-0.098
Mof_N 	N 	0.3049	0.7709	0.6613	-0.162
Mof_N 	N 	0.1852	0.947	0.5633	-0.155
Mof_N 	N 	0.7709	0.3049	0.3387	-0.159
Mof_N 	N 	0.947	0.1852	0.4367	-0.154
Mof_N 	N 	0.2291	0.6951	0.8387	-0.124
Mof_N 	N 	0.053	0.8148	0.9367	-0.157
Mof_N 	N 	0.8049	0.7291	0.0887	-0.13
Mof_N 	N 	0.6852	0.553	0.1867	-0.181
Mof_N 	N 	0.1951	0.2709	0.5887	-0.162
Mof_N 	N 	0.3148	0.447	0.6867	-0.159
Mof_B 	B 	0.8742	0.1258	0.75	3.683
Mof_F 	F 	0.9423	0.0986	0.6737	-1.191
Mof_F 	F 	0.7586	0.1075	0.7304	-1.115
Mof_F 	F 	0.9014	0.0577	0.8263	-1.152
Mof_F 	F 	0.8925	0.2414	0.7696	-1.095
Mof_B 	B 	0.1258	0.8742	0.25	3.684
Mof_F 	F 	0.0577	0.9014	0.1737	-1.216
Mof_F 	F 	0.2414	0.8925	0.2304	-1.144
Mof_F 	F 	0.0986	0.9423	0.3263	-1.202
Mof_F 	F 	0.1075	0.7586	0.2696	-1.137
Mof_B 	B 	0.3742	0.3742	-0	3.096
Mof_F 	F 	0.4014	0.4423	0.9237	-0.992
Mof_F 	F 	0.3925	0.2586	0.9804	-0.881
Mof_F 	F 	0.4423	0.4014	0.0763	-1.116
Mof_F 	F 	0.2586	0.3925	0.0196	-1.084
Mof_B 	B 	0.6258	0.6258	0.5	3.691
Mof_F 	F 	0.5986	0.5577	0.4237	-1.204
Mof_F 	F 	0.6075	0.7414	0.4804	-1.127
Mof_F 	F 	0.5577	0.5986	0.5763	-1.202
Mof_F 	F 	0.7414	0.6075	0.5196	-1.123
_end
