data_functionalizedCrystal
_audit_creation_method	'EQeq! by Chris Wilmer'
_symmetry_space_group_name_H-M	'P1'
_symmetry_Int_Tables_number	1
_symmetry_cell_setting	triclinic
loop_
_symmetry_equiv_pos_as_xyz
  x,y,z
_cell_length_a	8.63
_cell_length_b	13.533
_cell_length_c	13.533
_cell_angle_alpha	93.4134
_cell_angle_beta	97.036
_cell_angle_gamma	97.036
loop_
_atom_site_label
_atom_site_type_symbol
_atom_site_fract_x
_atom_site_fract_y
_atom_site_fract_z
_atom_site_charge
Mof_Ni	Ni	0.75	0.6771	0.3229	1.063
Mof_H 	H 	0.9443	0.7456	0.1604	-0.008
Mof_H 	H 	0.9243	0.735	0.9806	0.066
Mof_H 	H 	0.4675	0.6017	0.9615	0.07
Mof_H 	H 	0.5046	0.6059	0.1407	-0.014
Mof_H 	H 	0.5964	0.6958	0.8218	0.086
Mof_H 	H 	0.6668	0.5958	0.8224	0.097
Mof_H 	H 	0.6735	0.8146	0.49	-0.002
Mof_H 	H 	0.7014	0.8292	0.6726	0.057
Mof_H 	H 	0.9217	0.5725	0.6661	0.076
Mof_H 	H 	0.8845	0.5587	0.4971	-0.001
Mof_H 	H 	0.833	0.7799	0.8345	0.054
Mof_H 	H 	0.9084	0.6819	0.8425	0.048
Mof_H 	H 	0.5557	0.8396	0.2544	-0.007
Mof_H 	H 	0.5757	0.0194	0.265	0.067
Mof_H 	H 	0.0325	0.0385	0.3983	0.071
Mof_H 	H 	0.9954	0.8593	0.3941	-0.013
Mof_H 	H 	0.9036	0.1782	0.3042	0.086
Mof_H 	H 	0.8332	0.1776	0.4042	0.097
Mof_H 	H 	0.8265	0.51	0.1854	-0.002
Mof_H 	H 	0.7986	0.3274	0.1708	0.057
Mof_H 	H 	0.5783	0.3339	0.4275	0.076
Mof_H 	H 	0.6155	0.5029	0.4413	-0.001
Mof_H 	H 	0.667	0.1655	0.2201	0.054
Mof_H 	H 	0.5916	0.1575	0.3181	0.048
Mof_C 	C 	0.838	0.713	0.123	0.07
Mof_C 	C 	0.832	0.7111	0.0149	-0.15
Mof_C 	C 	0.696	0.669	0.959	0.136
Mof_C 	C 	0.574	0.628	0.004	-0.164
Mof_C 	C 	0.588	0.6361	0.1059	0.088
Mof_C 	C 	0.688	0.662	0.85	-0.21
Mof_C 	C 	0.726	0.764	0.53	0.049
Mof_C 	C 	0.741	0.771	0.639	-0.121
Mof_C 	C 	0.81	0.697	0.689	0.082
Mof_C 	C 	0.865	0.624	0.636	-0.14
Mof_C 	C 	0.852	0.62	0.536	0.069
Mof_C 	C 	0.816	0.714	0.806	-0.098
Mof_C 	C 	0.109	0.6561	0.3459	0.174
Mof_C 	C 	0.662	0.877	0.287	0.07
Mof_C 	C 	0.668	0.9851	0.2889	-0.151
Mof_C 	C 	0.804	0.041	0.331	0.135
Mof_C 	C 	0.926	0.996	0.372	-0.162
Mof_C 	C 	0.912	0.8941	0.3639	0.087
Mof_C 	C 	0.812	0.15	0.338	-0.209
Mof_C 	C 	0.774	0.47	0.236	0.049
Mof_C 	C 	0.759	0.361	0.229	-0.121
Mof_C 	C 	0.69	0.311	0.303	0.082
Mof_C 	C 	0.635	0.364	0.376	-0.141
Mof_C 	C 	0.648	0.464	0.38	0.069
Mof_C 	C 	0.684	0.194	0.286	-0.098
Mof_C 	C 	0.391	0.6541	0.3439	0.175
Mof_N 	N 	0.72	0.6745	0.1657	-0.243
Mof_N 	N 	0.779	0.688	0.4838	-0.227
Mof_N 	N 	0.988	0.6718	0.3304	-0.286
Mof_N 	N 	0.78	0.8343	0.3255	-0.243
Mof_N 	N 	0.721	0.5162	0.312	-0.227
Mof_N 	N 	0.512	0.6696	0.3282	-0.287
Mof_N 	N 	0.25	0.624	0.376	-0.184
Mof_Ni	Ni	0.25	0.3229	0.6771	1.064
Mof_H 	H 	0.0557	0.2544	0.8396	-0.007
Mof_H 	H 	0.0757	0.265	0.0194	0.067
Mof_H 	H 	0.5325	0.3983	0.0385	0.071
Mof_H 	H 	0.4954	0.3941	0.8593	-0.014
Mof_H 	H 	0.4036	0.3042	0.1782	0.086
Mof_H 	H 	0.3332	0.4042	0.1776	0.097
Mof_H 	H 	0.3265	0.1854	0.51	-0.002
Mof_H 	H 	0.2986	0.1708	0.3274	0.057
Mof_H 	H 	0.0783	0.4275	0.3339	0.076
Mof_H 	H 	0.1155	0.4413	0.5029	-0.001
Mof_H 	H 	0.167	0.2201	0.1655	0.054
Mof_H 	H 	0.0916	0.3181	0.1575	0.048
Mof_H 	H 	0.4443	0.1604	0.7456	-0.007
Mof_H 	H 	0.4243	0.9806	0.735	0.067
Mof_H 	H 	0.9675	0.9615	0.6017	0.071
Mof_H 	H 	0.0046	0.1407	0.6059	-0.013
Mof_H 	H 	0.0964	0.8218	0.6958	0.086
Mof_H 	H 	0.1668	0.8224	0.5958	0.097
Mof_H 	H 	0.1735	0.49	0.8146	-0.002
Mof_H 	H 	0.2014	0.6726	0.8292	0.057
Mof_H 	H 	0.4217	0.6661	0.5725	0.076
Mof_H 	H 	0.3845	0.4971	0.5587	-0.001
Mof_H 	H 	0.333	0.8345	0.7799	0.054
Mof_H 	H 	0.4084	0.8425	0.6819	0.048
Mof_C 	C 	0.162	0.287	0.877	0.07
Mof_C 	C 	0.168	0.2889	0.9851	-0.15
Mof_C 	C 	0.304	0.331	0.041	0.136
Mof_C 	C 	0.426	0.372	0.996	-0.164
Mof_C 	C 	0.412	0.3639	0.8941	0.088
Mof_C 	C 	0.312	0.338	0.15	-0.21
Mof_C 	C 	0.274	0.236	0.47	0.049
Mof_C 	C 	0.259	0.229	0.361	-0.121
Mof_C 	C 	0.19	0.303	0.311	0.082
Mof_C 	C 	0.135	0.376	0.364	-0.14
Mof_C 	C 	0.148	0.38	0.464	0.069
Mof_C 	C 	0.184	0.286	0.194	-0.098
Mof_C 	C 	0.891	0.3439	0.6541	0.174
Mof_C 	C 	0.338	0.123	0.713	0.07
Mof_C 	C 	0.332	0.0149	0.7111	-0.151
Mof_C 	C 	0.196	0.959	0.669	0.135
Mof_C 	C 	0.074	0.004	0.628	-0.162
Mof_C 	C 	0.088	0.1059	0.6361	0.087
Mof_C 	C 	0.188	0.85	0.662	-0.209
Mof_C 	C 	0.226	0.53	0.764	0.049
Mof_C 	C 	0.241	0.639	0.771	-0.121
Mof_C 	C 	0.31	0.689	0.697	0.082
Mof_C 	C 	0.365	0.636	0.624	-0.141
Mof_C 	C 	0.352	0.536	0.62	0.069
Mof_C 	C 	0.316	0.806	0.714	-0.098
Mof_C 	C 	0.609	0.3459	0.6561	0.175
Mof_N 	N 	0.28	0.3255	0.8343	-0.243
Mof_N 	N 	0.221	0.312	0.5162	-0.227
Mof_N 	N 	0.012	0.3282	0.6696	-0.286
Mof_N 	N 	0.22	0.1657	0.6745	-0.243
Mof_N 	N 	0.279	0.4838	0.688	-0.227
Mof_N 	N 	0.488	0.3304	0.6718	-0.287
Mof_N 	N 	0.75	0.376	0.624	-0.184
_end
