data_functionalizedCrystal
_audit_creation_method	'EQeq! by Chris Wilmer'
_symmetry_space_group_name_H-M	'P1'
_symmetry_Int_Tables_number	1
_symmetry_cell_setting	triclinic
loop_
_symmetry_equiv_pos_as_xyz
  x,y,z
_cell_length_a	20.5262
_cell_length_b	20.5262
_cell_length_c	20.152
_cell_angle_alpha	90
_cell_angle_beta	90
_cell_angle_gamma	120
loop_
_atom_site_label
_atom_site_type_symbol
_atom_site_fract_x
_atom_site_fract_y
_atom_site_fract_z
_atom_site_charge
Mof_C 	C 	0.1677	0.3004	0.111	0.075
Mof_C 	C 	0.1782	0.3441	0.0558	-0.07
Mof_H 	H 	0.1473	0.323	0.0169	0.045
Mof_C 	C 	0.2299	0.4204	0.0598	0.053
Mof_C 	C 	0.2708	0.4533	0.1162	-0.089
Mof_H 	H 	0.3121	0.5044	0.1153	0.056
Mof_C 	C 	0.2586	0.4071	0.1695	0.015
Mof_H 	H 	0.2813	0.4298	0.2114	0.026
Mof_C 	C 	0.204	0.3324	0.1684	-0.09
Mof_H 	H 	0.2039	0.3	0.203	0.063
Mof_N 	N 	0.1224	0.222	0.10633	-0.048
Mof_C 	C 	0.1007	0.1731	0.1577	0.027
Mof_H 	H 	0.1116	0.1879	0.2036	0.018
Mof_N 	N 	0.0629	0.1051	0.13646	-0.088
Mof_C 	C 	0.0964	0.177	0.05151	0.036
Mof_H 	H 	0.1115	0.1941	0.0066	0.01
Mof_N 	N 	0.2462	0.4644	0.0007	-0.079
Mof_C 	C 	0.2487	0.4392	0.9376	0.04
Mof_H 	H 	0.242	0.3903	0.9275	0.022
Mof_N 	N 	0.2713	0.4924	0.8939	-0.065
Mof_H 	H 	0.2654	0.5672	0.0263	-0.012
Mof_C 	C 	0.83437	0.63373	0.44433	0.062
Mof_C 	C 	0.84487	0.67743	0.38913	-0.072
Mof_H 	H 	0.81397	0.65633	0.35023	0.045
Mof_C 	C 	0.89657	0.75373	0.39313	0.056
Mof_C 	C 	0.93747	0.78663	0.44953	-0.088
Mof_H 	H 	0.97877	0.83773	0.44863	0.062
Mof_C 	C 	0.92527	0.74043	0.50283	0.013
Mof_H 	H 	0.94797	0.76313	0.54473	0.031
Mof_C 	C 	0.87067	0.66573	0.50173	-0.082
Mof_H 	H 	0.87057	0.63333	0.53633	0.061
Mof_N 	N 	0.78907	0.55533	0.43966	-0.067
Mof_C 	C 	0.76737	0.50643	0.49103	0.039
Mof_H 	H 	0.77827	0.52123	0.53693	0.013
Mof_N 	N 	0.72957	0.43843	0.46979	-0.052
Mof_C 	C 	0.76307	0.51033	0.38484	0.037
Mof_H 	H 	0.77817	0.52743	0.33993	0.01
Mof_N 	N 	0.91287	0.79773	0.33403	-0.077
Mof_C 	C 	0.91537	0.77253	0.27093	0.042
Mof_H 	H 	0.90867	0.72363	0.26083	0.023
Mof_N 	N 	0.93797	0.82573	0.22723	-0.062
Mof_H 	H 	0.93207	0.90053	0.35963	-0.004
Mof_C 	C 	0.50103	0.96707	0.77767	0.069
Mof_C 	C 	0.51153	0.01077	0.72247	-0.094
Mof_H 	H 	0.48063	0.98967	0.68357	0.06
Mof_C 	C 	0.56323	0.08707	0.72647	0.065
Mof_C 	C 	0.60413	0.11997	0.78287	-0.089
Mof_H 	H 	0.64543	0.17107	0.78197	0.055
Mof_C 	C 	0.59193	0.07377	0.83617	-0.008
Mof_H 	H 	0.61463	0.09647	0.87807	0.03
Mof_C 	C 	0.53733	0.99907	0.83507	-0.068
Mof_H 	H 	0.53723	0.96667	0.86967	0.059
Mof_N 	N 	0.45573	0.88867	0.773	-0.071
Mof_C 	C 	0.43403	0.83977	0.82437	0.039
Mof_H 	H 	0.44493	0.85457	0.87027	0.013
Mof_N 	N 	0.39623	0.77177	0.80313	-0.052
Mof_C 	C 	0.42973	0.84367	0.71818	0.037
Mof_H 	H 	0.44483	0.86077	0.67327	0.01
Mof_N 	N 	0.57953	0.13107	0.66737	-0.084
Mof_C 	C 	0.58203	0.10587	0.60427	0.041
Mof_H 	H 	0.57533	0.05697	0.59417	0.016
Mof_N 	N 	0.60463	0.15907	0.56057	-0.066
Mof_H 	H 	0.59873	0.23387	0.69297	-0.008
Mof_C 	C 	0.6996	0.8673	0.111	0.076
Mof_C 	C 	0.6559	0.8341	0.0558	-0.071
Mof_H 	H 	0.677	0.8243	0.0169	0.045
Mof_C 	C 	0.5796	0.8095	0.0598	0.053
Mof_C 	C 	0.5467	0.8175	0.1162	-0.09
Mof_H 	H 	0.4956	0.8077	0.1153	0.056
Mof_C 	C 	0.5929	0.8515	0.1695	0.016
Mof_H 	H 	0.5702	0.8515	0.2114	0.025
Mof_C 	C 	0.6676	0.8716	0.1684	-0.092
Mof_H 	H 	0.7	0.9039	0.203	0.065
Mof_N 	N 	0.778	0.9004	0.10633	-0.048
Mof_C 	C 	0.8269	0.9276	0.1577	0.028
Mof_H 	H 	0.8121	0.9237	0.2036	0.021
Mof_N 	N 	0.8949	0.9578	0.13646	-0.083
Mof_C 	C 	0.823	0.9194	0.05151	0.038
Mof_H 	H 	0.8059	0.9174	0.0066	0.013
Mof_N 	N 	0.5356	0.7818	0.0007	-0.079
Mof_C 	C 	0.5608	0.8095	0.9376	0.039
Mof_H 	H 	0.6097	0.8517	0.9275	0.024
Mof_N 	N 	0.5076	0.7789	0.8939	-0.064
Mof_H 	H 	0.4328	0.6982	0.0263	-0.011
Mof_C 	C 	0.36627	0.20063	0.44433	0.061
Mof_C 	C 	0.32257	0.16743	0.38913	-0.072
Mof_H 	H 	0.34367	0.15763	0.35023	0.044
Mof_C 	C 	0.24627	0.14283	0.39313	0.054
Mof_C 	C 	0.21337	0.15083	0.44953	-0.087
Mof_H 	H 	0.16227	0.14103	0.44863	0.052
Mof_C 	C 	0.25957	0.18483	0.50283	0.008
Mof_H 	H 	0.23687	0.18483	0.54473	0.026
Mof_C 	C 	0.33427	0.20493	0.50173	-0.081
Mof_H 	H 	0.36667	0.23723	0.53633	0.059
Mof_N 	N 	0.44467	0.23373	0.43966	-0.067
Mof_C 	C 	0.49357	0.26093	0.49103	0.039
Mof_H 	H 	0.47877	0.25703	0.53693	0.012
Mof_N 	N 	0.56157	0.29113	0.46979	-0.052
Mof_C 	C 	0.48967	0.25273	0.38484	0.036
Mof_H 	H 	0.47257	0.25073	0.33993	0.01
Mof_N 	N 	0.20227	0.11513	0.33403	-0.077
Mof_C 	C 	0.22747	0.14283	0.27093	0.039
Mof_H 	H 	0.27637	0.18503	0.26083	0.021
Mof_N 	N 	0.17427	0.11223	0.22723	-0.064
Mof_H 	H 	0.09947	0.03153	0.35963	-0.014
Mof_C 	C 	0.03293	0.53397	0.77767	0.053
Mof_C 	C 	0.98923	0.50077	0.72247	-0.049
Mof_H 	H 	0.01033	0.49097	0.68357	0.031
Mof_C 	C 	0.91293	0.47617	0.72647	0.06
Mof_C 	C 	0.88003	0.48417	0.78287	-0.098
Mof_H 	H 	0.82893	0.47437	0.78197	0.058
Mof_C 	C 	0.92623	0.51817	0.83617	0.033
Mof_H 	H 	0.90353	0.51817	0.87807	0.021
Mof_C 	C 	0.00093	0.53827	0.83507	-0.1
Mof_H 	H 	0.03333	0.57057	0.86967	0.062
Mof_N 	N 	0.11133	0.56707	0.773	-0.069
Mof_C 	C 	0.16023	0.59427	0.82437	0.038
Mof_H 	H 	0.14543	0.59037	0.87027	0.013
Mof_N 	N 	0.22823	0.62447	0.80313	-0.052
Mof_C 	C 	0.15633	0.58607	0.71818	0.036
Mof_H 	H 	0.13923	0.58407	0.67327	0.009
Mof_N 	N 	0.86893	0.44847	0.66737	-0.082
Mof_C 	C 	0.89413	0.47617	0.60427	0.042
Mof_H 	H 	0.94303	0.51837	0.59417	0.025
Mof_N 	N 	0.84093	0.44557	0.56057	-0.065
Mof_H 	H 	0.76613	0.36487	0.69297	-0.007
Mof_C 	C 	0.1327	0.8323	0.111	0.031
Mof_C 	C 	0.1659	0.8218	0.0558	-0.072
Mof_H 	H 	0.1757	0.8527	0.0169	0.047
Mof_C 	C 	0.1905	0.7701	0.0598	0.084
Mof_C 	C 	0.1825	0.7292	0.1162	-0.101
Mof_H 	H 	0.1923	0.6879	0.1153	0.058
Mof_C 	C 	0.1485	0.7414	0.1695	0.007
Mof_H 	H 	0.1485	0.7187	0.2114	0.026
Mof_C 	C 	0.1284	0.796	0.1684	-0.067
Mof_H 	H 	0.0961	0.7961	0.203	0.053
Mof_N 	N 	0.0996	0.8776	0.10633	-0.116
Mof_C 	C 	0.0724	0.8993	0.1577	0.061
Mof_H 	H 	0.0763	0.8884	0.2036	0
Mof_N 	N 	0.0422	0.9371	0.13646	0.024
Mof_C 	C 	0.0806	0.9036	0.05151	0.034
Mof_H 	H 	0.0826	0.8885	0.0066	0.005
Mof_N 	N 	0.2182	0.7538	0.0007	-0.101
Mof_C 	C 	0.1905	0.7513	0.9376	0.051
Mof_H 	H 	0.1483	0.758	0.9275	0.016
Mof_N 	N 	0.2211	0.7287	0.8939	-0.068
Mof_H 	H 	0.3018	0.7346	0.0263	-0.011
Mof_C 	C 	0.79937	0.16563	0.44433	0.058
Mof_C 	C 	0.83257	0.15513	0.38913	-0.07
Mof_H 	H 	0.84237	0.18603	0.35023	0.05
Mof_C 	C 	0.85717	0.10343	0.39313	0.078
Mof_C 	C 	0.84917	0.06253	0.44953	-0.105
Mof_H 	H 	0.85897	0.02123	0.44863	0.055
Mof_C 	C 	0.81517	0.07473	0.50283	0.015
Mof_H 	H 	0.81517	0.05203	0.54473	0.019
Mof_C 	C 	0.79507	0.12933	0.50173	-0.087
Mof_H 	H 	0.76277	0.12943	0.53633	0.06
Mof_N 	N 	0.76627	0.21093	0.43966	-0.078
Mof_C 	C 	0.73907	0.23263	0.49103	0.038
Mof_H 	H 	0.74297	0.22173	0.53693	0.012
Mof_N 	N 	0.70887	0.27043	0.46979	-0.05
Mof_C 	C 	0.74727	0.23693	0.38484	0.036
Mof_H 	H 	0.74927	0.22183	0.33993	0.008
Mof_N 	N 	0.88487	0.08713	0.33403	-0.096
Mof_C 	C 	0.85717	0.08463	0.27093	0.044
Mof_H 	H 	0.81497	0.09133	0.26083	0.017
Mof_N 	N 	0.88777	0.06203	0.22723	-0.069
Mof_H 	H 	0.96847	0.06793	0.35963	-0.002
Mof_C 	C 	0.46603	0.49897	0.77767	0.06
Mof_C 	C 	0.49923	0.48847	0.72247	-0.071
Mof_H 	H 	0.50903	0.51937	0.68357	0.046
Mof_C 	C 	0.52383	0.43677	0.72647	0.063
Mof_C 	C 	0.51583	0.39587	0.78287	-0.094
Mof_H 	H 	0.52563	0.35457	0.78197	0.056
Mof_C 	C 	0.48183	0.40807	0.83617	0.012
Mof_H 	H 	0.48183	0.38537	0.87807	0.026
Mof_C 	C 	0.46173	0.46267	0.83507	-0.083
Mof_H 	H 	0.42943	0.46277	0.86967	0.06
Mof_N 	N 	0.43293	0.54427	0.773	-0.072
Mof_C 	C 	0.40573	0.56597	0.82437	0.039
Mof_H 	H 	0.40963	0.55507	0.87027	0.012
Mof_N 	N 	0.37553	0.60377	0.80313	-0.05
Mof_C 	C 	0.41393	0.57027	0.71818	0.036
Mof_H 	H 	0.41593	0.55517	0.67327	0.009
Mof_N 	N 	0.55153	0.42047	0.66737	-0.084
Mof_C 	C 	0.52383	0.41797	0.60427	0.042
Mof_H 	H 	0.48163	0.42467	0.59417	0.02
Mof_N 	N 	0.55443	0.39537	0.56057	-0.066
Mof_H 	H 	0.63513	0.40127	0.69297	-0.007
Mof_C 	C 	0.3004	0.1677	0.889	0.074
Mof_C 	C 	0.3441	0.1782	0.9442	-0.071
Mof_H 	H 	0.323	0.1473	0.9831	0.045
Mof_C 	C 	0.4204	0.2299	0.9402	0.052
Mof_C 	C 	0.4533	0.2708	0.8838	-0.089
Mof_H 	H 	0.5044	0.3121	0.8847	0.055
Mof_C 	C 	0.4071	0.2586	0.8305	0.014
Mof_H 	H 	0.4298	0.2813	0.7886	0.024
Mof_C 	C 	0.3324	0.204	0.8316	-0.091
Mof_H 	H 	0.3	0.2039	0.797	0.062
Mof_N 	N 	0.222	0.1224	0.89367	-0.049
Mof_C 	C 	0.1731	0.1007	0.8423	0.027
Mof_H 	H 	0.1879	0.1116	0.7964	0.018
Mof_N 	N 	0.1051	0.0629	0.86354	-0.088
Mof_C 	C 	0.177	0.0964	0.94849	0.037
Mof_H 	H 	0.1941	0.1115	0.9934	0.012
Mof_N 	N 	0.4644	0.2462	0.9993	-0.073
Mof_C 	C 	0.4392	0.2487	0.0624	0.036
Mof_H 	H 	0.3903	0.242	0.0725	0.021
Mof_N 	N 	0.4924	0.2713	0.1061	-0.065
Mof_H 	H 	0.5672	0.2654	0.9737	-0.003
Mof_C 	C 	0.96707	0.50103	0.22233	0.069
Mof_C 	C 	0.01077	0.51153	0.27753	-0.094
Mof_H 	H 	0.98967	0.48063	0.31643	0.061
Mof_C 	C 	0.08707	0.56323	0.27353	0.064
Mof_C 	C 	0.11997	0.60413	0.21713	-0.089
Mof_H 	H 	0.17107	0.64543	0.21803	0.055
Mof_C 	C 	0.07377	0.59193	0.16383	-0.008
Mof_H 	H 	0.09647	0.61463	0.12193	0.029
Mof_C 	C 	0.99907	0.53733	0.16493	-0.067
Mof_H 	H 	0.96667	0.53723	0.13033	0.058
Mof_N 	N 	0.88867	0.45573	0.227	-0.071
Mof_C 	C 	0.83977	0.43403	0.17563	0.039
Mof_H 	H 	0.85457	0.44493	0.12973	0.013
Mof_N 	N 	0.77177	0.39623	0.19687	-0.052
Mof_C 	C 	0.84367	0.42973	0.28182	0.037
Mof_H 	H 	0.86077	0.44483	0.32673	0.01
Mof_N 	N 	0.13107	0.57953	0.33263	-0.084
Mof_C 	C 	0.10587	0.58203	0.39573	0.041
Mof_H 	H 	0.05697	0.57533	0.40583	0.016
Mof_N 	N 	0.15907	0.60463	0.43943	-0.066
Mof_H 	H 	0.23387	0.59873	0.30703	-0.008
Mof_C 	C 	0.63373	0.83437	0.55567	0.062
Mof_C 	C 	0.67743	0.84487	0.61087	-0.072
Mof_H 	H 	0.65633	0.81397	0.64977	0.045
Mof_C 	C 	0.75373	0.89657	0.60687	0.056
Mof_C 	C 	0.78663	0.93747	0.55047	-0.088
Mof_H 	H 	0.83773	0.97877	0.55137	0.062
Mof_C 	C 	0.74043	0.92527	0.49717	0.013
Mof_H 	H 	0.76313	0.94797	0.45527	0.031
Mof_C 	C 	0.66573	0.87067	0.49827	-0.082
Mof_H 	H 	0.63333	0.87057	0.46367	0.061
Mof_N 	N 	0.55533	0.78907	0.56034	-0.067
Mof_C 	C 	0.50643	0.76737	0.50897	0.039
Mof_H 	H 	0.52123	0.77827	0.46307	0.013
Mof_N 	N 	0.43843	0.72957	0.53021	-0.052
Mof_C 	C 	0.51033	0.76307	0.61516	0.037
Mof_H 	H 	0.52743	0.77817	0.66007	0.01
Mof_N 	N 	0.79773	0.91287	0.66597	-0.077
Mof_C 	C 	0.77253	0.91537	0.72907	0.042
Mof_H 	H 	0.72363	0.90867	0.73917	0.023
Mof_N 	N 	0.82573	0.93797	0.77277	-0.062
Mof_H 	H 	0.90053	0.93207	0.64037	-0.005
Mof_C 	C 	0.8673	0.6996	0.889	0.076
Mof_C 	C 	0.8341	0.6559	0.9442	-0.071
Mof_H 	H 	0.8243	0.677	0.9831	0.047
Mof_C 	C 	0.8095	0.5796	0.9402	0.053
Mof_C 	C 	0.8175	0.5467	0.8838	-0.09
Mof_H 	H 	0.8077	0.4956	0.8847	0.056
Mof_C 	C 	0.8515	0.5929	0.8305	0.016
Mof_H 	H 	0.8515	0.5702	0.7886	0.025
Mof_C 	C 	0.8716	0.6676	0.8316	-0.091
Mof_H 	H 	0.9039	0.7	0.797	0.065
Mof_N 	N 	0.9004	0.778	0.89367	-0.049
Mof_C 	C 	0.9276	0.8269	0.8423	0.029
Mof_H 	H 	0.9237	0.8121	0.7964	0.021
Mof_N 	N 	0.9578	0.8949	0.86354	-0.082
Mof_C 	C 	0.9194	0.823	0.94849	0.038
Mof_H 	H 	0.9174	0.8059	0.9934	0.014
Mof_N 	N 	0.7818	0.5356	0.9993	-0.073
Mof_C 	C 	0.8095	0.5608	0.0624	0.036
Mof_H 	H 	0.8517	0.6097	0.0725	0.023
Mof_N 	N 	0.7789	0.5076	0.1061	-0.064
Mof_H 	H 	0.6982	0.4328	0.9737	-0.003
Mof_C 	C 	0.53397	0.03293	0.22233	0.052
Mof_C 	C 	0.50077	0.98923	0.27753	-0.048
Mof_H 	H 	0.49097	0.01033	0.31643	0.031
Mof_C 	C 	0.47617	0.91293	0.27353	0.06
Mof_C 	C 	0.48417	0.88003	0.21713	-0.098
Mof_H 	H 	0.47437	0.82893	0.21803	0.058
Mof_C 	C 	0.51817	0.92623	0.16383	0.034
Mof_H 	H 	0.51817	0.90353	0.12193	0.02
Mof_C 	C 	0.53827	0.00093	0.16493	-0.101
Mof_H 	H 	0.57057	0.03333	0.13033	0.061
Mof_N 	N 	0.56707	0.11133	0.227	-0.069
Mof_C 	C 	0.59427	0.16023	0.17563	0.038
Mof_H 	H 	0.59037	0.14543	0.12973	0.012
Mof_N 	N 	0.62447	0.22823	0.19687	-0.052
Mof_C 	C 	0.58607	0.15633	0.28182	0.036
Mof_H 	H 	0.58407	0.13923	0.32673	0.009
Mof_N 	N 	0.44847	0.86893	0.33263	-0.082
Mof_C 	C 	0.47617	0.89413	0.39573	0.042
Mof_H 	H 	0.51837	0.94303	0.40583	0.025
Mof_N 	N 	0.44557	0.84093	0.43943	-0.065
Mof_H 	H 	0.36487	0.76613	0.30703	-0.007
Mof_C 	C 	0.20063	0.36627	0.55567	0.061
Mof_C 	C 	0.16743	0.32257	0.61087	-0.072
Mof_H 	H 	0.15763	0.34367	0.64977	0.044
Mof_C 	C 	0.14283	0.24627	0.60687	0.054
Mof_C 	C 	0.15083	0.21337	0.55047	-0.087
Mof_H 	H 	0.14103	0.16227	0.55137	0.052
Mof_C 	C 	0.18483	0.25957	0.49717	0.009
Mof_H 	H 	0.18483	0.23687	0.45527	0.026
Mof_C 	C 	0.20493	0.33427	0.49827	-0.081
Mof_H 	H 	0.23723	0.36667	0.46367	0.059
Mof_N 	N 	0.23373	0.44467	0.56034	-0.067
Mof_C 	C 	0.26093	0.49357	0.50897	0.039
Mof_H 	H 	0.25703	0.47877	0.46307	0.012
Mof_N 	N 	0.29113	0.56157	0.53021	-0.052
Mof_C 	C 	0.25273	0.48967	0.61516	0.036
Mof_H 	H 	0.25073	0.47257	0.66007	0.01
Mof_N 	N 	0.11513	0.20227	0.66597	-0.077
Mof_C 	C 	0.14283	0.22747	0.72907	0.039
Mof_H 	H 	0.18503	0.27637	0.73917	0.021
Mof_N 	N 	0.11223	0.17427	0.77277	-0.064
Mof_H 	H 	0.03153	0.09947	0.64037	-0.014
Mof_C 	C 	0.8323	0.1327	0.889	0.032
Mof_C 	C 	0.8218	0.1659	0.9442	-0.072
Mof_H 	H 	0.8527	0.1757	0.9831	0.049
Mof_C 	C 	0.7701	0.1905	0.9402	0.083
Mof_C 	C 	0.7292	0.1825	0.8838	-0.1
Mof_H 	H 	0.6879	0.1923	0.8847	0.058
Mof_C 	C 	0.7414	0.1485	0.8305	0.007
Mof_H 	H 	0.7187	0.1485	0.7886	0.026
Mof_C 	C 	0.796	0.1284	0.8316	-0.067
Mof_H 	H 	0.7961	0.0961	0.797	0.053
Mof_N 	N 	0.8776	0.0996	0.89367	-0.115
Mof_C 	C 	0.8993	0.0724	0.8423	0.061
Mof_H 	H 	0.8884	0.0763	0.7964	0
Mof_N 	N 	0.9371	0.0422	0.86354	0.023
Mof_C 	C 	0.9036	0.0806	0.94849	0.035
Mof_H 	H 	0.8885	0.0826	0.9934	0.007
Mof_N 	N 	0.7538	0.2182	0.9993	-0.094
Mof_C 	C 	0.7513	0.1905	0.0624	0.047
Mof_H 	H 	0.758	0.1483	0.0725	0.016
Mof_N 	N 	0.7287	0.2211	0.1061	-0.068
Mof_H 	H 	0.7346	0.3018	0.9737	-0.002
Mof_C 	C 	0.49897	0.46603	0.22233	0.06
Mof_C 	C 	0.48847	0.49923	0.27753	-0.071
Mof_H 	H 	0.51937	0.50903	0.31643	0.046
Mof_C 	C 	0.43677	0.52383	0.27353	0.063
Mof_C 	C 	0.39587	0.51583	0.21713	-0.094
Mof_H 	H 	0.35457	0.52563	0.21803	0.056
Mof_C 	C 	0.40807	0.48183	0.16383	0.012
Mof_H 	H 	0.38537	0.48183	0.12193	0.025
Mof_C 	C 	0.46267	0.46173	0.16493	-0.083
Mof_H 	H 	0.46277	0.42943	0.13033	0.059
Mof_N 	N 	0.54427	0.43293	0.227	-0.072
Mof_C 	C 	0.56597	0.40573	0.17563	0.039
Mof_H 	H 	0.55507	0.40963	0.12973	0.012
Mof_N 	N 	0.60377	0.37553	0.19687	-0.05
Mof_C 	C 	0.57027	0.41393	0.28182	0.036
Mof_H 	H 	0.55517	0.41593	0.32673	0.009
Mof_N 	N 	0.42047	0.55153	0.33263	-0.084
Mof_C 	C 	0.41797	0.52383	0.39573	0.042
Mof_H 	H 	0.42467	0.48163	0.40583	0.02
Mof_N 	N 	0.39537	0.55443	0.43943	-0.066
Mof_H 	H 	0.40127	0.63513	0.30703	-0.007
Mof_C 	C 	0.16563	0.79937	0.55567	0.058
Mof_C 	C 	0.15513	0.83257	0.61087	-0.07
Mof_H 	H 	0.18603	0.84237	0.64977	0.05
Mof_C 	C 	0.10343	0.85717	0.60687	0.078
Mof_C 	C 	0.06253	0.84917	0.55047	-0.105
Mof_H 	H 	0.02123	0.85897	0.55137	0.055
Mof_C 	C 	0.07473	0.81517	0.49717	0.015
Mof_H 	H 	0.05203	0.81517	0.45527	0.019
Mof_C 	C 	0.12933	0.79507	0.49827	-0.087
Mof_H 	H 	0.12943	0.76277	0.46367	0.06
Mof_N 	N 	0.21093	0.76627	0.56034	-0.078
Mof_C 	C 	0.23263	0.73907	0.50897	0.038
Mof_H 	H 	0.22173	0.74297	0.46307	0.012
Mof_N 	N 	0.27043	0.70887	0.53021	-0.05
Mof_C 	C 	0.23693	0.74727	0.61516	0.036
Mof_H 	H 	0.22183	0.74927	0.66007	0.009
Mof_N 	N 	0.08713	0.88487	0.66597	-0.096
Mof_C 	C 	0.08463	0.85717	0.72907	0.044
Mof_H 	H 	0.09133	0.81497	0.73917	0.017
Mof_N 	N 	0.06203	0.88777	0.77277	-0.069
Mof_H 	H 	0.06793	0.96847	0.64037	-0.003
Mof_C 	C 	0.8323	0.6996	0.889	0.048
Mof_C 	C 	0.8218	0.6559	0.9442	-0.072
Mof_H 	H 	0.8527	0.677	0.9831	0.048
Mof_C 	C 	0.7701	0.5796	0.9402	0.073
Mof_C 	C 	0.7292	0.5467	0.8838	-0.097
Mof_H 	H 	0.6879	0.4956	0.8847	0.057
Mof_C 	C 	0.7414	0.5929	0.8305	0.011
Mof_H 	H 	0.7187	0.5702	0.7886	0.026
Mof_C 	C 	0.796	0.6676	0.8316	-0.076
Mof_H 	H 	0.7961	0.7	0.797	0.058
Mof_N 	N 	0.8776	0.778	0.89367	-0.092
Mof_C 	C 	0.8993	0.8269	0.8423	0.05
Mof_H 	H 	0.8884	0.8121	0.7964	0.008
Mof_N 	N 	0.9371	0.8949	0.86354	-0.012
Mof_C 	C 	0.9036	0.823	0.94849	0.036
Mof_H 	H 	0.8885	0.8059	0.9934	0.01
Mof_N 	N 	0.7538	0.5356	0.9993	-0.087
Mof_C 	C 	0.7513	0.5608	0.0624	0.044
Mof_H 	H 	0.758	0.6097	0.0725	0.019
Mof_N 	N 	0.7287	0.5076	0.1061	-0.066
Mof_H 	H 	0.7346	0.4328	0.9737	-0.003
Mof_C 	C 	0.49897	0.03293	0.22233	0.051
Mof_C 	C 	0.48847	0.98923	0.27753	-0.048
Mof_H 	H 	0.51937	0.01033	0.31643	0.031
Mof_C 	C 	0.43677	0.91293	0.27353	0.059
Mof_C 	C 	0.39587	0.88003	0.21713	-0.097
Mof_H 	H 	0.35457	0.82893	0.21803	0.058
Mof_C 	C 	0.40807	0.92623	0.16383	0.034
Mof_H 	H 	0.38537	0.90353	0.12193	0.021
Mof_C 	C 	0.46267	0.00093	0.16493	-0.101
Mof_H 	H 	0.46277	0.03333	0.13033	0.061
Mof_N 	N 	0.54427	0.11133	0.227	-0.07
Mof_C 	C 	0.56597	0.16023	0.17563	0.039
Mof_H 	H 	0.55507	0.14543	0.12973	0.012
Mof_N 	N 	0.60377	0.22823	0.19687	-0.05
Mof_C 	C 	0.57027	0.15633	0.28182	0.036
Mof_H 	H 	0.55517	0.13923	0.32673	0.009
Mof_N 	N 	0.42047	0.86893	0.33263	-0.082
Mof_C 	C 	0.41797	0.89413	0.39573	0.041
Mof_H 	H 	0.42467	0.94303	0.40583	0.026
Mof_N 	N 	0.39537	0.84093	0.43943	-0.065
Mof_H 	H 	0.40127	0.76613	0.30703	-0.007
Mof_C 	C 	0.16563	0.36627	0.55567	0.059
Mof_C 	C 	0.15513	0.32257	0.61087	-0.07
Mof_H 	H 	0.18603	0.34367	0.64977	0.048
Mof_C 	C 	0.10343	0.24627	0.60687	0.069
Mof_C 	C 	0.06253	0.21337	0.55047	-0.099
Mof_H 	H 	0.02123	0.16227	0.55137	0.05
Mof_C 	C 	0.07473	0.25957	0.49717	0.011
Mof_H 	H 	0.05203	0.23687	0.45527	0.019
Mof_C 	C 	0.12933	0.33427	0.49827	-0.085
Mof_H 	H 	0.12943	0.36667	0.46367	0.059
Mof_N 	N 	0.21093	0.44467	0.56034	-0.074
Mof_C 	C 	0.23263	0.49357	0.50897	0.038
Mof_H 	H 	0.22173	0.47877	0.46307	0.012
Mof_N 	N 	0.27043	0.56157	0.53021	-0.05
Mof_C 	C 	0.23693	0.48967	0.61516	0.036
Mof_H 	H 	0.22183	0.47257	0.66007	0.009
Mof_N 	N 	0.08713	0.20227	0.66597	-0.09
Mof_C 	C 	0.08463	0.22747	0.72907	0.042
Mof_H 	H 	0.09133	0.27637	0.73917	0.018
Mof_N 	N 	0.06203	0.17427	0.77277	-0.068
Mof_H 	H 	0.06793	0.09947	0.64037	-0.01
Mof_C 	C 	0.3004	0.1327	0.889	0.045
Mof_C 	C 	0.3441	0.1659	0.9442	-0.071
Mof_H 	H 	0.323	0.1757	0.9831	0.047
Mof_C 	C 	0.4204	0.1905	0.9402	0.072
Mof_C 	C 	0.4533	0.1825	0.8838	-0.096
Mof_H 	H 	0.5044	0.1923	0.8847	0.057
Mof_C 	C 	0.4071	0.1485	0.8305	0.008
Mof_H 	H 	0.4298	0.1485	0.7886	0.026
Mof_C 	C 	0.3324	0.1284	0.8316	-0.075
Mof_H 	H 	0.3	0.0961	0.797	0.055
Mof_N 	N 	0.222	0.0996	0.89367	-0.093
Mof_C 	C 	0.1731	0.0724	0.8423	0.049
Mof_H 	H 	0.1879	0.0763	0.7964	0.005
Mof_N 	N 	0.1051	0.0422	0.86354	-0.016
Mof_C 	C 	0.177	0.0806	0.94849	0.035
Mof_H 	H 	0.1941	0.0826	0.9934	0.007
Mof_N 	N 	0.4644	0.2182	0.9993	-0.087
Mof_C 	C 	0.4392	0.1905	0.0624	0.043
Mof_H 	H 	0.3903	0.1483	0.0725	0.017
Mof_N 	N 	0.4924	0.2211	0.1061	-0.067
Mof_H 	H 	0.5672	0.3018	0.9737	-0.003
Mof_C 	C 	0.96707	0.46603	0.22233	0.069
Mof_C 	C 	0.01077	0.49923	0.27753	-0.093
Mof_H 	H 	0.98967	0.50903	0.31643	0.061
Mof_C 	C 	0.08707	0.52383	0.27353	0.067
Mof_C 	C 	0.11997	0.51583	0.21713	-0.09
Mof_H 	H 	0.17107	0.52563	0.21803	0.055
Mof_C 	C 	0.07377	0.48183	0.16383	-0.008
Mof_H 	H 	0.09647	0.48183	0.12193	0.029
Mof_C 	C 	0.99907	0.46173	0.16493	-0.067
Mof_H 	H 	0.96667	0.42943	0.13033	0.058
Mof_N 	N 	0.88867	0.43293	0.227	-0.072
Mof_C 	C 	0.83977	0.40573	0.17563	0.039
Mof_H 	H 	0.85457	0.40963	0.12973	0.012
Mof_N 	N 	0.77177	0.37553	0.19687	-0.05
Mof_C 	C 	0.84367	0.41393	0.28182	0.037
Mof_H 	H 	0.86077	0.41593	0.32673	0.01
Mof_N 	N 	0.13107	0.55153	0.33263	-0.085
Mof_C 	C 	0.10587	0.52383	0.39573	0.042
Mof_H 	H 	0.05697	0.48163	0.40583	0.015
Mof_N 	N 	0.15907	0.55443	0.43943	-0.066
Mof_H 	H 	0.23387	0.63513	0.30703	-0.008
Mof_C 	C 	0.63373	0.79937	0.55567	0.06
Mof_C 	C 	0.67743	0.83257	0.61087	-0.071
Mof_H 	H 	0.65633	0.84237	0.64977	0.048
Mof_C 	C 	0.75373	0.85717	0.60687	0.071
Mof_C 	C 	0.78663	0.84917	0.55047	-0.099
Mof_H 	H 	0.83773	0.85897	0.55137	0.06
Mof_C 	C 	0.74043	0.81517	0.49717	0.016
Mof_H 	H 	0.76313	0.81517	0.45527	0.025
Mof_C 	C 	0.66573	0.79507	0.49827	-0.085
Mof_H 	H 	0.63333	0.76277	0.46367	0.061
Mof_N 	N 	0.55533	0.76627	0.56034	-0.074
Mof_C 	C 	0.50643	0.73907	0.50897	0.038
Mof_H 	H 	0.52123	0.74297	0.46307	0.012
Mof_N 	N 	0.43843	0.70887	0.53021	-0.05
Mof_C 	C 	0.51033	0.74727	0.61516	0.036
Mof_H 	H 	0.52743	0.74927	0.66007	0.009
Mof_N 	N 	0.79773	0.88487	0.66597	-0.089
Mof_C 	C 	0.77253	0.85717	0.72907	0.044
Mof_H 	H 	0.72363	0.81497	0.73917	0.02
Mof_N 	N 	0.82573	0.88777	0.77277	-0.066
Mof_H 	H 	0.90053	0.96847	0.64037	-0.001
Mof_C 	C 	0.8673	0.1677	0.889	0.09
Mof_C 	C 	0.8341	0.1782	0.9442	-0.071
Mof_H 	H 	0.8243	0.1473	0.9831	0.045
Mof_C 	C 	0.8095	0.2299	0.9402	0.042
Mof_C 	C 	0.8175	0.2708	0.8838	-0.086
Mof_H 	H 	0.8077	0.3121	0.8847	0.054
Mof_C 	C 	0.8515	0.2586	0.8305	0.018
Mof_H 	H 	0.8515	0.2813	0.7886	0.024
Mof_C 	C 	0.8716	0.204	0.8316	-0.1
Mof_H 	H 	0.9039	0.2039	0.797	0.067
Mof_N 	N 	0.9004	0.1224	0.89367	-0.026
Mof_C 	C 	0.9276	0.1007	0.8423	0.017
Mof_H 	H 	0.9237	0.1116	0.7964	0.026
Mof_N 	N 	0.9578	0.0629	0.86354	-0.121
Mof_C 	C 	0.9194	0.0964	0.94849	0.038
Mof_H 	H 	0.9174	0.1115	0.9934	0.015
Mof_N 	N 	0.7818	0.2462	0.9993	-0.066
Mof_C 	C 	0.8095	0.2487	0.0624	0.032
Mof_H 	H 	0.8517	0.242	0.0725	0.024
Mof_N 	N 	0.7789	0.2713	0.1061	-0.063
Mof_H 	H 	0.6982	0.2654	0.9737	-0.003
Mof_C 	C 	0.53397	0.50103	0.22233	0.061
Mof_C 	C 	0.50077	0.51153	0.27753	-0.071
Mof_H 	H 	0.49097	0.48063	0.31643	0.046
Mof_C 	C 	0.47617	0.56323	0.27353	0.062
Mof_C 	C 	0.48417	0.60413	0.21713	-0.093
Mof_H 	H 	0.47437	0.64543	0.21803	0.056
Mof_C 	C 	0.51817	0.59193	0.16383	0.012
Mof_H 	H 	0.51817	0.61463	0.12193	0.025
Mof_C 	C 	0.53827	0.53733	0.16493	-0.084
Mof_H 	H 	0.57057	0.53723	0.13033	0.06
Mof_N 	N 	0.56707	0.45573	0.227	-0.07
Mof_C 	C 	0.59427	0.43403	0.17563	0.038
Mof_H 	H 	0.59037	0.44493	0.12973	0.012
Mof_N 	N 	0.62447	0.39623	0.19687	-0.053
Mof_C 	C 	0.58607	0.42973	0.28182	0.036
Mof_H 	H 	0.58407	0.44483	0.32673	0.009
Mof_N 	N 	0.44847	0.57953	0.33263	-0.083
Mof_C 	C 	0.47617	0.58203	0.39573	0.041
Mof_H 	H 	0.51837	0.57533	0.40583	0.021
Mof_N 	N 	0.44557	0.60463	0.43943	-0.066
Mof_H 	H 	0.36487	0.59873	0.30703	-0.008
Mof_C 	C 	0.20063	0.83437	0.55567	0.063
Mof_C 	C 	0.16743	0.84487	0.61087	-0.073
Mof_H 	H 	0.15763	0.81397	0.64977	0.042
Mof_C 	C 	0.14283	0.89657	0.60687	0.048
Mof_C 	C 	0.15083	0.93747	0.55047	-0.082
Mof_H 	H 	0.14103	0.97877	0.55137	0.058
Mof_C 	C 	0.18483	0.92527	0.49717	0.01
Mof_H 	H 	0.18483	0.94797	0.45527	0.032
Mof_C 	C 	0.20493	0.87067	0.49827	-0.08
Mof_H 	H 	0.23723	0.87057	0.46367	0.061
Mof_N 	N 	0.23373	0.78907	0.56034	-0.064
Mof_C 	C 	0.26093	0.76737	0.50897	0.039
Mof_H 	H 	0.25703	0.77827	0.46307	0.013
Mof_N 	N 	0.29113	0.72957	0.53021	-0.053
Mof_C 	C 	0.25273	0.76307	0.61516	0.037
Mof_H 	H 	0.25073	0.77817	0.66007	0.01
Mof_N 	N 	0.11513	0.91287	0.66597	-0.071
Mof_C 	C 	0.14283	0.91537	0.72907	0.039
Mof_H 	H 	0.18503	0.90867	0.73917	0.024
Mof_N 	N 	0.11223	0.93797	0.77277	-0.061
Mof_H 	H 	0.03153	0.93207	0.64037	-0.011
Mof_C 	C 	0.6996	0.8323	0.111	0.047
Mof_C 	C 	0.6559	0.8218	0.0558	-0.072
Mof_H 	H 	0.677	0.8527	0.0169	0.047
Mof_C 	C 	0.5796	0.7701	0.0598	0.073
Mof_C 	C 	0.5467	0.7292	0.1162	-0.097
Mof_H 	H 	0.4956	0.6879	0.1153	0.057
Mof_C 	C 	0.5929	0.7414	0.1695	0.011
Mof_H 	H 	0.5702	0.7187	0.2114	0.026
Mof_C 	C 	0.6676	0.796	0.1684	-0.076
Mof_H 	H 	0.7	0.7961	0.203	0.058
Mof_N 	N 	0.778	0.8776	0.10633	-0.093
Mof_C 	C 	0.8269	0.8993	0.1577	0.051
Mof_H 	H 	0.8121	0.8884	0.2036	0.008
Mof_N 	N 	0.8949	0.9371	0.13646	-0.011
Mof_C 	C 	0.823	0.9036	0.05151	0.036
Mof_H 	H 	0.8059	0.8885	0.0066	0.008
Mof_N 	N 	0.5356	0.7538	0.0007	-0.093
Mof_C 	C 	0.5608	0.7513	0.9376	0.048
Mof_H 	H 	0.6097	0.758	0.9275	0.02
Mof_N 	N 	0.5076	0.7287	0.8939	-0.067
Mof_H 	H 	0.4328	0.7346	0.0263	-0.011
Mof_C 	C 	0.36627	0.16563	0.44433	0.058
Mof_C 	C 	0.32257	0.15513	0.38913	-0.07
Mof_H 	H 	0.34367	0.18603	0.35023	0.048
Mof_C 	C 	0.24627	0.10343	0.39313	0.069
Mof_C 	C 	0.21337	0.06253	0.44953	-0.099
Mof_H 	H 	0.16227	0.02123	0.44863	0.05
Mof_C 	C 	0.25957	0.07473	0.50283	0.011
Mof_H 	H 	0.23687	0.05203	0.54473	0.019
Mof_C 	C 	0.33427	0.12933	0.50173	-0.085
Mof_H 	H 	0.36667	0.12943	0.53633	0.059
Mof_N 	N 	0.44467	0.21093	0.43966	-0.074
Mof_C 	C 	0.49357	0.23263	0.49103	0.038
Mof_H 	H 	0.47877	0.22173	0.53693	0.012
Mof_N 	N 	0.56157	0.27043	0.46979	-0.05
Mof_C 	C 	0.48967	0.23693	0.38484	0.036
Mof_H 	H 	0.47257	0.22183	0.33993	0.009
Mof_N 	N 	0.20227	0.08713	0.33403	-0.09
Mof_C 	C 	0.22747	0.08463	0.27093	0.042
Mof_H 	H 	0.27637	0.09133	0.26083	0.017
Mof_N 	N 	0.17427	0.06203	0.22723	-0.069
Mof_H 	H 	0.09947	0.06793	0.35963	-0.01
Mof_C 	C 	0.03293	0.49897	0.77767	0.052
Mof_C 	C 	0.98923	0.48847	0.72247	-0.049
Mof_H 	H 	0.01033	0.51937	0.68357	0.031
Mof_C 	C 	0.91293	0.43677	0.72647	0.059
Mof_C 	C 	0.88003	0.39587	0.78287	-0.097
Mof_H 	H 	0.82893	0.35457	0.78197	0.058
Mof_C 	C 	0.92623	0.40807	0.83617	0.033
Mof_H 	H 	0.90353	0.38537	0.87807	0.022
Mof_C 	C 	0.00093	0.46267	0.83507	-0.1
Mof_H 	H 	0.03333	0.46277	0.86967	0.062
Mof_N 	N 	0.11133	0.54427	0.773	-0.07
Mof_C 	C 	0.16023	0.56597	0.82437	0.039
Mof_H 	H 	0.14543	0.55507	0.87027	0.012
Mof_N 	N 	0.22823	0.60377	0.80313	-0.05
Mof_C 	C 	0.15633	0.57027	0.71818	0.036
Mof_H 	H 	0.13923	0.55517	0.67327	0.009
Mof_N 	N 	0.86893	0.42047	0.66737	-0.082
Mof_C 	C 	0.89413	0.41797	0.60427	0.041
Mof_H 	H 	0.94303	0.42467	0.59417	0.026
Mof_N 	N 	0.84093	0.39537	0.56057	-0.065
Mof_H 	H 	0.76613	0.40127	0.69297	-0.007
Mof_C 	C 	0.1327	0.3004	0.111	0.045
Mof_C 	C 	0.1659	0.3441	0.0558	-0.072
Mof_H 	H 	0.1757	0.323	0.0169	0.045
Mof_C 	C 	0.1905	0.4204	0.0598	0.072
Mof_C 	C 	0.1825	0.4533	0.1162	-0.097
Mof_H 	H 	0.1923	0.5044	0.1153	0.057
Mof_C 	C 	0.1485	0.4071	0.1695	0.008
Mof_H 	H 	0.1485	0.4298	0.2114	0.026
Mof_C 	C 	0.1284	0.3324	0.1684	-0.075
Mof_H 	H 	0.0961	0.3	0.203	0.054
Mof_N 	N 	0.0996	0.222	0.10633	-0.093
Mof_C 	C 	0.0724	0.1731	0.1577	0.048
Mof_H 	H 	0.0763	0.1879	0.2036	0.005
Mof_N 	N 	0.0422	0.1051	0.13646	-0.016
Mof_C 	C 	0.0806	0.177	0.05151	0.034
Mof_H 	H 	0.0826	0.1941	0.0066	0.005
Mof_N 	N 	0.2182	0.4644	0.0007	-0.093
Mof_C 	C 	0.1905	0.4392	0.9376	0.047
Mof_H 	H 	0.1483	0.3903	0.9275	0.018
Mof_N 	N 	0.2211	0.4924	0.8939	-0.067
Mof_H 	H 	0.3018	0.5672	0.0263	-0.011
Mof_C 	C 	0.79937	0.63373	0.44433	0.06
Mof_C 	C 	0.83257	0.67743	0.38913	-0.071
Mof_H 	H 	0.84237	0.65633	0.35023	0.048
Mof_C 	C 	0.85717	0.75373	0.39313	0.071
Mof_C 	C 	0.84917	0.78663	0.44953	-0.099
Mof_H 	H 	0.85897	0.83773	0.44863	0.06
Mof_C 	C 	0.81517	0.74043	0.50283	0.016
Mof_H 	H 	0.81517	0.76313	0.54473	0.025
Mof_C 	C 	0.79507	0.66573	0.50173	-0.085
Mof_H 	H 	0.76277	0.63333	0.53633	0.061
Mof_N 	N 	0.76627	0.55533	0.43966	-0.074
Mof_C 	C 	0.73907	0.50643	0.49103	0.038
Mof_H 	H 	0.74297	0.52123	0.53693	0.012
Mof_N 	N 	0.70887	0.43843	0.46979	-0.05
Mof_C 	C 	0.74727	0.51033	0.38484	0.036
Mof_H 	H 	0.74927	0.52743	0.33993	0.009
Mof_N 	N 	0.88487	0.79773	0.33403	-0.089
Mof_C 	C 	0.85717	0.77253	0.27093	0.044
Mof_H 	H 	0.81497	0.72363	0.26083	0.02
Mof_N 	N 	0.88777	0.82573	0.22723	-0.066
Mof_H 	H 	0.96847	0.90053	0.35963	-0
Mof_C 	C 	0.46603	0.96707	0.77767	0.069
Mof_C 	C 	0.49923	0.01077	0.72247	-0.093
Mof_H 	H 	0.50903	0.98967	0.68357	0.061
Mof_C 	C 	0.52383	0.08707	0.72647	0.067
Mof_C 	C 	0.51583	0.11997	0.78287	-0.09
Mof_H 	H 	0.52563	0.17107	0.78197	0.055
Mof_C 	C 	0.48183	0.07377	0.83617	-0.008
Mof_H 	H 	0.48183	0.09647	0.87807	0.03
Mof_C 	C 	0.46173	0.99907	0.83507	-0.067
Mof_H 	H 	0.42943	0.96667	0.86967	0.059
Mof_N 	N 	0.43293	0.88867	0.773	-0.072
Mof_C 	C 	0.40573	0.83977	0.82437	0.039
Mof_H 	H 	0.40963	0.85457	0.87027	0.013
Mof_N 	N 	0.37553	0.77177	0.80313	-0.05
Mof_C 	C 	0.41393	0.84367	0.71818	0.037
Mof_H 	H 	0.41593	0.86077	0.67327	0.01
Mof_N 	N 	0.55153	0.13107	0.66737	-0.085
Mof_C 	C 	0.52383	0.10587	0.60427	0.042
Mof_H 	H 	0.48163	0.05697	0.59417	0.015
Mof_N 	N 	0.55443	0.15907	0.56057	-0.066
Mof_H 	H 	0.63513	0.23387	0.69297	-0.008
Mof_C 	C 	0.1677	0.8673	0.111	0.09
Mof_C 	C 	0.1782	0.8341	0.0558	-0.071
Mof_H 	H 	0.1473	0.8243	0.0169	0.044
Mof_C 	C 	0.2299	0.8095	0.0598	0.042
Mof_C 	C 	0.2708	0.8175	0.1162	-0.086
Mof_H 	H 	0.3121	0.8077	0.1153	0.054
Mof_C 	C 	0.2586	0.8515	0.1695	0.018
Mof_H 	H 	0.2813	0.8515	0.2114	0.024
Mof_C 	C 	0.204	0.8716	0.1684	-0.1
Mof_H 	H 	0.2039	0.9039	0.203	0.068
Mof_N 	N 	0.1224	0.9004	0.10633	-0.026
Mof_C 	C 	0.1007	0.9276	0.1577	0.016
Mof_H 	H 	0.1116	0.9237	0.2036	0.026
Mof_N 	N 	0.0629	0.9578	0.13646	-0.122
Mof_C 	C 	0.0964	0.9194	0.05151	0.038
Mof_H 	H 	0.1115	0.9174	0.0066	0.014
Mof_N 	N 	0.2462	0.7818	0.0007	-0.071
Mof_C 	C 	0.2487	0.8095	0.9376	0.035
Mof_H 	H 	0.242	0.8517	0.9275	0.025
Mof_N 	N 	0.2713	0.7789	0.8939	-0.064
Mof_H 	H 	0.2654	0.6982	0.0263	-0.011
Mof_C 	C 	0.83437	0.20063	0.44433	0.063
Mof_C 	C 	0.84487	0.16743	0.38913	-0.073
Mof_H 	H 	0.81397	0.15763	0.35023	0.042
Mof_C 	C 	0.89657	0.14283	0.39313	0.047
Mof_C 	C 	0.93747	0.15083	0.44953	-0.082
Mof_H 	H 	0.97877	0.14103	0.44863	0.058
Mof_C 	C 	0.92527	0.18483	0.50283	0.009
Mof_H 	H 	0.94797	0.18483	0.54473	0.032
Mof_C 	C 	0.87067	0.20493	0.50173	-0.08
Mof_H 	H 	0.87057	0.23723	0.53633	0.06
Mof_N 	N 	0.78907	0.23373	0.43966	-0.064
Mof_C 	C 	0.76737	0.26093	0.49103	0.039
Mof_H 	H 	0.77827	0.25703	0.53693	0.013
Mof_N 	N 	0.72957	0.29113	0.46979	-0.053
Mof_C 	C 	0.76307	0.25273	0.38484	0.037
Mof_H 	H 	0.77817	0.25073	0.33993	0.01
Mof_N 	N 	0.91287	0.11513	0.33403	-0.07
Mof_C 	C 	0.91537	0.14283	0.27093	0.039
Mof_H 	H 	0.90867	0.18503	0.26083	0.024
Mof_N 	N 	0.93797	0.11223	0.22723	-0.061
Mof_H 	H 	0.93207	0.03153	0.35963	-0.011
Mof_C 	C 	0.50103	0.53397	0.77767	0.061
Mof_C 	C 	0.51153	0.50077	0.72247	-0.071
Mof_H 	H 	0.48063	0.49097	0.68357	0.046
Mof_C 	C 	0.56323	0.47617	0.72647	0.062
Mof_C 	C 	0.60413	0.48417	0.78287	-0.093
Mof_H 	H 	0.64543	0.47437	0.78197	0.056
Mof_C 	C 	0.59193	0.51817	0.83617	0.012
Mof_H 	H 	0.61463	0.51817	0.87807	0.026
Mof_C 	C 	0.53733	0.53827	0.83507	-0.083
Mof_H 	H 	0.53723	0.57057	0.86967	0.061
Mof_N 	N 	0.45573	0.56707	0.773	-0.07
Mof_C 	C 	0.43403	0.59427	0.82437	0.038
Mof_H 	H 	0.44493	0.59037	0.87027	0.013
Mof_N 	N 	0.39623	0.62447	0.80313	-0.053
Mof_C 	C 	0.42973	0.58607	0.71818	0.036
Mof_H 	H 	0.44483	0.58407	0.67327	0.009
Mof_N 	N 	0.57953	0.44847	0.66737	-0.083
Mof_C 	C 	0.58203	0.47617	0.60427	0.041
Mof_H 	H 	0.57533	0.51837	0.59417	0.021
Mof_N 	N 	0.60463	0.44557	0.56057	-0.066
Mof_H 	H 	0.59873	0.36487	0.69297	-0.008
Mof_Cd	Cd	-0	0	-0	0.354
Mof_Cd	Cd	0.66667	0.33333	0.33333	0.389
Mof_Cd	Cd	0.33333	0.66667	0.66667	0.389
Mof_Cd	Cd	-6.86617e-33	0	0.20544	0.373
Mof_Cd	Cd	0.66667	0.33333	0.53878	0.405
Mof_Cd	Cd	0.33333	0.66667	0.87211	0.406
Mof_Cd	Cd	6.86617e-33	2.74647e-32	0.79456	0.375
Mof_Cd	Cd	0.66667	0.33333	0.12789	0.404
Mof_Cd	Cd	0.33333	0.66667	0.46122	0.405
Mof_N 	N 	0.0538	0.10759	0.06787	-0.115
Mof_N 	N 	0.27875	0.5575	0.93235	-0.13
Mof_C 	C 	0.26805	0.5361	0.9913	0.142
Mof_N 	N 	0.72046	0.44092	0.4012	-0.112
Mof_N 	N 	0.94542	0.89083	0.26568	-0.118
Mof_C 	C 	0.93472	0.86943	0.32463	0.128
Mof_N 	N 	0.38713	0.77426	0.73454	-0.112
Mof_N 	N 	0.61208	0.22417	0.59902	-0.128
Mof_C 	C 	0.60138	0.20277	0.65797	0.13
Mof_N 	N 	0.89241	0.9462	0.06787	-0.103
Mof_N 	N 	0.4425	0.72125	0.93235	-0.13
Mof_C 	C 	0.4639	0.73195	0.9913	0.142
Mof_N 	N 	0.55908	0.27954	0.4012	-0.112
Mof_N 	N 	0.10917	0.05458	0.26568	-0.13
Mof_C 	C 	0.13057	0.06528	0.32463	0.128
Mof_N 	N 	0.22574	0.61287	0.73454	-0.112
Mof_N 	N 	0.77583	0.38792	0.59902	-0.128
Mof_C 	C 	0.79723	0.39862	0.65797	0.129
Mof_N 	N 	0.0538	0.9462	0.06787	-0.108
Mof_N 	N 	0.27875	0.72125	0.93235	-0.13
Mof_C 	C 	0.26805	0.73195	0.9913	0.141
Mof_N 	N 	0.72046	0.27954	0.4012	-0.112
Mof_N 	N 	0.94542	0.05458	0.26568	-0.124
Mof_C 	C 	0.93472	0.06528	0.32463	0.128
Mof_N 	N 	0.38713	0.61287	0.73454	-0.112
Mof_N 	N 	0.61208	0.38792	0.59902	-0.128
Mof_C 	C 	0.60138	0.39862	0.65797	0.129
Mof_N 	N 	0.10759	0.0538	0.93213	-0.113
Mof_N 	N 	0.5575	0.27875	0.06765	-0.125
Mof_C 	C 	0.5361	0.26805	0.0087	0.113
Mof_N 	N 	0.77426	0.38713	0.26546	-0.112
Mof_N 	N 	0.22417	0.61208	0.40098	-0.128
Mof_C 	C 	0.20277	0.60138	0.34203	0.13
Mof_N 	N 	0.44092	0.72046	0.5988	-0.112
Mof_N 	N 	0.89083	0.94542	0.73432	-0.119
Mof_C 	C 	0.86943	0.93472	0.67537	0.128
Mof_N 	N 	0.9462	0.89241	0.93213	-0.102
Mof_N 	N 	0.72125	0.4425	0.06765	-0.125
Mof_C 	C 	0.73195	0.4639	0.0087	0.114
Mof_N 	N 	0.61287	0.22574	0.26546	-0.112
Mof_N 	N 	0.38792	0.77583	0.40098	-0.128
Mof_C 	C 	0.39862	0.79723	0.34203	0.129
Mof_N 	N 	0.27954	0.55908	0.5988	-0.112
Mof_N 	N 	0.05458	0.10917	0.73432	-0.13
Mof_C 	C 	0.06528	0.13057	0.67537	0.128
Mof_N 	N 	0.9462	0.0538	0.93213	-0.106
Mof_N 	N 	0.72125	0.27875	0.06765	-0.125
Mof_C 	C 	0.73195	0.26805	0.0087	0.112
Mof_N 	N 	0.61287	0.38713	0.26546	-0.112
Mof_N 	N 	0.38792	0.61208	0.40098	-0.128
Mof_C 	C 	0.39862	0.60138	0.34203	0.129
Mof_N 	N 	0.27954	0.72046	0.5988	-0.112
Mof_N 	N 	0.05458	0.94542	0.73432	-0.124
Mof_C 	C 	0.06528	0.93472	0.67537	0.128
_end
