data_functionalizedCrystal
_audit_creation_method	'EQeq! by Chris Wilmer'
_symmetry_space_group_name_H-M	'P1'
_symmetry_Int_Tables_number	1
_symmetry_cell_setting	triclinic
loop_
_symmetry_equiv_pos_as_xyz
  x,y,z
_cell_length_a	8.6266
_cell_length_b	9.919
_cell_length_c	11.694
_cell_angle_alpha	74.7
_cell_angle_beta	69.75
_cell_angle_gamma	85.92
loop_
_atom_site_label
_atom_site_type_symbol
_atom_site_fract_x
_atom_site_fract_y
_atom_site_fract_z
_atom_site_charge
Mof_Nd	Nd	0.24553	0.47759	0.01184	2.25
Mof_Nd	Nd	0.75447	0.52241	0.98816	2.25
Mof_H 	H 	0.232	0.5257	0.3282	0.137
Mof_H 	H 	0.2529	0.6879	0.2744	0.117
Mof_H 	H 	0.4054	0.7025	0.3968	0.022
Mof_H 	H 	0.4153	0.5391	0.4388	0.018
Mof_H 	H 	0.1222	0.6908	0.5076	0.02
Mof_H 	H 	0.1243	0.5272	0.5433	0.016
Mof_H 	H 	0.2949	0.5391	0.6631	0.139
Mof_H 	H 	0.2669	0.7003	0.6373	0.124
Mof_H 	H 	0.2501	0.9825	0.2174	0.107
Mof_H 	H 	0.2202	0.9709	0.0954	0.1
Mof_H 	H 	0.4785	0.8795	0.101	0.024
Mof_H 	H 	0.5343	0.0261	0.102	0.027
Mof_H 	H 	0.768	0.4743	0.6718	0.137
Mof_H 	H 	0.7471	0.3121	0.7256	0.117
Mof_H 	H 	0.5946	0.2975	0.6032	0.022
Mof_H 	H 	0.5847	0.4609	0.5612	0.018
Mof_H 	H 	0.8778	0.3092	0.4924	0.02
Mof_H 	H 	0.8757	0.4728	0.4567	0.016
Mof_H 	H 	0.7051	0.4609	0.3369	0.139
Mof_H 	H 	0.7331	0.2997	0.3627	0.124
Mof_H 	H 	0.7499	0.0175	0.7826	0.107
Mof_H 	H 	0.7798	0.0291	0.9046	0.1
Mof_H 	H 	0.5215	0.1205	0.899	0.024
Mof_H 	H 	0.4657	0.9739	0.898	0.027
Mof_C 	C 	0.455	0.5846	0.1926	0.485
Mof_C 	C 	0.3085	0.6039	0.3026	-0.399
Mof_C 	C 	0.3455	0.6154	0.4168	0.003
Mof_C 	C 	0.1878	0.6107	0.5286	0.014
Mof_C 	C 	0.2166	0.6111	0.6488	-0.409
Mof_C 	C 	0.0647	0.5874	0.7642	0.492
Mof_C 	C 	0.2607	0.1722	0.0924	0.407
Mof_C 	C 	0.287	0.0171	0.1263	-0.317
Mof_C 	C 	0.4675	0.9795	0.0714	-0.02
Mof_C 	C 	0.545	0.4154	0.8074	0.485
Mof_C 	C 	0.6915	0.3961	0.6974	-0.399
Mof_C 	C 	0.6545	0.3846	0.5832	0.003
Mof_C 	C 	0.8122	0.3893	0.4714	0.014
Mof_C 	C 	0.7834	0.3889	0.3512	-0.409
Mof_C 	C 	0.9353	0.4126	0.2358	0.492
Mof_C 	C 	0.7393	0.8278	0.9076	0.407
Mof_C 	C 	0.713	0.9829	0.8737	-0.317
Mof_C 	C 	0.5325	0.0205	0.9286	-0.02
Mof_O 	O 	0.431	0.5353	0.11038	-0.687
Mof_O 	O 	0.5998	0.6156	0.18011	-0.504
Mof_O 	O 	0.077	0.5441	0.87283	-0.706
Mof_O 	O 	0.9236	0.6067	0.7541	-0.505
Mof_O 	O 	0.3629	0.2538	0.0975	-0.492
Mof_O 	O 	0.141	0.2197	0.0577	-0.463
Mof_O 	O 	0.569	0.4647	0.88962	-0.687
Mof_O 	O 	0.4002	0.3844	0.81989	-0.504
Mof_O 	O 	0.923	0.4559	0.12717	-0.706
Mof_O 	O 	0.0764	0.3933	0.2459	-0.505
Mof_O 	O 	0.6371	0.7462	0.9025	-0.492
Mof_O 	O 	0.859	0.7803	0.9423	-0.463
_end
