data_functionalizedCrystal
_audit_creation_method	'EQeq! by Chris Wilmer'
_symmetry_space_group_name_H-M	'P1'
_symmetry_Int_Tables_number	1
_symmetry_cell_setting	triclinic
loop_
_symmetry_equiv_pos_as_xyz
  x,y,z
_cell_length_a	8.7749
_cell_length_b	15.8803
_cell_length_c	9.5077
_cell_angle_alpha	90
_cell_angle_beta	99.855
_cell_angle_gamma	90
loop_
_atom_site_label
_atom_site_type_symbol
_atom_site_fract_x
_atom_site_fract_y
_atom_site_fract_z
_atom_site_charge
Mof_Y 	Y 	0.02877	0.19556	0.52519	1.64
Mof_Se	Se	0.72186	0.27879	0.70901	0.721
Mof_C 	C 	0.7696	0.2035	0.25	0.265
Mof_C 	C 	0.7924	0.2957	0.2985	0.26
Mof_C 	C 	0.0682	0.9988	0.4589	0.271
Mof_O 	O 	0.7401	0.3779	0.6735	-0.215
Mof_O 	O 	0.8821	0.22826	0.6966	-0.384
Mof_O 	O 	0.6969	0.2664	0.8753	-0.382
Mof_O 	O 	0.5756	0.2409	0.5982	-0.246
Mof_O 	O 	0.8533	0.15041	0.326	-0.347
Mof_O 	O 	0.6708	0.18921	0.1417	-0.318
Mof_O 	O 	0.7105	0.34969	0.2218	-0.324
Mof_O 	O 	0.8876	0.31045	0.4082	-0.328
Mof_O 	O 	0.1401	0.06716	0.4555	-0.313
Mof_O 	O 	0.0957	0.93097	0.4026	-0.3
Mof_Y 	Y 	0.47123	0.69556	0.97481	1.643
Mof_Se	Se	0.77814	0.77879	0.79099	0.722
Mof_C 	C 	0.7304	0.7035	0.25	0.265
Mof_C 	C 	0.7076	0.7957	0.2015	0.26
Mof_C 	C 	0.4318	0.4988	0.0411	0.268
Mof_O 	O 	0.7599	0.8779	0.8265	-0.216
Mof_O 	O 	0.6179	0.72826	0.8034	-0.386
Mof_O 	O 	0.8031	0.7664	0.6247	-0.383
Mof_O 	O 	0.9244	0.7409	0.9018	-0.246
Mof_O 	O 	0.6467	0.65041	0.174	-0.348
Mof_O 	O 	0.8292	0.68921	0.3583	-0.318
Mof_O 	O 	0.7895	0.84969	0.2782	-0.324
Mof_O 	O 	0.6124	0.81045	0.0918	-0.328
Mof_O 	O 	0.3599	0.56716	0.0445	-0.309
Mof_O 	O 	0.4043	0.43097	0.0974	-0.301
Mof_Y 	Y 	0.97123	0.80444	0.47481	1.641
Mof_Se	Se	0.27814	0.72121	0.29099	0.722
Mof_C 	C 	0.2304	0.7965	0.75	0.265
Mof_C 	C 	0.2076	0.7043	0.7015	0.26
Mof_C 	C 	0.9318	0.0012	0.5411	0.271
Mof_O 	O 	0.2599	0.6221	0.3265	-0.215
Mof_O 	O 	0.1179	0.77174	0.3034	-0.384
Mof_O 	O 	0.3031	0.7336	0.1247	-0.382
Mof_O 	O 	0.4244	0.7591	0.4018	-0.246
Mof_O 	O 	0.1467	0.84959	0.674	-0.347
Mof_O 	O 	0.3292	0.81079	0.8583	-0.318
Mof_O 	O 	0.2895	0.65031	0.7782	-0.324
Mof_O 	O 	0.1124	0.68955	0.5918	-0.328
Mof_O 	O 	0.8599	0.93284	0.5445	-0.313
Mof_O 	O 	0.9043	0.06903	0.5974	-0.3
Mof_Y 	Y 	0.52877	0.30444	0.02519	1.643
Mof_Se	Se	0.22186	0.22121	0.20901	0.722
Mof_C 	C 	0.2696	0.2965	0.75	0.265
Mof_C 	C 	0.2924	0.2043	0.7985	0.26
Mof_C 	C 	0.5682	0.5012	0.9589	0.268
Mof_O 	O 	0.2401	0.1221	0.1735	-0.216
Mof_O 	O 	0.3821	0.27174	0.1966	-0.386
Mof_O 	O 	0.1969	0.2336	0.3753	-0.383
Mof_O 	O 	0.0756	0.2591	0.0982	-0.246
Mof_O 	O 	0.3533	0.34959	0.826	-0.348
Mof_O 	O 	0.1708	0.31079	0.6417	-0.318
Mof_O 	O 	0.2105	0.15031	0.7218	-0.324
Mof_O 	O 	0.3876	0.18955	0.9082	-0.328
Mof_O 	O 	0.6401	0.43284	0.9555	-0.309
Mof_O 	O 	0.5957	0.56903	0.9026	-0.301
_end
