data_functionalizedCrystal
_audit_creation_method	'EQeq! by Chris Wilmer'
_symmetry_space_group_name_H-M	'P1'
_symmetry_Int_Tables_number	1
_symmetry_cell_setting	triclinic
loop_
_symmetry_equiv_pos_as_xyz
  x,y,z
_cell_length_a	13.543
_cell_length_b	12.338
_cell_length_c	40.267
_cell_angle_alpha	90
_cell_angle_beta	108.395
_cell_angle_gamma	90
loop_
_atom_site_label
_atom_site_type_symbol
_atom_site_fract_x
_atom_site_fract_y
_atom_site_fract_z
_atom_site_charge
Mof_Co	Co	0.32068	0.38794	0.19318	1.142
Mof_Co	Co	0.12711	0.40886	0.42064	1.142
Mof_O 	O 	0.0606	0.5331	0.44687	-0.367
Mof_O 	O 	0.0793	0.5954	0.50098	-0.241
Mof_O 	O 	0.2232	0.2663	0.4218	-0.378
Mof_O 	O 	0.3278	0.1494	0.45861	-0.234
Mof_O 	O 	0.26125	0.2723	0.695	-0.389
Mof_O 	O 	0.2028	0.4212	0.6628	-0.271
Mof_O 	O 	0.365	0.9794	0.66371	-0.375
Mof_O 	O 	0.4022	0.9473	0.6143	-0.241
Mof_N 	N 	0.2904	0.1696	0.6431	-0.211
Mof_N 	N 	0.1772	0.3651	0.4718	-0.215
Mof_N 	N 	0.6451	0.3346	0.21176	-0.125
Mof_N 	N 	0.4775	0.3323	0.20443	-0.227
Mof_N 	N 	0.9456	0.0892	0.32286	-0.13
Mof_N 	N 	0.8286	0.9596	0.31871	-0.234
Mof_N 	N 	0.9688	0.0582	0.1763	-0.119
Mof_N 	N 	0.9107	0.9496	0.13126	-0.251
Mof_N 	N 	0.4653	0.4735	0.29849	-0.124
Mof_N 	N 	0.3606	0.4328	0.24585	-0.241
Mof_N 	N 	0.4189	0.5775	0.43914	-0.126
Mof_N 	N 	0.2615	0.5119	0.43004	-0.224
Mof_N 	N 	0.8345	0.2646	0.41583	-0.119
Mof_N 	N 	0.9886	0.3169	0.41373	-0.228
Mof_C 	C 	0.0899	0.5265	0.48015	0.28
Mof_C 	C 	0.2647	0.2262	0.45137	0.284
Mof_C 	C 	0.2359	0.3282	0.66673	0.287
Mof_C 	C 	0.3634	0.0023	0.63319	0.268
Mof_C 	C 	0.1472	0.4231	0.49501	-0.004
Mof_C 	C 	0.1718	0.3888	0.52948	-0.06
Mof_H 	H 	0.1499	0.4299	0.5458	0.069
Mof_C 	C 	0.2284	0.294	0.53993	0.027
Mof_C 	C 	0.263	0.2383	0.5151	-0.067
Mof_H 	H 	0.3055	0.1757	0.5216	0.063
Mof_C 	C 	0.234	0.2764	0.48128	-0.005
Mof_C 	C 	0.2532	0.27	0.63569	-0.016
Mof_C 	C 	0.2337	0.3143	0.60278	-0.063
Mof_H 	H 	0.2082	0.3863	0.5981	0.061
Mof_C 	C 	0.2525	0.2507	0.57631	0.023
Mof_C 	C 	0.294	0.1477	0.58515	-0.071
Mof_H 	H 	0.3093	0.1035	0.5681	0.063
Mof_C 	C 	0.3129	0.1098	0.61875	-0.009
Mof_C 	C 	0.8369	0.3106	0.22868	-0.178
Mof_C 	C 	0.8739	0.2953	0.26478	0.231
Mof_C 	C 	0.9564	0.2228	0.27886	-0.174
Mof_C 	C 	0.0059	0.1726	0.2571	0.229
Mof_C 	C 	0.9714	0.1949	0.2215	-0.166
Mof_C 	C 	0.885	0.2601	0.2067	0.213
Mof_C 	C 	0.746	0.3849	0.21285	0.006
Mof_H 	H 	0.7559	0.4526	0.2267	0.016
Mof_H 	H 	0.7438	0.4041	0.1888	0.023
Mof_C 	C 	0.5542	0.3841	0.19781	0.08
Mof_H 	H 	0.5456	0.4492	0.1846	0.006
Mof_C 	C 	0.5226	0.2453	0.22445	0.004
Mof_H 	H 	0.487	0.1933	0.2338	0.021
Mof_C 	C 	0.6262	0.2447	0.22887	-0.013
Mof_H 	H 	0.6757	0.1926	0.2413	0.036
Mof_C 	C 	0.8241	0.3522	0.28854	-0.608
Mof_H 	H 	0.7692	0.4007	0.2747	0.21
Mof_H 	H 	0.8768	0.3945	0.306	0.211
Mof_H 	H 	0.7939	0.2984	0.3004	0.199
Mof_C 	C 	0.9905	0.1938	0.31748	0.008
Mof_H 	H 	0.0674	0.1895	0.3265	0.025
Mof_H 	H 	0.9677	0.2511	0.3306	0.025
Mof_C 	C 	0.8484	0.0544	0.30684	0.096
Mof_H 	H 	0.7989	0.0937	0.2889	-0.014
Mof_C 	C 	0.9197	0.9338	0.34453	-0.006
Mof_H 	H 	0.9303	0.8705	0.3586	0.024
Mof_C 	C 	0.9923	0.0119	0.34696	0.003
Mof_H 	H 	0.0618	0.0127	0.3624	0.023
Mof_C 	C 	0.0931	0.0943	0.27243	-0.603
Mof_H 	H 	0.1597	0.1327	0.2785	0.2
Mof_H 	H 	0.0916	0.0374	0.2553	0.204
Mof_H 	H 	0.0848	0.0614	0.2935	0.206
Mof_C 	C 	0.0285	0.147	0.19804	-0.01
Mof_H 	H 	0.041	0.2045	0.1827	0.037
Mof_H 	H 	0.097	0.1191	0.2127	0.042
Mof_C 	C 	0.9738	0.0293	0.14487	0.087
Mof_H 	H 	0.0181	0.0629	0.1337	-0.003
Mof_C 	C 	0.862	0.9252	0.15552	0.007
Mof_H 	H 	0.8107	0.8705	0.153	0.018
Mof_C 	C 	0.8983	0.991	0.18336	-0.019
Mof_H 	H 	0.8785	0.9906	0.204	0.035
Mof_C 	C 	0.842	0.2747	0.16692	-0.556
Mof_H 	H 	0.8905	0.2429	0.156	0.193
Mof_H 	H 	0.8335	0.3521	0.1613	0.184
Mof_H 	H 	0.7744	0.2384	0.158	0.187
Mof_C 	C 	0.5773	0.4808	0.36134	-0.167
Mof_C 	C 	0.5404	0.5444	0.38414	0.228
Mof_C 	C 	0.5657	0.5135	0.41922	-0.169
Mof_C 	C 	0.6256	0.4212	0.4318	0.224
Mof_C 	C 	0.6663	0.3609	0.40932	-0.162
Mof_C 	C 	0.6379	0.3885	0.37377	0.238
Mof_C 	C 	0.56	0.5179	0.32448	-0.004
Mof_H 	H 	0.5555	0.598	0.3239	0.033
Mof_H 	H 	0.6212	0.497	0.3175	0.042
Mof_C 	C 	0.4543	0.4672	0.26423	0.08
Mof_H 	H 	0.5074	0.4853	0.2544	-0.011
Mof_C 	C 	0.3097	0.4177	0.27	0.01
Mof_H 	H 	0.2399	0.3932	0.2647	0.014
Mof_C 	C 	0.3727	0.4424	0.30235	-0.01
Mof_H 	H 	0.3562	0.4389	0.3236	0.035
Mof_C 	C 	0.4753	0.6443	0.37072	-0.596
Mof_H 	H 	0.418	0.6474	0.3806	0.204
Mof_H 	H 	0.4471	0.6411	0.3451	0.205
Mof_H 	H 	0.5188	0.7091	0.3777	0.205
Mof_C 	C 	0.5309	0.5871	0.44357	-0.002
Mof_H 	H 	0.5712	0.5693	0.4681	0.03
Mof_H 	H 	0.5466	0.6632	0.4392	0.035
Mof_C 	C 	0.3594	0.489	0.43249	0.083
Mof_H 	H 	0.3839	0.4184	0.4298	0.006
Mof_C 	C 	0.2609	0.621	0.43547	-0.001
Mof_H 	H 	0.2012	0.6617	0.4353	0.027
Mof_C 	C 	0.3564	0.6631	0.44111	-0.018
Mof_H 	H 	0.3764	0.7368	0.4455	0.037
Mof_C 	C 	0.6436	0.3834	0.46917	-0.593
Mof_H 	H 	0.5932	0.4185	0.4786	0.204
Mof_H 	H 	0.7143	0.4028	0.4836	0.21
Mof_H 	H 	0.635	0.3046	0.4695	0.207
Mof_C 	C 	0.7344	0.264	0.42301	-0.01
Mof_H 	H 	0.7485	0.2598	0.4486	0.046
Mof_H 	H 	0.6957	0.1978	0.4126	0.056
Mof_C 	C 	0.9012	0.3462	0.41947	0.1
Mof_H 	H 	0.8877	0.4178	0.4255	0.009
Mof_C 	C 	0.9772	0.2089	0.40628	0.015
Mof_H 	H 	0.0272	0.1642	0.4009	0.023
Mof_C 	C 	0.8828	0.1751	0.40769	-0.009
Mof_H 	H 	0.8556	0.1035	0.4038	0.041
Mof_C 	C 	0.6737	0.3203	0.34863	-0.61
Mof_H 	H 	0.7403	0.348	0.3475	0.208
Mof_H 	H 	0.6218	0.3235	0.3253	0.209
Mof_H 	H 	0.6823	0.245	0.3568	0.223
Mof_Co	Co	0.67932	0.88794	0.30682	1.14
Mof_Co	Co	0.87289	0.90886	0.07936	1.14
Mof_O 	O 	0.9394	0.0331	0.05313	-0.366
Mof_O 	O 	0.9207	0.0954	0.99902	-0.243
Mof_O 	O 	0.7768	0.7663	0.0782	-0.379
Mof_O 	O 	0.6722	0.6494	0.04139	-0.234
Mof_O 	O 	0.73875	0.7723	0.805	-0.388
Mof_O 	O 	0.7972	0.9212	0.8372	-0.27
Mof_O 	O 	0.635	0.4794	0.83629	-0.381
Mof_O 	O 	0.5978	0.4473	0.8857	-0.246
Mof_N 	N 	0.7096	0.6696	0.8569	-0.211
Mof_N 	N 	0.8228	0.8651	0.0282	-0.214
Mof_N 	N 	0.3549	0.8346	0.28824	-0.125
Mof_N 	N 	0.5225	0.8323	0.29557	-0.227
Mof_N 	N 	0.0544	0.5892	0.17714	-0.126
Mof_N 	N 	0.1714	0.4596	0.18129	-0.232
Mof_N 	N 	0.0312	0.5582	0.3237	-0.122
Mof_N 	N 	0.0893	0.4496	0.36874	-0.246
Mof_N 	N 	0.5347	0.9735	0.20151	-0.127
Mof_N 	N 	0.6394	0.9328	0.25415	-0.242
Mof_N 	N 	0.5811	0.0775	0.06086	-0.124
Mof_N 	N 	0.7385	0.0119	0.06996	-0.221
Mof_N 	N 	0.1655	0.7646	0.08417	-0.119
Mof_N 	N 	0.0114	0.8169	0.08627	-0.228
Mof_C 	C 	0.9101	0.0265	0.01985	0.283
Mof_C 	C 	0.7353	0.7262	0.04863	0.284
Mof_C 	C 	0.7641	0.8282	0.83327	0.287
Mof_C 	C 	0.6366	0.5023	0.86681	0.278
Mof_C 	C 	0.8528	0.9231	0.00499	-0.008
Mof_C 	C 	0.8282	0.8888	0.97052	-0.058
Mof_H 	H 	0.8501	0.9299	0.9542	0.068
Mof_C 	C 	0.7716	0.794	0.96007	0.027
Mof_C 	C 	0.737	0.7383	0.9849	-0.066
Mof_H 	H 	0.6945	0.6757	0.9784	0.063
Mof_C 	C 	0.766	0.7764	0.01872	-0.005
Mof_C 	C 	0.7468	0.77	0.86431	-0.016
Mof_C 	C 	0.7663	0.8143	0.89722	-0.062
Mof_H 	H 	0.7918	0.8863	0.9019	0.061
Mof_C 	C 	0.7475	0.7507	0.92369	0.023
Mof_C 	C 	0.706	0.6477	0.91485	-0.07
Mof_H 	H 	0.6907	0.6035	0.9319	0.064
Mof_C 	C 	0.6871	0.6098	0.88125	-0.011
Mof_C 	C 	0.1631	0.8106	0.27132	-0.179
Mof_C 	C 	0.1261	0.7953	0.23522	0.232
Mof_C 	C 	0.0436	0.7228	0.22114	-0.175
Mof_C 	C 	0.9941	0.6726	0.2429	0.231
Mof_C 	C 	0.0286	0.6949	0.2785	-0.171
Mof_C 	C 	0.115	0.7601	0.2933	0.215
Mof_C 	C 	0.254	0.8849	0.28715	0.007
Mof_H 	H 	0.2441	0.9526	0.2733	0.015
Mof_H 	H 	0.2562	0.9041	0.3112	0.022
Mof_C 	C 	0.4458	0.8841	0.30219	0.08
Mof_H 	H 	0.4544	0.9492	0.3154	0.005
Mof_C 	C 	0.4774	0.7453	0.27555	0.003
Mof_H 	H 	0.513	0.6933	0.2662	0.02
Mof_C 	C 	0.3738	0.7447	0.27113	-0.013
Mof_H 	H 	0.3243	0.6926	0.2587	0.035
Mof_C 	C 	0.1759	0.8522	0.21146	-0.608
Mof_H 	H 	0.2308	0.9007	0.2253	0.209
Mof_H 	H 	0.1232	0.8945	0.194	0.211
Mof_H 	H 	0.2061	0.7984	0.1996	0.199
Mof_C 	C 	0.0095	0.6938	0.18252	0.005
Mof_H 	H 	0.9326	0.6895	0.1735	0.026
Mof_H 	H 	0.0323	0.7511	0.1694	0.026
Mof_C 	C 	0.1516	0.5544	0.19316	0.089
Mof_H 	H 	0.2011	0.5937	0.2111	-0.013
Mof_C 	C 	0.0803	0.4338	0.15547	0.01
Mof_H 	H 	0.0697	0.3705	0.1414	0.019
Mof_C 	C 	0.0077	0.5119	0.15304	-0.017
Mof_H 	H 	0.9382	0.5127	0.1376	0.031
Mof_C 	C 	0.9069	0.5943	0.22757	-0.605
Mof_H 	H 	0.8403	0.6327	0.2215	0.2
Mof_H 	H 	0.9084	0.5374	0.2447	0.204
Mof_H 	H 	0.9152	0.5614	0.2065	0.207
Mof_C 	C 	0.9715	0.647	0.30196	-0.006
Mof_H 	H 	0.959	0.7045	0.3173	0.036
Mof_H 	H 	0.903	0.6191	0.2873	0.041
Mof_C 	C 	0.0262	0.5293	0.35513	0.076
Mof_H 	H 	0.9819	0.5629	0.3663	0.002
Mof_C 	C 	0.138	0.4252	0.34448	0.005
Mof_H 	H 	0.1893	0.3705	0.347	0.02
Mof_C 	C 	0.1017	0.491	0.31664	-0.01
Mof_H 	H 	0.1215	0.4906	0.296	0.034
Mof_C 	C 	0.158	0.7747	0.33308	-0.558
Mof_H 	H 	0.1095	0.7429	0.344	0.193
Mof_H 	H 	0.1665	0.8521	0.3387	0.184
Mof_H 	H 	0.2256	0.7384	0.342	0.187
Mof_C 	C 	0.4227	0.9808	0.13866	-0.177
Mof_C 	C 	0.4596	0.0444	0.11586	0.235
Mof_C 	C 	0.4343	0.0135	0.08078	-0.17
Mof_C 	C 	0.3744	0.9212	0.0682	0.224
Mof_C 	C 	0.3337	0.8609	0.09068	-0.164
Mof_C 	C 	0.3621	0.8885	0.12623	0.243
Mof_C 	C 	0.44	0.0179	0.17552	0.01
Mof_H 	H 	0.4445	0.098	0.1761	0.029
Mof_H 	H 	0.3788	0.997	0.1825	0.036
Mof_C 	C 	0.5457	0.9672	0.23577	0.08
Mof_H 	H 	0.4926	0.9853	0.2456	-0.012
Mof_C 	C 	0.6903	0.9177	0.23	0.009
Mof_H 	H 	0.7601	0.8932	0.2353	0.013
Mof_C 	C 	0.6273	0.9424	0.19765	-0.01
Mof_H 	H 	0.6438	0.9389	0.1764	0.034
Mof_C 	C 	0.5247	0.1443	0.12928	-0.603
Mof_H 	H 	0.582	0.1474	0.1194	0.206
Mof_H 	H 	0.5529	0.1411	0.1549	0.207
Mof_H 	H 	0.4812	0.2091	0.1223	0.207
Mof_C 	C 	0.4691	0.0871	0.05643	-0.001
Mof_H 	H 	0.4288	0.0693	0.0319	0.03
Mof_H 	H 	0.4534	0.1632	0.0608	0.035
Mof_C 	C 	0.6406	0.989	0.06751	0.078
Mof_H 	H 	0.6161	0.9184	0.0702	0.007
Mof_C 	C 	0.7391	0.121	0.06453	-0
Mof_H 	H 	0.7988	0.1617	0.0647	0.027
Mof_C 	C 	0.6436	0.1631	0.05889	-0.018
Mof_H 	H 	0.6236	0.2368	0.0545	0.037
Mof_C 	C 	0.3564	0.8834	0.03083	-0.593
Mof_H 	H 	0.4068	0.9185	0.0214	0.205
Mof_H 	H 	0.2857	0.9028	0.0164	0.21
Mof_H 	H 	0.365	0.8046	0.0305	0.207
Mof_C 	C 	0.2656	0.764	0.07699	-0.009
Mof_H 	H 	0.2515	0.7598	0.0514	0.046
Mof_H 	H 	0.3043	0.6978	0.0874	0.055
Mof_C 	C 	0.0988	0.8462	0.08053	0.1
Mof_H 	H 	0.1123	0.9178	0.0745	0.009
Mof_C 	C 	0.0228	0.7089	0.09372	0.012
Mof_H 	H 	0.9728	0.6642	0.0991	0.024
Mof_C 	C 	0.1172	0.6751	0.09231	-0.008
Mof_H 	H 	0.1444	0.6035	0.0962	0.04
Mof_C 	C 	0.3263	0.8203	0.15137	-0.614
Mof_H 	H 	0.2597	0.848	0.1525	0.209
Mof_H 	H 	0.3782	0.8235	0.1747	0.21
Mof_H 	H 	0.3177	0.745	0.1432	0.224
Mof_Co	Co	0.67932	0.61206	0.80682	1.141
Mof_Co	Co	0.87289	0.59114	0.57936	1.141
Mof_O 	O 	0.9394	0.4669	0.55313	-0.368
Mof_O 	O 	0.9207	0.4046	0.49902	-0.242
Mof_O 	O 	0.7768	0.7337	0.5782	-0.378
Mof_O 	O 	0.6722	0.8506	0.54139	-0.234
Mof_O 	O 	0.73875	0.7277	0.305	-0.389
Mof_O 	O 	0.7972	0.5788	0.3372	-0.271
Mof_O 	O 	0.635	0.0206	0.33629	-0.375
Mof_O 	O 	0.5978	0.0527	0.3857	-0.241
Mof_N 	N 	0.7096	0.8304	0.3569	-0.211
Mof_N 	N 	0.8228	0.6349	0.5282	-0.215
Mof_N 	N 	0.3549	0.6654	0.78824	-0.125
Mof_N 	N 	0.5225	0.6677	0.79557	-0.227
Mof_N 	N 	0.0544	0.9108	0.67714	-0.13
Mof_N 	N 	0.1714	0.0404	0.68129	-0.234
Mof_N 	N 	0.0312	0.9418	0.8237	-0.119
Mof_N 	N 	0.0893	0.0504	0.86874	-0.251
Mof_N 	N 	0.5347	0.5265	0.70151	-0.124
Mof_N 	N 	0.6394	0.5672	0.75415	-0.241
Mof_N 	N 	0.5811	0.4225	0.56086	-0.126
Mof_N 	N 	0.7385	0.4881	0.56996	-0.224
Mof_N 	N 	0.1655	0.7354	0.58417	-0.119
Mof_N 	N 	0.0114	0.6831	0.58627	-0.228
Mof_C 	C 	0.9101	0.4735	0.51985	0.28
Mof_C 	C 	0.7353	0.7738	0.54863	0.284
Mof_C 	C 	0.7641	0.6718	0.33327	0.287
Mof_C 	C 	0.6366	0.9977	0.36681	0.268
Mof_C 	C 	0.8528	0.5769	0.50499	-0.004
Mof_C 	C 	0.8282	0.6112	0.47052	-0.06
Mof_H 	H 	0.8501	0.5701	0.4542	0.069
Mof_C 	C 	0.7716	0.706	0.46007	0.027
Mof_C 	C 	0.737	0.7617	0.4849	-0.067
Mof_H 	H 	0.6945	0.8243	0.4784	0.063
Mof_C 	C 	0.766	0.7236	0.51872	-0.005
Mof_C 	C 	0.7468	0.73	0.36431	-0.016
Mof_C 	C 	0.7663	0.6857	0.39722	-0.063
Mof_H 	H 	0.7918	0.6137	0.4019	0.061
Mof_C 	C 	0.7475	0.7493	0.42369	0.023
Mof_C 	C 	0.706	0.8523	0.41485	-0.071
Mof_H 	H 	0.6907	0.8965	0.4319	0.063
Mof_C 	C 	0.6871	0.8902	0.38125	-0.009
Mof_C 	C 	0.1631	0.6894	0.77132	-0.178
Mof_C 	C 	0.1261	0.7047	0.73522	0.231
Mof_C 	C 	0.0436	0.7772	0.72114	-0.174
Mof_C 	C 	0.9941	0.8274	0.7429	0.229
Mof_C 	C 	0.0286	0.8051	0.7785	-0.166
Mof_C 	C 	0.115	0.7399	0.7933	0.213
Mof_C 	C 	0.254	0.6151	0.78715	0.006
Mof_H 	H 	0.2441	0.5474	0.7733	0.016
Mof_H 	H 	0.2562	0.5959	0.8112	0.023
Mof_C 	C 	0.4458	0.6159	0.80219	0.08
Mof_H 	H 	0.4544	0.5508	0.8154	0.006
Mof_C 	C 	0.4774	0.7547	0.77555	0.004
Mof_H 	H 	0.513	0.8067	0.7662	0.021
Mof_C 	C 	0.3738	0.7553	0.77113	-0.013
Mof_H 	H 	0.3243	0.8074	0.7587	0.036
Mof_C 	C 	0.1759	0.6478	0.71146	-0.608
Mof_H 	H 	0.2308	0.5993	0.7253	0.21
Mof_H 	H 	0.1232	0.6055	0.694	0.211
Mof_H 	H 	0.2061	0.7016	0.6996	0.199
Mof_C 	C 	0.0095	0.8062	0.68252	0.008
Mof_H 	H 	0.9326	0.8105	0.6735	0.025
Mof_H 	H 	0.0323	0.7489	0.6694	0.025
Mof_C 	C 	0.1516	0.9456	0.69316	0.096
Mof_H 	H 	0.2011	0.9063	0.7111	-0.014
Mof_C 	C 	0.0803	0.0662	0.65547	-0.006
Mof_H 	H 	0.0697	0.1295	0.6414	0.024
Mof_C 	C 	0.0077	0.9881	0.65304	0.003
Mof_H 	H 	0.9382	0.9873	0.6376	0.023
Mof_C 	C 	0.9069	0.9057	0.72757	-0.603
Mof_H 	H 	0.8403	0.8673	0.7215	0.2
Mof_H 	H 	0.9084	0.9626	0.7447	0.204
Mof_H 	H 	0.9152	0.9386	0.7065	0.206
Mof_C 	C 	0.9715	0.853	0.80196	-0.01
Mof_H 	H 	0.959	0.7955	0.8173	0.037
Mof_H 	H 	0.903	0.8809	0.7873	0.042
Mof_C 	C 	0.0262	0.9707	0.85513	0.087
Mof_H 	H 	0.9819	0.9371	0.8663	-0.003
Mof_C 	C 	0.138	0.0748	0.84448	0.007
Mof_H 	H 	0.1893	0.1295	0.847	0.018
Mof_C 	C 	0.1017	0.009	0.81664	-0.019
Mof_H 	H 	0.1215	0.0094	0.796	0.035
Mof_C 	C 	0.158	0.7253	0.83308	-0.556
Mof_H 	H 	0.1095	0.7571	0.844	0.193
Mof_H 	H 	0.1665	0.6479	0.8387	0.184
Mof_H 	H 	0.2256	0.7616	0.842	0.187
Mof_C 	C 	0.4227	0.5192	0.63866	-0.167
Mof_C 	C 	0.4596	0.4556	0.61586	0.228
Mof_C 	C 	0.4343	0.4865	0.58078	-0.169
Mof_C 	C 	0.3744	0.5788	0.5682	0.224
Mof_C 	C 	0.3337	0.6391	0.59068	-0.162
Mof_C 	C 	0.3621	0.6115	0.62623	0.238
Mof_C 	C 	0.44	0.4821	0.67552	-0.004
Mof_H 	H 	0.4445	0.402	0.6761	0.033
Mof_H 	H 	0.3788	0.503	0.6825	0.042
Mof_C 	C 	0.5457	0.5328	0.73577	0.08
Mof_H 	H 	0.4926	0.5147	0.7456	-0.011
Mof_C 	C 	0.6903	0.5823	0.73	0.01
Mof_H 	H 	0.7601	0.6068	0.7353	0.014
Mof_C 	C 	0.6273	0.5576	0.69765	-0.01
Mof_H 	H 	0.6438	0.5611	0.6764	0.035
Mof_C 	C 	0.5247	0.3557	0.62928	-0.596
Mof_H 	H 	0.582	0.3526	0.6194	0.204
Mof_H 	H 	0.5529	0.3589	0.6549	0.205
Mof_H 	H 	0.4812	0.2909	0.6223	0.205
Mof_C 	C 	0.4691	0.4129	0.55643	-0.002
Mof_H 	H 	0.4288	0.4307	0.5319	0.03
Mof_H 	H 	0.4534	0.3368	0.5608	0.035
Mof_C 	C 	0.6406	0.511	0.56751	0.083
Mof_H 	H 	0.6161	0.5816	0.5702	0.006
Mof_C 	C 	0.7391	0.379	0.56453	-0.001
Mof_H 	H 	0.7988	0.3383	0.5647	0.027
Mof_C 	C 	0.6436	0.3369	0.55889	-0.018
Mof_H 	H 	0.6236	0.2632	0.5545	0.037
Mof_C 	C 	0.3564	0.6166	0.53083	-0.593
Mof_H 	H 	0.4068	0.5815	0.5214	0.204
Mof_H 	H 	0.2857	0.5972	0.5164	0.21
Mof_H 	H 	0.365	0.6954	0.5305	0.207
Mof_C 	C 	0.2656	0.736	0.57699	-0.01
Mof_H 	H 	0.2515	0.7402	0.5514	0.046
Mof_H 	H 	0.3043	0.8022	0.5874	0.056
Mof_C 	C 	0.0988	0.6538	0.58053	0.1
Mof_H 	H 	0.1123	0.5822	0.5745	0.009
Mof_C 	C 	0.0228	0.7911	0.59372	0.015
Mof_H 	H 	0.9728	0.8358	0.5991	0.023
Mof_C 	C 	0.1172	0.8249	0.59231	-0.009
Mof_H 	H 	0.1444	0.8965	0.5962	0.041
Mof_C 	C 	0.3263	0.6797	0.65137	-0.61
Mof_H 	H 	0.2597	0.652	0.6525	0.208
Mof_H 	H 	0.3782	0.6765	0.6747	0.209
Mof_H 	H 	0.3177	0.755	0.6432	0.223
Mof_Co	Co	0.32068	0.11206	0.69318	1.14
Mof_Co	Co	0.12711	0.09114	0.92064	1.14
Mof_O 	O 	0.0606	0.9669	0.94687	-0.366
Mof_O 	O 	0.0793	0.9046	0.00098	-0.243
Mof_O 	O 	0.2232	0.2337	0.9218	-0.379
Mof_O 	O 	0.3278	0.3506	0.95861	-0.234
Mof_O 	O 	0.26125	0.2277	0.195	-0.388
Mof_O 	O 	0.2028	0.0788	0.1628	-0.27
Mof_O 	O 	0.365	0.5206	0.16371	-0.381
Mof_O 	O 	0.4022	0.5527	0.1143	-0.246
Mof_N 	N 	0.2904	0.3304	0.1431	-0.211
Mof_N 	N 	0.1772	0.1349	0.9718	-0.214
Mof_N 	N 	0.6451	0.1654	0.71176	-0.125
Mof_N 	N 	0.4775	0.1677	0.70443	-0.227
Mof_N 	N 	0.9456	0.4108	0.82286	-0.126
Mof_N 	N 	0.8286	0.5404	0.81871	-0.232
Mof_N 	N 	0.9688	0.4418	0.6763	-0.122
Mof_N 	N 	0.9107	0.5504	0.63126	-0.246
Mof_N 	N 	0.4653	0.0265	0.79849	-0.127
Mof_N 	N 	0.3606	0.0672	0.74585	-0.242
Mof_N 	N 	0.4189	0.9225	0.93914	-0.124
Mof_N 	N 	0.2615	0.9881	0.93004	-0.221
Mof_N 	N 	0.8345	0.2354	0.91583	-0.119
Mof_N 	N 	0.9886	0.1831	0.91373	-0.228
Mof_C 	C 	0.0899	0.9735	0.98015	0.283
Mof_C 	C 	0.2647	0.2738	0.95137	0.284
Mof_C 	C 	0.2359	0.1718	0.16673	0.287
Mof_C 	C 	0.3634	0.4977	0.13319	0.278
Mof_C 	C 	0.1472	0.0769	0.99501	-0.008
Mof_C 	C 	0.1718	0.1112	0.02948	-0.058
Mof_H 	H 	0.1499	0.0701	0.0458	0.068
Mof_C 	C 	0.2284	0.206	0.03993	0.027
Mof_C 	C 	0.263	0.2617	0.0151	-0.066
Mof_H 	H 	0.3055	0.3243	0.0216	0.063
Mof_C 	C 	0.234	0.2236	0.98128	-0.005
Mof_C 	C 	0.2532	0.23	0.13569	-0.016
Mof_C 	C 	0.2337	0.1857	0.10278	-0.062
Mof_H 	H 	0.2082	0.1137	0.0981	0.061
Mof_C 	C 	0.2525	0.2493	0.07631	0.023
Mof_C 	C 	0.294	0.3523	0.08515	-0.07
Mof_H 	H 	0.3093	0.3965	0.0681	0.064
Mof_C 	C 	0.3129	0.3902	0.11875	-0.011
Mof_C 	C 	0.8369	0.1894	0.72868	-0.179
Mof_C 	C 	0.8739	0.2047	0.76478	0.232
Mof_C 	C 	0.9564	0.2772	0.77886	-0.175
Mof_C 	C 	0.0059	0.3274	0.7571	0.231
Mof_C 	C 	0.9714	0.3051	0.7215	-0.171
Mof_C 	C 	0.885	0.2399	0.7067	0.215
Mof_C 	C 	0.746	0.1151	0.71285	0.007
Mof_H 	H 	0.7559	0.0474	0.7267	0.015
Mof_H 	H 	0.7438	0.0959	0.6888	0.022
Mof_C 	C 	0.5542	0.1159	0.69781	0.08
Mof_H 	H 	0.5456	0.0508	0.6846	0.005
Mof_C 	C 	0.5226	0.2547	0.72445	0.003
Mof_H 	H 	0.487	0.3067	0.7338	0.02
Mof_C 	C 	0.6262	0.2553	0.72887	-0.013
Mof_H 	H 	0.6757	0.3074	0.7413	0.035
Mof_C 	C 	0.8241	0.1478	0.78854	-0.608
Mof_H 	H 	0.7692	0.0993	0.7747	0.209
Mof_H 	H 	0.8768	0.1055	0.806	0.211
Mof_H 	H 	0.7939	0.2016	0.8004	0.199
Mof_C 	C 	0.9905	0.3062	0.81748	0.005
Mof_H 	H 	0.0674	0.3105	0.8265	0.026
Mof_H 	H 	0.9677	0.2489	0.8306	0.026
Mof_C 	C 	0.8484	0.4456	0.80684	0.089
Mof_H 	H 	0.7989	0.4063	0.7889	-0.013
Mof_C 	C 	0.9197	0.5662	0.84453	0.01
Mof_H 	H 	0.9303	0.6295	0.8586	0.019
Mof_C 	C 	0.9923	0.4881	0.84696	-0.017
Mof_H 	H 	0.0618	0.4873	0.8624	0.031
Mof_C 	C 	0.0931	0.4057	0.77243	-0.605
Mof_H 	H 	0.1597	0.3673	0.7785	0.2
Mof_H 	H 	0.0916	0.4626	0.7553	0.204
Mof_H 	H 	0.0848	0.4386	0.7935	0.207
Mof_C 	C 	0.0285	0.353	0.69804	-0.006
Mof_H 	H 	0.041	0.2955	0.6827	0.036
Mof_H 	H 	0.097	0.3809	0.7127	0.041
Mof_C 	C 	0.9738	0.4707	0.64487	0.076
Mof_H 	H 	0.0181	0.4371	0.6337	0.002
Mof_C 	C 	0.862	0.5748	0.65552	0.005
Mof_H 	H 	0.8107	0.6295	0.653	0.02
Mof_C 	C 	0.8983	0.509	0.68336	-0.01
Mof_H 	H 	0.8785	0.5094	0.704	0.034
Mof_C 	C 	0.842	0.2253	0.66692	-0.558
Mof_H 	H 	0.8905	0.2571	0.656	0.193
Mof_H 	H 	0.8335	0.1479	0.6613	0.184
Mof_H 	H 	0.7744	0.2616	0.658	0.187
Mof_C 	C 	0.5773	0.0192	0.86134	-0.177
Mof_C 	C 	0.5404	0.9556	0.88414	0.235
Mof_C 	C 	0.5657	0.9865	0.91922	-0.17
Mof_C 	C 	0.6256	0.0788	0.9318	0.224
Mof_C 	C 	0.6663	0.1391	0.90932	-0.164
Mof_C 	C 	0.6379	0.1115	0.87377	0.243
Mof_C 	C 	0.56	0.9821	0.82448	0.01
Mof_H 	H 	0.5555	0.902	0.8239	0.029
Mof_H 	H 	0.6212	0.003	0.8175	0.036
Mof_C 	C 	0.4543	0.0328	0.76423	0.08
Mof_H 	H 	0.5074	0.0147	0.7544	-0.012
Mof_C 	C 	0.3097	0.0823	0.77	0.009
Mof_H 	H 	0.2399	0.1068	0.7647	0.013
Mof_C 	C 	0.3727	0.0576	0.80235	-0.01
Mof_H 	H 	0.3562	0.0611	0.8236	0.034
Mof_C 	C 	0.4753	0.8557	0.87072	-0.603
Mof_H 	H 	0.418	0.8526	0.8806	0.206
Mof_H 	H 	0.4471	0.8589	0.8451	0.207
Mof_H 	H 	0.5188	0.7909	0.8777	0.207
Mof_C 	C 	0.5309	0.9129	0.94357	-0.001
Mof_H 	H 	0.5712	0.9307	0.9681	0.03
Mof_H 	H 	0.5466	0.8368	0.9392	0.035
Mof_C 	C 	0.3594	0.011	0.93249	0.078
Mof_H 	H 	0.3839	0.0816	0.9298	0.007
Mof_C 	C 	0.2609	0.879	0.93547	-0
Mof_H 	H 	0.2012	0.8383	0.9353	0.027
Mof_C 	C 	0.3564	0.8369	0.94111	-0.018
Mof_H 	H 	0.3764	0.7632	0.9455	0.037
Mof_C 	C 	0.6436	0.1166	0.96917	-0.593
Mof_H 	H 	0.5932	0.0815	0.9786	0.205
Mof_H 	H 	0.7143	0.0972	0.9836	0.21
Mof_H 	H 	0.635	0.1954	0.9695	0.207
Mof_C 	C 	0.7344	0.236	0.92301	-0.009
Mof_H 	H 	0.7485	0.2402	0.9486	0.046
Mof_H 	H 	0.6957	0.3022	0.9126	0.055
Mof_C 	C 	0.9012	0.1538	0.91947	0.1
Mof_H 	H 	0.8877	0.0822	0.9255	0.009
Mof_C 	C 	0.9772	0.2911	0.90628	0.012
Mof_H 	H 	0.0272	0.3358	0.9009	0.024
Mof_C 	C 	0.8828	0.3249	0.90769	-0.008
Mof_H 	H 	0.8556	0.3965	0.9038	0.04
Mof_C 	C 	0.6737	0.1797	0.84863	-0.614
Mof_H 	H 	0.7403	0.152	0.8475	0.209
Mof_H 	H 	0.6218	0.1765	0.8253	0.21
Mof_H 	H 	0.6823	0.255	0.8568	0.224
_end
