data_functionalizedCrystal
_audit_creation_method	'EQeq! by Chris Wilmer'
_symmetry_space_group_name_H-M	'P1'
_symmetry_Int_Tables_number	1
_symmetry_cell_setting	triclinic
loop_
_symmetry_equiv_pos_as_xyz
  x,y,z
_cell_length_a	29.4645
_cell_length_b	29.4645
_cell_length_c	14.2632
_cell_angle_alpha	90
_cell_angle_beta	90
_cell_angle_gamma	120
loop_
_atom_site_label
_atom_site_type_symbol
_atom_site_fract_x
_atom_site_fract_y
_atom_site_fract_z
_atom_site_charge
Mof_Ag	Ag	0.46208	0.07037	0.74835	0.579
Mof_C 	C 	0.4491	0.1643	0.6553	-0.266
Mof_H 	H 	0.4834	0.1663	0.6463	0.076
Mof_H 	H 	0.4499	0.1939	0.621	0.088
Mof_N 	N 	0.4484	0.1395	0.8168	-0.178
Mof_C 	C 	0.4409	0.169	0.7567	0.114
Mof_C 	C 	0.4265	0.2053	0.7891	-0.055
Mof_H 	H 	0.4201	0.2254	0.7445	0.026
Mof_N 	N 	0.4215	0.2123	0.8802	-0.17
Mof_C 	C 	0.4286	0.1814	0.9391	-0.005
Mof_H 	H 	0.4241	0.1842	0.0044	0.003
Mof_C 	C 	0.4422	0.1453	0.9078	0.006
Mof_H 	H 	0.4473	0.1242	0.9522	0.011
Mof_N 	N 	0.4058	0.0692	0.6378	-0.193
Mof_C 	C 	0.4063	0.1131	0.6152	0.109
Mof_C 	C 	0.3677	0.1114	0.5553	-0.052
Mof_H 	H 	0.3679	0.143	0.5412	0.028
Mof_N 	N 	0.3309	0.067	0.5178	-0.151
Mof_C 	C 	0.3302	0.023	0.5433	-0.014
Mof_H 	H 	0.3034	0.9902	0.5204	0.02
Mof_C 	C 	0.368	0.0249	0.6026	0.016
Mof_H 	H 	0.3669	0.9931	0.6188	0.001
Mof_Ag	Ag	0.12875	0.4037	0.08168	0.58
Mof_C 	C 	0.11577	0.49763	0.98863	-0.264
Mof_H 	H 	0.15007	0.49963	0.97963	0.077
Mof_H 	H 	0.11657	0.52723	0.95433	0.089
Mof_N 	N 	0.11507	0.47283	0.15013	-0.177
Mof_C 	C 	0.10757	0.50233	0.09003	0.114
Mof_C 	C 	0.09317	0.53863	0.12243	-0.054
Mof_H 	H 	0.08677	0.55873	0.07783	0.027
Mof_N 	N 	0.08817	0.54563	0.21353	-0.169
Mof_C 	C 	0.09527	0.51473	0.27243	-0.004
Mof_H 	H 	0.09077	0.51753	0.33773	0.002
Mof_C 	C 	0.10887	0.47863	0.24113	0.005
Mof_H 	H 	0.11397	0.45753	0.28553	0.011
Mof_N 	N 	0.07247	0.40253	0.97113	-0.193
Mof_C 	C 	0.07297	0.44643	0.94853	0.109
Mof_C 	C 	0.03437	0.44473	0.88863	-0.052
Mof_H 	H 	0.03457	0.47633	0.87453	0.028
Mof_N 	N 	0.99757	0.40033	0.85113	-0.151
Mof_C 	C 	0.99687	0.35633	0.87663	-0.015
Mof_H 	H 	0.97007	0.32353	0.85373	0.02
Mof_C 	C 	0.03467	0.35823	0.93593	0.016
Mof_H 	H 	0.03357	0.32643	0.95213	0
Mof_Ag	Ag	0.79541	0.73704	0.41502	0.58
Mof_C 	C 	0.78243	0.83097	0.32197	-0.265
Mof_H 	H 	0.81673	0.83297	0.31297	0.077
Mof_H 	H 	0.78323	0.86057	0.28767	0.089
Mof_N 	N 	0.78173	0.80617	0.48347	-0.177
Mof_C 	C 	0.77423	0.83567	0.42337	0.115
Mof_C 	C 	0.75983	0.87197	0.45577	-0.054
Mof_H 	H 	0.75343	0.89207	0.41117	0.027
Mof_N 	N 	0.75483	0.87897	0.54687	-0.169
Mof_C 	C 	0.76193	0.84807	0.60577	-0.004
Mof_H 	H 	0.75743	0.85087	0.67107	0.002
Mof_C 	C 	0.77553	0.81197	0.57447	0.005
Mof_H 	H 	0.78063	0.79087	0.61887	0.011
Mof_N 	N 	0.73913	0.73587	0.30447	-0.193
Mof_C 	C 	0.73963	0.77977	0.28187	0.109
Mof_C 	C 	0.70103	0.77807	0.22197	-0.052
Mof_H 	H 	0.70123	0.80967	0.20787	0.028
Mof_N 	N 	0.66423	0.73367	0.18447	-0.151
Mof_C 	C 	0.66353	0.68967	0.20997	-0.015
Mof_H 	H 	0.63673	0.65687	0.18707	0.02
Mof_C 	C 	0.70133	0.69157	0.26927	0.016
Mof_H 	H 	0.70023	0.65977	0.28547	0.001
Mof_Ag	Ag	0.92963	0.39171	0.74835	0.58
Mof_C 	C 	0.8357	0.2848	0.6553	-0.265
Mof_H 	H 	0.8337	0.3171	0.6463	0.077
Mof_H 	H 	0.8061	0.256	0.621	0.089
Mof_N 	N 	0.8605	0.3089	0.8168	-0.177
Mof_C 	C 	0.831	0.2719	0.7567	0.115
Mof_C 	C 	0.7947	0.2212	0.7891	-0.054
Mof_H 	H 	0.7746	0.1947	0.7445	0.027
Mof_N 	N 	0.7877	0.2092	0.8802	-0.169
Mof_C 	C 	0.8186	0.2472	0.9391	-0.005
Mof_H 	H 	0.8158	0.2399	0.0044	0.003
Mof_C 	C 	0.8547	0.2969	0.9078	0.006
Mof_H 	H 	0.8758	0.3231	0.9522	0.011
Mof_N 	N 	0.9308	0.3366	0.6378	-0.193
Mof_C 	C 	0.8869	0.2932	0.6152	0.109
Mof_C 	C 	0.8886	0.2563	0.5553	-0.052
Mof_H 	H 	0.857	0.2249	0.5412	0.028
Mof_N 	N 	0.933	0.2639	0.5178	-0.151
Mof_C 	C 	0.977	0.3072	0.5433	-0.015
Mof_H 	H 	0.0098	0.3132	0.5204	0.02
Mof_C 	C 	0.9751	0.3431	0.6026	0.016
Mof_H 	H 	0.0069	0.3738	0.6188	0.001
Mof_Ag	Ag	0.5963	0.72504	0.08168	0.58
Mof_C 	C 	0.50237	0.61813	0.98863	-0.264
Mof_H 	H 	0.50037	0.65043	0.97963	0.077
Mof_H 	H 	0.47277	0.58933	0.95433	0.089
Mof_N 	N 	0.52717	0.64223	0.15013	-0.177
Mof_C 	C 	0.49767	0.60523	0.09003	0.115
Mof_C 	C 	0.46137	0.55453	0.12243	-0.054
Mof_H 	H 	0.44127	0.52803	0.07783	0.027
Mof_N 	N 	0.45437	0.54253	0.21353	-0.169
Mof_C 	C 	0.48527	0.58053	0.27243	-0.004
Mof_H 	H 	0.48247	0.57323	0.33773	0.002
Mof_C 	C 	0.52137	0.63023	0.24113	0.005
Mof_H 	H 	0.54247	0.65643	0.28553	0.011
Mof_N 	N 	0.59747	0.66993	0.97113	-0.193
Mof_C 	C 	0.55357	0.62653	0.94853	0.109
Mof_C 	C 	0.55527	0.58963	0.88863	-0.052
Mof_H 	H 	0.52367	0.55823	0.87453	0.028
Mof_N 	N 	0.59967	0.59723	0.85113	-0.151
Mof_C 	C 	0.64367	0.64053	0.87663	-0.015
Mof_H 	H 	0.67647	0.64653	0.85373	0.02
Mof_C 	C 	0.64177	0.67643	0.93593	0.016
Mof_H 	H 	0.67357	0.70713	0.95213	0.001
Mof_Ag	Ag	0.26296	0.05838	0.41502	0.58
Mof_C 	C 	0.16903	0.95147	0.32197	-0.264
Mof_H 	H 	0.16703	0.98377	0.31297	0.077
Mof_H 	H 	0.13943	0.92267	0.28767	0.089
Mof_N 	N 	0.19383	0.97557	0.48347	-0.177
Mof_C 	C 	0.16433	0.93857	0.42337	0.115
Mof_C 	C 	0.12803	0.88787	0.45577	-0.054
Mof_H 	H 	0.10793	0.86137	0.41117	0.027
Mof_N 	N 	0.12103	0.87587	0.54687	-0.169
Mof_C 	C 	0.15193	0.91387	0.60577	-0.004
Mof_H 	H 	0.14913	0.90657	0.67107	0.002
Mof_C 	C 	0.18803	0.96357	0.57447	0.005
Mof_H 	H 	0.20913	0.98977	0.61887	0.011
Mof_N 	N 	0.26413	0.00327	0.30447	-0.193
Mof_C 	C 	0.22023	0.95987	0.28187	0.109
Mof_C 	C 	0.22193	0.92297	0.22197	-0.052
Mof_H 	H 	0.19033	0.89157	0.20787	0.028
Mof_N 	N 	0.26633	0.93057	0.18447	-0.151
Mof_C 	C 	0.31033	0.97387	0.20997	-0.015
Mof_H 	H 	0.34313	0.97987	0.18707	0.02
Mof_C 	C 	0.30843	0.00977	0.26927	0.016
Mof_H 	H 	0.34023	0.04047	0.28547	0
Mof_Ag	Ag	0.60829	0.53792	0.74835	0.58
Mof_C 	C 	0.7152	0.5509	0.6553	-0.265
Mof_H 	H 	0.6829	0.5166	0.6463	0.077
Mof_H 	H 	0.744	0.5501	0.621	0.089
Mof_N 	N 	0.6911	0.5516	0.8168	-0.177
Mof_C 	C 	0.7281	0.5591	0.7567	0.115
Mof_C 	C 	0.7788	0.5735	0.7891	-0.054
Mof_H 	H 	0.8053	0.5799	0.7445	0.027
Mof_N 	N 	0.7908	0.5785	0.8802	-0.169
Mof_C 	C 	0.7528	0.5714	0.9391	-0.004
Mof_H 	H 	0.7601	0.5759	0.0044	0.003
Mof_C 	C 	0.7031	0.5578	0.9078	0.006
Mof_H 	H 	0.6769	0.5527	0.9522	0.011
Mof_N 	N 	0.6634	0.5942	0.6378	-0.193
Mof_C 	C 	0.7068	0.5937	0.6152	0.109
Mof_C 	C 	0.7437	0.6323	0.5553	-0.052
Mof_H 	H 	0.7751	0.6321	0.5412	0.028
Mof_N 	N 	0.7361	0.6691	0.5178	-0.151
Mof_C 	C 	0.6928	0.6698	0.5433	-0.015
Mof_H 	H 	0.6868	0.6966	0.5204	0.02
Mof_C 	C 	0.6569	0.632	0.6026	0.016
Mof_H 	H 	0.6262	0.6331	0.6188	0.001
Mof_Ag	Ag	0.27496	0.87125	0.08168	0.579
Mof_C 	C 	0.38187	0.88423	0.98863	-0.264
Mof_H 	H 	0.34957	0.84993	0.97963	0.077
Mof_H 	H 	0.41067	0.88343	0.95433	0.089
Mof_N 	N 	0.35777	0.88493	0.15013	-0.177
Mof_C 	C 	0.39477	0.89243	0.09003	0.114
Mof_C 	C 	0.44547	0.90683	0.12243	-0.054
Mof_H 	H 	0.47197	0.91323	0.07783	0.027
Mof_N 	N 	0.45747	0.91183	0.21353	-0.169
Mof_C 	C 	0.41947	0.90473	0.27243	-0.004
Mof_H 	H 	0.42677	0.90923	0.33773	0.002
Mof_C 	C 	0.36977	0.89113	0.24113	0.005
Mof_H 	H 	0.34357	0.88603	0.28553	0.011
Mof_N 	N 	0.33007	0.92753	0.97113	-0.193
Mof_C 	C 	0.37347	0.92703	0.94853	0.109
Mof_C 	C 	0.41037	0.96563	0.88863	-0.052
Mof_H 	H 	0.44177	0.96543	0.87453	0.028
Mof_N 	N 	0.40277	0.00243	0.85113	-0.151
Mof_C 	C 	0.35947	0.00313	0.87663	-0.015
Mof_H 	H 	0.35347	0.02993	0.85373	0.02
Mof_C 	C 	0.32357	0.96533	0.93593	0.016
Mof_H 	H 	0.29287	0.96643	0.95213	0.001
Mof_Ag	Ag	0.94162	0.20459	0.41502	0.58
Mof_C 	C 	0.04853	0.21757	0.32197	-0.264
Mof_H 	H 	0.01623	0.18327	0.31297	0.077
Mof_H 	H 	0.07733	0.21677	0.28767	0.089
Mof_N 	N 	0.02443	0.21827	0.48347	-0.177
Mof_C 	C 	0.06143	0.22577	0.42337	0.115
Mof_C 	C 	0.11213	0.24017	0.45577	-0.054
Mof_H 	H 	0.13863	0.24657	0.41117	0.027
Mof_N 	N 	0.12413	0.24517	0.54687	-0.169
Mof_C 	C 	0.08613	0.23807	0.60577	-0.004
Mof_H 	H 	0.09343	0.24257	0.67107	0.002
Mof_C 	C 	0.03643	0.22447	0.57447	0.005
Mof_H 	H 	0.01023	0.21937	0.61887	0.011
Mof_N 	N 	0.99673	0.26087	0.30447	-0.193
Mof_C 	C 	0.04013	0.26037	0.28187	0.109
Mof_C 	C 	0.07703	0.29897	0.22197	-0.052
Mof_H 	H 	0.10843	0.29877	0.20787	0.028
Mof_N 	N 	0.06943	0.33577	0.18447	-0.151
Mof_C 	C 	0.02613	0.33647	0.20997	-0.015
Mof_H 	H 	0.02013	0.36327	0.18707	0.02
Mof_C 	C 	0.99023	0.29867	0.26927	0.016
Mof_H 	H 	0.95953	0.29977	0.28547	0
Mof_Ag	Ag	0.53792	0.92963	0.25165	0.58
Mof_C 	C 	0.5509	0.8357	0.3447	-0.265
Mof_H 	H 	0.5166	0.8337	0.3537	0.077
Mof_H 	H 	0.5501	0.8061	0.379	0.089
Mof_N 	N 	0.5516	0.8605	0.1832	-0.177
Mof_C 	C 	0.5591	0.831	0.2433	0.115
Mof_C 	C 	0.5735	0.7947	0.2109	-0.054
Mof_H 	H 	0.5799	0.7746	0.2555	0.027
Mof_N 	N 	0.5785	0.7877	0.1198	-0.169
Mof_C 	C 	0.5714	0.8186	0.0609	-0.004
Mof_H 	H 	0.5759	0.8158	0.9956	0.003
Mof_C 	C 	0.5578	0.8547	0.0922	0.006
Mof_H 	H 	0.5527	0.8758	0.0478	0.011
Mof_N 	N 	0.5942	0.9308	0.3622	-0.193
Mof_C 	C 	0.5937	0.8869	0.3848	0.109
Mof_C 	C 	0.6323	0.8886	0.4447	-0.052
Mof_H 	H 	0.6321	0.857	0.4588	0.028
Mof_N 	N 	0.6691	0.933	0.4822	-0.151
Mof_C 	C 	0.6698	0.977	0.4567	-0.014
Mof_H 	H 	0.6966	0.0098	0.4796	0.02
Mof_C 	C 	0.632	0.9751	0.3974	0.016
Mof_H 	H 	0.6331	0.0069	0.3812	0.001
Mof_Ag	Ag	0.20459	0.26296	0.58498	0.58
Mof_C 	C 	0.21757	0.16903	0.67803	-0.265
Mof_H 	H 	0.18327	0.16703	0.68703	0.077
Mof_H 	H 	0.21677	0.13943	0.71233	0.089
Mof_N 	N 	0.21827	0.19383	0.51653	-0.177
Mof_C 	C 	0.22577	0.16433	0.57663	0.115
Mof_C 	C 	0.24017	0.12803	0.54423	-0.054
Mof_H 	H 	0.24657	0.10793	0.58883	0.027
Mof_N 	N 	0.24517	0.12103	0.45313	-0.169
Mof_C 	C 	0.23807	0.15193	0.39423	-0.004
Mof_H 	H 	0.24257	0.14913	0.32893	0.002
Mof_C 	C 	0.22447	0.18803	0.42553	0.005
Mof_H 	H 	0.21937	0.20913	0.38113	0.011
Mof_N 	N 	0.26087	0.26413	0.69553	-0.193
Mof_C 	C 	0.26037	0.22023	0.71813	0.109
Mof_C 	C 	0.29897	0.22193	0.77803	-0.052
Mof_H 	H 	0.29877	0.19033	0.79213	0.028
Mof_N 	N 	0.33577	0.26633	0.81553	-0.151
Mof_C 	C 	0.33647	0.31033	0.79003	-0.015
Mof_H 	H 	0.36327	0.34313	0.81293	0.02
Mof_C 	C 	0.29867	0.30843	0.73073	0.016
Mof_H 	H 	0.29977	0.34023	0.71453	0.001
Mof_Ag	Ag	0.87125	0.5963	0.91832	0.58
Mof_C 	C 	0.88423	0.50237	0.01137	-0.264
Mof_H 	H 	0.84993	0.50037	0.02037	0.077
Mof_H 	H 	0.88343	0.47277	0.04567	0.089
Mof_N 	N 	0.88493	0.52717	0.84987	-0.177
Mof_C 	C 	0.89243	0.49767	0.90997	0.114
Mof_C 	C 	0.90683	0.46137	0.87757	-0.054
Mof_H 	H 	0.91323	0.44127	0.92217	0.027
Mof_N 	N 	0.91183	0.45437	0.78647	-0.169
Mof_C 	C 	0.90473	0.48527	0.72757	-0.004
Mof_H 	H 	0.90923	0.48247	0.66227	0.002
Mof_C 	C 	0.89113	0.52137	0.75887	0.005
Mof_H 	H 	0.88603	0.54247	0.71447	0.011
Mof_N 	N 	0.92753	0.59747	0.02887	-0.193
Mof_C 	C 	0.92703	0.55357	0.05147	0.109
Mof_C 	C 	0.96563	0.55527	0.11137	-0.052
Mof_H 	H 	0.96543	0.52367	0.12547	0.028
Mof_N 	N 	0.00243	0.59967	0.14887	-0.151
Mof_C 	C 	0.00313	0.64367	0.12337	-0.015
Mof_H 	H 	0.02993	0.67647	0.14627	0.02
Mof_C 	C 	0.96533	0.64177	0.06407	0.016
Mof_H 	H 	0.96643	0.67357	0.04787	0
Mof_Ag	Ag	0.07037	0.60829	0.25165	0.58
Mof_C 	C 	0.1643	0.7152	0.3447	-0.265
Mof_H 	H 	0.1663	0.6829	0.3537	0.077
Mof_H 	H 	0.1939	0.744	0.379	0.089
Mof_N 	N 	0.1395	0.6911	0.1832	-0.177
Mof_C 	C 	0.169	0.7281	0.2433	0.115
Mof_C 	C 	0.2053	0.7788	0.2109	-0.054
Mof_H 	H 	0.2254	0.8053	0.2555	0.027
Mof_N 	N 	0.2123	0.7908	0.1198	-0.169
Mof_C 	C 	0.1814	0.7528	0.0609	-0.005
Mof_H 	H 	0.1842	0.7601	0.9956	0.003
Mof_C 	C 	0.1453	0.7031	0.0922	0.006
Mof_H 	H 	0.1242	0.6769	0.0478	0.011
Mof_N 	N 	0.0692	0.6634	0.3622	-0.193
Mof_C 	C 	0.1131	0.7068	0.3848	0.109
Mof_C 	C 	0.1114	0.7437	0.4447	-0.052
Mof_H 	H 	0.143	0.7751	0.4588	0.028
Mof_N 	N 	0.067	0.7361	0.4822	-0.151
Mof_C 	C 	0.023	0.6928	0.4567	-0.015
Mof_H 	H 	0.9902	0.6868	0.4796	0.02
Mof_C 	C 	0.0249	0.6569	0.3974	0.016
Mof_H 	H 	0.9931	0.6262	0.3812	0.001
Mof_Ag	Ag	0.73704	0.94162	0.58498	0.58
Mof_C 	C 	0.83097	0.04853	0.67803	-0.264
Mof_H 	H 	0.83297	0.01623	0.68703	0.077
Mof_H 	H 	0.86057	0.07733	0.71233	0.089
Mof_N 	N 	0.80617	0.02443	0.51653	-0.177
Mof_C 	C 	0.83567	0.06143	0.57663	0.115
Mof_C 	C 	0.87197	0.11213	0.54423	-0.054
Mof_H 	H 	0.89207	0.13863	0.58883	0.027
Mof_N 	N 	0.87897	0.12413	0.45313	-0.169
Mof_C 	C 	0.84807	0.08613	0.39423	-0.004
Mof_H 	H 	0.85087	0.09343	0.32893	0.002
Mof_C 	C 	0.81197	0.03643	0.42553	0.005
Mof_H 	H 	0.79087	0.01023	0.38113	0.011
Mof_N 	N 	0.73587	0.99673	0.69553	-0.193
Mof_C 	C 	0.77977	0.04013	0.71813	0.109
Mof_C 	C 	0.77807	0.07703	0.77803	-0.052
Mof_H 	H 	0.80967	0.10843	0.79213	0.028
Mof_N 	N 	0.73367	0.06943	0.81553	-0.151
Mof_C 	C 	0.68967	0.02613	0.79003	-0.015
Mof_H 	H 	0.65687	0.02013	0.81293	0.02
Mof_C 	C 	0.69157	0.99023	0.73073	0.016
Mof_H 	H 	0.65977	0.95953	0.71453	0
Mof_Ag	Ag	0.4037	0.27496	0.91832	0.58
Mof_C 	C 	0.49763	0.38187	0.01137	-0.264
Mof_H 	H 	0.49963	0.34957	0.02037	0.077
Mof_H 	H 	0.52723	0.41067	0.04567	0.089
Mof_N 	N 	0.47283	0.35777	0.84987	-0.177
Mof_C 	C 	0.50233	0.39477	0.90997	0.115
Mof_C 	C 	0.53863	0.44547	0.87757	-0.054
Mof_H 	H 	0.55873	0.47197	0.92217	0.027
Mof_N 	N 	0.54563	0.45747	0.78647	-0.169
Mof_C 	C 	0.51473	0.41947	0.72757	-0.004
Mof_H 	H 	0.51753	0.42677	0.66227	0.002
Mof_C 	C 	0.47863	0.36977	0.75887	0.005
Mof_H 	H 	0.45753	0.34357	0.71447	0.011
Mof_N 	N 	0.40253	0.33007	0.02887	-0.193
Mof_C 	C 	0.44643	0.37347	0.05147	0.109
Mof_C 	C 	0.44473	0.41037	0.11137	-0.052
Mof_H 	H 	0.47633	0.44177	0.12547	0.028
Mof_N 	N 	0.40033	0.40277	0.14887	-0.151
Mof_C 	C 	0.35633	0.35947	0.12337	-0.015
Mof_H 	H 	0.32353	0.35347	0.14627	0.02
Mof_C 	C 	0.35823	0.32357	0.06407	0.016
Mof_H 	H 	0.32643	0.29287	0.04787	0.001
Mof_Ag	Ag	0.39171	0.46208	0.25165	0.58
Mof_C 	C 	0.2848	0.4491	0.3447	-0.265
Mof_H 	H 	0.3171	0.4834	0.3537	0.077
Mof_H 	H 	0.256	0.4499	0.379	0.089
Mof_N 	N 	0.3089	0.4484	0.1832	-0.177
Mof_C 	C 	0.2719	0.4409	0.2433	0.115
Mof_C 	C 	0.2212	0.4265	0.2109	-0.054
Mof_H 	H 	0.1947	0.4201	0.2555	0.027
Mof_N 	N 	0.2092	0.4215	0.1198	-0.169
Mof_C 	C 	0.2472	0.4286	0.0609	-0.004
Mof_H 	H 	0.2399	0.4241	0.9956	0.003
Mof_C 	C 	0.2969	0.4422	0.0922	0.006
Mof_H 	H 	0.3231	0.4473	0.0478	0.011
Mof_N 	N 	0.3366	0.4058	0.3622	-0.193
Mof_C 	C 	0.2932	0.4063	0.3848	0.109
Mof_C 	C 	0.2563	0.3677	0.4447	-0.052
Mof_H 	H 	0.2249	0.3679	0.4588	0.028
Mof_N 	N 	0.2639	0.3309	0.4822	-0.151
Mof_C 	C 	0.3072	0.3302	0.4567	-0.015
Mof_H 	H 	0.3132	0.3034	0.4796	0.02
Mof_C 	C 	0.3431	0.368	0.3974	0.016
Mof_H 	H 	0.3738	0.3669	0.3812	0.001
Mof_Ag	Ag	0.05838	0.79541	0.58498	0.58
Mof_C 	C 	0.95147	0.78243	0.67803	-0.264
Mof_H 	H 	0.98377	0.81673	0.68703	0.077
Mof_H 	H 	0.92267	0.78323	0.71233	0.089
Mof_N 	N 	0.97557	0.78173	0.51653	-0.177
Mof_C 	C 	0.93857	0.77423	0.57663	0.115
Mof_C 	C 	0.88787	0.75983	0.54423	-0.054
Mof_H 	H 	0.86137	0.75343	0.58883	0.027
Mof_N 	N 	0.87587	0.75483	0.45313	-0.169
Mof_C 	C 	0.91387	0.76193	0.39423	-0.004
Mof_H 	H 	0.90657	0.75743	0.32893	0.002
Mof_C 	C 	0.96357	0.77553	0.42553	0.005
Mof_H 	H 	0.98977	0.78063	0.38113	0.011
Mof_N 	N 	0.00327	0.73913	0.69553	-0.193
Mof_C 	C 	0.95987	0.73963	0.71813	0.109
Mof_C 	C 	0.92297	0.70103	0.77803	-0.052
Mof_H 	H 	0.89157	0.70123	0.79213	0.028
Mof_N 	N 	0.93057	0.66423	0.81553	-0.151
Mof_C 	C 	0.97387	0.66353	0.79003	-0.015
Mof_H 	H 	0.97987	0.63673	0.81293	0.02
Mof_C 	C 	0.00977	0.70133	0.73073	0.016
Mof_H 	H 	0.04047	0.70023	0.71453	0
Mof_Ag	Ag	0.72504	0.12875	0.91832	0.579
Mof_C 	C 	0.61813	0.11577	0.01137	-0.264
Mof_H 	H 	0.65043	0.15007	0.02037	0.077
Mof_H 	H 	0.58933	0.11657	0.04567	0.089
Mof_N 	N 	0.64223	0.11507	0.84987	-0.177
Mof_C 	C 	0.60523	0.10757	0.90997	0.114
Mof_C 	C 	0.55453	0.09317	0.87757	-0.054
Mof_H 	H 	0.52803	0.08677	0.92217	0.027
Mof_N 	N 	0.54253	0.08817	0.78647	-0.169
Mof_C 	C 	0.58053	0.09527	0.72757	-0.004
Mof_H 	H 	0.57323	0.09077	0.66227	0.002
Mof_C 	C 	0.63023	0.10887	0.75887	0.005
Mof_H 	H 	0.65643	0.11397	0.71447	0.011
Mof_N 	N 	0.66993	0.07247	0.02887	-0.193
Mof_C 	C 	0.62653	0.07297	0.05147	0.109
Mof_C 	C 	0.58963	0.03437	0.11137	-0.052
Mof_H 	H 	0.55823	0.03457	0.12547	0.028
Mof_N 	N 	0.59723	0.99757	0.14887	-0.151
Mof_C 	C 	0.64053	0.99687	0.12337	-0.015
Mof_H 	H 	0.64653	0.97007	0.14627	0.02
Mof_C 	C 	0.67643	0.03467	0.06407	0.016
Mof_H 	H 	0.70713	0.03357	0.04787	0.001
_end
