# CIF file generated by openbabel 3.1.0, see https://openbabel.org
data_I
_chemical_name_common 'image0'
_cell_length_a 21.9381
_cell_length_b 16.7198
_cell_length_c 25.5037
_cell_angle_alpha 90
_cell_angle_beta 115.074
_cell_angle_gamma 90
_space_group_name_H-M_alt 'P 1'
_space_group_name_Hall 'P 1'
loop_
    _symmetry_equiv_pos_as_xyz
    x,y,z
loop_
    _atom_site_label
    _atom_site_type_symbol
    _atom_site_fract_x
    _atom_site_fract_y
    _atom_site_fract_z
    _atom_site_occupancy
    Ag1      Ag       0.84424    0.04367    0.36665    1.000
    Ag2      Ag       0.32144    0.24312    0.86622    1.000
    C1       C        0.59750    0.02820    0.99860    1.000
    C2       C        0.77630    0.86170    0.00730    1.000
    H1       H        0.79700    0.86540    0.04750    1.000
    C3       C        0.05960    0.19970    0.46740    1.000
    C4       C        0.29750    0.41720    0.50330    1.000
    H2       H        0.31930    0.41410    0.54340    1.000
    C5       C        0.12300    0.24450    0.49980    1.000
    C6       C        0.03260    0.19020    0.40880    1.000
    H3       H        0.05410    0.21140    0.38740    1.000
    C7       C        0.50300    0.11470    0.99400    1.000
    H4       H        0.52240    0.11600    0.03430    1.000
    C8       C        0.44340    0.15510    0.96220    1.000
    H5       H        0.42380    0.18360    0.98240    1.000
    C9       C        0.24280    0.26320    0.64900    1.000
    C10      C        0.68140    0.94760    0.00460    1.000
    C11      C        0.71970    0.84710    0.89000    1.000
    H6       H        0.70020    0.84240    0.84990    1.000
    C12      C        0.53280    0.07260    0.96470    1.000
    C13      C        0.23500    0.37910    0.47230    1.000
    C14      C        0.67860    0.04420    0.17900    1.000
    H7       H        0.63460    0.06210    0.15870    1.000
    C15      C        0.20940    0.27430    0.58530    1.000
    C16      C        0.71200    0.00800    0.14990    1.000
    C17      C        0.71420    0.89900    0.97550    1.000
    C18      C        0.02530    0.16630    0.49700    1.000
    H8       H        0.04210    0.17120    0.53700    1.000
    C19      C        0.23560    0.43530    0.38700    1.000
    H9       H        0.21440    0.44160    0.34710    1.000
    C20      C        0.20390    0.39100    0.41350    1.000
    H10      H        0.16160    0.36910    0.39180    1.000
    C21      C        0.20450    0.32830    0.50250    1.000
    C22      C        0.67990    0.99790    0.08570    1.000
    C23      C        0.80620    0.81940    0.97780    1.000
    H11      H        0.84720    0.79450    0.99920    1.000
    C24      C        0.68550    0.89000    0.91640    1.000
    H12      H        0.64360    0.91230    0.89410    1.000
    C25      C        0.32470    0.45860    0.47270    1.000
    H13      H        0.36720    0.48090    0.49300    1.000
    C26      C        0.96730    0.12690    0.46710    1.000
    H14      H        0.94540    0.10410    0.48770    1.000
    C27      C        0.97260    0.14850    0.38140    1.000
    H15      H        0.95490    0.14140    0.34150    1.000
    C28      C        0.80610    0.99490    0.24030    1.000
    H16      H        0.84990    0.97700    0.26130    1.000
    C29      C        0.50110    0.07110    0.90490    1.000
    H17      H        0.51830    0.04090    0.88360    1.000
    C30      C        0.71080    0.05350    0.23780    1.000
    H18      H        0.68750    0.07720    0.25700    1.000
    C31      C        0.24570    0.20620    0.73480    1.000
    H19      H        0.22710    0.17100    0.75230    1.000
    C32      C        0.21450    0.21320    0.67640    1.000
    H20      H        0.17510    0.18520    0.65500    1.000
    C33      C        0.77750    0.98370    0.18160    1.000
    H21      H        0.80190    0.96020    0.16340    1.000
    C34      C        0.44360    0.11540    0.87780    1.000
    H22      H        0.42460    0.11760    0.83760    1.000
    C35      C        0.30220    0.30040    0.68260    1.000
    H23      H        0.32490    0.33120    0.66610    1.000
    C36      C        0.32750    0.29030    0.74230    1.000
    H24      H        0.36680    0.31760    0.76520    1.000
    N1       N        0.93950    0.11850    0.41020    1.000
    N2       N        0.29520    0.46950    0.41600    1.000
    N3       N        0.30010    0.24530    0.76870    1.000
    N4       N        0.15200    0.23450    0.55690    1.000
    N5       N        0.14750    0.29040    0.47040    1.000
    N6       N        0.23730    0.32290    0.56050    1.000
    N7       N        0.41280    0.15570    0.90510    1.000
    N8       N        0.77950    0.81250    0.92050    1.000
    N9       N        0.77530    0.02970    0.26930    1.000
    N10      N        0.62250    0.03720    0.05630    1.000
    N11      N        0.62480    0.98690    0.97070    1.000
    N12      N        0.71030    0.95080    0.06240    1.000
    Ag3      Ag       0.34424    0.54367    0.36665    1.000
    Ag4      Ag       0.82144    0.74312    0.86622    1.000
    C37      C        0.09750    0.52820    0.99860    1.000
    C38      C        0.27630    0.36170    0.00730    1.000
    H25      H        0.29700    0.36540    0.04750    1.000
    C39      C        0.55960    0.69970    0.46740    1.000
    C40      C        0.79750    0.91720    0.50330    1.000
    H26      H        0.81930    0.91410    0.54340    1.000
    C41      C        0.62300    0.74450    0.49980    1.000
    C42      C        0.53260    0.69020    0.40880    1.000
    H27      H        0.55410    0.71140    0.38740    1.000
    C43      C        0.00300    0.61470    0.99400    1.000
    H28      H        0.02240    0.61600    0.03430    1.000
    C44      C        0.94340    0.65510    0.96220    1.000
    H29      H        0.92380    0.68360    0.98240    1.000
    C45      C        0.74280    0.76320    0.64900    1.000
    C46      C        0.18140    0.44760    0.00460    1.000
    C47      C        0.21970    0.34710    0.89000    1.000
    H30      H        0.20020    0.34240    0.84990    1.000
    C48      C        0.03280    0.57260    0.96470    1.000
    C49      C        0.73500    0.87910    0.47230    1.000
    C50      C        0.17860    0.54420    0.17900    1.000
    H31      H        0.13460    0.56210    0.15870    1.000
    C51      C        0.70940    0.77430    0.58530    1.000
    C52      C        0.21200    0.50800    0.14990    1.000
    C53      C        0.21420    0.39900    0.97550    1.000
    C54      C        0.52530    0.66630    0.49700    1.000
    H32      H        0.54210    0.67120    0.53700    1.000
    C55      C        0.73560    0.93530    0.38700    1.000
    H33      H        0.71440    0.94160    0.34710    1.000
    C56      C        0.70390    0.89100    0.41350    1.000
    H34      H        0.66160    0.86910    0.39180    1.000
    C57      C        0.70450    0.82830    0.50250    1.000
    C58      C        0.17990    0.49790    0.08570    1.000
    C59      C        0.30620    0.31940    0.97780    1.000
    H35      H        0.34720    0.29450    0.99920    1.000
    C60      C        0.18550    0.39000    0.91640    1.000
    H36      H        0.14360    0.41230    0.89410    1.000
    C61      C        0.82470    0.95860    0.47270    1.000
    H37      H        0.86720    0.98090    0.49300    1.000
    C62      C        0.46730    0.62690    0.46710    1.000
    H38      H        0.44540    0.60410    0.48770    1.000
    C63      C        0.47260    0.64850    0.38140    1.000
    H39      H        0.45490    0.64140    0.34150    1.000
    C64      C        0.30610    0.49490    0.24030    1.000
    H40      H        0.34990    0.47700    0.26130    1.000
    C65      C        0.00110    0.57110    0.90490    1.000
    H41      H        0.01830    0.54090    0.88360    1.000
    C66      C        0.21080    0.55350    0.23780    1.000
    H42      H        0.18750    0.57720    0.25700    1.000
    C67      C        0.74570    0.70620    0.73480    1.000
    H43      H        0.72710    0.67100    0.75230    1.000
    C68      C        0.71450    0.71320    0.67640    1.000
    H44      H        0.67510    0.68520    0.65500    1.000
    C69      C        0.27750    0.48370    0.18160    1.000
    H45      H        0.30190    0.46020    0.16340    1.000
    C70      C        0.94360    0.61540    0.87780    1.000
    H46      H        0.92460    0.61760    0.83760    1.000
    C71      C        0.80220    0.80040    0.68260    1.000
    H47      H        0.82490    0.83120    0.66610    1.000
    C72      C        0.82750    0.79030    0.74230    1.000
    H48      H        0.86680    0.81760    0.76520    1.000
    N13      N        0.43950    0.61850    0.41020    1.000
    N14      N        0.79520    0.96950    0.41600    1.000
    N15      N        0.80010    0.74530    0.76870    1.000
    N16      N        0.65200    0.73450    0.55690    1.000
    N17      N        0.64750    0.79040    0.47040    1.000
    N18      N        0.73730    0.82290    0.56050    1.000
    N19      N        0.91280    0.65570    0.90510    1.000
    N20      N        0.27950    0.31250    0.92050    1.000
    N21      N        0.27530    0.52970    0.26930    1.000
    N22      N        0.12250    0.53720    0.05630    1.000
    N23      N        0.12480    0.48690    0.97070    1.000
    N24      N        0.21030    0.45080    0.06240    1.000
    Ag5      Ag       0.15576    0.04367    0.13335    1.000
    Ag6      Ag       0.67856    0.24312    0.63378    1.000
    C73      C        0.40250    0.02820    0.50140    1.000
    C74      C        0.22370    0.86170    0.49270    1.000
    H49      H        0.20300    0.86540    0.45250    1.000
    C75      C        0.94040    0.19970    0.03260    1.000
    C76      C        0.70250    0.41720    0.99670    1.000
    H50      H        0.68070    0.41410    0.95660    1.000
    C77      C        0.87700    0.24450    0.00020    1.000
    C78      C        0.96740    0.19020    0.09120    1.000
    H51      H        0.94590    0.21140    0.11260    1.000
    C79      C        0.49700    0.11470    0.50600    1.000
    H52      H        0.47760    0.11600    0.46570    1.000
    C80      C        0.55660    0.15510    0.53780    1.000
    H53      H        0.57620    0.18360    0.51760    1.000
    C81      C        0.75720    0.26320    0.85100    1.000
    C82      C        0.31860    0.94760    0.49540    1.000
    C83      C        0.28030    0.84710    0.61000    1.000
    H54      H        0.29980    0.84240    0.65010    1.000
    C84      C        0.46720    0.07260    0.53530    1.000
    C85      C        0.76500    0.37910    0.02770    1.000
    C86      C        0.32140    0.04420    0.32100    1.000
    H55      H        0.36540    0.06210    0.34130    1.000
    C87      C        0.79060    0.27430    0.91470    1.000
    C88      C        0.28800    0.00800    0.35010    1.000
    C89      C        0.28580    0.89900    0.52450    1.000
    C90      C        0.97470    0.16630    0.00300    1.000
    H56      H        0.95790    0.17120    0.96300    1.000
    C91      C        0.76440    0.43530    0.11300    1.000
    H57      H        0.78560    0.44160    0.15290    1.000
    C92      C        0.79610    0.39100    0.08650    1.000
    H58      H        0.83840    0.36910    0.10820    1.000
    C93      C        0.79550    0.32830    0.99750    1.000
    C94      C        0.32010    0.99790    0.41430    1.000
    C95      C        0.19380    0.81940    0.52220    1.000
    H59      H        0.15280    0.79450    0.50080    1.000
    C96      C        0.31450    0.89000    0.58360    1.000
    H60      H        0.35640    0.91230    0.60590    1.000
    C97      C        0.67530    0.45860    0.02730    1.000
    H61      H        0.63280    0.48090    0.00700    1.000
    C98      C        0.03270    0.12690    0.03290    1.000
    H62      H        0.05460    0.10410    0.01230    1.000
    C99      C        0.02740    0.14850    0.11860    1.000
    H63      H        0.04510    0.14140    0.15850    1.000
    C100     C        0.19390    0.99490    0.25970    1.000
    H64      H        0.15010    0.97700    0.23870    1.000
    C101     C        0.49890    0.07110    0.59510    1.000
    H65      H        0.48170    0.04090    0.61640    1.000
    C102     C        0.28920    0.05350    0.26220    1.000
    H66      H        0.31250    0.07720    0.24300    1.000
    C103     C        0.75430    0.20620    0.76520    1.000
    H67      H        0.77290    0.17100    0.74770    1.000
    C104     C        0.78550    0.21320    0.82360    1.000
    H68      H        0.82490    0.18520    0.84500    1.000
    C105     C        0.22250    0.98370    0.31840    1.000
    H69      H        0.19810    0.96020    0.33660    1.000
    C106     C        0.55640    0.11540    0.62220    1.000
    H70      H        0.57540    0.11760    0.66240    1.000
    C107     C        0.69780    0.30040    0.81740    1.000
    H71      H        0.67510    0.33120    0.83390    1.000
    C108     C        0.67250    0.29030    0.75770    1.000
    H72      H        0.63320    0.31760    0.73480    1.000
    N25      N        0.06050    0.11850    0.08980    1.000
    N26      N        0.70480    0.46950    0.08400    1.000
    N27      N        0.69990    0.24530    0.73130    1.000
    N28      N        0.84800    0.23450    0.94310    1.000
    N29      N        0.85250    0.29040    0.02960    1.000
    N30      N        0.76270    0.32290    0.93950    1.000
    N31      N        0.58720    0.15570    0.59490    1.000
    N32      N        0.22050    0.81250    0.57950    1.000
    N33      N        0.22470    0.02970    0.23070    1.000
    N34      N        0.37750    0.03720    0.44370    1.000
    N35      N        0.37520    0.98690    0.52930    1.000
    N36      N        0.28970    0.95080    0.43760    1.000
    Ag7      Ag       0.65576    0.54367    0.13335    1.000
    Ag8      Ag       0.17856    0.74312    0.63378    1.000
    C109     C        0.90250    0.52820    0.50140    1.000
    C110     C        0.72370    0.36170    0.49270    1.000
    H73      H        0.70300    0.36540    0.45250    1.000
    C111     C        0.44040    0.69970    0.03260    1.000
    C112     C        0.20250    0.91720    0.99670    1.000
    H74      H        0.18070    0.91410    0.95660    1.000
    C113     C        0.37700    0.74450    0.00020    1.000
    C114     C        0.46740    0.69020    0.09120    1.000
    H75      H        0.44590    0.71140    0.11260    1.000
    C115     C        0.99700    0.61470    0.50600    1.000
    H76      H        0.97760    0.61600    0.46570    1.000
    C116     C        0.05660    0.65510    0.53780    1.000
    H77      H        0.07620    0.68360    0.51760    1.000
    C117     C        0.25720    0.76320    0.85100    1.000
    C118     C        0.81860    0.44760    0.49540    1.000
    C119     C        0.78030    0.34710    0.61000    1.000
    H78      H        0.79980    0.34240    0.65010    1.000
    C120     C        0.96720    0.57260    0.53530    1.000
    C121     C        0.26500    0.87910    0.02770    1.000
    C122     C        0.82140    0.54420    0.32100    1.000
    H79      H        0.86540    0.56210    0.34130    1.000
    C123     C        0.29060    0.77430    0.91470    1.000
    C124     C        0.78800    0.50800    0.35010    1.000
    C125     C        0.78580    0.39900    0.52450    1.000
    C126     C        0.47470    0.66630    0.00300    1.000
    H80      H        0.45790    0.67120    0.96300    1.000
    C127     C        0.26440    0.93530    0.11300    1.000
    H81      H        0.28560    0.94160    0.15290    1.000
    C128     C        0.29610    0.89100    0.08650    1.000
    H82      H        0.33840    0.86910    0.10820    1.000
    C129     C        0.29550    0.82830    0.99750    1.000
    C130     C        0.82010    0.49790    0.41430    1.000
    C131     C        0.69380    0.31940    0.52220    1.000
    H83      H        0.65280    0.29450    0.50080    1.000
    C132     C        0.81450    0.39000    0.58360    1.000
    H84      H        0.85640    0.41230    0.60590    1.000
    C133     C        0.17530    0.95860    0.02730    1.000
    H85      H        0.13280    0.98090    0.00700    1.000
    C134     C        0.53270    0.62690    0.03290    1.000
    H86      H        0.55460    0.60410    0.01230    1.000
    C135     C        0.52740    0.64850    0.11860    1.000
    H87      H        0.54510    0.64140    0.15850    1.000
    C136     C        0.69390    0.49490    0.25970    1.000
    H88      H        0.65010    0.47700    0.23870    1.000
    C137     C        0.99890    0.57110    0.59510    1.000
    H89      H        0.98170    0.54090    0.61640    1.000
    C138     C        0.78920    0.55350    0.26220    1.000
    H90      H        0.81250    0.57720    0.24300    1.000
    C139     C        0.25430    0.70620    0.76520    1.000
    H91      H        0.27290    0.67100    0.74770    1.000
    C140     C        0.28550    0.71320    0.82360    1.000
    H92      H        0.32490    0.68520    0.84500    1.000
    C141     C        0.72250    0.48370    0.31840    1.000
    H93      H        0.69810    0.46020    0.33660    1.000
    C142     C        0.05640    0.61540    0.62220    1.000
    H94      H        0.07540    0.61760    0.66240    1.000
    C143     C        0.19780    0.80040    0.81740    1.000
    H95      H        0.17510    0.83120    0.83390    1.000
    C144     C        0.17250    0.79030    0.75770    1.000
    H96      H        0.13320    0.81760    0.73480    1.000
    N37      N        0.56050    0.61850    0.08980    1.000
    N38      N        0.20480    0.96950    0.08400    1.000
    N39      N        0.19990    0.74530    0.73130    1.000
    N40      N        0.34800    0.73450    0.94310    1.000
    N41      N        0.35250    0.79040    0.02960    1.000
    N42      N        0.26270    0.82290    0.93950    1.000
    N43      N        0.08720    0.65570    0.59490    1.000
    N44      N        0.72050    0.31250    0.57950    1.000
    N45      N        0.72470    0.52970    0.23070    1.000
    N46      N        0.87750    0.53720    0.44370    1.000
    N47      N        0.87520    0.48690    0.52930    1.000
    N48      N        0.78970    0.45080    0.43760    1.000
    Ag9      Ag       0.15576    0.95633    0.63335    1.000
    Ag10     Ag       0.67856    0.75688    0.13378    1.000
    C145     C        0.40250    0.97180    0.00140    1.000
    C146     C        0.22370    0.13830    0.99270    1.000
    H97      H        0.20300    0.13460    0.95250    1.000
    C147     C        0.94040    0.80030    0.53260    1.000
    C148     C        0.70250    0.58280    0.49670    1.000
    H98      H        0.68070    0.58590    0.45660    1.000
    C149     C        0.87700    0.75550    0.50020    1.000
    C150     C        0.96740    0.80980    0.59120    1.000
    H99      H        0.94590    0.78860    0.61260    1.000
    C151     C        0.49700    0.88530    0.00600    1.000
    H100     H        0.47760    0.88400    0.96570    1.000
    C152     C        0.55660    0.84490    0.03780    1.000
    H101     H        0.57620    0.81640    0.01760    1.000
    C153     C        0.75720    0.73680    0.35100    1.000
    C154     C        0.31860    0.05240    0.99540    1.000
    C155     C        0.28030    0.15290    0.11000    1.000
    H102     H        0.29980    0.15760    0.15010    1.000
    C156     C        0.46720    0.92740    0.03530    1.000
    C157     C        0.76500    0.62090    0.52770    1.000
    C158     C        0.32140    0.95580    0.82100    1.000
    H103     H        0.36540    0.93790    0.84130    1.000
    C159     C        0.79060    0.72570    0.41470    1.000
    C160     C        0.28800    0.99200    0.85010    1.000
    C161     C        0.28580    0.10100    0.02450    1.000
    C162     C        0.97470    0.83370    0.50300    1.000
    H104     H        0.95790    0.82880    0.46300    1.000
    C163     C        0.76440    0.56470    0.61300    1.000
    H105     H        0.78560    0.55840    0.65290    1.000
    C164     C        0.79610    0.60900    0.58650    1.000
    H106     H        0.83840    0.63090    0.60820    1.000
    C165     C        0.79550    0.67170    0.49750    1.000
    C166     C        0.32010    0.00210    0.91430    1.000
    C167     C        0.19380    0.18060    0.02220    1.000
    H107     H        0.15280    0.20550    0.00080    1.000
    C168     C        0.31450    0.11000    0.08360    1.000
    H108     H        0.35640    0.08770    0.10590    1.000
    C169     C        0.67530    0.54140    0.52730    1.000
    H109     H        0.63280    0.51910    0.50700    1.000
    C170     C        0.03270    0.87310    0.53290    1.000
    H110     H        0.05460    0.89590    0.51230    1.000
    C171     C        0.02740    0.85150    0.61860    1.000
    H111     H        0.04510    0.85860    0.65850    1.000
    C172     C        0.19390    0.00510    0.75970    1.000
    H112     H        0.15010    0.02300    0.73870    1.000
    C173     C        0.49890    0.92890    0.09510    1.000
    H113     H        0.48170    0.95910    0.11640    1.000
    C174     C        0.28920    0.94650    0.76220    1.000
    H114     H        0.31250    0.92280    0.74300    1.000
    C175     C        0.75430    0.79380    0.26520    1.000
    H115     H        0.77290    0.82900    0.24770    1.000
    C176     C        0.78550    0.78680    0.32360    1.000
    H116     H        0.82490    0.81480    0.34500    1.000
    C177     C        0.22250    0.01630    0.81840    1.000
    H117     H        0.19810    0.03980    0.83660    1.000
    C178     C        0.55640    0.88460    0.12220    1.000
    H118     H        0.57540    0.88240    0.16240    1.000
    C179     C        0.69780    0.69960    0.31740    1.000
    H119     H        0.67510    0.66880    0.33390    1.000
    C180     C        0.67250    0.70970    0.25770    1.000
    H120     H        0.63320    0.68240    0.23480    1.000
    N49      N        0.06050    0.88150    0.58980    1.000
    N50      N        0.70480    0.53050    0.58400    1.000
    N51      N        0.69990    0.75470    0.23130    1.000
    N52      N        0.84800    0.76550    0.44310    1.000
    N53      N        0.85250    0.70960    0.52960    1.000
    N54      N        0.76270    0.67710    0.43950    1.000
    N55      N        0.58720    0.84430    0.09490    1.000
    N56      N        0.22050    0.18750    0.07950    1.000
    N57      N        0.22470    0.97030    0.73070    1.000
    N58      N        0.37750    0.96280    0.94370    1.000
    N59      N        0.37520    0.01310    0.02930    1.000
    N60      N        0.28970    0.04920    0.93760    1.000
    Ag11     Ag       0.65576    0.45633    0.63335    1.000
    Ag12     Ag       0.17856    0.25688    0.13378    1.000
    C181     C        0.90250    0.47180    0.00140    1.000
    C182     C        0.72370    0.63830    0.99270    1.000
    H121     H        0.70300    0.63460    0.95250    1.000
    C183     C        0.44040    0.30030    0.53260    1.000
    C184     C        0.20250    0.08280    0.49670    1.000
    H122     H        0.18070    0.08590    0.45660    1.000
    C185     C        0.37700    0.25550    0.50020    1.000
    C186     C        0.46740    0.30980    0.59120    1.000
    H123     H        0.44590    0.28860    0.61260    1.000
    C187     C        0.99700    0.38530    0.00600    1.000
    H124     H        0.97760    0.38400    0.96570    1.000
    C188     C        0.05660    0.34490    0.03780    1.000
    H125     H        0.07620    0.31640    0.01760    1.000
    C189     C        0.25720    0.23680    0.35100    1.000
    C190     C        0.81860    0.55240    0.99540    1.000
    C191     C        0.78030    0.65290    0.11000    1.000
    H126     H        0.79980    0.65760    0.15010    1.000
    C192     C        0.96720    0.42740    0.03530    1.000
    C193     C        0.26500    0.12090    0.52770    1.000
    C194     C        0.82140    0.45580    0.82100    1.000
    H127     H        0.86540    0.43790    0.84130    1.000
    C195     C        0.29060    0.22570    0.41470    1.000
    C196     C        0.78800    0.49200    0.85010    1.000
    C197     C        0.78580    0.60100    0.02450    1.000
    C198     C        0.47470    0.33370    0.50300    1.000
    H128     H        0.45790    0.32880    0.46300    1.000
    C199     C        0.26440    0.06470    0.61300    1.000
    H129     H        0.28560    0.05840    0.65290    1.000
    C200     C        0.29610    0.10900    0.58650    1.000
    H130     H        0.33840    0.13090    0.60820    1.000
    C201     C        0.29550    0.17170    0.49750    1.000
    C202     C        0.82010    0.50210    0.91430    1.000
    C203     C        0.69380    0.68060    0.02220    1.000
    H131     H        0.65280    0.70550    0.00080    1.000
    C204     C        0.81450    0.61000    0.08360    1.000
    H132     H        0.85640    0.58770    0.10590    1.000
    C205     C        0.17530    0.04140    0.52730    1.000
    H133     H        0.13280    0.01910    0.50700    1.000
    C206     C        0.53270    0.37310    0.53290    1.000
    H134     H        0.55460    0.39590    0.51230    1.000
    C207     C        0.52740    0.35150    0.61860    1.000
    H135     H        0.54510    0.35860    0.65850    1.000
    C208     C        0.69390    0.50510    0.75970    1.000
    H136     H        0.65010    0.52300    0.73870    1.000
    C209     C        0.99890    0.42890    0.09510    1.000
    H137     H        0.98170    0.45910    0.11640    1.000
    C210     C        0.78920    0.44650    0.76220    1.000
    H138     H        0.81250    0.42280    0.74300    1.000
    C211     C        0.25430    0.29380    0.26520    1.000
    H139     H        0.27290    0.32900    0.24770    1.000
    C212     C        0.28550    0.28680    0.32360    1.000
    H140     H        0.32490    0.31480    0.34500    1.000
    C213     C        0.72250    0.51630    0.81840    1.000
    H141     H        0.69810    0.53980    0.83660    1.000
    C214     C        0.05640    0.38460    0.12220    1.000
    H142     H        0.07540    0.38240    0.16240    1.000
    C215     C        0.19780    0.19960    0.31740    1.000
    H143     H        0.17510    0.16880    0.33390    1.000
    C216     C        0.17250    0.20970    0.25770    1.000
    H144     H        0.13320    0.18240    0.23480    1.000
    N61      N        0.56050    0.38150    0.58980    1.000
    N62      N        0.20480    0.03050    0.58400    1.000
    N63      N        0.19990    0.25470    0.23130    1.000
    N64      N        0.34800    0.26550    0.44310    1.000
    N65      N        0.35250    0.20960    0.52960    1.000
    N66      N        0.26270    0.17710    0.43950    1.000
    N67      N        0.08720    0.34430    0.09490    1.000
    N68      N        0.72050    0.68750    0.07950    1.000
    N69      N        0.72470    0.47030    0.73070    1.000
    N70      N        0.87750    0.46280    0.94370    1.000
    N71      N        0.87520    0.51310    0.02930    1.000
    N72      N        0.78970    0.54920    0.93760    1.000
    Ag13     Ag       0.84424    0.95633    0.86665    1.000
    Ag14     Ag       0.32144    0.75688    0.36622    1.000
    C217     C        0.59750    0.97180    0.49860    1.000
    C218     C        0.77630    0.13830    0.50730    1.000
    H145     H        0.79700    0.13460    0.54750    1.000
    C219     C        0.05960    0.80030    0.96740    1.000
    C220     C        0.29750    0.58280    0.00330    1.000
    H146     H        0.31930    0.58590    0.04340    1.000
    C221     C        0.12300    0.75550    0.99980    1.000
    C222     C        0.03260    0.80980    0.90880    1.000
    H147     H        0.05410    0.78860    0.88740    1.000
    C223     C        0.50300    0.88530    0.49400    1.000
    H148     H        0.52240    0.88400    0.53430    1.000
    C224     C        0.44340    0.84490    0.46220    1.000
    H149     H        0.42380    0.81640    0.48240    1.000
    C225     C        0.24280    0.73680    0.14900    1.000
    C226     C        0.68140    0.05240    0.50460    1.000
    C227     C        0.71970    0.15290    0.39000    1.000
    H150     H        0.70020    0.15760    0.34990    1.000
    C228     C        0.53280    0.92740    0.46470    1.000
    C229     C        0.23500    0.62090    0.97230    1.000
    C230     C        0.67860    0.95580    0.67900    1.000
    H151     H        0.63460    0.93790    0.65870    1.000
    C231     C        0.20940    0.72570    0.08530    1.000
    C232     C        0.71200    0.99200    0.64990    1.000
    C233     C        0.71420    0.10100    0.47550    1.000
    C234     C        0.02530    0.83370    0.99700    1.000
    H152     H        0.04210    0.82880    0.03700    1.000
    C235     C        0.23560    0.56470    0.88700    1.000
    H153     H        0.21440    0.55840    0.84710    1.000
    C236     C        0.20390    0.60900    0.91350    1.000
    H154     H        0.16160    0.63090    0.89180    1.000
    C237     C        0.20450    0.67170    0.00250    1.000
    C238     C        0.67990    0.00210    0.58570    1.000
    C239     C        0.80620    0.18060    0.47780    1.000
    H155     H        0.84720    0.20550    0.49920    1.000
    C240     C        0.68550    0.11000    0.41640    1.000
    H156     H        0.64360    0.08770    0.39410    1.000
    C241     C        0.32470    0.54140    0.97270    1.000
    H157     H        0.36720    0.51910    0.99300    1.000
    C242     C        0.96730    0.87310    0.96710    1.000
    H158     H        0.94540    0.89590    0.98770    1.000
    C243     C        0.97260    0.85150    0.88140    1.000
    H159     H        0.95490    0.85860    0.84150    1.000
    C244     C        0.80610    0.00510    0.74030    1.000
    H160     H        0.84990    0.02300    0.76130    1.000
    C245     C        0.50110    0.92890    0.40490    1.000
    H161     H        0.51830    0.95910    0.38360    1.000
    C246     C        0.71080    0.94650    0.73780    1.000
    H162     H        0.68750    0.92280    0.75700    1.000
    C247     C        0.24570    0.79380    0.23480    1.000
    H163     H        0.22710    0.82900    0.25230    1.000
    C248     C        0.21450    0.78680    0.17640    1.000
    H164     H        0.17510    0.81480    0.15500    1.000
    C249     C        0.77750    0.01630    0.68160    1.000
    H165     H        0.80190    0.03980    0.66340    1.000
    C250     C        0.44360    0.88460    0.37780    1.000
    H166     H        0.42460    0.88240    0.33760    1.000
    C251     C        0.30220    0.69960    0.18260    1.000
    H167     H        0.32490    0.66880    0.16610    1.000
    C252     C        0.32750    0.70970    0.24230    1.000
    H168     H        0.36680    0.68240    0.26520    1.000
    N73      N        0.93950    0.88150    0.91020    1.000
    N74      N        0.29520    0.53050    0.91600    1.000
    N75      N        0.30010    0.75470    0.26870    1.000
    N76      N        0.15200    0.76550    0.05690    1.000
    N77      N        0.14750    0.70960    0.97040    1.000
    N78      N        0.23730    0.67710    0.06050    1.000
    N79      N        0.41280    0.84430    0.40510    1.000
    N80      N        0.77950    0.18750    0.42050    1.000
    N81      N        0.77530    0.97030    0.76930    1.000
    N82      N        0.62250    0.96280    0.55630    1.000
    N83      N        0.62480    0.01310    0.47070    1.000
    N84      N        0.71030    0.04920    0.56240    1.000
    Ag15     Ag       0.34424    0.45633    0.86665    1.000
    Ag16     Ag       0.82144    0.25688    0.36622    1.000
    C253     C        0.09750    0.47180    0.49860    1.000
    C254     C        0.27630    0.63830    0.50730    1.000
    H169     H        0.29700    0.63460    0.54750    1.000
    C255     C        0.55960    0.30030    0.96740    1.000
    C256     C        0.79750    0.08280    0.00330    1.000
    H170     H        0.81930    0.08590    0.04340    1.000
    C257     C        0.62300    0.25550    0.99980    1.000
    C258     C        0.53260    0.30980    0.90880    1.000
    H171     H        0.55410    0.28860    0.88740    1.000
    C259     C        0.00300    0.38530    0.49400    1.000
    H172     H        0.02240    0.38400    0.53430    1.000
    C260     C        0.94340    0.34490    0.46220    1.000
    H173     H        0.92380    0.31640    0.48240    1.000
    C261     C        0.74280    0.23680    0.14900    1.000
    C262     C        0.18140    0.55240    0.50460    1.000
    C263     C        0.21970    0.65290    0.39000    1.000
    H174     H        0.20020    0.65760    0.34990    1.000
    C264     C        0.03280    0.42740    0.46470    1.000
    C265     C        0.73500    0.12090    0.97230    1.000
    C266     C        0.17860    0.45580    0.67900    1.000
    H175     H        0.13460    0.43790    0.65870    1.000
    C267     C        0.70940    0.22570    0.08530    1.000
    C268     C        0.21200    0.49200    0.64990    1.000
    C269     C        0.21420    0.60100    0.47550    1.000
    C270     C        0.52530    0.33370    0.99700    1.000
    H176     H        0.54210    0.32880    0.03700    1.000
    C271     C        0.73560    0.06470    0.88700    1.000
    H177     H        0.71440    0.05840    0.84710    1.000
    C272     C        0.70390    0.10900    0.91350    1.000
    H178     H        0.66160    0.13090    0.89180    1.000
    C273     C        0.70450    0.17170    0.00250    1.000
    C274     C        0.17990    0.50210    0.58570    1.000
    C275     C        0.30620    0.68060    0.47780    1.000
    H179     H        0.34720    0.70550    0.49920    1.000
    C276     C        0.18550    0.61000    0.41640    1.000
    H180     H        0.14360    0.58770    0.39410    1.000
    C277     C        0.82470    0.04140    0.97270    1.000
    H181     H        0.86720    0.01910    0.99300    1.000
    C278     C        0.46730    0.37310    0.96710    1.000
    H182     H        0.44540    0.39590    0.98770    1.000
    C279     C        0.47260    0.35150    0.88140    1.000
    H183     H        0.45490    0.35860    0.84150    1.000
    C280     C        0.30610    0.50510    0.74030    1.000
    H184     H        0.34990    0.52300    0.76130    1.000
    C281     C        0.00110    0.42890    0.40490    1.000
    H185     H        0.01830    0.45910    0.38360    1.000
    C282     C        0.21080    0.44650    0.73780    1.000
    H186     H        0.18750    0.42280    0.75700    1.000
    C283     C        0.74570    0.29380    0.23480    1.000
    H187     H        0.72710    0.32900    0.25230    1.000
    C284     C        0.71450    0.28680    0.17640    1.000
    H188     H        0.67510    0.31480    0.15500    1.000
    C285     C        0.27750    0.51630    0.68160    1.000
    H189     H        0.30190    0.53980    0.66340    1.000
    C286     C        0.94360    0.38460    0.37780    1.000
    H190     H        0.92460    0.38240    0.33760    1.000
    C287     C        0.80220    0.19960    0.18260    1.000
    H191     H        0.82490    0.16880    0.16610    1.000
    C288     C        0.82750    0.20970    0.24230    1.000
    H192     H        0.86680    0.18240    0.26520    1.000
    N85      N        0.43950    0.38150    0.91020    1.000
    N86      N        0.79520    0.03050    0.91600    1.000
    N87      N        0.80010    0.25470    0.26870    1.000
    N88      N        0.65200    0.26550    0.05690    1.000
    N89      N        0.64750    0.20960    0.97040    1.000
    N90      N        0.73730    0.17710    0.06050    1.000
    N91      N        0.91280    0.34430    0.40510    1.000
    N92      N        0.27950    0.68750    0.42050    1.000
    N93      N        0.27530    0.47030    0.76930    1.000
    N94      N        0.12250    0.46280    0.55630    1.000
    N95      N        0.12480    0.51310    0.47070    1.000
    N96      N        0.21030    0.54920    0.56240    1.000
