# CIF file generated by openbabel 3.1.0, see https://openbabel.org
data_I
_chemical_name_common 'image0'
_cell_length_a 24.349
_cell_length_b 9.2334
_cell_length_c 16.959
_cell_angle_alpha 90
_cell_angle_beta 119.41
_cell_angle_gamma 90
_space_group_name_H-M_alt 'P 1'
_space_group_name_Hall 'P 1'
loop_
    _symmetry_equiv_pos_as_xyz
    x,y,z
loop_
    _atom_site_label
    _atom_site_type_symbol
    _atom_site_fract_x
    _atom_site_fract_y
    _atom_site_fract_z
    _atom_site_occupancy
    Cu1      Cu       0.15336    0.67062    0.32335    1.000
    Cu2      Cu       0.14800    0.89651    0.64849    1.000
    Cu3      Cu       0.06310    0.68569    0.72744    1.000
    Cu4      Cu       0.06379    0.87942    0.39709    1.000
    N1       N        0.19260    0.73870    0.45790    1.000
    N2       N        0.24930    0.71630    0.52890    1.000
    N3       N        0.18950    0.82700    0.57350    1.000
    N4       N        0.15580    0.80650    0.48370    1.000
    N5       N        0.18720    0.71890    0.73430    1.000
    N6       N        0.15450    0.62980    0.75950    1.000
    N7       N        0.19020    0.52250    0.80850    1.000
    N8       N        0.24900    0.53970    0.81970    1.000
    N9       N        0.46890    0.80450    0.02320    1.000
    N10      N        0.52580    0.76640    0.09330    1.000
    N11      N        0.55810    0.69170    0.06450    1.000
    N12      N        0.52410    0.67910    0.97320    1.000
    N13      N        0.52820    0.80420    0.81940    1.000
    N14      N        0.56360    0.89000    0.79930    1.000
    N15      N        0.52780    0.00030    0.75040    1.000
    N16      N        0.47050    0.98860    0.73930    1.000
    N17      N        0.05720    0.15530    0.29680    1.000
    N18      N        0.15230    0.17900    0.74250    1.000
    C1       C        0.24630    0.77070    0.59930    1.000
    C2       C        0.30180    0.77140    0.69260    1.000
    C3       C        0.35810    0.81580    0.70120    1.000
    H1       H        0.35830    0.85040    0.64990    1.000
    C4       C        0.41440    0.81240    0.78130    1.000
    C5       C        0.41450    0.75940    0.85930    1.000
    C6       C        0.35670    0.71830    0.85200    1.000
    H2       H        0.35600    0.68870    0.90390    1.000
    C7       C        0.29970    0.72020    0.76910    1.000
    C8       C        0.24480    0.66100    0.77310    1.000
    C9       C        0.47080    0.75120    0.95160    1.000
    C10      C        0.47090    0.86770    0.78240    1.000
    C11      C        0.05700    0.05380    0.33620    1.000
    C12      C        0.15130    0.07760    0.70230    1.000
    Cu5      Cu       0.65336    0.17062    0.32335    1.000
    Cu6      Cu       0.64800    0.39651    0.64849    1.000
    Cu7      Cu       0.56310    0.18569    0.72744    1.000
    Cu8      Cu       0.56379    0.37942    0.39709    1.000
    N19      N        0.69260    0.23870    0.45790    1.000
    N20      N        0.74930    0.21630    0.52890    1.000
    N21      N        0.68950    0.32700    0.57350    1.000
    N22      N        0.65580    0.30650    0.48370    1.000
    N23      N        0.68720    0.21890    0.73430    1.000
    N24      N        0.65450    0.12980    0.75950    1.000
    N25      N        0.69020    0.02250    0.80850    1.000
    N26      N        0.74900    0.03970    0.81970    1.000
    N27      N        0.96890    0.30450    0.02320    1.000
    N28      N        0.02580    0.26640    0.09330    1.000
    N29      N        0.05810    0.19170    0.06450    1.000
    N30      N        0.02410    0.17910    0.97320    1.000
    N31      N        0.02820    0.30420    0.81940    1.000
    N32      N        0.06360    0.39000    0.79930    1.000
    N33      N        0.02780    0.50030    0.75040    1.000
    N34      N        0.97050    0.48860    0.73930    1.000
    N35      N        0.55720    0.65530    0.29680    1.000
    N36      N        0.65230    0.67900    0.74250    1.000
    C13      C        0.74630    0.27070    0.59930    1.000
    C14      C        0.80180    0.27140    0.69260    1.000
    C15      C        0.85810    0.31580    0.70120    1.000
    H3       H        0.85830    0.35040    0.64990    1.000
    C16      C        0.91440    0.31240    0.78130    1.000
    C17      C        0.91450    0.25940    0.85930    1.000
    C18      C        0.85670    0.21830    0.85200    1.000
    H4       H        0.85600    0.18870    0.90390    1.000
    C19      C        0.79970    0.22020    0.76910    1.000
    C20      C        0.74480    0.16100    0.77310    1.000
    C21      C        0.97080    0.25120    0.95160    1.000
    C22      C        0.97090    0.36770    0.78240    1.000
    C23      C        0.55700    0.55380    0.33620    1.000
    C24      C        0.65130    0.57760    0.70230    1.000
    Cu9      Cu       0.15336    0.32938    0.82335    1.000
    Cu10     Cu       0.14800    0.10349    0.14849    1.000
    Cu11     Cu       0.06310    0.31431    0.22744    1.000
    Cu12     Cu       0.06379    0.12058    0.89709    1.000
    N37      N        0.19260    0.26130    0.95790    1.000
    N38      N        0.24930    0.28370    0.02890    1.000
    N39      N        0.18950    0.17300    0.07350    1.000
    N40      N        0.15580    0.19350    0.98370    1.000
    N41      N        0.18720    0.28110    0.23430    1.000
    N42      N        0.15450    0.37020    0.25950    1.000
    N43      N        0.19020    0.47750    0.30850    1.000
    N44      N        0.24900    0.46030    0.31970    1.000
    N45      N        0.46890    0.19550    0.52320    1.000
    N46      N        0.52580    0.23360    0.59330    1.000
    N47      N        0.55810    0.30830    0.56450    1.000
    N48      N        0.52410    0.32090    0.47320    1.000
    N49      N        0.52820    0.19580    0.31940    1.000
    N50      N        0.56360    0.11000    0.29930    1.000
    N51      N        0.52780    0.99970    0.25040    1.000
    N52      N        0.47050    0.01140    0.23930    1.000
    N53      N        0.05720    0.84470    0.79680    1.000
    N54      N        0.15230    0.82100    0.24250    1.000
    C25      C        0.24630    0.22930    0.09930    1.000
    C26      C        0.30180    0.22860    0.19260    1.000
    C27      C        0.35810    0.18420    0.20120    1.000
    H5       H        0.35830    0.14960    0.14990    1.000
    C28      C        0.41440    0.18760    0.28130    1.000
    C29      C        0.41450    0.24060    0.35930    1.000
    C30      C        0.35670    0.28170    0.35200    1.000
    H6       H        0.35600    0.31130    0.40390    1.000
    C31      C        0.29970    0.27980    0.26910    1.000
    C32      C        0.24480    0.33900    0.27310    1.000
    C33      C        0.47080    0.24880    0.45160    1.000
    C34      C        0.47090    0.13230    0.28240    1.000
    C35      C        0.05700    0.94620    0.83620    1.000
    C36      C        0.15130    0.92240    0.20230    1.000
    Cu13     Cu       0.65336    0.82938    0.82335    1.000
    Cu14     Cu       0.64800    0.60349    0.14849    1.000
    Cu15     Cu       0.56310    0.81431    0.22744    1.000
    Cu16     Cu       0.56379    0.62058    0.89709    1.000
    N55      N        0.69260    0.76130    0.95790    1.000
    N56      N        0.74930    0.78370    0.02890    1.000
    N57      N        0.68950    0.67300    0.07350    1.000
    N58      N        0.65580    0.69350    0.98370    1.000
    N59      N        0.68720    0.78110    0.23430    1.000
    N60      N        0.65450    0.87020    0.25950    1.000
    N61      N        0.69020    0.97750    0.30850    1.000
    N62      N        0.74900    0.96030    0.31970    1.000
    N63      N        0.96890    0.69550    0.52320    1.000
    N64      N        0.02580    0.73360    0.59330    1.000
    N65      N        0.05810    0.80830    0.56450    1.000
    N66      N        0.02410    0.82090    0.47320    1.000
    N67      N        0.02820    0.69580    0.31940    1.000
    N68      N        0.06360    0.61000    0.29930    1.000
    N69      N        0.02780    0.49970    0.25040    1.000
    N70      N        0.97050    0.51140    0.23930    1.000
    N71      N        0.55720    0.34470    0.79680    1.000
    N72      N        0.65230    0.32100    0.24250    1.000
    C37      C        0.74630    0.72930    0.09930    1.000
    C38      C        0.80180    0.72860    0.19260    1.000
    C39      C        0.85810    0.68420    0.20120    1.000
    H7       H        0.85830    0.64960    0.14990    1.000
    C40      C        0.91440    0.68760    0.28130    1.000
    C41      C        0.91450    0.74060    0.35930    1.000
    C42      C        0.85670    0.78170    0.35200    1.000
    H8       H        0.85600    0.81130    0.40390    1.000
    C43      C        0.79970    0.77980    0.26910    1.000
    C44      C        0.74480    0.83900    0.27310    1.000
    C45      C        0.97080    0.74880    0.45160    1.000
    C46      C        0.97090    0.63230    0.28240    1.000
    C47      C        0.55700    0.44620    0.83620    1.000
    C48      C        0.65130    0.42240    0.20230    1.000
