data_functionalizedCrystal
_audit_creation_method	'EQeq! by Chris Wilmer'
_symmetry_space_group_name_H-M	'P1'
_symmetry_Int_Tables_number	1
_symmetry_cell_setting	triclinic
loop_
_symmetry_equiv_pos_as_xyz
  x,y,z
_cell_length_a	14.9347
_cell_length_b	16.0248
_cell_length_c	27.3
_cell_angle_alpha	90
_cell_angle_beta	105.065
_cell_angle_gamma	90
loop_
_atom_site_label
_atom_site_type_symbol
_atom_site_fract_x
_atom_site_fract_y
_atom_site_fract_z
_atom_site_charge
Mof_W 	W 	0.56363	0.22044	0.4527	0.976
Mof_W 	W 	0.75348	0.27917	0.39377	0.999
Mof_W 	W 	0.587	0.23003	0.57755	1.038
Mof_W 	W 	0.93533	0.36768	0.47687	1.331
Mof_W 	W 	0.90141	0.15772	0.47773	0.987
Mof_W 	W 	0.9594	0.37825	0.61179	1.004
Mof_W 	W 	0.80369	0.30095	0.66957	1.018
Mof_W 	W 	0.70958	0.08987	0.53031	0.962
Mof_W 	W 	0.92488	0.16768	0.61635	0.989
Mof_W 	W 	0.5949	0.43735	0.4201	1.373
Mof_W 	W 	0.37131	0.54845	0.39537	1.377
Mof_Eu	Eu	0.80183	0.56471	0.52599	1.855
Mof_Eu	Eu	0.65031	0.7139	0.25827	1.419
Mof_As	As	0.75867	0.32037	0.52897	0.412
Mof_P 	P 	0.5222	0.5648	0.32354	0.461
Mof_P 	P 	0.4158	0.4079	0.31754	0.442
Mof_O 	O 	0.6885	0.3809	0.3975	-0.486
Mof_O 	O 	0.9104	0.3631	0.6725	-0.474
Mof_O 	O 	0.8213	0.2834	0.4851	-0.383
Mof_O 	O 	0.5009	0.3744	0.3578	-0.392
Mof_O 	O 	0.9392	0.1579	0.5495	-0.475
Mof_O 	O 	0.3513	0.4569	0.3427	-0.419
Mof_O 	O 	0.4852	0.4941	0.4251	-0.52
Mof_O 	O 	0.6171	0.1187	0.5702	-0.449
Mof_O 	O 	0.4017	0.6491	0.4288	-0.482
Mof_O 	O 	0.8644	0.3418	0.4066	-0.483
Mof_O 	O 	0.8382	0.2923	0.5875	-0.356
Mof_O 	O 	0.8689	0.4538	0.484	-0.578
Mof_O 	O 	0.4487	0.604	0.346	-0.379
Mof_O 	O 	0.8697	0.2	0.6696	-0.473
Mof_O 	O 	0.9789	0.2427	0.4726	-0.484
Mof_O 	O 	0.7886	0.1046	0.489	-0.451
Mof_O 	O 	0.511	0.2333	0.5104	-0.47
Mof_O 	O 	0.6865	0.2305	0.5257	-0.356
Mof_O 	O 	0.982	0.3512	0.5476	-0.509
Mof_O 	O 	0.5756	0.3429	0.4549	-0.482
Mof_O 	O 	0.6541	0.2277	0.4153	-0.455
Mof_O 	O 	0.5983	0.52	0.3646	-0.408
Mof_O 	O 	0.8224	0.1788	0.4116	-0.469
Mof_O 	O 	0.0053	0.2541	0.6304	-0.47
Mof_O 	O 	0.8052	0.1122	0.5874	-0.456
Mof_O 	O 	0.3628	0.3414	0.2837	-0.495
Mof_O 	O 	0.2668	0.5996	0.3517	-0.492
Mof_O 	O 	0.6721	0.492	0.4668	-0.593
Mof_O 	O 	0.8858	0.4595	0.5874	-0.542
Mof_O 	O 	0.695	0.246	0.6321	-0.455
Mof_O 	O 	0.0342	0.408	0.4623	-0.625
Mof_O 	O 	0.3087	0.5012	0.4323	-0.593
Mof_O 	O 	0.5646	0.6255	0.295	-0.478
Mof_O 	O 	0.5983	0.1115	0.4718	-0.449
Mof_O 	O 	0.5257	0.4423	0.2576	-0.416
Mof_H 	H 	0.5005	0.404	0.2391	0.232
Mof_C 	C 	0.4594	0.4819	0.2797	0.106
Mof_C 	C 	0.384	0.521	0.2428	-0.532
Mof_H 	H 	0.3422	0.5463	0.2599	0.169
Mof_H 	H 	0.4082	0.563	0.2247	0.159
Mof_H 	H 	0.3514	0.4797	0.2194	0.168
Mof_O 	O 	0.617	0.788	0.323	-0.314
Mof_O 	O 	0.56	0.812	0.305	-0.132
Mof_W 	W 	0.43637	0.72044	0.0473	0.974
Mof_W 	W 	0.24652	0.77917	0.10623	0.998
Mof_W 	W 	0.413	0.73003	0.92245	1.039
Mof_W 	W 	0.06467	0.86768	0.02313	1.331
Mof_W 	W 	0.09859	0.65772	0.02227	0.987
Mof_W 	W 	0.0406	0.87825	0.88821	1.004
Mof_W 	W 	0.19631	0.80095	0.83043	1.018
Mof_W 	W 	0.29042	0.58987	0.96969	0.963
Mof_W 	W 	0.07512	0.66768	0.88365	0.988
Mof_W 	W 	0.4051	0.93735	0.0799	1.372
Mof_W 	W 	0.62869	0.04845	0.10463	1.379
Mof_Eu	Eu	0.19817	0.06471	0.97401	1.85
Mof_Eu	Eu	0.34969	0.2139	0.24173	1.42
Mof_As	As	0.24133	0.82037	0.97103	0.413
Mof_P 	P 	0.4778	0.0648	0.17646	0.462
Mof_P 	P 	0.5842	0.9079	0.18246	0.442
Mof_O 	O 	0.3115	0.8809	0.1025	-0.486
Mof_O 	O 	0.0896	0.8631	0.8275	-0.474
Mof_O 	O 	0.1787	0.7834	0.0149	-0.384
Mof_O 	O 	0.4991	0.8744	0.1422	-0.392
Mof_O 	O 	0.0608	0.6579	0.9505	-0.475
Mof_O 	O 	0.6487	0.9569	0.1573	-0.42
Mof_O 	O 	0.5148	0.9941	0.0749	-0.521
Mof_O 	O 	0.3829	0.6187	0.9298	-0.449
Mof_O 	O 	0.5983	0.1491	0.0712	-0.482
Mof_O 	O 	0.1356	0.8418	0.0934	-0.483
Mof_O 	O 	0.1618	0.7923	0.9125	-0.356
Mof_O 	O 	0.1311	0.9538	0.016	-0.578
Mof_O 	O 	0.5513	0.104	0.154	-0.378
Mof_O 	O 	0.1303	0.7	0.8304	-0.473
Mof_O 	O 	0.0211	0.7427	0.0274	-0.484
Mof_O 	O 	0.2114	0.6046	0.011	-0.451
Mof_O 	O 	0.489	0.7333	0.9896	-0.469
Mof_O 	O 	0.3135	0.7305	0.9743	-0.355
Mof_O 	O 	0.018	0.8512	0.9524	-0.508
Mof_O 	O 	0.4244	0.8429	0.0451	-0.482
Mof_O 	O 	0.3459	0.7277	0.0847	-0.455
Mof_O 	O 	0.4017	0.02	0.1354	-0.408
Mof_O 	O 	0.1776	0.6788	0.0884	-0.469
Mof_O 	O 	0.9947	0.7541	0.8696	-0.47
Mof_O 	O 	0.1948	0.6122	0.9126	-0.456
Mof_O 	O 	0.6372	0.8414	0.2163	-0.495
Mof_O 	O 	0.7332	0.0996	0.1483	-0.492
Mof_O 	O 	0.3279	0.992	0.0332	-0.593
Mof_O 	O 	0.1142	0.9595	0.9126	-0.541
Mof_O 	O 	0.305	0.746	0.8679	-0.455
Mof_O 	O 	0.9658	0.908	0.0377	-0.626
Mof_O 	O 	0.6913	0.0012	0.0677	-0.592
Mof_O 	O 	0.4354	0.1255	0.205	-0.478
Mof_O 	O 	0.4017	0.6115	0.0282	-0.449
Mof_O 	O 	0.4743	0.9423	0.2424	-0.415
Mof_H 	H 	0.4995	0.904	0.2609	0.232
Mof_C 	C 	0.5406	0.9819	0.2203	0.102
Mof_C 	C 	0.616	0.021	0.2572	-0.521
Mof_H 	H 	0.6578	0.0463	0.2401	0.166
Mof_H 	H 	0.5918	0.063	0.2753	0.157
Mof_H 	H 	0.6486	0.9797	0.2806	0.164
Mof_O 	O 	0.383	0.288	0.177	-0.314
Mof_O 	O 	0.44	0.312	0.195	-0.133
Mof_W 	W 	0.43637	0.77956	0.5473	0.975
Mof_W 	W 	0.24652	0.72083	0.60623	0.998
Mof_W 	W 	0.413	0.76997	0.42245	1.038
Mof_W 	W 	0.06467	0.63232	0.52313	1.331
Mof_W 	W 	0.09859	0.84228	0.52227	0.987
Mof_W 	W 	0.0406	0.62175	0.38821	1.004
Mof_W 	W 	0.19631	0.69905	0.33043	1.018
Mof_W 	W 	0.29042	0.91013	0.46969	0.962
Mof_W 	W 	0.07512	0.83232	0.38365	0.989
Mof_W 	W 	0.4051	0.56265	0.5799	1.373
Mof_W 	W 	0.62869	0.45155	0.60463	1.377
Mof_Eu	Eu	0.19817	0.43529	0.47401	1.855
Mof_Eu	Eu	0.34969	0.2861	0.74173	1.419
Mof_As	As	0.24133	0.67963	0.47103	0.412
Mof_P 	P 	0.4778	0.4352	0.67646	0.461
Mof_P 	P 	0.5842	0.5921	0.68246	0.442
Mof_O 	O 	0.3115	0.6191	0.6025	-0.486
Mof_O 	O 	0.0896	0.6369	0.3275	-0.474
Mof_O 	O 	0.1787	0.7166	0.5149	-0.383
Mof_O 	O 	0.4991	0.6256	0.6422	-0.392
Mof_O 	O 	0.0608	0.8421	0.4505	-0.475
Mof_O 	O 	0.6487	0.5431	0.6573	-0.419
Mof_O 	O 	0.5148	0.5059	0.5749	-0.52
Mof_O 	O 	0.3829	0.8813	0.4298	-0.449
Mof_O 	O 	0.5983	0.3509	0.5712	-0.482
Mof_O 	O 	0.1356	0.6582	0.5934	-0.483
Mof_O 	O 	0.1618	0.7077	0.4125	-0.356
Mof_O 	O 	0.1311	0.5462	0.516	-0.578
Mof_O 	O 	0.5513	0.396	0.654	-0.379
Mof_O 	O 	0.1303	0.8	0.3304	-0.473
Mof_O 	O 	0.0211	0.7573	0.5274	-0.484
Mof_O 	O 	0.2114	0.8954	0.511	-0.451
Mof_O 	O 	0.489	0.7667	0.4896	-0.47
Mof_O 	O 	0.3135	0.7695	0.4743	-0.356
Mof_O 	O 	0.018	0.6488	0.4524	-0.509
Mof_O 	O 	0.4244	0.6571	0.5451	-0.482
Mof_O 	O 	0.3459	0.7723	0.5847	-0.455
Mof_O 	O 	0.4017	0.48	0.6354	-0.408
Mof_O 	O 	0.1776	0.8212	0.5884	-0.469
Mof_O 	O 	0.9947	0.7459	0.3696	-0.47
Mof_O 	O 	0.1948	0.8878	0.4126	-0.456
Mof_O 	O 	0.6372	0.6586	0.7163	-0.495
Mof_O 	O 	0.7332	0.4004	0.6483	-0.492
Mof_O 	O 	0.3279	0.508	0.5332	-0.593
Mof_O 	O 	0.1142	0.5405	0.4126	-0.542
Mof_O 	O 	0.305	0.754	0.3679	-0.455
Mof_O 	O 	0.9658	0.592	0.5377	-0.625
Mof_O 	O 	0.6913	0.4988	0.5677	-0.593
Mof_O 	O 	0.4354	0.3745	0.705	-0.478
Mof_O 	O 	0.4017	0.8885	0.5282	-0.449
Mof_O 	O 	0.4743	0.5577	0.7424	-0.416
Mof_H 	H 	0.4995	0.596	0.7609	0.232
Mof_C 	C 	0.5406	0.5181	0.7203	0.106
Mof_C 	C 	0.616	0.479	0.7572	-0.532
Mof_H 	H 	0.6578	0.4537	0.7401	0.169
Mof_H 	H 	0.5918	0.437	0.7753	0.159
Mof_H 	H 	0.6486	0.5203	0.7806	0.168
Mof_O 	O 	0.383	0.212	0.677	-0.314
Mof_O 	O 	0.44	0.188	0.695	-0.132
Mof_W 	W 	0.56363	0.27956	0.9527	0.974
Mof_W 	W 	0.75348	0.22083	0.89377	0.998
Mof_W 	W 	0.587	0.26997	0.07755	1.039
Mof_W 	W 	0.93533	0.13232	0.97687	1.331
Mof_W 	W 	0.90141	0.34228	0.97773	0.987
Mof_W 	W 	0.9594	0.12175	0.11179	1.004
Mof_W 	W 	0.80369	0.19905	0.16957	1.018
Mof_W 	W 	0.70958	0.41013	0.03031	0.963
Mof_W 	W 	0.92488	0.33232	0.11635	0.988
Mof_W 	W 	0.5949	0.06265	0.9201	1.372
Mof_W 	W 	0.37131	0.95155	0.89537	1.379
Mof_Eu	Eu	0.80183	0.93529	0.02599	1.85
Mof_Eu	Eu	0.65031	0.7861	0.75827	1.42
Mof_As	As	0.75867	0.17963	0.02897	0.413
Mof_P 	P 	0.5222	0.9352	0.82354	0.462
Mof_P 	P 	0.4158	0.0921	0.81754	0.442
Mof_O 	O 	0.6885	0.1191	0.8975	-0.486
Mof_O 	O 	0.9104	0.1369	0.1725	-0.474
Mof_O 	O 	0.8213	0.2166	0.9851	-0.384
Mof_O 	O 	0.5009	0.1256	0.8578	-0.392
Mof_O 	O 	0.9392	0.3421	0.0495	-0.475
Mof_O 	O 	0.3513	0.0431	0.8427	-0.42
Mof_O 	O 	0.4852	0.0059	0.9251	-0.521
Mof_O 	O 	0.6171	0.3813	0.0702	-0.449
Mof_O 	O 	0.4017	0.8509	0.9288	-0.482
Mof_O 	O 	0.8644	0.1582	0.9066	-0.483
Mof_O 	O 	0.8382	0.2077	0.0875	-0.356
Mof_O 	O 	0.8689	0.0462	0.984	-0.578
Mof_O 	O 	0.4487	0.896	0.846	-0.378
Mof_O 	O 	0.8697	0.3	0.1696	-0.473
Mof_O 	O 	0.9789	0.2573	0.9726	-0.484
Mof_O 	O 	0.7886	0.3954	0.989	-0.451
Mof_O 	O 	0.511	0.2667	0.0104	-0.469
Mof_O 	O 	0.6865	0.2695	0.0257	-0.355
Mof_O 	O 	0.982	0.1488	0.0476	-0.508
Mof_O 	O 	0.5756	0.1571	0.9549	-0.482
Mof_O 	O 	0.6541	0.2723	0.9153	-0.455
Mof_O 	O 	0.5983	0.98	0.8646	-0.408
Mof_O 	O 	0.8224	0.3212	0.9116	-0.469
Mof_O 	O 	0.0053	0.2459	0.1304	-0.47
Mof_O 	O 	0.8052	0.3878	0.0874	-0.456
Mof_O 	O 	0.3628	0.1586	0.7837	-0.495
Mof_O 	O 	0.2668	0.9004	0.8517	-0.492
Mof_O 	O 	0.6721	0.008	0.9668	-0.593
Mof_O 	O 	0.8858	0.0405	0.0874	-0.541
Mof_O 	O 	0.695	0.254	0.1321	-0.455
Mof_O 	O 	0.0342	0.092	0.9623	-0.626
Mof_O 	O 	0.3087	0.9988	0.9323	-0.592
Mof_O 	O 	0.5646	0.8745	0.795	-0.478
Mof_O 	O 	0.5983	0.3885	0.9718	-0.449
Mof_O 	O 	0.5257	0.0577	0.7576	-0.415
Mof_H 	H 	0.5005	0.096	0.7391	0.232
Mof_C 	C 	0.4594	0.0181	0.7797	0.102
Mof_C 	C 	0.384	0.979	0.7428	-0.521
Mof_H 	H 	0.3422	0.9537	0.7599	0.166
Mof_H 	H 	0.4082	0.937	0.7247	0.157
Mof_H 	H 	0.3514	0.0203	0.7194	0.164
Mof_O 	O 	0.617	0.712	0.823	-0.314
Mof_O 	O 	0.56	0.688	0.805	-0.133
_end
