data_functionalizedCrystal
_audit_creation_method	'EQeq! by Chris Wilmer'
_symmetry_space_group_name_H-M	'P1'
_symmetry_Int_Tables_number	1
_symmetry_cell_setting	triclinic
loop_
_symmetry_equiv_pos_as_xyz
  x,y,z
_cell_length_a	29.311
_cell_length_b	29.311
_cell_length_c	29.311
_cell_angle_alpha	90
_cell_angle_beta	90
_cell_angle_gamma	90
loop_
_atom_site_label
_atom_site_type_symbol
_atom_site_fract_x
_atom_site_fract_y
_atom_site_fract_z
_atom_site_charge
Mof_Yb	Yb	0.14433	0.24537	0.18293	1.819
Mof_N 	N 	0.1076	0.2498	0.8132	-0.169
Mof_O 	O 	0.8194	0.2501	0.7802	-0.546
Mof_O 	O 	0.81521	0.2925	0.8426	-0.528
Mof_O 	O 	0.14366	0.2439	0.10805	-0.586
Mof_O 	O 	0.2033	0.2033	0.08211	-0.56
Mof_O 	O 	0.22326	0.249	0.17526	-0.919
Mof_H 	H 	0.2321	0.2721	0.16	0.334
Mof_C 	C 	0.8407	0.2628	0.8162	0.473
Mof_C 	C 	0.8872	0.2664	0.8195	-0.288
Mof_C 	C 	0.9141	0.2426	0.788	0.157
Mof_H 	H 	0.9008	0.2311	0.7616	-0.028
Mof_C 	C 	0.9618	0.2358	0.7958	-0.226
Mof_H 	H 	0.9791	0.2189	0.7753	0.102
Mof_C 	C 	0.9814	0.2542	0.8333	0.166
Mof_C 	C 	0.9541	0.2769	0.864	-0.244
Mof_H 	H 	0.9672	0.2885	0.8904	0.109
Mof_C 	C 	0.9076	0.2831	0.857	0.19
Mof_H 	H 	0.8905	0.299	0.8785	-0.041
Mof_C 	C 	0.0622	0.2529	0.8092	0.051
Mof_H 	H 	0.0508	0.258	0.78	0.002
Mof_C 	C 	0.0303	0.2494	0.8442	-0.091
Mof_C 	C 	0.0478	0.245	0.8873	0.006
Mof_H 	H 	0.0282	0.2443	0.9122	0.021
Mof_C 	C 	0.0939	0.2417	0.8943	-0.076
Mof_C 	C 	0.1228	0.2446	0.8575	0.035
Mof_H 	H 	0.154	0.2428	0.8627	0.006
Mof_C 	C 	0.1664	0.2243	0.0781	0.515
Mof_C 	C 	0.1487	0.2282	0.0292	-0.224
Mof_C 	C 	0.172	0.2105	0.9913	0.136
Mof_H 	H 	0.1999	0.1959	0.9955	-0.019
Mof_C 	C 	0.1544	0.2146	0.9484	-0.21
Mof_H 	H 	0.1704	0.2025	0.9238	0.097
Mof_C 	C 	0.1136	0.2363	0.9408	0.141
Mof_C 	C 	0.0905	0.2551	0.9766	-0.205
Mof_H 	H 	0.0641	0.272	0.9717	0.095
Mof_C 	C 	0.1076	0.2485	0.0212	0.129
Mof_H 	H 	0.0902	0.2582	0.0459	-0.017
Mof_Yb	Yb	0.35567	0.75463	0.68293	1.818
Mof_N 	N 	0.3924	0.7502	0.3132	-0.17
Mof_O 	O 	0.6806	0.7499	0.2802	-0.547
Mof_O 	O 	0.68479	0.7075	0.3426	-0.529
Mof_O 	O 	0.35634	0.7561	0.60805	-0.587
Mof_O 	O 	0.2967	0.7967	0.58211	-0.561
Mof_O 	O 	0.27674	0.751	0.67526	-0.92
Mof_H 	H 	0.2679	0.7279	0.66	0.333
Mof_C 	C 	0.6593	0.7372	0.3162	0.472
Mof_C 	C 	0.6128	0.7336	0.3195	-0.289
Mof_C 	C 	0.5859	0.7574	0.288	0.156
Mof_H 	H 	0.5992	0.7689	0.2616	-0.029
Mof_C 	C 	0.5382	0.7642	0.2958	-0.227
Mof_H 	H 	0.5209	0.7811	0.2753	0.101
Mof_C 	C 	0.5186	0.7458	0.3333	0.166
Mof_C 	C 	0.5459	0.7231	0.364	-0.244
Mof_H 	H 	0.5328	0.7115	0.3904	0.109
Mof_C 	C 	0.5924	0.7169	0.357	0.19
Mof_H 	H 	0.6095	0.701	0.3785	-0.041
Mof_C 	C 	0.4378	0.7471	0.3092	0.051
Mof_H 	H 	0.4492	0.742	0.28	0.002
Mof_C 	C 	0.4697	0.7506	0.3442	-0.091
Mof_C 	C 	0.4522	0.755	0.3873	0.006
Mof_H 	H 	0.4718	0.7557	0.4122	0.021
Mof_C 	C 	0.4061	0.7583	0.3943	-0.075
Mof_C 	C 	0.3772	0.7554	0.3575	0.035
Mof_H 	H 	0.346	0.7572	0.3627	0.006
Mof_C 	C 	0.3336	0.7757	0.5781	0.515
Mof_C 	C 	0.3513	0.7718	0.5292	-0.224
Mof_C 	C 	0.328	0.7895	0.4913	0.136
Mof_H 	H 	0.3001	0.8041	0.4955	-0.019
Mof_C 	C 	0.3456	0.7854	0.4484	-0.21
Mof_H 	H 	0.3296	0.7975	0.4238	0.097
Mof_C 	C 	0.3864	0.7637	0.4408	0.141
Mof_C 	C 	0.4095	0.7449	0.4766	-0.205
Mof_H 	H 	0.4359	0.728	0.4717	0.095
Mof_C 	C 	0.3924	0.7515	0.5212	0.129
Mof_H 	H 	0.4098	0.7418	0.5459	-0.017
Mof_Yb	Yb	0.85567	0.74537	0.31707	1.818
Mof_N 	N 	0.8924	0.7498	0.6868	-0.17
Mof_O 	O 	0.1806	0.7501	0.7198	-0.547
Mof_O 	O 	0.18479	0.7925	0.6574	-0.529
Mof_O 	O 	0.85634	0.7439	0.39195	-0.587
Mof_O 	O 	0.7967	0.7033	0.41789	-0.561
Mof_O 	O 	0.77674	0.749	0.32474	-0.92
Mof_H 	H 	0.7679	0.7721	0.34	0.333
Mof_C 	C 	0.1593	0.7628	0.6838	0.472
Mof_C 	C 	0.1128	0.7664	0.6805	-0.289
Mof_C 	C 	0.0859	0.7426	0.712	0.156
Mof_H 	H 	0.0992	0.7311	0.7384	-0.029
Mof_C 	C 	0.0382	0.7358	0.7042	-0.227
Mof_H 	H 	0.0209	0.7189	0.7247	0.101
Mof_C 	C 	0.0186	0.7542	0.6667	0.166
Mof_C 	C 	0.0459	0.7769	0.636	-0.244
Mof_H 	H 	0.0328	0.7885	0.6096	0.109
Mof_C 	C 	0.0924	0.7831	0.643	0.19
Mof_H 	H 	0.1095	0.799	0.6215	-0.041
Mof_C 	C 	0.9378	0.7529	0.6908	0.051
Mof_H 	H 	0.9492	0.758	0.72	0.002
Mof_C 	C 	0.9697	0.7494	0.6558	-0.091
Mof_C 	C 	0.9522	0.745	0.6127	0.006
Mof_H 	H 	0.9718	0.7443	0.5878	0.021
Mof_C 	C 	0.9061	0.7417	0.6057	-0.075
Mof_C 	C 	0.8772	0.7446	0.6425	0.035
Mof_H 	H 	0.846	0.7428	0.6373	0.006
Mof_C 	C 	0.8336	0.7243	0.4219	0.515
Mof_C 	C 	0.8513	0.7282	0.4708	-0.224
Mof_C 	C 	0.828	0.7105	0.5087	0.136
Mof_H 	H 	0.8001	0.6959	0.5045	-0.019
Mof_C 	C 	0.8456	0.7146	0.5516	-0.21
Mof_H 	H 	0.8296	0.7025	0.5762	0.097
Mof_C 	C 	0.8864	0.7363	0.5592	0.141
Mof_C 	C 	0.9095	0.7551	0.5234	-0.205
Mof_H 	H 	0.9359	0.772	0.5283	0.095
Mof_C 	C 	0.8924	0.7485	0.4788	0.129
Mof_H 	H 	0.9098	0.7582	0.4541	-0.017
Mof_Yb	Yb	0.64433	0.25463	0.81707	1.818
Mof_N 	N 	0.6076	0.2502	0.1868	-0.17
Mof_O 	O 	0.3194	0.2499	0.2198	-0.547
Mof_O 	O 	0.31521	0.2075	0.1574	-0.529
Mof_O 	O 	0.64366	0.2561	0.89195	-0.587
Mof_O 	O 	0.7033	0.2967	0.91789	-0.561
Mof_O 	O 	0.72326	0.251	0.82474	-0.92
Mof_H 	H 	0.7321	0.2279	0.84	0.333
Mof_C 	C 	0.3407	0.2372	0.1838	0.472
Mof_C 	C 	0.3872	0.2336	0.1805	-0.289
Mof_C 	C 	0.4141	0.2574	0.212	0.156
Mof_H 	H 	0.4008	0.2689	0.2384	-0.029
Mof_C 	C 	0.4618	0.2642	0.2042	-0.227
Mof_H 	H 	0.4791	0.2811	0.2247	0.101
Mof_C 	C 	0.4814	0.2458	0.1667	0.166
Mof_C 	C 	0.4541	0.2231	0.136	-0.244
Mof_H 	H 	0.4672	0.2115	0.1096	0.109
Mof_C 	C 	0.4076	0.2169	0.143	0.19
Mof_H 	H 	0.3905	0.201	0.1215	-0.041
Mof_C 	C 	0.5622	0.2471	0.1908	0.051
Mof_H 	H 	0.5508	0.242	0.22	0.002
Mof_C 	C 	0.5303	0.2506	0.1558	-0.091
Mof_C 	C 	0.5478	0.255	0.1127	0.006
Mof_H 	H 	0.5282	0.2557	0.0878	0.021
Mof_C 	C 	0.5939	0.2583	0.1057	-0.075
Mof_C 	C 	0.6228	0.2554	0.1425	0.035
Mof_H 	H 	0.654	0.2572	0.1373	0.006
Mof_C 	C 	0.6664	0.2757	0.9219	0.515
Mof_C 	C 	0.6487	0.2718	0.9708	-0.224
Mof_C 	C 	0.672	0.2895	0.0087	0.136
Mof_H 	H 	0.6999	0.3041	0.0045	-0.019
Mof_C 	C 	0.6544	0.2854	0.0516	-0.21
Mof_H 	H 	0.6704	0.2975	0.0762	0.097
Mof_C 	C 	0.6136	0.2637	0.0592	0.141
Mof_C 	C 	0.5905	0.2449	0.0234	-0.205
Mof_H 	H 	0.5641	0.228	0.0283	0.095
Mof_C 	C 	0.6076	0.2515	0.9788	0.129
Mof_H 	H 	0.5902	0.2418	0.9541	-0.017
Mof_Yb	Yb	0.18293	0.14433	0.24537	1.818
Mof_N 	N 	0.8132	0.1076	0.2498	-0.17
Mof_O 	O 	0.7802	0.8194	0.2501	-0.547
Mof_O 	O 	0.8426	0.81521	0.2925	-0.529
Mof_O 	O 	0.10805	0.14366	0.2439	-0.587
Mof_O 	O 	0.08211	0.2033	0.2033	-0.561
Mof_O 	O 	0.17526	0.22326	0.249	-0.92
Mof_H 	H 	0.16	0.2321	0.2721	0.333
Mof_C 	C 	0.8162	0.8407	0.2628	0.472
Mof_C 	C 	0.8195	0.8872	0.2664	-0.289
Mof_C 	C 	0.788	0.9141	0.2426	0.156
Mof_H 	H 	0.7616	0.9008	0.2311	-0.029
Mof_C 	C 	0.7958	0.9618	0.2358	-0.227
Mof_H 	H 	0.7753	0.9791	0.2189	0.101
Mof_C 	C 	0.8333	0.9814	0.2542	0.166
Mof_C 	C 	0.864	0.9541	0.2769	-0.244
Mof_H 	H 	0.8904	0.9672	0.2885	0.109
Mof_C 	C 	0.857	0.9076	0.2831	0.19
Mof_H 	H 	0.8785	0.8905	0.299	-0.041
Mof_C 	C 	0.8092	0.0622	0.2529	0.051
Mof_H 	H 	0.78	0.0508	0.258	0.002
Mof_C 	C 	0.8442	0.0303	0.2494	-0.091
Mof_C 	C 	0.8873	0.0478	0.245	0.006
Mof_H 	H 	0.9122	0.0282	0.2443	0.021
Mof_C 	C 	0.8943	0.0939	0.2417	-0.076
Mof_C 	C 	0.8575	0.1228	0.2446	0.035
Mof_H 	H 	0.8627	0.154	0.2428	0.006
Mof_C 	C 	0.0781	0.1664	0.2243	0.515
Mof_C 	C 	0.0292	0.1487	0.2282	-0.224
Mof_C 	C 	0.9913	0.172	0.2105	0.136
Mof_H 	H 	0.9955	0.1999	0.1959	-0.019
Mof_C 	C 	0.9484	0.1544	0.2146	-0.21
Mof_H 	H 	0.9238	0.1704	0.2025	0.097
Mof_C 	C 	0.9408	0.1136	0.2363	0.141
Mof_C 	C 	0.9766	0.0905	0.2551	-0.205
Mof_H 	H 	0.9717	0.0641	0.272	0.095
Mof_C 	C 	0.0212	0.1076	0.2485	0.129
Mof_H 	H 	0.0459	0.0902	0.2582	-0.017
Mof_Yb	Yb	0.68293	0.35567	0.75463	1.818
Mof_N 	N 	0.3132	0.3924	0.7502	-0.17
Mof_O 	O 	0.2802	0.6806	0.7499	-0.547
Mof_O 	O 	0.3426	0.68479	0.7075	-0.529
Mof_O 	O 	0.60805	0.35634	0.7561	-0.587
Mof_O 	O 	0.58211	0.2967	0.7967	-0.561
Mof_O 	O 	0.67526	0.27674	0.751	-0.92
Mof_H 	H 	0.66	0.2679	0.7279	0.333
Mof_C 	C 	0.3162	0.6593	0.7372	0.472
Mof_C 	C 	0.3195	0.6128	0.7336	-0.289
Mof_C 	C 	0.288	0.5859	0.7574	0.156
Mof_H 	H 	0.2616	0.5992	0.7689	-0.029
Mof_C 	C 	0.2958	0.5382	0.7642	-0.227
Mof_H 	H 	0.2753	0.5209	0.7811	0.101
Mof_C 	C 	0.3333	0.5186	0.7458	0.166
Mof_C 	C 	0.364	0.5459	0.7231	-0.244
Mof_H 	H 	0.3904	0.5328	0.7115	0.109
Mof_C 	C 	0.357	0.5924	0.7169	0.19
Mof_H 	H 	0.3785	0.6095	0.701	-0.041
Mof_C 	C 	0.3092	0.4378	0.7471	0.051
Mof_H 	H 	0.28	0.4492	0.742	0.002
Mof_C 	C 	0.3442	0.4697	0.7506	-0.091
Mof_C 	C 	0.3873	0.4522	0.755	0.006
Mof_H 	H 	0.4122	0.4718	0.7557	0.021
Mof_C 	C 	0.3943	0.4061	0.7583	-0.075
Mof_C 	C 	0.3575	0.3772	0.7554	0.035
Mof_H 	H 	0.3627	0.346	0.7572	0.006
Mof_C 	C 	0.5781	0.3336	0.7757	0.515
Mof_C 	C 	0.5292	0.3513	0.7718	-0.224
Mof_C 	C 	0.4913	0.328	0.7895	0.136
Mof_H 	H 	0.4955	0.3001	0.8041	-0.019
Mof_C 	C 	0.4484	0.3456	0.7854	-0.21
Mof_H 	H 	0.4238	0.3296	0.7975	0.097
Mof_C 	C 	0.4408	0.3864	0.7637	0.141
Mof_C 	C 	0.4766	0.4095	0.7449	-0.205
Mof_H 	H 	0.4717	0.4359	0.728	0.095
Mof_C 	C 	0.5212	0.3924	0.7515	0.129
Mof_H 	H 	0.5459	0.4098	0.7418	-0.017
Mof_Yb	Yb	0.31707	0.85567	0.74537	1.818
Mof_N 	N 	0.6868	0.8924	0.7498	-0.17
Mof_O 	O 	0.7198	0.1806	0.7501	-0.547
Mof_O 	O 	0.6574	0.18479	0.7925	-0.529
Mof_O 	O 	0.39195	0.85634	0.7439	-0.587
Mof_O 	O 	0.41789	0.7967	0.7033	-0.561
Mof_O 	O 	0.32474	0.77674	0.749	-0.92
Mof_H 	H 	0.34	0.7679	0.7721	0.333
Mof_C 	C 	0.6838	0.1593	0.7628	0.472
Mof_C 	C 	0.6805	0.1128	0.7664	-0.289
Mof_C 	C 	0.712	0.0859	0.7426	0.156
Mof_H 	H 	0.7384	0.0992	0.7311	-0.029
Mof_C 	C 	0.7042	0.0382	0.7358	-0.227
Mof_H 	H 	0.7247	0.0209	0.7189	0.101
Mof_C 	C 	0.6667	0.0186	0.7542	0.166
Mof_C 	C 	0.636	0.0459	0.7769	-0.244
Mof_H 	H 	0.6096	0.0328	0.7885	0.109
Mof_C 	C 	0.643	0.0924	0.7831	0.19
Mof_H 	H 	0.6215	0.1095	0.799	-0.041
Mof_C 	C 	0.6908	0.9378	0.7529	0.051
Mof_H 	H 	0.72	0.9492	0.758	0.002
Mof_C 	C 	0.6558	0.9697	0.7494	-0.091
Mof_C 	C 	0.6127	0.9522	0.745	0.006
Mof_H 	H 	0.5878	0.9718	0.7443	0.021
Mof_C 	C 	0.6057	0.9061	0.7417	-0.075
Mof_C 	C 	0.6425	0.8772	0.7446	0.035
Mof_H 	H 	0.6373	0.846	0.7428	0.006
Mof_C 	C 	0.4219	0.8336	0.7243	0.515
Mof_C 	C 	0.4708	0.8513	0.7282	-0.224
Mof_C 	C 	0.5087	0.828	0.7105	0.136
Mof_H 	H 	0.5045	0.8001	0.6959	-0.019
Mof_C 	C 	0.5516	0.8456	0.7146	-0.21
Mof_H 	H 	0.5762	0.8296	0.7025	0.097
Mof_C 	C 	0.5592	0.8864	0.7363	0.141
Mof_C 	C 	0.5234	0.9095	0.7551	-0.205
Mof_H 	H 	0.5283	0.9359	0.772	0.095
Mof_C 	C 	0.4788	0.8924	0.7485	0.129
Mof_H 	H 	0.4541	0.9098	0.7582	-0.017
Mof_Yb	Yb	0.81707	0.64433	0.25463	1.818
Mof_N 	N 	0.1868	0.6076	0.2502	-0.17
Mof_O 	O 	0.2198	0.3194	0.2499	-0.547
Mof_O 	O 	0.1574	0.31521	0.2075	-0.529
Mof_O 	O 	0.89195	0.64366	0.2561	-0.587
Mof_O 	O 	0.91789	0.7033	0.2967	-0.561
Mof_O 	O 	0.82474	0.72326	0.251	-0.92
Mof_H 	H 	0.84	0.7321	0.2279	0.333
Mof_C 	C 	0.1838	0.3407	0.2372	0.472
Mof_C 	C 	0.1805	0.3872	0.2336	-0.289
Mof_C 	C 	0.212	0.4141	0.2574	0.156
Mof_H 	H 	0.2384	0.4008	0.2689	-0.029
Mof_C 	C 	0.2042	0.4618	0.2642	-0.227
Mof_H 	H 	0.2247	0.4791	0.2811	0.101
Mof_C 	C 	0.1667	0.4814	0.2458	0.166
Mof_C 	C 	0.136	0.4541	0.2231	-0.244
Mof_H 	H 	0.1096	0.4672	0.2115	0.109
Mof_C 	C 	0.143	0.4076	0.2169	0.19
Mof_H 	H 	0.1215	0.3905	0.201	-0.041
Mof_C 	C 	0.1908	0.5622	0.2471	0.051
Mof_H 	H 	0.22	0.5508	0.242	0.002
Mof_C 	C 	0.1558	0.5303	0.2506	-0.091
Mof_C 	C 	0.1127	0.5478	0.255	0.006
Mof_H 	H 	0.0878	0.5282	0.2557	0.021
Mof_C 	C 	0.1057	0.5939	0.2583	-0.075
Mof_C 	C 	0.1425	0.6228	0.2554	0.035
Mof_H 	H 	0.1373	0.654	0.2572	0.006
Mof_C 	C 	0.9219	0.6664	0.2757	0.515
Mof_C 	C 	0.9708	0.6487	0.2718	-0.224
Mof_C 	C 	0.0087	0.672	0.2895	0.136
Mof_H 	H 	0.0045	0.6999	0.3041	-0.019
Mof_C 	C 	0.0516	0.6544	0.2854	-0.21
Mof_H 	H 	0.0762	0.6704	0.2975	0.097
Mof_C 	C 	0.0592	0.6136	0.2637	0.141
Mof_C 	C 	0.0234	0.5905	0.2449	-0.205
Mof_H 	H 	0.0283	0.5641	0.228	0.095
Mof_C 	C 	0.9788	0.6076	0.2515	0.129
Mof_H 	H 	0.9541	0.5902	0.2418	-0.017
Mof_Yb	Yb	0.24537	0.18293	0.14433	1.818
Mof_N 	N 	0.2498	0.8132	0.1076	-0.17
Mof_O 	O 	0.2501	0.7802	0.8194	-0.547
Mof_O 	O 	0.2925	0.8426	0.81521	-0.529
Mof_O 	O 	0.2439	0.10805	0.14366	-0.587
Mof_O 	O 	0.2033	0.08211	0.2033	-0.561
Mof_O 	O 	0.249	0.17526	0.22326	-0.92
Mof_H 	H 	0.2721	0.16	0.2321	0.333
Mof_C 	C 	0.2628	0.8162	0.8407	0.472
Mof_C 	C 	0.2664	0.8195	0.8872	-0.289
Mof_C 	C 	0.2426	0.788	0.9141	0.156
Mof_H 	H 	0.2311	0.7616	0.9008	-0.029
Mof_C 	C 	0.2358	0.7958	0.9618	-0.227
Mof_H 	H 	0.2189	0.7753	0.9791	0.101
Mof_C 	C 	0.2542	0.8333	0.9814	0.166
Mof_C 	C 	0.2769	0.864	0.9541	-0.244
Mof_H 	H 	0.2885	0.8904	0.9672	0.109
Mof_C 	C 	0.2831	0.857	0.9076	0.19
Mof_H 	H 	0.299	0.8785	0.8905	-0.041
Mof_C 	C 	0.2529	0.8092	0.0622	0.051
Mof_H 	H 	0.258	0.78	0.0508	0.002
Mof_C 	C 	0.2494	0.8442	0.0303	-0.091
Mof_C 	C 	0.245	0.8873	0.0478	0.006
Mof_H 	H 	0.2443	0.9122	0.0282	0.021
Mof_C 	C 	0.2417	0.8943	0.0939	-0.076
Mof_C 	C 	0.2446	0.8575	0.1228	0.035
Mof_H 	H 	0.2428	0.8627	0.154	0.006
Mof_C 	C 	0.2243	0.0781	0.1664	0.515
Mof_C 	C 	0.2282	0.0292	0.1487	-0.224
Mof_C 	C 	0.2105	0.9913	0.172	0.136
Mof_H 	H 	0.1959	0.9955	0.1999	-0.019
Mof_C 	C 	0.2146	0.9484	0.1544	-0.21
Mof_H 	H 	0.2025	0.9238	0.1704	0.097
Mof_C 	C 	0.2363	0.9408	0.1136	0.141
Mof_C 	C 	0.2551	0.9766	0.0905	-0.205
Mof_H 	H 	0.272	0.9717	0.0641	0.095
Mof_C 	C 	0.2485	0.0212	0.1076	0.129
Mof_H 	H 	0.2582	0.0459	0.0902	-0.017
Mof_Yb	Yb	0.75463	0.68293	0.35567	1.818
Mof_N 	N 	0.7502	0.3132	0.3924	-0.17
Mof_O 	O 	0.7499	0.2802	0.6806	-0.547
Mof_O 	O 	0.7075	0.3426	0.68479	-0.529
Mof_O 	O 	0.7561	0.60805	0.35634	-0.587
Mof_O 	O 	0.7967	0.58211	0.2967	-0.561
Mof_O 	O 	0.751	0.67526	0.27674	-0.92
Mof_H 	H 	0.7279	0.66	0.2679	0.333
Mof_C 	C 	0.7372	0.3162	0.6593	0.472
Mof_C 	C 	0.7336	0.3195	0.6128	-0.289
Mof_C 	C 	0.7574	0.288	0.5859	0.156
Mof_H 	H 	0.7689	0.2616	0.5992	-0.029
Mof_C 	C 	0.7642	0.2958	0.5382	-0.227
Mof_H 	H 	0.7811	0.2753	0.5209	0.101
Mof_C 	C 	0.7458	0.3333	0.5186	0.166
Mof_C 	C 	0.7231	0.364	0.5459	-0.244
Mof_H 	H 	0.7115	0.3904	0.5328	0.109
Mof_C 	C 	0.7169	0.357	0.5924	0.19
Mof_H 	H 	0.701	0.3785	0.6095	-0.041
Mof_C 	C 	0.7471	0.3092	0.4378	0.051
Mof_H 	H 	0.742	0.28	0.4492	0.002
Mof_C 	C 	0.7506	0.3442	0.4697	-0.091
Mof_C 	C 	0.755	0.3873	0.4522	0.006
Mof_H 	H 	0.7557	0.4122	0.4718	0.021
Mof_C 	C 	0.7583	0.3943	0.4061	-0.075
Mof_C 	C 	0.7554	0.3575	0.3772	0.035
Mof_H 	H 	0.7572	0.3627	0.346	0.006
Mof_C 	C 	0.7757	0.5781	0.3336	0.515
Mof_C 	C 	0.7718	0.5292	0.3513	-0.224
Mof_C 	C 	0.7895	0.4913	0.328	0.136
Mof_H 	H 	0.8041	0.4955	0.3001	-0.019
Mof_C 	C 	0.7854	0.4484	0.3456	-0.21
Mof_H 	H 	0.7975	0.4238	0.3296	0.097
Mof_C 	C 	0.7637	0.4408	0.3864	0.141
Mof_C 	C 	0.7449	0.4766	0.4095	-0.205
Mof_H 	H 	0.728	0.4717	0.4359	0.095
Mof_C 	C 	0.7515	0.5212	0.3924	0.129
Mof_H 	H 	0.7418	0.5459	0.4098	-0.017
Mof_Yb	Yb	0.74537	0.31707	0.85567	1.818
Mof_N 	N 	0.7498	0.6868	0.8924	-0.17
Mof_O 	O 	0.7501	0.7198	0.1806	-0.547
Mof_O 	O 	0.7925	0.6574	0.18479	-0.529
Mof_O 	O 	0.7439	0.39195	0.85634	-0.587
Mof_O 	O 	0.7033	0.41789	0.7967	-0.561
Mof_O 	O 	0.749	0.32474	0.77674	-0.92
Mof_H 	H 	0.7721	0.34	0.7679	0.333
Mof_C 	C 	0.7628	0.6838	0.1593	0.472
Mof_C 	C 	0.7664	0.6805	0.1128	-0.289
Mof_C 	C 	0.7426	0.712	0.0859	0.156
Mof_H 	H 	0.7311	0.7384	0.0992	-0.029
Mof_C 	C 	0.7358	0.7042	0.0382	-0.227
Mof_H 	H 	0.7189	0.7247	0.0209	0.101
Mof_C 	C 	0.7542	0.6667	0.0186	0.166
Mof_C 	C 	0.7769	0.636	0.0459	-0.244
Mof_H 	H 	0.7885	0.6096	0.0328	0.109
Mof_C 	C 	0.7831	0.643	0.0924	0.19
Mof_H 	H 	0.799	0.6215	0.1095	-0.041
Mof_C 	C 	0.7529	0.6908	0.9378	0.051
Mof_H 	H 	0.758	0.72	0.9492	0.002
Mof_C 	C 	0.7494	0.6558	0.9697	-0.091
Mof_C 	C 	0.745	0.6127	0.9522	0.006
Mof_H 	H 	0.7443	0.5878	0.9718	0.021
Mof_C 	C 	0.7417	0.6057	0.9061	-0.075
Mof_C 	C 	0.7446	0.6425	0.8772	0.035
Mof_H 	H 	0.7428	0.6373	0.846	0.006
Mof_C 	C 	0.7243	0.4219	0.8336	0.515
Mof_C 	C 	0.7282	0.4708	0.8513	-0.224
Mof_C 	C 	0.7105	0.5087	0.828	0.136
Mof_H 	H 	0.6959	0.5045	0.8001	-0.019
Mof_C 	C 	0.7146	0.5516	0.8456	-0.21
Mof_H 	H 	0.7025	0.5762	0.8296	0.097
Mof_C 	C 	0.7363	0.5592	0.8864	0.141
Mof_C 	C 	0.7551	0.5234	0.9095	-0.205
Mof_H 	H 	0.772	0.5283	0.9359	0.095
Mof_C 	C 	0.7485	0.4788	0.8924	0.129
Mof_H 	H 	0.7582	0.4541	0.9098	-0.017
Mof_Yb	Yb	0.25463	0.81707	0.64433	1.818
Mof_N 	N 	0.2502	0.1868	0.6076	-0.17
Mof_O 	O 	0.2499	0.2198	0.3194	-0.547
Mof_O 	O 	0.2075	0.1574	0.31521	-0.529
Mof_O 	O 	0.2561	0.89195	0.64366	-0.587
Mof_O 	O 	0.2967	0.91789	0.7033	-0.561
Mof_O 	O 	0.251	0.82474	0.72326	-0.92
Mof_H 	H 	0.2279	0.84	0.7321	0.333
Mof_C 	C 	0.2372	0.1838	0.3407	0.472
Mof_C 	C 	0.2336	0.1805	0.3872	-0.289
Mof_C 	C 	0.2574	0.212	0.4141	0.156
Mof_H 	H 	0.2689	0.2384	0.4008	-0.029
Mof_C 	C 	0.2642	0.2042	0.4618	-0.227
Mof_H 	H 	0.2811	0.2247	0.4791	0.101
Mof_C 	C 	0.2458	0.1667	0.4814	0.166
Mof_C 	C 	0.2231	0.136	0.4541	-0.244
Mof_H 	H 	0.2115	0.1096	0.4672	0.109
Mof_C 	C 	0.2169	0.143	0.4076	0.19
Mof_H 	H 	0.201	0.1215	0.3905	-0.041
Mof_C 	C 	0.2471	0.1908	0.5622	0.051
Mof_H 	H 	0.242	0.22	0.5508	0.002
Mof_C 	C 	0.2506	0.1558	0.5303	-0.091
Mof_C 	C 	0.255	0.1127	0.5478	0.006
Mof_H 	H 	0.2557	0.0878	0.5282	0.021
Mof_C 	C 	0.2583	0.1057	0.5939	-0.075
Mof_C 	C 	0.2554	0.1425	0.6228	0.035
Mof_H 	H 	0.2572	0.1373	0.654	0.006
Mof_C 	C 	0.2757	0.9219	0.6664	0.515
Mof_C 	C 	0.2718	0.9708	0.6487	-0.224
Mof_C 	C 	0.2895	0.0087	0.672	0.136
Mof_H 	H 	0.3041	0.0045	0.6999	-0.019
Mof_C 	C 	0.2854	0.0516	0.6544	-0.21
Mof_H 	H 	0.2975	0.0762	0.6704	0.097
Mof_C 	C 	0.2637	0.0592	0.6136	0.141
Mof_C 	C 	0.2449	0.0234	0.5905	-0.205
Mof_H 	H 	0.228	0.0283	0.5641	0.095
Mof_C 	C 	0.2515	0.9788	0.6076	0.129
Mof_H 	H 	0.2418	0.9541	0.5902	-0.017
Mof_Yb	Yb	0.74954	0.25046	0.75046	1.799
Mof_Yb	Yb	0.75046	0.74954	0.25046	1.799
Mof_Yb	Yb	0.25046	0.75046	0.74954	1.799
Mof_Yb	Yb	0.24954	0.24954	0.24954	1.799
Mof_O 	O 	0.17257	0.17257	0.17257	-0.898
Mof_H 	H 	0.15587	0.15587	0.15587	0.316
Mof_O 	O 	0.32743	0.82743	0.67257	-0.898
Mof_H 	H 	0.34413	0.84413	0.65587	0.316
Mof_O 	O 	0.82743	0.67257	0.32743	-0.898
Mof_H 	H 	0.84413	0.65587	0.34413	0.316
Mof_O 	O 	0.67257	0.32743	0.82743	-0.898
Mof_H 	H 	0.65587	0.34413	0.84413	0.316
Mof_Yb	Yb	0.85567	0.75463	0.81707	1.818
Mof_N 	N 	0.8924	0.7502	0.1868	-0.17
Mof_O 	O 	0.1806	0.7499	0.2198	-0.547
Mof_O 	O 	0.18479	0.7075	0.1574	-0.529
Mof_O 	O 	0.85634	0.7561	0.89195	-0.587
Mof_O 	O 	0.7967	0.7967	0.91789	-0.561
Mof_O 	O 	0.77674	0.751	0.82474	-0.92
Mof_H 	H 	0.7679	0.7279	0.84	0.333
Mof_C 	C 	0.1593	0.7372	0.1838	0.472
Mof_C 	C 	0.1128	0.7336	0.1805	-0.289
Mof_C 	C 	0.0859	0.7574	0.212	0.156
Mof_H 	H 	0.0992	0.7689	0.2384	-0.029
Mof_C 	C 	0.0382	0.7642	0.2042	-0.227
Mof_H 	H 	0.0209	0.7811	0.2247	0.101
Mof_C 	C 	0.0186	0.7458	0.1667	0.166
Mof_C 	C 	0.0459	0.7231	0.136	-0.244
Mof_H 	H 	0.0328	0.7115	0.1096	0.109
Mof_C 	C 	0.0924	0.7169	0.143	0.19
Mof_H 	H 	0.1095	0.701	0.1215	-0.041
Mof_C 	C 	0.9378	0.7471	0.1908	0.051
Mof_H 	H 	0.9492	0.742	0.22	0.002
Mof_C 	C 	0.9697	0.7506	0.1558	-0.091
Mof_C 	C 	0.9522	0.755	0.1127	0.006
Mof_H 	H 	0.9718	0.7557	0.0878	0.021
Mof_C 	C 	0.9061	0.7583	0.1057	-0.076
Mof_C 	C 	0.8772	0.7554	0.1425	0.035
Mof_H 	H 	0.846	0.7572	0.1373	0.006
Mof_C 	C 	0.8336	0.7757	0.9219	0.515
Mof_C 	C 	0.8513	0.7718	0.9708	-0.224
Mof_C 	C 	0.828	0.7895	0.0087	0.136
Mof_H 	H 	0.8001	0.8041	0.0045	-0.019
Mof_C 	C 	0.8456	0.7854	0.0516	-0.21
Mof_H 	H 	0.8296	0.7975	0.0762	0.097
Mof_C 	C 	0.8864	0.7637	0.0592	0.141
Mof_C 	C 	0.9095	0.7449	0.0234	-0.205
Mof_H 	H 	0.9359	0.728	0.0283	0.095
Mof_C 	C 	0.8924	0.7515	0.9788	0.129
Mof_H 	H 	0.9098	0.7418	0.9541	-0.017
Mof_Yb	Yb	0.64433	0.24537	0.31707	1.818
Mof_N 	N 	0.6076	0.2498	0.6868	-0.17
Mof_O 	O 	0.3194	0.2501	0.7198	-0.547
Mof_O 	O 	0.31521	0.2925	0.6574	-0.529
Mof_O 	O 	0.64366	0.2439	0.39195	-0.587
Mof_O 	O 	0.7033	0.2033	0.41789	-0.561
Mof_O 	O 	0.72326	0.249	0.32474	-0.92
Mof_H 	H 	0.7321	0.2721	0.34	0.333
Mof_C 	C 	0.3407	0.2628	0.6838	0.472
Mof_C 	C 	0.3872	0.2664	0.6805	-0.289
Mof_C 	C 	0.4141	0.2426	0.712	0.156
Mof_H 	H 	0.4008	0.2311	0.7384	-0.029
Mof_C 	C 	0.4618	0.2358	0.7042	-0.227
Mof_H 	H 	0.4791	0.2189	0.7247	0.101
Mof_C 	C 	0.4814	0.2542	0.6667	0.166
Mof_C 	C 	0.4541	0.2769	0.636	-0.244
Mof_H 	H 	0.4672	0.2885	0.6096	0.109
Mof_C 	C 	0.4076	0.2831	0.643	0.19
Mof_H 	H 	0.3905	0.299	0.6215	-0.041
Mof_C 	C 	0.5622	0.2529	0.6908	0.051
Mof_H 	H 	0.5508	0.258	0.72	0.002
Mof_C 	C 	0.5303	0.2494	0.6558	-0.091
Mof_C 	C 	0.5478	0.245	0.6127	0.006
Mof_H 	H 	0.5282	0.2443	0.5878	0.021
Mof_C 	C 	0.5939	0.2417	0.6057	-0.075
Mof_C 	C 	0.6228	0.2446	0.6425	0.035
Mof_H 	H 	0.654	0.2428	0.6373	0.006
Mof_C 	C 	0.6664	0.2243	0.4219	0.515
Mof_C 	C 	0.6487	0.2282	0.4708	-0.224
Mof_C 	C 	0.672	0.2105	0.5087	0.136
Mof_H 	H 	0.6999	0.1959	0.5045	-0.019
Mof_C 	C 	0.6544	0.2146	0.5516	-0.21
Mof_H 	H 	0.6704	0.2025	0.5762	0.097
Mof_C 	C 	0.6136	0.2363	0.5592	0.141
Mof_C 	C 	0.5905	0.2551	0.5234	-0.205
Mof_H 	H 	0.5641	0.272	0.5283	0.095
Mof_C 	C 	0.6076	0.2485	0.4788	0.129
Mof_H 	H 	0.5902	0.2582	0.4541	-0.017
Mof_Yb	Yb	0.14433	0.25463	0.68293	1.818
Mof_N 	N 	0.1076	0.2502	0.3132	-0.17
Mof_O 	O 	0.8194	0.2499	0.2802	-0.547
Mof_O 	O 	0.81521	0.2075	0.3426	-0.529
Mof_O 	O 	0.14366	0.2561	0.60805	-0.587
Mof_O 	O 	0.2033	0.2967	0.58211	-0.561
Mof_O 	O 	0.22326	0.251	0.67526	-0.92
Mof_H 	H 	0.2321	0.2279	0.66	0.333
Mof_C 	C 	0.8407	0.2372	0.3162	0.472
Mof_C 	C 	0.8872	0.2336	0.3195	-0.289
Mof_C 	C 	0.9141	0.2574	0.288	0.156
Mof_H 	H 	0.9008	0.2689	0.2616	-0.029
Mof_C 	C 	0.9618	0.2642	0.2958	-0.227
Mof_H 	H 	0.9791	0.2811	0.2753	0.101
Mof_C 	C 	0.9814	0.2458	0.3333	0.166
Mof_C 	C 	0.9541	0.2231	0.364	-0.244
Mof_H 	H 	0.9672	0.2115	0.3904	0.109
Mof_C 	C 	0.9076	0.2169	0.357	0.19
Mof_H 	H 	0.8905	0.201	0.3785	-0.041
Mof_C 	C 	0.0622	0.2471	0.3092	0.051
Mof_H 	H 	0.0508	0.242	0.28	0.002
Mof_C 	C 	0.0303	0.2506	0.3442	-0.091
Mof_C 	C 	0.0478	0.255	0.3873	0.006
Mof_H 	H 	0.0282	0.2557	0.4122	0.021
Mof_C 	C 	0.0939	0.2583	0.3943	-0.075
Mof_C 	C 	0.1228	0.2554	0.3575	0.035
Mof_H 	H 	0.154	0.2572	0.3627	0.006
Mof_C 	C 	0.1664	0.2757	0.5781	0.515
Mof_C 	C 	0.1487	0.2718	0.5292	-0.224
Mof_C 	C 	0.172	0.2895	0.4913	0.136
Mof_H 	H 	0.1999	0.3041	0.4955	-0.019
Mof_C 	C 	0.1544	0.2854	0.4484	-0.21
Mof_H 	H 	0.1704	0.2975	0.4238	0.097
Mof_C 	C 	0.1136	0.2637	0.4408	0.141
Mof_C 	C 	0.0905	0.2449	0.4766	-0.205
Mof_H 	H 	0.0641	0.228	0.4717	0.095
Mof_C 	C 	0.1076	0.2515	0.5212	0.129
Mof_H 	H 	0.0902	0.2418	0.5459	-0.017
Mof_Yb	Yb	0.35567	0.74537	0.18293	1.818
Mof_N 	N 	0.3924	0.7498	0.8132	-0.17
Mof_O 	O 	0.6806	0.7501	0.7802	-0.547
Mof_O 	O 	0.68479	0.7925	0.8426	-0.529
Mof_O 	O 	0.35634	0.7439	0.10805	-0.587
Mof_O 	O 	0.2967	0.7033	0.08211	-0.561
Mof_O 	O 	0.27674	0.749	0.17526	-0.92
Mof_H 	H 	0.2679	0.7721	0.16	0.333
Mof_C 	C 	0.6593	0.7628	0.8162	0.472
Mof_C 	C 	0.6128	0.7664	0.8195	-0.289
Mof_C 	C 	0.5859	0.7426	0.788	0.156
Mof_H 	H 	0.5992	0.7311	0.7616	-0.029
Mof_C 	C 	0.5382	0.7358	0.7958	-0.227
Mof_H 	H 	0.5209	0.7189	0.7753	0.101
Mof_C 	C 	0.5186	0.7542	0.8333	0.166
Mof_C 	C 	0.5459	0.7769	0.864	-0.244
Mof_H 	H 	0.5328	0.7885	0.8904	0.109
Mof_C 	C 	0.5924	0.7831	0.857	0.19
Mof_H 	H 	0.6095	0.799	0.8785	-0.041
Mof_C 	C 	0.4378	0.7529	0.8092	0.051
Mof_H 	H 	0.4492	0.758	0.78	0.002
Mof_C 	C 	0.4697	0.7494	0.8442	-0.091
Mof_C 	C 	0.4522	0.745	0.8873	0.006
Mof_H 	H 	0.4718	0.7443	0.9122	0.021
Mof_C 	C 	0.4061	0.7417	0.8943	-0.075
Mof_C 	C 	0.3772	0.7446	0.8575	0.035
Mof_H 	H 	0.346	0.7428	0.8627	0.006
Mof_C 	C 	0.3336	0.7243	0.0781	0.515
Mof_C 	C 	0.3513	0.7282	0.0292	-0.224
Mof_C 	C 	0.328	0.7105	0.9913	0.136
Mof_H 	H 	0.3001	0.6959	0.9955	-0.019
Mof_C 	C 	0.3456	0.7146	0.9484	-0.21
Mof_H 	H 	0.3296	0.7025	0.9238	0.097
Mof_C 	C 	0.3864	0.7363	0.9408	0.141
Mof_C 	C 	0.4095	0.7551	0.9766	-0.205
Mof_H 	H 	0.4359	0.772	0.9717	0.095
Mof_C 	C 	0.3924	0.7485	0.0212	0.129
Mof_H 	H 	0.4098	0.7582	0.0459	-0.017
Mof_Yb	Yb	0.81707	0.85567	0.75463	1.818
Mof_N 	N 	0.1868	0.8924	0.7502	-0.17
Mof_O 	O 	0.2198	0.1806	0.7499	-0.547
Mof_O 	O 	0.1574	0.18479	0.7075	-0.529
Mof_O 	O 	0.89195	0.85634	0.7561	-0.587
Mof_O 	O 	0.91789	0.7967	0.7967	-0.561
Mof_O 	O 	0.82474	0.77674	0.751	-0.92
Mof_H 	H 	0.84	0.7679	0.7279	0.333
Mof_C 	C 	0.1838	0.1593	0.7372	0.472
Mof_C 	C 	0.1805	0.1128	0.7336	-0.289
Mof_C 	C 	0.212	0.0859	0.7574	0.156
Mof_H 	H 	0.2384	0.0992	0.7689	-0.029
Mof_C 	C 	0.2042	0.0382	0.7642	-0.227
Mof_H 	H 	0.2247	0.0209	0.7811	0.101
Mof_C 	C 	0.1667	0.0186	0.7458	0.166
Mof_C 	C 	0.136	0.0459	0.7231	-0.244
Mof_H 	H 	0.1096	0.0328	0.7115	0.109
Mof_C 	C 	0.143	0.0924	0.7169	0.19
Mof_H 	H 	0.1215	0.1095	0.701	-0.041
Mof_C 	C 	0.1908	0.9378	0.7471	0.051
Mof_H 	H 	0.22	0.9492	0.742	0.002
Mof_C 	C 	0.1558	0.9697	0.7506	-0.091
Mof_C 	C 	0.1127	0.9522	0.755	0.006
Mof_H 	H 	0.0878	0.9718	0.7557	0.021
Mof_C 	C 	0.1057	0.9061	0.7583	-0.076
Mof_C 	C 	0.1425	0.8772	0.7554	0.035
Mof_H 	H 	0.1373	0.846	0.7572	0.006
Mof_C 	C 	0.9219	0.8336	0.7757	0.515
Mof_C 	C 	0.9708	0.8513	0.7718	-0.224
Mof_C 	C 	0.0087	0.828	0.7895	0.136
Mof_H 	H 	0.0045	0.8001	0.8041	-0.019
Mof_C 	C 	0.0516	0.8456	0.7854	-0.21
Mof_H 	H 	0.0762	0.8296	0.7975	0.097
Mof_C 	C 	0.0592	0.8864	0.7637	0.141
Mof_C 	C 	0.0234	0.9095	0.7449	-0.205
Mof_H 	H 	0.0283	0.9359	0.728	0.095
Mof_C 	C 	0.9788	0.8924	0.7515	0.129
Mof_H 	H 	0.9541	0.9098	0.7418	-0.017
Mof_Yb	Yb	0.31707	0.64433	0.24537	1.818
Mof_N 	N 	0.6868	0.6076	0.2498	-0.17
Mof_O 	O 	0.7198	0.3194	0.2501	-0.547
Mof_O 	O 	0.6574	0.31521	0.2925	-0.529
Mof_O 	O 	0.39195	0.64366	0.2439	-0.587
Mof_O 	O 	0.41789	0.7033	0.2033	-0.561
Mof_O 	O 	0.32474	0.72326	0.249	-0.92
Mof_H 	H 	0.34	0.7321	0.2721	0.333
Mof_C 	C 	0.6838	0.3407	0.2628	0.472
Mof_C 	C 	0.6805	0.3872	0.2664	-0.289
Mof_C 	C 	0.712	0.4141	0.2426	0.156
Mof_H 	H 	0.7384	0.4008	0.2311	-0.029
Mof_C 	C 	0.7042	0.4618	0.2358	-0.227
Mof_H 	H 	0.7247	0.4791	0.2189	0.101
Mof_C 	C 	0.6667	0.4814	0.2542	0.166
Mof_C 	C 	0.636	0.4541	0.2769	-0.244
Mof_H 	H 	0.6096	0.4672	0.2885	0.109
Mof_C 	C 	0.643	0.4076	0.2831	0.19
Mof_H 	H 	0.6215	0.3905	0.299	-0.041
Mof_C 	C 	0.6908	0.5622	0.2529	0.051
Mof_H 	H 	0.72	0.5508	0.258	0.002
Mof_C 	C 	0.6558	0.5303	0.2494	-0.091
Mof_C 	C 	0.6127	0.5478	0.245	0.006
Mof_H 	H 	0.5878	0.5282	0.2443	0.021
Mof_C 	C 	0.6057	0.5939	0.2417	-0.075
Mof_C 	C 	0.6425	0.6228	0.2446	0.035
Mof_H 	H 	0.6373	0.654	0.2428	0.006
Mof_C 	C 	0.4219	0.6664	0.2243	0.515
Mof_C 	C 	0.4708	0.6487	0.2282	-0.224
Mof_C 	C 	0.5087	0.672	0.2105	0.136
Mof_H 	H 	0.5045	0.6999	0.1959	-0.019
Mof_C 	C 	0.5516	0.6544	0.2146	-0.21
Mof_H 	H 	0.5762	0.6704	0.2025	0.097
Mof_C 	C 	0.5592	0.6136	0.2363	0.141
Mof_C 	C 	0.5234	0.5905	0.2551	-0.205
Mof_H 	H 	0.5283	0.5641	0.272	0.095
Mof_C 	C 	0.4788	0.6076	0.2485	0.129
Mof_H 	H 	0.4541	0.5902	0.2582	-0.017
Mof_Yb	Yb	0.68293	0.14433	0.25463	1.818
Mof_N 	N 	0.3132	0.1076	0.2502	-0.17
Mof_O 	O 	0.2802	0.8194	0.2499	-0.547
Mof_O 	O 	0.3426	0.81521	0.2075	-0.529
Mof_O 	O 	0.60805	0.14366	0.2561	-0.587
Mof_O 	O 	0.58211	0.2033	0.2967	-0.561
Mof_O 	O 	0.67526	0.22326	0.251	-0.92
Mof_H 	H 	0.66	0.2321	0.2279	0.333
Mof_C 	C 	0.3162	0.8407	0.2372	0.472
Mof_C 	C 	0.3195	0.8872	0.2336	-0.289
Mof_C 	C 	0.288	0.9141	0.2574	0.156
Mof_H 	H 	0.2616	0.9008	0.2689	-0.029
Mof_C 	C 	0.2958	0.9618	0.2642	-0.227
Mof_H 	H 	0.2753	0.9791	0.2811	0.101
Mof_C 	C 	0.3333	0.9814	0.2458	0.166
Mof_C 	C 	0.364	0.9541	0.2231	-0.244
Mof_H 	H 	0.3904	0.9672	0.2115	0.109
Mof_C 	C 	0.357	0.9076	0.2169	0.19
Mof_H 	H 	0.3785	0.8905	0.201	-0.041
Mof_C 	C 	0.3092	0.0622	0.2471	0.051
Mof_H 	H 	0.28	0.0508	0.242	0.002
Mof_C 	C 	0.3442	0.0303	0.2506	-0.091
Mof_C 	C 	0.3873	0.0478	0.255	0.006
Mof_H 	H 	0.4122	0.0282	0.2557	0.021
Mof_C 	C 	0.3943	0.0939	0.2583	-0.075
Mof_C 	C 	0.3575	0.1228	0.2554	0.035
Mof_H 	H 	0.3627	0.154	0.2572	0.006
Mof_C 	C 	0.5781	0.1664	0.2757	0.515
Mof_C 	C 	0.5292	0.1487	0.2718	-0.224
Mof_C 	C 	0.4913	0.172	0.2895	0.136
Mof_H 	H 	0.4955	0.1999	0.3041	-0.019
Mof_C 	C 	0.4484	0.1544	0.2854	-0.21
Mof_H 	H 	0.4238	0.1704	0.2975	0.097
Mof_C 	C 	0.4408	0.1136	0.2637	0.141
Mof_C 	C 	0.4766	0.0905	0.2449	-0.205
Mof_H 	H 	0.4717	0.0641	0.228	0.095
Mof_C 	C 	0.5212	0.1076	0.2515	0.129
Mof_H 	H 	0.5459	0.0902	0.2418	-0.017
Mof_Yb	Yb	0.18293	0.35567	0.74537	1.818
Mof_N 	N 	0.8132	0.3924	0.7498	-0.17
Mof_O 	O 	0.7802	0.6806	0.7501	-0.547
Mof_O 	O 	0.8426	0.68479	0.7925	-0.529
Mof_O 	O 	0.10805	0.35634	0.7439	-0.587
Mof_O 	O 	0.08211	0.2967	0.7033	-0.561
Mof_O 	O 	0.17526	0.27674	0.749	-0.92
Mof_H 	H 	0.16	0.2679	0.7721	0.333
Mof_C 	C 	0.8162	0.6593	0.7628	0.472
Mof_C 	C 	0.8195	0.6128	0.7664	-0.289
Mof_C 	C 	0.788	0.5859	0.7426	0.156
Mof_H 	H 	0.7616	0.5992	0.7311	-0.029
Mof_C 	C 	0.7958	0.5382	0.7358	-0.227
Mof_H 	H 	0.7753	0.5209	0.7189	0.101
Mof_C 	C 	0.8333	0.5186	0.7542	0.166
Mof_C 	C 	0.864	0.5459	0.7769	-0.244
Mof_H 	H 	0.8904	0.5328	0.7885	0.109
Mof_C 	C 	0.857	0.5924	0.7831	0.19
Mof_H 	H 	0.8785	0.6095	0.799	-0.041
Mof_C 	C 	0.8092	0.4378	0.7529	0.051
Mof_H 	H 	0.78	0.4492	0.758	0.002
Mof_C 	C 	0.8442	0.4697	0.7494	-0.091
Mof_C 	C 	0.8873	0.4522	0.745	0.006
Mof_H 	H 	0.9122	0.4718	0.7443	0.021
Mof_C 	C 	0.8943	0.4061	0.7417	-0.075
Mof_C 	C 	0.8575	0.3772	0.7446	0.035
Mof_H 	H 	0.8627	0.346	0.7428	0.006
Mof_C 	C 	0.0781	0.3336	0.7243	0.515
Mof_C 	C 	0.0292	0.3513	0.7282	-0.224
Mof_C 	C 	0.9913	0.328	0.7105	0.136
Mof_H 	H 	0.9955	0.3001	0.6959	-0.019
Mof_C 	C 	0.9484	0.3456	0.7146	-0.21
Mof_H 	H 	0.9238	0.3296	0.7025	0.097
Mof_C 	C 	0.9408	0.3864	0.7363	0.141
Mof_C 	C 	0.9766	0.4095	0.7551	-0.205
Mof_H 	H 	0.9717	0.4359	0.772	0.095
Mof_C 	C 	0.0212	0.3924	0.7485	0.129
Mof_H 	H 	0.0459	0.4098	0.7582	-0.017
Mof_Yb	Yb	0.75463	0.81707	0.85567	1.818
Mof_N 	N 	0.7502	0.1868	0.8924	-0.17
Mof_O 	O 	0.7499	0.2198	0.1806	-0.547
Mof_O 	O 	0.7075	0.1574	0.18479	-0.529
Mof_O 	O 	0.7561	0.89195	0.85634	-0.587
Mof_O 	O 	0.7967	0.91789	0.7967	-0.561
Mof_O 	O 	0.751	0.82474	0.77674	-0.92
Mof_H 	H 	0.7279	0.84	0.7679	0.333
Mof_C 	C 	0.7372	0.1838	0.1593	0.472
Mof_C 	C 	0.7336	0.1805	0.1128	-0.289
Mof_C 	C 	0.7574	0.212	0.0859	0.156
Mof_H 	H 	0.7689	0.2384	0.0992	-0.029
Mof_C 	C 	0.7642	0.2042	0.0382	-0.227
Mof_H 	H 	0.7811	0.2247	0.0209	0.101
Mof_C 	C 	0.7458	0.1667	0.0186	0.166
Mof_C 	C 	0.7231	0.136	0.0459	-0.244
Mof_H 	H 	0.7115	0.1096	0.0328	0.109
Mof_C 	C 	0.7169	0.143	0.0924	0.19
Mof_H 	H 	0.701	0.1215	0.1095	-0.041
Mof_C 	C 	0.7471	0.1908	0.9378	0.051
Mof_H 	H 	0.742	0.22	0.9492	0.002
Mof_C 	C 	0.7506	0.1558	0.9697	-0.091
Mof_C 	C 	0.755	0.1127	0.9522	0.006
Mof_H 	H 	0.7557	0.0878	0.9718	0.021
Mof_C 	C 	0.7583	0.1057	0.9061	-0.076
Mof_C 	C 	0.7554	0.1425	0.8772	0.035
Mof_H 	H 	0.7572	0.1373	0.846	0.006
Mof_C 	C 	0.7757	0.9219	0.8336	0.515
Mof_C 	C 	0.7718	0.9708	0.8513	-0.224
Mof_C 	C 	0.7895	0.0087	0.828	0.136
Mof_H 	H 	0.8041	0.0045	0.8001	-0.019
Mof_C 	C 	0.7854	0.0516	0.8456	-0.21
Mof_H 	H 	0.7975	0.0762	0.8296	0.097
Mof_C 	C 	0.7637	0.0592	0.8864	0.141
Mof_C 	C 	0.7449	0.0234	0.9095	-0.205
Mof_H 	H 	0.728	0.0283	0.9359	0.095
Mof_C 	C 	0.7515	0.9788	0.8924	0.129
Mof_H 	H 	0.7418	0.9541	0.9098	-0.017
Mof_Yb	Yb	0.24537	0.31707	0.64433	1.818
Mof_N 	N 	0.2498	0.6868	0.6076	-0.17
Mof_O 	O 	0.2501	0.7198	0.3194	-0.547
Mof_O 	O 	0.2925	0.6574	0.31521	-0.529
Mof_O 	O 	0.2439	0.39195	0.64366	-0.587
Mof_O 	O 	0.2033	0.41789	0.7033	-0.561
Mof_O 	O 	0.249	0.32474	0.72326	-0.92
Mof_H 	H 	0.2721	0.34	0.7321	0.333
Mof_C 	C 	0.2628	0.6838	0.3407	0.472
Mof_C 	C 	0.2664	0.6805	0.3872	-0.289
Mof_C 	C 	0.2426	0.712	0.4141	0.156
Mof_H 	H 	0.2311	0.7384	0.4008	-0.029
Mof_C 	C 	0.2358	0.7042	0.4618	-0.227
Mof_H 	H 	0.2189	0.7247	0.4791	0.101
Mof_C 	C 	0.2542	0.6667	0.4814	0.166
Mof_C 	C 	0.2769	0.636	0.4541	-0.244
Mof_H 	H 	0.2885	0.6096	0.4672	0.109
Mof_C 	C 	0.2831	0.643	0.4076	0.19
Mof_H 	H 	0.299	0.6215	0.3905	-0.041
Mof_C 	C 	0.2529	0.6908	0.5622	0.051
Mof_H 	H 	0.258	0.72	0.5508	0.002
Mof_C 	C 	0.2494	0.6558	0.5303	-0.091
Mof_C 	C 	0.245	0.6127	0.5478	0.006
Mof_H 	H 	0.2443	0.5878	0.5282	0.021
Mof_C 	C 	0.2417	0.6057	0.5939	-0.075
Mof_C 	C 	0.2446	0.6425	0.6228	0.035
Mof_H 	H 	0.2428	0.6373	0.654	0.006
Mof_C 	C 	0.2243	0.4219	0.6664	0.515
Mof_C 	C 	0.2282	0.4708	0.6487	-0.224
Mof_C 	C 	0.2105	0.5087	0.672	0.136
Mof_H 	H 	0.1959	0.5045	0.6999	-0.019
Mof_C 	C 	0.2146	0.5516	0.6544	-0.21
Mof_H 	H 	0.2025	0.5762	0.6704	0.097
Mof_C 	C 	0.2363	0.5592	0.6136	0.141
Mof_C 	C 	0.2551	0.5234	0.5905	-0.205
Mof_H 	H 	0.272	0.5283	0.5641	0.095
Mof_C 	C 	0.2485	0.4788	0.6076	0.129
Mof_H 	H 	0.2582	0.4541	0.5902	-0.017
Mof_Yb	Yb	0.25463	0.68293	0.14433	1.818
Mof_N 	N 	0.2502	0.3132	0.1076	-0.17
Mof_O 	O 	0.2499	0.2802	0.8194	-0.547
Mof_O 	O 	0.2075	0.3426	0.81521	-0.529
Mof_O 	O 	0.2561	0.60805	0.14366	-0.587
Mof_O 	O 	0.2967	0.58211	0.2033	-0.561
Mof_O 	O 	0.251	0.67526	0.22326	-0.92
Mof_H 	H 	0.2279	0.66	0.2321	0.333
Mof_C 	C 	0.2372	0.3162	0.8407	0.472
Mof_C 	C 	0.2336	0.3195	0.8872	-0.289
Mof_C 	C 	0.2574	0.288	0.9141	0.156
Mof_H 	H 	0.2689	0.2616	0.9008	-0.029
Mof_C 	C 	0.2642	0.2958	0.9618	-0.227
Mof_H 	H 	0.2811	0.2753	0.9791	0.101
Mof_C 	C 	0.2458	0.3333	0.9814	0.166
Mof_C 	C 	0.2231	0.364	0.9541	-0.244
Mof_H 	H 	0.2115	0.3904	0.9672	0.109
Mof_C 	C 	0.2169	0.357	0.9076	0.19
Mof_H 	H 	0.201	0.3785	0.8905	-0.041
Mof_C 	C 	0.2471	0.3092	0.0622	0.051
Mof_H 	H 	0.242	0.28	0.0508	0.002
Mof_C 	C 	0.2506	0.3442	0.0303	-0.091
Mof_C 	C 	0.255	0.3873	0.0478	0.006
Mof_H 	H 	0.2557	0.4122	0.0282	0.021
Mof_C 	C 	0.2583	0.3943	0.0939	-0.075
Mof_C 	C 	0.2554	0.3575	0.1228	0.035
Mof_H 	H 	0.2572	0.3627	0.154	0.006
Mof_C 	C 	0.2757	0.5781	0.1664	0.515
Mof_C 	C 	0.2718	0.5292	0.1487	-0.224
Mof_C 	C 	0.2895	0.4913	0.172	0.136
Mof_H 	H 	0.3041	0.4955	0.1999	-0.019
Mof_C 	C 	0.2854	0.4484	0.1544	-0.21
Mof_H 	H 	0.2975	0.4238	0.1704	0.097
Mof_C 	C 	0.2637	0.4408	0.1136	0.141
Mof_C 	C 	0.2449	0.4766	0.0905	-0.205
Mof_H 	H 	0.228	0.4717	0.0641	0.095
Mof_C 	C 	0.2515	0.5212	0.1076	0.129
Mof_H 	H 	0.2418	0.5459	0.0902	-0.017
Mof_Yb	Yb	0.74537	0.18293	0.35567	1.818
Mof_N 	N 	0.7498	0.8132	0.3924	-0.17
Mof_O 	O 	0.7501	0.7802	0.6806	-0.547
Mof_O 	O 	0.7925	0.8426	0.68479	-0.529
Mof_O 	O 	0.7439	0.10805	0.35634	-0.587
Mof_O 	O 	0.7033	0.08211	0.2967	-0.561
Mof_O 	O 	0.749	0.17526	0.27674	-0.92
Mof_H 	H 	0.7721	0.16	0.2679	0.333
Mof_C 	C 	0.7628	0.8162	0.6593	0.472
Mof_C 	C 	0.7664	0.8195	0.6128	-0.289
Mof_C 	C 	0.7426	0.788	0.5859	0.156
Mof_H 	H 	0.7311	0.7616	0.5992	-0.029
Mof_C 	C 	0.7358	0.7958	0.5382	-0.227
Mof_H 	H 	0.7189	0.7753	0.5209	0.101
Mof_C 	C 	0.7542	0.8333	0.5186	0.166
Mof_C 	C 	0.7769	0.864	0.5459	-0.244
Mof_H 	H 	0.7885	0.8904	0.5328	0.109
Mof_C 	C 	0.7831	0.857	0.5924	0.19
Mof_H 	H 	0.799	0.8785	0.6095	-0.041
Mof_C 	C 	0.7529	0.8092	0.4378	0.051
Mof_H 	H 	0.758	0.78	0.4492	0.002
Mof_C 	C 	0.7494	0.8442	0.4697	-0.091
Mof_C 	C 	0.745	0.8873	0.4522	0.006
Mof_H 	H 	0.7443	0.9122	0.4718	0.021
Mof_C 	C 	0.7417	0.8943	0.4061	-0.075
Mof_C 	C 	0.7446	0.8575	0.3772	0.035
Mof_H 	H 	0.7428	0.8627	0.346	0.006
Mof_C 	C 	0.7243	0.0781	0.3336	0.515
Mof_C 	C 	0.7282	0.0292	0.3513	-0.224
Mof_C 	C 	0.7105	0.9913	0.328	0.136
Mof_H 	H 	0.6959	0.9955	0.3001	-0.019
Mof_C 	C 	0.7146	0.9484	0.3456	-0.21
Mof_H 	H 	0.7025	0.9238	0.3296	0.097
Mof_C 	C 	0.7363	0.9408	0.3864	0.141
Mof_C 	C 	0.7551	0.9766	0.4095	-0.205
Mof_H 	H 	0.772	0.9717	0.4359	0.095
Mof_C 	C 	0.7485	0.0212	0.3924	0.129
Mof_H 	H 	0.7582	0.0459	0.4098	-0.017
Mof_Yb	Yb	0.25046	0.74954	0.24954	1.799
Mof_Yb	Yb	0.24954	0.25046	0.74954	1.799
Mof_Yb	Yb	0.74954	0.24954	0.25046	1.799
Mof_Yb	Yb	0.75046	0.75046	0.75046	1.799
Mof_O 	O 	0.82743	0.82743	0.82743	-0.898
Mof_H 	H 	0.84413	0.84413	0.84413	0.316
Mof_O 	O 	0.67257	0.17257	0.32743	-0.898
Mof_H 	H 	0.65587	0.15587	0.34413	0.316
Mof_O 	O 	0.17257	0.32743	0.67257	-0.898
Mof_H 	H 	0.15587	0.34413	0.65587	0.316
Mof_O 	O 	0.32743	0.67257	0.17257	-0.898
Mof_H 	H 	0.34413	0.65587	0.15587	0.316
_end
