data_functionalizedCrystal
_audit_creation_method	'EQeq! by Chris Wilmer'
_symmetry_space_group_name_H-M	'P1'
_symmetry_Int_Tables_number	1
_symmetry_cell_setting	triclinic
loop_
_symmetry_equiv_pos_as_xyz
  x,y,z
_cell_length_a	8.3081
_cell_length_b	9.1647
_cell_length_c	9.1839
_cell_angle_alpha	62.781
_cell_angle_beta	79.029
_cell_angle_gamma	87.088
loop_
_atom_site_label
_atom_site_type_symbol
_atom_site_fract_x
_atom_site_fract_y
_atom_site_fract_z
_atom_site_charge
Mof_Fe	Fe	0.24056	0.57637	0.42962	0.847
Mof_Fe	Fe	0.75944	0.42363	0.57038	0.847
Mof_P 	P 	0.57926	0.53316	0.24194	0.456
Mof_P 	P 	0.05694	0.25198	0.4654	0.455
Mof_P 	P 	0.42074	0.46684	0.75806	0.456
Mof_P 	P 	0.94306	0.74802	0.5346	0.455
Mof_H 	H 	0.6948	0.7597	0.9978	0.114
Mof_H 	H 	0.6134	0.6382	0.9547	0.125
Mof_H 	H 	0.1433	0.0152	0.671	0.118
Mof_H 	H 	0.2107	0.1695	0.6746	0.102
Mof_H 	H 	0.9813	0.7464	0.018	0.057
Mof_H 	H 	0.9551	0.5689	0.1683	0.076
Mof_H 	H 	0.8236	0.3473	0.1363	0.077
Mof_H 	H 	0.7702	0.3897	0.9667	0.067
Mof_H 	H 	0.4872	0.1137	0.6829	0.057
Mof_H 	H 	0.433	0.9336	0.7299	0.065
Mof_H 	H 	0.3064	0.8813	0.5328	0.077
Mof_H 	H 	0.282	0.0286	0.3629	0.082
Mof_H 	H 	0.3052	0.2403	0.0022	0.114
Mof_H 	H 	0.3866	0.3618	0.0453	0.125
Mof_H 	H 	0.8567	0.9848	0.329	0.118
Mof_H 	H 	0.7893	0.8305	0.3254	0.102
Mof_H 	H 	0.0187	0.2536	0.982	0.057
Mof_H 	H 	0.0449	0.4311	0.8317	0.076
Mof_H 	H 	0.1764	0.6527	0.8637	0.077
Mof_H 	H 	0.2298	0.6103	0.0333	0.067
Mof_H 	H 	0.5128	0.8863	0.3171	0.057
Mof_H 	H 	0.567	0.0664	0.2701	0.065
Mof_H 	H 	0.6936	0.1187	0.4672	0.077
Mof_H 	H 	0.718	0.9714	0.6371	0.082
Mof_C 	C 	0.6842	0.6449	0.0243	-0.226
Mof_C 	C 	0.1959	0.1234	0.6014	-0.223
Mof_C 	C 	0.9806	0.6304	0.0477	-0.061
Mof_C 	C 	0.8519	0.4134	0.0164	-0.067
Mof_C 	C 	0.4777	0.0377	0.638	-0.062
Mof_C 	C 	0.3533	0.9863	0.4444	-0.073
Mof_C 	C 	0.3158	0.3551	0.9757	-0.226
Mof_C 	C 	0.8041	0.8766	0.3986	-0.223
Mof_C 	C 	0.0194	0.3696	0.9523	-0.061
Mof_C 	C 	0.1481	0.5866	0.9836	-0.067
Mof_C 	C 	0.5223	0.9623	0.362	-0.062
Mof_C 	C 	0.6467	0.0137	0.5556	-0.073
Mof_N 	N 	0.8516	0.5914	0.9745	-0.049
Mof_N 	N 	0.3627	0.1037	0.5155	-0.053
Mof_N 	N 	0.1484	0.4086	0.0255	-0.049
Mof_N 	N 	0.6373	0.8963	0.4845	-0.053
Mof_O 	O 	0.442	0.6477	0.2514	-0.362
Mof_O 	O 	0.7027	0.5231	0.3479	-0.377
Mof_O 	O 	0.1274	0.4283	0.3786	-0.37
Mof_O 	O 	0.8991	0.2327	0.5915	-0.361
Mof_O 	O 	0.5186	0.368	0.2709	-0.254
Mof_O 	O 	0.042	0.1941	0.339	-0.237
Mof_O 	O 	0.558	0.3523	0.7486	-0.362
Mof_O 	O 	0.2973	0.4769	0.6521	-0.377
Mof_O 	O 	0.8726	0.5717	0.6214	-0.37
Mof_O 	O 	0.1009	0.7673	0.4085	-0.361
Mof_O 	O 	0.4814	0.632	0.7291	-0.254
Mof_O 	O 	0.958	0.8059	0.661	-0.237
_end
