data_functionalizedCrystal
_audit_creation_method	'EQeq! by Chris Wilmer'
_symmetry_space_group_name_H-M	'P1'
_symmetry_Int_Tables_number	1
_symmetry_cell_setting	triclinic
loop_
_symmetry_equiv_pos_as_xyz
  x,y,z
_cell_length_a	35.9096
_cell_length_b	35.9096
_cell_length_c	51.3533
_cell_angle_alpha	90
_cell_angle_beta	90
_cell_angle_gamma	90
loop_
_atom_site_label
_atom_site_type_symbol
_atom_site_fract_x
_atom_site_fract_y
_atom_site_fract_z
_atom_site_charge
Mof_Zn	Zn	0.91608	0.13276	0.39014	1.23
Mof_Zn	Zn	0.88789	0.17682	0.35366	1.23
Mof_O 	O 	0.94175	0.09911	0.41974	-0.455
Mof_H 	H 	0.9294	0.0801	0.4219	0.256
Mof_O 	O 	0.86475	0.21152	0.32397	-0.458
Mof_H 	H 	0.8434	0.2047	0.3207	0.256
Mof_O 	O 	0.72551	0.09627	0.47271	-0.494
Mof_O 	O 	0.86695	0.13827	0.40666	-0.461
Mof_O 	O 	0.78637	0.08453	0.47307	-0.48
Mof_O 	O 	0.84242	0.17294	0.37482	-0.473
Mof_C 	C 	0.73264	0.14274	0.43001	-0.071
Mof_H 	H 	0.709	0.1397	0.4371	0.078
Mof_C 	C 	0.76346	0.12566	0.441	-0.053
Mof_C 	C 	0.75759	0.09949	0.46408	0.389
Mof_C 	C 	0.7989	0.13035	0.43054	0.001
Mof_H 	H 	0.8194	0.1191	0.4384	0.069
Mof_N 	N 	0.70601	0.18089	0.39542	-0.087
Mof_C 	C 	0.80342	0.152	0.40824	-0.047
Mof_C 	C 	0.84104	0.15444	0.39477	0.382
Mof_C 	C 	0.77265	0.16916	0.39679	-0.071
Mof_H 	H 	0.7754	0.1835	0.3818	0.091
Mof_C 	C 	0.73821	0.16447	0.4081	0.099
Mof_C 	C 	0.67137	0.16826	0.3949	-0.021
Mof_H 	H 	0.6623	0.1466	0.4025	0.046
Mof_N 	N 	0.70935	0.21459	0.38378	-0.04
Mof_C 	C 	0.65216	0.19376	0.38094	0.08
Mof_C 	C 	0.61299	0.19537	0.373	-0.06
Mof_N 	N 	0.67609	0.22199	0.37511	-0.078
Mof_C 	C 	0.59208	0.16494	0.37445	0.054
Mof_H 	H 	0.6024	0.1433	0.3812	0.017
Mof_C 	C 	0.59629	0.228	0.36555	0.051
Mof_H 	H 	0.6091	0.2505	0.366	0.029
Mof_C 	C 	0.55961	0.2262	0.35728	-0.183
Mof_H 	H 	0.5484	0.2481	0.3516	0.104
Mof_C 	C 	0.55515	0.1645	0.36607	-0.193
Mof_H 	H 	0.5416	0.1425	0.3669	0.105
Mof_C 	C 	0.5392	0.1948	0.35699	0.18
Mof_N 	N 	0.50096	0.19555	0.34915	-0.205
Mof_C 	C 	0.49024	0.216	0.32718	0.218
Mof_C 	C 	0.51081	0.2205	0.30684	-0.231
Mof_H 	H 	0.5342	0.2093	0.307	0.119
Mof_C 	C 	0.45909	0.236	0.3277	-0.216
Mof_H 	H 	0.4437	0.2353	0.3422	0.116
Mof_C 	C 	0.47486	0.1732	0.36231	0.19
Mof_C 	C 	0.44448	0.1623	0.35237	-0.199
Mof_H 	H 	0.4391	0.1702	0.3355	0.107
Mof_C 	C 	0.50128	0.24055	0.28459	0.093
Mof_H 	H 	0.5173	0.2412	0.2704	0.005
Mof_C 	C 	0.47033	0.258	0.28398	-0.089
Mof_C 	C 	0.44949	0.2584	0.30607	0.077
Mof_H 	H 	0.4286	0.2736	0.307	0.022
Mof_C 	C 	0.4218	0.1306	0.38851	-0.05
Mof_C 	C 	0.4179	0.139	0.36481	0.053
Mof_H 	H 	0.3976	0.1299	0.3555	0.019
Mof_C 	C 	0.44821	0.1511	0.40325	0.035
Mof_H 	H 	0.447	0.1527	0.4213	0.035
Mof_C 	C 	0.47675	0.1693	0.38851	-0.172
Mof_H 	H 	0.4973	0.1788	0.3973	0.1
Mof_N 	N 	0.45571	0.31126	0.22565	-0.088
Mof_C 	C 	0.47778	0.29141	0.2402	-0.023
Mof_H 	H 	0.5023	0.2854	0.2362	0.051
Mof_C 	C 	0.46015	0.2812	0.26141	0.093
Mof_N 	N 	0.3457	0.07812	0.41558	-0.09
Mof_C 	C 	0.35887	0.09842	0.39647	-0.016
Mof_H 	H 	0.3459	0.1056	0.3816	0.048
Mof_N 	N 	0.37042	0.07851	0.43605	-0.042
Mof_N 	N 	0.40023	0.0968	0.4273	-0.077
Mof_C 	C 	0.3933	0.1069	0.40186	0.075
Mof_N 	N 	0.42505	0.317	0.2389	-0.039
Mof_N 	N 	0.42718	0.2985	0.26039	-0.081
Mof_C 	C 	0.50001	0.34656	0.16549	-0.05
Mof_C 	C 	0.49564	0.32914	0.18984	-0.072
Mof_H 	H 	0.5158	0.3181	0.1982	0.084
Mof_C 	C 	0.4301	0.34464	0.1892	-0.076
Mof_H 	H 	0.4067	0.3433	0.197	0.093
Mof_C 	C 	0.46036	0.32883	0.20106	0.104
Mof_C 	C 	0.2393	0.03748	0.43141	-0.009
Mof_H 	H 	0.2154	0.0298	0.4359	0.073
Mof_C 	C 	0.2445	0.06255	0.41146	-0.042
Mof_C 	C 	0.27019	0.0236	0.4449	-0.043
Mof_C 	C 	0.2795	0.07572	0.40577	-0.077
Mof_H 	H 	0.283	0.0929	0.3924	0.085
Mof_C 	C 	0.30497	0.03642	0.43926	-0.076
Mof_H 	H 	0.3255	0.0272	0.4483	0.09
Mof_C 	C 	0.30968	0.06289	0.42028	0.105
Mof_C 	C 	0.40108	0.37895	0.15198	0.372
Mof_C 	C 	0.53688	0.34587	0.1517	0.381
Mof_C 	C 	0.46951	0.36334	0.15403	-0.002
Mof_H 	H 	0.4724	0.3754	0.1381	0.072
Mof_C 	C 	0.43451	0.3626	0.16569	-0.045
Mof_C 	C 	0.21112	0.07598	0.39629	0.366
Mof_C 	C 	0.26418	0.99394	0.46578	0.384
Mof_O 	O 	0.53995	0.3658	0.13224	-0.463
Mof_O 	O 	0.40817	0.39561	0.1311	-0.46
Mof_O 	O 	0.56226	0.32668	0.16167	-0.455
Mof_O 	O 	0.37066	0.3744	0.16279	-0.468
Mof_O 	O 	0.17973	0.0686	0.40553	-0.457
Mof_O 	O 	0.21716	0.09485	0.37622	-0.452
Mof_O 	O 	0.23155	0.99026	0.47299	-0.481
Mof_O 	O 	0.29292	0.97833	0.47344	-0.479
Mof_Zn	Zn	0.41608	0.63276	0.89014	1.229
Mof_Zn	Zn	0.38789	0.67682	0.85366	1.229
Mof_O 	O 	0.44175	0.59911	0.91974	-0.455
Mof_H 	H 	0.4294	0.5801	0.9219	0.255
Mof_O 	O 	0.36475	0.71152	0.82397	-0.459
Mof_H 	H 	0.3434	0.7047	0.8207	0.255
Mof_O 	O 	0.22551	0.59627	0.97271	-0.494
Mof_O 	O 	0.36695	0.63827	0.90666	-0.462
Mof_O 	O 	0.28637	0.58453	0.97307	-0.481
Mof_O 	O 	0.34242	0.67294	0.87482	-0.474
Mof_C 	C 	0.23264	0.64274	0.93001	-0.072
Mof_H 	H 	0.209	0.6397	0.9371	0.077
Mof_C 	C 	0.26346	0.62566	0.941	-0.053
Mof_C 	C 	0.25759	0.59949	0.96408	0.388
Mof_C 	C 	0.2989	0.63035	0.93054	-0.001
Mof_H 	H 	0.3194	0.6191	0.9384	0.068
Mof_N 	N 	0.20601	0.68089	0.89542	-0.088
Mof_C 	C 	0.30342	0.652	0.90824	-0.048
Mof_C 	C 	0.34104	0.65444	0.89477	0.381
Mof_C 	C 	0.27265	0.66916	0.89679	-0.072
Mof_H 	H 	0.2754	0.6835	0.8818	0.09
Mof_C 	C 	0.23821	0.66447	0.9081	0.098
Mof_C 	C 	0.17137	0.66826	0.8949	-0.022
Mof_H 	H 	0.1623	0.6466	0.9025	0.045
Mof_N 	N 	0.20935	0.71459	0.88378	-0.041
Mof_C 	C 	0.15216	0.69376	0.88094	0.079
Mof_C 	C 	0.11299	0.69537	0.873	-0.061
Mof_N 	N 	0.17609	0.72199	0.87511	-0.079
Mof_C 	C 	0.09208	0.66494	0.87445	0.053
Mof_H 	H 	0.1024	0.6433	0.8812	0.016
Mof_C 	C 	0.09629	0.728	0.86555	0.05
Mof_H 	H 	0.1091	0.7505	0.866	0.028
Mof_C 	C 	0.05961	0.7262	0.85728	-0.184
Mof_H 	H 	0.0484	0.7481	0.8516	0.103
Mof_C 	C 	0.05515	0.6645	0.86607	-0.193
Mof_H 	H 	0.0416	0.6425	0.8669	0.104
Mof_C 	C 	0.0392	0.6948	0.85699	0.179
Mof_N 	N 	0.00096	0.69555	0.84915	-0.206
Mof_C 	C 	0.99024	0.716	0.82718	0.217
Mof_C 	C 	0.01081	0.7205	0.80684	-0.232
Mof_H 	H 	0.0342	0.7093	0.807	0.118
Mof_C 	C 	0.95909	0.736	0.8277	-0.217
Mof_H 	H 	0.9437	0.7353	0.8422	0.115
Mof_C 	C 	0.97486	0.6732	0.86231	0.189
Mof_C 	C 	0.94448	0.6623	0.85237	-0.2
Mof_H 	H 	0.9391	0.6702	0.8355	0.106
Mof_C 	C 	0.00128	0.74055	0.78459	0.092
Mof_H 	H 	0.0173	0.7412	0.7704	0.004
Mof_C 	C 	0.97033	0.758	0.78398	-0.09
Mof_C 	C 	0.94949	0.7584	0.80607	0.076
Mof_H 	H 	0.9286	0.7736	0.807	0.021
Mof_C 	C 	0.9218	0.6306	0.88851	-0.051
Mof_C 	C 	0.9179	0.639	0.86481	0.051
Mof_H 	H 	0.8976	0.6299	0.8555	0.018
Mof_C 	C 	0.94821	0.6511	0.90325	0.034
Mof_H 	H 	0.947	0.6527	0.9213	0.035
Mof_C 	C 	0.97675	0.6693	0.88851	-0.173
Mof_H 	H 	0.9973	0.6788	0.8973	0.099
Mof_N 	N 	0.95571	0.81126	0.72565	-0.089
Mof_C 	C 	0.97778	0.79141	0.7402	-0.024
Mof_H 	H 	0.0023	0.7854	0.7362	0.05
Mof_C 	C 	0.96015	0.7812	0.76141	0.092
Mof_N 	N 	0.8457	0.57812	0.91558	-0.091
Mof_C 	C 	0.85887	0.59842	0.89647	-0.016
Mof_H 	H 	0.8459	0.6056	0.8816	0.047
Mof_N 	N 	0.87042	0.57851	0.93605	-0.043
Mof_N 	N 	0.90023	0.5968	0.9273	-0.078
Mof_C 	C 	0.8933	0.6069	0.90186	0.074
Mof_N 	N 	0.92505	0.817	0.7389	-0.04
Mof_N 	N 	0.92718	0.7985	0.76039	-0.082
Mof_C 	C 	1e-05	0.84656	0.66549	-0.051
Mof_C 	C 	0.99564	0.82914	0.68984	-0.073
Mof_H 	H 	0.0158	0.8181	0.6982	0.084
Mof_C 	C 	0.9301	0.84464	0.6892	-0.076
Mof_H 	H 	0.9067	0.8433	0.697	0.093
Mof_C 	C 	0.96036	0.82883	0.70106	0.104
Mof_C 	C 	0.7393	0.53748	0.93141	-0.009
Mof_H 	H 	0.7154	0.5298	0.9359	0.073
Mof_C 	C 	0.7445	0.56255	0.91146	-0.042
Mof_C 	C 	0.77019	0.5236	0.9449	-0.043
Mof_C 	C 	0.7795	0.57572	0.90577	-0.077
Mof_H 	H 	0.783	0.5929	0.8924	0.085
Mof_C 	C 	0.80497	0.53642	0.93926	-0.076
Mof_H 	H 	0.8255	0.5272	0.9483	0.09
Mof_C 	C 	0.80968	0.56289	0.92028	0.105
Mof_C 	C 	0.90108	0.87895	0.65198	0.372
Mof_C 	C 	0.03688	0.84587	0.6517	0.381
Mof_C 	C 	0.96951	0.86334	0.65403	-0.002
Mof_H 	H 	0.9724	0.8754	0.6381	0.072
Mof_C 	C 	0.93451	0.8626	0.66569	-0.045
Mof_C 	C 	0.71112	0.57598	0.89629	0.366
Mof_C 	C 	0.76418	0.49394	0.96578	0.384
Mof_O 	O 	0.03995	0.8658	0.63224	-0.463
Mof_O 	O 	0.90817	0.89561	0.6311	-0.46
Mof_O 	O 	0.06226	0.82668	0.66167	-0.455
Mof_O 	O 	0.87066	0.8744	0.66279	-0.468
Mof_O 	O 	0.67973	0.5686	0.90553	-0.457
Mof_O 	O 	0.71716	0.59485	0.87622	-0.452
Mof_O 	O 	0.73155	0.49026	0.97299	-0.48
Mof_O 	O 	0.79292	0.47833	0.97344	-0.478
Mof_Zn	Zn	0.08392	0.86724	0.39014	1.229
Mof_Zn	Zn	0.11211	0.82318	0.35366	1.229
Mof_O 	O 	0.05825	0.90089	0.41974	-0.456
Mof_H 	H 	0.0706	0.9199	0.4219	0.255
Mof_O 	O 	0.13525	0.78848	0.32397	-0.459
Mof_H 	H 	0.1566	0.7953	0.3207	0.255
Mof_O 	O 	0.27449	0.90373	0.47271	-0.495
Mof_O 	O 	0.13305	0.86173	0.40666	-0.462
Mof_O 	O 	0.21363	0.91547	0.47307	-0.481
Mof_O 	O 	0.15758	0.82706	0.37482	-0.474
Mof_C 	C 	0.26736	0.85726	0.43001	-0.072
Mof_H 	H 	0.291	0.8603	0.4371	0.077
Mof_C 	C 	0.23654	0.87434	0.441	-0.054
Mof_C 	C 	0.24241	0.90051	0.46408	0.388
Mof_C 	C 	0.2011	0.86965	0.43054	-0
Mof_H 	H 	0.1806	0.8809	0.4384	0.068
Mof_N 	N 	0.29399	0.81911	0.39542	-0.088
Mof_C 	C 	0.19658	0.848	0.40824	-0.048
Mof_C 	C 	0.15896	0.84556	0.39477	0.381
Mof_C 	C 	0.22735	0.83084	0.39679	-0.072
Mof_H 	H 	0.2246	0.8165	0.3818	0.09
Mof_C 	C 	0.26179	0.83553	0.4081	0.098
Mof_C 	C 	0.32863	0.83174	0.3949	-0.022
Mof_H 	H 	0.3377	0.8534	0.4025	0.045
Mof_N 	N 	0.29065	0.78541	0.38378	-0.041
Mof_C 	C 	0.34784	0.80624	0.38094	0.079
Mof_C 	C 	0.38701	0.80463	0.373	-0.061
Mof_N 	N 	0.32391	0.77801	0.37511	-0.079
Mof_C 	C 	0.40792	0.83506	0.37445	0.053
Mof_H 	H 	0.3976	0.8567	0.3812	0.016
Mof_C 	C 	0.40371	0.772	0.36555	0.05
Mof_H 	H 	0.3909	0.7495	0.366	0.028
Mof_C 	C 	0.44039	0.7738	0.35728	-0.184
Mof_H 	H 	0.4516	0.7519	0.3516	0.103
Mof_C 	C 	0.44485	0.8355	0.36607	-0.194
Mof_H 	H 	0.4584	0.8575	0.3669	0.104
Mof_C 	C 	0.4608	0.8052	0.35699	0.179
Mof_N 	N 	0.49904	0.80445	0.34915	-0.206
Mof_C 	C 	0.50976	0.784	0.32718	0.217
Mof_C 	C 	0.48919	0.7795	0.30684	-0.232
Mof_H 	H 	0.4658	0.7907	0.307	0.118
Mof_C 	C 	0.54091	0.764	0.3277	-0.217
Mof_H 	H 	0.5563	0.7647	0.3422	0.115
Mof_C 	C 	0.52514	0.8268	0.36231	0.189
Mof_C 	C 	0.55552	0.8377	0.35237	-0.2
Mof_H 	H 	0.5609	0.8298	0.3355	0.106
Mof_C 	C 	0.49872	0.75945	0.28459	0.092
Mof_H 	H 	0.4827	0.7588	0.2704	0.004
Mof_C 	C 	0.52967	0.742	0.28398	-0.09
Mof_C 	C 	0.55051	0.7416	0.30607	0.076
Mof_H 	H 	0.5714	0.7264	0.307	0.021
Mof_C 	C 	0.5782	0.8694	0.38851	-0.051
Mof_C 	C 	0.5821	0.861	0.36481	0.052
Mof_H 	H 	0.6024	0.8701	0.3555	0.018
Mof_C 	C 	0.55179	0.8489	0.40325	0.034
Mof_H 	H 	0.553	0.8473	0.4213	0.034
Mof_C 	C 	0.52325	0.8307	0.38851	-0.173
Mof_H 	H 	0.5027	0.8212	0.3973	0.099
Mof_N 	N 	0.54429	0.68874	0.22565	-0.089
Mof_C 	C 	0.52222	0.70859	0.2402	-0.024
Mof_H 	H 	0.4977	0.7146	0.2362	0.05
Mof_C 	C 	0.53985	0.7188	0.26141	0.092
Mof_N 	N 	0.6543	0.92188	0.41558	-0.091
Mof_C 	C 	0.64113	0.90158	0.39647	-0.017
Mof_H 	H 	0.6541	0.8944	0.3816	0.047
Mof_N 	N 	0.62958	0.92149	0.43605	-0.043
Mof_N 	N 	0.59977	0.9032	0.4273	-0.078
Mof_C 	C 	0.6067	0.8931	0.40186	0.074
Mof_N 	N 	0.57495	0.683	0.2389	-0.04
Mof_N 	N 	0.57282	0.7015	0.26039	-0.082
Mof_C 	C 	0.49999	0.65344	0.16549	-0.051
Mof_C 	C 	0.50436	0.67086	0.18984	-0.073
Mof_H 	H 	0.4842	0.6819	0.1982	0.084
Mof_C 	C 	0.5699	0.65536	0.1892	-0.076
Mof_H 	H 	0.5933	0.6567	0.197	0.093
Mof_C 	C 	0.53964	0.67117	0.20106	0.104
Mof_C 	C 	0.7607	0.96252	0.43141	-0.009
Mof_H 	H 	0.7846	0.9702	0.4359	0.073
Mof_C 	C 	0.7555	0.93745	0.41146	-0.042
Mof_C 	C 	0.72981	0.9764	0.4449	-0.043
Mof_C 	C 	0.7205	0.92428	0.40577	-0.077
Mof_H 	H 	0.717	0.9071	0.3924	0.085
Mof_C 	C 	0.69503	0.96358	0.43926	-0.076
Mof_H 	H 	0.6745	0.9728	0.4483	0.09
Mof_C 	C 	0.69032	0.93711	0.42028	0.105
Mof_C 	C 	0.59892	0.62105	0.15198	0.372
Mof_C 	C 	0.46312	0.65413	0.1517	0.381
Mof_C 	C 	0.53049	0.63666	0.15403	-0.002
Mof_H 	H 	0.5276	0.6246	0.1381	0.072
Mof_C 	C 	0.56549	0.6374	0.16569	-0.045
Mof_C 	C 	0.78888	0.92402	0.39629	0.366
Mof_C 	C 	0.73582	0.00606	0.46578	0.384
Mof_O 	O 	0.46005	0.6342	0.13224	-0.463
Mof_O 	O 	0.59183	0.60439	0.1311	-0.46
Mof_O 	O 	0.43774	0.67332	0.16167	-0.455
Mof_O 	O 	0.62934	0.6256	0.16279	-0.468
Mof_O 	O 	0.82027	0.9314	0.40553	-0.457
Mof_O 	O 	0.78284	0.90515	0.37622	-0.452
Mof_O 	O 	0.76845	0.00974	0.47299	-0.481
Mof_O 	O 	0.70708	0.02167	0.47344	-0.479
Mof_Zn	Zn	0.58392	0.36724	0.89014	1.229
Mof_Zn	Zn	0.61211	0.32318	0.85366	1.229
Mof_O 	O 	0.55825	0.40089	0.91974	-0.455
Mof_H 	H 	0.5706	0.4199	0.9219	0.255
Mof_O 	O 	0.63525	0.28848	0.82397	-0.459
Mof_H 	H 	0.6566	0.2953	0.8207	0.255
Mof_O 	O 	0.77449	0.40373	0.97271	-0.494
Mof_O 	O 	0.63305	0.36173	0.90666	-0.462
Mof_O 	O 	0.71363	0.41547	0.97307	-0.481
Mof_O 	O 	0.65758	0.32706	0.87482	-0.474
Mof_C 	C 	0.76736	0.35726	0.93001	-0.072
Mof_H 	H 	0.791	0.3603	0.9371	0.077
Mof_C 	C 	0.73654	0.37434	0.941	-0.053
Mof_C 	C 	0.74241	0.40051	0.96408	0.388
Mof_C 	C 	0.7011	0.36965	0.93054	-0.001
Mof_H 	H 	0.6806	0.3809	0.9384	0.068
Mof_N 	N 	0.79399	0.31911	0.89542	-0.088
Mof_C 	C 	0.69658	0.348	0.90824	-0.048
Mof_C 	C 	0.65896	0.34556	0.89477	0.381
Mof_C 	C 	0.72735	0.33084	0.89679	-0.072
Mof_H 	H 	0.7246	0.3165	0.8818	0.09
Mof_C 	C 	0.76179	0.33553	0.9081	0.098
Mof_C 	C 	0.82863	0.33174	0.8949	-0.022
Mof_H 	H 	0.8377	0.3534	0.9025	0.045
Mof_N 	N 	0.79065	0.28541	0.88378	-0.041
Mof_C 	C 	0.84784	0.30624	0.88094	0.079
Mof_C 	C 	0.88701	0.30463	0.873	-0.061
Mof_N 	N 	0.82391	0.27801	0.87511	-0.079
Mof_C 	C 	0.90792	0.33506	0.87445	0.053
Mof_H 	H 	0.8976	0.3567	0.8812	0.016
Mof_C 	C 	0.90371	0.272	0.86555	0.05
Mof_H 	H 	0.8909	0.2495	0.866	0.028
Mof_C 	C 	0.94039	0.2738	0.85728	-0.184
Mof_H 	H 	0.9516	0.2519	0.8516	0.103
Mof_C 	C 	0.94485	0.3355	0.86607	-0.193
Mof_H 	H 	0.9584	0.3575	0.8669	0.104
Mof_C 	C 	0.9608	0.3052	0.85699	0.179
Mof_N 	N 	0.99904	0.30445	0.84915	-0.206
Mof_C 	C 	0.00976	0.284	0.82718	0.217
Mof_C 	C 	0.98919	0.2795	0.80684	-0.232
Mof_H 	H 	0.9658	0.2907	0.807	0.118
Mof_C 	C 	0.04091	0.264	0.8277	-0.217
Mof_H 	H 	0.0563	0.2647	0.8422	0.115
Mof_C 	C 	0.02514	0.3268	0.86231	0.189
Mof_C 	C 	0.05552	0.3377	0.85237	-0.2
Mof_H 	H 	0.0609	0.3298	0.8355	0.106
Mof_C 	C 	0.99872	0.25945	0.78459	0.092
Mof_H 	H 	0.9827	0.2588	0.7704	0.004
Mof_C 	C 	0.02967	0.242	0.78398	-0.09
Mof_C 	C 	0.05051	0.2416	0.80607	0.076
Mof_H 	H 	0.0714	0.2264	0.807	0.021
Mof_C 	C 	0.0782	0.3694	0.88851	-0.051
Mof_C 	C 	0.0821	0.361	0.86481	0.051
Mof_H 	H 	0.1024	0.3701	0.8555	0.018
Mof_C 	C 	0.05179	0.3489	0.90325	0.034
Mof_H 	H 	0.053	0.3473	0.9213	0.035
Mof_C 	C 	0.02325	0.3307	0.88851	-0.173
Mof_H 	H 	0.0027	0.3212	0.8973	0.099
Mof_N 	N 	0.04429	0.18874	0.72565	-0.089
Mof_C 	C 	0.02222	0.20859	0.7402	-0.024
Mof_H 	H 	0.9977	0.2146	0.7362	0.05
Mof_C 	C 	0.03985	0.2188	0.76141	0.092
Mof_N 	N 	0.1543	0.42188	0.91558	-0.091
Mof_C 	C 	0.14113	0.40158	0.89647	-0.016
Mof_H 	H 	0.1541	0.3944	0.8816	0.047
Mof_N 	N 	0.12958	0.42149	0.93605	-0.043
Mof_N 	N 	0.09977	0.4032	0.9273	-0.078
Mof_C 	C 	0.1067	0.3931	0.90186	0.074
Mof_N 	N 	0.07495	0.183	0.7389	-0.04
Mof_N 	N 	0.07282	0.2015	0.76039	-0.082
Mof_C 	C 	0.99999	0.15344	0.66549	-0.051
Mof_C 	C 	0.00436	0.17086	0.68984	-0.073
Mof_H 	H 	0.9842	0.1819	0.6982	0.084
Mof_C 	C 	0.0699	0.15536	0.6892	-0.076
Mof_H 	H 	0.0933	0.1567	0.697	0.093
Mof_C 	C 	0.03964	0.17117	0.70106	0.104
Mof_C 	C 	0.2607	0.46252	0.93141	-0.009
Mof_H 	H 	0.2846	0.4702	0.9359	0.073
Mof_C 	C 	0.2555	0.43745	0.91146	-0.042
Mof_C 	C 	0.22981	0.4764	0.9449	-0.043
Mof_C 	C 	0.2205	0.42428	0.90577	-0.077
Mof_H 	H 	0.217	0.4071	0.8924	0.085
Mof_C 	C 	0.19503	0.46358	0.93926	-0.076
Mof_H 	H 	0.1745	0.4728	0.9483	0.09
Mof_C 	C 	0.19032	0.43711	0.92028	0.105
Mof_C 	C 	0.09892	0.12105	0.65198	0.372
Mof_C 	C 	0.96312	0.15413	0.6517	0.381
Mof_C 	C 	0.03049	0.13666	0.65403	-0.002
Mof_H 	H 	0.0276	0.1246	0.6381	0.072
Mof_C 	C 	0.06549	0.1374	0.66569	-0.045
Mof_C 	C 	0.28888	0.42402	0.89629	0.366
Mof_C 	C 	0.23582	0.50606	0.96578	0.384
Mof_O 	O 	0.96005	0.1342	0.63224	-0.463
Mof_O 	O 	0.09183	0.10439	0.6311	-0.46
Mof_O 	O 	0.93774	0.17332	0.66167	-0.455
Mof_O 	O 	0.12934	0.1256	0.66279	-0.468
Mof_O 	O 	0.32027	0.4314	0.90553	-0.457
Mof_O 	O 	0.28284	0.40515	0.87622	-0.452
Mof_O 	O 	0.26845	0.50974	0.97299	-0.48
Mof_O 	O 	0.20708	0.52167	0.97344	-0.478
Mof_Zn	Zn	0.86724	0.91608	0.39014	1.229
Mof_Zn	Zn	0.82318	0.88789	0.35366	1.229
Mof_O 	O 	0.90089	0.94175	0.41974	-0.456
Mof_H 	H 	0.9199	0.9294	0.4219	0.255
Mof_O 	O 	0.78848	0.86475	0.32397	-0.459
Mof_H 	H 	0.7953	0.8434	0.3207	0.255
Mof_O 	O 	0.90373	0.72551	0.47271	-0.495
Mof_O 	O 	0.86173	0.86695	0.40666	-0.462
Mof_O 	O 	0.91547	0.78637	0.47307	-0.481
Mof_O 	O 	0.82706	0.84242	0.37482	-0.474
Mof_C 	C 	0.85726	0.73264	0.43001	-0.072
Mof_H 	H 	0.8603	0.709	0.4371	0.077
Mof_C 	C 	0.87434	0.76346	0.441	-0.054
Mof_C 	C 	0.90051	0.75759	0.46408	0.388
Mof_C 	C 	0.86965	0.7989	0.43054	-0
Mof_H 	H 	0.8809	0.8194	0.4384	0.068
Mof_N 	N 	0.81911	0.70601	0.39542	-0.088
Mof_C 	C 	0.848	0.80342	0.40824	-0.048
Mof_C 	C 	0.84556	0.84104	0.39477	0.381
Mof_C 	C 	0.83084	0.77265	0.39679	-0.072
Mof_H 	H 	0.8165	0.7754	0.3818	0.09
Mof_C 	C 	0.83553	0.73821	0.4081	0.098
Mof_C 	C 	0.83174	0.67137	0.3949	-0.022
Mof_H 	H 	0.8534	0.6623	0.4025	0.045
Mof_N 	N 	0.78541	0.70935	0.38378	-0.041
Mof_C 	C 	0.80624	0.65216	0.38094	0.079
Mof_C 	C 	0.80463	0.61299	0.373	-0.061
Mof_N 	N 	0.77801	0.67609	0.37511	-0.079
Mof_C 	C 	0.83506	0.59208	0.37445	0.053
Mof_H 	H 	0.8567	0.6024	0.3812	0.016
Mof_C 	C 	0.772	0.59629	0.36555	0.05
Mof_H 	H 	0.7495	0.6091	0.366	0.028
Mof_C 	C 	0.7738	0.55961	0.35728	-0.184
Mof_H 	H 	0.7519	0.5484	0.3516	0.103
Mof_C 	C 	0.8355	0.55515	0.36607	-0.194
Mof_H 	H 	0.8575	0.5416	0.3669	0.104
Mof_C 	C 	0.8052	0.5392	0.35699	0.179
Mof_N 	N 	0.80445	0.50096	0.34915	-0.206
Mof_C 	C 	0.784	0.49024	0.32718	0.217
Mof_C 	C 	0.7795	0.51081	0.30684	-0.232
Mof_H 	H 	0.7907	0.5342	0.307	0.118
Mof_C 	C 	0.764	0.45909	0.3277	-0.217
Mof_H 	H 	0.7647	0.4437	0.3422	0.115
Mof_C 	C 	0.8268	0.47486	0.36231	0.189
Mof_C 	C 	0.8377	0.44448	0.35237	-0.2
Mof_H 	H 	0.8298	0.4391	0.3355	0.106
Mof_C 	C 	0.75945	0.50128	0.28459	0.092
Mof_H 	H 	0.7588	0.5173	0.2704	0.004
Mof_C 	C 	0.742	0.47033	0.28398	-0.09
Mof_C 	C 	0.7416	0.44949	0.30607	0.076
Mof_H 	H 	0.7264	0.4286	0.307	0.021
Mof_C 	C 	0.8694	0.4218	0.38851	-0.051
Mof_C 	C 	0.861	0.4179	0.36481	0.052
Mof_H 	H 	0.8701	0.3976	0.3555	0.018
Mof_C 	C 	0.8489	0.44821	0.40325	0.034
Mof_H 	H 	0.8473	0.447	0.4213	0.034
Mof_C 	C 	0.8307	0.47675	0.38851	-0.173
Mof_H 	H 	0.8212	0.4973	0.3973	0.099
Mof_N 	N 	0.68874	0.45571	0.22565	-0.089
Mof_C 	C 	0.70859	0.47778	0.2402	-0.024
Mof_H 	H 	0.7146	0.5023	0.2362	0.05
Mof_C 	C 	0.7188	0.46015	0.26141	0.092
Mof_N 	N 	0.92188	0.3457	0.41558	-0.091
Mof_C 	C 	0.90158	0.35887	0.39647	-0.017
Mof_H 	H 	0.8944	0.3459	0.3816	0.047
Mof_N 	N 	0.92149	0.37042	0.43605	-0.043
Mof_N 	N 	0.9032	0.40023	0.4273	-0.078
Mof_C 	C 	0.8931	0.3933	0.40186	0.074
Mof_N 	N 	0.683	0.42505	0.2389	-0.04
Mof_N 	N 	0.7015	0.42718	0.26039	-0.082
Mof_C 	C 	0.65344	0.50001	0.16549	-0.051
Mof_C 	C 	0.67086	0.49564	0.18984	-0.073
Mof_H 	H 	0.6819	0.5158	0.1982	0.084
Mof_C 	C 	0.65536	0.4301	0.1892	-0.076
Mof_H 	H 	0.6567	0.4067	0.197	0.093
Mof_C 	C 	0.67117	0.46036	0.20106	0.104
Mof_C 	C 	0.96252	0.2393	0.43141	-0.009
Mof_H 	H 	0.9702	0.2154	0.4359	0.073
Mof_C 	C 	0.93745	0.2445	0.41146	-0.042
Mof_C 	C 	0.9764	0.27019	0.4449	-0.043
Mof_C 	C 	0.92428	0.2795	0.40577	-0.077
Mof_H 	H 	0.9071	0.283	0.3924	0.085
Mof_C 	C 	0.96358	0.30497	0.43926	-0.076
Mof_H 	H 	0.9728	0.3255	0.4483	0.09
Mof_C 	C 	0.93711	0.30968	0.42028	0.105
Mof_C 	C 	0.62105	0.40108	0.15198	0.372
Mof_C 	C 	0.65413	0.53688	0.1517	0.381
Mof_C 	C 	0.63666	0.46951	0.15403	-0.002
Mof_H 	H 	0.6246	0.4724	0.1381	0.072
Mof_C 	C 	0.6374	0.43451	0.16569	-0.045
Mof_C 	C 	0.92402	0.21112	0.39629	0.366
Mof_C 	C 	0.00606	0.26418	0.46578	0.384
Mof_O 	O 	0.6342	0.53995	0.13224	-0.463
Mof_O 	O 	0.60439	0.40817	0.1311	-0.46
Mof_O 	O 	0.67332	0.56226	0.16167	-0.455
Mof_O 	O 	0.6256	0.37066	0.16279	-0.468
Mof_O 	O 	0.9314	0.17973	0.40553	-0.457
Mof_O 	O 	0.90515	0.21716	0.37622	-0.452
Mof_O 	O 	0.00974	0.23155	0.47299	-0.481
Mof_O 	O 	0.02167	0.29292	0.47344	-0.479
Mof_Zn	Zn	0.36724	0.41608	0.89014	1.229
Mof_Zn	Zn	0.32318	0.38789	0.85366	1.229
Mof_O 	O 	0.40089	0.44175	0.91974	-0.455
Mof_H 	H 	0.4199	0.4294	0.9219	0.255
Mof_O 	O 	0.28848	0.36475	0.82397	-0.459
Mof_H 	H 	0.2953	0.3434	0.8207	0.255
Mof_O 	O 	0.40373	0.22551	0.97271	-0.494
Mof_O 	O 	0.36173	0.36695	0.90666	-0.462
Mof_O 	O 	0.41547	0.28637	0.97307	-0.481
Mof_O 	O 	0.32706	0.34242	0.87482	-0.474
Mof_C 	C 	0.35726	0.23264	0.93001	-0.072
Mof_H 	H 	0.3603	0.209	0.9371	0.077
Mof_C 	C 	0.37434	0.26346	0.941	-0.053
Mof_C 	C 	0.40051	0.25759	0.96408	0.388
Mof_C 	C 	0.36965	0.2989	0.93054	-0.001
Mof_H 	H 	0.3809	0.3194	0.9384	0.068
Mof_N 	N 	0.31911	0.20601	0.89542	-0.088
Mof_C 	C 	0.348	0.30342	0.90824	-0.048
Mof_C 	C 	0.34556	0.34104	0.89477	0.381
Mof_C 	C 	0.33084	0.27265	0.89679	-0.072
Mof_H 	H 	0.3165	0.2754	0.8818	0.09
Mof_C 	C 	0.33553	0.23821	0.9081	0.098
Mof_C 	C 	0.33174	0.17137	0.8949	-0.022
Mof_H 	H 	0.3534	0.1623	0.9025	0.045
Mof_N 	N 	0.28541	0.20935	0.88378	-0.041
Mof_C 	C 	0.30624	0.15216	0.88094	0.079
Mof_C 	C 	0.30463	0.11299	0.873	-0.061
Mof_N 	N 	0.27801	0.17609	0.87511	-0.079
Mof_C 	C 	0.33506	0.09208	0.87445	0.053
Mof_H 	H 	0.3567	0.1024	0.8812	0.016
Mof_C 	C 	0.272	0.09629	0.86555	0.05
Mof_H 	H 	0.2495	0.1091	0.866	0.028
Mof_C 	C 	0.2738	0.05961	0.85728	-0.184
Mof_H 	H 	0.2519	0.0484	0.8516	0.103
Mof_C 	C 	0.3355	0.05515	0.86607	-0.193
Mof_H 	H 	0.3575	0.0416	0.8669	0.104
Mof_C 	C 	0.3052	0.0392	0.85699	0.179
Mof_N 	N 	0.30445	0.00096	0.84915	-0.206
Mof_C 	C 	0.284	0.99024	0.82718	0.217
Mof_C 	C 	0.2795	0.01081	0.80684	-0.232
Mof_H 	H 	0.2907	0.0342	0.807	0.118
Mof_C 	C 	0.264	0.95909	0.8277	-0.217
Mof_H 	H 	0.2647	0.9437	0.8422	0.115
Mof_C 	C 	0.3268	0.97486	0.86231	0.189
Mof_C 	C 	0.3377	0.94448	0.85237	-0.2
Mof_H 	H 	0.3298	0.9391	0.8355	0.106
Mof_C 	C 	0.25945	0.00128	0.78459	0.092
Mof_H 	H 	0.2588	0.0173	0.7704	0.004
Mof_C 	C 	0.242	0.97033	0.78398	-0.09
Mof_C 	C 	0.2416	0.94949	0.80607	0.076
Mof_H 	H 	0.2264	0.9286	0.807	0.021
Mof_C 	C 	0.3694	0.9218	0.88851	-0.051
Mof_C 	C 	0.361	0.9179	0.86481	0.051
Mof_H 	H 	0.3701	0.8976	0.8555	0.018
Mof_C 	C 	0.3489	0.94821	0.90325	0.034
Mof_H 	H 	0.3473	0.947	0.9213	0.035
Mof_C 	C 	0.3307	0.97675	0.88851	-0.173
Mof_H 	H 	0.3212	0.9973	0.8973	0.099
Mof_N 	N 	0.18874	0.95571	0.72565	-0.089
Mof_C 	C 	0.20859	0.97778	0.7402	-0.024
Mof_H 	H 	0.2146	0.0023	0.7362	0.05
Mof_C 	C 	0.2188	0.96015	0.76141	0.092
Mof_N 	N 	0.42188	0.8457	0.91558	-0.091
Mof_C 	C 	0.40158	0.85887	0.89647	-0.016
Mof_H 	H 	0.3944	0.8459	0.8816	0.047
Mof_N 	N 	0.42149	0.87042	0.93605	-0.043
Mof_N 	N 	0.4032	0.90023	0.9273	-0.078
Mof_C 	C 	0.3931	0.8933	0.90186	0.074
Mof_N 	N 	0.183	0.92505	0.7389	-0.04
Mof_N 	N 	0.2015	0.92718	0.76039	-0.082
Mof_C 	C 	0.15344	1e-05	0.66549	-0.051
Mof_C 	C 	0.17086	0.99564	0.68984	-0.073
Mof_H 	H 	0.1819	0.0158	0.6982	0.084
Mof_C 	C 	0.15536	0.9301	0.6892	-0.076
Mof_H 	H 	0.1567	0.9067	0.697	0.093
Mof_C 	C 	0.17117	0.96036	0.70106	0.104
Mof_C 	C 	0.46252	0.7393	0.93141	-0.009
Mof_H 	H 	0.4702	0.7154	0.9359	0.073
Mof_C 	C 	0.43745	0.7445	0.91146	-0.042
Mof_C 	C 	0.4764	0.77019	0.9449	-0.043
Mof_C 	C 	0.42428	0.7795	0.90577	-0.077
Mof_H 	H 	0.4071	0.783	0.8924	0.085
Mof_C 	C 	0.46358	0.80497	0.93926	-0.076
Mof_H 	H 	0.4728	0.8255	0.9483	0.09
Mof_C 	C 	0.43711	0.80968	0.92028	0.105
Mof_C 	C 	0.12105	0.90108	0.65198	0.372
Mof_C 	C 	0.15413	0.03688	0.6517	0.381
Mof_C 	C 	0.13666	0.96951	0.65403	-0.002
Mof_H 	H 	0.1246	0.9724	0.6381	0.072
Mof_C 	C 	0.1374	0.93451	0.66569	-0.045
Mof_C 	C 	0.42402	0.71112	0.89629	0.366
Mof_C 	C 	0.50606	0.76418	0.96578	0.384
Mof_O 	O 	0.1342	0.03995	0.63224	-0.463
Mof_O 	O 	0.10439	0.90817	0.6311	-0.46
Mof_O 	O 	0.17332	0.06226	0.66167	-0.455
Mof_O 	O 	0.1256	0.87066	0.66279	-0.468
Mof_O 	O 	0.4314	0.67973	0.90553	-0.457
Mof_O 	O 	0.40515	0.71716	0.87622	-0.452
Mof_O 	O 	0.50974	0.73155	0.97299	-0.48
Mof_O 	O 	0.52167	0.79292	0.97344	-0.478
Mof_Zn	Zn	0.13276	0.08392	0.39014	1.229
Mof_Zn	Zn	0.17682	0.11211	0.35366	1.229
Mof_O 	O 	0.09911	0.05825	0.41974	-0.456
Mof_H 	H 	0.0801	0.0706	0.4219	0.255
Mof_O 	O 	0.21152	0.13525	0.32397	-0.459
Mof_H 	H 	0.2047	0.1566	0.3207	0.255
Mof_O 	O 	0.09627	0.27449	0.47271	-0.495
Mof_O 	O 	0.13827	0.13305	0.40666	-0.462
Mof_O 	O 	0.08453	0.21363	0.47307	-0.481
Mof_O 	O 	0.17294	0.15758	0.37482	-0.474
Mof_C 	C 	0.14274	0.26736	0.43001	-0.072
Mof_H 	H 	0.1397	0.291	0.4371	0.077
Mof_C 	C 	0.12566	0.23654	0.441	-0.054
Mof_C 	C 	0.09949	0.24241	0.46408	0.388
Mof_C 	C 	0.13035	0.2011	0.43054	-0
Mof_H 	H 	0.1191	0.1806	0.4384	0.068
Mof_N 	N 	0.18089	0.29399	0.39542	-0.088
Mof_C 	C 	0.152	0.19658	0.40824	-0.048
Mof_C 	C 	0.15444	0.15896	0.39477	0.381
Mof_C 	C 	0.16916	0.22735	0.39679	-0.072
Mof_H 	H 	0.1835	0.2246	0.3818	0.09
Mof_C 	C 	0.16447	0.26179	0.4081	0.098
Mof_C 	C 	0.16826	0.32863	0.3949	-0.022
Mof_H 	H 	0.1466	0.3377	0.4025	0.045
Mof_N 	N 	0.21459	0.29065	0.38378	-0.041
Mof_C 	C 	0.19376	0.34784	0.38094	0.079
Mof_C 	C 	0.19537	0.38701	0.373	-0.061
Mof_N 	N 	0.22199	0.32391	0.37511	-0.079
Mof_C 	C 	0.16494	0.40792	0.37445	0.053
Mof_H 	H 	0.1433	0.3976	0.3812	0.016
Mof_C 	C 	0.228	0.40371	0.36555	0.05
Mof_H 	H 	0.2505	0.3909	0.366	0.028
Mof_C 	C 	0.2262	0.44039	0.35728	-0.184
Mof_H 	H 	0.2481	0.4516	0.3516	0.103
Mof_C 	C 	0.1645	0.44485	0.36607	-0.194
Mof_H 	H 	0.1425	0.4584	0.3669	0.104
Mof_C 	C 	0.1948	0.4608	0.35699	0.179
Mof_N 	N 	0.19555	0.49904	0.34915	-0.206
Mof_C 	C 	0.216	0.50976	0.32718	0.217
Mof_C 	C 	0.2205	0.48919	0.30684	-0.232
Mof_H 	H 	0.2093	0.4658	0.307	0.118
Mof_C 	C 	0.236	0.54091	0.3277	-0.217
Mof_H 	H 	0.2353	0.5563	0.3422	0.115
Mof_C 	C 	0.1732	0.52514	0.36231	0.189
Mof_C 	C 	0.1623	0.55552	0.35237	-0.2
Mof_H 	H 	0.1702	0.5609	0.3355	0.106
Mof_C 	C 	0.24055	0.49872	0.28459	0.092
Mof_H 	H 	0.2412	0.4827	0.2704	0.004
Mof_C 	C 	0.258	0.52967	0.28398	-0.09
Mof_C 	C 	0.2584	0.55051	0.30607	0.076
Mof_H 	H 	0.2736	0.5714	0.307	0.021
Mof_C 	C 	0.1306	0.5782	0.38851	-0.051
Mof_C 	C 	0.139	0.5821	0.36481	0.052
Mof_H 	H 	0.1299	0.6024	0.3555	0.018
Mof_C 	C 	0.1511	0.55179	0.40325	0.034
Mof_H 	H 	0.1527	0.553	0.4213	0.034
Mof_C 	C 	0.1693	0.52325	0.38851	-0.173
Mof_H 	H 	0.1788	0.5027	0.3973	0.099
Mof_N 	N 	0.31126	0.54429	0.22565	-0.089
Mof_C 	C 	0.29141	0.52222	0.2402	-0.024
Mof_H 	H 	0.2854	0.4977	0.2362	0.05
Mof_C 	C 	0.2812	0.53985	0.26141	0.092
Mof_N 	N 	0.07812	0.6543	0.41558	-0.091
Mof_C 	C 	0.09842	0.64113	0.39647	-0.017
Mof_H 	H 	0.1056	0.6541	0.3816	0.047
Mof_N 	N 	0.07851	0.62958	0.43605	-0.043
Mof_N 	N 	0.0968	0.59977	0.4273	-0.078
Mof_C 	C 	0.1069	0.6067	0.40186	0.074
Mof_N 	N 	0.317	0.57495	0.2389	-0.04
Mof_N 	N 	0.2985	0.57282	0.26039	-0.082
Mof_C 	C 	0.34656	0.49999	0.16549	-0.051
Mof_C 	C 	0.32914	0.50436	0.18984	-0.073
Mof_H 	H 	0.3181	0.4842	0.1982	0.084
Mof_C 	C 	0.34464	0.5699	0.1892	-0.076
Mof_H 	H 	0.3433	0.5933	0.197	0.093
Mof_C 	C 	0.32883	0.53964	0.20106	0.104
Mof_C 	C 	0.03748	0.7607	0.43141	-0.009
Mof_H 	H 	0.0298	0.7846	0.4359	0.073
Mof_C 	C 	0.06255	0.7555	0.41146	-0.042
Mof_C 	C 	0.0236	0.72981	0.4449	-0.043
Mof_C 	C 	0.07572	0.7205	0.40577	-0.077
Mof_H 	H 	0.0929	0.717	0.3924	0.085
Mof_C 	C 	0.03642	0.69503	0.43926	-0.076
Mof_H 	H 	0.0272	0.6745	0.4483	0.09
Mof_C 	C 	0.06289	0.69032	0.42028	0.105
Mof_C 	C 	0.37895	0.59892	0.15198	0.372
Mof_C 	C 	0.34587	0.46312	0.1517	0.381
Mof_C 	C 	0.36334	0.53049	0.15403	-0.002
Mof_H 	H 	0.3754	0.5276	0.1381	0.072
Mof_C 	C 	0.3626	0.56549	0.16569	-0.045
Mof_C 	C 	0.07598	0.78888	0.39629	0.366
Mof_C 	C 	0.99394	0.73582	0.46578	0.384
Mof_O 	O 	0.3658	0.46005	0.13224	-0.463
Mof_O 	O 	0.39561	0.59183	0.1311	-0.46
Mof_O 	O 	0.32668	0.43774	0.16167	-0.455
Mof_O 	O 	0.3744	0.62934	0.16279	-0.468
Mof_O 	O 	0.0686	0.82027	0.40553	-0.457
Mof_O 	O 	0.09485	0.78284	0.37622	-0.452
Mof_O 	O 	0.99026	0.76845	0.47299	-0.481
Mof_O 	O 	0.97833	0.70708	0.47344	-0.479
Mof_Zn	Zn	0.63276	0.58392	0.89014	1.229
Mof_Zn	Zn	0.67682	0.61211	0.85366	1.229
Mof_O 	O 	0.59911	0.55825	0.91974	-0.455
Mof_H 	H 	0.5801	0.5706	0.9219	0.255
Mof_O 	O 	0.71152	0.63525	0.82397	-0.459
Mof_H 	H 	0.7047	0.6566	0.8207	0.255
Mof_O 	O 	0.59627	0.77449	0.97271	-0.494
Mof_O 	O 	0.63827	0.63305	0.90666	-0.462
Mof_O 	O 	0.58453	0.71363	0.97307	-0.481
Mof_O 	O 	0.67294	0.65758	0.87482	-0.474
Mof_C 	C 	0.64274	0.76736	0.93001	-0.072
Mof_H 	H 	0.6397	0.791	0.9371	0.077
Mof_C 	C 	0.62566	0.73654	0.941	-0.053
Mof_C 	C 	0.59949	0.74241	0.96408	0.388
Mof_C 	C 	0.63035	0.7011	0.93054	-0.001
Mof_H 	H 	0.6191	0.6806	0.9384	0.068
Mof_N 	N 	0.68089	0.79399	0.89542	-0.088
Mof_C 	C 	0.652	0.69658	0.90824	-0.048
Mof_C 	C 	0.65444	0.65896	0.89477	0.381
Mof_C 	C 	0.66916	0.72735	0.89679	-0.072
Mof_H 	H 	0.6835	0.7246	0.8818	0.09
Mof_C 	C 	0.66447	0.76179	0.9081	0.098
Mof_C 	C 	0.66826	0.82863	0.8949	-0.022
Mof_H 	H 	0.6466	0.8377	0.9025	0.045
Mof_N 	N 	0.71459	0.79065	0.88378	-0.041
Mof_C 	C 	0.69376	0.84784	0.88094	0.079
Mof_C 	C 	0.69537	0.88701	0.873	-0.061
Mof_N 	N 	0.72199	0.82391	0.87511	-0.079
Mof_C 	C 	0.66494	0.90792	0.87445	0.053
Mof_H 	H 	0.6433	0.8976	0.8812	0.016
Mof_C 	C 	0.728	0.90371	0.86555	0.05
Mof_H 	H 	0.7505	0.8909	0.866	0.028
Mof_C 	C 	0.7262	0.94039	0.85728	-0.184
Mof_H 	H 	0.7481	0.9516	0.8516	0.103
Mof_C 	C 	0.6645	0.94485	0.86607	-0.193
Mof_H 	H 	0.6425	0.9584	0.8669	0.104
Mof_C 	C 	0.6948	0.9608	0.85699	0.179
Mof_N 	N 	0.69555	0.99904	0.84915	-0.206
Mof_C 	C 	0.716	0.00976	0.82718	0.217
Mof_C 	C 	0.7205	0.98919	0.80684	-0.232
Mof_H 	H 	0.7093	0.9658	0.807	0.118
Mof_C 	C 	0.736	0.04091	0.8277	-0.217
Mof_H 	H 	0.7353	0.0563	0.8422	0.115
Mof_C 	C 	0.6732	0.02514	0.86231	0.189
Mof_C 	C 	0.6623	0.05552	0.85237	-0.2
Mof_H 	H 	0.6702	0.0609	0.8355	0.106
Mof_C 	C 	0.74055	0.99872	0.78459	0.092
Mof_H 	H 	0.7412	0.9827	0.7704	0.004
Mof_C 	C 	0.758	0.02967	0.78398	-0.09
Mof_C 	C 	0.7584	0.05051	0.80607	0.076
Mof_H 	H 	0.7736	0.0714	0.807	0.021
Mof_C 	C 	0.6306	0.0782	0.88851	-0.051
Mof_C 	C 	0.639	0.0821	0.86481	0.051
Mof_H 	H 	0.6299	0.1024	0.8555	0.018
Mof_C 	C 	0.6511	0.05179	0.90325	0.034
Mof_H 	H 	0.6527	0.053	0.9213	0.035
Mof_C 	C 	0.6693	0.02325	0.88851	-0.173
Mof_H 	H 	0.6788	0.0027	0.8973	0.099
Mof_N 	N 	0.81126	0.04429	0.72565	-0.089
Mof_C 	C 	0.79141	0.02222	0.7402	-0.024
Mof_H 	H 	0.7854	0.9977	0.7362	0.05
Mof_C 	C 	0.7812	0.03985	0.76141	0.092
Mof_N 	N 	0.57812	0.1543	0.91558	-0.091
Mof_C 	C 	0.59842	0.14113	0.89647	-0.016
Mof_H 	H 	0.6056	0.1541	0.8816	0.047
Mof_N 	N 	0.57851	0.12958	0.93605	-0.043
Mof_N 	N 	0.5968	0.09977	0.9273	-0.078
Mof_C 	C 	0.6069	0.1067	0.90186	0.074
Mof_N 	N 	0.817	0.07495	0.7389	-0.04
Mof_N 	N 	0.7985	0.07282	0.76039	-0.082
Mof_C 	C 	0.84656	0.99999	0.66549	-0.051
Mof_C 	C 	0.82914	0.00436	0.68984	-0.073
Mof_H 	H 	0.8181	0.9842	0.6982	0.084
Mof_C 	C 	0.84464	0.0699	0.6892	-0.076
Mof_H 	H 	0.8433	0.0933	0.697	0.093
Mof_C 	C 	0.82883	0.03964	0.70106	0.104
Mof_C 	C 	0.53748	0.2607	0.93141	-0.009
Mof_H 	H 	0.5298	0.2846	0.9359	0.073
Mof_C 	C 	0.56255	0.2555	0.91146	-0.042
Mof_C 	C 	0.5236	0.22981	0.9449	-0.043
Mof_C 	C 	0.57572	0.2205	0.90577	-0.077
Mof_H 	H 	0.5929	0.217	0.8924	0.085
Mof_C 	C 	0.53642	0.19503	0.93926	-0.076
Mof_H 	H 	0.5272	0.1745	0.9483	0.09
Mof_C 	C 	0.56289	0.19032	0.92028	0.105
Mof_C 	C 	0.87895	0.09892	0.65198	0.372
Mof_C 	C 	0.84587	0.96312	0.6517	0.381
Mof_C 	C 	0.86334	0.03049	0.65403	-0.002
Mof_H 	H 	0.8754	0.0276	0.6381	0.072
Mof_C 	C 	0.8626	0.06549	0.66569	-0.045
Mof_C 	C 	0.57598	0.28888	0.89629	0.366
Mof_C 	C 	0.49394	0.23582	0.96578	0.384
Mof_O 	O 	0.8658	0.96005	0.63224	-0.463
Mof_O 	O 	0.89561	0.09183	0.6311	-0.46
Mof_O 	O 	0.82668	0.93774	0.66167	-0.455
Mof_O 	O 	0.8744	0.12934	0.66279	-0.468
Mof_O 	O 	0.5686	0.32027	0.90553	-0.457
Mof_O 	O 	0.59485	0.28284	0.87622	-0.452
Mof_O 	O 	0.49026	0.26845	0.97299	-0.48
Mof_O 	O 	0.47833	0.20708	0.97344	-0.478
Mof_Zn	Zn	0.08392	0.86724	0.60986	1.229
Mof_Zn	Zn	0.11211	0.82318	0.64634	1.229
Mof_O 	O 	0.05825	0.90089	0.58026	-0.456
Mof_H 	H 	0.0706	0.9199	0.5781	0.255
Mof_O 	O 	0.13525	0.78848	0.67603	-0.459
Mof_H 	H 	0.1566	0.7953	0.6793	0.255
Mof_O 	O 	0.27449	0.90373	0.52729	-0.495
Mof_O 	O 	0.13305	0.86173	0.59334	-0.462
Mof_O 	O 	0.21363	0.91547	0.52693	-0.481
Mof_O 	O 	0.15758	0.82706	0.62518	-0.474
Mof_C 	C 	0.26736	0.85726	0.56999	-0.072
Mof_H 	H 	0.291	0.8603	0.5629	0.077
Mof_C 	C 	0.23654	0.87434	0.559	-0.054
Mof_C 	C 	0.24241	0.90051	0.53592	0.388
Mof_C 	C 	0.2011	0.86965	0.56946	-0
Mof_H 	H 	0.1806	0.8809	0.5616	0.068
Mof_N 	N 	0.29399	0.81911	0.60458	-0.088
Mof_C 	C 	0.19658	0.848	0.59176	-0.048
Mof_C 	C 	0.15896	0.84556	0.60523	0.381
Mof_C 	C 	0.22735	0.83084	0.60321	-0.072
Mof_H 	H 	0.2246	0.8165	0.6182	0.09
Mof_C 	C 	0.26179	0.83553	0.5919	0.098
Mof_C 	C 	0.32863	0.83174	0.6051	-0.022
Mof_H 	H 	0.3377	0.8534	0.5975	0.045
Mof_N 	N 	0.29065	0.78541	0.61622	-0.041
Mof_C 	C 	0.34784	0.80624	0.61906	0.079
Mof_C 	C 	0.38701	0.80463	0.627	-0.061
Mof_N 	N 	0.32391	0.77801	0.62489	-0.079
Mof_C 	C 	0.40792	0.83506	0.62555	0.053
Mof_H 	H 	0.3976	0.8567	0.6188	0.016
Mof_C 	C 	0.40371	0.772	0.63445	0.05
Mof_H 	H 	0.3909	0.7495	0.634	0.028
Mof_C 	C 	0.44039	0.7738	0.64272	-0.184
Mof_H 	H 	0.4516	0.7519	0.6484	0.103
Mof_C 	C 	0.44485	0.8355	0.63393	-0.194
Mof_H 	H 	0.4584	0.8575	0.6331	0.104
Mof_C 	C 	0.4608	0.8052	0.64301	0.179
Mof_N 	N 	0.49904	0.80445	0.65085	-0.206
Mof_C 	C 	0.50976	0.784	0.67282	0.217
Mof_C 	C 	0.48919	0.7795	0.69316	-0.232
Mof_H 	H 	0.4658	0.7907	0.693	0.118
Mof_C 	C 	0.54091	0.764	0.6723	-0.217
Mof_H 	H 	0.5563	0.7647	0.6578	0.115
Mof_C 	C 	0.52514	0.8268	0.63769	0.189
Mof_C 	C 	0.55552	0.8377	0.64763	-0.2
Mof_H 	H 	0.5609	0.8298	0.6645	0.106
Mof_C 	C 	0.49872	0.75945	0.71541	0.092
Mof_H 	H 	0.4827	0.7588	0.7296	0.004
Mof_C 	C 	0.52967	0.742	0.71602	-0.09
Mof_C 	C 	0.55051	0.7416	0.69393	0.076
Mof_H 	H 	0.5714	0.7264	0.693	0.021
Mof_C 	C 	0.5782	0.8694	0.61149	-0.051
Mof_C 	C 	0.5821	0.861	0.63519	0.052
Mof_H 	H 	0.6024	0.8701	0.6445	0.018
Mof_C 	C 	0.55179	0.8489	0.59675	0.034
Mof_H 	H 	0.553	0.8473	0.5787	0.034
Mof_C 	C 	0.52325	0.8307	0.61149	-0.173
Mof_H 	H 	0.5027	0.8212	0.6027	0.099
Mof_N 	N 	0.54429	0.68874	0.77435	-0.089
Mof_C 	C 	0.52222	0.70859	0.7598	-0.024
Mof_H 	H 	0.4977	0.7146	0.7638	0.05
Mof_C 	C 	0.53985	0.7188	0.73859	0.092
Mof_N 	N 	0.6543	0.92188	0.58442	-0.091
Mof_C 	C 	0.64113	0.90158	0.60353	-0.017
Mof_H 	H 	0.6541	0.8944	0.6184	0.047
Mof_N 	N 	0.62958	0.92149	0.56395	-0.043
Mof_N 	N 	0.59977	0.9032	0.5727	-0.078
Mof_C 	C 	0.6067	0.8931	0.59814	0.074
Mof_N 	N 	0.57495	0.683	0.7611	-0.04
Mof_N 	N 	0.57282	0.7015	0.73961	-0.082
Mof_C 	C 	0.49999	0.65344	0.83451	-0.051
Mof_C 	C 	0.50436	0.67086	0.81016	-0.073
Mof_H 	H 	0.4842	0.6819	0.8018	0.084
Mof_C 	C 	0.5699	0.65536	0.8108	-0.076
Mof_H 	H 	0.5933	0.6567	0.803	0.093
Mof_C 	C 	0.53964	0.67117	0.79894	0.104
Mof_C 	C 	0.7607	0.96252	0.56859	-0.009
Mof_H 	H 	0.7846	0.9702	0.5641	0.073
Mof_C 	C 	0.7555	0.93745	0.58854	-0.042
Mof_C 	C 	0.72981	0.9764	0.5551	-0.043
Mof_C 	C 	0.7205	0.92428	0.59423	-0.077
Mof_H 	H 	0.717	0.9071	0.6076	0.085
Mof_C 	C 	0.69503	0.96358	0.56074	-0.076
Mof_H 	H 	0.6745	0.9728	0.5517	0.09
Mof_C 	C 	0.69032	0.93711	0.57972	0.105
Mof_C 	C 	0.59892	0.62105	0.84802	0.372
Mof_C 	C 	0.46312	0.65413	0.8483	0.381
Mof_C 	C 	0.53049	0.63666	0.84597	-0.002
Mof_H 	H 	0.5276	0.6246	0.8619	0.072
Mof_C 	C 	0.56549	0.6374	0.83431	-0.045
Mof_C 	C 	0.78888	0.92402	0.60371	0.366
Mof_C 	C 	0.73582	0.00606	0.53422	0.384
Mof_O 	O 	0.46005	0.6342	0.86776	-0.463
Mof_O 	O 	0.59183	0.60439	0.8689	-0.46
Mof_O 	O 	0.43774	0.67332	0.83833	-0.455
Mof_O 	O 	0.62934	0.6256	0.83721	-0.468
Mof_O 	O 	0.82027	0.9314	0.59447	-0.457
Mof_O 	O 	0.78284	0.90515	0.62378	-0.452
Mof_O 	O 	0.76845	0.00974	0.52701	-0.481
Mof_O 	O 	0.70708	0.02167	0.52656	-0.479
Mof_Zn	Zn	0.58392	0.36724	0.10986	1.229
Mof_Zn	Zn	0.61211	0.32318	0.14634	1.229
Mof_O 	O 	0.55825	0.40089	0.08026	-0.456
Mof_H 	H 	0.5706	0.4199	0.0781	0.255
Mof_O 	O 	0.63525	0.28848	0.17603	-0.459
Mof_H 	H 	0.6566	0.2953	0.1793	0.255
Mof_O 	O 	0.77449	0.40373	0.02729	-0.495
Mof_O 	O 	0.63305	0.36173	0.09334	-0.462
Mof_O 	O 	0.71363	0.41547	0.02693	-0.482
Mof_O 	O 	0.65758	0.32706	0.12518	-0.474
Mof_C 	C 	0.76736	0.35726	0.06999	-0.072
Mof_H 	H 	0.791	0.3603	0.0629	0.077
Mof_C 	C 	0.73654	0.37434	0.059	-0.054
Mof_C 	C 	0.74241	0.40051	0.03592	0.388
Mof_C 	C 	0.7011	0.36965	0.06946	-0
Mof_H 	H 	0.6806	0.3809	0.0616	0.068
Mof_N 	N 	0.79399	0.31911	0.10458	-0.088
Mof_C 	C 	0.69658	0.348	0.09176	-0.048
Mof_C 	C 	0.65896	0.34556	0.10523	0.381
Mof_C 	C 	0.72735	0.33084	0.10321	-0.072
Mof_H 	H 	0.7246	0.3165	0.1182	0.09
Mof_C 	C 	0.76179	0.33553	0.0919	0.098
Mof_C 	C 	0.82863	0.33174	0.1051	-0.022
Mof_H 	H 	0.8377	0.3534	0.0975	0.045
Mof_N 	N 	0.79065	0.28541	0.11622	-0.041
Mof_C 	C 	0.84784	0.30624	0.11906	0.079
Mof_C 	C 	0.88701	0.30463	0.127	-0.061
Mof_N 	N 	0.82391	0.27801	0.12489	-0.079
Mof_C 	C 	0.90792	0.33506	0.12555	0.053
Mof_H 	H 	0.8976	0.3567	0.1188	0.016
Mof_C 	C 	0.90371	0.272	0.13445	0.05
Mof_H 	H 	0.8909	0.2495	0.134	0.028
Mof_C 	C 	0.94039	0.2738	0.14272	-0.184
Mof_H 	H 	0.9516	0.2519	0.1484	0.103
Mof_C 	C 	0.94485	0.3355	0.13393	-0.194
Mof_H 	H 	0.9584	0.3575	0.1331	0.104
Mof_C 	C 	0.9608	0.3052	0.14301	0.179
Mof_N 	N 	0.99904	0.30445	0.15085	-0.206
Mof_C 	C 	0.00976	0.284	0.17282	0.217
Mof_C 	C 	0.98919	0.2795	0.19316	-0.232
Mof_H 	H 	0.9658	0.2907	0.193	0.118
Mof_C 	C 	0.04091	0.264	0.1723	-0.217
Mof_H 	H 	0.0563	0.2647	0.1578	0.115
Mof_C 	C 	0.02514	0.3268	0.13769	0.189
Mof_C 	C 	0.05552	0.3377	0.14763	-0.201
Mof_H 	H 	0.0609	0.3298	0.1645	0.106
Mof_C 	C 	0.99872	0.25945	0.21541	0.092
Mof_H 	H 	0.9827	0.2588	0.2296	0.004
Mof_C 	C 	0.02967	0.242	0.21602	-0.09
Mof_C 	C 	0.05051	0.2416	0.19393	0.076
Mof_H 	H 	0.0714	0.2264	0.193	0.021
Mof_C 	C 	0.0782	0.3694	0.11149	-0.051
Mof_C 	C 	0.0821	0.361	0.13519	0.052
Mof_H 	H 	0.1024	0.3701	0.1445	0.018
Mof_C 	C 	0.05179	0.3489	0.09675	0.034
Mof_H 	H 	0.053	0.3473	0.0787	0.034
Mof_C 	C 	0.02325	0.3307	0.11149	-0.174
Mof_H 	H 	0.0027	0.3212	0.1027	0.099
Mof_N 	N 	0.04429	0.18874	0.27435	-0.089
Mof_C 	C 	0.02222	0.20859	0.2598	-0.024
Mof_H 	H 	0.9977	0.2146	0.2638	0.05
Mof_C 	C 	0.03985	0.2188	0.23859	0.092
Mof_N 	N 	0.1543	0.42188	0.08442	-0.091
Mof_C 	C 	0.14113	0.40158	0.10353	-0.017
Mof_H 	H 	0.1541	0.3944	0.1184	0.047
Mof_N 	N 	0.12958	0.42149	0.06395	-0.043
Mof_N 	N 	0.09977	0.4032	0.0727	-0.078
Mof_C 	C 	0.1067	0.3931	0.09814	0.074
Mof_N 	N 	0.07495	0.183	0.2611	-0.04
Mof_N 	N 	0.07282	0.2015	0.23961	-0.082
Mof_C 	C 	0.99999	0.15344	0.33451	-0.051
Mof_C 	C 	0.00436	0.17086	0.31016	-0.073
Mof_H 	H 	0.9842	0.1819	0.3018	0.084
Mof_C 	C 	0.0699	0.15536	0.3108	-0.076
Mof_H 	H 	0.0933	0.1567	0.303	0.093
Mof_C 	C 	0.03964	0.17117	0.29894	0.104
Mof_C 	C 	0.2607	0.46252	0.06859	-0.009
Mof_H 	H 	0.2846	0.4702	0.0641	0.073
Mof_C 	C 	0.2555	0.43745	0.08854	-0.042
Mof_C 	C 	0.22981	0.4764	0.0551	-0.043
Mof_C 	C 	0.2205	0.42428	0.09423	-0.077
Mof_H 	H 	0.217	0.4071	0.1076	0.085
Mof_C 	C 	0.19503	0.46358	0.06074	-0.075
Mof_H 	H 	0.1745	0.4728	0.0517	0.09
Mof_C 	C 	0.19032	0.43711	0.07972	0.104
Mof_C 	C 	0.09892	0.12105	0.34802	0.372
Mof_C 	C 	0.96312	0.15413	0.3483	0.381
Mof_C 	C 	0.03049	0.13666	0.34597	-0.002
Mof_H 	H 	0.0276	0.1246	0.3619	0.072
Mof_C 	C 	0.06549	0.1374	0.33431	-0.045
Mof_C 	C 	0.28888	0.42402	0.10371	0.366
Mof_C 	C 	0.23582	0.50606	0.03422	0.384
Mof_O 	O 	0.96005	0.1342	0.36776	-0.463
Mof_O 	O 	0.09183	0.10439	0.3689	-0.46
Mof_O 	O 	0.93774	0.17332	0.33833	-0.455
Mof_O 	O 	0.12934	0.1256	0.33721	-0.468
Mof_O 	O 	0.32027	0.4314	0.09447	-0.457
Mof_O 	O 	0.28284	0.40515	0.12378	-0.452
Mof_O 	O 	0.26845	0.50974	0.02701	-0.481
Mof_O 	O 	0.20708	0.52167	0.02656	-0.479
Mof_Zn	Zn	0.91608	0.13276	0.60986	1.229
Mof_Zn	Zn	0.88789	0.17682	0.64634	1.229
Mof_O 	O 	0.94175	0.09911	0.58026	-0.456
Mof_H 	H 	0.9294	0.0801	0.5781	0.255
Mof_O 	O 	0.86475	0.21152	0.67603	-0.459
Mof_H 	H 	0.8434	0.2047	0.6793	0.255
Mof_O 	O 	0.72551	0.09627	0.52729	-0.495
Mof_O 	O 	0.86695	0.13827	0.59334	-0.462
Mof_O 	O 	0.78637	0.08453	0.52693	-0.481
Mof_O 	O 	0.84242	0.17294	0.62518	-0.474
Mof_C 	C 	0.73264	0.14274	0.56999	-0.072
Mof_H 	H 	0.709	0.1397	0.5629	0.077
Mof_C 	C 	0.76346	0.12566	0.559	-0.054
Mof_C 	C 	0.75759	0.09949	0.53592	0.388
Mof_C 	C 	0.7989	0.13035	0.56946	-0
Mof_H 	H 	0.8194	0.1191	0.5616	0.068
Mof_N 	N 	0.70601	0.18089	0.60458	-0.088
Mof_C 	C 	0.80342	0.152	0.59176	-0.048
Mof_C 	C 	0.84104	0.15444	0.60523	0.381
Mof_C 	C 	0.77265	0.16916	0.60321	-0.072
Mof_H 	H 	0.7754	0.1835	0.6182	0.09
Mof_C 	C 	0.73821	0.16447	0.5919	0.098
Mof_C 	C 	0.67137	0.16826	0.6051	-0.022
Mof_H 	H 	0.6623	0.1466	0.5975	0.045
Mof_N 	N 	0.70935	0.21459	0.61622	-0.041
Mof_C 	C 	0.65216	0.19376	0.61906	0.079
Mof_C 	C 	0.61299	0.19537	0.627	-0.061
Mof_N 	N 	0.67609	0.22199	0.62489	-0.079
Mof_C 	C 	0.59208	0.16494	0.62555	0.053
Mof_H 	H 	0.6024	0.1433	0.6188	0.016
Mof_C 	C 	0.59629	0.228	0.63445	0.05
Mof_H 	H 	0.6091	0.2505	0.634	0.028
Mof_C 	C 	0.55961	0.2262	0.64272	-0.184
Mof_H 	H 	0.5484	0.2481	0.6484	0.103
Mof_C 	C 	0.55515	0.1645	0.63393	-0.194
Mof_H 	H 	0.5416	0.1425	0.6331	0.104
Mof_C 	C 	0.5392	0.1948	0.64301	0.179
Mof_N 	N 	0.50096	0.19555	0.65085	-0.206
Mof_C 	C 	0.49024	0.216	0.67282	0.217
Mof_C 	C 	0.51081	0.2205	0.69316	-0.232
Mof_H 	H 	0.5342	0.2093	0.693	0.118
Mof_C 	C 	0.45909	0.236	0.6723	-0.217
Mof_H 	H 	0.4437	0.2353	0.6578	0.115
Mof_C 	C 	0.47486	0.1732	0.63769	0.189
Mof_C 	C 	0.44448	0.1623	0.64763	-0.2
Mof_H 	H 	0.4391	0.1702	0.6645	0.106
Mof_C 	C 	0.50128	0.24055	0.71541	0.092
Mof_H 	H 	0.5173	0.2412	0.7296	0.004
Mof_C 	C 	0.47033	0.258	0.71602	-0.09
Mof_C 	C 	0.44949	0.2584	0.69393	0.076
Mof_H 	H 	0.4286	0.2736	0.693	0.021
Mof_C 	C 	0.4218	0.1306	0.61149	-0.051
Mof_C 	C 	0.4179	0.139	0.63519	0.052
Mof_H 	H 	0.3976	0.1299	0.6445	0.018
Mof_C 	C 	0.44821	0.1511	0.59675	0.034
Mof_H 	H 	0.447	0.1527	0.5787	0.034
Mof_C 	C 	0.47675	0.1693	0.61149	-0.173
Mof_H 	H 	0.4973	0.1788	0.6027	0.099
Mof_N 	N 	0.45571	0.31126	0.77435	-0.089
Mof_C 	C 	0.47778	0.29141	0.7598	-0.024
Mof_H 	H 	0.5023	0.2854	0.7638	0.05
Mof_C 	C 	0.46015	0.2812	0.73859	0.092
Mof_N 	N 	0.3457	0.07812	0.58442	-0.091
Mof_C 	C 	0.35887	0.09842	0.60353	-0.017
Mof_H 	H 	0.3459	0.1056	0.6184	0.047
Mof_N 	N 	0.37042	0.07851	0.56395	-0.043
Mof_N 	N 	0.40023	0.0968	0.5727	-0.078
Mof_C 	C 	0.3933	0.1069	0.59814	0.074
Mof_N 	N 	0.42505	0.317	0.7611	-0.04
Mof_N 	N 	0.42718	0.2985	0.73961	-0.082
Mof_C 	C 	0.50001	0.34656	0.83451	-0.051
Mof_C 	C 	0.49564	0.32914	0.81016	-0.073
Mof_H 	H 	0.5158	0.3181	0.8018	0.084
Mof_C 	C 	0.4301	0.34464	0.8108	-0.076
Mof_H 	H 	0.4067	0.3433	0.803	0.093
Mof_C 	C 	0.46036	0.32883	0.79894	0.104
Mof_C 	C 	0.2393	0.03748	0.56859	-0.009
Mof_H 	H 	0.2154	0.0298	0.5641	0.073
Mof_C 	C 	0.2445	0.06255	0.58854	-0.042
Mof_C 	C 	0.27019	0.0236	0.5551	-0.043
Mof_C 	C 	0.2795	0.07572	0.59423	-0.077
Mof_H 	H 	0.283	0.0929	0.6076	0.085
Mof_C 	C 	0.30497	0.03642	0.56074	-0.076
Mof_H 	H 	0.3255	0.0272	0.5517	0.09
Mof_C 	C 	0.30968	0.06289	0.57972	0.105
Mof_C 	C 	0.40108	0.37895	0.84802	0.372
Mof_C 	C 	0.53688	0.34587	0.8483	0.381
Mof_C 	C 	0.46951	0.36334	0.84597	-0.002
Mof_H 	H 	0.4724	0.3754	0.8619	0.072
Mof_C 	C 	0.43451	0.3626	0.83431	-0.045
Mof_C 	C 	0.21112	0.07598	0.60371	0.366
Mof_C 	C 	0.26418	0.99394	0.53422	0.384
Mof_O 	O 	0.53995	0.3658	0.86776	-0.463
Mof_O 	O 	0.40817	0.39561	0.8689	-0.46
Mof_O 	O 	0.56226	0.32668	0.83833	-0.455
Mof_O 	O 	0.37066	0.3744	0.83721	-0.468
Mof_O 	O 	0.17973	0.0686	0.59447	-0.457
Mof_O 	O 	0.21716	0.09485	0.62378	-0.452
Mof_O 	O 	0.23155	0.99026	0.52701	-0.481
Mof_O 	O 	0.29292	0.97833	0.52656	-0.479
Mof_Zn	Zn	0.41608	0.63276	0.10986	1.229
Mof_Zn	Zn	0.38789	0.67682	0.14634	1.229
Mof_O 	O 	0.44175	0.59911	0.08026	-0.456
Mof_H 	H 	0.4294	0.5801	0.0781	0.255
Mof_O 	O 	0.36475	0.71152	0.17603	-0.459
Mof_H 	H 	0.3434	0.7047	0.1793	0.255
Mof_O 	O 	0.22551	0.59627	0.02729	-0.495
Mof_O 	O 	0.36695	0.63827	0.09334	-0.462
Mof_O 	O 	0.28637	0.58453	0.02693	-0.482
Mof_O 	O 	0.34242	0.67294	0.12518	-0.474
Mof_C 	C 	0.23264	0.64274	0.06999	-0.072
Mof_H 	H 	0.209	0.6397	0.0629	0.077
Mof_C 	C 	0.26346	0.62566	0.059	-0.054
Mof_C 	C 	0.25759	0.59949	0.03592	0.388
Mof_C 	C 	0.2989	0.63035	0.06946	-0
Mof_H 	H 	0.3194	0.6191	0.0616	0.068
Mof_N 	N 	0.20601	0.68089	0.10458	-0.088
Mof_C 	C 	0.30342	0.652	0.09176	-0.048
Mof_C 	C 	0.34104	0.65444	0.10523	0.381
Mof_C 	C 	0.27265	0.66916	0.10321	-0.072
Mof_H 	H 	0.2754	0.6835	0.1182	0.09
Mof_C 	C 	0.23821	0.66447	0.0919	0.098
Mof_C 	C 	0.17137	0.66826	0.1051	-0.022
Mof_H 	H 	0.1623	0.6466	0.0975	0.045
Mof_N 	N 	0.20935	0.71459	0.11622	-0.041
Mof_C 	C 	0.15216	0.69376	0.11906	0.079
Mof_C 	C 	0.11299	0.69537	0.127	-0.061
Mof_N 	N 	0.17609	0.72199	0.12489	-0.079
Mof_C 	C 	0.09208	0.66494	0.12555	0.053
Mof_H 	H 	0.1024	0.6433	0.1188	0.016
Mof_C 	C 	0.09629	0.728	0.13445	0.05
Mof_H 	H 	0.1091	0.7505	0.134	0.028
Mof_C 	C 	0.05961	0.7262	0.14272	-0.184
Mof_H 	H 	0.0484	0.7481	0.1484	0.103
Mof_C 	C 	0.05515	0.6645	0.13393	-0.194
Mof_H 	H 	0.0416	0.6425	0.1331	0.104
Mof_C 	C 	0.0392	0.6948	0.14301	0.179
Mof_N 	N 	0.00096	0.69555	0.15085	-0.206
Mof_C 	C 	0.99024	0.716	0.17282	0.217
Mof_C 	C 	0.01081	0.7205	0.19316	-0.232
Mof_H 	H 	0.0342	0.7093	0.193	0.118
Mof_C 	C 	0.95909	0.736	0.1723	-0.217
Mof_H 	H 	0.9437	0.7353	0.1578	0.115
Mof_C 	C 	0.97486	0.6732	0.13769	0.189
Mof_C 	C 	0.94448	0.6623	0.14763	-0.201
Mof_H 	H 	0.9391	0.6702	0.1645	0.106
Mof_C 	C 	0.00128	0.74055	0.21541	0.092
Mof_H 	H 	0.0173	0.7412	0.2296	0.004
Mof_C 	C 	0.97033	0.758	0.21602	-0.09
Mof_C 	C 	0.94949	0.7584	0.19393	0.076
Mof_H 	H 	0.9286	0.7736	0.193	0.021
Mof_C 	C 	0.9218	0.6306	0.11149	-0.051
Mof_C 	C 	0.9179	0.639	0.13519	0.052
Mof_H 	H 	0.8976	0.6299	0.1445	0.018
Mof_C 	C 	0.94821	0.6511	0.09675	0.034
Mof_H 	H 	0.947	0.6527	0.0787	0.034
Mof_C 	C 	0.97675	0.6693	0.11149	-0.174
Mof_H 	H 	0.9973	0.6788	0.1027	0.099
Mof_N 	N 	0.95571	0.81126	0.27435	-0.089
Mof_C 	C 	0.97778	0.79141	0.2598	-0.024
Mof_H 	H 	0.0023	0.7854	0.2638	0.05
Mof_C 	C 	0.96015	0.7812	0.23859	0.092
Mof_N 	N 	0.8457	0.57812	0.08442	-0.091
Mof_C 	C 	0.85887	0.59842	0.10353	-0.017
Mof_H 	H 	0.8459	0.6056	0.1184	0.047
Mof_N 	N 	0.87042	0.57851	0.06395	-0.043
Mof_N 	N 	0.90023	0.5968	0.0727	-0.078
Mof_C 	C 	0.8933	0.6069	0.09814	0.074
Mof_N 	N 	0.92505	0.817	0.2611	-0.04
Mof_N 	N 	0.92718	0.7985	0.23961	-0.082
Mof_C 	C 	1e-05	0.84656	0.33451	-0.051
Mof_C 	C 	0.99564	0.82914	0.31016	-0.073
Mof_H 	H 	0.0158	0.8181	0.3018	0.084
Mof_C 	C 	0.9301	0.84464	0.3108	-0.076
Mof_H 	H 	0.9067	0.8433	0.303	0.093
Mof_C 	C 	0.96036	0.82883	0.29894	0.104
Mof_C 	C 	0.7393	0.53748	0.06859	-0.009
Mof_H 	H 	0.7154	0.5298	0.0641	0.073
Mof_C 	C 	0.7445	0.56255	0.08854	-0.042
Mof_C 	C 	0.77019	0.5236	0.0551	-0.043
Mof_C 	C 	0.7795	0.57572	0.09423	-0.077
Mof_H 	H 	0.783	0.5929	0.1076	0.085
Mof_C 	C 	0.80497	0.53642	0.06074	-0.075
Mof_H 	H 	0.8255	0.5272	0.0517	0.09
Mof_C 	C 	0.80968	0.56289	0.07972	0.104
Mof_C 	C 	0.90108	0.87895	0.34802	0.372
Mof_C 	C 	0.03688	0.84587	0.3483	0.381
Mof_C 	C 	0.96951	0.86334	0.34597	-0.002
Mof_H 	H 	0.9724	0.8754	0.3619	0.072
Mof_C 	C 	0.93451	0.8626	0.33431	-0.045
Mof_C 	C 	0.71112	0.57598	0.10371	0.366
Mof_C 	C 	0.76418	0.49394	0.03422	0.384
Mof_O 	O 	0.03995	0.8658	0.36776	-0.463
Mof_O 	O 	0.90817	0.89561	0.3689	-0.46
Mof_O 	O 	0.06226	0.82668	0.33833	-0.455
Mof_O 	O 	0.87066	0.8744	0.33721	-0.468
Mof_O 	O 	0.67973	0.5686	0.09447	-0.457
Mof_O 	O 	0.71716	0.59485	0.12378	-0.452
Mof_O 	O 	0.73155	0.49026	0.02701	-0.481
Mof_O 	O 	0.79292	0.47833	0.02656	-0.479
Mof_Zn	Zn	0.13276	0.08392	0.60986	1.229
Mof_Zn	Zn	0.17682	0.11211	0.64634	1.229
Mof_O 	O 	0.09911	0.05825	0.58026	-0.456
Mof_H 	H 	0.0801	0.0706	0.5781	0.255
Mof_O 	O 	0.21152	0.13525	0.67603	-0.459
Mof_H 	H 	0.2047	0.1566	0.6793	0.255
Mof_O 	O 	0.09627	0.27449	0.52729	-0.495
Mof_O 	O 	0.13827	0.13305	0.59334	-0.462
Mof_O 	O 	0.08453	0.21363	0.52693	-0.481
Mof_O 	O 	0.17294	0.15758	0.62518	-0.474
Mof_C 	C 	0.14274	0.26736	0.56999	-0.072
Mof_H 	H 	0.1397	0.291	0.5629	0.077
Mof_C 	C 	0.12566	0.23654	0.559	-0.054
Mof_C 	C 	0.09949	0.24241	0.53592	0.388
Mof_C 	C 	0.13035	0.2011	0.56946	-0
Mof_H 	H 	0.1191	0.1806	0.5616	0.068
Mof_N 	N 	0.18089	0.29399	0.60458	-0.088
Mof_C 	C 	0.152	0.19658	0.59176	-0.048
Mof_C 	C 	0.15444	0.15896	0.60523	0.381
Mof_C 	C 	0.16916	0.22735	0.60321	-0.072
Mof_H 	H 	0.1835	0.2246	0.6182	0.09
Mof_C 	C 	0.16447	0.26179	0.5919	0.098
Mof_C 	C 	0.16826	0.32863	0.6051	-0.022
Mof_H 	H 	0.1466	0.3377	0.5975	0.045
Mof_N 	N 	0.21459	0.29065	0.61622	-0.041
Mof_C 	C 	0.19376	0.34784	0.61906	0.079
Mof_C 	C 	0.19537	0.38701	0.627	-0.061
Mof_N 	N 	0.22199	0.32391	0.62489	-0.079
Mof_C 	C 	0.16494	0.40792	0.62555	0.053
Mof_H 	H 	0.1433	0.3976	0.6188	0.016
Mof_C 	C 	0.228	0.40371	0.63445	0.05
Mof_H 	H 	0.2505	0.3909	0.634	0.028
Mof_C 	C 	0.2262	0.44039	0.64272	-0.184
Mof_H 	H 	0.2481	0.4516	0.6484	0.103
Mof_C 	C 	0.1645	0.44485	0.63393	-0.194
Mof_H 	H 	0.1425	0.4584	0.6331	0.104
Mof_C 	C 	0.1948	0.4608	0.64301	0.179
Mof_N 	N 	0.19555	0.49904	0.65085	-0.206
Mof_C 	C 	0.216	0.50976	0.67282	0.217
Mof_C 	C 	0.2205	0.48919	0.69316	-0.232
Mof_H 	H 	0.2093	0.4658	0.693	0.118
Mof_C 	C 	0.236	0.54091	0.6723	-0.217
Mof_H 	H 	0.2353	0.5563	0.6578	0.115
Mof_C 	C 	0.1732	0.52514	0.63769	0.189
Mof_C 	C 	0.1623	0.55552	0.64763	-0.2
Mof_H 	H 	0.1702	0.5609	0.6645	0.106
Mof_C 	C 	0.24055	0.49872	0.71541	0.092
Mof_H 	H 	0.2412	0.4827	0.7296	0.004
Mof_C 	C 	0.258	0.52967	0.71602	-0.09
Mof_C 	C 	0.2584	0.55051	0.69393	0.076
Mof_H 	H 	0.2736	0.5714	0.693	0.021
Mof_C 	C 	0.1306	0.5782	0.61149	-0.051
Mof_C 	C 	0.139	0.5821	0.63519	0.052
Mof_H 	H 	0.1299	0.6024	0.6445	0.018
Mof_C 	C 	0.1511	0.55179	0.59675	0.034
Mof_H 	H 	0.1527	0.553	0.5787	0.034
Mof_C 	C 	0.1693	0.52325	0.61149	-0.173
Mof_H 	H 	0.1788	0.5027	0.6027	0.099
Mof_N 	N 	0.31126	0.54429	0.77435	-0.089
Mof_C 	C 	0.29141	0.52222	0.7598	-0.024
Mof_H 	H 	0.2854	0.4977	0.7638	0.05
Mof_C 	C 	0.2812	0.53985	0.73859	0.092
Mof_N 	N 	0.07812	0.6543	0.58442	-0.091
Mof_C 	C 	0.09842	0.64113	0.60353	-0.017
Mof_H 	H 	0.1056	0.6541	0.6184	0.047
Mof_N 	N 	0.07851	0.62958	0.56395	-0.043
Mof_N 	N 	0.0968	0.59977	0.5727	-0.078
Mof_C 	C 	0.1069	0.6067	0.59814	0.074
Mof_N 	N 	0.317	0.57495	0.7611	-0.04
Mof_N 	N 	0.2985	0.57282	0.73961	-0.082
Mof_C 	C 	0.34656	0.49999	0.83451	-0.051
Mof_C 	C 	0.32914	0.50436	0.81016	-0.073
Mof_H 	H 	0.3181	0.4842	0.8018	0.084
Mof_C 	C 	0.34464	0.5699	0.8108	-0.076
Mof_H 	H 	0.3433	0.5933	0.803	0.093
Mof_C 	C 	0.32883	0.53964	0.79894	0.104
Mof_C 	C 	0.03748	0.7607	0.56859	-0.009
Mof_H 	H 	0.0298	0.7846	0.5641	0.073
Mof_C 	C 	0.06255	0.7555	0.58854	-0.042
Mof_C 	C 	0.0236	0.72981	0.5551	-0.043
Mof_C 	C 	0.07572	0.7205	0.59423	-0.077
Mof_H 	H 	0.0929	0.717	0.6076	0.085
Mof_C 	C 	0.03642	0.69503	0.56074	-0.076
Mof_H 	H 	0.0272	0.6745	0.5517	0.09
Mof_C 	C 	0.06289	0.69032	0.57972	0.105
Mof_C 	C 	0.37895	0.59892	0.84802	0.372
Mof_C 	C 	0.34587	0.46312	0.8483	0.381
Mof_C 	C 	0.36334	0.53049	0.84597	-0.002
Mof_H 	H 	0.3754	0.5276	0.8619	0.072
Mof_C 	C 	0.3626	0.56549	0.83431	-0.045
Mof_C 	C 	0.07598	0.78888	0.60371	0.366
Mof_C 	C 	0.99394	0.73582	0.53422	0.384
Mof_O 	O 	0.3658	0.46005	0.86776	-0.463
Mof_O 	O 	0.39561	0.59183	0.8689	-0.46
Mof_O 	O 	0.32668	0.43774	0.83833	-0.455
Mof_O 	O 	0.3744	0.62934	0.83721	-0.468
Mof_O 	O 	0.0686	0.82027	0.59447	-0.457
Mof_O 	O 	0.09485	0.78284	0.62378	-0.452
Mof_O 	O 	0.99026	0.76845	0.52701	-0.481
Mof_O 	O 	0.97833	0.70708	0.52656	-0.479
Mof_Zn	Zn	0.63276	0.58392	0.10986	1.229
Mof_Zn	Zn	0.67682	0.61211	0.14634	1.229
Mof_O 	O 	0.59911	0.55825	0.08026	-0.456
Mof_H 	H 	0.5801	0.5706	0.0781	0.255
Mof_O 	O 	0.71152	0.63525	0.17603	-0.459
Mof_H 	H 	0.7047	0.6566	0.1793	0.255
Mof_O 	O 	0.59627	0.77449	0.02729	-0.495
Mof_O 	O 	0.63827	0.63305	0.09334	-0.462
Mof_O 	O 	0.58453	0.71363	0.02693	-0.482
Mof_O 	O 	0.67294	0.65758	0.12518	-0.474
Mof_C 	C 	0.64274	0.76736	0.06999	-0.072
Mof_H 	H 	0.6397	0.791	0.0629	0.077
Mof_C 	C 	0.62566	0.73654	0.059	-0.054
Mof_C 	C 	0.59949	0.74241	0.03592	0.388
Mof_C 	C 	0.63035	0.7011	0.06946	-0
Mof_H 	H 	0.6191	0.6806	0.0616	0.068
Mof_N 	N 	0.68089	0.79399	0.10458	-0.088
Mof_C 	C 	0.652	0.69658	0.09176	-0.048
Mof_C 	C 	0.65444	0.65896	0.10523	0.381
Mof_C 	C 	0.66916	0.72735	0.10321	-0.072
Mof_H 	H 	0.6835	0.7246	0.1182	0.09
Mof_C 	C 	0.66447	0.76179	0.0919	0.098
Mof_C 	C 	0.66826	0.82863	0.1051	-0.022
Mof_H 	H 	0.6466	0.8377	0.0975	0.045
Mof_N 	N 	0.71459	0.79065	0.11622	-0.041
Mof_C 	C 	0.69376	0.84784	0.11906	0.079
Mof_C 	C 	0.69537	0.88701	0.127	-0.061
Mof_N 	N 	0.72199	0.82391	0.12489	-0.079
Mof_C 	C 	0.66494	0.90792	0.12555	0.053
Mof_H 	H 	0.6433	0.8976	0.1188	0.016
Mof_C 	C 	0.728	0.90371	0.13445	0.05
Mof_H 	H 	0.7505	0.8909	0.134	0.028
Mof_C 	C 	0.7262	0.94039	0.14272	-0.184
Mof_H 	H 	0.7481	0.9516	0.1484	0.103
Mof_C 	C 	0.6645	0.94485	0.13393	-0.194
Mof_H 	H 	0.6425	0.9584	0.1331	0.104
Mof_C 	C 	0.6948	0.9608	0.14301	0.179
Mof_N 	N 	0.69555	0.99904	0.15085	-0.206
Mof_C 	C 	0.716	0.00976	0.17282	0.217
Mof_C 	C 	0.7205	0.98919	0.19316	-0.232
Mof_H 	H 	0.7093	0.9658	0.193	0.118
Mof_C 	C 	0.736	0.04091	0.1723	-0.217
Mof_H 	H 	0.7353	0.0563	0.1578	0.115
Mof_C 	C 	0.6732	0.02514	0.13769	0.189
Mof_C 	C 	0.6623	0.05552	0.14763	-0.201
Mof_H 	H 	0.6702	0.0609	0.1645	0.106
Mof_C 	C 	0.74055	0.99872	0.21541	0.092
Mof_H 	H 	0.7412	0.9827	0.2296	0.004
Mof_C 	C 	0.758	0.02967	0.21602	-0.09
Mof_C 	C 	0.7584	0.05051	0.19393	0.076
Mof_H 	H 	0.7736	0.0714	0.193	0.021
Mof_C 	C 	0.6306	0.0782	0.11149	-0.051
Mof_C 	C 	0.639	0.0821	0.13519	0.052
Mof_H 	H 	0.6299	0.1024	0.1445	0.018
Mof_C 	C 	0.6511	0.05179	0.09675	0.034
Mof_H 	H 	0.6527	0.053	0.0787	0.034
Mof_C 	C 	0.6693	0.02325	0.11149	-0.174
Mof_H 	H 	0.6788	0.0027	0.1027	0.099
Mof_N 	N 	0.81126	0.04429	0.27435	-0.089
Mof_C 	C 	0.79141	0.02222	0.2598	-0.024
Mof_H 	H 	0.7854	0.9977	0.2638	0.05
Mof_C 	C 	0.7812	0.03985	0.23859	0.092
Mof_N 	N 	0.57812	0.1543	0.08442	-0.091
Mof_C 	C 	0.59842	0.14113	0.10353	-0.017
Mof_H 	H 	0.6056	0.1541	0.1184	0.047
Mof_N 	N 	0.57851	0.12958	0.06395	-0.043
Mof_N 	N 	0.5968	0.09977	0.0727	-0.078
Mof_C 	C 	0.6069	0.1067	0.09814	0.074
Mof_N 	N 	0.817	0.07495	0.2611	-0.04
Mof_N 	N 	0.7985	0.07282	0.23961	-0.082
Mof_C 	C 	0.84656	0.99999	0.33451	-0.051
Mof_C 	C 	0.82914	0.00436	0.31016	-0.073
Mof_H 	H 	0.8181	0.9842	0.3018	0.084
Mof_C 	C 	0.84464	0.0699	0.3108	-0.076
Mof_H 	H 	0.8433	0.0933	0.303	0.093
Mof_C 	C 	0.82883	0.03964	0.29894	0.104
Mof_C 	C 	0.53748	0.2607	0.06859	-0.009
Mof_H 	H 	0.5298	0.2846	0.0641	0.073
Mof_C 	C 	0.56255	0.2555	0.08854	-0.042
Mof_C 	C 	0.5236	0.22981	0.0551	-0.043
Mof_C 	C 	0.57572	0.2205	0.09423	-0.077
Mof_H 	H 	0.5929	0.217	0.1076	0.085
Mof_C 	C 	0.53642	0.19503	0.06074	-0.075
Mof_H 	H 	0.5272	0.1745	0.0517	0.09
Mof_C 	C 	0.56289	0.19032	0.07972	0.104
Mof_C 	C 	0.87895	0.09892	0.34802	0.372
Mof_C 	C 	0.84587	0.96312	0.3483	0.381
Mof_C 	C 	0.86334	0.03049	0.34597	-0.002
Mof_H 	H 	0.8754	0.0276	0.3619	0.072
Mof_C 	C 	0.8626	0.06549	0.33431	-0.045
Mof_C 	C 	0.57598	0.28888	0.10371	0.366
Mof_C 	C 	0.49394	0.23582	0.03422	0.384
Mof_O 	O 	0.8658	0.96005	0.36776	-0.463
Mof_O 	O 	0.89561	0.09183	0.3689	-0.46
Mof_O 	O 	0.82668	0.93774	0.33833	-0.455
Mof_O 	O 	0.8744	0.12934	0.33721	-0.468
Mof_O 	O 	0.5686	0.32027	0.09447	-0.457
Mof_O 	O 	0.59485	0.28284	0.12378	-0.452
Mof_O 	O 	0.49026	0.26845	0.02701	-0.481
Mof_O 	O 	0.47833	0.20708	0.02656	-0.479
Mof_Zn	Zn	0.86724	0.91608	0.60986	1.229
Mof_Zn	Zn	0.82318	0.88789	0.64634	1.229
Mof_O 	O 	0.90089	0.94175	0.58026	-0.456
Mof_H 	H 	0.9199	0.9294	0.5781	0.255
Mof_O 	O 	0.78848	0.86475	0.67603	-0.459
Mof_H 	H 	0.7953	0.8434	0.6793	0.255
Mof_O 	O 	0.90373	0.72551	0.52729	-0.495
Mof_O 	O 	0.86173	0.86695	0.59334	-0.462
Mof_O 	O 	0.91547	0.78637	0.52693	-0.481
Mof_O 	O 	0.82706	0.84242	0.62518	-0.474
Mof_C 	C 	0.85726	0.73264	0.56999	-0.072
Mof_H 	H 	0.8603	0.709	0.5629	0.077
Mof_C 	C 	0.87434	0.76346	0.559	-0.054
Mof_C 	C 	0.90051	0.75759	0.53592	0.388
Mof_C 	C 	0.86965	0.7989	0.56946	-0
Mof_H 	H 	0.8809	0.8194	0.5616	0.068
Mof_N 	N 	0.81911	0.70601	0.60458	-0.088
Mof_C 	C 	0.848	0.80342	0.59176	-0.048
Mof_C 	C 	0.84556	0.84104	0.60523	0.381
Mof_C 	C 	0.83084	0.77265	0.60321	-0.072
Mof_H 	H 	0.8165	0.7754	0.6182	0.09
Mof_C 	C 	0.83553	0.73821	0.5919	0.098
Mof_C 	C 	0.83174	0.67137	0.6051	-0.022
Mof_H 	H 	0.8534	0.6623	0.5975	0.045
Mof_N 	N 	0.78541	0.70935	0.61622	-0.041
Mof_C 	C 	0.80624	0.65216	0.61906	0.079
Mof_C 	C 	0.80463	0.61299	0.627	-0.061
Mof_N 	N 	0.77801	0.67609	0.62489	-0.079
Mof_C 	C 	0.83506	0.59208	0.62555	0.053
Mof_H 	H 	0.8567	0.6024	0.6188	0.016
Mof_C 	C 	0.772	0.59629	0.63445	0.05
Mof_H 	H 	0.7495	0.6091	0.634	0.028
Mof_C 	C 	0.7738	0.55961	0.64272	-0.184
Mof_H 	H 	0.7519	0.5484	0.6484	0.103
Mof_C 	C 	0.8355	0.55515	0.63393	-0.194
Mof_H 	H 	0.8575	0.5416	0.6331	0.104
Mof_C 	C 	0.8052	0.5392	0.64301	0.179
Mof_N 	N 	0.80445	0.50096	0.65085	-0.206
Mof_C 	C 	0.784	0.49024	0.67282	0.217
Mof_C 	C 	0.7795	0.51081	0.69316	-0.232
Mof_H 	H 	0.7907	0.5342	0.693	0.118
Mof_C 	C 	0.764	0.45909	0.6723	-0.217
Mof_H 	H 	0.7647	0.4437	0.6578	0.115
Mof_C 	C 	0.8268	0.47486	0.63769	0.189
Mof_C 	C 	0.8377	0.44448	0.64763	-0.2
Mof_H 	H 	0.8298	0.4391	0.6645	0.106
Mof_C 	C 	0.75945	0.50128	0.71541	0.092
Mof_H 	H 	0.7588	0.5173	0.7296	0.004
Mof_C 	C 	0.742	0.47033	0.71602	-0.09
Mof_C 	C 	0.7416	0.44949	0.69393	0.076
Mof_H 	H 	0.7264	0.4286	0.693	0.021
Mof_C 	C 	0.8694	0.4218	0.61149	-0.051
Mof_C 	C 	0.861	0.4179	0.63519	0.052
Mof_H 	H 	0.8701	0.3976	0.6445	0.018
Mof_C 	C 	0.8489	0.44821	0.59675	0.034
Mof_H 	H 	0.8473	0.447	0.5787	0.034
Mof_C 	C 	0.8307	0.47675	0.61149	-0.173
Mof_H 	H 	0.8212	0.4973	0.6027	0.099
Mof_N 	N 	0.68874	0.45571	0.77435	-0.089
Mof_C 	C 	0.70859	0.47778	0.7598	-0.024
Mof_H 	H 	0.7146	0.5023	0.7638	0.05
Mof_C 	C 	0.7188	0.46015	0.73859	0.092
Mof_N 	N 	0.92188	0.3457	0.58442	-0.091
Mof_C 	C 	0.90158	0.35887	0.60353	-0.017
Mof_H 	H 	0.8944	0.3459	0.6184	0.047
Mof_N 	N 	0.92149	0.37042	0.56395	-0.043
Mof_N 	N 	0.9032	0.40023	0.5727	-0.078
Mof_C 	C 	0.8931	0.3933	0.59814	0.074
Mof_N 	N 	0.683	0.42505	0.7611	-0.04
Mof_N 	N 	0.7015	0.42718	0.73961	-0.082
Mof_C 	C 	0.65344	0.50001	0.83451	-0.051
Mof_C 	C 	0.67086	0.49564	0.81016	-0.073
Mof_H 	H 	0.6819	0.5158	0.8018	0.084
Mof_C 	C 	0.65536	0.4301	0.8108	-0.076
Mof_H 	H 	0.6567	0.4067	0.803	0.093
Mof_C 	C 	0.67117	0.46036	0.79894	0.104
Mof_C 	C 	0.96252	0.2393	0.56859	-0.009
Mof_H 	H 	0.9702	0.2154	0.5641	0.073
Mof_C 	C 	0.93745	0.2445	0.58854	-0.042
Mof_C 	C 	0.9764	0.27019	0.5551	-0.043
Mof_C 	C 	0.92428	0.2795	0.59423	-0.077
Mof_H 	H 	0.9071	0.283	0.6076	0.085
Mof_C 	C 	0.96358	0.30497	0.56074	-0.076
Mof_H 	H 	0.9728	0.3255	0.5517	0.09
Mof_C 	C 	0.93711	0.30968	0.57972	0.105
Mof_C 	C 	0.62105	0.40108	0.84802	0.372
Mof_C 	C 	0.65413	0.53688	0.8483	0.381
Mof_C 	C 	0.63666	0.46951	0.84597	-0.002
Mof_H 	H 	0.6246	0.4724	0.8619	0.072
Mof_C 	C 	0.6374	0.43451	0.83431	-0.045
Mof_C 	C 	0.92402	0.21112	0.60371	0.366
Mof_C 	C 	0.00606	0.26418	0.53422	0.384
Mof_O 	O 	0.6342	0.53995	0.86776	-0.463
Mof_O 	O 	0.60439	0.40817	0.8689	-0.46
Mof_O 	O 	0.67332	0.56226	0.83833	-0.455
Mof_O 	O 	0.6256	0.37066	0.83721	-0.468
Mof_O 	O 	0.9314	0.17973	0.59447	-0.457
Mof_O 	O 	0.90515	0.21716	0.62378	-0.452
Mof_O 	O 	0.00974	0.23155	0.52701	-0.481
Mof_O 	O 	0.02167	0.29292	0.52656	-0.479
Mof_Zn	Zn	0.36724	0.41608	0.10986	1.229
Mof_Zn	Zn	0.32318	0.38789	0.14634	1.229
Mof_O 	O 	0.40089	0.44175	0.08026	-0.456
Mof_H 	H 	0.4199	0.4294	0.0781	0.255
Mof_O 	O 	0.28848	0.36475	0.17603	-0.459
Mof_H 	H 	0.2953	0.3434	0.1793	0.255
Mof_O 	O 	0.40373	0.22551	0.02729	-0.495
Mof_O 	O 	0.36173	0.36695	0.09334	-0.462
Mof_O 	O 	0.41547	0.28637	0.02693	-0.482
Mof_O 	O 	0.32706	0.34242	0.12518	-0.474
Mof_C 	C 	0.35726	0.23264	0.06999	-0.072
Mof_H 	H 	0.3603	0.209	0.0629	0.077
Mof_C 	C 	0.37434	0.26346	0.059	-0.054
Mof_C 	C 	0.40051	0.25759	0.03592	0.388
Mof_C 	C 	0.36965	0.2989	0.06946	-0
Mof_H 	H 	0.3809	0.3194	0.0616	0.068
Mof_N 	N 	0.31911	0.20601	0.10458	-0.088
Mof_C 	C 	0.348	0.30342	0.09176	-0.048
Mof_C 	C 	0.34556	0.34104	0.10523	0.381
Mof_C 	C 	0.33084	0.27265	0.10321	-0.072
Mof_H 	H 	0.3165	0.2754	0.1182	0.09
Mof_C 	C 	0.33553	0.23821	0.0919	0.098
Mof_C 	C 	0.33174	0.17137	0.1051	-0.022
Mof_H 	H 	0.3534	0.1623	0.0975	0.045
Mof_N 	N 	0.28541	0.20935	0.11622	-0.041
Mof_C 	C 	0.30624	0.15216	0.11906	0.079
Mof_C 	C 	0.30463	0.11299	0.127	-0.061
Mof_N 	N 	0.27801	0.17609	0.12489	-0.079
Mof_C 	C 	0.33506	0.09208	0.12555	0.053
Mof_H 	H 	0.3567	0.1024	0.1188	0.016
Mof_C 	C 	0.272	0.09629	0.13445	0.05
Mof_H 	H 	0.2495	0.1091	0.134	0.028
Mof_C 	C 	0.2738	0.05961	0.14272	-0.184
Mof_H 	H 	0.2519	0.0484	0.1484	0.103
Mof_C 	C 	0.3355	0.05515	0.13393	-0.194
Mof_H 	H 	0.3575	0.0416	0.1331	0.104
Mof_C 	C 	0.3052	0.0392	0.14301	0.179
Mof_N 	N 	0.30445	0.00096	0.15085	-0.206
Mof_C 	C 	0.284	0.99024	0.17282	0.217
Mof_C 	C 	0.2795	0.01081	0.19316	-0.232
Mof_H 	H 	0.2907	0.0342	0.193	0.118
Mof_C 	C 	0.264	0.95909	0.1723	-0.217
Mof_H 	H 	0.2647	0.9437	0.1578	0.115
Mof_C 	C 	0.3268	0.97486	0.13769	0.189
Mof_C 	C 	0.3377	0.94448	0.14763	-0.201
Mof_H 	H 	0.3298	0.9391	0.1645	0.106
Mof_C 	C 	0.25945	0.00128	0.21541	0.092
Mof_H 	H 	0.2588	0.0173	0.2296	0.004
Mof_C 	C 	0.242	0.97033	0.21602	-0.09
Mof_C 	C 	0.2416	0.94949	0.19393	0.076
Mof_H 	H 	0.2264	0.9286	0.193	0.021
Mof_C 	C 	0.3694	0.9218	0.11149	-0.051
Mof_C 	C 	0.361	0.9179	0.13519	0.052
Mof_H 	H 	0.3701	0.8976	0.1445	0.018
Mof_C 	C 	0.3489	0.94821	0.09675	0.034
Mof_H 	H 	0.3473	0.947	0.0787	0.034
Mof_C 	C 	0.3307	0.97675	0.11149	-0.174
Mof_H 	H 	0.3212	0.9973	0.1027	0.099
Mof_N 	N 	0.18874	0.95571	0.27435	-0.089
Mof_C 	C 	0.20859	0.97778	0.2598	-0.024
Mof_H 	H 	0.2146	0.0023	0.2638	0.05
Mof_C 	C 	0.2188	0.96015	0.23859	0.092
Mof_N 	N 	0.42188	0.8457	0.08442	-0.091
Mof_C 	C 	0.40158	0.85887	0.10353	-0.017
Mof_H 	H 	0.3944	0.8459	0.1184	0.047
Mof_N 	N 	0.42149	0.87042	0.06395	-0.043
Mof_N 	N 	0.4032	0.90023	0.0727	-0.078
Mof_C 	C 	0.3931	0.8933	0.09814	0.074
Mof_N 	N 	0.183	0.92505	0.2611	-0.04
Mof_N 	N 	0.2015	0.92718	0.23961	-0.082
Mof_C 	C 	0.15344	1e-05	0.33451	-0.051
Mof_C 	C 	0.17086	0.99564	0.31016	-0.073
Mof_H 	H 	0.1819	0.0158	0.3018	0.084
Mof_C 	C 	0.15536	0.9301	0.3108	-0.076
Mof_H 	H 	0.1567	0.9067	0.303	0.093
Mof_C 	C 	0.17117	0.96036	0.29894	0.104
Mof_C 	C 	0.46252	0.7393	0.06859	-0.009
Mof_H 	H 	0.4702	0.7154	0.0641	0.073
Mof_C 	C 	0.43745	0.7445	0.08854	-0.042
Mof_C 	C 	0.4764	0.77019	0.0551	-0.043
Mof_C 	C 	0.42428	0.7795	0.09423	-0.077
Mof_H 	H 	0.4071	0.783	0.1076	0.085
Mof_C 	C 	0.46358	0.80497	0.06074	-0.075
Mof_H 	H 	0.4728	0.8255	0.0517	0.09
Mof_C 	C 	0.43711	0.80968	0.07972	0.104
Mof_C 	C 	0.12105	0.90108	0.34802	0.372
Mof_C 	C 	0.15413	0.03688	0.3483	0.381
Mof_C 	C 	0.13666	0.96951	0.34597	-0.002
Mof_H 	H 	0.1246	0.9724	0.3619	0.072
Mof_C 	C 	0.1374	0.93451	0.33431	-0.045
Mof_C 	C 	0.42402	0.71112	0.10371	0.366
Mof_C 	C 	0.50606	0.76418	0.03422	0.384
Mof_O 	O 	0.1342	0.03995	0.36776	-0.463
Mof_O 	O 	0.10439	0.90817	0.3689	-0.46
Mof_O 	O 	0.17332	0.06226	0.33833	-0.455
Mof_O 	O 	0.1256	0.87066	0.33721	-0.468
Mof_O 	O 	0.4314	0.67973	0.09447	-0.457
Mof_O 	O 	0.40515	0.71716	0.12378	-0.452
Mof_O 	O 	0.50974	0.73155	0.02701	-0.481
Mof_O 	O 	0.52167	0.79292	0.02656	-0.479
Mof_Zn	Zn	0.78322	0.04638	0.5	1.206
Mof_Zn	Zn	0.71078	0.06146	0.5	1.204
Mof_Zn	Zn	0.28322	0.54638	-0	1.205
Mof_Zn	Zn	0.21078	0.56146	-0	1.204
Mof_Zn	Zn	0.21678	0.95362	0.5	1.206
Mof_Zn	Zn	0.28922	0.93854	0.5	1.204
Mof_Zn	Zn	0.71678	0.45362	-0	1.205
Mof_Zn	Zn	0.78922	0.43854	-0	1.204
Mof_Zn	Zn	0.95362	0.78322	0.5	1.206
Mof_Zn	Zn	0.93854	0.71078	0.5	1.204
Mof_Zn	Zn	0.45362	0.28322	-0	1.205
Mof_Zn	Zn	0.43854	0.21078	-0	1.204
Mof_Zn	Zn	0.04638	0.21678	0.5	1.206
Mof_Zn	Zn	0.06146	0.28922	0.5	1.204
Mof_Zn	Zn	0.54638	0.71678	-0	1.205
Mof_Zn	Zn	0.56146	0.78922	-0	1.204
_end
