data_functionalizedCrystal
_audit_creation_method	'EQeq! by Chris Wilmer'
_symmetry_space_group_name_H-M	'P1'
_symmetry_Int_Tables_number	1
_symmetry_cell_setting	triclinic
loop_
_symmetry_equiv_pos_as_xyz
  x,y,z
_cell_length_a	7.1834
_cell_length_b	22.367
_cell_length_c	8.4852
_cell_angle_alpha	90
_cell_angle_beta	90
_cell_angle_gamma	90
loop_
_atom_site_label
_atom_site_type_symbol
_atom_site_fract_x
_atom_site_fract_y
_atom_site_fract_z
_atom_site_charge
Mof_O 	O 	0.0833	0.6854	0.0247	-0.432
Mof_O 	O 	0.0833	0.1854	0.5247	-0.479
Mof_O 	O 	0.9167	0.3146	0.0247	-0.433
Mof_O 	O 	0.9167	0.8146	0.5247	-0.48
Mof_O 	O 	0.5833	0.3146	0.0247	-0.433
Mof_O 	O 	0.5833	0.8146	0.5247	-0.48
Mof_O 	O 	0.4167	0.6854	0.0247	-0.433
Mof_O 	O 	0.4167	0.1854	0.5247	-0.48
Mof_Sr	Sr	0.25	0.81749	0.42428	1.461
Mof_S 	S 	0.25	0.68077	0.1203	0.723
Mof_O 	O 	0.25	0.7207	0.2535	-0.489
Mof_O 	O 	0.25	0.3946	0.1461	-0.401
Mof_O 	O 	0.25	0.4438	0.9249	-0.465
Mof_O 	O 	0.25	0.4781	0.6459	-0.538
Mof_H 	H 	0.25	0.4761	0.7424	0.336
Mof_O 	O 	0.25	0.5751	0.6988	-0.333
Mof_C 	C 	0.25	0.4428	0.0708	0.497
Mof_C 	C 	0.25	0.5338	0.6027	0.454
Mof_C 	C 	0.25	0.6068	0.2032	-0.275
Mof_C 	C 	0.25	0.5568	0.0999	0.305
Mof_H 	H 	0.25	0.5618	0.9911	-0.108
Mof_C 	C 	0.25	0.4997	0.1678	-0.257
Mof_C 	C 	0.25	0.4933	0.3296	0.175
Mof_H 	H 	0.25	0.455	0.3727	0.006
Mof_C 	C 	0.25	0.5432	0.431	-0.231
Mof_C 	C 	0.25	0.5999	0.3633	0.195
Mof_H 	H 	0.25	0.6335	0.4278	-0.045
Mof_Sr	Sr	0.25	0.31749	0.92428	1.312
Mof_S 	S 	0.25	0.18077	0.6203	0.716
Mof_O 	O 	0.25	0.2207	0.7535	-0.499
Mof_O 	O 	0.25	0.8946	0.6461	-0.407
Mof_O 	O 	0.25	0.9438	0.4249	-0.391
Mof_O 	O 	0.25	0.9781	0.1459	-0.529
Mof_H 	H 	0.25	0.9761	0.2424	0.333
Mof_O 	O 	0.25	0.0751	0.1988	-0.329
Mof_C 	C 	0.25	0.9428	0.5708	0.385
Mof_C 	C 	0.25	0.0338	0.1027	0.526
Mof_C 	C 	0.25	0.1068	0.7032	-0.239
Mof_C 	C 	0.25	0.0568	0.5999	0.134
Mof_H 	H 	0.25	0.0618	0.4911	0.002
Mof_C 	C 	0.25	0.9997	0.6678	-0.19
Mof_C 	C 	0.25	0.9933	0.8296	0.164
Mof_H 	H 	0.25	0.955	0.8727	-0.007
Mof_C 	C 	0.25	0.0432	0.931	-0.297
Mof_C 	C 	0.25	0.0999	0.8633	0.196
Mof_H 	H 	0.25	0.1335	0.9278	-0.065
Mof_Sr	Sr	0.75	0.18251	0.42428	1.461
Mof_S 	S 	0.75	0.31923	0.1203	0.723
Mof_O 	O 	0.75	0.2793	0.2535	-0.489
Mof_O 	O 	0.75	0.6054	0.1461	-0.401
Mof_O 	O 	0.75	0.5562	0.9249	-0.465
Mof_O 	O 	0.75	0.5219	0.6459	-0.538
Mof_H 	H 	0.75	0.5239	0.7424	0.336
Mof_O 	O 	0.75	0.4249	0.6988	-0.333
Mof_C 	C 	0.75	0.5572	0.0708	0.497
Mof_C 	C 	0.75	0.4662	0.6027	0.454
Mof_C 	C 	0.75	0.3932	0.2032	-0.275
Mof_C 	C 	0.75	0.4432	0.0999	0.305
Mof_H 	H 	0.75	0.4382	0.9911	-0.108
Mof_C 	C 	0.75	0.5003	0.1678	-0.257
Mof_C 	C 	0.75	0.5067	0.3296	0.175
Mof_H 	H 	0.75	0.545	0.3727	0.006
Mof_C 	C 	0.75	0.4568	0.431	-0.231
Mof_C 	C 	0.75	0.4001	0.3633	0.195
Mof_H 	H 	0.75	0.3665	0.4278	-0.045
Mof_Sr	Sr	0.75	0.68251	0.92428	1.312
Mof_S 	S 	0.75	0.81923	0.6203	0.716
Mof_O 	O 	0.75	0.7793	0.7535	-0.499
Mof_O 	O 	0.75	0.1054	0.6461	-0.407
Mof_O 	O 	0.75	0.0562	0.4249	-0.391
Mof_O 	O 	0.75	0.0219	0.1459	-0.529
Mof_H 	H 	0.75	0.0239	0.2424	0.333
Mof_O 	O 	0.75	0.9249	0.1988	-0.329
Mof_C 	C 	0.75	0.0572	0.5708	0.385
Mof_C 	C 	0.75	0.9662	0.1027	0.526
Mof_C 	C 	0.75	0.8932	0.7032	-0.239
Mof_C 	C 	0.75	0.9432	0.5999	0.134
Mof_H 	H 	0.75	0.9382	0.4911	0.002
Mof_C 	C 	0.75	0.0003	0.6678	-0.19
Mof_C 	C 	0.75	0.0067	0.8296	0.164
Mof_H 	H 	0.75	0.045	0.8727	-0.007
Mof_C 	C 	0.75	0.9568	0.931	-0.297
Mof_C 	C 	0.75	0.9001	0.8633	0.196
Mof_H 	H 	0.75	0.8665	0.9278	-0.065
_end
