# CIF file generated by openbabel 3.1.0, see https://openbabel.org
data_I
_chemical_name_common 'image0'
_cell_length_a 35.4076
_cell_length_b 14.8501
_cell_length_c 30.9056
_cell_angle_alpha 90
_cell_angle_beta 101.972
_cell_angle_gamma 90
_space_group_name_H-M_alt 'P 1'
_space_group_name_Hall 'P 1'
loop_
    _symmetry_equiv_pos_as_xyz
    x,y,z
loop_
    _atom_site_label
    _atom_site_type_symbol
    _atom_site_fract_x
    _atom_site_fract_y
    _atom_site_fract_z
    _atom_site_occupancy
    I1       I        0.76774    0.73436    0.70723    1.000
    I2       I        0.47140    0.65192    0.37040    1.000
    I3       I        0.87059    0.65295    0.80719    1.000
    I4       I        0.64343    0.90904    0.48596    1.000
    I5       I        0.60370    0.76281    0.59934    1.000
    I6       I        0.37808    0.73782    0.44353    1.000
    Zn1      Zn       0.41438    0.62461    0.40699    1.000
    Zn2      Zn       0.62307    0.90380    0.55972    1.000
    Zn3      Zn       0.82820    0.63950    0.73012    1.000
    N1       N        0.81578    0.50300    0.72080    1.000
    N2       N        0.81774    0.17400    0.74710    1.000
    N3       N        0.42848    0.51920    0.45210    1.000
    N4       N        0.77699    0.04820    0.72600    1.000
    N5       N        0.66634    0.96700    0.60490    1.000
    N6       N        0.47543    0.23090    0.52951    1.000
    N7       N        0.36203    0.16110    0.68410    1.000
    N8       N        0.76460    0.18640    0.68660    1.000
    N9       N        0.57694    0.99030    0.55710    1.000
    N10      N        0.42557    0.27940    0.56510    1.000
    N11      N        0.46138    0.14810    0.59000    1.000
    C1       C        0.80710    0.08960    0.75170    1.000
    C2       C        0.43340    0.20710    0.59160    1.000
    C3       C        0.75750    0.09900    0.69290    1.000
    C4       C        0.72540    0.05460    0.66180    1.000
    C5       C        0.48150    0.16410    0.55890    1.000
    C6       C        0.44140    0.36930    0.50650    1.000
    C7       C        0.80210    0.31840    0.71450    1.000
    C8       C        0.79450    0.22000    0.71550    1.000
    C9       C        0.56260    0.04140    0.52240    1.000
    H1       H        0.57400    0.03870    0.49720    1.000
    C10      C        0.67760    0.04980    0.59540    1.000
    H2       H        0.66530    0.07720    0.56840    1.000
    C11      C        0.35100    0.21750    0.64910    1.000
    H3       H        0.32660    0.24660    0.64550    1.000
    C12      C        0.51430    0.10190    0.55740    1.000
    C13      C        0.46740    0.39270    0.48070    1.000
    H4       H        0.48980    0.35730    0.48090    1.000
    C14      C        0.40890    0.19140    0.62370    1.000
    C15      C        0.70630    0.09630    0.62360    1.000
    H5       H        0.71280    0.15590    0.61680    1.000
    C16      C        0.44762    0.28860    0.53520    1.000
    C17      C        0.78330    0.47010    0.69590    1.000
    H6       H        0.76480    0.51120    0.68030    1.000
    C18      C        0.40310    0.49510    0.47700    1.000
    H7       H        0.38070    0.53080    0.47580    1.000
    C19      C        0.71420    0.96810    0.67080    1.000
    H8       H        0.72690    0.93790    0.69690    1.000
    C20      C        0.46010    0.46870    0.45460    1.000
    H9       H        0.47840    0.48590    0.43760    1.000
    C21      C        0.68480    0.92630    0.64190    1.000
    H10      H        0.67730    0.86720    0.64840    1.000
    C22      C        0.84220    0.44410    0.74210    1.000
    H11      H        0.86570    0.46660    0.75930    1.000
    C23      C        0.77560    0.37920    0.69180    1.000
    H12      H        0.75230    0.35850    0.67360    1.000
    C24      C        0.37340    0.23400    0.61900    1.000
    H13      H        0.36480    0.27420    0.59510    1.000
    C25      C        0.40850    0.42190    0.50390    1.000
    H14      H        0.38980    0.40660    0.52070    1.000
    C26      C        0.53170    0.09850    0.52160    1.000
    H15      H        0.52250    0.13510    0.49640    1.000
    C27      C        0.83630    0.35220    0.73990    1.000
    H16      H        0.85530    0.31240    0.75550    1.000
    C28      C        0.39570    0.12160    0.68820    1.000
    H17      H        0.40390    0.08270    0.71270    1.000
    C29      C        0.52980    0.05040    0.59340    1.000
    H18      H        0.51960    0.05320    0.61950    1.000
    C30      C        0.41990    0.13350    0.65870    1.000
    H19      H        0.44380    0.10220    0.66270    1.000
    C31      C        0.56010    0.99490    0.59120    1.000
    H20      H        0.56960    0.95710    0.61580    1.000
    C32      C        0.83062    0.03802    0.78878    1.000
    C33      C        0.82372    0.94673    0.79517    1.000
    H21      H        0.80400    0.91560    0.77520    1.000
    C34      C        0.86035    0.08000    0.81790    1.000
    H22      H        0.86580    0.14200    0.81460    1.000
    C35      C        0.84578    0.90230    0.83078    1.000
    H23      H        0.84020    0.84110    0.83590    1.000
    C36      C        0.88198    0.02990    0.85186    1.000
    H24      H        0.90280    0.05850    0.87130    1.000
    N12      N        0.87504    0.94350    0.85858    1.000
    I7       I        0.61133    0.76200    0.59040    1.000
    I8       I        0.75740    0.72490    0.69240    1.000
    I9       I        0.26774    0.23436    0.70723    1.000
    I10      I        0.97140    0.15192    0.37040    1.000
    I11      I        0.37059    0.15295    0.80719    1.000
    I12      I        0.14343    0.40904    0.48596    1.000
    I13      I        0.10370    0.26281    0.59934    1.000
    I14      I        0.87808    0.23782    0.44353    1.000
    Zn4      Zn       0.91438    0.12461    0.40699    1.000
    Zn5      Zn       0.12307    0.40380    0.55972    1.000
    Zn6      Zn       0.32820    0.13950    0.73012    1.000
    N13      N        0.31578    0.00300    0.72080    1.000
    N14      N        0.31774    0.67400    0.74710    1.000
    N15      N        0.92848    0.01920    0.45210    1.000
    N16      N        0.27699    0.54820    0.72600    1.000
    N17      N        0.16634    0.46700    0.60490    1.000
    N18      N        0.97543    0.73090    0.52951    1.000
    N19      N        0.86203    0.66110    0.68410    1.000
    N20      N        0.26460    0.68640    0.68660    1.000
    N21      N        0.07694    0.49030    0.55710    1.000
    N22      N        0.92557    0.77940    0.56510    1.000
    N23      N        0.96138    0.64810    0.59000    1.000
    C37      C        0.30710    0.58960    0.75170    1.000
    C38      C        0.93340    0.70710    0.59160    1.000
    C39      C        0.25750    0.59900    0.69290    1.000
    C40      C        0.22540    0.55460    0.66180    1.000
    C41      C        0.98150    0.66410    0.55890    1.000
    C42      C        0.94140    0.86930    0.50650    1.000
    C43      C        0.30210    0.81840    0.71450    1.000
    C44      C        0.29450    0.72000    0.71550    1.000
    C45      C        0.06260    0.54140    0.52240    1.000
    H25      H        0.07400    0.53870    0.49720    1.000
    C46      C        0.17760    0.54980    0.59540    1.000
    H26      H        0.16530    0.57720    0.56840    1.000
    C47      C        0.85100    0.71750    0.64910    1.000
    H27      H        0.82660    0.74660    0.64550    1.000
    C48      C        0.01430    0.60190    0.55740    1.000
    C49      C        0.96740    0.89270    0.48070    1.000
    H28      H        0.98980    0.85730    0.48090    1.000
    C50      C        0.90890    0.69140    0.62370    1.000
    C51      C        0.20630    0.59630    0.62360    1.000
    H29      H        0.21280    0.65590    0.61680    1.000
    C52      C        0.94762    0.78860    0.53520    1.000
    C53      C        0.28330    0.97010    0.69590    1.000
    H30      H        0.26480    0.01120    0.68030    1.000
    C54      C        0.90310    0.99510    0.47700    1.000
    H31      H        0.88070    0.03080    0.47580    1.000
    C55      C        0.21420    0.46810    0.67080    1.000
    H32      H        0.22690    0.43790    0.69690    1.000
    C56      C        0.96010    0.96870    0.45460    1.000
    H33      H        0.97840    0.98590    0.43760    1.000
    C57      C        0.18480    0.42630    0.64190    1.000
    H34      H        0.17730    0.36720    0.64840    1.000
    C58      C        0.34220    0.94410    0.74210    1.000
    H35      H        0.36570    0.96660    0.75930    1.000
    C59      C        0.27560    0.87920    0.69180    1.000
    H36      H        0.25230    0.85850    0.67360    1.000
    C60      C        0.87340    0.73400    0.61900    1.000
    H37      H        0.86480    0.77420    0.59510    1.000
    C61      C        0.90850    0.92190    0.50390    1.000
    H38      H        0.88980    0.90660    0.52070    1.000
    C62      C        0.03170    0.59850    0.52160    1.000
    H39      H        0.02250    0.63510    0.49640    1.000
    C63      C        0.33630    0.85220    0.73990    1.000
    H40      H        0.35530    0.81240    0.75550    1.000
    C64      C        0.89570    0.62160    0.68820    1.000
    H41      H        0.90390    0.58270    0.71270    1.000
    C65      C        0.02980    0.55040    0.59340    1.000
    H42      H        0.01960    0.55320    0.61950    1.000
    C66      C        0.91990    0.63350    0.65870    1.000
    H43      H        0.94380    0.60220    0.66270    1.000
    C67      C        0.06010    0.49490    0.59120    1.000
    H44      H        0.06960    0.45710    0.61580    1.000
    C68      C        0.33062    0.53802    0.78878    1.000
    C69      C        0.32372    0.44673    0.79517    1.000
    H45      H        0.30400    0.41560    0.77520    1.000
    C70      C        0.36035    0.58000    0.81790    1.000
    H46      H        0.36580    0.64200    0.81460    1.000
    C71      C        0.34578    0.40230    0.83078    1.000
    H47      H        0.34020    0.34110    0.83590    1.000
    C72      C        0.38198    0.52990    0.85186    1.000
    H48      H        0.40280    0.55850    0.87130    1.000
    N24      N        0.37504    0.44350    0.85858    1.000
    I15      I        0.11133    0.26200    0.59040    1.000
    I16      I        0.25740    0.22490    0.69240    1.000
    I17      I        0.76774    0.26564    0.20723    1.000
    I18      I        0.47140    0.34808    0.87040    1.000
    I19      I        0.87059    0.34705    0.30719    1.000
    I20      I        0.64343    0.09096    0.98596    1.000
    I21      I        0.60370    0.23719    0.09934    1.000
    I22      I        0.37808    0.26218    0.94353    1.000
    Zn7      Zn       0.41438    0.37539    0.90699    1.000
    Zn8      Zn       0.62307    0.09620    0.05972    1.000
    Zn9      Zn       0.82820    0.36050    0.23012    1.000
    N25      N        0.81578    0.49700    0.22080    1.000
    N26      N        0.81774    0.82600    0.24710    1.000
    N27      N        0.42848    0.48080    0.95210    1.000
    N28      N        0.77699    0.95180    0.22600    1.000
    N29      N        0.66634    0.03300    0.10490    1.000
    N30      N        0.47543    0.76910    0.02951    1.000
    N31      N        0.36203    0.83890    0.18410    1.000
    N32      N        0.76460    0.81360    0.18660    1.000
    N33      N        0.57694    0.00970    0.05710    1.000
    N34      N        0.42557    0.72060    0.06510    1.000
    N35      N        0.46138    0.85190    0.09000    1.000
    C73      C        0.80710    0.91040    0.25170    1.000
    C74      C        0.43340    0.79290    0.09160    1.000
    C75      C        0.75750    0.90100    0.19290    1.000
    C76      C        0.72540    0.94540    0.16180    1.000
    C77      C        0.48150    0.83590    0.05890    1.000
    C78      C        0.44140    0.63070    0.00650    1.000
    C79      C        0.80210    0.68160    0.21450    1.000
    C80      C        0.79450    0.78000    0.21550    1.000
    C81      C        0.56260    0.95860    0.02240    1.000
    H49      H        0.57400    0.96130    0.99720    1.000
    C82      C        0.67760    0.95020    0.09540    1.000
    H50      H        0.66530    0.92280    0.06840    1.000
    C83      C        0.35100    0.78250    0.14910    1.000
    H51      H        0.32660    0.75340    0.14550    1.000
    C84      C        0.51430    0.89810    0.05740    1.000
    C85      C        0.46740    0.60730    0.98070    1.000
    H52      H        0.48980    0.64270    0.98090    1.000
    C86      C        0.40890    0.80860    0.12370    1.000
    C87      C        0.70630    0.90370    0.12360    1.000
    H53      H        0.71280    0.84410    0.11680    1.000
    C88      C        0.44762    0.71140    0.03520    1.000
    C89      C        0.78330    0.52990    0.19590    1.000
    H54      H        0.76480    0.48880    0.18030    1.000
    C90      C        0.40310    0.50490    0.97700    1.000
    H55      H        0.38070    0.46920    0.97580    1.000
    C91      C        0.71420    0.03190    0.17080    1.000
    H56      H        0.72690    0.06210    0.19690    1.000
    C92      C        0.46010    0.53130    0.95460    1.000
    H57      H        0.47840    0.51410    0.93760    1.000
    C93      C        0.68480    0.07370    0.14190    1.000
    H58      H        0.67730    0.13280    0.14840    1.000
    C94      C        0.84220    0.55590    0.24210    1.000
    H59      H        0.86570    0.53340    0.25930    1.000
    C95      C        0.77560    0.62080    0.19180    1.000
    H60      H        0.75230    0.64150    0.17360    1.000
    C96      C        0.37340    0.76600    0.11900    1.000
    H61      H        0.36480    0.72580    0.09510    1.000
    C97      C        0.40850    0.57810    0.00390    1.000
    H62      H        0.38980    0.59340    0.02070    1.000
    C98      C        0.53170    0.90150    0.02160    1.000
    H63      H        0.52250    0.86490    0.99640    1.000
    C99      C        0.83630    0.64780    0.23990    1.000
    H64      H        0.85530    0.68760    0.25550    1.000
    C100     C        0.39570    0.87840    0.18820    1.000
    H65      H        0.40390    0.91730    0.21270    1.000
    C101     C        0.52980    0.94960    0.09340    1.000
    H66      H        0.51960    0.94680    0.11950    1.000
    C102     C        0.41990    0.86650    0.15870    1.000
    H67      H        0.44380    0.89780    0.16270    1.000
    C103     C        0.56010    0.00510    0.09120    1.000
    H68      H        0.56960    0.04290    0.11580    1.000
    C104     C        0.83062    0.96198    0.28878    1.000
    C105     C        0.82372    0.05327    0.29517    1.000
    H69      H        0.80400    0.08440    0.27520    1.000
    C106     C        0.86035    0.92000    0.31790    1.000
    H70      H        0.86580    0.85800    0.31460    1.000
    C107     C        0.84578    0.09770    0.33078    1.000
    H71      H        0.84020    0.15890    0.33590    1.000
    C108     C        0.88198    0.97010    0.35186    1.000
    H72      H        0.90280    0.94150    0.37130    1.000
    N36      N        0.87504    0.05650    0.35858    1.000
    I23      I        0.61133    0.23800    0.09040    1.000
    I24      I        0.75740    0.27510    0.19240    1.000
    I25      I        0.26774    0.76564    0.20723    1.000
    I26      I        0.97140    0.84808    0.87040    1.000
    I27      I        0.37059    0.84705    0.30719    1.000
    I28      I        0.14343    0.59096    0.98596    1.000
    I29      I        0.10370    0.73719    0.09934    1.000
    I30      I        0.87808    0.76218    0.94353    1.000
    Zn10     Zn       0.91438    0.87539    0.90699    1.000
    Zn11     Zn       0.12307    0.59620    0.05972    1.000
    Zn12     Zn       0.32820    0.86050    0.23012    1.000
    N37      N        0.31578    0.99700    0.22080    1.000
    N38      N        0.31774    0.32600    0.24710    1.000
    N39      N        0.92848    0.98080    0.95210    1.000
    N40      N        0.27699    0.45180    0.22600    1.000
    N41      N        0.16634    0.53300    0.10490    1.000
    N42      N        0.97543    0.26910    0.02951    1.000
    N43      N        0.86203    0.33890    0.18410    1.000
    N44      N        0.26460    0.31360    0.18660    1.000
    N45      N        0.07694    0.50970    0.05710    1.000
    N46      N        0.92557    0.22060    0.06510    1.000
    N47      N        0.96138    0.35190    0.09000    1.000
    C109     C        0.30710    0.41040    0.25170    1.000
    C110     C        0.93340    0.29290    0.09160    1.000
    C111     C        0.25750    0.40100    0.19290    1.000
    C112     C        0.22540    0.44540    0.16180    1.000
    C113     C        0.98150    0.33590    0.05890    1.000
    C114     C        0.94140    0.13070    0.00650    1.000
    C115     C        0.30210    0.18160    0.21450    1.000
    C116     C        0.29450    0.28000    0.21550    1.000
    C117     C        0.06260    0.45860    0.02240    1.000
    H73      H        0.07400    0.46130    0.99720    1.000
    C118     C        0.17760    0.45020    0.09540    1.000
    H74      H        0.16530    0.42280    0.06840    1.000
    C119     C        0.85100    0.28250    0.14910    1.000
    H75      H        0.82660    0.25340    0.14550    1.000
    C120     C        0.01430    0.39810    0.05740    1.000
    C121     C        0.96740    0.10730    0.98070    1.000
    H76      H        0.98980    0.14270    0.98090    1.000
    C122     C        0.90890    0.30860    0.12370    1.000
    C123     C        0.20630    0.40370    0.12360    1.000
    H77      H        0.21280    0.34410    0.11680    1.000
    C124     C        0.94762    0.21140    0.03520    1.000
    C125     C        0.28330    0.02990    0.19590    1.000
    H78      H        0.26480    0.98880    0.18030    1.000
    C126     C        0.90310    0.00490    0.97700    1.000
    H79      H        0.88070    0.96920    0.97580    1.000
    C127     C        0.21420    0.53190    0.17080    1.000
    H80      H        0.22690    0.56210    0.19690    1.000
    C128     C        0.96010    0.03130    0.95460    1.000
    H81      H        0.97840    0.01410    0.93760    1.000
    C129     C        0.18480    0.57370    0.14190    1.000
    H82      H        0.17730    0.63280    0.14840    1.000
    C130     C        0.34220    0.05590    0.24210    1.000
    H83      H        0.36570    0.03340    0.25930    1.000
    C131     C        0.27560    0.12080    0.19180    1.000
    H84      H        0.25230    0.14150    0.17360    1.000
    C132     C        0.87340    0.26600    0.11900    1.000
    H85      H        0.86480    0.22580    0.09510    1.000
    C133     C        0.90850    0.07810    0.00390    1.000
    H86      H        0.88980    0.09340    0.02070    1.000
    C134     C        0.03170    0.40150    0.02160    1.000
    H87      H        0.02250    0.36490    0.99640    1.000
    C135     C        0.33630    0.14780    0.23990    1.000
    H88      H        0.35530    0.18760    0.25550    1.000
    C136     C        0.89570    0.37840    0.18820    1.000
    H89      H        0.90390    0.41730    0.21270    1.000
    C137     C        0.02980    0.44960    0.09340    1.000
    H90      H        0.01960    0.44680    0.11950    1.000
    C138     C        0.91990    0.36650    0.15870    1.000
    H91      H        0.94380    0.39780    0.16270    1.000
    C139     C        0.06010    0.50510    0.09120    1.000
    H92      H        0.06960    0.54290    0.11580    1.000
    C140     C        0.33062    0.46198    0.28878    1.000
    C141     C        0.32372    0.55327    0.29517    1.000
    H93      H        0.30400    0.58440    0.27520    1.000
    C142     C        0.36035    0.42000    0.31790    1.000
    H94      H        0.36580    0.35800    0.31460    1.000
    C143     C        0.34578    0.59770    0.33078    1.000
    H95      H        0.34020    0.65890    0.33590    1.000
    C144     C        0.38198    0.47010    0.35186    1.000
    H96      H        0.40280    0.44150    0.37130    1.000
    N48      N        0.37504    0.55650    0.35858    1.000
    I31      I        0.11133    0.73800    0.09040    1.000
    I32      I        0.25740    0.77510    0.19240    1.000
    I33      I        0.23226    0.73436    0.79277    1.000
    I34      I        0.52860    0.65192    0.12960    1.000
    I35      I        0.12941    0.65295    0.69281    1.000
    I36      I        0.35657    0.90904    0.01404    1.000
    I37      I        0.39630    0.76281    0.90066    1.000
    I38      I        0.62192    0.73782    0.05647    1.000
    Zn13     Zn       0.58562    0.62461    0.09301    1.000
    Zn14     Zn       0.37693    0.90380    0.94028    1.000
    Zn15     Zn       0.17180    0.63950    0.76988    1.000
    N49      N        0.18422    0.50300    0.77920    1.000
    N50      N        0.18226    0.17400    0.75290    1.000
    N51      N        0.57152    0.51920    0.04790    1.000
    N52      N        0.22301    0.04820    0.77400    1.000
    N53      N        0.33366    0.96700    0.89510    1.000
    N54      N        0.52457    0.23090    0.97049    1.000
    N55      N        0.63797    0.16110    0.81590    1.000
    N56      N        0.23540    0.18640    0.81340    1.000
    N57      N        0.42306    0.99030    0.94290    1.000
    N58      N        0.57443    0.27940    0.93490    1.000
    N59      N        0.53862    0.14810    0.91000    1.000
    C145     C        0.19290    0.08960    0.74830    1.000
    C146     C        0.56660    0.20710    0.90840    1.000
    C147     C        0.24250    0.09900    0.80710    1.000
    C148     C        0.27460    0.05460    0.83820    1.000
    C149     C        0.51850    0.16410    0.94110    1.000
    C150     C        0.55860    0.36930    0.99350    1.000
    C151     C        0.19790    0.31840    0.78550    1.000
    C152     C        0.20550    0.22000    0.78450    1.000
    C153     C        0.43740    0.04140    0.97760    1.000
    H97      H        0.42600    0.03870    0.00280    1.000
    C154     C        0.32240    0.04980    0.90460    1.000
    H98      H        0.33470    0.07720    0.93160    1.000
    C155     C        0.64900    0.21750    0.85090    1.000
    H99      H        0.67340    0.24660    0.85450    1.000
    C156     C        0.48570    0.10190    0.94260    1.000
    C157     C        0.53260    0.39270    0.01930    1.000
    H100     H        0.51020    0.35730    0.01910    1.000
    C158     C        0.59110    0.19140    0.87630    1.000
    C159     C        0.29370    0.09630    0.87640    1.000
    H101     H        0.28720    0.15590    0.88320    1.000
    C160     C        0.55238    0.28860    0.96480    1.000
    C161     C        0.21670    0.47010    0.80410    1.000
    H102     H        0.23520    0.51120    0.81970    1.000
    C162     C        0.59690    0.49510    0.02300    1.000
    H103     H        0.61930    0.53080    0.02420    1.000
    C163     C        0.28580    0.96810    0.82920    1.000
    H104     H        0.27310    0.93790    0.80310    1.000
    C164     C        0.53990    0.46870    0.04540    1.000
    H105     H        0.52160    0.48590    0.06240    1.000
    C165     C        0.31520    0.92630    0.85810    1.000
    H106     H        0.32270    0.86720    0.85160    1.000
    C166     C        0.15780    0.44410    0.75790    1.000
    H107     H        0.13430    0.46660    0.74070    1.000
    C167     C        0.22440    0.37920    0.80820    1.000
    H108     H        0.24770    0.35850    0.82640    1.000
    C168     C        0.62660    0.23400    0.88100    1.000
    H109     H        0.63520    0.27420    0.90490    1.000
    C169     C        0.59150    0.42190    0.99610    1.000
    H110     H        0.61020    0.40660    0.97930    1.000
    C170     C        0.46830    0.09850    0.97840    1.000
    H111     H        0.47750    0.13510    0.00360    1.000
    C171     C        0.16370    0.35220    0.76010    1.000
    H112     H        0.14470    0.31240    0.74450    1.000
    C172     C        0.60430    0.12160    0.81180    1.000
    H113     H        0.59610    0.08270    0.78730    1.000
    C173     C        0.47020    0.05040    0.90660    1.000
    H114     H        0.48040    0.05320    0.88050    1.000
    C174     C        0.58010    0.13350    0.84130    1.000
    H115     H        0.55620    0.10220    0.83730    1.000
    C175     C        0.43990    0.99490    0.90880    1.000
    H116     H        0.43040    0.95710    0.88420    1.000
    C176     C        0.16938    0.03802    0.71122    1.000
    C177     C        0.17628    0.94673    0.70483    1.000
    H117     H        0.19600    0.91560    0.72480    1.000
    C178     C        0.13965    0.08000    0.68210    1.000
    H118     H        0.13420    0.14200    0.68540    1.000
    C179     C        0.15422    0.90230    0.66922    1.000
    H119     H        0.15980    0.84110    0.66410    1.000
    C180     C        0.11802    0.02990    0.64814    1.000
    H120     H        0.09720    0.05850    0.62870    1.000
    N60      N        0.12496    0.94350    0.64142    1.000
    I39      I        0.38867    0.76200    0.90960    1.000
    I40      I        0.24260    0.72490    0.80760    1.000
    I41      I        0.73226    0.23436    0.79277    1.000
    I42      I        0.02860    0.15192    0.12960    1.000
    I43      I        0.62941    0.15295    0.69281    1.000
    I44      I        0.85657    0.40904    0.01404    1.000
    I45      I        0.89630    0.26281    0.90066    1.000
    I46      I        0.12192    0.23782    0.05647    1.000
    Zn16     Zn       0.08562    0.12461    0.09301    1.000
    Zn17     Zn       0.87693    0.40380    0.94028    1.000
    Zn18     Zn       0.67180    0.13950    0.76988    1.000
    N61      N        0.68422    0.00300    0.77920    1.000
    N62      N        0.68226    0.67400    0.75290    1.000
    N63      N        0.07152    0.01920    0.04790    1.000
    N64      N        0.72301    0.54820    0.77400    1.000
    N65      N        0.83366    0.46700    0.89510    1.000
    N66      N        0.02457    0.73090    0.97049    1.000
    N67      N        0.13797    0.66110    0.81590    1.000
    N68      N        0.73540    0.68640    0.81340    1.000
    N69      N        0.92306    0.49030    0.94290    1.000
    N70      N        0.07443    0.77940    0.93490    1.000
    N71      N        0.03862    0.64810    0.91000    1.000
    C181     C        0.69290    0.58960    0.74830    1.000
    C182     C        0.06660    0.70710    0.90840    1.000
    C183     C        0.74250    0.59900    0.80710    1.000
    C184     C        0.77460    0.55460    0.83820    1.000
    C185     C        0.01850    0.66410    0.94110    1.000
    C186     C        0.05860    0.86930    0.99350    1.000
    C187     C        0.69790    0.81840    0.78550    1.000
    C188     C        0.70550    0.72000    0.78450    1.000
    C189     C        0.93740    0.54140    0.97760    1.000
    H121     H        0.92600    0.53870    0.00280    1.000
    C190     C        0.82240    0.54980    0.90460    1.000
    H122     H        0.83470    0.57720    0.93160    1.000
    C191     C        0.14900    0.71750    0.85090    1.000
    H123     H        0.17340    0.74660    0.85450    1.000
    C192     C        0.98570    0.60190    0.94260    1.000
    C193     C        0.03260    0.89270    0.01930    1.000
    H124     H        0.01020    0.85730    0.01910    1.000
    C194     C        0.09110    0.69140    0.87630    1.000
    C195     C        0.79370    0.59630    0.87640    1.000
    H125     H        0.78720    0.65590    0.88320    1.000
    C196     C        0.05238    0.78860    0.96480    1.000
    C197     C        0.71670    0.97010    0.80410    1.000
    H126     H        0.73520    0.01120    0.81970    1.000
    C198     C        0.09690    0.99510    0.02300    1.000
    H127     H        0.11930    0.03080    0.02420    1.000
    C199     C        0.78580    0.46810    0.82920    1.000
    H128     H        0.77310    0.43790    0.80310    1.000
    C200     C        0.03990    0.96870    0.04540    1.000
    H129     H        0.02160    0.98590    0.06240    1.000
    C201     C        0.81520    0.42630    0.85810    1.000
    H130     H        0.82270    0.36720    0.85160    1.000
    C202     C        0.65780    0.94410    0.75790    1.000
    H131     H        0.63430    0.96660    0.74070    1.000
    C203     C        0.72440    0.87920    0.80820    1.000
    H132     H        0.74770    0.85850    0.82640    1.000
    C204     C        0.12660    0.73400    0.88100    1.000
    H133     H        0.13520    0.77420    0.90490    1.000
    C205     C        0.09150    0.92190    0.99610    1.000
    H134     H        0.11020    0.90660    0.97930    1.000
    C206     C        0.96830    0.59850    0.97840    1.000
    H135     H        0.97750    0.63510    0.00360    1.000
    C207     C        0.66370    0.85220    0.76010    1.000
    H136     H        0.64470    0.81240    0.74450    1.000
    C208     C        0.10430    0.62160    0.81180    1.000
    H137     H        0.09610    0.58270    0.78730    1.000
    C209     C        0.97020    0.55040    0.90660    1.000
    H138     H        0.98040    0.55320    0.88050    1.000
    C210     C        0.08010    0.63350    0.84130    1.000
    H139     H        0.05620    0.60220    0.83730    1.000
    C211     C        0.93990    0.49490    0.90880    1.000
    H140     H        0.93040    0.45710    0.88420    1.000
    C212     C        0.66938    0.53802    0.71122    1.000
    C213     C        0.67628    0.44673    0.70483    1.000
    H141     H        0.69600    0.41560    0.72480    1.000
    C214     C        0.63965    0.58000    0.68210    1.000
    H142     H        0.63420    0.64200    0.68540    1.000
    C215     C        0.65422    0.40230    0.66922    1.000
    H143     H        0.65980    0.34110    0.66410    1.000
    C216     C        0.61802    0.52990    0.64814    1.000
    H144     H        0.59720    0.55850    0.62870    1.000
    N72      N        0.62496    0.44350    0.64142    1.000
    I47      I        0.88867    0.26200    0.90960    1.000
    I48      I        0.74260    0.22490    0.80760    1.000
    I49      I        0.23226    0.26564    0.29277    1.000
    I50      I        0.52860    0.34808    0.62960    1.000
    I51      I        0.12941    0.34705    0.19281    1.000
    I52      I        0.35657    0.09096    0.51404    1.000
    I53      I        0.39630    0.23719    0.40066    1.000
    I54      I        0.62192    0.26218    0.55647    1.000
    Zn19     Zn       0.58562    0.37539    0.59301    1.000
    Zn20     Zn       0.37693    0.09620    0.44028    1.000
    Zn21     Zn       0.17180    0.36050    0.26988    1.000
    N73      N        0.18422    0.49700    0.27920    1.000
    N74      N        0.18226    0.82600    0.25290    1.000
    N75      N        0.57152    0.48080    0.54790    1.000
    N76      N        0.22301    0.95180    0.27400    1.000
    N77      N        0.33366    0.03300    0.39510    1.000
    N78      N        0.52457    0.76910    0.47049    1.000
    N79      N        0.63797    0.83890    0.31590    1.000
    N80      N        0.23540    0.81360    0.31340    1.000
    N81      N        0.42306    0.00970    0.44290    1.000
    N82      N        0.57443    0.72060    0.43490    1.000
    N83      N        0.53862    0.85190    0.41000    1.000
    C217     C        0.19290    0.91040    0.24830    1.000
    C218     C        0.56660    0.79290    0.40840    1.000
    C219     C        0.24250    0.90100    0.30710    1.000
    C220     C        0.27460    0.94540    0.33820    1.000
    C221     C        0.51850    0.83590    0.44110    1.000
    C222     C        0.55860    0.63070    0.49350    1.000
    C223     C        0.19790    0.68160    0.28550    1.000
    C224     C        0.20550    0.78000    0.28450    1.000
    C225     C        0.43740    0.95860    0.47760    1.000
    H145     H        0.42600    0.96130    0.50280    1.000
    C226     C        0.32240    0.95020    0.40460    1.000
    H146     H        0.33470    0.92280    0.43160    1.000
    C227     C        0.64900    0.78250    0.35090    1.000
    H147     H        0.67340    0.75340    0.35450    1.000
    C228     C        0.48570    0.89810    0.44260    1.000
    C229     C        0.53260    0.60730    0.51930    1.000
    H148     H        0.51020    0.64270    0.51910    1.000
    C230     C        0.59110    0.80860    0.37630    1.000
    C231     C        0.29370    0.90370    0.37640    1.000
    H149     H        0.28720    0.84410    0.38320    1.000
    C232     C        0.55238    0.71140    0.46480    1.000
    C233     C        0.21670    0.52990    0.30410    1.000
    H150     H        0.23520    0.48880    0.31970    1.000
    C234     C        0.59690    0.50490    0.52300    1.000
    H151     H        0.61930    0.46920    0.52420    1.000
    C235     C        0.28580    0.03190    0.32920    1.000
    H152     H        0.27310    0.06210    0.30310    1.000
    C236     C        0.53990    0.53130    0.54540    1.000
    H153     H        0.52160    0.51410    0.56240    1.000
    C237     C        0.31520    0.07370    0.35810    1.000
    H154     H        0.32270    0.13280    0.35160    1.000
    C238     C        0.15780    0.55590    0.25790    1.000
    H155     H        0.13430    0.53340    0.24070    1.000
    C239     C        0.22440    0.62080    0.30820    1.000
    H156     H        0.24770    0.64150    0.32640    1.000
    C240     C        0.62660    0.76600    0.38100    1.000
    H157     H        0.63520    0.72580    0.40490    1.000
    C241     C        0.59150    0.57810    0.49610    1.000
    H158     H        0.61020    0.59340    0.47930    1.000
    C242     C        0.46830    0.90150    0.47840    1.000
    H159     H        0.47750    0.86490    0.50360    1.000
    C243     C        0.16370    0.64780    0.26010    1.000
    H160     H        0.14470    0.68760    0.24450    1.000
    C244     C        0.60430    0.87840    0.31180    1.000
    H161     H        0.59610    0.91730    0.28730    1.000
    C245     C        0.47020    0.94960    0.40660    1.000
    H162     H        0.48040    0.94680    0.38050    1.000
    C246     C        0.58010    0.86650    0.34130    1.000
    H163     H        0.55620    0.89780    0.33730    1.000
    C247     C        0.43990    0.00510    0.40880    1.000
    H164     H        0.43040    0.04290    0.38420    1.000
    C248     C        0.16938    0.96198    0.21122    1.000
    C249     C        0.17628    0.05327    0.20483    1.000
    H165     H        0.19600    0.08440    0.22480    1.000
    C250     C        0.13965    0.92000    0.18210    1.000
    H166     H        0.13420    0.85800    0.18540    1.000
    C251     C        0.15422    0.09770    0.16922    1.000
    H167     H        0.15980    0.15890    0.16410    1.000
    C252     C        0.11802    0.97010    0.14814    1.000
    H168     H        0.09720    0.94150    0.12870    1.000
    N84      N        0.12496    0.05650    0.14142    1.000
    I55      I        0.38867    0.23800    0.40960    1.000
    I56      I        0.24260    0.27510    0.30760    1.000
    I57      I        0.73226    0.76564    0.29277    1.000
    I58      I        0.02860    0.84808    0.62960    1.000
    I59      I        0.62941    0.84705    0.19281    1.000
    I60      I        0.85657    0.59096    0.51404    1.000
    I61      I        0.89630    0.73719    0.40066    1.000
    I62      I        0.12192    0.76218    0.55647    1.000
    Zn22     Zn       0.08562    0.87539    0.59301    1.000
    Zn23     Zn       0.87693    0.59620    0.44028    1.000
    Zn24     Zn       0.67180    0.86050    0.26988    1.000
    N85      N        0.68422    0.99700    0.27920    1.000
    N86      N        0.68226    0.32600    0.25290    1.000
    N87      N        0.07152    0.98080    0.54790    1.000
    N88      N        0.72301    0.45180    0.27400    1.000
    N89      N        0.83366    0.53300    0.39510    1.000
    N90      N        0.02457    0.26910    0.47049    1.000
    N91      N        0.13797    0.33890    0.31590    1.000
    N92      N        0.73540    0.31360    0.31340    1.000
    N93      N        0.92306    0.50970    0.44290    1.000
    N94      N        0.07443    0.22060    0.43490    1.000
    N95      N        0.03862    0.35190    0.41000    1.000
    C253     C        0.69290    0.41040    0.24830    1.000
    C254     C        0.06660    0.29290    0.40840    1.000
    C255     C        0.74250    0.40100    0.30710    1.000
    C256     C        0.77460    0.44540    0.33820    1.000
    C257     C        0.01850    0.33590    0.44110    1.000
    C258     C        0.05860    0.13070    0.49350    1.000
    C259     C        0.69790    0.18160    0.28550    1.000
    C260     C        0.70550    0.28000    0.28450    1.000
    C261     C        0.93740    0.45860    0.47760    1.000
    H169     H        0.92600    0.46130    0.50280    1.000
    C262     C        0.82240    0.45020    0.40460    1.000
    H170     H        0.83470    0.42280    0.43160    1.000
    C263     C        0.14900    0.28250    0.35090    1.000
    H171     H        0.17340    0.25340    0.35450    1.000
    C264     C        0.98570    0.39810    0.44260    1.000
    C265     C        0.03260    0.10730    0.51930    1.000
    H172     H        0.01020    0.14270    0.51910    1.000
    C266     C        0.09110    0.30860    0.37630    1.000
    C267     C        0.79370    0.40370    0.37640    1.000
    H173     H        0.78720    0.34410    0.38320    1.000
    C268     C        0.05238    0.21140    0.46480    1.000
    C269     C        0.71670    0.02990    0.30410    1.000
    H174     H        0.73520    0.98880    0.31970    1.000
    C270     C        0.09690    0.00490    0.52300    1.000
    H175     H        0.11930    0.96920    0.52420    1.000
    C271     C        0.78580    0.53190    0.32920    1.000
    H176     H        0.77310    0.56210    0.30310    1.000
    C272     C        0.03990    0.03130    0.54540    1.000
    H177     H        0.02160    0.01410    0.56240    1.000
    C273     C        0.81520    0.57370    0.35810    1.000
    H178     H        0.82270    0.63280    0.35160    1.000
    C274     C        0.65780    0.05590    0.25790    1.000
    H179     H        0.63430    0.03340    0.24070    1.000
    C275     C        0.72440    0.12080    0.30820    1.000
    H180     H        0.74770    0.14150    0.32640    1.000
    C276     C        0.12660    0.26600    0.38100    1.000
    H181     H        0.13520    0.22580    0.40490    1.000
    C277     C        0.09150    0.07810    0.49610    1.000
    H182     H        0.11020    0.09340    0.47930    1.000
    C278     C        0.96830    0.40150    0.47840    1.000
    H183     H        0.97750    0.36490    0.50360    1.000
    C279     C        0.66370    0.14780    0.26010    1.000
    H184     H        0.64470    0.18760    0.24450    1.000
    C280     C        0.10430    0.37840    0.31180    1.000
    H185     H        0.09610    0.41730    0.28730    1.000
    C281     C        0.97020    0.44960    0.40660    1.000
    H186     H        0.98040    0.44680    0.38050    1.000
    C282     C        0.08010    0.36650    0.34130    1.000
    H187     H        0.05620    0.39780    0.33730    1.000
    C283     C        0.93990    0.50510    0.40880    1.000
    H188     H        0.93040    0.54290    0.38420    1.000
    C284     C        0.66938    0.46198    0.21122    1.000
    C285     C        0.67628    0.55327    0.20483    1.000
    H189     H        0.69600    0.58440    0.22480    1.000
    C286     C        0.63965    0.42000    0.18210    1.000
    H190     H        0.63420    0.35800    0.18540    1.000
    C287     C        0.65422    0.59770    0.16922    1.000
    H191     H        0.65980    0.65890    0.16410    1.000
    C288     C        0.61802    0.47010    0.14814    1.000
    H192     H        0.59720    0.44150    0.12870    1.000
    N96      N        0.62496    0.55650    0.14142    1.000
    I63      I        0.88867    0.73800    0.40960    1.000
    I64      I        0.74260    0.77510    0.30760    1.000
