data_functionalizedCrystal
_audit_creation_method	'EQeq! by Chris Wilmer'
_symmetry_space_group_name_H-M	'P1'
_symmetry_Int_Tables_number	1
_symmetry_cell_setting	triclinic
loop_
_symmetry_equiv_pos_as_xyz
  x,y,z
_cell_length_a	7.179
_cell_length_b	14.634
_cell_length_c	22.134
_cell_angle_alpha	90
_cell_angle_beta	91.121
_cell_angle_gamma	90
loop_
_atom_site_label
_atom_site_type_symbol
_atom_site_fract_x
_atom_site_fract_y
_atom_site_fract_z
_atom_site_charge
Mof_Co	Co	0.7521	0.5284	0.76213	1.101
Mof_Co	Co	0.7479	0.0284	0.73787	1.083
Mof_Co	Co	0.2479	0.4716	0.23787	1.096
Mof_Co	Co	0.2521	0.9716	0.26213	1.115
Mof_Co	Co	0.5	0.5	0.5	1.071
Mof_Co	Co	-0	0	-0	1.024
Mof_H 	H 	0.6765	0.4861	0.6287	-0.039
Mof_H 	H 	0.7921	0.7198	0.7	-0.004
Mof_H 	H 	0.7486	0.7915	0.6065	0.077
Mof_H 	H 	0.6208	0.7041	0.5283	-0.009
Mof_H 	H 	0.8235	0.9861	0.8713	0.021
Mof_H 	H 	0.7079	0.2198	0.8	-0.008
Mof_H 	H 	0.7514	0.2915	0.8935	0.073
Mof_H 	H 	0.8792	0.2041	0.9717	0.009
Mof_H 	H 	0.3235	0.5139	0.3713	-0.041
Mof_H 	H 	0.2079	0.2802	0.3	-0.017
Mof_H 	H 	0.2514	0.2085	0.3935	0.059
Mof_H 	H 	0.3792	0.2959	0.4717	-0.011
Mof_H 	H 	0.1765	0.0139	0.1287	-0.098
Mof_H 	H 	0.2921	0.7802	0.2	-0.013
Mof_H 	H 	0.2486	0.7085	0.1065	0.063
Mof_H 	H 	0.1208	0.7959	0.0283	-0.026
Mof_W 	W 	0.24022	0.28497	0.67749	0.515
Mof_W 	W 	0.25978	0.78497	0.82251	0.53
Mof_W 	W 	0.75978	0.71503	0.32251	0.522
Mof_W 	W 	0.74022	0.21503	0.17749	0.508
Mof_C 	C 	0.45	0.3749	0.7134	-0.029
Mof_C 	C 	0.326	0.378	0.6082	-0.029
Mof_C 	C 	0.273	0.2021	0.5983	-0.056
Mof_C 	C 	0.456	0.1876	0.6972	-0.026
Mof_C 	C 	0.248	0.2676	0.7731	-0.06
Mof_C 	C 	0.074	0.3946	0.7118	-0.059
Mof_C 	C 	0.995	0.2983	0.6256	-0.036
Mof_C 	C 	0.06	0.1713	0.699	-0.058
Mof_C 	C 	0.681	0.5508	0.6257	0.115
Mof_C 	C 	0.738	0.6857	0.6677	0.079
Mof_C 	C 	0.717	0.729	0.6124	-0.14
Mof_C 	C 	0.658	0.676	0.5653	0.075
Mof_C 	C 	0.05	0.8749	0.7866	-0.058
Mof_C 	C 	0.174	0.878	0.8918	-0.018
Mof_C 	C 	0.227	0.7021	0.9017	-0.043
Mof_C 	C 	0.044	0.6876	0.8028	-0.055
Mof_C 	C 	0.252	0.7676	0.7269	-0.058
Mof_C 	C 	0.426	0.8946	0.7882	-0.014
Mof_C 	C 	0.505	0.7983	0.8744	-0.057
Mof_C 	C 	0.44	0.6713	0.801	-0.016
Mof_C 	C 	0.819	0.0508	0.8743	0.041
Mof_C 	C 	0.762	0.1857	0.8323	0.077
Mof_C 	C 	0.783	0.229	0.8876	-0.131
Mof_C 	C 	0.842	0.176	0.9347	0.071
Mof_C 	C 	0.55	0.6251	0.2866	-0.033
Mof_C 	C 	0.674	0.622	0.3918	-0.018
Mof_C 	C 	0.727	0.7979	0.4017	-0.036
Mof_C 	C 	0.544	0.8124	0.3028	-0.021
Mof_C 	C 	0.752	0.7324	0.2269	-0.054
Mof_C 	C 	0.926	0.6054	0.2882	0.015
Mof_C 	C 	0.005	0.7017	0.3744	-0.092
Mof_C 	C 	0.94	0.8287	0.301	0.022
Mof_C 	C 	0.319	0.4492	0.3743	0.111
Mof_C 	C 	0.262	0.3143	0.3323	0.074
Mof_C 	C 	0.283	0.271	0.3876	-0.142
Mof_C 	C 	0.342	0.324	0.4347	0.067
Mof_C 	C 	0.95	0.1251	0.2134	-0.003
Mof_C 	C 	0.826	0.122	0.1082	-0.029
Mof_C 	C 	0.773	0.2979	0.0983	-0.048
Mof_C 	C 	0.956	0.3124	0.1972	0.007
Mof_C 	C 	0.748	0.2324	0.2731	-0.056
Mof_C 	C 	0.574	0.1054	0.2118	-0.026
Mof_C 	C 	0.495	0.2017	0.1256	-0.071
Mof_C 	C 	0.56	0.3287	0.199	-0.017
Mof_C 	C 	0.181	0.9492	0.1257	0.188
Mof_C 	C 	0.238	0.8143	0.1677	0.077
Mof_C 	C 	0.217	0.771	0.1124	-0.15
Mof_C 	C 	0.158	0.824	0.0653	0.073
Mof_N 	N 	0.557	0.429	0.7315	-0.23
Mof_N 	N 	0.382	0.4212	0.5693	-0.246
Mof_N 	N 	0.283	0.1625	0.5538	-0.11
Mof_N 	N 	0.562	0.1306	0.7084	-0.239
Mof_N 	N 	0.252	0.2544	0.8248	-0.105
Mof_N 	N 	0.979	0.4482	0.7296	-0.204
Mof_N 	N 	0.859	0.312	0.5921	-0.111
Mof_N 	N 	0.963	0.1108	0.7088	-0.22
Mof_N 	N 	0.636	0.5846	0.5711	-0.258
Mof_N 	N 	0.727	0.5943	0.674	-0.246
Mof_N 	N 	0.943	0.929	0.7685	-0.194
Mof_N 	N 	0.118	0.9212	0.9307	-0.225
Mof_N 	N 	0.217	0.6625	0.9462	-0.092
Mof_N 	N 	0.938	0.6306	0.7916	-0.207
Mof_N 	N 	0.248	0.7544	0.6752	-0.103
Mof_N 	N 	0.521	0.9482	0.7704	-0.217
Mof_N 	N 	0.641	0.812	0.9079	-0.093
Mof_N 	N 	0.537	0.6108	0.7912	-0.237
Mof_N 	N 	0.864	0.0846	0.9289	-0.236
Mof_N 	N 	0.773	0.0943	0.826	-0.238
Mof_N 	N 	0.443	0.571	0.2685	-0.231
Mof_N 	N 	0.618	0.5788	0.4307	-0.244
Mof_N 	N 	0.717	0.8375	0.4462	-0.093
Mof_N 	N 	0.438	0.8694	0.2916	-0.228
Mof_N 	N 	0.748	0.7456	0.1752	-0.097
Mof_N 	N 	0.021	0.5518	0.2704	-0.258
Mof_N 	N 	0.141	0.688	0.4079	-0.109
Mof_N 	N 	0.037	0.8892	0.2912	-0.255
Mof_N 	N 	0.364	0.4154	0.4289	-0.259
Mof_N 	N 	0.273	0.4057	0.326	-0.249
Mof_N 	N 	0.057	0.071	0.2315	-0.267
Mof_N 	N 	0.882	0.0788	0.0693	-0.249
Mof_N 	N 	0.783	0.3375	0.0538	-0.11
Mof_N 	N 	0.062	0.3694	0.2084	-0.259
Mof_N 	N 	0.752	0.2456	0.3248	-0.1
Mof_N 	N 	0.479	0.0518	0.2296	-0.246
Mof_N 	N 	0.359	0.188	0.0921	-0.124
Mof_N 	N 	0.463	0.3892	0.2088	-0.241
Mof_N 	N 	0.136	0.9154	0.0711	-0.268
Mof_N 	N 	0.227	0.9057	0.174	-0.256
_end
