data_functionalizedCrystal
_audit_creation_method	'EQeq! by Chris Wilmer'
_symmetry_space_group_name_H-M	'P1'
_symmetry_Int_Tables_number	1
_symmetry_cell_setting	triclinic
loop_
_symmetry_equiv_pos_as_xyz
  x,y,z
_cell_length_a	14.061
_cell_length_b	27.192
_cell_length_c	7.59
_cell_angle_alpha	90
_cell_angle_beta	90
_cell_angle_gamma	90
loop_
_atom_site_label
_atom_site_type_symbol
_atom_site_fract_x
_atom_site_fract_y
_atom_site_fract_z
_atom_site_charge
Mof_Cd	Cd	0.21473	0.11592	0.1215	0.331
Mof_N 	N 	0.24	0.172	0.893	-0.057
Mof_N 	N 	0.247	0.1724	0.329	-0.082
Mof_N 	N 	0.16	0.0567	0.339	-0.067
Mof_N 	N 	0.361	0.0769	0.116	-0.075
Mof_N 	N 	0.172	0.0569	0.9	-0.104
Mof_N 	N 	0.051	0.1271	0.075	-0.164
Mof_C 	C 	0.243	0.2019	0.786	-0.229
Mof_C 	C 	0.251	0.2014	0.436	-0.238
Mof_C 	C 	0.101	0.0355	0.403	-0.265
Mof_C 	C 	0.415	0.0485	0.072	-0.262
Mof_C 	C 	0.073	0.057	0.88	-0.027
Mof_C 	C 	0.016	0.091	0.941	-0.003
Mof_C 	C 	0.91	0.0922	0.909	0.052
Mof_Cd	Cd	0.28527	0.88408	0.6215	0.378
Mof_N 	N 	0.26	0.828	0.393	-0.077
Mof_N 	N 	0.253	0.8276	0.829	-0.082
Mof_N 	N 	0.34	0.9433	0.839	-0.066
Mof_N 	N 	0.139	0.9231	0.616	-0.073
Mof_N 	N 	0.328	0.9431	0.4	-0.111
Mof_N 	N 	0.449	0.8729	0.575	-0.122
Mof_C 	C 	0.257	0.7981	0.286	-0.258
Mof_C 	C 	0.249	0.7986	0.936	-0.196
Mof_C 	C 	0.399	0.9645	0.903	-0.148
Mof_C 	C 	0.085	0.9515	0.572	-0.215
Mof_C 	C 	0.427	0.943	0.38	-0.007
Mof_C 	C 	0.484	0.909	0.441	0.027
Mof_C 	C 	0.59	0.9078	0.409	-0.025
Mof_Cd	Cd	0.78527	0.61592	0.8785	0.416
Mof_N 	N 	0.76	0.672	0.107	-0.094
Mof_N 	N 	0.753	0.6724	0.671	-0.073
Mof_N 	N 	0.84	0.5567	0.661	-0.069
Mof_N 	N 	0.639	0.5769	0.884	-0.071
Mof_N 	N 	0.828	0.5569	0.1	-0.131
Mof_N 	N 	0.949	0.6271	0.925	-0.082
Mof_C 	C 	0.757	0.7019	0.214	-0.237
Mof_C 	C 	0.749	0.7014	0.564	-0.22
Mof_C 	C 	0.899	0.5355	0.597	-0.17
Mof_C 	C 	0.585	0.5485	0.928	-0.179
Mof_C 	C 	0.927	0.557	0.12	-0.018
Mof_C 	C 	0.984	0.591	0.059	0.069
Mof_C 	C 	0.09	0.5922	0.091	-0.12
Mof_Cd	Cd	0.71473	0.38408	0.3785	0.374
Mof_N 	N 	0.74	0.328	0.607	-0.073
Mof_N 	N 	0.747	0.3276	0.171	-0.075
Mof_N 	N 	0.66	0.4433	0.161	-0.068
Mof_N 	N 	0.861	0.4231	0.384	-0.077
Mof_N 	N 	0.672	0.4431	0.6	-0.111
Mof_N 	N 	0.551	0.3729	0.425	-0.125
Mof_C 	C 	0.743	0.2981	0.714	-0.209
Mof_C 	C 	0.751	0.2986	0.064	-0.254
Mof_C 	C 	0.601	0.4645	0.097	-0.241
Mof_C 	C 	0.915	0.4515	0.428	-0.174
Mof_C 	C 	0.573	0.443	0.62	-0.006
Mof_C 	C 	0.516	0.409	0.559	0.032
Mof_C 	C 	0.41	0.4078	0.591	-0.017
Mof_Cd	Cd	0.78527	0.88408	0.8785	0.421
Mof_N 	N 	0.76	0.828	0.107	-0.094
Mof_N 	N 	0.753	0.8276	0.671	-0.073
Mof_N 	N 	0.84	0.9433	0.661	-0.07
Mof_N 	N 	0.639	0.9231	0.884	-0.074
Mof_N 	N 	0.828	0.9431	0.1	-0.125
Mof_N 	N 	0.949	0.8729	0.925	-0.082
Mof_C 	C 	0.757	0.7981	0.214	-0.236
Mof_C 	C 	0.749	0.7986	0.564	-0.22
Mof_C 	C 	0.899	0.9645	0.597	-0.14
Mof_C 	C 	0.585	0.9515	0.928	-0.151
Mof_C 	C 	0.927	0.943	0.12	-0
Mof_C 	C 	0.984	0.909	0.059	0.064
Mof_C 	C 	0.09	0.9078	0.091	-0.108
Mof_Cd	Cd	0.71473	0.11592	0.3785	0.37
Mof_N 	N 	0.74	0.172	0.607	-0.073
Mof_N 	N 	0.747	0.1724	0.171	-0.075
Mof_N 	N 	0.66	0.0567	0.161	-0.069
Mof_N 	N 	0.861	0.0769	0.384	-0.077
Mof_N 	N 	0.672	0.0569	0.6	-0.117
Mof_N 	N 	0.551	0.1271	0.425	-0.126
Mof_C 	C 	0.743	0.2019	0.714	-0.209
Mof_C 	C 	0.751	0.2014	0.064	-0.254
Mof_C 	C 	0.601	0.0355	0.097	-0.26
Mof_C 	C 	0.915	0.0485	0.428	-0.191
Mof_C 	C 	0.573	0.057	0.62	-0.022
Mof_C 	C 	0.516	0.091	0.559	0.035
Mof_C 	C 	0.41	0.0922	0.591	-0.028
Mof_Cd	Cd	0.21473	0.38408	0.1215	0.333
Mof_N 	N 	0.24	0.328	0.893	-0.058
Mof_N 	N 	0.247	0.3276	0.329	-0.083
Mof_N 	N 	0.16	0.4433	0.339	-0.066
Mof_N 	N 	0.361	0.4231	0.116	-0.075
Mof_N 	N 	0.172	0.4431	0.9	-0.098
Mof_N 	N 	0.051	0.3729	0.075	-0.164
Mof_C 	C 	0.243	0.2981	0.786	-0.229
Mof_C 	C 	0.251	0.2986	0.436	-0.238
Mof_C 	C 	0.101	0.4645	0.403	-0.245
Mof_C 	C 	0.415	0.4515	0.072	-0.244
Mof_C 	C 	0.073	0.443	0.88	-0.011
Mof_C 	C 	0.016	0.409	0.941	-0.006
Mof_C 	C 	0.91	0.4078	0.909	0.062
Mof_Cd	Cd	0.28527	0.61592	0.6215	0.374
Mof_N 	N 	0.26	0.672	0.393	-0.077
Mof_N 	N 	0.253	0.6724	0.829	-0.082
Mof_N 	N 	0.34	0.5567	0.839	-0.065
Mof_N 	N 	0.139	0.5769	0.616	-0.07
Mof_N 	N 	0.328	0.5569	0.4	-0.118
Mof_N 	N 	0.449	0.6271	0.575	-0.123
Mof_C 	C 	0.257	0.7019	0.286	-0.259
Mof_C 	C 	0.249	0.7014	0.936	-0.196
Mof_C 	C 	0.399	0.5355	0.903	-0.179
Mof_C 	C 	0.085	0.5485	0.572	-0.245
Mof_C 	C 	0.427	0.557	0.38	-0.026
Mof_C 	C 	0.484	0.591	0.441	0.031
Mof_C 	C 	0.59	0.5922	0.409	-0.036
Mof_Ni	Ni	0.2501	0.25	0.6104	1.06
Mof_Ni	Ni	0.2499	0.75	0.1104	1.032
Mof_Ni	Ni	0.7499	0.75	0.3896	1.06
Mof_Ni	Ni	0.7501	0.25	0.8896	1.083
Mof_Ni	Ni	1.01195e-33	0	0.5	1.013
Mof_Ni	Ni	0.5	0	-0	1.021
Mof_Ni	Ni	1.01195e-33	0.5	0.5	1.034
Mof_Ni	Ni	0.5	0.5	-0	1.042
_end
