data_functionalizedCrystal
_audit_creation_method	'EQeq! by Chris Wilmer'
_symmetry_space_group_name_H-M	'P1'
_symmetry_Int_Tables_number	1
_symmetry_cell_setting	triclinic
loop_
_symmetry_equiv_pos_as_xyz
  x,y,z
_cell_length_a	10.2203
_cell_length_b	14.145
_cell_length_c	14.601
_cell_angle_alpha	90
_cell_angle_beta	90
_cell_angle_gamma	90
loop_
_atom_site_label
_atom_site_type_symbol
_atom_site_fract_x
_atom_site_fract_y
_atom_site_fract_z
_atom_site_charge
Mof_O 	O 	0.9867	0.1014	0.4054	-1.382
Mof_O 	O 	0.9212	0.9781	0.2969	-1.464
Mof_O 	O 	0.9867	0.6014	0.9054	-1.354
Mof_O 	O 	0.9212	0.4781	0.7969	-1.461
Mof_O 	O 	0.4867	0.1014	0.9054	-1.376
Mof_O 	O 	0.4212	0.9781	0.7969	-1.448
Mof_O 	O 	0.4867	0.6014	0.4054	-1.385
Mof_O 	O 	0.4212	0.4781	0.2969	-1.463
Mof_O 	O 	0.7633	0.6486	0.4054	-1.385
Mof_O 	O 	0.8288	0.7719	0.2969	-1.453
Mof_O 	O 	0.7633	0.1486	0.9054	-1.373
Mof_O 	O 	0.8288	0.2719	0.7969	-1.461
Mof_O 	O 	0.2633	0.6486	0.9054	-1.367
Mof_O 	O 	0.3288	0.7719	0.7969	-1.46
Mof_O 	O 	0.2633	0.1486	0.4054	-1.383
Mof_O 	O 	0.3288	0.2719	0.2969	-1.461
Mof_O 	O 	0.7633	0.1014	0.3446	-1.384
Mof_O 	O 	0.8288	0.9781	0.4531	-1.468
Mof_O 	O 	0.7633	0.6014	0.8446	-1.38
Mof_O 	O 	0.8288	0.4781	0.9531	-1.435
Mof_O 	O 	0.2633	0.1014	0.8446	-1.375
Mof_O 	O 	0.3288	0.9781	0.9531	-1.437
Mof_O 	O 	0.2633	0.6014	0.3446	-1.388
Mof_O 	O 	0.3288	0.4781	0.4531	-1.463
Mof_O 	O 	0.9867	0.6486	0.3446	-1.395
Mof_O 	O 	0.9212	0.7719	0.4531	-1.463
Mof_O 	O 	0.9867	0.1486	0.8446	-1.362
Mof_O 	O 	0.9212	0.2719	0.9531	-1.434
Mof_O 	O 	0.4867	0.6486	0.8446	-1.382
Mof_O 	O 	0.4212	0.7719	0.9531	-1.447
Mof_O 	O 	0.4867	0.1486	0.3446	-1.383
Mof_O 	O 	0.4212	0.2719	0.4531	-1.462
Mof_O 	O 	0.0133	0.8986	0.5946	-1.383
Mof_O 	O 	0.0788	0.0219	0.7031	-1.465
Mof_O 	O 	0.0133	0.3986	0.0946	-1.354
Mof_O 	O 	0.0788	0.5219	0.2031	-1.461
Mof_O 	O 	0.5133	0.8986	0.0946	-1.376
Mof_O 	O 	0.5788	0.0219	0.2031	-1.448
Mof_O 	O 	0.5133	0.3986	0.5946	-1.385
Mof_O 	O 	0.5788	0.5219	0.7031	-1.463
Mof_O 	O 	0.2367	0.3514	0.5946	-1.385
Mof_O 	O 	0.1712	0.2281	0.7031	-1.453
Mof_O 	O 	0.2367	0.8514	0.0946	-1.373
Mof_O 	O 	0.1712	0.7281	0.2031	-1.461
Mof_O 	O 	0.7367	0.3514	0.0946	-1.367
Mof_O 	O 	0.6712	0.2281	0.2031	-1.46
Mof_O 	O 	0.7367	0.8514	0.5946	-1.383
Mof_O 	O 	0.6712	0.7281	0.7031	-1.461
Mof_O 	O 	0.2367	0.8986	0.6554	-1.384
Mof_O 	O 	0.1712	0.0219	0.5469	-1.468
Mof_O 	O 	0.2367	0.3986	0.1554	-1.38
Mof_O 	O 	0.1712	0.5219	0.0469	-1.435
Mof_O 	O 	0.7367	0.8986	0.1554	-1.375
Mof_O 	O 	0.6712	0.0219	0.0469	-1.437
Mof_O 	O 	0.7367	0.3986	0.6554	-1.388
Mof_O 	O 	0.6712	0.5219	0.5469	-1.463
Mof_O 	O 	0.0133	0.3514	0.6554	-1.395
Mof_O 	O 	0.0788	0.2281	0.5469	-1.463
Mof_O 	O 	0.0133	0.8514	0.1554	-1.362
Mof_O 	O 	0.0788	0.7281	0.0469	-1.434
Mof_O 	O 	0.5133	0.3514	0.1554	-1.382
Mof_O 	O 	0.5788	0.2281	0.0469	-1.447
Mof_O 	O 	0.5133	0.8514	0.6554	-1.383
Mof_O 	O 	0.5788	0.7281	0.5469	-1.462
Mof_Al	Al	0.125	0.125	0.4795	4.34
Mof_Al	Al	0.125	0.625	0.9795	4.249
Mof_Al	Al	0.625	0.625	0.4795	4.341
Mof_Al	Al	0.625	0.125	0.9795	4.302
Mof_Al	Al	0.625	0.125	0.2705	4.342
Mof_Al	Al	0.625	0.625	0.7705	4.341
Mof_Al	Al	0.125	0.625	0.2705	4.362
Mof_Al	Al	0.125	0.125	0.7705	4.279
Mof_Al	Al	0.875	0.875	0.5205	4.34
Mof_Al	Al	0.875	0.375	0.0205	4.249
Mof_Al	Al	0.375	0.375	0.5205	4.341
Mof_Al	Al	0.375	0.875	0.0205	4.302
Mof_Al	Al	0.375	0.875	0.7295	4.342
Mof_Al	Al	0.375	0.375	0.2295	4.341
Mof_Al	Al	0.875	0.375	0.7295	4.362
Mof_Al	Al	0.875	0.875	0.2295	4.279
Mof_P 	P 	0.875	0.039	0.375	1.364
Mof_P 	P 	0.875	0.539	0.875	1.344
Mof_P 	P 	0.375	0.039	0.875	1.323
Mof_P 	P 	0.375	0.539	0.375	1.354
Mof_P 	P 	0.875	0.711	0.375	1.351
Mof_P 	P 	0.875	0.211	0.875	1.344
Mof_P 	P 	0.375	0.711	0.875	1.346
Mof_P 	P 	0.375	0.211	0.375	1.353
Mof_P 	P 	0.125	0.961	0.625	1.364
Mof_P 	P 	0.125	0.461	0.125	1.344
Mof_P 	P 	0.625	0.961	0.125	1.323
Mof_P 	P 	0.625	0.461	0.625	1.354
Mof_P 	P 	0.125	0.289	0.625	1.351
Mof_P 	P 	0.125	0.789	0.125	1.344
Mof_P 	P 	0.625	0.289	0.125	1.346
Mof_P 	P 	0.625	0.789	0.625	1.353
_end
