data_functionalizedCrystal
_audit_creation_method	'EQeq! by Chris Wilmer'
_symmetry_space_group_name_H-M	'P1'
_symmetry_Int_Tables_number	1
_symmetry_cell_setting	triclinic
loop_
_symmetry_equiv_pos_as_xyz
  x,y,z
_cell_length_a	10.047
_cell_length_b	12.658
_cell_length_c	13.494
_cell_angle_alpha	86.56
_cell_angle_beta	71.43
_cell_angle_gamma	72.16
loop_
_atom_site_label
_atom_site_type_symbol
_atom_site_fract_x
_atom_site_fract_y
_atom_site_fract_z
_atom_site_charge
Mof_Ni	Ni	0.38359	0.92467	0.42128	1.109
Mof_Ni	Ni	0.61641	0.07533	0.57872	1.107
Mof_Ni	Ni	-0	0.5	-0	1.032
Mof_H 	H 	0.0848	0.1239	0.4419	0.014
Mof_H 	H 	0.486	0.137	0.3078	0.036
Mof_H 	H 	0.3201	0.3246	0.3085	0.038
Mof_H 	H 	0.9487	0.3145	0.5617	0.046
Mof_H 	H 	0.0503	0.4122	0.2669	0.01
Mof_H 	H 	0.6647	0.7177	0.3764	0
Mof_H 	H 	0.298	0.7404	0.6001	0.029
Mof_H 	H 	0.4735	0.5628	0.6168	0.037
Mof_H 	H 	0.7291	0.459	0.6057	0.088
Mof_H 	H 	0.828	0.553	0.3097	0.095
Mof_H 	H 	0.7003	0.694	0.0201	-0.069
Mof_H 	H 	0.0905	0.6982	0.8449	0.007
Mof_H 	H 	0.922	0.8832	0.845	0.046
Mof_H 	H 	0.5579	0.8752	0.124	0.118
Mof_H 	H 	0.6579	0.9783	0.8293	0.107
Mof_H 	H 	0.9244	0.969	0.3944	0.025
Mof_H 	H 	0.2476	0.7267	0.2025	0.031
Mof_H 	H 	0.8247	0.7727	0.2233	0.015
Mof_H 	H 	0.9152	0.8761	0.5581	0.02
Mof_H 	H 	0.514	0.863	0.6922	0.043
Mof_H 	H 	0.6799	0.6754	0.6915	0.036
Mof_H 	H 	0.0513	0.6855	0.4383	0.092
Mof_H 	H 	0.9497	0.5878	0.7331	0.115
Mof_H 	H 	0.3353	0.2823	0.6236	0.003
Mof_H 	H 	0.702	0.2596	0.3999	0.03
Mof_H 	H 	0.5265	0.4372	0.3832	0.037
Mof_H 	H 	0.2709	0.541	0.3943	0.044
Mof_H 	H 	0.172	0.447	0.6903	0.041
Mof_H 	H 	0.2997	0.306	0.9799	0.057
Mof_H 	H 	0.9095	0.3018	0.1551	0.044
Mof_H 	H 	0.078	0.1168	0.155	0.024
Mof_H 	H 	0.4421	0.1248	0.876	0.036
Mof_H 	H 	0.3421	0.0217	0.1707	0.033
Mof_H 	H 	0.0756	0.031	0.6056	0.046
Mof_H 	H 	0.7524	0.2733	0.7975	0.058
Mof_H 	H 	0.1753	0.2273	0.7767	0.052
Mof_C 	C 	0.1645	0.1498	0.4087	0.086
Mof_C 	C 	0.3838	0.1578	0.335	0.005
Mof_C 	C 	0.293	0.2621	0.3352	0.003
Mof_C 	C 	0.018	0.348	0.4092	-0.005
Mof_C 	C 	0.924	0.3625	0.5109	0.015
Mof_C 	C 	0.9847	0.4202	0.3346	0.054
Mof_C 	C 	0.5948	0.7016	0.4344	0.101
Mof_C 	C 	0.3949	0.7134	0.5566	0.017
Mof_C 	C 	0.4913	0.6149	0.5667	0
Mof_C 	C 	0.757	0.5189	0.4616	0.141
Mof_C 	C 	0.7927	0.4487	0.5373	-0.138
Mof_C 	C 	0.8525	0.5051	0.3605	-0.16
Mof_C 	C 	0.7774	0.7177	0.9766	0.191
Mof_C 	C 	0.9899	0.7205	0.8805	0.037
Mof_C 	C 	0.8975	0.8232	0.8808	0.004
Mof_C 	C 	0.6284	0.913	0.9718	0.209
Mof_C 	C 	0.5342	0.9255	0.0745	-0.207
Mof_C 	C 	0.5943	0.9873	0.8977	-0.169
Mof_C 	C 	0.8492	0.8831	0.3138	-0.16
Mof_C 	C 	0.9541	0.9105	0.3459	0.091
Mof_C 	C 	0.1026	0.8508	0.3057	-0.14
Mof_C 	C 	0.1479	0.7644	0.2314	0.066
Mof_C 	C 	0.045	0.7343	0.2001	-0.152
Mof_C 	C 	0.8945	0.7934	0.2426	0.1
Mof_C 	C 	0.6871	0.9446	0.3638	0.405
Mof_C 	C 	0.2113	0.8727	0.3503	0.307
Mof_C 	C 	0.0926	0.6353	0.1261	0.327
Mof_C 	C 	0.8355	0.8502	0.5913	0.094
Mof_C 	C 	0.6162	0.8422	0.665	0.001
Mof_C 	C 	0.707	0.7379	0.6648	0.015
Mof_C 	C 	0.982	0.652	0.5908	0.176
Mof_C 	C 	0.076	0.6375	0.4891	-0.154
Mof_C 	C 	0.0153	0.5798	0.6654	-0.189
Mof_C 	C 	0.4052	0.2984	0.5656	0.097
Mof_C 	C 	0.6051	0.2866	0.4434	0.017
Mof_C 	C 	0.5087	0.3851	0.4333	-0.004
Mof_C 	C 	0.243	0.4811	0.5384	0.046
Mof_C 	C 	0.2073	0.5513	0.4627	-0.018
Mof_C 	C 	0.1475	0.4949	0.6395	-0.009
Mof_C 	C 	0.2226	0.2823	0.0234	0.007
Mof_C 	C 	0.0101	0.2795	0.1195	-0.046
Mof_C 	C 	0.1025	0.1768	0.1192	0.02
Mof_C 	C 	0.3716	0.087	0.0282	-0.026
Mof_C 	C 	0.4658	0.0745	0.9255	0.064
Mof_C 	C 	0.4057	0.0127	0.1023	0.026
Mof_C 	C 	0.1508	0.1169	0.6862	-0.097
Mof_C 	C 	0.0459	0.0895	0.6541	-0.008
Mof_C 	C 	0.8974	0.1492	0.6943	-0.055
Mof_C 	C 	0.8521	0.2356	0.7686	0.006
Mof_C 	C 	0.955	0.2657	0.7999	-0.068
Mof_C 	C 	0.1055	0.2066	0.7574	0.01
Mof_C 	C 	0.3129	0.0554	0.6362	0.368
Mof_C 	C 	0.7887	0.1273	0.6497	0.278
Mof_C 	C 	0.9074	0.3647	0.8739	0.344
Mof_N 	N 	0.3034	0.0873	0.3807	-0.219
Mof_N 	N 	0.1527	0.2565	0.3828	-0.119
Mof_N 	N 	0.4601	0.7675	0.4737	-0.215
Mof_N 	N 	0.621	0.6074	0.4875	-0.144
Mof_N 	N 	0.9137	0.6536	0.9404	-0.237
Mof_N 	N 	0.7617	0.8225	0.9434	-0.161
Mof_N 	N 	0.6966	0.9127	0.6193	-0.215
Mof_N 	N 	0.8473	0.7435	0.6172	-0.146
Mof_N 	N 	0.5399	0.2325	0.5263	-0.214
Mof_N 	N 	0.379	0.3926	0.5125	-0.128
Mof_N 	N 	0.0863	0.3464	0.0596	-0.218
Mof_N 	N 	0.2383	0.1775	0.0566	-0.111
Mof_O 	O 	0.5972	0.9106	0.3361	-0.421
Mof_O 	O 	0.6521	0.0216	0.4289	-0.448
Mof_O 	O 	0.1668	0.9102	0.4435	-0.366
Mof_O 	O 	0.345	0.8529	0.2949	-0.363
Mof_O 	O 	0.2283	0.5983	0.0748	-0.292
Mof_O 	O 	0.9956	0.596	0.1204	-0.413
Mof_O 	O 	0.4028	0.0894	0.6639	-0.411
Mof_O 	O 	0.3479	0.9784	0.5711	-0.427
Mof_O 	O 	0.8332	0.0898	0.5565	-0.352
Mof_O 	O 	0.655	0.1471	0.7051	-0.354
Mof_O 	O 	0.7717	0.4017	0.9252	-0.261
Mof_O 	O 	0.0044	0.404	0.8796	-0.42
_end
