# CIF file generated by openbabel 3.1.0, see https://openbabel.org
data_I
_chemical_name_common 'image0'
_cell_length_a 23.1442
_cell_length_b 23.1442
_cell_length_c 7.2233
_cell_angle_alpha 90
_cell_angle_beta 90
_cell_angle_gamma 120
_space_group_name_H-M_alt 'P 1'
_space_group_name_Hall 'P 1'
loop_
    _symmetry_equiv_pos_as_xyz
    x,y,z
loop_
    _atom_site_label
    _atom_site_type_symbol
    _atom_site_fract_x
    _atom_site_fract_y
    _atom_site_fract_z
    _atom_site_occupancy
    Mg1      Mg       0.28470    0.11930    0.92630    1.000
    Mg2      Mg       0.28000    0.31490    0.33670    1.000
    O1       O        0.29590    0.18450    0.15320    1.000
    O2       O        0.32070    0.22570    0.87320    1.000
    O3       O        0.31890    0.28730    0.11510    1.000
    O4       O        0.26600    0.23740    0.50350    1.000
    O5       O        0.18850    0.27660    0.17320    1.000
    C1       C        0.30460    0.23080    0.04230    1.000
    Mg3      Mg       0.95137    0.45263    0.25963    1.000
    Mg4      Mg       0.94667    0.64823    0.67003    1.000
    O6       O        0.96257    0.51783    0.48653    1.000
    O7       O        0.98737    0.55903    0.20653    1.000
    O8       O        0.98557    0.62063    0.44843    1.000
    O9       O        0.93267    0.57073    0.83683    1.000
    O10      O        0.85517    0.60993    0.50653    1.000
    C2       C        0.97127    0.56413    0.37563    1.000
    Mg5      Mg       0.61803    0.78597    0.59297    1.000
    Mg6      Mg       0.61333    0.98157    0.00337    1.000
    O11      O        0.62923    0.85117    0.81987    1.000
    O12      O        0.65403    0.89237    0.53987    1.000
    O13      O        0.65223    0.95397    0.78177    1.000
    O14      O        0.59933    0.90407    0.17017    1.000
    O15      O        0.52183    0.94327    0.83987    1.000
    C3       C        0.63793    0.89747    0.70897    1.000
    Mg7      Mg       0.88070    0.16540    0.92630    1.000
    Mg8      Mg       0.68510    0.96510    0.33670    1.000
    O16      O        0.81550    0.11140    0.15320    1.000
    O17      O        0.77430    0.09500    0.87320    1.000
    O18      O        0.71270    0.03160    0.11510    1.000
    O19      O        0.76260    0.02860    0.50350    1.000
    O20      O        0.72340    0.91190    0.17320    1.000
    C4       C        0.76920    0.07380    0.04230    1.000
    Mg9      Mg       0.54737    0.49873    0.25963    1.000
    Mg10     Mg       0.35177    0.29843    0.67003    1.000
    O21      O        0.48217    0.44473    0.48653    1.000
    O22      O        0.44097    0.42833    0.20653    1.000
    O23      O        0.37937    0.36493    0.44843    1.000
    O24      O        0.42927    0.36193    0.83683    1.000
    O25      O        0.39007    0.24523    0.50653    1.000
    C5       C        0.43587    0.40713    0.37563    1.000
    Mg11     Mg       0.21403    0.83207    0.59297    1.000
    Mg12     Mg       0.01843    0.63177    0.00337    1.000
    O26      O        0.14883    0.77807    0.81987    1.000
    O27      O        0.10763    0.76167    0.53987    1.000
    O28      O        0.04603    0.69827    0.78177    1.000
    O29      O        0.09593    0.69527    0.17017    1.000
    O30      O        0.05673    0.57857    0.83987    1.000
    C6       C        0.10253    0.74047    0.70897    1.000
    Mg13     Mg       0.83460    0.71530    0.92630    1.000
    Mg14     Mg       0.03490    0.72000    0.33670    1.000
    O31      O        0.88860    0.70410    0.15320    1.000
    O32      O        0.90500    0.67930    0.87320    1.000
    O33      O        0.96840    0.68110    0.11510    1.000
    O34      O        0.97140    0.73400    0.50350    1.000
    O35      O        0.08810    0.81150    0.17320    1.000
    C7       C        0.92620    0.69540    0.04230    1.000
    Mg15     Mg       0.50127    0.04863    0.25963    1.000
    Mg16     Mg       0.70157    0.05333    0.67003    1.000
    O36      O        0.55527    0.03743    0.48653    1.000
    O37      O        0.57167    0.01263    0.20653    1.000
    O38      O        0.63507    0.01443    0.44843    1.000
    O39      O        0.63807    0.06733    0.83683    1.000
    O40      O        0.75477    0.14483    0.50653    1.000
    C8       C        0.59287    0.02873    0.37563    1.000
    Mg17     Mg       0.16793    0.38197    0.59297    1.000
    Mg18     Mg       0.36823    0.38667    0.00337    1.000
    O41      O        0.22193    0.37077    0.81987    1.000
    O42      O        0.23833    0.34597    0.53987    1.000
    O43      O        0.30173    0.34777    0.78177    1.000
    O44      O        0.30473    0.40067    0.17017    1.000
    O45      O        0.42143    0.47817    0.83987    1.000
    C9       C        0.25953    0.36207    0.70897    1.000
    Mg19     Mg       0.88070    0.71530    0.42630    1.000
    Mg20     Mg       0.68510    0.72000    0.83670    1.000
    O46      O        0.81550    0.70410    0.65320    1.000
    O47      O        0.77430    0.67930    0.37320    1.000
    O48      O        0.71270    0.68110    0.61510    1.000
    O49      O        0.76260    0.73400    0.00350    1.000
    O50      O        0.72340    0.81150    0.67320    1.000
    C10      C        0.76920    0.69540    0.54230    1.000
    Mg21     Mg       0.54737    0.04863    0.75963    1.000
    Mg22     Mg       0.35177    0.05333    0.17003    1.000
    O51      O        0.48217    0.03743    0.98653    1.000
    O52      O        0.44097    0.01263    0.70653    1.000
    O53      O        0.37937    0.01443    0.94843    1.000
    O54      O        0.42927    0.06733    0.33683    1.000
    O55      O        0.39007    0.14483    0.00653    1.000
    C11      C        0.43587    0.02873    0.87563    1.000
    Mg23     Mg       0.21403    0.38197    0.09297    1.000
    Mg24     Mg       0.01843    0.38667    0.50337    1.000
    O56      O        0.14883    0.37077    0.31987    1.000
    O57      O        0.10763    0.34597    0.03987    1.000
    O58      O        0.04603    0.34777    0.28177    1.000
    O59      O        0.09593    0.40067    0.67017    1.000
    O60      O        0.05673    0.47817    0.33987    1.000
    C12      C        0.10253    0.36207    0.20897    1.000
    Mg25     Mg       0.83460    0.11930    0.42630    1.000
    Mg26     Mg       0.03490    0.31490    0.83670    1.000
    O61      O        0.88860    0.18450    0.65320    1.000
    O62      O        0.90500    0.22570    0.37320    1.000
    O63      O        0.96840    0.28730    0.61510    1.000
    O64      O        0.97140    0.23740    0.00350    1.000
    O65      O        0.08810    0.27660    0.67320    1.000
    C13      C        0.92620    0.23080    0.54230    1.000
    Mg27     Mg       0.50127    0.45263    0.75963    1.000
    Mg28     Mg       0.70157    0.64823    0.17003    1.000
    O66      O        0.55527    0.51783    0.98653    1.000
    O67      O        0.57167    0.55903    0.70653    1.000
    O68      O        0.63507    0.62063    0.94843    1.000
    O69      O        0.63807    0.57073    0.33683    1.000
    O70      O        0.75477    0.60993    0.00653    1.000
    C14      C        0.59287    0.56413    0.87563    1.000
    Mg29     Mg       0.16793    0.78597    0.09297    1.000
    Mg30     Mg       0.36823    0.98157    0.50337    1.000
    O71      O        0.22193    0.85117    0.31987    1.000
    O72      O        0.23833    0.89237    0.03987    1.000
    O73      O        0.30173    0.95397    0.28177    1.000
    O74      O        0.30473    0.90407    0.67017    1.000
    O75      O        0.42143    0.94327    0.33987    1.000
    C15      C        0.25953    0.89747    0.20897    1.000
    Mg31     Mg       0.28470    0.16540    0.42630    1.000
    Mg32     Mg       0.28000    0.96510    0.83670    1.000
    O76      O        0.29590    0.11140    0.65320    1.000
    O77      O        0.32070    0.09500    0.37320    1.000
    O78      O        0.31890    0.03160    0.61510    1.000
    O79      O        0.26600    0.02860    0.00350    1.000
    O80      O        0.18850    0.91190    0.67320    1.000
    C16      C        0.30460    0.07380    0.54230    1.000
    Mg33     Mg       0.95137    0.49873    0.75963    1.000
    Mg34     Mg       0.94667    0.29843    0.17003    1.000
    O81      O        0.96257    0.44473    0.98653    1.000
    O82      O        0.98737    0.42833    0.70653    1.000
    O83      O        0.98557    0.36493    0.94843    1.000
    O84      O        0.93267    0.36193    0.33683    1.000
    O85      O        0.85517    0.24523    0.00653    1.000
    C17      C        0.97127    0.40713    0.87563    1.000
    Mg35     Mg       0.61803    0.83207    0.09297    1.000
    Mg36     Mg       0.61333    0.63177    0.50337    1.000
    O86      O        0.62923    0.77807    0.31987    1.000
    O87      O        0.65403    0.76167    0.03987    1.000
    O88      O        0.65223    0.69827    0.28177    1.000
    O89      O        0.59933    0.69527    0.67017    1.000
    O90      O        0.52183    0.57857    0.33987    1.000
    C18      C        0.63793    0.74047    0.20897    1.000
