data_functionalizedCrystal
_audit_creation_method	'EQeq! by Chris Wilmer'
_symmetry_space_group_name_H-M	'P1'
_symmetry_Int_Tables_number	1
_symmetry_cell_setting	triclinic
loop_
_symmetry_equiv_pos_as_xyz
  x,y,z
_cell_length_a	14.5012
_cell_length_b	44.132
_cell_length_c	50.412
_cell_angle_alpha	90
_cell_angle_beta	90
_cell_angle_gamma	90
loop_
_atom_site_label
_atom_site_type_symbol
_atom_site_fract_x
_atom_site_fract_y
_atom_site_fract_z
_atom_site_charge
Mof_C 	C 	0.4173	0.60635	0.91542	0.523
Mof_C 	C 	0.3299	0.5895	0.92054	-0.214
Mof_C 	C 	0.2548	0.59419	0.90403	0.169
Mof_H 	H 	0.2588	0.6082	0.8903	-0.05
Mof_C 	C 	0.1742	0.57823	0.90784	-0.228
Mof_C 	C 	0.168	0.55774	0.92869	0.021
Mof_H 	H 	0.1134	0.5472	0.9314	0.037
Mof_C 	C 	0.2424	0.5529	0.94545	0.045
Mof_C 	C 	0.3235	0.56884	0.94158	0.01
Mof_H 	H 	0.3734	0.5659	0.9529	0.034
Mof_C 	C 	0.0968	0.58332	0.88936	0.581
Mof_C 	C 	0.1719	0.51776	0.97709	0.206
Mof_C 	C 	0.1903	0.49699	0.00045	0.017
Mof_C 	C 	0.1239	0.49336	0.01994	-0.121
Mof_H 	H 	0.0683	0.5038	0.0187	0.093
Mof_C 	C 	0.1396	0.47412	0.0415	0.092
Mof_H 	H 	0.0949	0.4717	0.0546	-0.01
Mof_C 	C 	0.2227	0.45864	0.04319	-0.206
Mof_C 	C 	0.2896	0.46196	0.02338	0.09
Mof_H 	H 	0.3446	0.4512	0.0244	-0.002
Mof_C 	C 	0.2739	0.48128	0.00233	-0.125
Mof_H 	H 	0.3189	0.4839	0.9894	0.066
Mof_C 	C 	0.2384	0.43711	0.06606	0.564
Mof_N 	N 	0.2438	0.53202	0.96748	-0.228
Mof_H 	H 	0.2962	0.5287	0.9749	0.124
Mof_O 	O 	0.4857	0.60093	0.93045	-0.56
Mof_O 	O 	0.4278	0.62728	0.89966	-0.622
Mof_O 	O 	0.1314	0.58651	0.86746	-0.563
Mof_O 	O 	0.0142	0.58425	0.89495	-0.675
Mof_O 	O 	0.0924	0.52105	0.96989	-0.238
Mof_O 	O 	0.2047	0.44228	0.08798	-0.64
Mof_O 	O 	0.2877	0.41634	0.05803	-0.558
Mof_C 	C 	0.4173	0.10635	0.41542	0.524
Mof_C 	C 	0.3299	0.0895	0.42054	-0.213
Mof_C 	C 	0.2548	0.09419	0.40403	0.17
Mof_H 	H 	0.2588	0.1082	0.3903	-0.049
Mof_C 	C 	0.1742	0.07823	0.40784	-0.227
Mof_C 	C 	0.168	0.05774	0.42869	0.022
Mof_H 	H 	0.1134	0.0472	0.4314	0.038
Mof_C 	C 	0.2424	0.0529	0.44545	0.046
Mof_C 	C 	0.3235	0.06884	0.44158	0.011
Mof_H 	H 	0.3734	0.0659	0.4529	0.035
Mof_C 	C 	0.0968	0.08332	0.38936	0.582
Mof_C 	C 	0.1719	0.01776	0.47709	0.207
Mof_C 	C 	0.1903	0.99699	0.50045	0.018
Mof_C 	C 	0.1239	0.99336	0.51994	-0.12
Mof_H 	H 	0.0683	0.0038	0.5187	0.094
Mof_C 	C 	0.1396	0.97412	0.5415	0.093
Mof_H 	H 	0.0949	0.9717	0.5546	-0.009
Mof_C 	C 	0.2227	0.95864	0.54319	-0.205
Mof_C 	C 	0.2896	0.96196	0.52338	0.091
Mof_H 	H 	0.3446	0.9512	0.5244	-0.001
Mof_C 	C 	0.2739	0.98128	0.50233	-0.125
Mof_H 	H 	0.3189	0.9839	0.4894	0.066
Mof_C 	C 	0.2384	0.93711	0.56606	0.564
Mof_N 	N 	0.2438	0.03202	0.46748	-0.228
Mof_H 	H 	0.2962	0.0287	0.4749	0.124
Mof_O 	O 	0.4857	0.10093	0.43045	-0.56
Mof_O 	O 	0.4278	0.12728	0.39966	-0.622
Mof_O 	O 	0.1314	0.08651	0.36746	-0.563
Mof_O 	O 	0.0142	0.08425	0.39495	-0.675
Mof_O 	O 	0.0924	0.02105	0.46989	-0.238
Mof_O 	O 	0.2047	0.94228	0.58798	-0.64
Mof_O 	O 	0.2877	0.91634	0.55803	-0.558
Mof_C 	C 	0.9173	0.60635	0.41542	0.524
Mof_C 	C 	0.8299	0.5895	0.42054	-0.213
Mof_C 	C 	0.7548	0.59419	0.40403	0.17
Mof_H 	H 	0.7588	0.6082	0.3903	-0.049
Mof_C 	C 	0.6742	0.57823	0.40784	-0.227
Mof_C 	C 	0.668	0.55774	0.42869	0.022
Mof_H 	H 	0.6134	0.5472	0.4314	0.038
Mof_C 	C 	0.7424	0.5529	0.44545	0.046
Mof_C 	C 	0.8235	0.56884	0.44158	0.011
Mof_H 	H 	0.8734	0.5659	0.4529	0.035
Mof_C 	C 	0.5968	0.58332	0.38936	0.582
Mof_C 	C 	0.6719	0.51776	0.47709	0.207
Mof_C 	C 	0.6903	0.49699	0.50045	0.018
Mof_C 	C 	0.6239	0.49336	0.51994	-0.12
Mof_H 	H 	0.5683	0.5038	0.5187	0.094
Mof_C 	C 	0.6396	0.47412	0.5415	0.093
Mof_H 	H 	0.5949	0.4717	0.5546	-0.009
Mof_C 	C 	0.7227	0.45864	0.54319	-0.205
Mof_C 	C 	0.7896	0.46196	0.52338	0.091
Mof_H 	H 	0.8446	0.4512	0.5244	-0.001
Mof_C 	C 	0.7739	0.48128	0.50233	-0.125
Mof_H 	H 	0.8189	0.4839	0.4894	0.066
Mof_C 	C 	0.7384	0.43711	0.56606	0.564
Mof_N 	N 	0.7438	0.53202	0.46748	-0.228
Mof_H 	H 	0.7962	0.5287	0.4749	0.124
Mof_O 	O 	0.9857	0.60093	0.43045	-0.56
Mof_O 	O 	0.9278	0.62728	0.39966	-0.622
Mof_O 	O 	0.6314	0.58651	0.36746	-0.563
Mof_O 	O 	0.5142	0.58425	0.39495	-0.675
Mof_O 	O 	0.5924	0.52105	0.46989	-0.237
Mof_O 	O 	0.7047	0.44228	0.58798	-0.64
Mof_O 	O 	0.7877	0.41634	0.55803	-0.558
Mof_C 	C 	0.9173	0.10635	0.91542	0.524
Mof_C 	C 	0.8299	0.0895	0.92054	-0.213
Mof_C 	C 	0.7548	0.09419	0.90403	0.17
Mof_H 	H 	0.7588	0.1082	0.8903	-0.049
Mof_C 	C 	0.6742	0.07823	0.90784	-0.227
Mof_C 	C 	0.668	0.05774	0.92869	0.022
Mof_H 	H 	0.6134	0.0472	0.9314	0.038
Mof_C 	C 	0.7424	0.0529	0.94545	0.046
Mof_C 	C 	0.8235	0.06884	0.94158	0.011
Mof_H 	H 	0.8734	0.0659	0.9529	0.035
Mof_C 	C 	0.5968	0.08332	0.88936	0.582
Mof_C 	C 	0.6719	0.01776	0.97709	0.207
Mof_C 	C 	0.6903	0.99699	0.00045	0.018
Mof_C 	C 	0.6239	0.99336	0.01994	-0.12
Mof_H 	H 	0.5683	0.0038	0.0187	0.094
Mof_C 	C 	0.6396	0.97412	0.0415	0.093
Mof_H 	H 	0.5949	0.9717	0.0546	-0.009
Mof_C 	C 	0.7227	0.95864	0.04319	-0.205
Mof_C 	C 	0.7896	0.96196	0.02338	0.091
Mof_H 	H 	0.8446	0.9512	0.0244	-0.001
Mof_C 	C 	0.7739	0.98128	0.00233	-0.125
Mof_H 	H 	0.8189	0.9839	0.9894	0.066
Mof_C 	C 	0.7384	0.93711	0.06606	0.564
Mof_N 	N 	0.7438	0.03202	0.96748	-0.228
Mof_H 	H 	0.7962	0.0287	0.9749	0.124
Mof_O 	O 	0.9857	0.10093	0.93045	-0.56
Mof_O 	O 	0.9278	0.12728	0.89966	-0.622
Mof_O 	O 	0.6314	0.08651	0.86746	-0.563
Mof_O 	O 	0.5142	0.08425	0.89495	-0.675
Mof_O 	O 	0.5924	0.02105	0.96989	-0.237
Mof_O 	O 	0.7047	0.94228	0.08798	-0.64
Mof_O 	O 	0.7877	0.91634	0.05803	-0.558
Mof_C 	C 	0.3327	0.14365	0.91542	0.524
Mof_C 	C 	0.4201	0.1605	0.92054	-0.213
Mof_C 	C 	0.4952	0.15581	0.90403	0.17
Mof_H 	H 	0.4912	0.1418	0.8903	-0.049
Mof_C 	C 	0.5758	0.17177	0.90784	-0.227
Mof_C 	C 	0.582	0.19226	0.92869	0.022
Mof_H 	H 	0.6366	0.2028	0.9314	0.038
Mof_C 	C 	0.5076	0.1971	0.94545	0.046
Mof_C 	C 	0.4265	0.18116	0.94158	0.011
Mof_H 	H 	0.3766	0.1841	0.9529	0.035
Mof_C 	C 	0.6532	0.16668	0.88936	0.582
Mof_C 	C 	0.5781	0.23224	0.97709	0.207
Mof_C 	C 	0.5597	0.25301	0.00045	0.018
Mof_C 	C 	0.6261	0.25664	0.01994	-0.12
Mof_H 	H 	0.6817	0.2462	0.0187	0.094
Mof_C 	C 	0.6104	0.27588	0.0415	0.093
Mof_H 	H 	0.6551	0.2783	0.0546	-0.009
Mof_C 	C 	0.5273	0.29136	0.04319	-0.205
Mof_C 	C 	0.4604	0.28804	0.02338	0.091
Mof_H 	H 	0.4054	0.2988	0.0244	-0.001
Mof_C 	C 	0.4761	0.26872	0.00233	-0.125
Mof_H 	H 	0.4311	0.2661	0.9894	0.066
Mof_C 	C 	0.5116	0.31289	0.06606	0.564
Mof_N 	N 	0.5062	0.21798	0.96748	-0.228
Mof_H 	H 	0.4538	0.2213	0.9749	0.124
Mof_O 	O 	0.2643	0.14907	0.93045	-0.56
Mof_O 	O 	0.3222	0.12272	0.89966	-0.622
Mof_O 	O 	0.6186	0.16349	0.86746	-0.563
Mof_O 	O 	0.7358	0.16575	0.89495	-0.675
Mof_O 	O 	0.6576	0.22895	0.96989	-0.237
Mof_O 	O 	0.5453	0.30772	0.08798	-0.64
Mof_O 	O 	0.4623	0.33366	0.05803	-0.558
Mof_C 	C 	0.3327	0.64365	0.41542	0.524
Mof_C 	C 	0.4201	0.6605	0.42054	-0.213
Mof_C 	C 	0.4952	0.65581	0.40403	0.17
Mof_H 	H 	0.4912	0.6418	0.3903	-0.049
Mof_C 	C 	0.5758	0.67177	0.40784	-0.227
Mof_C 	C 	0.582	0.69226	0.42869	0.022
Mof_H 	H 	0.6366	0.7028	0.4314	0.038
Mof_C 	C 	0.5076	0.6971	0.44545	0.046
Mof_C 	C 	0.4265	0.68116	0.44158	0.011
Mof_H 	H 	0.3766	0.6841	0.4529	0.035
Mof_C 	C 	0.6532	0.66668	0.38936	0.582
Mof_C 	C 	0.5781	0.73224	0.47709	0.207
Mof_C 	C 	0.5597	0.75301	0.50045	0.018
Mof_C 	C 	0.6261	0.75664	0.51994	-0.12
Mof_H 	H 	0.6817	0.7462	0.5187	0.094
Mof_C 	C 	0.6104	0.77588	0.5415	0.093
Mof_H 	H 	0.6551	0.7783	0.5546	-0.009
Mof_C 	C 	0.5273	0.79136	0.54319	-0.205
Mof_C 	C 	0.4604	0.78804	0.52338	0.091
Mof_H 	H 	0.4054	0.7988	0.5244	-0.001
Mof_C 	C 	0.4761	0.76872	0.50233	-0.125
Mof_H 	H 	0.4311	0.7661	0.4894	0.066
Mof_C 	C 	0.5116	0.81289	0.56606	0.564
Mof_N 	N 	0.5062	0.71798	0.46748	-0.228
Mof_H 	H 	0.4538	0.7213	0.4749	0.124
Mof_O 	O 	0.2643	0.64907	0.43045	-0.56
Mof_O 	O 	0.3222	0.62272	0.39966	-0.622
Mof_O 	O 	0.6186	0.66349	0.36746	-0.563
Mof_O 	O 	0.7358	0.66575	0.39495	-0.675
Mof_O 	O 	0.6576	0.72895	0.46989	-0.237
Mof_O 	O 	0.5453	0.80772	0.58798	-0.64
Mof_O 	O 	0.4623	0.83366	0.55803	-0.558
Mof_C 	C 	0.8327	0.14365	0.41542	0.523
Mof_C 	C 	0.9201	0.1605	0.42054	-0.213
Mof_C 	C 	0.9952	0.15581	0.40403	0.17
Mof_H 	H 	0.9912	0.1418	0.3903	-0.049
Mof_C 	C 	0.0758	0.17177	0.40784	-0.227
Mof_C 	C 	0.082	0.19226	0.42869	0.021
Mof_H 	H 	0.1366	0.2028	0.4314	0.038
Mof_C 	C 	0.0076	0.1971	0.44545	0.046
Mof_C 	C 	0.9265	0.18116	0.44158	0.011
Mof_H 	H 	0.8766	0.1841	0.4529	0.035
Mof_C 	C 	0.1532	0.16668	0.38936	0.582
Mof_C 	C 	0.0781	0.23224	0.47709	0.207
Mof_C 	C 	0.0597	0.25301	0.50045	0.018
Mof_C 	C 	0.1261	0.25664	0.51994	-0.12
Mof_H 	H 	0.1817	0.2462	0.5187	0.094
Mof_C 	C 	0.1104	0.27588	0.5415	0.093
Mof_H 	H 	0.1551	0.2783	0.5546	-0.009
Mof_C 	C 	0.0273	0.29136	0.54319	-0.205
Mof_C 	C 	0.9604	0.28804	0.52338	0.091
Mof_H 	H 	0.9054	0.2988	0.5244	-0.001
Mof_C 	C 	0.9761	0.26872	0.50233	-0.125
Mof_H 	H 	0.9311	0.2661	0.4894	0.066
Mof_C 	C 	0.0116	0.31289	0.56606	0.564
Mof_N 	N 	0.0062	0.21798	0.46748	-0.228
Mof_H 	H 	0.9538	0.2213	0.4749	0.124
Mof_O 	O 	0.7643	0.14907	0.43045	-0.56
Mof_O 	O 	0.8222	0.12272	0.39966	-0.622
Mof_O 	O 	0.1186	0.16349	0.36746	-0.563
Mof_O 	O 	0.2358	0.16575	0.39495	-0.675
Mof_O 	O 	0.1576	0.22895	0.46989	-0.237
Mof_O 	O 	0.0453	0.30772	0.58798	-0.64
Mof_O 	O 	0.9623	0.33366	0.55803	-0.558
Mof_C 	C 	0.8327	0.64365	0.91542	0.523
Mof_C 	C 	0.9201	0.6605	0.92054	-0.213
Mof_C 	C 	0.9952	0.65581	0.90403	0.17
Mof_H 	H 	0.9912	0.6418	0.8903	-0.049
Mof_C 	C 	0.0758	0.67177	0.90784	-0.227
Mof_C 	C 	0.082	0.69226	0.92869	0.021
Mof_H 	H 	0.1366	0.7028	0.9314	0.038
Mof_C 	C 	0.0076	0.6971	0.94545	0.046
Mof_C 	C 	0.9265	0.68116	0.94158	0.011
Mof_H 	H 	0.8766	0.6841	0.9529	0.035
Mof_C 	C 	0.1532	0.66668	0.88936	0.582
Mof_C 	C 	0.0781	0.73224	0.97709	0.207
Mof_C 	C 	0.0597	0.75301	0.00045	0.018
Mof_C 	C 	0.1261	0.75664	0.01994	-0.12
Mof_H 	H 	0.1817	0.7462	0.0187	0.094
Mof_C 	C 	0.1104	0.77588	0.0415	0.093
Mof_H 	H 	0.1551	0.7783	0.0546	-0.009
Mof_C 	C 	0.0273	0.79136	0.04319	-0.205
Mof_C 	C 	0.9604	0.78804	0.02338	0.091
Mof_H 	H 	0.9054	0.7988	0.0244	-0.001
Mof_C 	C 	0.9761	0.76872	0.00233	-0.125
Mof_H 	H 	0.9311	0.7661	0.9894	0.066
Mof_C 	C 	0.0116	0.81289	0.06606	0.563
Mof_N 	N 	0.0062	0.71798	0.96748	-0.228
Mof_H 	H 	0.9538	0.7213	0.9749	0.124
Mof_O 	O 	0.7643	0.64907	0.93045	-0.56
Mof_O 	O 	0.8222	0.62272	0.89966	-0.622
Mof_O 	O 	0.1186	0.66349	0.86746	-0.563
Mof_O 	O 	0.2358	0.66575	0.89495	-0.675
Mof_O 	O 	0.1576	0.72895	0.96989	-0.237
Mof_O 	O 	0.0453	0.80772	0.08798	-0.64
Mof_O 	O 	0.9623	0.83366	0.05803	-0.558
Mof_C 	C 	0.3327	0.60635	0.83458	0.524
Mof_C 	C 	0.4201	0.5895	0.82946	-0.213
Mof_C 	C 	0.4952	0.59419	0.84597	0.17
Mof_H 	H 	0.4912	0.6082	0.8597	-0.049
Mof_C 	C 	0.5758	0.57823	0.84216	-0.227
Mof_C 	C 	0.582	0.55774	0.82131	0.022
Mof_H 	H 	0.6366	0.5472	0.8186	0.038
Mof_C 	C 	0.5076	0.5529	0.80455	0.046
Mof_C 	C 	0.4265	0.56884	0.80842	0.011
Mof_H 	H 	0.3766	0.5659	0.7971	0.035
Mof_C 	C 	0.6532	0.58332	0.86064	0.582
Mof_C 	C 	0.5781	0.51776	0.77291	0.207
Mof_C 	C 	0.5597	0.49699	0.74955	0.018
Mof_C 	C 	0.6261	0.49336	0.73006	-0.12
Mof_H 	H 	0.6817	0.5038	0.7313	0.094
Mof_C 	C 	0.6104	0.47412	0.7085	0.093
Mof_H 	H 	0.6551	0.4717	0.6954	-0.009
Mof_C 	C 	0.5273	0.45864	0.70681	-0.205
Mof_C 	C 	0.4604	0.46196	0.72662	0.091
Mof_H 	H 	0.4054	0.4512	0.7256	-0.001
Mof_C 	C 	0.4761	0.48128	0.74767	-0.125
Mof_H 	H 	0.4311	0.4839	0.7606	0.066
Mof_C 	C 	0.5116	0.43711	0.68394	0.564
Mof_N 	N 	0.5062	0.53202	0.78252	-0.228
Mof_H 	H 	0.4538	0.5287	0.7751	0.124
Mof_O 	O 	0.2643	0.60093	0.81955	-0.56
Mof_O 	O 	0.3222	0.62728	0.85034	-0.622
Mof_O 	O 	0.6186	0.58651	0.88254	-0.563
Mof_O 	O 	0.7358	0.58425	0.85505	-0.675
Mof_O 	O 	0.6576	0.52105	0.78011	-0.237
Mof_O 	O 	0.5453	0.44228	0.66202	-0.64
Mof_O 	O 	0.4623	0.41634	0.69197	-0.558
Mof_C 	C 	0.3327	0.10635	0.33458	0.524
Mof_C 	C 	0.4201	0.0895	0.32946	-0.213
Mof_C 	C 	0.4952	0.09419	0.34597	0.17
Mof_H 	H 	0.4912	0.1082	0.3597	-0.049
Mof_C 	C 	0.5758	0.07823	0.34216	-0.227
Mof_C 	C 	0.582	0.05774	0.32131	0.022
Mof_H 	H 	0.6366	0.0472	0.3186	0.038
Mof_C 	C 	0.5076	0.0529	0.30455	0.046
Mof_C 	C 	0.4265	0.06884	0.30842	0.011
Mof_H 	H 	0.3766	0.0659	0.2971	0.035
Mof_C 	C 	0.6532	0.08332	0.36064	0.582
Mof_C 	C 	0.5781	0.01776	0.27291	0.207
Mof_C 	C 	0.5597	0.99699	0.24955	0.018
Mof_C 	C 	0.6261	0.99336	0.23006	-0.12
Mof_H 	H 	0.6817	0.0038	0.2313	0.094
Mof_C 	C 	0.6104	0.97412	0.2085	0.093
Mof_H 	H 	0.6551	0.9717	0.1954	-0.009
Mof_C 	C 	0.5273	0.95864	0.20681	-0.205
Mof_C 	C 	0.4604	0.96196	0.22662	0.091
Mof_H 	H 	0.4054	0.9512	0.2256	-0.001
Mof_C 	C 	0.4761	0.98128	0.24767	-0.125
Mof_H 	H 	0.4311	0.9839	0.2606	0.066
Mof_C 	C 	0.5116	0.93711	0.18394	0.564
Mof_N 	N 	0.5062	0.03202	0.28252	-0.228
Mof_H 	H 	0.4538	0.0287	0.2751	0.124
Mof_O 	O 	0.2643	0.10093	0.31955	-0.56
Mof_O 	O 	0.3222	0.12728	0.35034	-0.622
Mof_O 	O 	0.6186	0.08651	0.38254	-0.563
Mof_O 	O 	0.7358	0.08425	0.35505	-0.675
Mof_O 	O 	0.6576	0.02105	0.28011	-0.237
Mof_O 	O 	0.5453	0.94228	0.16202	-0.64
Mof_O 	O 	0.4623	0.91634	0.19197	-0.558
Mof_C 	C 	0.8327	0.60635	0.33458	0.524
Mof_C 	C 	0.9201	0.5895	0.32946	-0.213
Mof_C 	C 	0.9952	0.59419	0.34597	0.17
Mof_H 	H 	0.9912	0.6082	0.3597	-0.049
Mof_C 	C 	0.0758	0.57823	0.34216	-0.227
Mof_C 	C 	0.082	0.55774	0.32131	0.022
Mof_H 	H 	0.1366	0.5472	0.3186	0.038
Mof_C 	C 	0.0076	0.5529	0.30455	0.046
Mof_C 	C 	0.9265	0.56884	0.30842	0.011
Mof_H 	H 	0.8766	0.5659	0.2971	0.035
Mof_C 	C 	0.1532	0.58332	0.36064	0.582
Mof_C 	C 	0.0781	0.51776	0.27291	0.207
Mof_C 	C 	0.0597	0.49699	0.24955	0.018
Mof_C 	C 	0.1261	0.49336	0.23006	-0.12
Mof_H 	H 	0.1817	0.5038	0.2313	0.094
Mof_C 	C 	0.1104	0.47412	0.2085	0.093
Mof_H 	H 	0.1551	0.4717	0.1954	-0.009
Mof_C 	C 	0.0273	0.45864	0.20681	-0.205
Mof_C 	C 	0.9604	0.46196	0.22662	0.091
Mof_H 	H 	0.9054	0.4512	0.2256	-0.001
Mof_C 	C 	0.9761	0.48128	0.24767	-0.125
Mof_H 	H 	0.9311	0.4839	0.2606	0.066
Mof_C 	C 	0.0116	0.43711	0.18394	0.563
Mof_N 	N 	0.0062	0.53202	0.28252	-0.228
Mof_H 	H 	0.9538	0.5287	0.2751	0.124
Mof_O 	O 	0.7643	0.60093	0.31955	-0.56
Mof_O 	O 	0.8222	0.62728	0.35034	-0.622
Mof_O 	O 	0.1186	0.58651	0.38254	-0.563
Mof_O 	O 	0.2358	0.58425	0.35505	-0.675
Mof_O 	O 	0.1576	0.52105	0.28011	-0.237
Mof_O 	O 	0.0453	0.44228	0.16202	-0.64
Mof_O 	O 	0.9623	0.41634	0.19197	-0.558
Mof_C 	C 	0.8327	0.10635	0.83458	0.523
Mof_C 	C 	0.9201	0.0895	0.82946	-0.213
Mof_C 	C 	0.9952	0.09419	0.84597	0.17
Mof_H 	H 	0.9912	0.1082	0.8597	-0.049
Mof_C 	C 	0.0758	0.07823	0.84216	-0.227
Mof_C 	C 	0.082	0.05774	0.82131	0.021
Mof_H 	H 	0.1366	0.0472	0.8186	0.038
Mof_C 	C 	0.0076	0.0529	0.80455	0.046
Mof_C 	C 	0.9265	0.06884	0.80842	0.011
Mof_H 	H 	0.8766	0.0659	0.7971	0.035
Mof_C 	C 	0.1532	0.08332	0.86064	0.582
Mof_C 	C 	0.0781	0.01776	0.77291	0.207
Mof_C 	C 	0.0597	0.99699	0.74955	0.018
Mof_C 	C 	0.1261	0.99336	0.73006	-0.12
Mof_H 	H 	0.1817	0.0038	0.7313	0.094
Mof_C 	C 	0.1104	0.97412	0.7085	0.093
Mof_H 	H 	0.1551	0.9717	0.6954	-0.009
Mof_C 	C 	0.0273	0.95864	0.70681	-0.205
Mof_C 	C 	0.9604	0.96196	0.72662	0.091
Mof_H 	H 	0.9054	0.9512	0.7256	-0.001
Mof_C 	C 	0.9761	0.98128	0.74767	-0.125
Mof_H 	H 	0.9311	0.9839	0.7606	0.066
Mof_C 	C 	0.0116	0.93711	0.68394	0.563
Mof_N 	N 	0.0062	0.03202	0.78252	-0.228
Mof_H 	H 	0.9538	0.0287	0.7751	0.124
Mof_O 	O 	0.7643	0.10093	0.81955	-0.56
Mof_O 	O 	0.8222	0.12728	0.85034	-0.622
Mof_O 	O 	0.1186	0.08651	0.88254	-0.563
Mof_O 	O 	0.2358	0.08425	0.85505	-0.675
Mof_O 	O 	0.1576	0.02105	0.78011	-0.237
Mof_O 	O 	0.0453	0.94228	0.66202	-0.64
Mof_O 	O 	0.9623	0.91634	0.69197	-0.558
Mof_C 	C 	0.4173	0.14365	0.83458	0.524
Mof_C 	C 	0.3299	0.1605	0.82946	-0.213
Mof_C 	C 	0.2548	0.15581	0.84597	0.17
Mof_H 	H 	0.2588	0.1418	0.8597	-0.049
Mof_C 	C 	0.1742	0.17177	0.84216	-0.227
Mof_C 	C 	0.168	0.19226	0.82131	0.022
Mof_H 	H 	0.1134	0.2028	0.8186	0.038
Mof_C 	C 	0.2424	0.1971	0.80455	0.046
Mof_C 	C 	0.3235	0.18116	0.80842	0.011
Mof_H 	H 	0.3734	0.1841	0.7971	0.035
Mof_C 	C 	0.0968	0.16668	0.86064	0.582
Mof_C 	C 	0.1719	0.23224	0.77291	0.207
Mof_C 	C 	0.1903	0.25301	0.74955	0.018
Mof_C 	C 	0.1239	0.25664	0.73006	-0.12
Mof_H 	H 	0.0683	0.2462	0.7313	0.094
Mof_C 	C 	0.1396	0.27588	0.7085	0.093
Mof_H 	H 	0.0949	0.2783	0.6954	-0.009
Mof_C 	C 	0.2227	0.29136	0.70681	-0.205
Mof_C 	C 	0.2896	0.28804	0.72662	0.091
Mof_H 	H 	0.3446	0.2988	0.7256	-0.001
Mof_C 	C 	0.2739	0.26872	0.74767	-0.125
Mof_H 	H 	0.3189	0.2661	0.7606	0.066
Mof_C 	C 	0.2384	0.31289	0.68394	0.564
Mof_N 	N 	0.2438	0.21798	0.78252	-0.228
Mof_H 	H 	0.2962	0.2213	0.7751	0.124
Mof_O 	O 	0.4857	0.14907	0.81955	-0.56
Mof_O 	O 	0.4278	0.12272	0.85034	-0.622
Mof_O 	O 	0.1314	0.16349	0.88254	-0.563
Mof_O 	O 	0.0142	0.16575	0.85505	-0.675
Mof_O 	O 	0.0924	0.22895	0.78011	-0.238
Mof_O 	O 	0.2047	0.30772	0.66202	-0.64
Mof_O 	O 	0.2877	0.33366	0.69197	-0.558
Mof_C 	C 	0.4173	0.64365	0.33458	0.524
Mof_C 	C 	0.3299	0.6605	0.32946	-0.213
Mof_C 	C 	0.2548	0.65581	0.34597	0.17
Mof_H 	H 	0.2588	0.6418	0.3597	-0.049
Mof_C 	C 	0.1742	0.67177	0.34216	-0.227
Mof_C 	C 	0.168	0.69226	0.32131	0.022
Mof_H 	H 	0.1134	0.7028	0.3186	0.038
Mof_C 	C 	0.2424	0.6971	0.30455	0.046
Mof_C 	C 	0.3235	0.68116	0.30842	0.011
Mof_H 	H 	0.3734	0.6841	0.2971	0.035
Mof_C 	C 	0.0968	0.66668	0.36064	0.582
Mof_C 	C 	0.1719	0.73224	0.27291	0.207
Mof_C 	C 	0.1903	0.75301	0.24955	0.018
Mof_C 	C 	0.1239	0.75664	0.23006	-0.12
Mof_H 	H 	0.0683	0.7462	0.2313	0.094
Mof_C 	C 	0.1396	0.77588	0.2085	0.093
Mof_H 	H 	0.0949	0.7783	0.1954	-0.009
Mof_C 	C 	0.2227	0.79136	0.20681	-0.205
Mof_C 	C 	0.2896	0.78804	0.22662	0.091
Mof_H 	H 	0.3446	0.7988	0.2256	-0.001
Mof_C 	C 	0.2739	0.76872	0.24767	-0.125
Mof_H 	H 	0.3189	0.7661	0.2606	0.066
Mof_C 	C 	0.2384	0.81289	0.18394	0.564
Mof_N 	N 	0.2438	0.71798	0.28252	-0.228
Mof_H 	H 	0.2962	0.7213	0.2751	0.124
Mof_O 	O 	0.4857	0.64907	0.31955	-0.56
Mof_O 	O 	0.4278	0.62272	0.35034	-0.622
Mof_O 	O 	0.1314	0.66349	0.38254	-0.563
Mof_O 	O 	0.0142	0.66575	0.35505	-0.676
Mof_O 	O 	0.0924	0.72895	0.28011	-0.238
Mof_O 	O 	0.2047	0.80772	0.16202	-0.64
Mof_O 	O 	0.2877	0.83366	0.19197	-0.558
Mof_C 	C 	0.9173	0.14365	0.33458	0.524
Mof_C 	C 	0.8299	0.1605	0.32946	-0.213
Mof_C 	C 	0.7548	0.15581	0.34597	0.17
Mof_H 	H 	0.7588	0.1418	0.3597	-0.049
Mof_C 	C 	0.6742	0.17177	0.34216	-0.227
Mof_C 	C 	0.668	0.19226	0.32131	0.022
Mof_H 	H 	0.6134	0.2028	0.3186	0.038
Mof_C 	C 	0.7424	0.1971	0.30455	0.046
Mof_C 	C 	0.8235	0.18116	0.30842	0.011
Mof_H 	H 	0.8734	0.1841	0.2971	0.035
Mof_C 	C 	0.5968	0.16668	0.36064	0.582
Mof_C 	C 	0.6719	0.23224	0.27291	0.207
Mof_C 	C 	0.6903	0.25301	0.24955	0.018
Mof_C 	C 	0.6239	0.25664	0.23006	-0.12
Mof_H 	H 	0.5683	0.2462	0.2313	0.094
Mof_C 	C 	0.6396	0.27588	0.2085	0.093
Mof_H 	H 	0.5949	0.2783	0.1954	-0.009
Mof_C 	C 	0.7227	0.29136	0.20681	-0.205
Mof_C 	C 	0.7896	0.28804	0.22662	0.091
Mof_H 	H 	0.8446	0.2988	0.2256	-0.001
Mof_C 	C 	0.7739	0.26872	0.24767	-0.125
Mof_H 	H 	0.8189	0.2661	0.2606	0.066
Mof_C 	C 	0.7384	0.31289	0.18394	0.564
Mof_N 	N 	0.7438	0.21798	0.28252	-0.228
Mof_H 	H 	0.7962	0.2213	0.2751	0.124
Mof_O 	O 	0.9857	0.14907	0.31955	-0.56
Mof_O 	O 	0.9278	0.12272	0.35034	-0.622
Mof_O 	O 	0.6314	0.16349	0.38254	-0.563
Mof_O 	O 	0.5142	0.16575	0.35505	-0.675
Mof_O 	O 	0.5924	0.22895	0.28011	-0.237
Mof_O 	O 	0.7047	0.30772	0.16202	-0.64
Mof_O 	O 	0.7877	0.33366	0.19197	-0.558
Mof_C 	C 	0.9173	0.64365	0.83458	0.524
Mof_C 	C 	0.8299	0.6605	0.82946	-0.213
Mof_C 	C 	0.7548	0.65581	0.84597	0.17
Mof_H 	H 	0.7588	0.6418	0.8597	-0.049
Mof_C 	C 	0.6742	0.67177	0.84216	-0.227
Mof_C 	C 	0.668	0.69226	0.82131	0.022
Mof_H 	H 	0.6134	0.7028	0.8186	0.038
Mof_C 	C 	0.7424	0.6971	0.80455	0.046
Mof_C 	C 	0.8235	0.68116	0.80842	0.011
Mof_H 	H 	0.8734	0.6841	0.7971	0.035
Mof_C 	C 	0.5968	0.66668	0.86064	0.582
Mof_C 	C 	0.6719	0.73224	0.77291	0.207
Mof_C 	C 	0.6903	0.75301	0.74955	0.018
Mof_C 	C 	0.6239	0.75664	0.73006	-0.12
Mof_H 	H 	0.5683	0.7462	0.7313	0.094
Mof_C 	C 	0.6396	0.77588	0.7085	0.093
Mof_H 	H 	0.5949	0.7783	0.6954	-0.009
Mof_C 	C 	0.7227	0.79136	0.70681	-0.205
Mof_C 	C 	0.7896	0.78804	0.72662	0.091
Mof_H 	H 	0.8446	0.7988	0.7256	-0.001
Mof_C 	C 	0.7739	0.76872	0.74767	-0.125
Mof_H 	H 	0.8189	0.7661	0.7606	0.066
Mof_C 	C 	0.7384	0.81289	0.68394	0.564
Mof_N 	N 	0.7438	0.71798	0.78252	-0.228
Mof_H 	H 	0.7962	0.7213	0.7751	0.124
Mof_O 	O 	0.9857	0.64907	0.81955	-0.56
Mof_O 	O 	0.9278	0.62272	0.85034	-0.622
Mof_O 	O 	0.6314	0.66349	0.88254	-0.563
Mof_O 	O 	0.5142	0.66575	0.85505	-0.675
Mof_O 	O 	0.5924	0.72895	0.78011	-0.237
Mof_O 	O 	0.7047	0.80772	0.66202	-0.64
Mof_O 	O 	0.7877	0.83366	0.69197	-0.558
Mof_C 	C 	0.5827	0.39365	0.08458	0.524
Mof_C 	C 	0.6701	0.4105	0.07946	-0.213
Mof_C 	C 	0.7452	0.40581	0.09597	0.17
Mof_H 	H 	0.7412	0.3918	0.1097	-0.049
Mof_C 	C 	0.8258	0.42177	0.09216	-0.227
Mof_C 	C 	0.832	0.44226	0.07131	0.022
Mof_H 	H 	0.8866	0.4528	0.0686	0.038
Mof_C 	C 	0.7576	0.4471	0.05455	0.046
Mof_C 	C 	0.6765	0.43116	0.05842	0.011
Mof_H 	H 	0.6266	0.4341	0.0471	0.035
Mof_C 	C 	0.9032	0.41668	0.11064	0.582
Mof_C 	C 	0.8281	0.48224	0.02291	0.207
Mof_C 	C 	0.8097	0.50301	0.99955	0.018
Mof_C 	C 	0.8761	0.50664	0.98006	-0.12
Mof_H 	H 	0.9317	0.4962	0.9813	0.094
Mof_C 	C 	0.8604	0.52588	0.9585	0.093
Mof_H 	H 	0.9051	0.5283	0.9454	-0.009
Mof_C 	C 	0.7773	0.54136	0.95681	-0.205
Mof_C 	C 	0.7104	0.53804	0.97662	0.091
Mof_H 	H 	0.6554	0.5488	0.9756	-0.001
Mof_C 	C 	0.7261	0.51872	0.99767	-0.125
Mof_H 	H 	0.6811	0.5161	0.0106	0.066
Mof_C 	C 	0.7616	0.56289	0.93394	0.564
Mof_N 	N 	0.7562	0.46798	0.03252	-0.228
Mof_H 	H 	0.7038	0.4713	0.0251	0.124
Mof_O 	O 	0.5143	0.39907	0.06955	-0.56
Mof_O 	O 	0.5722	0.37272	0.10034	-0.622
Mof_O 	O 	0.8686	0.41349	0.13254	-0.563
Mof_O 	O 	0.9858	0.41575	0.10505	-0.675
Mof_O 	O 	0.9076	0.47895	0.03011	-0.238
Mof_O 	O 	0.7953	0.55772	0.91202	-0.64
Mof_O 	O 	0.7123	0.58366	0.94197	-0.558
Mof_C 	C 	0.5827	0.89365	0.58458	0.524
Mof_C 	C 	0.6701	0.9105	0.57946	-0.213
Mof_C 	C 	0.7452	0.90581	0.59597	0.17
Mof_H 	H 	0.7412	0.8918	0.6097	-0.049
Mof_C 	C 	0.8258	0.92177	0.59216	-0.227
Mof_C 	C 	0.832	0.94226	0.57131	0.022
Mof_H 	H 	0.8866	0.9528	0.5686	0.038
Mof_C 	C 	0.7576	0.9471	0.55455	0.046
Mof_C 	C 	0.6765	0.93116	0.55842	0.011
Mof_H 	H 	0.6266	0.9341	0.5471	0.035
Mof_C 	C 	0.9032	0.91668	0.61064	0.582
Mof_C 	C 	0.8281	0.98224	0.52291	0.207
Mof_C 	C 	0.8097	0.00301	0.49955	0.018
Mof_C 	C 	0.8761	0.00664	0.48006	-0.12
Mof_H 	H 	0.9317	0.9962	0.4813	0.094
Mof_C 	C 	0.8604	0.02588	0.4585	0.093
Mof_H 	H 	0.9051	0.0283	0.4454	-0.009
Mof_C 	C 	0.7773	0.04136	0.45681	-0.205
Mof_C 	C 	0.7104	0.03804	0.47662	0.091
Mof_H 	H 	0.6554	0.0488	0.4756	-0.001
Mof_C 	C 	0.7261	0.01872	0.49767	-0.125
Mof_H 	H 	0.6811	0.0161	0.5106	0.066
Mof_C 	C 	0.7616	0.06289	0.43394	0.564
Mof_N 	N 	0.7562	0.96798	0.53252	-0.228
Mof_H 	H 	0.7038	0.9713	0.5251	0.124
Mof_O 	O 	0.5143	0.89907	0.56955	-0.56
Mof_O 	O 	0.5722	0.87272	0.60034	-0.622
Mof_O 	O 	0.8686	0.91349	0.63254	-0.563
Mof_O 	O 	0.9858	0.91575	0.60505	-0.675
Mof_O 	O 	0.9076	0.97895	0.53011	-0.238
Mof_O 	O 	0.7953	0.05772	0.41202	-0.64
Mof_O 	O 	0.7123	0.08366	0.44197	-0.558
Mof_C 	C 	0.0827	0.39365	0.58458	0.524
Mof_C 	C 	0.1701	0.4105	0.57946	-0.213
Mof_C 	C 	0.2452	0.40581	0.59597	0.17
Mof_H 	H 	0.2412	0.3918	0.6097	-0.049
Mof_C 	C 	0.3258	0.42177	0.59216	-0.227
Mof_C 	C 	0.332	0.44226	0.57131	0.022
Mof_H 	H 	0.3866	0.4528	0.5686	0.038
Mof_C 	C 	0.2576	0.4471	0.55455	0.046
Mof_C 	C 	0.1765	0.43116	0.55842	0.011
Mof_H 	H 	0.1266	0.4341	0.5471	0.035
Mof_C 	C 	0.4032	0.41668	0.61064	0.582
Mof_C 	C 	0.3281	0.48224	0.52291	0.207
Mof_C 	C 	0.3097	0.50301	0.49955	0.018
Mof_C 	C 	0.3761	0.50664	0.48006	-0.12
Mof_H 	H 	0.4317	0.4962	0.4813	0.094
Mof_C 	C 	0.3604	0.52588	0.4585	0.093
Mof_H 	H 	0.4051	0.5283	0.4454	-0.009
Mof_C 	C 	0.2773	0.54136	0.45681	-0.205
Mof_C 	C 	0.2104	0.53804	0.47662	0.091
Mof_H 	H 	0.1554	0.5488	0.4756	-0.001
Mof_C 	C 	0.2261	0.51872	0.49767	-0.125
Mof_H 	H 	0.1811	0.5161	0.5106	0.066
Mof_C 	C 	0.2616	0.56289	0.43394	0.564
Mof_N 	N 	0.2562	0.46798	0.53252	-0.228
Mof_H 	H 	0.2038	0.4713	0.5251	0.124
Mof_O 	O 	0.0143	0.39907	0.56955	-0.56
Mof_O 	O 	0.0722	0.37272	0.60034	-0.622
Mof_O 	O 	0.3686	0.41349	0.63254	-0.563
Mof_O 	O 	0.4858	0.41575	0.60505	-0.675
Mof_O 	O 	0.4076	0.47895	0.53011	-0.237
Mof_O 	O 	0.2953	0.55772	0.41202	-0.64
Mof_O 	O 	0.2123	0.58366	0.44197	-0.558
Mof_C 	C 	0.0827	0.89365	0.08458	0.524
Mof_C 	C 	0.1701	0.9105	0.07946	-0.213
Mof_C 	C 	0.2452	0.90581	0.09597	0.17
Mof_H 	H 	0.2412	0.8918	0.1097	-0.049
Mof_C 	C 	0.3258	0.92177	0.09216	-0.227
Mof_C 	C 	0.332	0.94226	0.07131	0.022
Mof_H 	H 	0.3866	0.9528	0.0686	0.038
Mof_C 	C 	0.2576	0.9471	0.05455	0.046
Mof_C 	C 	0.1765	0.93116	0.05842	0.011
Mof_H 	H 	0.1266	0.9341	0.0471	0.035
Mof_C 	C 	0.4032	0.91668	0.11064	0.582
Mof_C 	C 	0.3281	0.98224	0.02291	0.207
Mof_C 	C 	0.3097	0.00301	0.99955	0.018
Mof_C 	C 	0.3761	0.00664	0.98006	-0.12
Mof_H 	H 	0.4317	0.9962	0.9813	0.094
Mof_C 	C 	0.3604	0.02588	0.9585	0.093
Mof_H 	H 	0.4051	0.0283	0.9454	-0.009
Mof_C 	C 	0.2773	0.04136	0.95681	-0.205
Mof_C 	C 	0.2104	0.03804	0.97662	0.091
Mof_H 	H 	0.1554	0.0488	0.9756	-0.001
Mof_C 	C 	0.2261	0.01872	0.99767	-0.125
Mof_H 	H 	0.1811	0.0161	0.0106	0.066
Mof_C 	C 	0.2616	0.06289	0.93394	0.564
Mof_N 	N 	0.2562	0.96798	0.03252	-0.228
Mof_H 	H 	0.2038	0.9713	0.0251	0.124
Mof_O 	O 	0.0143	0.89907	0.06955	-0.56
Mof_O 	O 	0.0722	0.87272	0.10034	-0.622
Mof_O 	O 	0.3686	0.91349	0.13254	-0.563
Mof_O 	O 	0.4858	0.91575	0.10505	-0.675
Mof_O 	O 	0.4076	0.97895	0.03011	-0.237
Mof_O 	O 	0.2953	0.05772	0.91202	-0.64
Mof_O 	O 	0.2123	0.08366	0.94197	-0.558
Mof_C 	C 	0.6673	0.85635	0.08458	0.524
Mof_C 	C 	0.5799	0.8395	0.07946	-0.213
Mof_C 	C 	0.5048	0.84419	0.09597	0.17
Mof_H 	H 	0.5088	0.8582	0.1097	-0.049
Mof_C 	C 	0.4242	0.82823	0.09216	-0.227
Mof_C 	C 	0.418	0.80774	0.07131	0.022
Mof_H 	H 	0.3634	0.7972	0.0686	0.038
Mof_C 	C 	0.4924	0.8029	0.05455	0.046
Mof_C 	C 	0.5735	0.81884	0.05842	0.011
Mof_H 	H 	0.6234	0.8159	0.0471	0.035
Mof_C 	C 	0.3468	0.83332	0.11064	0.582
Mof_C 	C 	0.4219	0.76776	0.02291	0.207
Mof_C 	C 	0.4403	0.74699	0.99955	0.018
Mof_C 	C 	0.3739	0.74336	0.98006	-0.12
Mof_H 	H 	0.3183	0.7538	0.9813	0.094
Mof_C 	C 	0.3896	0.72412	0.9585	0.093
Mof_H 	H 	0.3449	0.7217	0.9454	-0.009
Mof_C 	C 	0.4727	0.70864	0.95681	-0.205
Mof_C 	C 	0.5396	0.71196	0.97662	0.091
Mof_H 	H 	0.5946	0.7012	0.9756	-0.001
Mof_C 	C 	0.5239	0.73128	0.99767	-0.125
Mof_H 	H 	0.5689	0.7339	0.0106	0.066
Mof_C 	C 	0.4884	0.68711	0.93394	0.564
Mof_N 	N 	0.4938	0.78202	0.03252	-0.228
Mof_H 	H 	0.5462	0.7787	0.0251	0.124
Mof_O 	O 	0.7357	0.85093	0.06955	-0.56
Mof_O 	O 	0.6778	0.87728	0.10034	-0.622
Mof_O 	O 	0.3814	0.83651	0.13254	-0.563
Mof_O 	O 	0.2642	0.83425	0.10505	-0.675
Mof_O 	O 	0.3424	0.77105	0.03011	-0.237
Mof_O 	O 	0.4547	0.69228	0.91202	-0.64
Mof_O 	O 	0.5377	0.66634	0.94197	-0.558
Mof_C 	C 	0.6673	0.35635	0.58458	0.524
Mof_C 	C 	0.5799	0.3395	0.57946	-0.213
Mof_C 	C 	0.5048	0.34419	0.59597	0.17
Mof_H 	H 	0.5088	0.3582	0.6097	-0.049
Mof_C 	C 	0.4242	0.32823	0.59216	-0.227
Mof_C 	C 	0.418	0.30774	0.57131	0.022
Mof_H 	H 	0.3634	0.2972	0.5686	0.038
Mof_C 	C 	0.4924	0.3029	0.55455	0.046
Mof_C 	C 	0.5735	0.31884	0.55842	0.011
Mof_H 	H 	0.6234	0.3159	0.5471	0.035
Mof_C 	C 	0.3468	0.33332	0.61064	0.582
Mof_C 	C 	0.4219	0.26776	0.52291	0.207
Mof_C 	C 	0.4403	0.24699	0.49955	0.018
Mof_C 	C 	0.3739	0.24336	0.48006	-0.12
Mof_H 	H 	0.3183	0.2538	0.4813	0.094
Mof_C 	C 	0.3896	0.22412	0.4585	0.093
Mof_H 	H 	0.3449	0.2217	0.4454	-0.009
Mof_C 	C 	0.4727	0.20864	0.45681	-0.205
Mof_C 	C 	0.5396	0.21196	0.47662	0.091
Mof_H 	H 	0.5946	0.2012	0.4756	-0.001
Mof_C 	C 	0.5239	0.23128	0.49767	-0.125
Mof_H 	H 	0.5689	0.2339	0.5106	0.066
Mof_C 	C 	0.4884	0.18711	0.43394	0.564
Mof_N 	N 	0.4938	0.28202	0.53252	-0.228
Mof_H 	H 	0.5462	0.2787	0.5251	0.124
Mof_O 	O 	0.7357	0.35093	0.56955	-0.56
Mof_O 	O 	0.6778	0.37728	0.60034	-0.622
Mof_O 	O 	0.3814	0.33651	0.63254	-0.563
Mof_O 	O 	0.2642	0.33425	0.60505	-0.675
Mof_O 	O 	0.3424	0.27105	0.53011	-0.237
Mof_O 	O 	0.4547	0.19228	0.41202	-0.64
Mof_O 	O 	0.5377	0.16634	0.44197	-0.558
Mof_C 	C 	0.1673	0.85635	0.58458	0.523
Mof_C 	C 	0.0799	0.8395	0.57946	-0.213
Mof_C 	C 	0.0048	0.84419	0.59597	0.17
Mof_H 	H 	0.0088	0.8582	0.6097	-0.049
Mof_C 	C 	0.9242	0.82823	0.59216	-0.227
Mof_C 	C 	0.918	0.80774	0.57131	0.021
Mof_H 	H 	0.8634	0.7972	0.5686	0.038
Mof_C 	C 	0.9924	0.8029	0.55455	0.046
Mof_C 	C 	0.0735	0.81884	0.55842	0.011
Mof_H 	H 	0.1234	0.8159	0.5471	0.035
Mof_C 	C 	0.8468	0.83332	0.61064	0.582
Mof_C 	C 	0.9219	0.76776	0.52291	0.207
Mof_C 	C 	0.9403	0.74699	0.49955	0.018
Mof_C 	C 	0.8739	0.74336	0.48006	-0.12
Mof_H 	H 	0.8183	0.7538	0.4813	0.094
Mof_C 	C 	0.8896	0.72412	0.4585	0.093
Mof_H 	H 	0.8449	0.7217	0.4454	-0.009
Mof_C 	C 	0.9727	0.70864	0.45681	-0.205
Mof_C 	C 	0.0396	0.71196	0.47662	0.091
Mof_H 	H 	0.0946	0.7012	0.4756	-0.001
Mof_C 	C 	0.0239	0.73128	0.49767	-0.125
Mof_H 	H 	0.0689	0.7339	0.5106	0.066
Mof_C 	C 	0.9884	0.68711	0.43394	0.564
Mof_N 	N 	0.9938	0.78202	0.53252	-0.228
Mof_H 	H 	0.0462	0.7787	0.5251	0.124
Mof_O 	O 	0.2357	0.85093	0.56955	-0.56
Mof_O 	O 	0.1778	0.87728	0.60034	-0.622
Mof_O 	O 	0.8814	0.83651	0.63254	-0.563
Mof_O 	O 	0.7642	0.83425	0.60505	-0.675
Mof_O 	O 	0.8424	0.77105	0.53011	-0.237
Mof_O 	O 	0.9547	0.69228	0.41202	-0.64
Mof_O 	O 	0.0377	0.66634	0.44197	-0.558
Mof_C 	C 	0.1673	0.35635	0.08458	0.523
Mof_C 	C 	0.0799	0.3395	0.07946	-0.213
Mof_C 	C 	0.0048	0.34419	0.09597	0.17
Mof_H 	H 	0.0088	0.3582	0.1097	-0.049
Mof_C 	C 	0.9242	0.32823	0.09216	-0.227
Mof_C 	C 	0.918	0.30774	0.07131	0.021
Mof_H 	H 	0.8634	0.2972	0.0686	0.038
Mof_C 	C 	0.9924	0.3029	0.05455	0.046
Mof_C 	C 	0.0735	0.31884	0.05842	0.011
Mof_H 	H 	0.1234	0.3159	0.0471	0.035
Mof_C 	C 	0.8468	0.33332	0.11064	0.582
Mof_C 	C 	0.9219	0.26776	0.02291	0.207
Mof_C 	C 	0.9403	0.24699	0.99955	0.018
Mof_C 	C 	0.8739	0.24336	0.98006	-0.12
Mof_H 	H 	0.8183	0.2538	0.9813	0.094
Mof_C 	C 	0.8896	0.22412	0.9585	0.093
Mof_H 	H 	0.8449	0.2217	0.9454	-0.009
Mof_C 	C 	0.9727	0.20864	0.95681	-0.205
Mof_C 	C 	0.0396	0.21196	0.97662	0.091
Mof_H 	H 	0.0946	0.2012	0.9756	-0.001
Mof_C 	C 	0.0239	0.23128	0.99767	-0.125
Mof_H 	H 	0.0689	0.2339	0.0106	0.066
Mof_C 	C 	0.9884	0.18711	0.93394	0.563
Mof_N 	N 	0.9938	0.28202	0.03252	-0.228
Mof_H 	H 	0.0462	0.2787	0.0251	0.124
Mof_O 	O 	0.2357	0.35093	0.06955	-0.56
Mof_O 	O 	0.1778	0.37728	0.10034	-0.622
Mof_O 	O 	0.8814	0.33651	0.13254	-0.563
Mof_O 	O 	0.7642	0.33425	0.10505	-0.675
Mof_O 	O 	0.8424	0.27105	0.03011	-0.237
Mof_O 	O 	0.9547	0.19228	0.91202	-0.64
Mof_O 	O 	0.0377	0.16634	0.94197	-0.558
Mof_C 	C 	0.6673	0.39365	0.16542	0.524
Mof_C 	C 	0.5799	0.4105	0.17054	-0.213
Mof_C 	C 	0.5048	0.40581	0.15403	0.17
Mof_H 	H 	0.5088	0.3918	0.1403	-0.049
Mof_C 	C 	0.4242	0.42177	0.15784	-0.227
Mof_C 	C 	0.418	0.44226	0.17869	0.022
Mof_H 	H 	0.3634	0.4528	0.1814	0.038
Mof_C 	C 	0.4924	0.4471	0.19545	0.046
Mof_C 	C 	0.5735	0.43116	0.19158	0.011
Mof_H 	H 	0.6234	0.4341	0.2029	0.035
Mof_C 	C 	0.3468	0.41668	0.13936	0.582
Mof_C 	C 	0.4219	0.48224	0.22709	0.207
Mof_C 	C 	0.4403	0.50301	0.25045	0.018
Mof_C 	C 	0.3739	0.50664	0.26994	-0.12
Mof_H 	H 	0.3183	0.4962	0.2687	0.094
Mof_C 	C 	0.3896	0.52588	0.2915	0.093
Mof_H 	H 	0.3449	0.5283	0.3046	-0.009
Mof_C 	C 	0.4727	0.54136	0.29319	-0.205
Mof_C 	C 	0.5396	0.53804	0.27338	0.091
Mof_H 	H 	0.5946	0.5488	0.2744	-0.001
Mof_C 	C 	0.5239	0.51872	0.25233	-0.125
Mof_H 	H 	0.5689	0.5161	0.2394	0.066
Mof_C 	C 	0.4884	0.56289	0.31606	0.564
Mof_N 	N 	0.4938	0.46798	0.21748	-0.228
Mof_H 	H 	0.5462	0.4713	0.2249	0.124
Mof_O 	O 	0.7357	0.39907	0.18045	-0.56
Mof_O 	O 	0.6778	0.37272	0.14966	-0.622
Mof_O 	O 	0.3814	0.41349	0.11746	-0.563
Mof_O 	O 	0.2642	0.41575	0.14495	-0.675
Mof_O 	O 	0.3424	0.47895	0.21989	-0.237
Mof_O 	O 	0.4547	0.55772	0.33798	-0.64
Mof_O 	O 	0.5377	0.58366	0.30803	-0.558
Mof_C 	C 	0.6673	0.89365	0.66542	0.524
Mof_C 	C 	0.5799	0.9105	0.67054	-0.213
Mof_C 	C 	0.5048	0.90581	0.65403	0.17
Mof_H 	H 	0.5088	0.8918	0.6403	-0.049
Mof_C 	C 	0.4242	0.92177	0.65784	-0.227
Mof_C 	C 	0.418	0.94226	0.67869	0.022
Mof_H 	H 	0.3634	0.9528	0.6814	0.038
Mof_C 	C 	0.4924	0.9471	0.69545	0.046
Mof_C 	C 	0.5735	0.93116	0.69158	0.011
Mof_H 	H 	0.6234	0.9341	0.7029	0.035
Mof_C 	C 	0.3468	0.91668	0.63936	0.582
Mof_C 	C 	0.4219	0.98224	0.72709	0.207
Mof_C 	C 	0.4403	0.00301	0.75045	0.018
Mof_C 	C 	0.3739	0.00664	0.76994	-0.12
Mof_H 	H 	0.3183	0.9962	0.7687	0.094
Mof_C 	C 	0.3896	0.02588	0.7915	0.093
Mof_H 	H 	0.3449	0.0283	0.8046	-0.009
Mof_C 	C 	0.4727	0.04136	0.79319	-0.205
Mof_C 	C 	0.5396	0.03804	0.77338	0.091
Mof_H 	H 	0.5946	0.0488	0.7744	-0.001
Mof_C 	C 	0.5239	0.01872	0.75233	-0.125
Mof_H 	H 	0.5689	0.0161	0.7394	0.066
Mof_C 	C 	0.4884	0.06289	0.81606	0.564
Mof_N 	N 	0.4938	0.96798	0.71748	-0.228
Mof_H 	H 	0.5462	0.9713	0.7249	0.124
Mof_O 	O 	0.7357	0.89907	0.68045	-0.56
Mof_O 	O 	0.6778	0.87272	0.64966	-0.622
Mof_O 	O 	0.3814	0.91349	0.61746	-0.563
Mof_O 	O 	0.2642	0.91575	0.64495	-0.675
Mof_O 	O 	0.3424	0.97895	0.71989	-0.237
Mof_O 	O 	0.4547	0.05772	0.83798	-0.64
Mof_O 	O 	0.5377	0.08366	0.80803	-0.558
Mof_C 	C 	0.1673	0.39365	0.66542	0.524
Mof_C 	C 	0.0799	0.4105	0.67054	-0.213
Mof_C 	C 	0.0048	0.40581	0.65403	0.17
Mof_H 	H 	0.0088	0.3918	0.6403	-0.049
Mof_C 	C 	0.9242	0.42177	0.65784	-0.227
Mof_C 	C 	0.918	0.44226	0.67869	0.022
Mof_H 	H 	0.8634	0.4528	0.6814	0.038
Mof_C 	C 	0.9924	0.4471	0.69545	0.046
Mof_C 	C 	0.0735	0.43116	0.69158	0.011
Mof_H 	H 	0.1234	0.4341	0.7029	0.035
Mof_C 	C 	0.8468	0.41668	0.63936	0.582
Mof_C 	C 	0.9219	0.48224	0.72709	0.207
Mof_C 	C 	0.9403	0.50301	0.75045	0.018
Mof_C 	C 	0.8739	0.50664	0.76994	-0.12
Mof_H 	H 	0.8183	0.4962	0.7687	0.094
Mof_C 	C 	0.8896	0.52588	0.7915	0.093
Mof_H 	H 	0.8449	0.5283	0.8046	-0.009
Mof_C 	C 	0.9727	0.54136	0.79319	-0.205
Mof_C 	C 	0.0396	0.53804	0.77338	0.091
Mof_H 	H 	0.0946	0.5488	0.7744	-0.001
Mof_C 	C 	0.0239	0.51872	0.75233	-0.125
Mof_H 	H 	0.0689	0.5161	0.7394	0.066
Mof_C 	C 	0.9884	0.56289	0.81606	0.563
Mof_N 	N 	0.9938	0.46798	0.71748	-0.228
Mof_H 	H 	0.0462	0.4713	0.7249	0.124
Mof_O 	O 	0.2357	0.39907	0.68045	-0.56
Mof_O 	O 	0.1778	0.37272	0.64966	-0.622
Mof_O 	O 	0.8814	0.41349	0.61746	-0.563
Mof_O 	O 	0.7642	0.41575	0.64495	-0.675
Mof_O 	O 	0.8424	0.47895	0.71989	-0.237
Mof_O 	O 	0.9547	0.55772	0.83798	-0.64
Mof_O 	O 	0.0377	0.58366	0.80803	-0.558
Mof_C 	C 	0.1673	0.89365	0.16542	0.523
Mof_C 	C 	0.0799	0.9105	0.17054	-0.213
Mof_C 	C 	0.0048	0.90581	0.15403	0.17
Mof_H 	H 	0.0088	0.8918	0.1403	-0.049
Mof_C 	C 	0.9242	0.92177	0.15784	-0.227
Mof_C 	C 	0.918	0.94226	0.17869	0.021
Mof_H 	H 	0.8634	0.9528	0.1814	0.038
Mof_C 	C 	0.9924	0.9471	0.19545	0.046
Mof_C 	C 	0.0735	0.93116	0.19158	0.011
Mof_H 	H 	0.1234	0.9341	0.2029	0.035
Mof_C 	C 	0.8468	0.91668	0.13936	0.582
Mof_C 	C 	0.9219	0.98224	0.22709	0.207
Mof_C 	C 	0.9403	0.00301	0.25045	0.018
Mof_C 	C 	0.8739	0.00664	0.26994	-0.12
Mof_H 	H 	0.8183	0.9962	0.2687	0.094
Mof_C 	C 	0.8896	0.02588	0.2915	0.093
Mof_H 	H 	0.8449	0.0283	0.3046	-0.009
Mof_C 	C 	0.9727	0.04136	0.29319	-0.205
Mof_C 	C 	0.0396	0.03804	0.27338	0.091
Mof_H 	H 	0.0946	0.0488	0.2744	-0.001
Mof_C 	C 	0.0239	0.01872	0.25233	-0.125
Mof_H 	H 	0.0689	0.0161	0.2394	0.066
Mof_C 	C 	0.9884	0.06289	0.31606	0.563
Mof_N 	N 	0.9938	0.96798	0.21748	-0.228
Mof_H 	H 	0.0462	0.9713	0.2249	0.124
Mof_O 	O 	0.2357	0.89907	0.18045	-0.56
Mof_O 	O 	0.1778	0.87272	0.14966	-0.622
Mof_O 	O 	0.8814	0.91349	0.11746	-0.563
Mof_O 	O 	0.7642	0.91575	0.14495	-0.675
Mof_O 	O 	0.8424	0.97895	0.21989	-0.237
Mof_O 	O 	0.9547	0.05772	0.33798	-0.64
Mof_O 	O 	0.0377	0.08366	0.30803	-0.558
Mof_C 	C 	0.5827	0.85635	0.16542	0.524
Mof_C 	C 	0.6701	0.8395	0.17054	-0.213
Mof_C 	C 	0.7452	0.84419	0.15403	0.17
Mof_H 	H 	0.7412	0.8582	0.1403	-0.049
Mof_C 	C 	0.8258	0.82823	0.15784	-0.227
Mof_C 	C 	0.832	0.80774	0.17869	0.022
Mof_H 	H 	0.8866	0.7972	0.1814	0.038
Mof_C 	C 	0.7576	0.8029	0.19545	0.046
Mof_C 	C 	0.6765	0.81884	0.19158	0.011
Mof_H 	H 	0.6266	0.8159	0.2029	0.035
Mof_C 	C 	0.9032	0.83332	0.13936	0.582
Mof_C 	C 	0.8281	0.76776	0.22709	0.207
Mof_C 	C 	0.8097	0.74699	0.25045	0.018
Mof_C 	C 	0.8761	0.74336	0.26994	-0.12
Mof_H 	H 	0.9317	0.7538	0.2687	0.094
Mof_C 	C 	0.8604	0.72412	0.2915	0.093
Mof_H 	H 	0.9051	0.7217	0.3046	-0.009
Mof_C 	C 	0.7773	0.70864	0.29319	-0.205
Mof_C 	C 	0.7104	0.71196	0.27338	0.091
Mof_H 	H 	0.6554	0.7012	0.2744	-0.001
Mof_C 	C 	0.7261	0.73128	0.25233	-0.125
Mof_H 	H 	0.6811	0.7339	0.2394	0.066
Mof_C 	C 	0.7616	0.68711	0.31606	0.564
Mof_N 	N 	0.7562	0.78202	0.21748	-0.228
Mof_H 	H 	0.7038	0.7787	0.2249	0.124
Mof_O 	O 	0.5143	0.85093	0.18045	-0.56
Mof_O 	O 	0.5722	0.87728	0.14966	-0.622
Mof_O 	O 	0.8686	0.83651	0.11746	-0.563
Mof_O 	O 	0.9858	0.83425	0.14495	-0.675
Mof_O 	O 	0.9076	0.77105	0.21989	-0.238
Mof_O 	O 	0.7953	0.69228	0.33798	-0.64
Mof_O 	O 	0.7123	0.66634	0.30803	-0.558
Mof_C 	C 	0.5827	0.35635	0.66542	0.524
Mof_C 	C 	0.6701	0.3395	0.67054	-0.213
Mof_C 	C 	0.7452	0.34419	0.65403	0.17
Mof_H 	H 	0.7412	0.3582	0.6403	-0.049
Mof_C 	C 	0.8258	0.32823	0.65784	-0.227
Mof_C 	C 	0.832	0.30774	0.67869	0.022
Mof_H 	H 	0.8866	0.2972	0.6814	0.038
Mof_C 	C 	0.7576	0.3029	0.69545	0.046
Mof_C 	C 	0.6765	0.31884	0.69158	0.011
Mof_H 	H 	0.6266	0.3159	0.7029	0.035
Mof_C 	C 	0.9032	0.33332	0.63936	0.582
Mof_C 	C 	0.8281	0.26776	0.72709	0.207
Mof_C 	C 	0.8097	0.24699	0.75045	0.018
Mof_C 	C 	0.8761	0.24336	0.76994	-0.12
Mof_H 	H 	0.9317	0.2538	0.7687	0.094
Mof_C 	C 	0.8604	0.22412	0.7915	0.093
Mof_H 	H 	0.9051	0.2217	0.8046	-0.009
Mof_C 	C 	0.7773	0.20864	0.79319	-0.205
Mof_C 	C 	0.7104	0.21196	0.77338	0.091
Mof_H 	H 	0.6554	0.2012	0.7744	-0.001
Mof_C 	C 	0.7261	0.23128	0.75233	-0.125
Mof_H 	H 	0.6811	0.2339	0.7394	0.066
Mof_C 	C 	0.7616	0.18711	0.81606	0.564
Mof_N 	N 	0.7562	0.28202	0.71748	-0.228
Mof_H 	H 	0.7038	0.2787	0.7249	0.124
Mof_O 	O 	0.5143	0.35093	0.68045	-0.56
Mof_O 	O 	0.5722	0.37728	0.64966	-0.622
Mof_O 	O 	0.8686	0.33651	0.61746	-0.563
Mof_O 	O 	0.9858	0.33425	0.64495	-0.676
Mof_O 	O 	0.9076	0.27105	0.71989	-0.238
Mof_O 	O 	0.7953	0.19228	0.83798	-0.64
Mof_O 	O 	0.7123	0.16634	0.80803	-0.558
Mof_C 	C 	0.0827	0.85635	0.66542	0.524
Mof_C 	C 	0.1701	0.8395	0.67054	-0.213
Mof_C 	C 	0.2452	0.84419	0.65403	0.17
Mof_H 	H 	0.2412	0.8582	0.6403	-0.049
Mof_C 	C 	0.3258	0.82823	0.65784	-0.227
Mof_C 	C 	0.332	0.80774	0.67869	0.022
Mof_H 	H 	0.3866	0.7972	0.6814	0.038
Mof_C 	C 	0.2576	0.8029	0.69545	0.046
Mof_C 	C 	0.1765	0.81884	0.69158	0.011
Mof_H 	H 	0.1266	0.8159	0.7029	0.035
Mof_C 	C 	0.4032	0.83332	0.63936	0.582
Mof_C 	C 	0.3281	0.76776	0.72709	0.207
Mof_C 	C 	0.3097	0.74699	0.75045	0.018
Mof_C 	C 	0.3761	0.74336	0.76994	-0.12
Mof_H 	H 	0.4317	0.7538	0.7687	0.094
Mof_C 	C 	0.3604	0.72412	0.7915	0.093
Mof_H 	H 	0.4051	0.7217	0.8046	-0.009
Mof_C 	C 	0.2773	0.70864	0.79319	-0.205
Mof_C 	C 	0.2104	0.71196	0.77338	0.091
Mof_H 	H 	0.1554	0.7012	0.7744	-0.001
Mof_C 	C 	0.2261	0.73128	0.75233	-0.125
Mof_H 	H 	0.1811	0.7339	0.7394	0.066
Mof_C 	C 	0.2616	0.68711	0.81606	0.564
Mof_N 	N 	0.2562	0.78202	0.71748	-0.228
Mof_H 	H 	0.2038	0.7787	0.7249	0.124
Mof_O 	O 	0.0143	0.85093	0.68045	-0.56
Mof_O 	O 	0.0722	0.87728	0.64966	-0.622
Mof_O 	O 	0.3686	0.83651	0.61746	-0.563
Mof_O 	O 	0.4858	0.83425	0.64495	-0.675
Mof_O 	O 	0.4076	0.77105	0.71989	-0.237
Mof_O 	O 	0.2953	0.69228	0.83798	-0.64
Mof_O 	O 	0.2123	0.66634	0.80803	-0.558
Mof_C 	C 	0.0827	0.35635	0.16542	0.524
Mof_C 	C 	0.1701	0.3395	0.17054	-0.213
Mof_C 	C 	0.2452	0.34419	0.15403	0.17
Mof_H 	H 	0.2412	0.3582	0.1403	-0.049
Mof_C 	C 	0.3258	0.32823	0.15784	-0.227
Mof_C 	C 	0.332	0.30774	0.17869	0.022
Mof_H 	H 	0.3866	0.2972	0.1814	0.038
Mof_C 	C 	0.2576	0.3029	0.19545	0.046
Mof_C 	C 	0.1765	0.31884	0.19158	0.011
Mof_H 	H 	0.1266	0.3159	0.2029	0.035
Mof_C 	C 	0.4032	0.33332	0.13936	0.582
Mof_C 	C 	0.3281	0.26776	0.22709	0.207
Mof_C 	C 	0.3097	0.24699	0.25045	0.018
Mof_C 	C 	0.3761	0.24336	0.26994	-0.12
Mof_H 	H 	0.4317	0.2538	0.2687	0.094
Mof_C 	C 	0.3604	0.22412	0.2915	0.093
Mof_H 	H 	0.4051	0.2217	0.3046	-0.009
Mof_C 	C 	0.2773	0.20864	0.29319	-0.205
Mof_C 	C 	0.2104	0.21196	0.27338	0.091
Mof_H 	H 	0.1554	0.2012	0.2744	-0.001
Mof_C 	C 	0.2261	0.23128	0.25233	-0.125
Mof_H 	H 	0.1811	0.2339	0.2394	0.066
Mof_C 	C 	0.2616	0.18711	0.31606	0.564
Mof_N 	N 	0.2562	0.28202	0.21748	-0.228
Mof_H 	H 	0.2038	0.2787	0.2249	0.124
Mof_O 	O 	0.0143	0.35093	0.18045	-0.56
Mof_O 	O 	0.0722	0.37728	0.14966	-0.622
Mof_O 	O 	0.3686	0.33651	0.11746	-0.563
Mof_O 	O 	0.4858	0.33425	0.14495	-0.675
Mof_O 	O 	0.4076	0.27105	0.21989	-0.237
Mof_O 	O 	0.2953	0.19228	0.33798	-0.64
Mof_O 	O 	0.2123	0.16634	0.30803	-0.558
Mof_Eu	Eu	0.625	0.625	0.91974	2.248
Mof_Eu	Eu	0.625	0.125	0.41974	2.248
Mof_Eu	Eu	0.125	0.125	0.91974	2.248
Mof_Eu	Eu	0.125	0.625	0.41974	2.248
Mof_Eu	Eu	0.125	0.625	0.83026	2.248
Mof_Eu	Eu	0.125	0.125	0.33026	2.248
Mof_Eu	Eu	0.625	0.625	0.33026	2.248
Mof_Eu	Eu	0.625	0.125	0.83026	2.248
Mof_Eu	Eu	0.375	0.375	0.08026	2.248
Mof_Eu	Eu	0.375	0.875	0.58026	2.248
Mof_Eu	Eu	0.875	0.875	0.08026	2.248
Mof_Eu	Eu	0.875	0.375	0.58026	2.248
Mof_Eu	Eu	0.875	0.375	0.16974	2.248
Mof_Eu	Eu	0.875	0.875	0.66974	2.248
Mof_Eu	Eu	0.375	0.875	0.16974	2.248
Mof_Eu	Eu	0.375	0.375	0.66974	2.248
Mof_Eu	Eu	0.375	0.67126	0.875	2.449
Mof_Eu	Eu	0.375	0.17126	0.375	2.449
Mof_Eu	Eu	0.875	0.67126	0.375	2.449
Mof_Eu	Eu	0.875	0.17126	0.875	2.449
Mof_Eu	Eu	0.375	0.07874	0.875	2.449
Mof_Eu	Eu	0.375	0.57874	0.375	2.449
Mof_Eu	Eu	0.875	0.07874	0.375	2.449
Mof_Eu	Eu	0.875	0.57874	0.875	2.449
Mof_Eu	Eu	0.625	0.32874	0.125	2.449
Mof_Eu	Eu	0.625	0.82874	0.625	2.449
Mof_Eu	Eu	0.125	0.32874	0.625	2.449
Mof_Eu	Eu	0.125	0.82874	0.125	2.449
Mof_Eu	Eu	0.625	0.92126	0.125	2.449
Mof_Eu	Eu	0.625	0.42126	0.625	2.449
Mof_Eu	Eu	0.125	0.92126	0.625	2.449
Mof_Eu	Eu	0.125	0.42126	0.125	2.449
_end
