# CIF file generated by openbabel 3.1.0, see https://openbabel.org
data_I
_chemical_name_common 'image0'
_cell_length_a 8.7796
_cell_length_b 14.857
_cell_length_c 21.621
_cell_angle_alpha 72.212
_cell_angle_beta 81.686
_cell_angle_gamma 83.572
_space_group_name_H-M_alt 'P 1'
_space_group_name_Hall 'P 1'
loop_
    _symmetry_equiv_pos_as_xyz
    x,y,z
loop_
    _atom_site_label
    _atom_site_type_symbol
    _atom_site_fract_x
    _atom_site_fract_y
    _atom_site_fract_z
    _atom_site_occupancy
    C1       C        0.96190    0.80040    0.60320    1.000
    H1       H        0.99690    0.82200    0.63440    1.000
    C2       C        0.88440    0.79570    0.51520    1.000
    H2       H        0.85490    0.81360    0.47320    1.000
    C3       C        0.88780    0.70670    0.55660    1.000
    H3       H        0.86150    0.65290    0.54830    1.000
    C4       C        0.95740    0.63030    0.67150    1.000
    H4       H        0.00290    0.65190    0.70230    1.000
    H5       H        0.02830    0.58160    0.65980    1.000
    C5       C        0.80610    0.58820    0.70400    1.000
    C6       C        0.76860    0.50290    0.69990    1.000
    H6       H        0.83950    0.46880    0.67780    1.000
    C7       C        0.69850    0.63720    0.73720    1.000
    H7       H        0.72140    0.69530    0.74000    1.000
    C8       C        0.62710    0.46640    0.72810    1.000
    H8       H        0.60500    0.40820    0.72500    1.000
    C9       C        0.55830    0.60270    0.76600    1.000
    H9       H        0.48970    0.63670    0.78900    1.000
    C10      C        0.51790    0.51700    0.76120    1.000
    C11      C        0.36330    0.48080    0.78980    1.000
    C12      C        0.33790    0.38520    0.80850    1.000
    H10      H        0.42050    0.34180    0.80380    1.000
    C13      C        0.23490    0.54300    0.79830    1.000
    H11      H        0.24710    0.60770    0.78650    1.000
    C14      C        0.19340    0.35200    0.83380    1.000
    H12      H        0.18080    0.28740    0.84550    1.000
    C15      C        0.09270    0.51100    0.82340    1.000
    H13      H        0.01040    0.55440    0.82840    1.000
    C16      C        0.06750    0.41460    0.84190    1.000
    C17      C        0.90650    0.38510    0.86900    1.000
    H14      H        0.87600    0.40270    0.90900    1.000
    H15      H        0.83570    0.41950    0.83790    1.000
    C18      C        0.93810    0.21460    0.93480    1.000
    H16      H        0.97640    0.22620    0.96930    1.000
    C19      C        0.84280    0.23790    0.84370    1.000
    H17      H        0.80440    0.26690    0.80390    1.000
    C20      C        0.86020    0.14410    0.87380    1.000
    H18      H        0.83420    0.09660    0.85820    1.000
    C21      C        0.96470    0.06030    0.62810    1.000
    H19      H        0.86430    0.08580    0.62220    1.000
    C22      C        0.18480    0.98390    0.61890    1.000
    H20      H        0.26590    0.94630    0.60480    1.000
    C23      C        0.18470    0.02260    0.66650    1.000
    H21      H        0.26540    0.01700    0.69120    1.000
    C24      C        0.00370    0.13630    0.71350    1.000
    H22      H        0.04480    0.10890    0.75510    1.000
    H23      H        0.89220    0.14430    0.72220    1.000
    C25      C        0.06700    0.23090    0.67960    1.000
    C26      C        0.00470    0.29420    0.62560    1.000
    H24      H        0.91740    0.27900    0.61220    1.000
    C27      C        0.19770    0.25660    0.69800    1.000
    H25      H        0.24280    0.21540    0.73350    1.000
    C28      C        0.06730    0.37700    0.59210    1.000
    H26      H        0.02220    0.41690    0.55620    1.000
    C29      C        0.26140    0.34030    0.66560    1.000
    H27      H        0.34690    0.35520    0.68030    1.000
    C30      C        0.20170    0.40490    0.61040    1.000
    C31      C        0.27380    0.49290    0.57380    1.000
    C32      C        0.28190    0.52690    0.50520    1.000
    H28      H        0.23810    0.49410    0.48270    1.000
    C33      C        0.34220    0.54430    0.60600    1.000
    H29      H        0.33820    0.52350    0.65130    1.000
    C34      C        0.35340    0.60770    0.47120    1.000
    H30      H        0.35630    0.62940    0.42590    1.000
    C35      C        0.41440    0.62410    0.57160    1.000
    H31      H        0.45950    0.65680    0.59380    1.000
    C36      C        0.42200    0.65800    0.50330    1.000
    C37      C        0.50520    0.74580    0.46510    1.000
    H32      H        0.60170    0.74310    0.48280    1.000
    H33      H        0.53000    0.74560    0.42000    1.000
    C38      C        0.27260    0.84900    0.49230    1.000
    H34      H        0.20940    0.80040    0.51500    1.000
    C39      C        0.46530    0.91790    0.43690    1.000
    H35      H        0.56160    0.93030    0.41300    1.000
    C40      C        0.34730    0.98640    0.44690    1.000
    H36      H        0.35160    0.05180    0.43170    1.000
    C41      C        0.69960    0.92140    0.97770    1.000
    H37      H        0.73140    0.93290    0.93320    1.000
    C42      C        0.69440    0.91010    0.07860    1.000
    H38      H        0.72350    0.91290    0.11760    1.000
    C43      C        0.56400    0.87620    0.07250    1.000
    H39      H        0.48680    0.85240    0.10610    1.000
    C44      C        0.45040    0.85260    0.97710    1.000
    H40      H        0.46040    0.88640    0.93070    1.000
    H41      H        0.34820    0.86980    0.99580    1.000
    C45      C        0.46420    0.74690    0.98540    1.000
    C46      C        0.41000    0.71510    0.94110    1.000
    H42      H        0.36250    0.75730    0.90670    1.000
    C47      C        0.50450    0.68020    0.03950    1.000
    H43      H        0.52520    0.69940    0.07440    1.000
    C48      C        0.42500    0.61800    0.94740    1.000
    H44      H        0.38750    0.59750    0.91640    1.000
    C49      C        0.51660    0.58460    0.04550    1.000
    H45      H        0.54230    0.54170    0.08460    1.000
    C50      C        0.49250    0.55150    0.99700    1.000
    N1       N        0.93190    0.85580    0.54510    1.000
    N2       N        0.93640    0.71020    0.61250    1.000
    N3       N        0.92260    0.12970    0.93120    1.000
    N4       N        0.89250    0.28220    0.88320    1.000
    N5       N        0.04400    0.00830    0.59350    1.000
    N6       N        0.04500    0.07250    0.67290    1.000
    N7       N        0.22900    0.93940    0.48220    1.000
    N8       N        0.41610    0.83460    0.46680    1.000
    N9       N        0.77930    0.94040    0.01770    1.000
    N10      N        0.56550    0.88330    0.00760    1.000
    C51      C        0.03810    0.19960    0.39680    1.000
    H46      H        0.00310    0.17800    0.36560    1.000
    C52      C        0.11560    0.20430    0.48480    1.000
    H47      H        0.14510    0.18640    0.52680    1.000
    C53      C        0.11220    0.29330    0.44340    1.000
    H48      H        0.13850    0.34710    0.45170    1.000
    C54      C        0.04260    0.36970    0.32850    1.000
    H49      H        0.99710    0.34810    0.29770    1.000
    H50      H        0.97170    0.41840    0.34020    1.000
    C55      C        0.19390    0.41180    0.29600    1.000
    C56      C        0.23140    0.49710    0.30010    1.000
    H51      H        0.16050    0.53120    0.32220    1.000
    C57      C        0.30150    0.36280    0.26280    1.000
    H52      H        0.27860    0.30470    0.26000    1.000
    C58      C        0.37290    0.53360    0.27190    1.000
    H53      H        0.39500    0.59180    0.27500    1.000
    C59      C        0.44170    0.39730    0.23400    1.000
    H54      H        0.51030    0.36330    0.21100    1.000
    C60      C        0.48210    0.48300    0.23880    1.000
    C61      C        0.63670    0.51920    0.21020    1.000
    C62      C        0.66210    0.61480    0.19150    1.000
    H55      H        0.57950    0.65820    0.19620    1.000
    C63      C        0.76510    0.45700    0.20170    1.000
    H56      H        0.75290    0.39230    0.21350    1.000
    C64      C        0.80660    0.64800    0.16620    1.000
    H57      H        0.81920    0.71260    0.15450    1.000
    C65      C        0.90730    0.48900    0.17660    1.000
    H58      H        0.98960    0.44560    0.17160    1.000
    C66      C        0.93250    0.58540    0.15810    1.000
    C67      C        0.09350    0.61490    0.13100    1.000
    H59      H        0.12400    0.59730    0.09100    1.000
    H60      H        0.16430    0.58050    0.16210    1.000
    C68      C        0.06190    0.78540    0.06520    1.000
    H61      H        0.02360    0.77380    0.03070    1.000
    C69      C        0.15720    0.76210    0.15630    1.000
    H62      H        0.19560    0.73310    0.19610    1.000
    C70      C        0.13980    0.85590    0.12620    1.000
    H63      H        0.16580    0.90340    0.14180    1.000
    C71      C        0.03530    0.93970    0.37190    1.000
    H64      H        0.13570    0.91420    0.37780    1.000
    C72      C        0.81520    0.01610    0.38110    1.000
    H65      H        0.73410    0.05370    0.39520    1.000
    C73      C        0.81530    0.97740    0.33350    1.000
    H66      H        0.73460    0.98300    0.30880    1.000
    C74      C        0.99630    0.86370    0.28650    1.000
    H67      H        0.95520    0.89110    0.24490    1.000
    H68      H        0.10780    0.85570    0.27780    1.000
    C75      C        0.93300    0.76910    0.32040    1.000
    C76      C        0.99530    0.70580    0.37440    1.000
    H69      H        0.08260    0.72100    0.38780    1.000
    C77      C        0.80230    0.74340    0.30200    1.000
    H70      H        0.75720    0.78460    0.26650    1.000
    C78      C        0.93270    0.62300    0.40790    1.000
    H71      H        0.97780    0.58310    0.44380    1.000
    C79      C        0.73860    0.65970    0.33440    1.000
    H72      H        0.65310    0.64480    0.31970    1.000
    C80      C        0.79830    0.59510    0.38960    1.000
    C81      C        0.72620    0.50710    0.42620    1.000
    C82      C        0.71810    0.47310    0.49480    1.000
    H73      H        0.76190    0.50590    0.51730    1.000
    C83      C        0.65780    0.45570    0.39400    1.000
    H74      H        0.66180    0.47650    0.34870    1.000
    C84      C        0.64660    0.39230    0.52880    1.000
    H75      H        0.64370    0.37060    0.57410    1.000
    C85      C        0.58560    0.37590    0.42840    1.000
    H76      H        0.54050    0.34320    0.40620    1.000
    C86      C        0.57800    0.34200    0.49670    1.000
    C87      C        0.49480    0.25420    0.53490    1.000
    H77      H        0.39830    0.25690    0.51720    1.000
    H78      H        0.47000    0.25440    0.58000    1.000
    C88      C        0.72740    0.15100    0.50770    1.000
    H79      H        0.79060    0.19960    0.48500    1.000
    C89      C        0.53470    0.08210    0.56310    1.000
    H80      H        0.43840    0.06970    0.58700    1.000
    C90      C        0.65270    0.01360    0.55310    1.000
    H81      H        0.64840    0.94820    0.56830    1.000
    C91      C        0.30040    0.07860    0.02230    1.000
    H82      H        0.26860    0.06710    0.06680    1.000
    C92      C        0.30560    0.08990    0.92140    1.000
    H83      H        0.27650    0.08710    0.88240    1.000
    C93      C        0.43600    0.12380    0.92750    1.000
    H84      H        0.51320    0.14760    0.89390    1.000
    C94      C        0.54960    0.14740    0.02290    1.000
    H85      H        0.53960    0.11360    0.06930    1.000
    H86      H        0.65180    0.13020    0.00420    1.000
    C95      C        0.53580    0.25310    0.01460    1.000
    C96      C        0.59000    0.28490    0.05890    1.000
    H87      H        0.63750    0.24270    0.09330    1.000
    C97      C        0.49550    0.31980    0.96050    1.000
    H88      H        0.47480    0.30060    0.92560    1.000
    C98      C        0.57500    0.38200    0.05260    1.000
    H89      H        0.61250    0.40250    0.08360    1.000
    C99      C        0.48340    0.41540    0.95450    1.000
    H90      H        0.45770    0.45830    0.91540    1.000
    C100     C        0.50750    0.44850    0.00300    1.000
    N11      N        0.06810    0.14420    0.45490    1.000
    N12      N        0.06360    0.28980    0.38750    1.000
    N13      N        0.07740    0.87030    0.06880    1.000
    N14      N        0.10750    0.71780    0.11680    1.000
    N15      N        0.95600    0.99170    0.40650    1.000
    N16      N        0.95500    0.92750    0.32710    1.000
    N17      N        0.77100    0.06060    0.51780    1.000
    N18      N        0.58390    0.16540    0.53320    1.000
    N19      N        0.22070    0.05960    0.98230    1.000
    N20      N        0.43450    0.11670    0.99240    1.000
    Co1      Co       0.00000    0.00000    0.50000    1.000
    Co2      Co       0.00000    0.00000    0.00000    1.000
