# CIF file generated by openbabel 3.1.0, see https://openbabel.org
data_I
_chemical_name_common 'image0'
_cell_length_a 13.5063
_cell_length_b 15.3586
_cell_length_c 15.8303
_cell_angle_alpha 90
_cell_angle_beta 95.849
_cell_angle_gamma 90
_space_group_name_H-M_alt 'P 1'
_space_group_name_Hall 'P 1'
loop_
    _symmetry_equiv_pos_as_xyz
    x,y,z
loop_
    _atom_site_label
    _atom_site_type_symbol
    _atom_site_fract_x
    _atom_site_fract_y
    _atom_site_fract_z
    _atom_site_occupancy
    O1       O        0.09430    0.75300    0.57350    1.000
    Co1      Co       0.24066    0.90479    0.49645    1.000
    O2       O        0.25040    0.77966    0.54404    1.000
    C1       C        0.22660    0.66960    0.64190    1.000
    Fe1      Fe       0.28448    0.65413    0.25418    1.000
    O3       O        0.42175    0.51710    0.88274    1.000
    C2       C        0.16240    0.61620    0.68170    1.000
    H1       H        0.09280    0.61970    0.66580    1.000
    Fe2      Fe       0.25408    0.68168    0.77095    1.000
    O4       O        0.27223    0.45304    0.88123    1.000
    C3       C        0.19890    0.55710    0.74510    1.000
    H2       H        0.15420    0.51840    0.76860    1.000
    O5       O        0.41723    0.38972    0.02636    1.000
    H3       H        0.43410    0.37370    0.08670    1.000
    H4       H        0.43770    0.34080    0.99130    1.000
    C4       C        0.29870    0.55450    0.77380    1.000
    C5       C        0.36510    0.60530    0.73270    1.000
    H5       H        0.43460    0.60170    0.74900    1.000
    O6       O        0.25870    0.52954    0.04899    1.000
    C6       C        0.32800    0.66220    0.66650    1.000
    H6       H        0.37340    0.69620    0.63840    1.000
    O7       O        0.41060    0.58745    0.05868    1.000
    C7       C        0.33390    0.50330    0.85360    1.000
    O8       O        0.09850    0.83680    0.32220    1.000
    O9       O        0.25740    0.85776    0.37303    1.000
    C8       C        0.18540    0.73980    0.58090    1.000
    C9       C        0.32220    0.58510    0.07310    1.000
    C10      C        0.28630    0.65880    0.12560    1.000
    C11      C        0.35230    0.72150    0.16270    1.000
    H7       H        0.41790    0.72540    0.14620    1.000
    C12      C        0.32120    0.77910    0.22470    1.000
    H8       H        0.36710    0.81990    0.25140    1.000
    C13      C        0.22330    0.77630    0.24720    1.000
    C14      C        0.15590    0.71780    0.20390    1.000
    H9       H        0.08810    0.71840    0.21520    1.000
    C15      C        0.18670    0.65900    0.14480    1.000
    H10      H        0.14040    0.61890    0.11740    1.000
    C16      C        0.19060    0.82830    0.32080    1.000
    C17      C        0.39790    0.61560    0.34100    1.000
    H11      H        0.46130    0.64280    0.34940    1.000
    C18      C        0.31010    0.63530    0.38090    1.000
    H12      H        0.30450    0.67930    0.42230    1.000
    C19      C        0.23670    0.58110    0.35010    1.000
    H13      H        0.17130    0.58050    0.36720    1.000
    C20      C        0.26990    0.52770    0.29100    1.000
    H14      H        0.23100    0.48530    0.25910    1.000
    C21      C        0.36680    0.54420    0.28450    1.000
    H15      H        0.40790    0.51410    0.24890    1.000
    C22      C        0.12510    0.72710    0.82440    1.000
    H16      H        0.05710    0.71150    0.81210    1.000
    C23      C        0.17600    0.79310    0.78320    1.000
    H17      H        0.14800    0.82940    0.73840    1.000
    C24      C        0.27600    0.79530    0.82070    1.000
    H18      H        0.32670    0.83330    0.80530    1.000
    C25      C        0.28700    0.73060    0.88510    1.000
    H19      H        0.34640    0.71780    0.92040    1.000
    C26      C        0.19380    0.68850    0.88740    1.000
    H20      H        0.17980    0.64260    0.92460    1.000
    C27      C        0.20830    0.80060    0.81150    1.000
    C28      C        0.30000    0.82150    0.77980    1.000
    C29      C        0.37710    0.77670    0.82980    1.000
    C30      C        0.33300    0.72810    0.89250    1.000
    C31      C        0.22870    0.74290    0.88120    1.000
    H21      H        0.14460    0.82160    0.78990    1.000
    H22      H        0.30840    0.85890    0.73320    1.000
    H23      H        0.44600    0.77880    0.82270    1.000
    H24      H        0.36720    0.69200    0.93460    1.000
    H25      H        0.18090    0.71850    0.91440    1.000
    O10      O        0.40570    0.25300    0.92650    1.000
    Co2      Co       0.25934    0.40479    0.00355    1.000
    O11      O        0.24960    0.27966    0.95596    1.000
    C32      C        0.27340    0.16960    0.85810    1.000
    Fe3      Fe       0.21552    0.15413    0.24582    1.000
    O12      O        0.07825    0.01710    0.61726    1.000
    C33      C        0.33760    0.11620    0.81830    1.000
    H26      H        0.40720    0.11970    0.83420    1.000
    Fe4      Fe       0.24592    0.18168    0.72905    1.000
    O13      O        0.22777    0.95304    0.61877    1.000
    C34      C        0.30110    0.05710    0.75490    1.000
    H27      H        0.34580    0.01840    0.73140    1.000
    O14      O        0.08277    0.88972    0.47364    1.000
    H28      H        0.06590    0.87370    0.41330    1.000
    H29      H        0.06230    0.84080    0.50870    1.000
    C35      C        0.20130    0.05450    0.72620    1.000
    C36      C        0.13490    0.10530    0.76730    1.000
    H30      H        0.06540    0.10170    0.75100    1.000
    O15      O        0.24130    0.02954    0.45101    1.000
    C37      C        0.17200    0.16220    0.83350    1.000
    H31      H        0.12660    0.19620    0.86160    1.000
    O16      O        0.08940    0.08745    0.44132    1.000
    C38      C        0.16610    0.00330    0.64640    1.000
    O17      O        0.40150    0.33680    0.17780    1.000
    O18      O        0.24260    0.35776    0.12697    1.000
    C39      C        0.31460    0.23980    0.91910    1.000
    C40      C        0.17780    0.08510    0.42690    1.000
    C41      C        0.21370    0.15880    0.37440    1.000
    C42      C        0.14770    0.22150    0.33730    1.000
    H32      H        0.08210    0.22540    0.35380    1.000
    C43      C        0.17880    0.27910    0.27530    1.000
    H33      H        0.13290    0.31990    0.24860    1.000
    C44      C        0.27670    0.27630    0.25280    1.000
    C45      C        0.34410    0.21780    0.29610    1.000
    H34      H        0.41190    0.21840    0.28480    1.000
    C46      C        0.31330    0.15900    0.35520    1.000
    H35      H        0.35960    0.11890    0.38260    1.000
    C47      C        0.30940    0.32830    0.17920    1.000
    C48      C        0.10210    0.11560    0.15900    1.000
    H36      H        0.03870    0.14280    0.15060    1.000
    C49      C        0.18990    0.13530    0.11910    1.000
    H37      H        0.19550    0.17930    0.07770    1.000
    C50      C        0.26330    0.08110    0.14990    1.000
    H38      H        0.32870    0.08050    0.13280    1.000
    C51      C        0.23010    0.02770    0.20900    1.000
    H39      H        0.26900    0.98530    0.24090    1.000
    C52      C        0.13320    0.04420    0.21550    1.000
    H40      H        0.09210    0.01410    0.25110    1.000
    C53      C        0.37490    0.22710    0.67560    1.000
    H41      H        0.44290    0.21150    0.68790    1.000
    C54      C        0.32400    0.29310    0.71680    1.000
    H42      H        0.35200    0.32940    0.76160    1.000
    C55      C        0.22400    0.29530    0.67930    1.000
    H43      H        0.17330    0.33330    0.69470    1.000
    C56      C        0.21300    0.23060    0.61490    1.000
    H44      H        0.15360    0.21780    0.57960    1.000
    C57      C        0.30620    0.18850    0.61260    1.000
    H45      H        0.32020    0.14260    0.57540    1.000
    C58      C        0.29170    0.30060    0.68850    1.000
    C59      C        0.20000    0.32150    0.72020    1.000
    C60      C        0.12290    0.27670    0.67020    1.000
    C61      C        0.16700    0.22810    0.60750    1.000
    C62      C        0.27130    0.24290    0.61880    1.000
    H46      H        0.35540    0.32160    0.71010    1.000
    H47      H        0.19160    0.35890    0.76680    1.000
    H48      H        0.05400    0.27880    0.67730    1.000
    H49      H        0.13280    0.19200    0.56540    1.000
    H50      H        0.31910    0.21850    0.58560    1.000
    O19      O        0.90570    0.24700    0.42650    1.000
    Co3      Co       0.75934    0.09521    0.50355    1.000
    O20      O        0.74960    0.22034    0.45596    1.000
    C63      C        0.77340    0.33040    0.35810    1.000
    Fe5      Fe       0.71552    0.34587    0.74582    1.000
    O21      O        0.57825    0.48290    0.11726    1.000
    C64      C        0.83760    0.38380    0.31830    1.000
    H51      H        0.90720    0.38030    0.33420    1.000
    Fe6      Fe       0.74592    0.31832    0.22905    1.000
    O22      O        0.72777    0.54696    0.11877    1.000
    C65      C        0.80110    0.44290    0.25490    1.000
    H52      H        0.84580    0.48160    0.23140    1.000
    O23      O        0.58277    0.61028    0.97364    1.000
    H53      H        0.56590    0.62630    0.91330    1.000
    H54      H        0.56230    0.65920    0.00870    1.000
    C66      C        0.70130    0.44550    0.22620    1.000
    C67      C        0.63490    0.39470    0.26730    1.000
    H55      H        0.56540    0.39830    0.25100    1.000
    O24      O        0.74130    0.47046    0.95101    1.000
    C68      C        0.67200    0.33780    0.33350    1.000
    H56      H        0.62660    0.30380    0.36160    1.000
    O25      O        0.58940    0.41255    0.94132    1.000
    C69      C        0.66610    0.49670    0.14640    1.000
    O26      O        0.90150    0.16320    0.67780    1.000
    O27      O        0.74260    0.14224    0.62697    1.000
    C70      C        0.81460    0.26020    0.41910    1.000
    C71      C        0.67780    0.41490    0.92690    1.000
    C72      C        0.71370    0.34120    0.87440    1.000
    C73      C        0.64770    0.27850    0.83730    1.000
    H57      H        0.58210    0.27460    0.85380    1.000
    C74      C        0.67880    0.22090    0.77530    1.000
    H58      H        0.63290    0.18010    0.74860    1.000
    C75      C        0.77670    0.22370    0.75280    1.000
    C76      C        0.84410    0.28220    0.79610    1.000
    H59      H        0.91190    0.28160    0.78480    1.000
    C77      C        0.81330    0.34100    0.85520    1.000
    H60      H        0.85960    0.38110    0.88260    1.000
    C78      C        0.80940    0.17170    0.67920    1.000
    C79      C        0.60210    0.38440    0.65900    1.000
    H61      H        0.53870    0.35720    0.65060    1.000
    C80      C        0.68990    0.36470    0.61910    1.000
    H62      H        0.69550    0.32070    0.57770    1.000
    C81      C        0.76330    0.41890    0.64990    1.000
    H63      H        0.82870    0.41950    0.63280    1.000
    C82      C        0.73010    0.47230    0.70900    1.000
    H64      H        0.76900    0.51470    0.74090    1.000
    C83      C        0.63320    0.45580    0.71550    1.000
    H65      H        0.59210    0.48590    0.75110    1.000
    C84      C        0.87490    0.27290    0.17560    1.000
    H66      H        0.94290    0.28850    0.18790    1.000
    C85      C        0.82400    0.20690    0.21680    1.000
    H67      H        0.85200    0.17060    0.26160    1.000
    C86      C        0.72400    0.20470    0.17930    1.000
    H68      H        0.67330    0.16670    0.19470    1.000
    C87      C        0.71300    0.26940    0.11490    1.000
    H69      H        0.65360    0.28220    0.07960    1.000
    C88      C        0.80620    0.31150    0.11260    1.000
    H70      H        0.82020    0.35740    0.07540    1.000
    C89      C        0.79170    0.19940    0.18850    1.000
    C90      C        0.70000    0.17850    0.22020    1.000
    C91      C        0.62290    0.22330    0.17020    1.000
    C92      C        0.66700    0.27190    0.10750    1.000
    C93      C        0.77130    0.25710    0.11880    1.000
    H71      H        0.85540    0.17840    0.21010    1.000
    H72      H        0.69160    0.14110    0.26680    1.000
    H73      H        0.55400    0.22120    0.17730    1.000
    H74      H        0.63280    0.30800    0.06540    1.000
    H75      H        0.81910    0.28150    0.08560    1.000
    O28      O        0.59430    0.74700    0.07350    1.000
    Co4      Co       0.74066    0.59521    0.99645    1.000
    O29      O        0.75040    0.72034    0.04404    1.000
    C94      C        0.72660    0.83040    0.14190    1.000
    Fe7      Fe       0.78448    0.84587    0.75418    1.000
    O30      O        0.92175    0.98290    0.38274    1.000
    C95      C        0.66240    0.88380    0.18170    1.000
    H76      H        0.59280    0.88030    0.16580    1.000
    Fe8      Fe       0.75408    0.81832    0.27095    1.000
    O31      O        0.77223    0.04696    0.38123    1.000
    C96      C        0.69890    0.94290    0.24510    1.000
    H77      H        0.65420    0.98160    0.26860    1.000
    O32      O        0.91723    0.11028    0.52636    1.000
    H78      H        0.93410    0.12630    0.58670    1.000
    H79      H        0.93770    0.15920    0.49130    1.000
    C97      C        0.79870    0.94550    0.27380    1.000
    C98      C        0.86510    0.89470    0.23270    1.000
    H80      H        0.93460    0.89830    0.24900    1.000
    O33      O        0.75870    0.97046    0.54899    1.000
    C99      C        0.82800    0.83780    0.16650    1.000
    H81      H        0.87340    0.80380    0.13840    1.000
    O34      O        0.91060    0.91255    0.55868    1.000
    C100     C        0.83390    0.99670    0.35360    1.000
    O35      O        0.59850    0.66320    0.82220    1.000
    O36      O        0.75740    0.64224    0.87303    1.000
    C101     C        0.68540    0.76020    0.08090    1.000
    C102     C        0.82220    0.91490    0.57310    1.000
    C103     C        0.78630    0.84120    0.62560    1.000
    C104     C        0.85230    0.77850    0.66270    1.000
    H82      H        0.91790    0.77460    0.64620    1.000
    C105     C        0.82120    0.72090    0.72470    1.000
    H83      H        0.86710    0.68010    0.75140    1.000
    C106     C        0.72330    0.72370    0.74720    1.000
    C107     C        0.65590    0.78220    0.70390    1.000
    H84      H        0.58810    0.78160    0.71520    1.000
    C108     C        0.68670    0.84100    0.64480    1.000
    H85      H        0.64040    0.88110    0.61740    1.000
    C109     C        0.69060    0.67170    0.82080    1.000
    C110     C        0.89790    0.88440    0.84100    1.000
    H86      H        0.96130    0.85720    0.84940    1.000
    C111     C        0.81010    0.86470    0.88090    1.000
    H87      H        0.80450    0.82070    0.92230    1.000
    C112     C        0.73670    0.91890    0.85010    1.000
    H88      H        0.67130    0.91950    0.86720    1.000
    C113     C        0.76990    0.97230    0.79100    1.000
    H89      H        0.73100    0.01470    0.75910    1.000
    C114     C        0.86680    0.95580    0.78450    1.000
    H90      H        0.90790    0.98590    0.74890    1.000
    C115     C        0.62510    0.77290    0.32440    1.000
    H91      H        0.55710    0.78850    0.31210    1.000
    C116     C        0.67600    0.70690    0.28320    1.000
    H92      H        0.64800    0.67060    0.23840    1.000
    C117     C        0.77600    0.70470    0.32070    1.000
    H93      H        0.82670    0.66670    0.30530    1.000
    C118     C        0.78700    0.76940    0.38510    1.000
    H94      H        0.84640    0.78220    0.42040    1.000
    C119     C        0.69380    0.81150    0.38740    1.000
    H95      H        0.67980    0.85740    0.42460    1.000
    C120     C        0.70830    0.69940    0.31150    1.000
    C121     C        0.80000    0.67850    0.27980    1.000
    C122     C        0.87710    0.72330    0.32980    1.000
    C123     C        0.83300    0.77190    0.39250    1.000
    C124     C        0.72870    0.75710    0.38120    1.000
    H96      H        0.64460    0.67840    0.28990    1.000
    H97      H        0.80840    0.64110    0.23320    1.000
    H98      H        0.94600    0.72120    0.32270    1.000
    H99      H        0.86720    0.80800    0.43460    1.000
    H100     H        0.68090    0.78150    0.41440    1.000
    Co5      Co       0.50000    0.50000    0.00000    1.000
    Co6      Co       0.00000    0.00000    0.50000    1.000
