data_functionalizedCrystal
_audit_creation_method	'EQeq! by Chris Wilmer'
_symmetry_space_group_name_H-M	'P1'
_symmetry_Int_Tables_number	1
_symmetry_cell_setting	triclinic
loop_
_symmetry_equiv_pos_as_xyz
  x,y,z
_cell_length_a	24.552
_cell_length_b	24.552
_cell_length_c	4.845
_cell_angle_alpha	90
_cell_angle_beta	90
_cell_angle_gamma	90
loop_
_atom_site_label
_atom_site_type_symbol
_atom_site_fract_x
_atom_site_fract_y
_atom_site_fract_z
_atom_site_charge
Mof_N 	N 	0.9682	0.5692	0.4826	-0.191
Mof_C 	C 	0.9624	0.6421	0.1184	-0.009
Mof_C 	C 	0.9147	0.6629	0.0184	-0.028
Mof_C 	C 	0.9137	0.7033	0.8249	-0.071
Mof_C 	C 	0.9612	0.728	0.7247	0.043
Mof_C 	C 	0.0111	0.7078	0.8246	-0.091
Mof_C 	C 	0.0097	0.6643	0.0269	-0.056
Mof_C 	C 	0.9656	0.6023	0.3179	0.081
Mof_H 	H 	0.8819	0.6491	0.0842	0.034
Mof_H 	H 	0.8802	0.7148	0.757	0.05
Mof_H 	H 	0.0441	0.722	0.7626	0.053
Mof_H 	H 	0.0425	0.6511	0.0966	0.041
Mof_N 	N 	0.4682	0.0692	0.9826	-0.2
Mof_C 	C 	0.4624	0.1421	0.6184	-0.052
Mof_C 	C 	0.4147	0.1629	0.5184	-0.006
Mof_C 	C 	0.4137	0.2033	0.3249	-0.091
Mof_C 	C 	0.4612	0.228	0.2247	0.046
Mof_C 	C 	0.5111	0.2078	0.3246	-0.087
Mof_C 	C 	0.5097	0.1643	0.5269	-0.015
Mof_C 	C 	0.4656	0.1023	0.8179	0.087
Mof_H 	H 	0.3819	0.1491	0.5842	0.026
Mof_H 	H 	0.3802	0.2148	0.257	0.055
Mof_H 	H 	0.5441	0.222	0.2626	0.053
Mof_H 	H 	0.5425	0.1511	0.5966	0.031
Mof_N 	N 	0.0318	0.4308	0.4826	-0.208
Mof_C 	C 	0.0376	0.3579	0.1184	-0.08
Mof_C 	C 	0.0853	0.3371	0.0184	-0.002
Mof_C 	C 	0.0863	0.2967	0.8249	-0.081
Mof_C 	C 	0.0388	0.272	0.7247	0.01
Mof_C 	C 	0.9889	0.2922	0.8246	-0.058
Mof_C 	C 	0.9903	0.3357	0.0269	0.014
Mof_C 	C 	0.0344	0.3977	0.3179	0.089
Mof_H 	H 	0.1181	0.3509	0.0842	0.025
Mof_H 	H 	0.1198	0.2852	0.757	0.054
Mof_H 	H 	0.9559	0.278	0.7626	0.048
Mof_H 	H 	0.9575	0.3489	0.0966	0.025
Mof_N 	N 	0.5318	0.9308	0.9826	-0.19
Mof_C 	C 	0.5376	0.8579	0.6184	-0.05
Mof_C 	C 	0.5853	0.8371	0.5184	-0.006
Mof_C 	C 	0.5863	0.7967	0.3249	-0.09
Mof_C 	C 	0.5388	0.772	0.2247	0.045
Mof_C 	C 	0.4889	0.7922	0.3246	-0.086
Mof_C 	C 	0.4903	0.8357	0.5269	-0.015
Mof_C 	C 	0.5344	0.8977	0.8179	0.091
Mof_H 	H 	0.6181	0.8509	0.5842	0.029
Mof_H 	H 	0.6198	0.7852	0.257	0.055
Mof_H 	H 	0.4559	0.778	0.2626	0.053
Mof_H 	H 	0.4575	0.8489	0.5966	0.032
Mof_N 	N 	0.5692	0.0318	0.5174	-0.212
Mof_C 	C 	0.6421	0.0376	0.8816	-0.107
Mof_C 	C 	0.6629	0.0853	0.9816	0.04
Mof_C 	C 	0.7033	0.0863	0.1751	-0.123
Mof_C 	C 	0.728	0.0388	0.2753	0.038
Mof_C 	C 	0.7078	0.9889	0.1754	-0.093
Mof_C 	C 	0.6643	0.9903	0.9731	0.049
Mof_C 	C 	0.6023	0.0344	0.6821	0.1
Mof_H 	H 	0.6491	0.1181	0.9158	0.013
Mof_H 	H 	0.7148	0.1198	0.243	0.067
Mof_H 	H 	0.722	0.9559	0.2374	0.059
Mof_H 	H 	0.6511	0.9575	0.9034	0.015
Mof_N 	N 	0.0692	0.5318	0.0174	-0.202
Mof_C 	C 	0.1421	0.5376	0.3816	-0.039
Mof_C 	C 	0.1629	0.5853	0.4816	-0.024
Mof_C 	C 	0.2033	0.5863	0.6751	-0.066
Mof_C 	C 	0.228	0.5388	0.7753	0.014
Mof_C 	C 	0.2078	0.4889	0.6754	-0.065
Mof_C 	C 	0.1643	0.4903	0.4731	-0.03
Mof_C 	C 	0.1023	0.5344	0.1821	0.08
Mof_H 	H 	0.1491	0.6181	0.4158	0.032
Mof_H 	H 	0.2148	0.6198	0.743	0.049
Mof_H 	H 	0.222	0.4559	0.7374	0.048
Mof_H 	H 	0.1511	0.4575	0.4034	0.035
Mof_N 	N 	0.4308	0.9682	0.5174	-0.195
Mof_C 	C 	0.3579	0.9624	0.8816	-0.036
Mof_C 	C 	0.3371	0.9147	0.9816	0.012
Mof_C 	C 	0.2967	0.9137	0.1751	-0.111
Mof_C 	C 	0.272	0.9612	0.2753	0.069
Mof_C 	C 	0.2922	0.0111	0.1754	-0.124
Mof_C 	C 	0.3357	0.0097	0.9731	-0.022
Mof_C 	C 	0.3977	0.9656	0.6821	0.092
Mof_H 	H 	0.3509	0.8819	0.9158	0.023
Mof_H 	H 	0.2852	0.8802	0.243	0.062
Mof_H 	H 	0.278	0.0441	0.2374	0.064
Mof_H 	H 	0.3489	0.0425	0.9034	0.031
Mof_N 	N 	0.9308	0.4682	0.0174	-0.193
Mof_C 	C 	0.8579	0.4624	0.3816	-0.037
Mof_C 	C 	0.8371	0.4147	0.4816	-0.024
Mof_C 	C 	0.7967	0.4137	0.6751	-0.065
Mof_C 	C 	0.772	0.4612	0.7753	0.014
Mof_C 	C 	0.7922	0.5111	0.6754	-0.064
Mof_C 	C 	0.8357	0.5097	0.4731	-0.03
Mof_C 	C 	0.8977	0.4656	0.1821	0.084
Mof_H 	H 	0.8509	0.3819	0.4158	0.034
Mof_H 	H 	0.7852	0.3802	0.743	0.049
Mof_H 	H 	0.778	0.5441	0.7374	0.048
Mof_H 	H 	0.8489	0.5425	0.4034	0.036
Mof_N 	N 	0.5318	0.5692	0.2674	-0.202
Mof_C 	C 	0.5376	0.6421	0.6316	-0.019
Mof_C 	C 	0.5853	0.6629	0.7316	-0.049
Mof_C 	C 	0.5863	0.7033	0.9251	-0.029
Mof_C 	C 	0.5388	0.728	0.0253	-0.021
Mof_C 	C 	0.4889	0.7078	0.9254	-0.031
Mof_C 	C 	0.4903	0.6643	0.7231	-0.05
Mof_C 	C 	0.5344	0.6023	0.4321	0.074
Mof_H 	H 	0.6181	0.6491	0.6658	0.042
Mof_H 	H 	0.6198	0.7148	0.993	0.039
Mof_H 	H 	0.4559	0.722	0.9874	0.04
Mof_H 	H 	0.4575	0.6511	0.6534	0.043
Mof_N 	N 	0.0318	0.0692	0.7674	-0.208
Mof_C 	C 	0.0376	0.1421	0.1316	-0.085
Mof_C 	C 	0.0853	0.1629	0.2316	0.001
Mof_C 	C 	0.0863	0.2033	0.4251	-0.083
Mof_C 	C 	0.0388	0.228	0.5253	0.011
Mof_C 	C 	0.9889	0.2078	0.4254	-0.058
Mof_C 	C 	0.9903	0.1643	0.2231	0.016
Mof_C 	C 	0.0344	0.1023	0.9321	0.091
Mof_H 	H 	0.1181	0.1491	0.1658	0.022
Mof_H 	H 	0.1198	0.2148	0.493	0.054
Mof_H 	H 	0.9559	0.222	0.4874	0.049
Mof_H 	H 	0.9575	0.1511	0.1534	0.024
Mof_N 	N 	0.4682	0.4308	0.2674	-0.202
Mof_C 	C 	0.4624	0.3579	0.6316	-0.019
Mof_C 	C 	0.4147	0.3371	0.7316	-0.05
Mof_C 	C 	0.4137	0.2967	0.9251	-0.028
Mof_C 	C 	0.4612	0.272	0.0253	-0.023
Mof_C 	C 	0.5111	0.2922	0.9254	-0.03
Mof_C 	C 	0.5097	0.3357	0.7231	-0.051
Mof_C 	C 	0.4656	0.3977	0.4321	0.073
Mof_H 	H 	0.3819	0.3509	0.6658	0.042
Mof_H 	H 	0.3802	0.2852	0.993	0.039
Mof_H 	H 	0.5441	0.278	0.9874	0.04
Mof_H 	H 	0.5425	0.3489	0.6534	0.043
Mof_N 	N 	0.9682	0.9308	0.7674	-0.182
Mof_C 	C 	0.9624	0.8579	0.1316	-0.011
Mof_C 	C 	0.9147	0.8371	0.2316	-0.028
Mof_C 	C 	0.9137	0.7967	0.4251	-0.069
Mof_C 	C 	0.9612	0.772	0.5253	0.041
Mof_C 	C 	0.0111	0.7922	0.4254	-0.088
Mof_C 	C 	0.0097	0.8357	0.2231	-0.057
Mof_C 	C 	0.9656	0.8977	0.9321	0.086
Mof_H 	H 	0.8819	0.8509	0.1658	0.035
Mof_H 	H 	0.8802	0.7852	0.493	0.05
Mof_H 	H 	0.0441	0.778	0.4874	0.053
Mof_H 	H 	0.0425	0.8489	0.1534	0.041
Mof_N 	N 	0.9308	0.0318	0.2326	-0.195
Mof_C 	C 	0.8579	0.0376	0.8684	-0.058
Mof_C 	C 	0.8371	0.0853	0.7684	-0.019
Mof_C 	C 	0.7967	0.0863	0.5749	-0.062
Mof_C 	C 	0.772	0.0388	0.4747	-0.009
Mof_C 	C 	0.7922	0.9889	0.5746	-0.041
Mof_C 	C 	0.8357	0.9903	0.7769	-0.002
Mof_C 	C 	0.8977	0.0344	0.0679	0.08
Mof_H 	H 	0.8509	0.1181	0.8342	0.034
Mof_H 	H 	0.7852	0.1198	0.507	0.047
Mof_H 	H 	0.778	0.9559	0.5126	0.042
Mof_H 	H 	0.8489	0.9575	0.8466	0.033
Mof_N 	N 	0.4308	0.5318	0.7326	-0.201
Mof_C 	C 	0.3579	0.5376	0.3684	-0.057
Mof_C 	C 	0.3371	0.5853	0.2684	-0.002
Mof_C 	C 	0.2967	0.5863	0.0749	-0.097
Mof_C 	C 	0.272	0.5388	0.9747	0.049
Mof_C 	C 	0.2922	0.4889	0.0746	-0.092
Mof_C 	C 	0.3357	0.4903	0.2769	-0.011
Mof_C 	C 	0.3977	0.5344	0.5679	0.089
Mof_H 	H 	0.3509	0.6181	0.3342	0.024
Mof_H 	H 	0.2852	0.6198	0.007	0.057
Mof_H 	H 	0.278	0.4559	0.0126	0.055
Mof_H 	H 	0.3489	0.4575	0.3466	0.029
Mof_N 	N 	0.0692	0.9682	0.2326	-0.188
Mof_C 	C 	0.1421	0.9624	0.8684	0.009
Mof_C 	C 	0.1629	0.9147	0.7684	-0.047
Mof_C 	C 	0.2033	0.9137	0.5749	-0.051
Mof_C 	C 	0.228	0.9612	0.4747	0.022
Mof_C 	C 	0.2078	0.0111	0.5746	-0.072
Mof_C 	C 	0.1643	0.0097	0.7769	-0.073
Mof_C 	C 	0.1023	0.9656	0.0679	0.068
Mof_H 	H 	0.1491	0.8819	0.8342	0.041
Mof_H 	H 	0.2148	0.8802	0.507	0.042
Mof_H 	H 	0.222	0.0441	0.5126	0.047
Mof_H 	H 	0.1511	0.0425	0.8466	0.048
Mof_N 	N 	0.5692	0.4682	0.7326	-0.201
Mof_C 	C 	0.6421	0.4624	0.3684	-0.057
Mof_C 	C 	0.6629	0.4147	0.2684	-0.001
Mof_C 	C 	0.7033	0.4137	0.0749	-0.098
Mof_C 	C 	0.728	0.4612	0.9747	0.05
Mof_C 	C 	0.7078	0.5111	0.0746	-0.093
Mof_C 	C 	0.6643	0.5097	0.2769	-0.011
Mof_C 	C 	0.6023	0.4656	0.5679	0.089
Mof_H 	H 	0.6491	0.3819	0.3342	0.024
Mof_H 	H 	0.7148	0.3802	0.007	0.058
Mof_H 	H 	0.722	0.5441	0.0126	0.056
Mof_H 	H 	0.6511	0.5425	0.3466	0.028
Mof_Ag	Ag	-1.60592e-33	0.5	0.75	0.615
Mof_Ag	Ag	0.5	-5.4021e-34	0.25	0.603
Mof_Ag	Ag	0.5	0.5	-0	0.638
Mof_Ag	Ag	-7.10474e-34	-1.08042e-33	0.5	0.583
_end
