# CIF file generated by openbabel 3.1.0, see https://openbabel.org
data_I
_chemical_name_common 'image0'
_cell_length_a 17.47
_cell_length_b 16.437
_cell_length_c 7.155
_cell_angle_alpha 90
_cell_angle_beta 99
_cell_angle_gamma 90
_space_group_name_H-M_alt 'P 1'
_space_group_name_Hall 'P 1'
loop_
    _symmetry_equiv_pos_as_xyz
    x,y,z
loop_
    _atom_site_label
    _atom_site_type_symbol
    _atom_site_fract_x
    _atom_site_fract_y
    _atom_site_fract_z
    _atom_site_occupancy
    C1       C        0.29010    0.14400    0.84840    1.000
    C2       C        0.27890    0.08060    0.70600    1.000
    C3       C        0.30170    0.20100    0.71450    1.000
    C4       C        0.29050    0.14160    0.57700    1.000
    C5       C        0.24430    0.21910    0.57180    1.000
    C6       C        0.16720    0.19900    0.60900    1.000
    C7       C        0.19300    0.21840    0.67900    1.000
    C8       C        0.16300    0.13100    0.72700    1.000
    C9       C        0.18000    0.15700    0.79800    1.000
    C10      C        0.08700    0.06300    0.19100    1.000
    C11      C        0.11900    0.06900    0.25500    1.000
    C12      C        0.03900    0.06970    0.32600    1.000
    C13      C        0.06500    0.06620    0.39200    1.000
    N1       N        0.22260    0.09980    0.83750    1.000
    C14      C        0.44740    0.05250    0.29000    1.000
    C15      C        0.40390    0.05090    0.45960    1.000
    C16      C        0.37670    0.05410    0.17200    1.000
    C17      C        0.33350    0.04970    0.33160    1.000
    C18      C        0.79010    0.64400    0.84840    1.000
    C19      C        0.77890    0.58060    0.70600    1.000
    C20      C        0.80170    0.70100    0.71450    1.000
    C21      C        0.79050    0.64160    0.57700    1.000
    C22      C        0.74430    0.71910    0.57180    1.000
    C23      C        0.66720    0.69900    0.60900    1.000
    C24      C        0.69300    0.71840    0.67900    1.000
    C25      C        0.66300    0.63100    0.72700    1.000
    C26      C        0.68000    0.65700    0.79800    1.000
    C27      C        0.58700    0.56300    0.19100    1.000
    C28      C        0.61900    0.56900    0.25500    1.000
    C29      C        0.53900    0.56970    0.32600    1.000
    C30      C        0.56500    0.56620    0.39200    1.000
    N2       N        0.72260    0.59980    0.83750    1.000
    C31      C        0.94740    0.55250    0.29000    1.000
    C32      C        0.90390    0.55090    0.45960    1.000
    C33      C        0.87670    0.55410    0.17200    1.000
    C34      C        0.83350    0.54970    0.33160    1.000
    C35      C        0.70990    0.14400    0.15160    1.000
    C36      C        0.72110    0.08060    0.29400    1.000
    C37      C        0.69830    0.20100    0.28550    1.000
    C38      C        0.70950    0.14160    0.42300    1.000
    C39      C        0.75570    0.21910    0.42820    1.000
    C40      C        0.83280    0.19900    0.39100    1.000
    C41      C        0.80700    0.21840    0.32100    1.000
    C42      C        0.83700    0.13100    0.27300    1.000
    C43      C        0.82000    0.15700    0.20200    1.000
    C44      C        0.91300    0.06300    0.80900    1.000
    C45      C        0.88100    0.06900    0.74500    1.000
    C46      C        0.96100    0.06970    0.67400    1.000
    C47      C        0.93500    0.06620    0.60800    1.000
    N3       N        0.77740    0.09980    0.16250    1.000
    C48      C        0.55260    0.05250    0.71000    1.000
    C49      C        0.59610    0.05090    0.54040    1.000
    C50      C        0.62330    0.05410    0.82800    1.000
    C51      C        0.66650    0.04970    0.66840    1.000
    C52      C        0.20990    0.64400    0.15160    1.000
    C53      C        0.22110    0.58060    0.29400    1.000
    C54      C        0.19830    0.70100    0.28550    1.000
    C55      C        0.20950    0.64160    0.42300    1.000
    C56      C        0.25570    0.71910    0.42820    1.000
    C57      C        0.33280    0.69900    0.39100    1.000
    C58      C        0.30700    0.71840    0.32100    1.000
    C59      C        0.33700    0.63100    0.27300    1.000
    C60      C        0.32000    0.65700    0.20200    1.000
    C61      C        0.41300    0.56300    0.80900    1.000
    C62      C        0.38100    0.56900    0.74500    1.000
    C63      C        0.46100    0.56970    0.67400    1.000
    C64      C        0.43500    0.56620    0.60800    1.000
    N4       N        0.27740    0.59980    0.16250    1.000
    C65      C        0.05260    0.55250    0.71000    1.000
    C66      C        0.09610    0.55090    0.54040    1.000
    C67      C        0.12330    0.55410    0.82800    1.000
    C68      C        0.16650    0.54970    0.66840    1.000
    C69      C        0.70990    0.85600    0.15160    1.000
    C70      C        0.72110    0.91940    0.29400    1.000
    C71      C        0.69830    0.79900    0.28550    1.000
    C72      C        0.70950    0.85840    0.42300    1.000
    C73      C        0.75570    0.78090    0.42820    1.000
    C74      C        0.83280    0.80100    0.39100    1.000
    C75      C        0.80700    0.78160    0.32100    1.000
    C76      C        0.83700    0.86900    0.27300    1.000
    C77      C        0.82000    0.84300    0.20200    1.000
    C78      C        0.91300    0.93700    0.80900    1.000
    C79      C        0.88100    0.93100    0.74500    1.000
    C80      C        0.96100    0.93030    0.67400    1.000
    C81      C        0.93500    0.93380    0.60800    1.000
    N5       N        0.77740    0.90020    0.16250    1.000
    C82      C        0.55260    0.94750    0.71000    1.000
    C83      C        0.59610    0.94910    0.54040    1.000
    C84      C        0.62330    0.94590    0.82800    1.000
    C85      C        0.66650    0.95030    0.66840    1.000
    C86      C        0.20990    0.35600    0.15160    1.000
    C87      C        0.22110    0.41940    0.29400    1.000
    C88      C        0.19830    0.29900    0.28550    1.000
    C89      C        0.20950    0.35840    0.42300    1.000
    C90      C        0.25570    0.28090    0.42820    1.000
    C91      C        0.33280    0.30100    0.39100    1.000
    C92      C        0.30700    0.28160    0.32100    1.000
    C93      C        0.33700    0.36900    0.27300    1.000
    C94      C        0.32000    0.34300    0.20200    1.000
    C95      C        0.41300    0.43700    0.80900    1.000
    C96      C        0.38100    0.43100    0.74500    1.000
    C97      C        0.46100    0.43030    0.67400    1.000
    C98      C        0.43500    0.43380    0.60800    1.000
    N6       N        0.27740    0.40020    0.16250    1.000
    C99      C        0.05260    0.44750    0.71000    1.000
    C100     C        0.09610    0.44910    0.54040    1.000
    C101     C        0.12330    0.44590    0.82800    1.000
    C102     C        0.16650    0.45030    0.66840    1.000
    C103     C        0.29010    0.85600    0.84840    1.000
    C104     C        0.27890    0.91940    0.70600    1.000
    C105     C        0.30170    0.79900    0.71450    1.000
    C106     C        0.29050    0.85840    0.57700    1.000
    C107     C        0.24430    0.78090    0.57180    1.000
    C108     C        0.16720    0.80100    0.60900    1.000
    C109     C        0.19300    0.78160    0.67900    1.000
    C110     C        0.16300    0.86900    0.72700    1.000
    C111     C        0.18000    0.84300    0.79800    1.000
    C112     C        0.08700    0.93700    0.19100    1.000
    C113     C        0.11900    0.93100    0.25500    1.000
    C114     C        0.03900    0.93030    0.32600    1.000
    C115     C        0.06500    0.93380    0.39200    1.000
    N7       N        0.22260    0.90020    0.83750    1.000
    C116     C        0.44740    0.94750    0.29000    1.000
    C117     C        0.40390    0.94910    0.45960    1.000
    C118     C        0.37670    0.94590    0.17200    1.000
    C119     C        0.33350    0.95030    0.33160    1.000
    C120     C        0.79010    0.35600    0.84840    1.000
    C121     C        0.77890    0.41940    0.70600    1.000
    C122     C        0.80170    0.29900    0.71450    1.000
    C123     C        0.79050    0.35840    0.57700    1.000
    C124     C        0.74430    0.28090    0.57180    1.000
    C125     C        0.66720    0.30100    0.60900    1.000
    C126     C        0.69300    0.28160    0.67900    1.000
    C127     C        0.66300    0.36900    0.72700    1.000
    C128     C        0.68000    0.34300    0.79800    1.000
    C129     C        0.58700    0.43700    0.19100    1.000
    C130     C        0.61900    0.43100    0.25500    1.000
    C131     C        0.53900    0.43030    0.32600    1.000
    C132     C        0.56500    0.43380    0.39200    1.000
    N8       N        0.72260    0.40020    0.83750    1.000
    C133     C        0.94740    0.44750    0.29000    1.000
    C134     C        0.90390    0.44910    0.45960    1.000
    C135     C        0.87670    0.44590    0.17200    1.000
    C136     C        0.83350    0.45030    0.33160    1.000
    Cu1      Cu       0.21484    0.00000    0.00751    1.000
    C137     C        0.02570    0.00000    0.42570    1.000
    N9       N        0.12640    0.00000    0.15600    1.000
    N10      N        0.32030    0.00000    0.19040    1.000
    C138     C        0.46180    0.00000    0.43320    1.000
    Cu2      Cu       0.71484    0.50000    0.00751    1.000
    C139     C        0.52570    0.50000    0.42570    1.000
    N11      N        0.62640    0.50000    0.15600    1.000
    N12      N        0.82030    0.50000    0.19040    1.000
    C140     C        0.96180    0.50000    0.43320    1.000
    Cu3      Cu       0.78516    0.00000    0.99249    1.000
    C141     C        0.97430    0.00000    0.57430    1.000
    N13      N        0.87360    0.00000    0.84400    1.000
    N14      N        0.67970    0.00000    0.80960    1.000
    C142     C        0.53820    0.00000    0.56680    1.000
    Cu4      Cu       0.28516    0.50000    0.99249    1.000
    C143     C        0.47430    0.50000    0.57430    1.000
    N15      N        0.37360    0.50000    0.84400    1.000
    N16      N        0.17970    0.50000    0.80960    1.000
    C144     C        0.03820    0.50000    0.56680    1.000
