# CIF file generated by openbabel 3.1.0, see https://openbabel.org
data_I
_chemical_name_common 'image0'
_cell_length_a 15.319
_cell_length_b 32.72
_cell_length_c 10.0665
_cell_angle_alpha 90
_cell_angle_beta 107.137
_cell_angle_gamma 90
_space_group_name_H-M_alt 'P 1'
_space_group_name_Hall 'P 1'
loop_
    _symmetry_equiv_pos_as_xyz
    x,y,z
loop_
    _atom_site_label
    _atom_site_type_symbol
    _atom_site_fract_x
    _atom_site_fract_y
    _atom_site_fract_z
    _atom_site_occupancy
    Cu1      Cu       0.33453    0.77466    0.03314    1.000
    Cu2      Cu       0.48231    0.71722    0.01178    1.000
    Cu3      Cu       0.40889    0.71625    0.26955    1.000
    O1       O        0.37110    0.71775    0.06790    1.000
    H1       H        0.33090    0.70030    0.02790    1.000
    O2       O        0.45770    0.65707    0.26190    1.000
    O3       O        0.51850    0.66249    0.08190    1.000
    O4       O        0.28340    0.72735    0.28140    1.000
    O5       O        0.22590    0.76656    0.09170    1.000
    O6       O        0.44480    0.72465    0.46700    1.000
    H2       H        0.48500    0.70770    0.51090    1.000
    O7       O        0.96720    0.84810    0.12400    1.000
    O8       O        0.84430    0.80910    0.09540    1.000
    O9       O        0.98690    0.81100    0.46900    1.000
    O10      O        0.87780    0.84260    0.51530    1.000
    O11      O        0.75740    0.50660    0.20210    1.000
    O12      O        0.69250    0.54250    0.01090    1.000
    O13      O        0.72980    0.51260    0.48390    1.000
    O14      O        0.72420    0.46900    0.63190    1.000
    O15      O        0.58820    0.77849    0.44810    1.000
    O16      O        0.53440    0.73946    0.26010    1.000
    O17      O        0.60760    0.31939    0.23660    1.000
    O18      O        0.67400    0.33276    0.45830    1.000
    C1       C        0.49850    0.64337    0.17960    1.000
    C2       C        0.52820    0.59961    0.19860    1.000
    C3       C        0.48340    0.57250    0.26060    1.000
    H3       H        0.43480    0.58120    0.29090    1.000
    C4       C        0.51110    0.53230    0.27740    1.000
    H4       H        0.47800    0.51420    0.31480    1.000
    C5       C        0.58540    0.51760    0.24170    1.000
    C6       C        0.62770    0.54520    0.17760    1.000
    C7       C        0.59950    0.58550    0.15430    1.000
    H5       H        0.62890    0.60300    0.10850    1.000
    C8       C        0.60940    0.47360    0.26450    1.000
    C9       C        0.65330    0.45710    0.39540    1.000
    C10      C        0.66440    0.41540    0.41600    1.000
    H6       H        0.69450    0.40550    0.50410    1.000
    C11      C        0.63190    0.38883    0.30890    1.000
    C12      C        0.58650    0.40460    0.18090    1.000
    H7       H        0.56360    0.38690    0.10650    1.000
    C13      C        0.57400    0.44600    0.15970    1.000
    H8       H        0.54080    0.45550    0.07240    1.000
    C14      C        0.63790    0.34328    0.33200    1.000
    C15      C        0.21920    0.74749    0.19610    1.000
    C16      C        0.12870    0.74830    0.22370    1.000
    C17      C        0.07010    0.78060    0.17100    1.000
    H9       H        0.08760    0.80130    0.12070    1.000
    C18      C        0.98600    0.78190    0.19370    1.000
    C19      C        0.95740    0.75270    0.27180    1.000
    C20      C        0.01800    0.71960    0.32110    1.000
    H10      H        0.00150    0.69900    0.37250    1.000
    C21      C        0.10140    0.71750    0.29430    1.000
    H11      H        0.13910    0.69500    0.32440    1.000
    C22      C        0.86720    0.75340    0.30170    1.000
    C23      C        0.80660    0.72280    0.25100    1.000
    H12      H        0.82460    0.70070    0.20750    1.000
    C24      C        0.71740    0.72380    0.26250    1.000
    H13      H        0.67590    0.70340    0.22130    1.000
    C25      C        0.69180    0.75513    0.33540    1.000
    C26      C        0.75460    0.78460    0.39840    1.000
    H14      H        0.73960    0.80460    0.45350    1.000
    C27      C        0.84150    0.78410    0.37850    1.000
    C28      C        0.59690    0.75765    0.34800    1.000
    N1       N        0.70910    0.53330    0.13330    1.000
    N2       N        0.92690    0.81610    0.13180    1.000
    N3       N        0.90480    0.81520    0.45370    1.000
    N4       N        0.68950    0.48390    0.51720    1.000
    O19      O        0.94520    0.83820    0.04480    1.000
    O20      O        0.87900    0.83530    0.18920    1.000
    O21      O        0.72790    0.49800    0.11500    1.000
    O22      O        0.75040    0.55980    0.09100    1.000
    O23      O        0.69140    0.52100    0.50500    1.000
    O24      O        0.67290    0.47200    0.62220    1.000
    Cu4      Cu       0.66547    0.27466    0.46686    1.000
    Cu5      Cu       0.51769    0.21722    0.48822    1.000
    Cu6      Cu       0.59111    0.21625    0.23045    1.000
    O25      O        0.62890    0.21775    0.43210    1.000
    H15      H        0.66910    0.20030    0.47210    1.000
    O26      O        0.54230    0.15707    0.23810    1.000
    O27      O        0.48150    0.16249    0.41810    1.000
    O28      O        0.71660    0.22735    0.21860    1.000
    O29      O        0.77410    0.26656    0.40830    1.000
    O30      O        0.55520    0.22465    0.03300    1.000
    H16      H        0.51500    0.20770    0.98910    1.000
    O31      O        0.03280    0.34810    0.37600    1.000
    O32      O        0.15570    0.30910    0.40460    1.000
    O33      O        0.01310    0.31100    0.03100    1.000
    O34      O        0.12220    0.34260    0.98470    1.000
    O35      O        0.24260    0.00660    0.29790    1.000
    O36      O        0.30750    0.04250    0.48910    1.000
    O37      O        0.27020    0.01260    0.01610    1.000
    O38      O        0.27580    0.96900    0.86810    1.000
    O39      O        0.41180    0.27849    0.05190    1.000
    O40      O        0.46560    0.23946    0.23990    1.000
    O41      O        0.39240    0.81939    0.26340    1.000
    O42      O        0.32600    0.83276    0.04170    1.000
    C29      C        0.50150    0.14337    0.32040    1.000
    C30      C        0.47180    0.09961    0.30140    1.000
    C31      C        0.51660    0.07250    0.23940    1.000
    H17      H        0.56520    0.08120    0.20910    1.000
    C32      C        0.48890    0.03230    0.22260    1.000
    H18      H        0.52200    0.01420    0.18520    1.000
    C33      C        0.41460    0.01760    0.25830    1.000
    C34      C        0.37230    0.04520    0.32240    1.000
    C35      C        0.40050    0.08550    0.34570    1.000
    H19      H        0.37110    0.10300    0.39150    1.000
    C36      C        0.39060    0.97360    0.23550    1.000
    C37      C        0.34670    0.95710    0.10460    1.000
    C38      C        0.33560    0.91540    0.08400    1.000
    H20      H        0.30550    0.90550    0.99590    1.000
    C39      C        0.36810    0.88883    0.19110    1.000
    C40      C        0.41350    0.90460    0.31910    1.000
    H21      H        0.43640    0.88690    0.39350    1.000
    C41      C        0.42600    0.94600    0.34030    1.000
    H22      H        0.45920    0.95550    0.42760    1.000
    C42      C        0.36210    0.84328    0.16800    1.000
    C43      C        0.78080    0.24749    0.30390    1.000
    C44      C        0.87130    0.24830    0.27630    1.000
    C45      C        0.92990    0.28060    0.32900    1.000
    H23      H        0.91240    0.30130    0.37930    1.000
    C46      C        0.01400    0.28190    0.30630    1.000
    C47      C        0.04260    0.25270    0.22820    1.000
    C48      C        0.98200    0.21960    0.17890    1.000
    H24      H        0.99850    0.19900    0.12750    1.000
    C49      C        0.89860    0.21750    0.20570    1.000
    H25      H        0.86090    0.19500    0.17560    1.000
    C50      C        0.13280    0.25340    0.19830    1.000
    C51      C        0.19340    0.22280    0.24900    1.000
    H26      H        0.17540    0.20070    0.29250    1.000
    C52      C        0.28260    0.22380    0.23750    1.000
    H27      H        0.32410    0.20340    0.27870    1.000
    C53      C        0.30820    0.25513    0.16460    1.000
    C54      C        0.24540    0.28460    0.10160    1.000
    H28      H        0.26040    0.30460    0.04650    1.000
    C55      C        0.15850    0.28410    0.12150    1.000
    C56      C        0.40310    0.25765    0.15200    1.000
    N5       N        0.29090    0.03330    0.36670    1.000
    N6       N        0.07310    0.31610    0.36820    1.000
    N7       N        0.09520    0.31520    0.04630    1.000
    N8       N        0.31050    0.98390    0.98280    1.000
    O43      O        0.05480    0.33820    0.45520    1.000
    O44      O        0.12100    0.33530    0.31080    1.000
    O45      O        0.27210    0.99800    0.38500    1.000
    O46      O        0.24960    0.05980    0.40900    1.000
    O47      O        0.30860    0.02100    0.99500    1.000
    O48      O        0.32710    0.97200    0.87780    1.000
    Cu7      Cu       0.66547    0.22534    0.96686    1.000
    Cu8      Cu       0.51769    0.28278    0.98822    1.000
    Cu9      Cu       0.59111    0.28375    0.73045    1.000
    O49      O        0.62890    0.28225    0.93210    1.000
    H29      H        0.66910    0.29970    0.97210    1.000
    O50      O        0.54230    0.34293    0.73810    1.000
    O51      O        0.48150    0.33751    0.91810    1.000
    O52      O        0.71660    0.27265    0.71860    1.000
    O53      O        0.77410    0.23344    0.90830    1.000
    O54      O        0.55520    0.27535    0.53300    1.000
    H30      H        0.51500    0.29230    0.48910    1.000
    O55      O        0.03280    0.15190    0.87600    1.000
    O56      O        0.15570    0.19090    0.90460    1.000
    O57      O        0.01310    0.18900    0.53100    1.000
    O58      O        0.12220    0.15740    0.48470    1.000
    O59      O        0.24260    0.49340    0.79790    1.000
    O60      O        0.30750    0.45750    0.98910    1.000
    O61      O        0.27020    0.48740    0.51610    1.000
    O62      O        0.27580    0.53100    0.36810    1.000
    O63      O        0.41180    0.22151    0.55190    1.000
    O64      O        0.46560    0.26054    0.73990    1.000
    O65      O        0.39240    0.68061    0.76340    1.000
    O66      O        0.32600    0.66724    0.54170    1.000
    C57      C        0.50150    0.35663    0.82040    1.000
    C58      C        0.47180    0.40039    0.80140    1.000
    C59      C        0.51660    0.42750    0.73940    1.000
    H31      H        0.56520    0.41880    0.70910    1.000
    C60      C        0.48890    0.46770    0.72260    1.000
    H32      H        0.52200    0.48580    0.68520    1.000
    C61      C        0.41460    0.48240    0.75830    1.000
    C62      C        0.37230    0.45480    0.82240    1.000
    C63      C        0.40050    0.41450    0.84570    1.000
    H33      H        0.37110    0.39700    0.89150    1.000
    C64      C        0.39060    0.52640    0.73550    1.000
    C65      C        0.34670    0.54290    0.60460    1.000
    C66      C        0.33560    0.58460    0.58400    1.000
    H34      H        0.30550    0.59450    0.49590    1.000
    C67      C        0.36810    0.61117    0.69110    1.000
    C68      C        0.41350    0.59540    0.81910    1.000
    H35      H        0.43640    0.61310    0.89350    1.000
    C69      C        0.42600    0.55400    0.84030    1.000
    H36      H        0.45920    0.54450    0.92760    1.000
    C70      C        0.36210    0.65672    0.66800    1.000
    C71      C        0.78080    0.25251    0.80390    1.000
    C72      C        0.87130    0.25170    0.77630    1.000
    C73      C        0.92990    0.21940    0.82900    1.000
    H37      H        0.91240    0.19870    0.87930    1.000
    C74      C        0.01400    0.21810    0.80630    1.000
    C75      C        0.04260    0.24730    0.72820    1.000
    C76      C        0.98200    0.28040    0.67890    1.000
    H38      H        0.99850    0.30100    0.62750    1.000
    C77      C        0.89860    0.28250    0.70570    1.000
    H39      H        0.86090    0.30500    0.67560    1.000
    C78      C        0.13280    0.24660    0.69830    1.000
    C79      C        0.19340    0.27720    0.74900    1.000
    H40      H        0.17540    0.29930    0.79250    1.000
    C80      C        0.28260    0.27620    0.73750    1.000
    H41      H        0.32410    0.29660    0.77870    1.000
    C81      C        0.30820    0.24487    0.66460    1.000
    C82      C        0.24540    0.21540    0.60160    1.000
    H42      H        0.26040    0.19540    0.54650    1.000
    C83      C        0.15850    0.21590    0.62150    1.000
    C84      C        0.40310    0.24235    0.65200    1.000
    N9       N        0.29090    0.46670    0.86670    1.000
    N10      N        0.07310    0.18390    0.86820    1.000
    N11      N        0.09520    0.18480    0.54630    1.000
    N12      N        0.31050    0.51610    0.48280    1.000
    O67      O        0.05480    0.16180    0.95520    1.000
    O68      O        0.12100    0.16470    0.81080    1.000
    O69      O        0.27210    0.50200    0.88500    1.000
    O70      O        0.24960    0.44020    0.90900    1.000
    O71      O        0.30860    0.47900    0.49500    1.000
    O72      O        0.32710    0.52800    0.37780    1.000
    Cu10     Cu       0.33453    0.72534    0.53314    1.000
    Cu11     Cu       0.48231    0.78278    0.51178    1.000
    Cu12     Cu       0.40889    0.78375    0.76955    1.000
    O73      O        0.37110    0.78225    0.56790    1.000
    H43      H        0.33090    0.79970    0.52790    1.000
    O74      O        0.45770    0.84293    0.76190    1.000
    O75      O        0.51850    0.83751    0.58190    1.000
    O76      O        0.28340    0.77265    0.78140    1.000
    O77      O        0.22590    0.73344    0.59170    1.000
    O78      O        0.44480    0.77535    0.96700    1.000
    H44      H        0.48500    0.79230    0.01090    1.000
    O79      O        0.96720    0.65190    0.62400    1.000
    O80      O        0.84430    0.69090    0.59540    1.000
    O81      O        0.98690    0.68900    0.96900    1.000
    O82      O        0.87780    0.65740    0.01530    1.000
    O83      O        0.75740    0.99340    0.70210    1.000
    O84      O        0.69250    0.95750    0.51090    1.000
    O85      O        0.72980    0.98740    0.98390    1.000
    O86      O        0.72420    0.03100    0.13190    1.000
    O87      O        0.58820    0.72151    0.94810    1.000
    O88      O        0.53440    0.76054    0.76010    1.000
    O89      O        0.60760    0.18061    0.73660    1.000
    O90      O        0.67400    0.16724    0.95830    1.000
    C85      C        0.49850    0.85663    0.67960    1.000
    C86      C        0.52820    0.90039    0.69860    1.000
    C87      C        0.48340    0.92750    0.76060    1.000
    H45      H        0.43480    0.91880    0.79090    1.000
    C88      C        0.51110    0.96770    0.77740    1.000
    H46      H        0.47800    0.98580    0.81480    1.000
    C89      C        0.58540    0.98240    0.74170    1.000
    C90      C        0.62770    0.95480    0.67760    1.000
    C91      C        0.59950    0.91450    0.65430    1.000
    H47      H        0.62890    0.89700    0.60850    1.000
    C92      C        0.60940    0.02640    0.76450    1.000
    C93      C        0.65330    0.04290    0.89540    1.000
    C94      C        0.66440    0.08460    0.91600    1.000
    H48      H        0.69450    0.09450    0.00410    1.000
    C95      C        0.63190    0.11117    0.80890    1.000
    C96      C        0.58650    0.09540    0.68090    1.000
    H49      H        0.56360    0.11310    0.60650    1.000
    C97      C        0.57400    0.05400    0.65970    1.000
    H50      H        0.54080    0.04450    0.57240    1.000
    C98      C        0.63790    0.15672    0.83200    1.000
    C99      C        0.21920    0.75251    0.69610    1.000
    C100     C        0.12870    0.75170    0.72370    1.000
    C101     C        0.07010    0.71940    0.67100    1.000
    H51      H        0.08760    0.69870    0.62070    1.000
    C102     C        0.98600    0.71810    0.69370    1.000
    C103     C        0.95740    0.74730    0.77180    1.000
    C104     C        0.01800    0.78040    0.82110    1.000
    H52      H        0.00150    0.80100    0.87250    1.000
    C105     C        0.10140    0.78250    0.79430    1.000
    H53      H        0.13910    0.80500    0.82440    1.000
    C106     C        0.86720    0.74660    0.80170    1.000
    C107     C        0.80660    0.77720    0.75100    1.000
    H54      H        0.82460    0.79930    0.70750    1.000
    C108     C        0.71740    0.77620    0.76250    1.000
    H55      H        0.67590    0.79660    0.72130    1.000
    C109     C        0.69180    0.74487    0.83540    1.000
    C110     C        0.75460    0.71540    0.89840    1.000
    H56      H        0.73960    0.69540    0.95350    1.000
    C111     C        0.84150    0.71590    0.87850    1.000
    C112     C        0.59690    0.74235    0.84800    1.000
    N13      N        0.70910    0.96670    0.63330    1.000
    N14      N        0.92690    0.68390    0.63180    1.000
    N15      N        0.90480    0.68480    0.95370    1.000
    N16      N        0.68950    0.01610    0.01720    1.000
    O91      O        0.94520    0.66180    0.54480    1.000
    O92      O        0.87900    0.66470    0.68920    1.000
    O93      O        0.72790    0.00200    0.61500    1.000
    O94      O        0.75040    0.94020    0.59100    1.000
    O95      O        0.69140    0.97900    0.00500    1.000
    O96      O        0.67290    0.02800    0.12220    1.000
