data_functionalizedCrystal
_audit_creation_method	'EQeq! by Chris Wilmer'
_symmetry_space_group_name_H-M	'P1'
_symmetry_Int_Tables_number	1
_symmetry_cell_setting	triclinic
loop_
_symmetry_equiv_pos_as_xyz
  x,y,z
_cell_length_a	24.7139
_cell_length_b	20.7704
_cell_length_c	24.9502
_cell_angle_alpha	90
_cell_angle_beta	99.081
_cell_angle_gamma	90
loop_
_atom_site_label
_atom_site_type_symbol
_atom_site_fract_x
_atom_site_fract_y
_atom_site_fract_z
_atom_site_charge
Mof_Gd	Gd	0.78815	0.53497	0.87552	1.858
Mof_O 	O 	0.81375	0.5643	0.7912	-0.845
Mof_O 	O 	0.76546	0.45	0.8109	-0.87
Mof_O 	O 	0.86988	0.479	0.86959	-0.877
Mof_O 	O 	0.8509	0.62	0.9034	-0.479
Mof_O 	O 	0.7085	0.5963	0.8372	-0.458
Mof_O 	O 	0.7416	0.6118	0.9244	-0.404
Mof_O 	O 	0.8045	0.4755	0.9567	-0.364
Mof_Gd	Gd	0.91354	0.53312	0.80463	1.655
Mof_Gd	Gd	0.77177	0.49412	0.72173	1.94
Mof_H 	H 	0.8083	0.6039	0.7835	0.312
Mof_Gd	Gd	0.84192	0.37577	0.83473	1.86
Mof_H 	H 	0.7346	0.4329	0.8126	0.323
Mof_H 	H 	0.8905	0.4765	0.9002	0.308
Mof_O 	O 	0.85669	0.4512	0.76318	-0.857
Mof_O 	O 	0.9687	0.4424	0.8082	-0.521
Mof_O 	O 	0.9055	0.6364	0.8414	-0.501
Mof_O 	O 	0.9059	0.5904	0.7234	-0.518
Mof_O 	O 	0.70127	0.425	0.68292	-0.841
Mof_O 	O 	0.726	0.5352	0.63538	-0.825
Mof_O 	O 	0.68238	0.5386	0.73011	-0.844
Mof_O 	O 	0.8139	0.4229	0.66312	-0.51
Mof_O 	O 	0.8276	0.5613	0.6732	-0.514
Mof_O 	O 	0.8755	0.2738	0.881	-0.384
Mof_O 	O 	0.9179	0.3622	0.9143	-0.415
Mof_O 	O 	0.9276	0.3467	0.8018	-0.455
Mof_O 	O 	0.7598	0.3065	0.81417	-0.39
Mof_O 	O 	0.8121	0.3169	0.75088	-0.413
Mof_O 	O 	0.8018	0.3758	0.91931	-0.499
Mof_H 	H 	0.8722	0.432	0.7396	0.324
Mof_Gd	Gd	0.6822	0.45027	0.58335	1.605
Mof_Gd	Gd	0.61574	0.45181	0.70796	1.692
Mof_H 	H 	0.7094	0.3856	0.6889	0.311
Mof_Gd	Gd	0.65736	0.60991	0.65586	1.69
Mof_H 	H 	0.7487	0.554	0.6184	0.317
Mof_H 	H 	0.6812	0.5558	0.7608	0.318
Mof_C 	C 	0.8091	0.4014	0.6166	0.485
Mof_C 	C 	0.9115	0.3034	0.9148	0.37
Mof_O 	O 	0.61796	0.5094	0.62751	-0.859
Mof_O 	O 	0.6709	0.536	0.52318	-0.525
Mof_O 	O 	0.7701	0.4123	0.579	-0.506
Mof_O 	O 	0.6644	0.3417	0.6018	-0.474
Mof_O 	O 	0.6017	0.3525	0.6578	-0.479
Mof_O 	O 	0.5674	0.5339	0.7449	-0.485
Mof_O 	O 	0.6519	0.4047	0.7939	-0.465
Mof_O 	O 	0.566	0.3831	0.7614	-0.42
Mof_O 	O 	0.6683	0.6318	0.5637	-0.5
Mof_O 	O 	0.57153	0.6165	0.6876	-0.496
Mof_O 	O 	0.6737	0.6823	0.73707	-0.389
Mof_O 	O 	0.7414	0.6633	0.6914	-0.44
Mof_C 	C 	0.8556	0.3608	0.6028	-0.194
Mof_H 	H 	0.9342	0.2788	0.9416	-0.077
Mof_H 	H 	0.5866	0.5129	0.6081	0.257
Mof_C 	C 	0.6812	0.5957	0.5273	0.445
Mof_C 	C 	0.6197	0.3274	0.619	0.376
Mof_C 	C 	0.5486	0.586	0.7216	0.415
Mof_C 	C 	0.8955	0.336	0.6431	0.094
Mof_C 	C 	0.8617	0.3511	0.549	0.093
Mof_C 	C 	0.7097	0.6244	0.4837	-0.195
Mof_C 	C 	0.5852	0.277	0.5866	-0.104
Mof_C 	C 	0.4967	0.6116	0.7374	-0.17
Mof_H 	H 	0.8913	0.3409	0.6801	0
Mof_C 	C 	0.9415	0.3041	0.6302	-0.158
Mof_C 	C 	0.9079	0.3197	0.5363	-0.158
Mof_H 	H 	0.8342	0.3659	0.5207	0.004
Mof_C 	C 	0.7316	0.5852	0.4478	0.097
Mof_C 	C 	0.7135	0.6904	0.4779	0.093
Mof_C 	C 	0.5999	0.2566	0.538	-0.024
Mof_C 	C 	0.5366	0.2565	0.6017	-0.023
Mof_C 	C 	0.4647	0.5732	0.7643	0.069
Mof_C 	C 	0.481	0.6755	0.7272	0.066
Mof_H 	H 	0.9681	0.2868	0.6583	0.084
Mof_C 	C 	0.9484	0.2976	0.5764	0.095
Mof_H 	H 	0.9115	0.3134	0.4993	0.088
Mof_H 	H 	0.7307	0.5398	0.4524	-0.011
Mof_C 	C 	0.7548	0.6101	0.4058	-0.161
Mof_C 	C 	0.7371	0.7166	0.4358	-0.16
Mof_H 	H 	0.6999	0.7182	0.503	0.002
Mof_C 	C 	0.565	0.2174	0.5033	-0.013
Mof_H 	H 	0.634	0.2696	0.5284	0.032
Mof_H 	H 	0.5276	0.2698	0.6356	0.044
Mof_C 	C 	0.5007	0.2166	0.5682	-0.008
Mof_H 	H 	0.4756	0.5299	0.7721	0.01
Mof_C 	C 	0.4166	0.5956	0.7805	-0.134
Mof_C 	C 	0.4337	0.6998	0.7442	-0.136
Mof_H 	H 	0.5026	0.7028	0.7085	0.01
Mof_C 	C 	0.0007	0.2701	0.5623	-0.033
Mof_H 	H 	0.7691	0.582	0.3815	0.081
Mof_C 	C 	0.7573	0.6765	0.3988	0.089
Mof_H 	H 	0.7395	0.762	0.4322	0.096
Mof_C 	C 	0.5783	0.1985	0.4497	0.053
Mof_C 	C 	0.5157	0.1973	0.5185	-0.066
Mof_C 	C 	0.4481	0.195	0.5821	0.047
Mof_H 	H 	0.3947	0.5675	0.7981	0.073
Mof_C 	C 	0.4007	0.6598	0.7707	0.067
Mof_H 	H 	0.424	0.7436	0.7378	0.083
Mof_C 	C 	0.031	0.2239	0.5942	0.003
Mof_C 	C 	0.0206	0.2936	0.5167	-0.036
Mof_C 	C 	0.7767	0.7039	0.3503	-0.014
Mof_C 	C 	0.6315	0.1818	0.4429	-0.115
Mof_C 	C 	0.5359	0.1967	0.4049	-0.113
Mof_H 	H 	0.4918	0.1701	0.495	0.05
Mof_C 	C 	0.4421	0.1806	0.6356	-0.101
Mof_C 	C 	0.4025	0.1883	0.5406	-0.1
Mof_C 	C 	0.3489	0.685	0.7879	0.003
Mof_H 	H 	0.0183	0.2078	0.6256	0.025
Mof_C 	C 	0.0802	0.2007	0.5804	-0.118
Mof_C 	C 	0.0694	0.2713	0.5027	-0.034
Mof_H 	H 	0.0004	0.3255	0.4948	0.044
Mof_C 	C 	0.7435	0.7463	0.3164	-0.031
Mof_C 	C 	0.8281	0.6862	0.3364	-0.059
Mof_C 	C 	0.6411	0.1592	0.3927	0.042
Mof_H 	H 	0.6609	0.1859	0.4722	0.075
Mof_H 	H 	0.5002	0.2109	0.4087	0.056
Mof_C 	C 	0.5461	0.1744	0.3554	0.037
Mof_H 	H 	0.4721	0.1866	0.6641	0.071
Mof_C 	C 	0.3922	0.1575	0.6473	0.024
Mof_C 	C 	0.3543	0.1639	0.5534	0.021
Mof_H 	H 	0.4051	0.2004	0.5043	0.055
Mof_C 	C 	0.3329	0.6643	0.8366	-0.067
Mof_C 	C 	0.316	0.7277	0.7545	-0.043
Mof_C 	C 	0.1002	0.2244	0.5353	0.004
Mof_C 	C 	0.1095	0.1479	0.6149	0.414
Mof_C 	C 	0.0881	0.2995	0.4538	0.105
Mof_H 	H 	0.7088	0.7585	0.325	0.055
Mof_C 	C 	0.7608	0.7708	0.2699	-0.072
Mof_C 	C 	0.8455	0.7112	0.2906	-0.007
Mof_H 	H 	0.8508	0.6568	0.3588	0.051
Mof_C 	C 	0.5986	0.1533	0.349	-0.121
Mof_H 	H 	0.6772	0.1477	0.3881	0.031
Mof_H 	H 	0.5172	0.1734	0.3253	0.027
Mof_H 	H 	0.388	0.1481	0.6837	0.037
Mof_C 	C 	0.3491	0.1485	0.6054	-0.092
Mof_H 	H 	0.324	0.1578	0.5253	0.034
Mof_H 	H 	0.3554	0.635	0.8594	0.055
Mof_C 	C 	0.2842	0.6865	0.8518	0.003
Mof_C 	C 	0.2667	0.75	0.7696	-0.055
Mof_H 	H 	0.3267	0.7419	0.7216	0.055
Mof_H 	H 	0.134	0.2093	0.5265	0.04
Mof_C 	C 	0.1412	0.3203	0.4542	-0.176
Mof_C 	C 	0.0498	0.308	0.4065	-0.168
Mof_C 	C 	0.8117	0.7538	0.2579	-0.036
Mof_C 	C 	0.7231	0.811	0.2312	0.287
Mof_C 	C 	0.8968	0.6897	0.2727	0.082
Mof_C 	C 	0.6065	0.1211	0.2984	0.344
Mof_C 	C 	0.2965	0.1172	0.6156	0.296
Mof_C 	C 	0.2522	0.73	0.8189	-0.041
Mof_C 	C 	0.2661	0.6625	0.903	0.072
Mof_C 	C 	0.2297	0.7937	0.7322	0.282
Mof_H 	H 	0.1683	0.3119	0.4848	0.093
Mof_C 	C 	0.1551	0.3536	0.41	0.119
Mof_C 	C 	0.0645	0.3402	0.3625	0.108
Mof_H 	H 	0.0137	0.2915	0.4047	0.091
Mof_H 	H 	0.8238	0.7716	0.2268	0.048
Mof_C 	C 	0.9096	0.6236	0.2741	-0.149
Mof_C 	C 	0.9309	0.7313	0.2508	-0.146
Mof_H 	H 	0.2199	0.7465	0.8299	0.054
Mof_C 	C 	0.2757	0.5978	0.9194	-0.142
Mof_C 	C 	0.2378	0.7018	0.9342	-0.139
Mof_H 	H 	0.1915	0.3688	0.4113	-0.02
Mof_C 	C 	0.1168	0.3652	0.364	-0.209
Mof_H 	H 	0.0383	0.3453	0.3306	-0.004
Mof_H 	H 	0.8878	0.5943	0.2906	0.077
Mof_C 	C 	0.9537	0.6011	0.2518	0.089
Mof_C 	C 	0.9761	0.7087	0.229	0.083
Mof_H 	H 	0.9236	0.7762	0.2505	0.084
Mof_H 	H 	0.2957	0.5702	0.8993	0.076
Mof_C 	C 	0.2558	0.5744	0.9652	0.094
Mof_C 	C 	0.2199	0.6774	0.9808	0.077
Mof_H 	H 	0.2305	0.7453	0.9239	0.079
Mof_C 	C 	0.1298	0.4066	0.3183	0.491
Mof_H 	H 	0.9612	0.5562	0.2522	-0.012
Mof_C 	C 	0.9873	0.6434	0.2288	-0.185
Mof_H 	H 	0.9991	0.7382	0.2142	0.01
Mof_H 	H 	0.2608	0.5302	0.9746	0.016
Mof_C 	C 	0.2296	0.6134	0.9964	-0.187
Mof_H 	H 	0.201	0.7049	0.0021	0.014
Mof_C 	C 	0.0343	0.6172	0.2045	0.452
Mof_C 	C 	0.2078	0.5867	0.0464	0.574
Mof_O 	O 	0.24	0.5397	0.0678	-0.383
Mof_Gd	Gd	0.21185	0.03497	0.62448	1.858
Mof_O 	O 	0.18625	0.0643	0.7088	-0.845
Mof_O 	O 	0.23454	0.95	0.6891	-0.871
Mof_O 	O 	0.13012	0.979	0.63041	-0.878
Mof_O 	O 	0.1491	0.12	0.5966	-0.48
Mof_O 	O 	0.2915	0.0963	0.6628	-0.458
Mof_O 	O 	0.2584	0.1118	0.5756	-0.405
Mof_O 	O 	0.1955	0.9755	0.5433	-0.365
Mof_Gd	Gd	0.08646	0.03312	0.69537	1.656
Mof_Gd	Gd	0.22823	0.99412	0.77827	1.937
Mof_H 	H 	0.1917	0.1039	0.7165	0.311
Mof_Gd	Gd	0.15808	0.87577	0.66527	1.859
Mof_H 	H 	0.2654	0.9329	0.6874	0.322
Mof_H 	H 	0.1095	0.9765	0.5998	0.307
Mof_O 	O 	0.14331	0.9512	0.73682	-0.858
Mof_O 	O 	0.0313	0.9424	0.6918	-0.522
Mof_O 	O 	0.0945	0.1364	0.6586	-0.502
Mof_O 	O 	0.0941	0.0904	0.7766	-0.518
Mof_O 	O 	0.29873	0.925	0.81708	-0.842
Mof_O 	O 	0.274	0.0352	0.86462	-0.825
Mof_O 	O 	0.31762	0.0386	0.76989	-0.844
Mof_O 	O 	0.1861	0.9229	0.83688	-0.511
Mof_O 	O 	0.1724	0.0613	0.8268	-0.514
Mof_O 	O 	0.1245	0.7738	0.619	-0.386
Mof_O 	O 	0.0821	0.8622	0.5857	-0.416
Mof_O 	O 	0.0724	0.8467	0.6982	-0.456
Mof_O 	O 	0.2402	0.8065	0.68583	-0.391
Mof_O 	O 	0.1879	0.8169	0.74912	-0.414
Mof_O 	O 	0.1982	0.8758	0.58069	-0.499
Mof_H 	H 	0.1278	0.932	0.7604	0.324
Mof_Gd	Gd	0.3178	0.95027	0.91665	1.602
Mof_Gd	Gd	0.38426	0.95181	0.79204	1.69
Mof_H 	H 	0.2906	0.8856	0.8111	0.311
Mof_Gd	Gd	0.34264	0.10991	0.84414	1.69
Mof_H 	H 	0.2513	0.054	0.8816	0.317
Mof_H 	H 	0.3188	0.0558	0.7392	0.317
Mof_C 	C 	0.1909	0.9014	0.8834	0.486
Mof_C 	C 	0.0885	0.8034	0.5852	0.37
Mof_O 	O 	0.38204	0.0094	0.87249	-0.858
Mof_O 	O 	0.3291	0.036	0.97682	-0.523
Mof_O 	O 	0.2299	0.9123	0.921	-0.506
Mof_O 	O 	0.3356	0.8417	0.8982	-0.474
Mof_O 	O 	0.3983	0.8525	0.8422	-0.479
Mof_O 	O 	0.4326	0.0339	0.7551	-0.484
Mof_O 	O 	0.3481	0.9047	0.7061	-0.465
Mof_O 	O 	0.434	0.8831	0.7386	-0.42
Mof_O 	O 	0.3317	0.1318	0.9363	-0.5
Mof_O 	O 	0.42847	0.1165	0.8124	-0.496
Mof_O 	O 	0.3263	0.1823	0.76293	-0.389
Mof_O 	O 	0.2586	0.1633	0.8086	-0.439
Mof_C 	C 	0.1444	0.8608	0.8972	-0.195
Mof_H 	H 	0.0658	0.7788	0.5584	-0.077
Mof_H 	H 	0.4134	0.0129	0.8919	0.257
Mof_C 	C 	0.3188	0.0957	0.9727	0.446
Mof_C 	C 	0.3803	0.8274	0.881	0.376
Mof_C 	C 	0.4514	0.086	0.7784	0.415
Mof_C 	C 	0.1045	0.836	0.8569	0.095
Mof_C 	C 	0.1383	0.8511	0.951	0.095
Mof_C 	C 	0.2903	0.1244	0.0163	-0.196
Mof_C 	C 	0.4148	0.777	0.9134	-0.104
Mof_C 	C 	0.5033	0.1116	0.7626	-0.17
Mof_H 	H 	0.1087	0.8409	0.8199	-0
Mof_C 	C 	0.0585	0.8041	0.8698	-0.159
Mof_C 	C 	0.0921	0.8197	0.9637	-0.162
Mof_H 	H 	0.1658	0.8659	0.9793	0.003
Mof_C 	C 	0.2684	0.0852	0.0522	0.097
Mof_C 	C 	0.2865	0.1904	0.0221	0.091
Mof_C 	C 	0.4001	0.7566	0.962	-0.024
Mof_C 	C 	0.4634	0.7565	0.8983	-0.024
Mof_C 	C 	0.5353	0.0732	0.7357	0.069
Mof_C 	C 	0.519	0.1755	0.7728	0.066
Mof_H 	H 	0.0319	0.7868	0.8417	0.085
Mof_C 	C 	0.0516	0.7976	0.9236	0.096
Mof_H 	H 	0.0885	0.8134	0.0007	0.09
Mof_H 	H 	0.2693	0.0398	0.0476	-0.011
Mof_C 	C 	0.2452	0.1101	0.0942	-0.161
Mof_C 	C 	0.2629	0.2166	0.0642	-0.159
Mof_H 	H 	0.3001	0.2182	0.997	0.004
Mof_C 	C 	0.435	0.7174	0.9967	-0.014
Mof_H 	H 	0.366	0.7696	0.9716	0.032
Mof_H 	H 	0.4724	0.7698	0.8644	0.044
Mof_C 	C 	0.4993	0.7166	0.9318	-0.008
Mof_H 	H 	0.5244	0.0299	0.7279	0.011
Mof_C 	C 	0.5834	0.0956	0.7195	-0.134
Mof_C 	C 	0.5663	0.1998	0.7558	-0.135
Mof_H 	H 	0.4974	0.2028	0.7915	0.01
Mof_C 	C 	0.9993	0.7701	0.9377	-0.033
Mof_H 	H 	0.2309	0.082	0.1185	0.081
Mof_C 	C 	0.2427	0.1765	0.1012	0.088
Mof_H 	H 	0.2605	0.262	0.0678	0.095
Mof_C 	C 	0.4217	0.6985	0.0503	0.054
Mof_C 	C 	0.4843	0.6973	0.9815	-0.067
Mof_C 	C 	0.5519	0.695	0.9179	0.046
Mof_H 	H 	0.6053	0.0675	0.7019	0.073
Mof_C 	C 	0.5993	0.1598	0.7293	0.067
Mof_H 	H 	0.576	0.2436	0.7622	0.083
Mof_C 	C 	0.969	0.7239	0.9058	0.003
Mof_C 	C 	0.9794	0.7936	0.9833	-0.038
Mof_C 	C 	0.2233	0.2039	0.1497	-0.014
Mof_C 	C 	0.3685	0.6818	0.0571	-0.116
Mof_C 	C 	0.4641	0.6967	0.0951	-0.114
Mof_H 	H 	0.5082	0.6701	0.005	0.051
Mof_C 	C 	0.5579	0.6806	0.8644	-0.101
Mof_C 	C 	0.5975	0.6883	0.9594	-0.1
Mof_C 	C 	0.6511	0.185	0.7121	0.003
Mof_H 	H 	0.9817	0.7078	0.8744	0.025
Mof_C 	C 	0.9198	0.7007	0.9196	-0.119
Mof_C 	C 	0.9306	0.7713	0.9973	-0.035
Mof_H 	H 	0.9996	0.8255	0.0052	0.045
Mof_C 	C 	0.2565	0.2463	0.1836	-0.031
Mof_C 	C 	0.1719	0.1862	0.1636	-0.059
Mof_C 	C 	0.3589	0.6592	0.1073	0.043
Mof_H 	H 	0.3391	0.6859	0.0278	0.076
Mof_H 	H 	0.4998	0.7109	0.0913	0.056
Mof_C 	C 	0.4539	0.6744	0.1446	0.037
Mof_H 	H 	0.5279	0.6866	0.8359	0.071
Mof_C 	C 	0.6078	0.6575	0.8527	0.024
Mof_C 	C 	0.6457	0.6639	0.9466	0.021
Mof_H 	H 	0.5949	0.7004	0.9957	0.055
Mof_C 	C 	0.6671	0.1643	0.6634	-0.067
Mof_C 	C 	0.684	0.2277	0.7455	-0.043
Mof_C 	C 	0.8998	0.7244	0.9647	0.004
Mof_C 	C 	0.8905	0.6479	0.8851	0.414
Mof_C 	C 	0.9119	0.7995	0.0462	0.106
Mof_H 	H 	0.2912	0.2585	0.175	0.055
Mof_C 	C 	0.2392	0.2708	0.2301	-0.072
Mof_C 	C 	0.1545	0.2112	0.2094	-0.007
Mof_H 	H 	0.1492	0.1568	0.1412	0.051
Mof_C 	C 	0.4014	0.6533	0.151	-0.121
Mof_H 	H 	0.3228	0.6477	0.1119	0.031
Mof_H 	H 	0.4828	0.6734	0.1747	0.026
Mof_H 	H 	0.612	0.6481	0.8163	0.037
Mof_C 	C 	0.6509	0.6485	0.8946	-0.092
Mof_H 	H 	0.676	0.6578	0.9747	0.034
Mof_H 	H 	0.6446	0.135	0.6406	0.055
Mof_C 	C 	0.7158	0.1865	0.6482	0.003
Mof_C 	C 	0.7333	0.25	0.7304	-0.055
Mof_H 	H 	0.6733	0.2419	0.7784	0.055
Mof_H 	H 	0.866	0.7093	0.9735	0.04
Mof_C 	C 	0.8588	0.8203	0.0458	-0.177
Mof_C 	C 	0.9502	0.808	0.0935	-0.168
Mof_C 	C 	0.1883	0.2538	0.2421	-0.036
Mof_C 	C 	0.2769	0.311	0.2688	0.287
Mof_C 	C 	0.1032	0.1897	0.2273	0.082
Mof_C 	C 	0.3935	0.6211	0.2016	0.344
Mof_C 	C 	0.7035	0.6172	0.8844	0.296
Mof_C 	C 	0.7478	0.23	0.6811	-0.041
Mof_C 	C 	0.7339	0.1625	0.597	0.073
Mof_C 	C 	0.7703	0.2937	0.7678	0.282
Mof_H 	H 	0.8317	0.8119	0.0152	0.094
Mof_C 	C 	0.8449	0.8536	0.09	0.12
Mof_C 	C 	0.9355	0.8402	0.1375	0.109
Mof_H 	H 	0.9863	0.7915	0.0953	0.091
Mof_H 	H 	0.1762	0.2716	0.2732	0.048
Mof_C 	C 	0.0904	0.1236	0.2259	-0.149
Mof_C 	C 	0.0691	0.2313	0.2492	-0.147
Mof_H 	H 	0.7801	0.2465	0.6701	0.054
Mof_C 	C 	0.7243	0.0978	0.5806	-0.142
Mof_C 	C 	0.7622	0.2018	0.5658	-0.14
Mof_H 	H 	0.8085	0.8688	0.0887	-0.019
Mof_C 	C 	0.8832	0.8652	0.136	-0.21
Mof_H 	H 	0.9617	0.8453	0.1694	-0.004
Mof_H 	H 	0.1122	0.0943	0.2094	0.077
Mof_C 	C 	0.0463	0.1011	0.2482	0.089
Mof_C 	C 	0.0239	0.2087	0.271	0.083
Mof_H 	H 	0.0764	0.2762	0.2495	0.084
Mof_H 	H 	0.7043	0.0702	0.6007	0.077
Mof_C 	C 	0.7442	0.0744	0.5348	0.094
Mof_C 	C 	0.7801	0.1774	0.5192	0.08
Mof_H 	H 	0.7695	0.2453	0.5761	0.08
Mof_C 	C 	0.8702	0.9066	0.1817	0.491
Mof_H 	H 	0.0388	0.0562	0.2478	-0.012
Mof_C 	C 	0.0127	0.1434	0.2712	-0.185
Mof_H 	H 	0.0009	0.2382	0.2858	0.01
Mof_H 	H 	0.7392	0.0302	0.5254	0.016
Mof_C 	C 	0.7704	0.1134	0.5036	-0.187
Mof_H 	H 	0.799	0.2049	0.4979	0.013
Mof_C 	C 	0.9657	0.1172	0.2955	0.452
Mof_C 	C 	0.7922	0.0867	0.4536	0.573
Mof_O 	O 	0.76	0.0397	0.4322	-0.383
Mof_Gd	Gd	0.21185	0.46503	0.12448	1.857
Mof_O 	O 	0.18625	0.4357	0.2088	-0.846
Mof_O 	O 	0.23454	0.55	0.1891	-0.871
Mof_O 	O 	0.13012	0.521	0.13041	-0.878
Mof_O 	O 	0.1491	0.38	0.0966	-0.48
Mof_O 	O 	0.2915	0.4037	0.1628	-0.459
Mof_O 	O 	0.2584	0.3882	0.0756	-0.405
Mof_O 	O 	0.1955	0.5245	0.0433	-0.365
Mof_Gd	Gd	0.08646	0.46688	0.19537	1.654
Mof_Gd	Gd	0.22823	0.50588	0.27827	1.939
Mof_H 	H 	0.1917	0.3961	0.2165	0.311
Mof_Gd	Gd	0.15808	0.62423	0.16527	1.859
Mof_H 	H 	0.2654	0.5671	0.1874	0.322
Mof_H 	H 	0.1095	0.5235	0.0998	0.307
Mof_O 	O 	0.14331	0.5488	0.23682	-0.858
Mof_O 	O 	0.0313	0.5576	0.1918	-0.522
Mof_O 	O 	0.0945	0.3636	0.1586	-0.502
Mof_O 	O 	0.0941	0.4096	0.2766	-0.519
Mof_O 	O 	0.29873	0.575	0.31708	-0.842
Mof_O 	O 	0.274	0.4648	0.36462	-0.826
Mof_O 	O 	0.31762	0.4614	0.26989	-0.845
Mof_O 	O 	0.1861	0.5771	0.33688	-0.511
Mof_O 	O 	0.1724	0.4387	0.3268	-0.515
Mof_O 	O 	0.1245	0.7262	0.119	-0.385
Mof_O 	O 	0.0821	0.6378	0.0857	-0.416
Mof_O 	O 	0.0724	0.6533	0.1982	-0.456
Mof_O 	O 	0.2402	0.6935	0.18583	-0.391
Mof_O 	O 	0.1879	0.6831	0.24912	-0.414
Mof_O 	O 	0.1982	0.6242	0.08069	-0.499
Mof_H 	H 	0.1278	0.568	0.2604	0.324
Mof_Gd	Gd	0.3178	0.54973	0.41665	1.605
Mof_Gd	Gd	0.38426	0.54819	0.29204	1.692
Mof_H 	H 	0.2906	0.6144	0.3111	0.311
Mof_Gd	Gd	0.34264	0.39009	0.34414	1.69
Mof_H 	H 	0.2513	0.446	0.3816	0.317
Mof_H 	H 	0.3188	0.4442	0.2392	0.318
Mof_C 	C 	0.1909	0.5986	0.3834	0.485
Mof_C 	C 	0.0885	0.6966	0.0852	0.37
Mof_O 	O 	0.38204	0.4906	0.37249	-0.859
Mof_O 	O 	0.3291	0.464	0.47682	-0.525
Mof_O 	O 	0.2299	0.5877	0.421	-0.506
Mof_O 	O 	0.3356	0.6583	0.3982	-0.474
Mof_O 	O 	0.3983	0.6475	0.3422	-0.479
Mof_O 	O 	0.4326	0.4661	0.2551	-0.485
Mof_O 	O 	0.3481	0.5953	0.2061	-0.465
Mof_O 	O 	0.434	0.6169	0.2386	-0.42
Mof_O 	O 	0.3317	0.3682	0.4363	-0.5
Mof_O 	O 	0.42847	0.3835	0.3124	-0.496
Mof_O 	O 	0.3263	0.3177	0.26293	-0.389
Mof_O 	O 	0.2586	0.3367	0.3086	-0.44
Mof_C 	C 	0.1444	0.6392	0.3972	-0.194
Mof_H 	H 	0.0658	0.7212	0.0584	-0.077
Mof_H 	H 	0.4134	0.4871	0.3919	0.257
Mof_C 	C 	0.3188	0.4043	0.4727	0.445
Mof_C 	C 	0.3803	0.6726	0.381	0.376
Mof_C 	C 	0.4514	0.414	0.2784	0.415
Mof_C 	C 	0.1045	0.664	0.3569	0.094
Mof_C 	C 	0.1383	0.6489	0.451	0.093
Mof_C 	C 	0.2903	0.3756	0.5163	-0.195
Mof_C 	C 	0.4148	0.723	0.4134	-0.104
Mof_C 	C 	0.5033	0.3884	0.2626	-0.17
Mof_H 	H 	0.1087	0.6591	0.3199	0
Mof_C 	C 	0.0585	0.6959	0.3698	-0.158
Mof_C 	C 	0.0921	0.6803	0.4637	-0.158
Mof_H 	H 	0.1658	0.6341	0.4793	0.004
Mof_C 	C 	0.2684	0.4148	0.5522	0.097
Mof_C 	C 	0.2865	0.3096	0.5221	0.093
Mof_C 	C 	0.4001	0.7434	0.462	-0.024
Mof_C 	C 	0.4634	0.7435	0.3983	-0.023
Mof_C 	C 	0.5353	0.4268	0.2357	0.069
Mof_C 	C 	0.519	0.3245	0.2728	0.066
Mof_H 	H 	0.0319	0.7132	0.3417	0.084
Mof_C 	C 	0.0516	0.7024	0.4236	0.095
Mof_H 	H 	0.0885	0.6866	0.5007	0.088
Mof_H 	H 	0.2693	0.4602	0.5476	-0.011
Mof_C 	C 	0.2452	0.3899	0.5942	-0.161
Mof_C 	C 	0.2629	0.2834	0.5642	-0.16
Mof_H 	H 	0.3001	0.2818	0.497	0.002
Mof_C 	C 	0.435	0.7826	0.4967	-0.013
Mof_H 	H 	0.366	0.7304	0.4716	0.032
Mof_H 	H 	0.4724	0.7302	0.3644	0.044
Mof_C 	C 	0.4993	0.7834	0.4318	-0.008
Mof_H 	H 	0.5244	0.4701	0.2279	0.01
Mof_C 	C 	0.5834	0.4044	0.2195	-0.134
Mof_C 	C 	0.5663	0.3002	0.2558	-0.136
Mof_H 	H 	0.4974	0.2972	0.2915	0.01
Mof_C 	C 	0.9993	0.7299	0.4377	-0.033
Mof_H 	H 	0.2309	0.418	0.6185	0.081
Mof_C 	C 	0.2427	0.3235	0.6012	0.089
Mof_H 	H 	0.2605	0.238	0.5678	0.096
Mof_C 	C 	0.4217	0.8015	0.5503	0.053
Mof_C 	C 	0.4843	0.8027	0.4815	-0.066
Mof_C 	C 	0.5519	0.805	0.4179	0.047
Mof_H 	H 	0.6053	0.4325	0.2019	0.073
Mof_C 	C 	0.5993	0.3402	0.2293	0.067
Mof_H 	H 	0.576	0.2564	0.2622	0.083
Mof_C 	C 	0.969	0.7761	0.4058	0.003
Mof_C 	C 	0.9794	0.7064	0.4833	-0.036
Mof_C 	C 	0.2233	0.2961	0.6497	-0.014
Mof_C 	C 	0.3685	0.8182	0.5571	-0.115
Mof_C 	C 	0.4641	0.8033	0.5951	-0.113
Mof_H 	H 	0.5082	0.8299	0.505	0.05
Mof_C 	C 	0.5579	0.8194	0.3644	-0.101
Mof_C 	C 	0.5975	0.8117	0.4594	-0.1
Mof_C 	C 	0.6511	0.315	0.2121	0.003
Mof_H 	H 	0.9817	0.7922	0.3744	0.025
Mof_C 	C 	0.9198	0.7993	0.4196	-0.118
Mof_C 	C 	0.9306	0.7287	0.4973	-0.034
Mof_H 	H 	0.9996	0.6745	0.5052	0.044
Mof_C 	C 	0.2565	0.2537	0.6836	-0.031
Mof_C 	C 	0.1719	0.3138	0.6636	-0.059
Mof_C 	C 	0.3589	0.8408	0.6073	0.042
Mof_H 	H 	0.3391	0.8141	0.5278	0.075
Mof_H 	H 	0.4998	0.7891	0.5913	0.056
Mof_C 	C 	0.4539	0.8256	0.6446	0.037
Mof_H 	H 	0.5279	0.8134	0.3359	0.071
Mof_C 	C 	0.6078	0.8425	0.3527	0.024
Mof_C 	C 	0.6457	0.8361	0.4466	0.021
Mof_H 	H 	0.5949	0.7996	0.4957	0.055
Mof_C 	C 	0.6671	0.3357	0.1634	-0.067
Mof_C 	C 	0.684	0.2723	0.2455	-0.043
Mof_C 	C 	0.8998	0.7756	0.4647	0.004
Mof_C 	C 	0.8905	0.8521	0.3851	0.414
Mof_C 	C 	0.9119	0.7005	0.5462	0.105
Mof_H 	H 	0.2912	0.2415	0.675	0.055
Mof_C 	C 	0.2392	0.2292	0.7301	-0.072
Mof_C 	C 	0.1545	0.2888	0.7094	-0.007
Mof_H 	H 	0.1492	0.3432	0.6412	0.051
Mof_C 	C 	0.4014	0.8467	0.651	-0.121
Mof_H 	H 	0.3228	0.8523	0.6119	0.031
Mof_H 	H 	0.4828	0.8266	0.6747	0.027
Mof_H 	H 	0.612	0.8519	0.3163	0.037
Mof_C 	C 	0.6509	0.8515	0.3946	-0.092
Mof_H 	H 	0.676	0.8422	0.4747	0.034
Mof_H 	H 	0.6446	0.365	0.1406	0.055
Mof_C 	C 	0.7158	0.3135	0.1482	0.003
Mof_C 	C 	0.7333	0.25	0.2304	-0.055
Mof_H 	H 	0.6733	0.2581	0.2784	0.055
Mof_H 	H 	0.866	0.7907	0.4735	0.04
Mof_C 	C 	0.8588	0.6797	0.5458	-0.176
Mof_C 	C 	0.9502	0.692	0.5935	-0.168
Mof_C 	C 	0.1883	0.2462	0.7421	-0.036
Mof_C 	C 	0.2769	0.189	0.7688	0.287
Mof_C 	C 	0.1032	0.3103	0.7273	0.082
Mof_C 	C 	0.3935	0.8789	0.7016	0.344
Mof_C 	C 	0.7035	0.8828	0.3844	0.296
Mof_C 	C 	0.7478	0.27	0.1811	-0.041
Mof_C 	C 	0.7339	0.3375	0.097	0.072
Mof_C 	C 	0.7703	0.2063	0.2678	0.282
Mof_H 	H 	0.8317	0.6881	0.5152	0.093
Mof_C 	C 	0.8449	0.6464	0.59	0.119
Mof_C 	C 	0.9355	0.6598	0.6375	0.108
Mof_H 	H 	0.9863	0.7085	0.5953	0.091
Mof_H 	H 	0.1762	0.2284	0.7732	0.048
Mof_C 	C 	0.0904	0.3764	0.7259	-0.149
Mof_C 	C 	0.0691	0.2687	0.7492	-0.146
Mof_H 	H 	0.7801	0.2535	0.1701	0.054
Mof_C 	C 	0.7243	0.4022	0.0806	-0.142
Mof_C 	C 	0.7622	0.2982	0.0658	-0.139
Mof_H 	H 	0.8085	0.6312	0.5887	-0.02
Mof_C 	C 	0.8832	0.6348	0.636	-0.209
Mof_H 	H 	0.9617	0.6547	0.6694	-0.004
Mof_H 	H 	0.1122	0.4057	0.7094	0.077
Mof_C 	C 	0.0463	0.3989	0.7482	0.089
Mof_C 	C 	0.0239	0.2913	0.771	0.083
Mof_H 	H 	0.0764	0.2238	0.7495	0.084
Mof_H 	H 	0.7043	0.4298	0.1007	0.076
Mof_C 	C 	0.7442	0.4256	0.0348	0.094
Mof_C 	C 	0.7801	0.3226	0.0192	0.077
Mof_H 	H 	0.7695	0.2547	0.0761	0.079
Mof_C 	C 	0.8702	0.5934	0.6817	0.491
Mof_H 	H 	0.0388	0.4438	0.7478	-0.012
Mof_C 	C 	0.0127	0.3566	0.7712	-0.185
Mof_H 	H 	0.0009	0.2618	0.7858	0.01
Mof_H 	H 	0.7392	0.4698	0.0254	0.016
Mof_C 	C 	0.7704	0.3866	0.0036	-0.187
Mof_H 	H 	0.799	0.2951	0.9979	0.014
Mof_C 	C 	0.9657	0.3828	0.7955	0.452
Mof_C 	C 	0.7922	0.4133	0.9536	0.574
Mof_O 	O 	0.76	0.4603	0.9322	-0.383
Mof_Gd	Gd	0.78815	0.96503	0.37552	1.858
Mof_O 	O 	0.81375	0.9357	0.2912	-0.845
Mof_O 	O 	0.76546	0.05	0.3109	-0.871
Mof_O 	O 	0.86988	0.021	0.36959	-0.878
Mof_O 	O 	0.8509	0.88	0.4034	-0.48
Mof_O 	O 	0.7085	0.9037	0.3372	-0.458
Mof_O 	O 	0.7416	0.8882	0.4244	-0.405
Mof_O 	O 	0.8045	0.0245	0.4567	-0.365
Mof_Gd	Gd	0.91354	0.96688	0.30463	1.656
Mof_Gd	Gd	0.77177	0.00588	0.22173	1.937
Mof_H 	H 	0.8083	0.8961	0.2835	0.311
Mof_Gd	Gd	0.84192	0.12423	0.33473	1.859
Mof_H 	H 	0.7346	0.0671	0.3126	0.322
Mof_H 	H 	0.8905	0.0235	0.4002	0.307
Mof_O 	O 	0.85669	0.0488	0.26318	-0.858
Mof_O 	O 	0.9687	0.0576	0.3082	-0.522
Mof_O 	O 	0.9055	0.8636	0.3414	-0.502
Mof_O 	O 	0.9059	0.9096	0.2234	-0.518
Mof_O 	O 	0.70127	0.075	0.18292	-0.842
Mof_O 	O 	0.726	0.9648	0.13538	-0.825
Mof_O 	O 	0.68238	0.9614	0.23011	-0.844
Mof_O 	O 	0.8139	0.0771	0.16312	-0.511
Mof_O 	O 	0.8276	0.9387	0.1732	-0.514
Mof_O 	O 	0.8755	0.2262	0.381	-0.386
Mof_O 	O 	0.9179	0.1378	0.4143	-0.416
Mof_O 	O 	0.9276	0.1533	0.3018	-0.456
Mof_O 	O 	0.7598	0.1935	0.31417	-0.391
Mof_O 	O 	0.8121	0.1831	0.25088	-0.414
Mof_O 	O 	0.8018	0.1242	0.41931	-0.499
Mof_H 	H 	0.8722	0.068	0.2396	0.324
Mof_Gd	Gd	0.6822	0.04973	0.08335	1.602
Mof_Gd	Gd	0.61574	0.04819	0.20796	1.69
Mof_H 	H 	0.7094	0.1144	0.1889	0.311
Mof_Gd	Gd	0.65736	0.89009	0.15586	1.69
Mof_H 	H 	0.7487	0.946	0.1184	0.317
Mof_H 	H 	0.6812	0.9442	0.2608	0.317
Mof_C 	C 	0.8091	0.0986	0.1166	0.486
Mof_C 	C 	0.9115	0.1966	0.4148	0.37
Mof_O 	O 	0.61796	0.9906	0.12751	-0.858
Mof_O 	O 	0.6709	0.964	0.02318	-0.523
Mof_O 	O 	0.7701	0.0877	0.079	-0.506
Mof_O 	O 	0.6644	0.1583	0.1018	-0.474
Mof_O 	O 	0.6017	0.1475	0.1578	-0.479
Mof_O 	O 	0.5674	0.9661	0.2449	-0.484
Mof_O 	O 	0.6519	0.0953	0.2939	-0.465
Mof_O 	O 	0.566	0.1169	0.2614	-0.42
Mof_O 	O 	0.6683	0.8682	0.0637	-0.5
Mof_O 	O 	0.57153	0.8835	0.1876	-0.496
Mof_O 	O 	0.6737	0.8177	0.23707	-0.389
Mof_O 	O 	0.7414	0.8367	0.1914	-0.439
Mof_C 	C 	0.8556	0.1392	0.1028	-0.195
Mof_H 	H 	0.9342	0.2212	0.4416	-0.077
Mof_H 	H 	0.5866	0.9871	0.1081	0.257
Mof_C 	C 	0.6812	0.9043	0.0273	0.446
Mof_C 	C 	0.6197	0.1726	0.119	0.376
Mof_C 	C 	0.5486	0.914	0.2216	0.415
Mof_C 	C 	0.8955	0.164	0.1431	0.095
Mof_C 	C 	0.8617	0.1489	0.049	0.095
Mof_C 	C 	0.7097	0.8756	0.9837	-0.196
Mof_C 	C 	0.5852	0.223	0.0866	-0.104
Mof_C 	C 	0.4967	0.8884	0.2374	-0.17
Mof_H 	H 	0.8913	0.1591	0.1801	-0
Mof_C 	C 	0.9415	0.1959	0.1302	-0.159
Mof_C 	C 	0.9079	0.1803	0.0363	-0.162
Mof_H 	H 	0.8342	0.1341	0.0207	0.003
Mof_C 	C 	0.7316	0.9148	0.9478	0.097
Mof_C 	C 	0.7135	0.8096	0.9779	0.091
Mof_C 	C 	0.5999	0.2434	0.038	-0.024
Mof_C 	C 	0.5366	0.2435	0.1017	-0.024
Mof_C 	C 	0.4647	0.9268	0.2643	0.069
Mof_C 	C 	0.481	0.8245	0.2272	0.066
Mof_H 	H 	0.9681	0.2132	0.1583	0.085
Mof_C 	C 	0.9484	0.2024	0.0764	0.096
Mof_H 	H 	0.9115	0.1866	0.9993	0.09
Mof_H 	H 	0.7307	0.9602	0.9524	-0.011
Mof_C 	C 	0.7548	0.8899	0.9058	-0.161
Mof_C 	C 	0.7371	0.7834	0.9358	-0.159
Mof_H 	H 	0.6999	0.7818	0.003	0.004
Mof_C 	C 	0.565	0.2826	0.0033	-0.014
Mof_H 	H 	0.634	0.2304	0.0284	0.032
Mof_H 	H 	0.5276	0.2302	0.1356	0.044
Mof_C 	C 	0.5007	0.2834	0.0682	-0.008
Mof_H 	H 	0.4756	0.9701	0.2721	0.011
Mof_C 	C 	0.4166	0.9044	0.2805	-0.134
Mof_C 	C 	0.4337	0.8002	0.2442	-0.135
Mof_H 	H 	0.5026	0.7972	0.2085	0.01
Mof_C 	C 	0.0007	0.2299	0.0623	-0.033
Mof_H 	H 	0.7691	0.918	0.8815	0.081
Mof_C 	C 	0.7573	0.8235	0.8988	0.088
Mof_H 	H 	0.7395	0.738	0.9322	0.095
Mof_C 	C 	0.5783	0.3015	0.9497	0.054
Mof_C 	C 	0.5157	0.3027	0.0185	-0.067
Mof_C 	C 	0.4481	0.305	0.0821	0.046
Mof_H 	H 	0.3947	0.9325	0.2981	0.073
Mof_C 	C 	0.4007	0.8402	0.2707	0.067
Mof_H 	H 	0.424	0.7564	0.2378	0.083
Mof_C 	C 	0.031	0.2761	0.0942	0.003
Mof_C 	C 	0.0206	0.2064	0.0167	-0.038
Mof_C 	C 	0.7767	0.7961	0.8503	-0.014
Mof_C 	C 	0.6315	0.3182	0.9429	-0.116
Mof_C 	C 	0.5359	0.3033	0.9049	-0.114
Mof_H 	H 	0.4918	0.3299	0.995	0.051
Mof_C 	C 	0.4421	0.3194	0.1356	-0.101
Mof_C 	C 	0.4025	0.3117	0.0406	-0.1
Mof_C 	C 	0.3489	0.815	0.2879	0.003
Mof_H 	H 	0.0183	0.2922	0.1256	0.025
Mof_C 	C 	0.0802	0.2993	0.0804	-0.119
Mof_C 	C 	0.0694	0.2287	0.0027	-0.035
Mof_H 	H 	0.0004	0.1745	0.9948	0.045
Mof_C 	C 	0.7435	0.7537	0.8164	-0.031
Mof_C 	C 	0.8281	0.8138	0.8364	-0.059
Mof_C 	C 	0.6411	0.3408	0.8927	0.043
Mof_H 	H 	0.6609	0.3141	0.9722	0.076
Mof_H 	H 	0.5002	0.2891	0.9087	0.056
Mof_C 	C 	0.5461	0.3256	0.8554	0.037
Mof_H 	H 	0.4721	0.3134	0.1641	0.071
Mof_C 	C 	0.3922	0.3425	0.1473	0.024
Mof_C 	C 	0.3543	0.3361	0.0534	0.021
Mof_H 	H 	0.4051	0.2996	0.0043	0.055
Mof_C 	C 	0.3329	0.8357	0.3366	-0.067
Mof_C 	C 	0.316	0.7723	0.2545	-0.043
Mof_C 	C 	0.1002	0.2756	0.0353	0.004
Mof_C 	C 	0.1095	0.3521	0.1149	0.414
Mof_C 	C 	0.0881	0.2005	0.9538	0.106
Mof_H 	H 	0.7088	0.7415	0.825	0.055
Mof_C 	C 	0.7608	0.7292	0.7699	-0.072
Mof_C 	C 	0.8455	0.7888	0.7906	-0.007
Mof_H 	H 	0.8508	0.8432	0.8588	0.051
Mof_C 	C 	0.5986	0.3467	0.849	-0.121
Mof_H 	H 	0.6772	0.3523	0.8881	0.031
Mof_H 	H 	0.5172	0.3266	0.8253	0.026
Mof_H 	H 	0.388	0.3519	0.1837	0.037
Mof_C 	C 	0.3491	0.3515	0.1054	-0.092
Mof_H 	H 	0.324	0.3422	0.0253	0.034
Mof_H 	H 	0.3554	0.865	0.3594	0.055
Mof_C 	C 	0.2842	0.8135	0.3518	0.003
Mof_C 	C 	0.2667	0.75	0.2696	-0.055
Mof_H 	H 	0.3267	0.7581	0.2216	0.055
Mof_H 	H 	0.134	0.2907	0.0265	0.04
Mof_C 	C 	0.1412	0.1797	0.9542	-0.177
Mof_C 	C 	0.0498	0.192	0.9065	-0.168
Mof_C 	C 	0.8117	0.7462	0.7579	-0.036
Mof_C 	C 	0.7231	0.689	0.7312	0.287
Mof_C 	C 	0.8968	0.8103	0.7727	0.082
Mof_C 	C 	0.6065	0.3789	0.7984	0.344
Mof_C 	C 	0.2965	0.3828	0.1156	0.296
Mof_C 	C 	0.2522	0.77	0.3189	-0.041
Mof_C 	C 	0.2661	0.8375	0.403	0.073
Mof_C 	C 	0.2297	0.7063	0.2322	0.282
Mof_H 	H 	0.1683	0.1881	0.9848	0.094
Mof_C 	C 	0.1551	0.1464	0.91	0.12
Mof_C 	C 	0.0645	0.1598	0.8625	0.109
Mof_H 	H 	0.0137	0.2085	0.9047	0.091
Mof_H 	H 	0.8238	0.7284	0.7268	0.048
Mof_C 	C 	0.9096	0.8764	0.7741	-0.149
Mof_C 	C 	0.9309	0.7687	0.7508	-0.147
Mof_H 	H 	0.2199	0.7535	0.3299	0.054
Mof_C 	C 	0.2757	0.9022	0.4194	-0.142
Mof_C 	C 	0.2378	0.7982	0.4342	-0.14
Mof_H 	H 	0.1915	0.1312	0.9113	-0.019
Mof_C 	C 	0.1168	0.1348	0.864	-0.21
Mof_H 	H 	0.0383	0.1547	0.8306	-0.004
Mof_H 	H 	0.8878	0.9057	0.7906	0.077
Mof_C 	C 	0.9537	0.8989	0.7518	0.089
Mof_C 	C 	0.9761	0.7913	0.729	0.083
Mof_H 	H 	0.9236	0.7238	0.7505	0.084
Mof_H 	H 	0.2957	0.9298	0.3993	0.077
Mof_C 	C 	0.2558	0.9256	0.4652	0.094
Mof_C 	C 	0.2199	0.8226	0.4808	0.08
Mof_H 	H 	0.2305	0.7547	0.4239	0.08
Mof_C 	C 	0.1298	0.0934	0.8183	0.491
Mof_H 	H 	0.9612	0.9438	0.7522	-0.012
Mof_C 	C 	0.9873	0.8566	0.7288	-0.185
Mof_H 	H 	0.9991	0.7618	0.7142	0.01
Mof_H 	H 	0.2608	0.9698	0.4746	0.016
Mof_C 	C 	0.2296	0.8866	0.4964	-0.187
Mof_H 	H 	0.201	0.7951	0.5021	0.013
Mof_C 	C 	0.0343	0.8828	0.7045	0.452
Mof_C 	C 	0.2078	0.9133	0.5464	0.573
Mof_O 	O 	0.24	0.9603	0.5678	-0.383
_end
