# CIF file generated by openbabel 3.1.0, see https://openbabel.org
data_I
_chemical_name_common 'image0'
_cell_length_a 17.5235
_cell_length_b 17.5235
_cell_length_c 17.5235
_cell_angle_alpha 90
_cell_angle_beta 90
_cell_angle_gamma 90
_space_group_name_H-M_alt 'P 1'
_space_group_name_Hall 'P 1'
loop_
    _symmetry_equiv_pos_as_xyz
    x,y,z
loop_
    _atom_site_label
    _atom_site_type_symbol
    _atom_site_fract_x
    _atom_site_fract_y
    _atom_site_fract_z
    _atom_site_occupancy
    Cu1      Cu       0.91463    0.35388    0.99524    1.000
    C1       C        0.02060    0.24540    0.00030    1.000
    O1       O        0.98920    0.28510    0.95050    1.000
    O2       O        0.05600    0.18460    0.98840    1.000
    C2       C        0.01350    0.27010    0.08390    1.000
    O3       O        0.96130    0.32820    0.09160    1.000
    O4       O        0.99670    0.20570    0.12850    1.000
    C3       C        0.09350    0.29490    0.11140    1.000
    O5       O        0.10230    0.36520    0.12950    1.000
    O6       O        0.14450    0.24580    0.11390    1.000
    Cu2      Cu       0.58537    0.64612    0.49524    1.000
    C4       C        0.47940    0.75460    0.50030    1.000
    O7       O        0.51080    0.71490    0.45050    1.000
    O8       O        0.44400    0.81540    0.48840    1.000
    C5       C        0.48650    0.72990    0.58390    1.000
    O9       O        0.53870    0.67180    0.59160    1.000
    O10      O        0.50330    0.79430    0.62850    1.000
    C6       C        0.40650    0.70510    0.61140    1.000
    O11      O        0.39770    0.63480    0.62950    1.000
    O12      O        0.35550    0.75420    0.61390    1.000
    Cu3      Cu       0.08537    0.85388    0.50476    1.000
    C7       C        0.97940    0.74540    0.49970    1.000
    O13      O        0.01080    0.78510    0.54950    1.000
    O14      O        0.94400    0.68460    0.51160    1.000
    C8       C        0.98650    0.77010    0.41610    1.000
    O15      O        0.03870    0.82820    0.40840    1.000
    O16      O        0.00330    0.70570    0.37150    1.000
    C9       C        0.90650    0.79490    0.38860    1.000
    O17      O        0.89770    0.86520    0.37050    1.000
    O18      O        0.85550    0.74580    0.38610    1.000
    Cu4      Cu       0.41463    0.14612    0.00476    1.000
    C10      C        0.52060    0.25460    0.99970    1.000
    O19      O        0.48920    0.21490    0.04950    1.000
    O20      O        0.55600    0.31540    0.01160    1.000
    C11      C        0.51350    0.22990    0.91610    1.000
    O21      O        0.46130    0.17180    0.90840    1.000
    O22      O        0.49670    0.29430    0.87150    1.000
    C12      C        0.59350    0.20510    0.88860    1.000
    O23      O        0.60230    0.13480    0.87050    1.000
    O24      O        0.64450    0.25420    0.88610    1.000
    Cu5      Cu       0.99524    0.91463    0.35388    1.000
    C13      C        0.00030    0.02060    0.24540    1.000
    O25      O        0.95050    0.98920    0.28510    1.000
    O26      O        0.98840    0.05600    0.18460    1.000
    C14      C        0.08390    0.01350    0.27010    1.000
    O27      O        0.09160    0.96130    0.32820    1.000
    O28      O        0.12850    0.99670    0.20570    1.000
    C15      C        0.11140    0.09350    0.29490    1.000
    O29      O        0.12950    0.10230    0.36520    1.000
    O30      O        0.11390    0.14450    0.24580    1.000
    Cu6      Cu       0.49524    0.58537    0.64612    1.000
    C16      C        0.50030    0.47940    0.75460    1.000
    O31      O        0.45050    0.51080    0.71490    1.000
    O32      O        0.48840    0.44400    0.81540    1.000
    C17      C        0.58390    0.48650    0.72990    1.000
    O33      O        0.59160    0.53870    0.67180    1.000
    O34      O        0.62850    0.50330    0.79430    1.000
    C18      C        0.61140    0.40650    0.70510    1.000
    O35      O        0.62950    0.39770    0.63480    1.000
    O36      O        0.61390    0.35550    0.75420    1.000
    Cu7      Cu       0.50476    0.08537    0.85388    1.000
    C19      C        0.49970    0.97940    0.74540    1.000
    O37      O        0.54950    0.01080    0.78510    1.000
    O38      O        0.51160    0.94400    0.68460    1.000
    C20      C        0.41610    0.98650    0.77010    1.000
    O39      O        0.40840    0.03870    0.82820    1.000
    O40      O        0.37150    0.00330    0.70570    1.000
    C21      C        0.38860    0.90650    0.79490    1.000
    O41      O        0.37050    0.89770    0.86520    1.000
    O42      O        0.38610    0.85550    0.74580    1.000
    Cu8      Cu       0.00476    0.41463    0.14612    1.000
    C22      C        0.99970    0.52060    0.25460    1.000
    O43      O        0.04950    0.48920    0.21490    1.000
    O44      O        0.01160    0.55600    0.31540    1.000
    C23      C        0.91610    0.51350    0.22990    1.000
    O45      O        0.90840    0.46130    0.17180    1.000
    O46      O        0.87150    0.49670    0.29430    1.000
    C24      C        0.88860    0.59350    0.20510    1.000
    O47      O        0.87050    0.60230    0.13480    1.000
    O48      O        0.88610    0.64450    0.25420    1.000
    Cu9      Cu       0.35388    0.99524    0.91463    1.000
    C25      C        0.24540    0.00030    0.02060    1.000
    O49      O        0.28510    0.95050    0.98920    1.000
    O50      O        0.18460    0.98840    0.05600    1.000
    C26      C        0.27010    0.08390    0.01350    1.000
    O51      O        0.32820    0.09160    0.96130    1.000
    O52      O        0.20570    0.12850    0.99670    1.000
    C27      C        0.29490    0.11140    0.09350    1.000
    O53      O        0.36520    0.12950    0.10230    1.000
    O54      O        0.24580    0.11390    0.14450    1.000
    Cu10     Cu       0.64612    0.49524    0.58537    1.000
    C28      C        0.75460    0.50030    0.47940    1.000
    O55      O        0.71490    0.45050    0.51080    1.000
    O56      O        0.81540    0.48840    0.44400    1.000
    C29      C        0.72990    0.58390    0.48650    1.000
    O57      O        0.67180    0.59160    0.53870    1.000
    O58      O        0.79430    0.62850    0.50330    1.000
    C30      C        0.70510    0.61140    0.40650    1.000
    O59      O        0.63480    0.62950    0.39770    1.000
    O60      O        0.75420    0.61390    0.35550    1.000
    Cu11     Cu       0.85388    0.50476    0.08537    1.000
    C31      C        0.74540    0.49970    0.97940    1.000
    O61      O        0.78510    0.54950    0.01080    1.000
    O62      O        0.68460    0.51160    0.94400    1.000
    C32      C        0.77010    0.41610    0.98650    1.000
    O63      O        0.82820    0.40840    0.03870    1.000
    O64      O        0.70570    0.37150    0.00330    1.000
    C33      C        0.79490    0.38860    0.90650    1.000
    O65      O        0.86520    0.37050    0.89770    1.000
    O66      O        0.74580    0.38610    0.85550    1.000
    Cu12     Cu       0.14612    0.00476    0.41463    1.000
    C34      C        0.25460    0.99970    0.52060    1.000
    O67      O        0.21490    0.04950    0.48920    1.000
    O68      O        0.31540    0.01160    0.55600    1.000
    C35      C        0.22990    0.91610    0.51350    1.000
    O69      O        0.17180    0.90840    0.46130    1.000
    O70      O        0.29430    0.87150    0.49670    1.000
    C36      C        0.20510    0.88860    0.59350    1.000
    O71      O        0.13480    0.87050    0.60230    1.000
    O72      O        0.25420    0.88610    0.64450    1.000
    La1      La       0.10547    0.10547    0.10547    1.000
    La2      La       0.39453    0.89453    0.60547    1.000
    La3      La       0.89453    0.60547    0.39453    1.000
    La4      La       0.60547    0.39453    0.89453    1.000
