data_functionalizedCrystal
_audit_creation_method	'EQeq! by Chris Wilmer'
_symmetry_space_group_name_H-M	'P1'
_symmetry_Int_Tables_number	1
_symmetry_cell_setting	triclinic
loop_
_symmetry_equiv_pos_as_xyz
  x,y,z
_cell_length_a	8.116
_cell_length_b	8.116
_cell_length_c	14.721
_cell_angle_alpha	90
_cell_angle_beta	90
_cell_angle_gamma	90
loop_
_atom_site_label
_atom_site_type_symbol
_atom_site_fract_x
_atom_site_fract_y
_atom_site_fract_z
_atom_site_charge
Mof_Cd	Cd	2.55028e-33	0.25	0.375	0.355
Mof_Cd	Cd	0.5	0.75	0.875	0.377
Mof_Cd	Cd	-8.76617e-33	0.75	0.625	0.356
Mof_Cd	Cd	0.5	0.25	0.125	0.378
Mof_N 	N 	3.21676e-33	0.4515	0.473	-0.097
Mof_N 	N 	0.5	0.9515	0.973	-0.092
Mof_N 	N 	0.5	0.5485	0.973	-0.092
Mof_N 	N 	-3.29157e-33	0.0485	0.473	-0.097
Mof_N 	N 	0.7985	0.75	0.723	-0.077
Mof_N 	N 	0.7015	0.25	0.223	-0.088
Mof_N 	N 	0.5	0.4515	0.027	-0.092
Mof_N 	N 	-2.24493e-32	0.9515	0.527	-0.097
Mof_N 	N 	-1.5941e-32	0.5485	0.527	-0.097
Mof_N 	N 	0.5	0.0485	0.027	-0.092
Mof_N 	N 	0.7015	0.75	0.777	-0.088
Mof_N 	N 	0.7985	0.25	0.277	-0.077
Mof_N 	N 	0.2015	0.25	0.277	-0.095
Mof_N 	N 	0.2985	0.75	0.777	-0.095
Mof_N 	N 	0.2985	0.25	0.223	-0.095
Mof_N 	N 	0.2015	0.75	0.723	-0.095
_end
