# CIF file generated by openbabel 3.1.0, see https://openbabel.org
data_I
_chemical_name_common 'SUJREV_clean'
_cell_length_a 13.5
_cell_length_b 14.702
_cell_length_c 21.245
_cell_angle_alpha 90
_cell_angle_beta 90
_cell_angle_gamma 90
_space_group_name_H-M_alt 'P 1'
_space_group_name_Hall 'P 1'
loop_
    _symmetry_equiv_pos_as_xyz
    x,y,z
loop_
    _atom_site_label
    _atom_site_type_symbol
    _atom_site_fract_x
    _atom_site_fract_y
    _atom_site_fract_z
    _atom_site_occupancy
    Zn1      Zn       0.50187    0.39481    0.56855    1.000
    Zn2      Zn       0.49813    0.89481    0.93145    1.000
    Zn3      Zn       0.49813    0.60519    0.43145    1.000
    Zn4      Zn       0.50187    0.10519    0.06855    1.000
    H1       H        0.67410    0.47190    0.65110    1.000
    H2       H        0.83900    0.50830    0.64410    1.000
    H3       H        0.85240    0.36720    0.48410    1.000
    H4       H        0.68760    0.33440    0.49570    1.000
    H5       H        0.99440    0.51290    0.58540    1.000
    H6       H        0.30760    0.46300    0.63300    1.000
    H7       H        0.14300    0.48260    0.61370    1.000
    H8       H        0.17470    0.32750    0.46030    1.000
    H9       H        0.33790    0.30990    0.48620    1.000
    H10      H        0.00680    0.37880    0.49100    1.000
    H11      H        0.51700    0.13840    0.69020    1.000
    H12      H        0.50560    0.28270    0.77180    1.000
    H13      H        0.51640    0.09430    0.80150    1.000
    H14      H        0.50000    0.23770    0.88290    1.000
    H15      H        0.32590    0.97190    0.84890    1.000
    H16      H        0.16100    0.00830    0.85590    1.000
    H17      H        0.14760    0.86720    0.01590    1.000
    H18      H        0.31240    0.83440    0.00430    1.000
    H19      H        0.00560    0.01290    0.91460    1.000
    H20      H        0.69240    0.96300    0.86700    1.000
    H21      H        0.85700    0.98260    0.88630    1.000
    H22      H        0.82530    0.82750    0.03970    1.000
    H23      H        0.66210    0.80990    0.01380    1.000
    H24      H        0.99320    0.87880    0.00900    1.000
    H25      H        0.48300    0.63840    0.80980    1.000
    H26      H        0.49440    0.78270    0.72820    1.000
    H27      H        0.48360    0.59430    0.69850    1.000
    H28      H        0.50000    0.73770    0.61710    1.000
    H29      H        0.32590    0.52810    0.34890    1.000
    H30      H        0.16100    0.49170    0.35590    1.000
    H31      H        0.14760    0.63280    0.51590    1.000
    H32      H        0.31240    0.66560    0.50430    1.000
    H33      H        0.00560    0.48710    0.41460    1.000
    H34      H        0.69240    0.53700    0.36700    1.000
    H35      H        0.85700    0.51740    0.38630    1.000
    H36      H        0.82530    0.67250    0.53970    1.000
    H37      H        0.66210    0.69010    0.51380    1.000
    H38      H        0.99320    0.62120    0.50900    1.000
    H39      H        0.48300    0.86160    0.30980    1.000
    H40      H        0.49440    0.71730    0.22820    1.000
    H41      H        0.48360    0.90570    0.19850    1.000
    H42      H        0.50000    0.76230    0.11710    1.000
    H43      H        0.67410    0.02810    0.15110    1.000
    H44      H        0.83900    0.99170    0.14410    1.000
    H45      H        0.85240    0.13280    0.98410    1.000
    H46      H        0.68760    0.16560    0.99570    1.000
    H47      H        0.99440    0.98710    0.08540    1.000
    H48      H        0.30760    0.03700    0.13300    1.000
    H49      H        0.14300    0.01740    0.11370    1.000
    H50      H        0.17470    0.17250    0.96030    1.000
    H51      H        0.33790    0.19010    0.98620    1.000
    H52      H        0.00680    0.12120    0.99100    1.000
    H53      H        0.51700    0.36160    0.19020    1.000
    H54      H        0.50560    0.21730    0.27180    1.000
    H55      H        0.51640    0.40570    0.30150    1.000
    H56      H        0.50000    0.26230    0.38290    1.000
    C1       C        0.70980    0.45260    0.61620    1.000
    C2       C        0.80910    0.47510    0.61210    1.000
    C3       C        0.86390    0.44830    0.56030    1.000
    C4       C        0.81720    0.39180    0.51760    1.000
    C5       C        0.71810    0.37210    0.52500    1.000
    C6       C        0.96340    0.49000    0.54690    1.000
    C7       C        0.28080    0.43670    0.59700    1.000
    C8       C        0.18160    0.44950    0.58550    1.000
    C9       C        0.13940    0.41290    0.53180    1.000
    C10      C        0.20020    0.35760    0.49520    1.000
    C11      C        0.29900    0.34770    0.51120    1.000
    C12      C        0.03840    0.43450    0.50650    1.000
    C13      C        0.50760    0.26890    0.64980    1.000
    C14      C        0.51200    0.19950    0.70120    1.000
    C15      C        0.50910    0.22130    0.76130    1.000
    C16      C        0.51110    0.15540    0.81210    1.000
    C17      C        0.50580    0.17660    0.87210    1.000
    C18      C        0.50870    0.10860    0.92340    1.000
    C19      C        0.29020    0.95260    0.88380    1.000
    C20      C        0.19090    0.97510    0.88790    1.000
    C21      C        0.13610    0.94830    0.93970    1.000
    C22      C        0.18280    0.89180    0.98240    1.000
    C23      C        0.28190    0.87210    0.97500    1.000
    C24      C        0.03660    0.99000    0.95310    1.000
    C25      C        0.71920    0.93670    0.90300    1.000
    C26      C        0.81840    0.94950    0.91450    1.000
    C27      C        0.86060    0.91290    0.96820    1.000
    C28      C        0.79980    0.85760    0.00480    1.000
    C29      C        0.70100    0.84770    0.98880    1.000
    C30      C        0.96160    0.93450    0.99350    1.000
    C31      C        0.49240    0.76890    0.85020    1.000
    C32      C        0.48800    0.69950    0.79880    1.000
    C33      C        0.49090    0.72130    0.73870    1.000
    C34      C        0.48890    0.65540    0.68790    1.000
    C35      C        0.49420    0.67660    0.62790    1.000
    C36      C        0.49130    0.60860    0.57660    1.000
    C37      C        0.29020    0.54740    0.38380    1.000
    C38      C        0.19090    0.52490    0.38790    1.000
    C39      C        0.13610    0.55170    0.43970    1.000
    C40      C        0.18280    0.60820    0.48240    1.000
    C41      C        0.28190    0.62790    0.47500    1.000
    C42      C        0.03660    0.51000    0.45310    1.000
    C43      C        0.71920    0.56330    0.40300    1.000
    C44      C        0.81840    0.55050    0.41450    1.000
    C45      C        0.86060    0.58710    0.46820    1.000
    C46      C        0.79980    0.64240    0.50480    1.000
    C47      C        0.70100    0.65230    0.48880    1.000
    C48      C        0.96160    0.56550    0.49350    1.000
    C49      C        0.49240    0.73110    0.35020    1.000
    C50      C        0.48800    0.80050    0.29880    1.000
    C51      C        0.49090    0.77870    0.23870    1.000
    C52      C        0.48890    0.84460    0.18790    1.000
    C53      C        0.49420    0.82340    0.12790    1.000
    C54      C        0.49130    0.89140    0.07660    1.000
    C55      C        0.70980    0.04740    0.11620    1.000
    C56      C        0.80910    0.02490    0.11210    1.000
    C57      C        0.86390    0.05170    0.06030    1.000
    C58      C        0.81720    0.10820    0.01760    1.000
    C59      C        0.71810    0.12790    0.02500    1.000
    C60      C        0.96340    0.01000    0.04690    1.000
    C61      C        0.28080    0.06330    0.09700    1.000
    C62      C        0.18160    0.05050    0.08550    1.000
    C63      C        0.13940    0.08710    0.03180    1.000
    C64      C        0.20020    0.14240    0.99520    1.000
    C65      C        0.29900    0.15230    0.01120    1.000
    C66      C        0.03840    0.06550    0.00650    1.000
    C67      C        0.50760    0.23110    0.14980    1.000
    C68      C        0.51200    0.30050    0.20120    1.000
    C69      C        0.50910    0.27870    0.26130    1.000
    C70      C        0.51110    0.34460    0.31210    1.000
    C71      C        0.50580    0.32340    0.37210    1.000
    C72      C        0.50870    0.39140    0.42340    1.000
    N1       N        0.66360    0.40500    0.57280    1.000
    N2       N        0.34180    0.38840    0.55960    1.000
    N3       N        0.33640    0.90500    0.92720    1.000
    N4       N        0.65820    0.88840    0.94040    1.000
    N5       N        0.33640    0.59500    0.42720    1.000
    N6       N        0.65820    0.61160    0.44040    1.000
    N7       N        0.66360    0.09500    0.07280    1.000
    N8       N        0.34180    0.11160    0.05960    1.000
    O1       O        0.49890    0.35200    0.66364    1.000
    O2       O        0.51110    0.24200    0.59430    1.000
    O3       O        0.51330    0.14210    0.97744    1.000
    O4       O        0.50790    0.02770    0.90880    1.000
    O5       O        0.50110    0.85200    0.83636    1.000
    O6       O        0.48890    0.74200    0.90570    1.000
    O7       O        0.48670    0.64210    0.52256    1.000
    O8       O        0.49210    0.52770    0.59120    1.000
    O9       O        0.50110    0.64800    0.33636    1.000
    O10      O        0.48890    0.75800    0.40570    1.000
    O11      O        0.48670    0.85790    0.02256    1.000
    O12      O        0.49210    0.97230    0.09120    1.000
    O13      O        0.49890    0.14800    0.16364    1.000
    O14      O        0.51110    0.25800    0.09430    1.000
    O15      O        0.51330    0.35790    0.47744    1.000
    O16      O        0.50790    0.47230    0.40880    1.000
    Zn5      Zn       0.99813    0.60519    0.06855    1.000
    Zn6      Zn       0.00187    0.10519    0.43145    1.000
    Zn7      Zn       0.00187    0.39481    0.93145    1.000
    Zn8      Zn       0.99813    0.89481    0.56855    1.000
    H57      H        0.82590    0.52810    0.15110    1.000
    H58      H        0.66100    0.49170    0.14410    1.000
    H59      H        0.64760    0.63280    0.98410    1.000
    H60      H        0.81240    0.66560    0.99570    1.000
    H61      H        0.50560    0.48710    0.08540    1.000
    H62      H        0.19240    0.53700    0.13300    1.000
    H63      H        0.35700    0.51740    0.11370    1.000
    H64      H        0.32530    0.67250    0.96030    1.000
    H65      H        0.16210    0.69010    0.98620    1.000
    H66      H        0.49320    0.62120    0.99100    1.000
    H67      H        0.98300    0.86160    0.19020    1.000
    H68      H        0.99440    0.71730    0.27180    1.000
    H69      H        0.98360    0.90570    0.30150    1.000
    H70      H        0.00000    0.76230    0.38290    1.000
    H71      H        0.17410    0.02810    0.34890    1.000
    H72      H        0.33900    0.99170    0.35590    1.000
    H73      H        0.35240    0.13280    0.51590    1.000
    H74      H        0.18760    0.16560    0.50430    1.000
    H75      H        0.49440    0.98710    0.41460    1.000
    H76      H        0.80760    0.03700    0.36700    1.000
    H77      H        0.64300    0.01740    0.38630    1.000
    H78      H        0.67470    0.17250    0.53970    1.000
    H79      H        0.83790    0.19010    0.51380    1.000
    H80      H        0.50680    0.12120    0.50900    1.000
    H81      H        0.01700    0.36160    0.30980    1.000
    H82      H        0.00560    0.21730    0.22820    1.000
    H83      H        0.01640    0.40570    0.19850    1.000
    H84      H        0.00000    0.26230    0.11710    1.000
    H85      H        0.17410    0.47190    0.84890    1.000
    H86      H        0.33900    0.50830    0.85590    1.000
    H87      H        0.35240    0.36720    0.01590    1.000
    H88      H        0.18760    0.33440    0.00430    1.000
    H89      H        0.49440    0.51290    0.91460    1.000
    H90      H        0.80760    0.46300    0.86700    1.000
    H91      H        0.64300    0.48260    0.88630    1.000
    H92      H        0.67470    0.32750    0.03970    1.000
    H93      H        0.83790    0.30990    0.01380    1.000
    H94      H        0.50680    0.37880    0.00900    1.000
    H95      H        0.01700    0.13840    0.80980    1.000
    H96      H        0.00560    0.28270    0.72820    1.000
    H97      H        0.01640    0.09430    0.69850    1.000
    H98      H        0.00000    0.23770    0.61710    1.000
    H99      H        0.82590    0.97190    0.65110    1.000
    H100     H        0.66100    0.00830    0.64410    1.000
    H101     H        0.64760    0.86720    0.48410    1.000
    H102     H        0.81240    0.83440    0.49570    1.000
    H103     H        0.50560    0.01290    0.58540    1.000
    H104     H        0.19240    0.96300    0.63300    1.000
    H105     H        0.35700    0.98260    0.61370    1.000
    H106     H        0.32530    0.82750    0.46030    1.000
    H107     H        0.16210    0.80990    0.48620    1.000
    H108     H        0.49320    0.87880    0.49100    1.000
    H109     H        0.98300    0.63840    0.69020    1.000
    H110     H        0.99440    0.78270    0.77180    1.000
    H111     H        0.98360    0.59430    0.80150    1.000
    H112     H        0.00000    0.73770    0.88290    1.000
    C73      C        0.79020    0.54740    0.11620    1.000
    C74      C        0.69090    0.52490    0.11210    1.000
    C75      C        0.63610    0.55170    0.06030    1.000
    C76      C        0.68280    0.60820    0.01760    1.000
    C77      C        0.78190    0.62790    0.02500    1.000
    C78      C        0.53660    0.51000    0.04690    1.000
    C79      C        0.21920    0.56330    0.09700    1.000
    C80      C        0.31840    0.55050    0.08550    1.000
    C81      C        0.36060    0.58710    0.03180    1.000
    C82      C        0.29980    0.64240    0.99520    1.000
    C83      C        0.20100    0.65230    0.01120    1.000
    C84      C        0.46160    0.56550    0.00650    1.000
    C85      C        0.99240    0.73110    0.14980    1.000
    C86      C        0.98800    0.80050    0.20120    1.000
    C87      C        0.99090    0.77870    0.26130    1.000
    C88      C        0.98890    0.84460    0.31210    1.000
    C89      C        0.99420    0.82340    0.37210    1.000
    C90      C        0.99130    0.89140    0.42340    1.000
    C91      C        0.20980    0.04740    0.38380    1.000
    C92      C        0.30910    0.02490    0.38790    1.000
    C93      C        0.36390    0.05170    0.43970    1.000
    C94      C        0.31720    0.10820    0.48240    1.000
    C95      C        0.21810    0.12790    0.47500    1.000
    C96      C        0.46340    0.01000    0.45310    1.000
    C97      C        0.78080    0.06330    0.40300    1.000
    C98      C        0.68160    0.05050    0.41450    1.000
    C99      C        0.63940    0.08710    0.46820    1.000
    C100     C        0.70020    0.14240    0.50480    1.000
    C101     C        0.79900    0.15230    0.48880    1.000
    C102     C        0.53840    0.06550    0.49350    1.000
    C103     C        0.00760    0.23110    0.35020    1.000
    C104     C        0.01200    0.30050    0.29880    1.000
    C105     C        0.00910    0.27870    0.23870    1.000
    C106     C        0.01110    0.34460    0.18790    1.000
    C107     C        0.00580    0.32340    0.12790    1.000
    C108     C        0.00870    0.39140    0.07660    1.000
    C109     C        0.20980    0.45260    0.88380    1.000
    C110     C        0.30910    0.47510    0.88790    1.000
    C111     C        0.36390    0.44830    0.93970    1.000
    C112     C        0.31720    0.39180    0.98240    1.000
    C113     C        0.21810    0.37210    0.97500    1.000
    C114     C        0.46340    0.49000    0.95310    1.000
    C115     C        0.78080    0.43670    0.90300    1.000
    C116     C        0.68160    0.44950    0.91450    1.000
    C117     C        0.63940    0.41290    0.96820    1.000
    C118     C        0.70020    0.35760    0.00480    1.000
    C119     C        0.79900    0.34770    0.98880    1.000
    C120     C        0.53840    0.43450    0.99350    1.000
    C121     C        0.00760    0.26890    0.85020    1.000
    C122     C        0.01200    0.19950    0.79880    1.000
    C123     C        0.00910    0.22130    0.73870    1.000
    C124     C        0.01110    0.15540    0.68790    1.000
    C125     C        0.00580    0.17660    0.62790    1.000
    C126     C        0.00870    0.10860    0.57660    1.000
    C127     C        0.79020    0.95260    0.61620    1.000
    C128     C        0.69090    0.97510    0.61210    1.000
    C129     C        0.63610    0.94830    0.56030    1.000
    C130     C        0.68280    0.89180    0.51760    1.000
    C131     C        0.78190    0.87210    0.52500    1.000
    C132     C        0.53660    0.99000    0.54690    1.000
    C133     C        0.21920    0.93670    0.59700    1.000
    C134     C        0.31840    0.94950    0.58550    1.000
    C135     C        0.36060    0.91290    0.53180    1.000
    C136     C        0.29980    0.85760    0.49520    1.000
    C137     C        0.20100    0.84770    0.51120    1.000
    C138     C        0.46160    0.93450    0.50650    1.000
    C139     C        0.99240    0.76890    0.64980    1.000
    C140     C        0.98800    0.69950    0.70120    1.000
    C141     C        0.99090    0.72130    0.76130    1.000
    C142     C        0.98890    0.65540    0.81210    1.000
    C143     C        0.99420    0.67660    0.87210    1.000
    C144     C        0.99130    0.60860    0.92340    1.000
    N9       N        0.83640    0.59500    0.07280    1.000
    N10      N        0.15820    0.61160    0.05960    1.000
    N11      N        0.16360    0.09500    0.42720    1.000
    N12      N        0.84180    0.11160    0.44040    1.000
    N13      N        0.16360    0.40500    0.92720    1.000
    N14      N        0.84180    0.38840    0.94040    1.000
    N15      N        0.83640    0.90500    0.57280    1.000
    N16      N        0.15820    0.88840    0.55960    1.000
    O17      O        0.00110    0.64800    0.16364    1.000
    O18      O        0.98890    0.75800    0.09430    1.000
    O19      O        0.98670    0.85790    0.47744    1.000
    O20      O        0.99210    0.97230    0.40880    1.000
    O21      O        0.99890    0.14800    0.33636    1.000
    O22      O        0.01110    0.25800    0.40570    1.000
    O23      O        0.01330    0.35790    0.02256    1.000
    O24      O        0.00790    0.47230    0.09120    1.000
    O25      O        0.99890    0.35200    0.83636    1.000
    O26      O        0.01110    0.24200    0.90570    1.000
    O27      O        0.01330    0.14210    0.52256    1.000
    O28      O        0.00790    0.02770    0.59120    1.000
    O29      O        0.00110    0.85200    0.66364    1.000
    O30      O        0.98890    0.74200    0.59430    1.000
    O31      O        0.98670    0.64210    0.97744    1.000
    O32      O        0.99210    0.52770    0.90880    1.000
