data_functionalizedCrystal
_audit_creation_method	'EQeq! by Chris Wilmer'
_symmetry_space_group_name_H-M	'P1'
_symmetry_Int_Tables_number	1
_symmetry_cell_setting	triclinic
loop_
_symmetry_equiv_pos_as_xyz
  x,y,z
_cell_length_a	7.331
_cell_length_b	11.901
_cell_length_c	15.838
_cell_angle_alpha	103.5
_cell_angle_beta	100.46
_cell_angle_gamma	104.75
loop_
_atom_site_label
_atom_site_type_symbol
_atom_site_fract_x
_atom_site_fract_y
_atom_site_fract_z
_atom_site_charge
Mof_Co	Co	0.02743	0.95281	0.3349	1.152
Mof_Co	Co	0.97257	0.04719	0.6651	1.08
Mof_Co	Co	0.5	0	0.5	1.131
Mof_Co	Co	-0	0	-0	0.954
Mof_H 	H 	0.7928	0.2564	0.4229	0.072
Mof_H 	H 	0.0387	0.5838	0.3525	0.046
Mof_H 	H 	0.5895	0.3095	0.1437	0.004
Mof_H 	H 	0.6951	0.617	0.3865	0.058
Mof_H 	H 	0.9145	0.396	0.223	0.077
Mof_H 	H 	0.4816	0.4425	0.3958	0.08
Mof_H 	H 	0.2072	0.7436	0.5771	0.055
Mof_H 	H 	0.9613	0.4162	0.6475	0.067
Mof_H 	H 	0.4105	0.6905	0.8563	0.052
Mof_H 	H 	0.3049	0.383	0.6135	0.041
Mof_H 	H 	0.0855	0.604	0.777	0.041
Mof_H 	H 	0.5184	0.5575	0.6042	0.076
Mof_C 	C 	0.8898	0.3358	0.3326	0.045
Mof_C 	C 	0.2354	0.4942	0.3744	0.017
Mof_C 	C 	0.752	0.2666	0.3669	-0.077
Mof_C 	C 	0.1708	0.5915	0.3612	-0.053
Mof_C 	C 	0.5555	0.2125	0.3195	-0.049
Mof_C 	C 	0.3013	0.7002	0.3608	-0.033
Mof_C 	C 	0.493	0.2298	0.235	-0.077
Mof_C 	C 	0.5013	0.7108	0.3699	-0.061
Mof_C 	C 	0.6303	0.2988	0.1996	0.004
Mof_C 	C 	0.5646	0.6115	0.3815	0.006
Mof_C 	C 	0.8259	0.3511	0.2473	-0.1
Mof_C 	C 	0.4359	0.5055	0.3857	-0.064
Mof_C 	C 	0.4196	0.1328	0.3586	0.346
Mof_C 	C 	0.2147	0.8	0.3477	0.285
Mof_C 	C 	0.2852	0.1789	0.1783	0.324
Mof_C 	C 	0.6501	0.8262	0.3699	0.319
Mof_C 	C 	0.0999	0.3791	0.3819	0.077
Mof_C 	C 	0.1102	0.6642	0.6674	-0.057
Mof_C 	C 	0.7646	0.5058	0.6256	0.007
Mof_C 	C 	0.248	0.7334	0.6331	-0.014
Mof_C 	C 	0.8292	0.4085	0.6388	-0.037
Mof_C 	C 	0.4445	0.7875	0.6805	-0.054
Mof_C 	C 	0.6987	0.2998	0.6392	-0.034
Mof_C 	C 	0.507	0.7702	0.765	-0.02
Mof_C 	C 	0.4987	0.2892	0.6301	-0.079
Mof_C 	C 	0.3697	0.7012	0.8004	-0.039
Mof_C 	C 	0.4354	0.3885	0.6185	0.015
Mof_C 	C 	0.1741	0.6489	0.7527	-0.028
Mof_C 	C 	0.5641	0.4945	0.6143	-0.059
Mof_C 	C 	0.5804	0.8672	0.6414	0.356
Mof_C 	C 	0.7853	0.2	0.6523	0.296
Mof_C 	C 	0.7148	0.8211	0.8217	0.299
Mof_C 	C 	0.3499	0.1738	0.6301	0.335
Mof_C 	C 	0.9001	0.6209	0.6181	0.164
Mof_O 	O 	0.4831	0.1342	0.439	-0.448
Mof_O 	O 	0.1219	0.7936	0.2706	-0.351
Mof_O 	O 	0.255	0.0678	0.3062	-0.508
Mof_O 	O 	0.2202	0.8857	0.4167	-0.444
Mof_O 	O 	0.2487	0.0845	0.1102	-0.517
Mof_O 	O 	0.6237	0.9287	0.3987	-0.357
Mof_O 	O 	0.1677	0.2353	0.1959	-0.328
Mof_O 	O 	0.7919	0.8123	0.3377	-0.384
Mof_O 	O 	0.165	0.3224	0.4295	-0.222
Mof_O 	O 	0.5169	0.8658	0.561	-0.37
Mof_O 	O 	0.8781	0.2064	0.7294	-0.371
Mof_O 	O 	0.745	0.9322	0.6938	-0.366
Mof_O 	O 	0.7798	0.1143	0.5833	-0.527
Mof_O 	O 	0.7513	0.9155	0.8898	-0.351
Mof_O 	O 	0.3763	0.0713	0.6013	-0.495
Mof_O 	O 	0.8323	0.7647	0.8041	-0.25
Mof_O 	O 	0.2081	0.1877	0.6623	-0.451
Mof_O 	O 	0.835	0.6776	0.5705	-0.206
_end
