data_functionalizedCrystal
_audit_creation_method	'EQeq! by Chris Wilmer'
_symmetry_space_group_name_H-M	'P1'
_symmetry_Int_Tables_number	1
_symmetry_cell_setting	triclinic
loop_
_symmetry_equiv_pos_as_xyz
  x,y,z
_cell_length_a	19.046
_cell_length_b	19.046
_cell_length_c	8.3306
_cell_angle_alpha	90
_cell_angle_beta	90
_cell_angle_gamma	120
loop_
_atom_site_label
_atom_site_type_symbol
_atom_site_fract_x
_atom_site_fract_y
_atom_site_fract_z
_atom_site_charge
Mof_Ga	Ga	0.73698	0.26313	0.1259	2.611
Mof_Ga	Ga	0.81344	0	-0	1.965
Mof_P 	P 	0.82167	0.9108	0.3185	0.747
Mof_P 	P 	0.83171	0.1684	0.1008	0.682
Mof_H 	H 	0.84	0.184	0.257	-0.091
Mof_P 	P 	0.58257	0.16498	0.3318	0.825
Mof_O 	O 	0.7762	0.8873	0.494	-0.551
Mof_H 	H 	0.2468	0.1624	0.4787	0.288
Mof_H 	H 	0.7647	0.9273	0.5715	0.228
Mof_O 	O 	0.9115	0.955	0.348	-0.516
Mof_O 	O 	0.7968	0.9644	0.2287	-0.528
Mof_O 	O 	0.7967	0.833	0.2279	-0.763
Mof_O 	O 	0.7082	0.2894	0.9392	-0.763
Mof_O 	O 	0.7863	0.082	0.0481	-0.767
Mof_O 	O 	0.9187	0.2141	0.0536	-0.552
Mof_O 	O 	0.5403	0.0802	0.3958	-0.324
Mof_O 	O 	0.6531	0.1785	0.228	-1.001
Mof_O 	O 	0.611	0.2243	0.4737	-1.026
Mof_O 	O 	0.5262	0.1788	0.2285	-1.001
Mof_O 	O 	0.7883	0.2119	0.0405	-0.868
Mof_O 	O 	0.8529	0.9267	0.9476	-1.005
Mof_H 	H 	0.9042	0.95	0.938	0.536
Mof_Ga	Ga	0.73687	0.47385	0.1259	2.647
Mof_Ga	Ga	-0	0.81344	-0	1.793
Mof_P 	P 	0.0892	0.91087	0.3185	0.718
Mof_P 	P 	0.8316	0.66331	0.1008	0.734
Mof_H 	H 	0.816	0.656	0.257	-0.095
Mof_P 	P 	0.83502	0.41759	0.3318	0.821
Mof_O 	O 	0.1127	0.8889	0.494	-0.574
Mof_H 	H 	0.8376	0.0844	0.4787	0.243
Mof_H 	H 	0.0727	0.8374	0.5715	0.122
Mof_O 	O 	0.045	0.9565	0.348	-0.681
Mof_O 	O 	0.0356	0.8324	0.2287	-0.697
Mof_O 	O 	0.167	0.9637	0.2279	-0.516
Mof_O 	O 	0.7106	0.4188	0.9392	-0.762
Mof_O 	O 	0.918	0.7043	0.0481	-0.593
Mof_O 	O 	0.7859	0.7046	0.0536	-0.859
Mof_O 	O 	0.9198	0.4601	0.3958	-0.151
Mof_O 	O 	0.8215	0.4746	0.228	-0.957
Mof_O 	O 	0.7757	0.3867	0.4737	-1
Mof_O 	O 	0.8212	0.3474	0.2285	-0.953
Mof_O 	O 	0.7881	0.5764	0.0405	-0.871
Mof_O 	O 	0.0733	0.9262	0.9476	-0.805
Mof_H 	H 	0.05	0.9542	0.938	0.388
Mof_Ga	Ga	0.52615	0.26302	0.1259	2.6
Mof_Ga	Ga	0.18656	0.18656	-0	2.756
Mof_P 	P 	0.08913	0.17833	0.3185	0.74
Mof_P 	P 	0.33669	0.16829	0.1008	0.739
Mof_H 	H 	0.344	0.16	0.257	-0.127
Mof_P 	P 	0.58241	0.41743	0.3318	0.823
Mof_O 	O 	0.1111	0.2238	0.494	-0.574
Mof_H 	H 	0.9156	0.7532	0.4787	0.342
Mof_H 	H 	0.1626	0.2353	0.5715	0.168
Mof_O 	O 	0.0435	0.0885	0.348	-0.845
Mof_O 	O 	0.1676	0.2032	0.2287	-0.751
Mof_O 	O 	0.0363	0.2033	0.2279	-0.711
Mof_O 	O 	0.5812	0.2918	0.9392	-0.77
Mof_O 	O 	0.2957	0.2137	0.0481	-0.855
Mof_O 	O 	0.2954	0.0813	0.0536	-0.771
Mof_O 	O 	0.5399	0.4597	0.3958	-0.25
Mof_O 	O 	0.5254	0.3469	0.228	-0.98
Mof_O 	O 	0.6133	0.389	0.4737	-1.015
Mof_O 	O 	0.6526	0.4738	0.2285	-0.986
Mof_O 	O 	0.4236	0.2117	0.0405	-0.891
Mof_O 	O 	0.0738	0.1471	0.9476	-0.975
Mof_H 	H 	0.0458	0.0958	0.938	0.351
Mof_Ga	Ga	0.26302	0.73687	0.8741	4.106
Mof_Ga	Ga	0.18656	0	-0	1.901
Mof_P 	P 	0.17833	0.0892	0.6815	0.769
Mof_P 	P 	0.16829	0.8316	0.8992	0.734
Mof_H 	H 	0.16	0.816	0.743	-0.138
Mof_P 	P 	0.41743	0.83502	0.6682	0.938
Mof_O 	O 	0.2238	0.1127	0.506	-0.572
Mof_H 	H 	0.7532	0.8376	0.5213	0.277
Mof_H 	H 	0.2353	0.0727	0.4285	0.13
Mof_O 	O 	0.0885	0.045	0.652	-0.814
Mof_O 	O 	0.2032	0.0356	0.7713	-0.536
Mof_O 	O 	0.2033	0.167	0.7721	-0.583
Mof_O 	O 	0.2918	0.7106	0.0608	-1.537
Mof_O 	O 	0.2137	0.918	0.9519	-0.351
Mof_O 	O 	0.0813	0.7859	0.9464	-0.486
Mof_O 	O 	0.4597	0.9198	0.6042	-0.163
Mof_O 	O 	0.3469	0.8215	0.772	-1.187
Mof_O 	O 	0.389	0.7757	0.5263	-1.077
Mof_O 	O 	0.4738	0.8212	0.7715	-1.196
Mof_O 	O 	0.2117	0.7881	0.9595	-0.923
Mof_O 	O 	0.1471	0.0733	0.0524	-1.28
Mof_H 	H 	0.0958	0.05	0.062	0.214
Mof_Ga	Ga	0.26313	0.52615	0.8741	4.102
Mof_Ga	Ga	-0	0.18656	-0	1.652
Mof_P 	P 	0.9108	0.08913	0.6815	0.732
Mof_P 	P 	0.1684	0.33669	0.8992	0.759
Mof_H 	H 	0.184	0.344	0.743	-0.151
Mof_P 	P 	0.16498	0.58241	0.6682	0.942
Mof_O 	O 	0.8873	0.1111	0.506	-0.539
Mof_H 	H 	0.1624	0.9156	0.5213	0.321
Mof_H 	H 	0.9273	0.1626	0.4285	0.242
Mof_O 	O 	0.955	0.0435	0.652	-0.619
Mof_O 	O 	0.9644	0.1676	0.7713	-0.275
Mof_O 	O 	0.833	0.0363	0.7721	-0.529
Mof_O 	O 	0.2894	0.5812	0.0608	-1.548
Mof_O 	O 	0.082	0.2957	0.9519	-0.474
Mof_O 	O 	0.2141	0.2954	0.9464	-0.571
Mof_O 	O 	0.0802	0.5399	0.6042	-0.336
Mof_O 	O 	0.1785	0.5254	0.772	-1.238
Mof_O 	O 	0.2243	0.6133	0.5263	-1.104
Mof_O 	O 	0.1788	0.6526	0.7715	-1.237
Mof_O 	O 	0.2119	0.4236	0.9595	-0.937
Mof_O 	O 	0.9267	0.0738	0.0524	-1.021
Mof_H 	H 	0.95	0.0458	0.062	0.249
Mof_Ga	Ga	0.47385	0.73698	0.8741	4.143
Mof_Ga	Ga	0.81344	0.81344	-0	2.892
Mof_P 	P 	0.91087	0.82167	0.6815	0.762
Mof_P 	P 	0.66331	0.83171	0.8992	0.773
Mof_H 	H 	0.656	0.84	0.743	-0.126
Mof_P 	P 	0.41759	0.58257	0.6682	0.94
Mof_O 	O 	0.8889	0.7762	0.506	-0.546
Mof_H 	H 	0.0844	0.2468	0.5213	0.218
Mof_H 	H 	0.8374	0.7647	0.4285	0.193
Mof_O 	O 	0.9565	0.9115	0.652	-0.486
Mof_O 	O 	0.8324	0.7968	0.7713	-0.58
Mof_O 	O 	0.9637	0.7967	0.7721	-0.311
Mof_O 	O 	0.4188	0.7082	0.0608	-1.536
Mof_O 	O 	0.7043	0.7863	0.9519	-0.597
Mof_O 	O 	0.7046	0.9187	0.9464	-0.375
Mof_O 	O 	0.4601	0.5403	0.6042	-0.241
Mof_O 	O 	0.4746	0.6531	0.772	-1.215
Mof_O 	O 	0.3867	0.611	0.5263	-1.09
Mof_O 	O 	0.3474	0.5262	0.7715	-1.211
Mof_O 	O 	0.5764	0.7883	0.9595	-0.921
Mof_O 	O 	0.9262	0.8529	0.0524	-1.231
Mof_H 	H 	0.9542	0.9042	0.062	0.403
Mof_Ga	Ga	0.66667	0.33333	0.48378	3.25
Mof_P 	P 	0.66667	0.33333	0.8828	1.057
Mof_O 	O 	0.66667	0.33333	0.7043	-0.854
Mof_Ga	Ga	0.33333	0.66667	0.51622	3.055
Mof_P 	P 	0.33333	0.66667	0.1172	1.309
Mof_O 	O 	0.33333	0.66667	0.2957	-0.935
Mof_Ga	Ga	-2.41144e-33	0	0.5	2.518
_end
