# CIF file generated by openbabel 3.1.0, see https://openbabel.org
data_I
_chemical_name_common 'image0'
_cell_length_a 13.312
_cell_length_b 7.316
_cell_length_c 14.87
_cell_angle_alpha 90
_cell_angle_beta 91.315
_cell_angle_gamma 90
_space_group_name_H-M_alt 'P 1'
_space_group_name_Hall 'P 1'
loop_
    _symmetry_equiv_pos_as_xyz
    x,y,z
loop_
    _atom_site_label
    _atom_site_type_symbol
    _atom_site_fract_x
    _atom_site_fract_y
    _atom_site_fract_z
    _atom_site_occupancy
    Cd1      Cd       0.97959    0.18386    0.18541    1.000
    N1       N        0.10050    0.79560    0.38720    1.000
    O1       O        0.52900    0.60060    0.58210    1.000
    C1       C        0.21760    0.32250    0.39720    1.000
    H1       H        0.20880    0.20820    0.37080    1.000
    C2       C        0.37010    0.14660    0.57560    1.000
    C3       C        0.16620    0.63700    0.40830    1.000
    O2       O        0.93180    0.41070    0.28800    1.000
    N2       N        0.02410    0.99670    0.29970    1.000
    O3       O        0.65070    0.75800    0.64300    1.000
    N3       N        0.43040    0.00250    0.56960    1.000
    C4       C        0.30780    0.52980    0.50310    1.000
    H2       H        0.35990    0.55000    0.54470    1.000
    N4       N        0.35210    0.21330    0.49190    1.000
    C5       C        0.72180    0.30360    0.40640    1.000
    H3       H        0.68610    0.21440    0.36950    1.000
    H4       H        0.77480    0.24030    0.43960    1.000
    C6       C        0.83720    0.36500    0.28470    1.000
    C7       C        0.69640    0.55030    0.52530    1.000
    H5       H        0.75520    0.51030    0.56090    1.000
    C8       C        0.24170    0.65900    0.47640    1.000
    H6       H        0.24580    0.77250    0.50480    1.000
    C9       C        0.04480    0.88400    0.43470    1.000
    H7       H        0.03500    0.85960    0.49530    1.000
    C10      C        0.15740    0.47100    0.37420    1.000
    H8       H        0.10660    0.45170    0.33120    1.000
    C11      C        0.32780    0.21450    0.65030    1.000
    H9       H        0.25670    0.19240    0.64770    1.000
    H10      H        0.35660    0.15550    0.70250    1.000
    H11      H        0.34000    0.34360    0.65390    1.000
    C12      C        0.28860    0.35500    0.45940    1.000
    C13      C        0.45990    0.97700    0.48430    1.000
    H12      H        0.50660    0.89080    0.46610    1.000
    C14      C        0.40930    0.10060    0.42740    1.000
    H13      H        0.41100    0.10980    0.36510    1.000
    C15      C        0.76860    0.45030    0.34520    1.000
    H14      H        0.71350    0.49970    0.30780    1.000
    C16      C        0.81260    0.60880    0.39650    1.000
    H15      H        0.83650    0.70100    0.35530    1.000
    H16      H        0.86890    0.56840    0.43410    1.000
    C17      C        0.00020    0.01800    0.38970    1.000
    H17      H        0.96040    0.10970    0.41360    1.000
    C18      C        0.08770    0.86200    0.30180    1.000
    C19      C        0.61440    0.63900    0.58920    1.000
    C20      C        0.13200    0.77400    0.21550    1.000
    H18      H        0.15480    0.86820    0.17600    1.000
    H19      H        0.08160    0.70170    0.18530    1.000
    H20      H        0.18810    0.69670    0.23240    1.000
    C21      C        0.65120    0.38700    0.47080    1.000
    H21      H        0.63000    0.29350    0.51260    1.000
    H22      H        0.59190    0.42870    0.43770    1.000
    O4       O        0.81290    0.24900    0.22730    1.000
    C22      C        0.72660    0.69060    0.45690    1.000
    H23      H        0.75060    0.80000    0.48730    1.000
    H24      H        0.66890    0.72340    0.41930    1.000
    Cd2      Cd       0.47959    0.81614    0.68541    1.000
    N5       N        0.60050    0.20440    0.88720    1.000
    O5       O        0.02900    0.39940    0.08210    1.000
    C23      C        0.71760    0.67750    0.89720    1.000
    H25      H        0.70880    0.79180    0.87080    1.000
    C24      C        0.87010    0.85340    0.07560    1.000
    C25      C        0.66620    0.36300    0.90830    1.000
    O6       O        0.43180    0.58930    0.78800    1.000
    N6       N        0.52410    0.00330    0.79970    1.000
    O7       O        0.15070    0.24200    0.14300    1.000
    N7       N        0.93040    0.99750    0.06960    1.000
    C26      C        0.80780    0.47020    0.00310    1.000
    H26      H        0.85990    0.45000    0.04470    1.000
    N8       N        0.85210    0.78670    0.99190    1.000
    C27      C        0.22180    0.69640    0.90640    1.000
    H27      H        0.18610    0.78560    0.86950    1.000
    H28      H        0.27480    0.75970    0.93960    1.000
    C28      C        0.33720    0.63500    0.78470    1.000
    C29      C        0.19640    0.44970    0.02530    1.000
    H29      H        0.25520    0.48970    0.06090    1.000
    C30      C        0.74170    0.34100    0.97640    1.000
    H30      H        0.74580    0.22750    0.00480    1.000
    C31      C        0.54480    0.11600    0.93470    1.000
    H31      H        0.53500    0.14040    0.99530    1.000
    C32      C        0.65740    0.52900    0.87420    1.000
    H32      H        0.60660    0.54830    0.83120    1.000
    C33      C        0.82780    0.78550    0.15030    1.000
    H33      H        0.75670    0.80760    0.14770    1.000
    H34      H        0.85660    0.84450    0.20250    1.000
    H35      H        0.84000    0.65640    0.15390    1.000
    C34      C        0.78860    0.64500    0.95940    1.000
    C35      C        0.95990    0.02300    0.98430    1.000
    H36      H        0.00660    0.10920    0.96610    1.000
    C36      C        0.90930    0.89940    0.92740    1.000
    H37      H        0.91100    0.89020    0.86510    1.000
    C37      C        0.26860    0.54970    0.84520    1.000
    H38      H        0.21350    0.50030    0.80780    1.000
    C38      C        0.31260    0.39120    0.89650    1.000
    H39      H        0.33650    0.29900    0.85530    1.000
    H40      H        0.36890    0.43160    0.93410    1.000
    C39      C        0.50020    0.98200    0.88970    1.000
    H41      H        0.46040    0.89030    0.91360    1.000
    C40      C        0.58770    0.13800    0.80180    1.000
    C41      C        0.11440    0.36100    0.08920    1.000
    C42      C        0.63200    0.22600    0.71550    1.000
    H42      H        0.65480    0.13180    0.67600    1.000
    H43      H        0.58160    0.29830    0.68530    1.000
    H44      H        0.68810    0.30330    0.73240    1.000
    C43      C        0.15120    0.61300    0.97080    1.000
    H45      H        0.13000    0.70650    0.01260    1.000
    H46      H        0.09190    0.57130    0.93770    1.000
    O8       O        0.31290    0.75100    0.72730    1.000
    C44      C        0.22660    0.30940    0.95690    1.000
    H47      H        0.25060    0.20000    0.98730    1.000
    H48      H        0.16890    0.27660    0.91930    1.000
