data_functionalizedCrystal
_audit_creation_method	'EQeq! by Chris Wilmer'
_symmetry_space_group_name_H-M	'P1'
_symmetry_Int_Tables_number	1
_symmetry_cell_setting	triclinic
loop_
_symmetry_equiv_pos_as_xyz
  x,y,z
_cell_length_a	9.434
_cell_length_b	16.599
_cell_length_c	18.562
_cell_angle_alpha	90
_cell_angle_beta	97.731
_cell_angle_gamma	90
loop_
_atom_site_label
_atom_site_type_symbol
_atom_site_fract_x
_atom_site_fract_y
_atom_site_fract_z
_atom_site_charge
Mof_Zn	Zn	0.3382	0.03687	0.98321	1.13
Mof_C 	C 	0.4596	0.1064	0.1249	-0.118
Mof_H 	H 	0.5532	0.0818	0.1262	0.043
Mof_H 	H 	0.4487	0.1239	0.1737	0.06
Mof_C 	C 	0.4474	0.1778	0.0741	-0.063
Mof_H 	H 	0.3554	0.2036	0.0748	0.025
Mof_H 	H 	0.5214	0.2166	0.0908	0.051
Mof_C 	C 	0.4236	0.2201	0.947	-0.182
Mof_H 	H 	0.3256	0.2362	0.9495	0.037
Mof_H 	H 	0.4286	0.2003	0.8982	0.054
Mof_C 	C 	0.5203	0.294	0.9606	0.17
Mof_C 	C 	0.4798	0.3629	0.9905	-0.275
Mof_H 	H 	0.3901	0.3662	0.0058	0.127
Mof_C 	C 	0.5709	0.4293	0.9986	0.071
Mof_H 	H 	0.5388	0.4763	0.0185	-0.022
Mof_C 	C 	0.6559	0.2934	0.9394	-0.231
Mof_H 	H 	0.6897	0.2476	0.9184	0.092
Mof_C 	C 	0.7396	0.3612	0.9498	0.122
Mof_H 	H 	0.83	0.3594	0.9351	-0.061
Mof_C 	C 	0.3688	0.9695	0.1386	-0.192
Mof_H 	H 	0.4613	0.9481	0.1309	0.055
Mof_H 	H 	0.2965	0.9318	0.1174	0.063
Mof_C 	C 	0.3632	0.9735	0.2195	0.171
Mof_C 	C 	0.4769	0.9478	0.2679	-0.233
Mof_H 	H 	0.5602	0.93	0.2513	0.096
Mof_C 	C 	0.4668	0.9486	0.3411	0.118
Mof_H 	H 	0.5461	0.9322	0.373	-0.058
Mof_C 	C 	0.2448	0.9983	0.2479	-0.233
Mof_H 	H 	0.1659	0.0174	0.2171	0.095
Mof_C 	C 	0.2408	0.9954	0.3218	0.116
Mof_H 	H 	0.1572	0.011	0.3394	-0.052
Mof_N 	N 	0.3468	0.0466	0.09931	-0.244
Mof_H 	H 	0.2617	0.0671	0.1086	0.067
Mof_N 	N 	0.4617	0.15344	0.99941	-0.259
Mof_H 	H 	0.5555	0.1415	0.9982	0.062
Mof_N 	N 	0.3505	0.9714	0.3688	-0.303
Mof_N 	N 	0.7011	0.4287	0.97926	-0.291
Mof_Zn	Zn	0.8382	0.53687	0.98321	1.132
Mof_C 	C 	0.9596	0.6064	0.1249	-0.085
Mof_H 	H 	0.0532	0.5818	0.1262	0.013
Mof_H 	H 	0.9487	0.6239	0.1737	0.055
Mof_C 	C 	0.9474	0.6778	0.0741	-0.031
Mof_H 	H 	0.8554	0.7036	0.0748	0.02
Mof_H 	H 	0.0214	0.7166	0.0908	0.024
Mof_C 	C 	0.9236	0.7201	0.947	-0.107
Mof_H 	H 	0.8256	0.7362	0.9495	0.021
Mof_H 	H 	0.9286	0.7003	0.8982	0.04
Mof_C 	C 	0.0203	0.794	0.9606	0.059
Mof_C 	C 	0.9798	0.8629	0.9905	-0.138
Mof_H 	H 	0.8901	0.8662	0.0058	0.087
Mof_C 	C 	0.0709	0.9293	0.9986	-0.008
Mof_H 	H 	0.0388	0.9763	0.0185	-0.003
Mof_C 	C 	0.1559	0.7934	0.9394	-0.165
Mof_H 	H 	0.1897	0.7476	0.9184	0.064
Mof_C 	C 	0.2396	0.8612	0.9498	0.079
Mof_H 	H 	0.33	0.8594	0.9351	-0.05
Mof_C 	C 	0.8688	0.4695	0.1386	-0.179
Mof_H 	H 	0.9613	0.4481	0.1309	0.058
Mof_H 	H 	0.7965	0.4318	0.1174	0.063
Mof_C 	C 	0.8632	0.4735	0.2195	0.157
Mof_C 	C 	0.9769	0.4478	0.2679	-0.193
Mof_H 	H 	0.0602	0.43	0.2513	0.065
Mof_C 	C 	0.9668	0.4486	0.3411	0.143
Mof_H 	H 	0.0461	0.4322	0.373	-0.084
Mof_C 	C 	0.7448	0.4983	0.2479	-0.221
Mof_H 	H 	0.6659	0.5174	0.2171	0.093
Mof_C 	C 	0.7408	0.4954	0.3218	0.115
Mof_H 	H 	0.6572	0.511	0.3394	-0.049
Mof_N 	N 	0.8468	0.5466	0.09931	-0.25
Mof_H 	H 	0.7617	0.5671	0.1086	0.07
Mof_N 	N 	0.9617	0.65344	0.99941	-0.254
Mof_H 	H 	0.0555	0.6415	0.9982	0.045
Mof_N 	N 	0.8505	0.4714	0.3688	-0.304
Mof_N 	N 	0.2011	0.9287	0.97926	-0.27
Mof_Zn	Zn	0.3382	0.96313	0.48321	1.137
Mof_C 	C 	0.4596	0.8936	0.6249	-0.106
Mof_H 	H 	0.5532	0.9182	0.6262	0.033
Mof_H 	H 	0.4487	0.8761	0.6737	0.054
Mof_C 	C 	0.4474	0.8222	0.5741	-0.098
Mof_H 	H 	0.3554	0.7964	0.5748	0.026
Mof_H 	H 	0.5214	0.7834	0.5908	0.052
Mof_C 	C 	0.4236	0.7799	0.447	-0.169
Mof_H 	H 	0.3256	0.7638	0.4495	0.042
Mof_H 	H 	0.4286	0.7997	0.3982	0.051
Mof_C 	C 	0.5203	0.706	0.4606	0.153
Mof_C 	C 	0.4798	0.6371	0.4905	-0.22
Mof_H 	H 	0.3901	0.6338	0.5058	0.082
Mof_C 	C 	0.5709	0.5707	0.4986	0.11
Mof_H 	H 	0.5388	0.5237	0.5185	-0.059
Mof_C 	C 	0.6559	0.7066	0.4394	-0.219
Mof_H 	H 	0.6897	0.7524	0.4184	0.091
Mof_C 	C 	0.7396	0.6388	0.4498	0.119
Mof_H 	H 	0.83	0.6406	0.4351	-0.054
Mof_C 	C 	0.3688	0.0305	0.6386	-0.18
Mof_H 	H 	0.4613	0.0519	0.6309	0.046
Mof_H 	H 	0.2965	0.0682	0.6174	0.052
Mof_C 	C 	0.3632	0.0265	0.7195	0.163
Mof_C 	C 	0.4769	0.0522	0.7679	-0.228
Mof_H 	H 	0.5602	0.07	0.7513	0.093
Mof_C 	C 	0.4668	0.0514	0.8411	0.114
Mof_H 	H 	0.5461	0.0678	0.873	-0.06
Mof_C 	C 	0.2448	0.0017	0.7479	-0.225
Mof_H 	H 	0.1659	0.9826	0.7171	0.088
Mof_C 	C 	0.2408	0.0046	0.8218	0.112
Mof_H 	H 	0.1572	0.989	0.8394	-0.053
Mof_N 	N 	0.3468	0.9534	0.59931	-0.255
Mof_H 	H 	0.2617	0.9329	0.6086	0.064
Mof_N 	N 	0.4617	0.84656	0.49941	-0.244
Mof_H 	H 	0.5555	0.8585	0.4982	0.07
Mof_N 	N 	0.3505	0.0286	0.8688	-0.304
Mof_N 	N 	0.7011	0.5713	0.47926	-0.289
Mof_Zn	Zn	0.8382	0.46313	0.48321	1.139
Mof_C 	C 	0.9596	0.3936	0.6249	-0.074
Mof_H 	H 	0.0532	0.4182	0.6262	0.004
Mof_H 	H 	0.9487	0.3761	0.6737	0.05
Mof_C 	C 	0.9474	0.3222	0.5741	-0.064
Mof_H 	H 	0.8554	0.2964	0.5748	0.021
Mof_H 	H 	0.0214	0.2834	0.5908	0.026
Mof_C 	C 	0.9236	0.2799	0.447	-0.094
Mof_H 	H 	0.8256	0.2638	0.4495	0.025
Mof_H 	H 	0.9286	0.2997	0.3982	0.038
Mof_C 	C 	0.0203	0.206	0.4606	0.041
Mof_C 	C 	0.9798	0.1371	0.4905	-0.082
Mof_H 	H 	0.8901	0.1338	0.5058	0.044
Mof_C 	C 	0.0709	0.0707	0.4986	0.024
Mof_H 	H 	0.0388	0.0237	0.5185	-0.036
Mof_C 	C 	0.1559	0.2066	0.4394	-0.152
Mof_H 	H 	0.1897	0.2524	0.4184	0.063
Mof_C 	C 	0.2396	0.1388	0.4498	0.076
Mof_H 	H 	0.33	0.1406	0.4351	-0.043
Mof_C 	C 	0.8688	0.5305	0.6386	-0.171
Mof_H 	H 	0.9613	0.5519	0.6309	0.05
Mof_H 	H 	0.7965	0.5682	0.6174	0.052
Mof_C 	C 	0.8632	0.5265	0.7195	0.15
Mof_C 	C 	0.9769	0.5522	0.7679	-0.191
Mof_H 	H 	0.0602	0.57	0.7513	0.062
Mof_C 	C 	0.9668	0.5514	0.8411	0.14
Mof_H 	H 	0.0461	0.5678	0.873	-0.086
Mof_C 	C 	0.7448	0.5017	0.7479	-0.217
Mof_H 	H 	0.6659	0.4826	0.7171	0.089
Mof_C 	C 	0.7408	0.5046	0.8218	0.111
Mof_H 	H 	0.6572	0.489	0.8394	-0.05
Mof_N 	N 	0.8468	0.4534	0.59931	-0.259
Mof_H 	H 	0.7617	0.4329	0.6086	0.066
Mof_N 	N 	0.9617	0.34656	0.49941	-0.24
Mof_H 	H 	0.0555	0.3585	0.4982	0.052
Mof_N 	N 	0.8505	0.5286	0.8688	-0.305
Mof_N 	N 	0.2011	0.0713	0.47926	-0.268
_end
