data_functionalizedCrystal
_audit_creation_method	'EQeq! by Chris Wilmer'
_symmetry_space_group_name_H-M	'P1'
_symmetry_Int_Tables_number	1
_symmetry_cell_setting	triclinic
loop_
_symmetry_equiv_pos_as_xyz
  x,y,z
_cell_length_a	19.685
_cell_length_b	7.849
_cell_length_c	6.782
_cell_angle_alpha	90
_cell_angle_beta	75.0994
_cell_angle_gamma	90
loop_
_atom_site_label
_atom_site_type_symbol
_atom_site_fract_x
_atom_site_fract_y
_atom_site_fract_z
_atom_site_charge
Mof_C 	C 	0.111	0.19	0.17	0.526
Mof_C 	C 	0.198	0.296	0.882	0.203
Mof_C 	C 	0.229	0.18	0.204	0.107
Mof_C 	C 	0.184	0.21	0.079	-0.397
Mof_O 	O 	0.068	0.166	0.055	-0.591
Mof_O 	O 	0.087	0.141	0.348	-0.562
Mof_H 	H 	0.15552	0.33862	0.80656	0.007
Mof_H 	H 	0.20786	0.13774	0.36922	-0.024
Mof_H 	H 	0.5	0.7404	0.75	0.33
Mof_C 	C 	0.611	0.69	0.17	0.654
Mof_C 	C 	0.698	0.796	0.882	0.262
Mof_C 	C 	0.729	0.68	0.204	0.171
Mof_C 	C 	0.684	0.71	0.079	-0.413
Mof_O 	O 	0.568	0.666	0.055	-0.691
Mof_O 	O 	0.587	0.641	0.348	-0.645
Mof_H 	H 	0.65552	0.83862	0.80656	0.034
Mof_H 	H 	0.70786	0.63774	0.36922	0.009
Mof_H 	H 	1.40336e-17	0.2404	0.75	0.241
Mof_C 	C 	0.889	0.19	0.33	0.456
Mof_C 	C 	0.802	0.296	0.618	-0.002
Mof_C 	C 	0.771	0.18	0.296	-0.014
Mof_C 	C 	0.816	0.21	0.421	-0.168
Mof_O 	O 	0.932	0.166	0.445	-0.474
Mof_O 	O 	0.913	0.141	0.152	-0.472
Mof_H 	H 	0.84448	0.33862	0.69344	0.063
Mof_H 	H 	0.79214	0.13774	0.13078	-0.031
Mof_C 	C 	0.389	0.69	0.33	0.603
Mof_C 	C 	0.302	0.796	0.618	0.064
Mof_C 	C 	0.271	0.68	0.296	0.054
Mof_C 	C 	0.316	0.71	0.421	-0.206
Mof_O 	O 	0.432	0.666	0.445	-0.669
Mof_O 	O 	0.413	0.641	0.152	-0.628
Mof_H 	H 	0.34448	0.83862	0.69344	0.069
Mof_H 	H 	0.29214	0.63774	0.13078	-0.005
Mof_C 	C 	0.889	0.81	0.83	0.357
Mof_C 	C 	0.802	0.704	0.118	-0.217
Mof_C 	C 	0.771	0.82	0.796	-0.104
Mof_C 	C 	0.816	0.79	0.921	0.146
Mof_O 	O 	0.932	0.834	0.945	-0.225
Mof_O 	O 	0.913	0.859	0.652	-0.329
Mof_H 	H 	0.84448	0.66138	0.19344	0.083
Mof_H 	H 	0.79214	0.86226	0.63078	0.11
Mof_H 	H 	0.5	0.2596	0.25	0.233
Mof_C 	C 	0.389	0.31	0.83	0.488
Mof_C 	C 	0.302	0.204	0.118	-0.223
Mof_C 	C 	0.271	0.32	0.796	-0.1
Mof_C 	C 	0.316	0.29	0.921	0.031
Mof_O 	O 	0.432	0.334	0.945	-0.542
Mof_O 	O 	0.413	0.359	0.652	-0.622
Mof_H 	H 	0.34448	0.16138	0.19344	0.014
Mof_H 	H 	0.29214	0.36226	0.63078	0.052
Mof_H 	H 	3.50839e-18	0.7596	0.25	0.175
Mof_C 	C 	0.111	0.81	0.67	0.428
Mof_C 	C 	0.198	0.704	0.382	-0.016
Mof_C 	C 	0.229	0.82	0.704	0.012
Mof_C 	C 	0.184	0.79	0.579	-0.076
Mof_O 	O 	0.068	0.834	0.555	-0.447
Mof_O 	O 	0.087	0.859	0.848	-0.313
Mof_H 	H 	0.15552	0.66138	0.30656	0.027
Mof_H 	H 	0.20786	0.86226	0.86922	0.119
Mof_C 	C 	0.611	0.31	0.67	0.547
Mof_C 	C 	0.698	0.204	0.382	-0.015
Mof_C 	C 	0.729	0.32	0.704	0.02
Mof_C 	C 	0.684	0.29	0.579	-0.185
Mof_O 	O 	0.568	0.334	0.555	-0.685
Mof_O 	O 	0.587	0.359	0.848	-0.537
Mof_H 	H 	0.65552	0.16138	0.30656	-0.023
Mof_H 	H 	0.70786	0.36226	0.86922	0.066
Mof_Cr	Cr	4.79799e-34	0	0.5	1.571
Mof_Cr	Cr	0.5	0.5	0.5	2.465
Mof_Cr	Cr	-0	0	-0	1.195
Mof_Cr	Cr	0.5	0.5	-0	2.082
Mof_O 	O 	3.50839e-18	0.887	0.25	-0.65
Mof_O 	O 	0.5	0.387	0.25	-1.032
Mof_O 	O 	7.19699e-34	0.113	0.75	-0.769
Mof_O 	O 	0.5	0.613	0.75	-0.972
_end
