# CIF file generated by openbabel 3.1.0, see https://openbabel.org
data_I
_chemical_name_common 'image0'
_cell_length_a 9.2211
_cell_length_b 18.1848
_cell_length_c 9.7227
_cell_angle_alpha 90
_cell_angle_beta 104.994
_cell_angle_gamma 90
_space_group_name_H-M_alt 'P 1'
_space_group_name_Hall 'P 1'
loop_
    _symmetry_equiv_pos_as_xyz
    x,y,z
loop_
    _atom_site_label
    _atom_site_type_symbol
    _atom_site_fract_x
    _atom_site_fract_y
    _atom_site_fract_z
    _atom_site_occupancy
    Cd1      Cd       0.86680    0.93390    0.06168    1.000
    C1       C        0.69370    0.80612    0.85650    1.000
    H1       H        0.78460    0.78210    0.89260    1.000
    C2       C        0.58480    0.77163    0.75160    1.000
    H2       H        0.60330    0.72570    0.71780    1.000
    C3       C        0.44670    0.80628    0.69670    1.000
    C4       C        0.42600    0.87400    0.75420    1.000
    H3       H        0.33480    0.89840    0.72260    1.000
    C5       C        0.53980    0.90547    0.85820    1.000
    H4       H        0.52340    0.95100    0.89490    1.000
    C6       C        0.32820    0.77302    0.58050    1.000
    C7       C        0.30530    0.69704    0.57490    1.000
    H5       H        0.36780    0.66690    0.64210    1.000
    C8       C        0.19020    0.66611    0.46990    1.000
    C9       C        0.16280    0.58482    0.46870    1.000
    C10      C        0.10000    0.71073    0.36610    1.000
    H6       H        0.02280    0.68990    0.29580    1.000
    C11      C        0.02820    0.83375    0.25140    1.000
    C12      C        0.12410    0.78597    0.36640    1.000
    C13      C        0.23660    0.81685    0.47530    1.000
    H7       H        0.25080    0.86750    0.47800    1.000
    N1       N        0.67430    0.87249    0.90870    1.000
    O1       O        0.26880    0.54281    0.52480    1.000
    O2       O        0.03150    0.56130    0.40840    1.000
    O3       O        0.06190    0.90112    0.25120    1.000
    O4       O        0.92210    0.80591    0.16180    1.000
    Cd2      Cd       0.13320    0.43390    0.43832    1.000
    C14      C        0.30630    0.30612    0.64350    1.000
    H8       H        0.21540    0.28210    0.60740    1.000
    C15      C        0.41520    0.27163    0.74840    1.000
    H9       H        0.39670    0.22570    0.78220    1.000
    C16      C        0.55330    0.30628    0.80330    1.000
    C17      C        0.57400    0.37400    0.74580    1.000
    H10      H        0.66520    0.39840    0.77740    1.000
    C18      C        0.46020    0.40547    0.64180    1.000
    H11      H        0.47660    0.45100    0.60510    1.000
    C19      C        0.67180    0.27302    0.91950    1.000
    C20      C        0.69470    0.19704    0.92510    1.000
    H12      H        0.63220    0.16690    0.85790    1.000
    C21      C        0.80980    0.16611    0.03010    1.000
    C22      C        0.83720    0.08482    0.03130    1.000
    C23      C        0.90000    0.21073    0.13390    1.000
    H13      H        0.97720    0.18990    0.20420    1.000
    C24      C        0.97180    0.33375    0.24860    1.000
    C25      C        0.87590    0.28597    0.13360    1.000
    C26      C        0.76340    0.31685    0.02470    1.000
    H14      H        0.74920    0.36750    0.02200    1.000
    N2       N        0.32570    0.37249    0.59130    1.000
    O5       O        0.73120    0.04281    0.97520    1.000
    O6       O        0.96850    0.06130    0.09160    1.000
    O7       O        0.93810    0.40112    0.24880    1.000
    O8       O        0.07790    0.30591    0.33820    1.000
    Cd3      Cd       0.13320    0.06610    0.93832    1.000
    C27      C        0.30630    0.19388    0.14350    1.000
    H15      H        0.21540    0.21790    0.10740    1.000
    C28      C        0.41520    0.22837    0.24840    1.000
    H16      H        0.39670    0.27430    0.28220    1.000
    C29      C        0.55330    0.19372    0.30330    1.000
    C30      C        0.57400    0.12600    0.24580    1.000
    H17      H        0.66520    0.10160    0.27740    1.000
    C31      C        0.46020    0.09453    0.14180    1.000
    H18      H        0.47660    0.04900    0.10510    1.000
    C32      C        0.67180    0.22698    0.41950    1.000
    C33      C        0.69470    0.30296    0.42510    1.000
    H19      H        0.63220    0.33310    0.35790    1.000
    C34      C        0.80980    0.33389    0.53010    1.000
    C35      C        0.83720    0.41518    0.53130    1.000
    C36      C        0.90000    0.28927    0.63390    1.000
    H20      H        0.97720    0.31010    0.70420    1.000
    C37      C        0.97180    0.16625    0.74860    1.000
    C38      C        0.87590    0.21403    0.63360    1.000
    C39      C        0.76340    0.18315    0.52470    1.000
    H21      H        0.74920    0.13250    0.52200    1.000
    N3       N        0.32570    0.12751    0.09130    1.000
    O9       O        0.73120    0.45719    0.47520    1.000
    O10      O        0.96850    0.43870    0.59160    1.000
    O11      O        0.93810    0.09888    0.74880    1.000
    O12      O        0.07790    0.19409    0.83820    1.000
    Cd4      Cd       0.86680    0.56610    0.56168    1.000
    C40      C        0.69370    0.69388    0.35650    1.000
    H22      H        0.78460    0.71790    0.39260    1.000
    C41      C        0.58480    0.72837    0.25160    1.000
    H23      H        0.60330    0.77430    0.21780    1.000
    C42      C        0.44670    0.69372    0.19670    1.000
    C43      C        0.42600    0.62600    0.25420    1.000
    H24      H        0.33480    0.60160    0.22260    1.000
    C44      C        0.53980    0.59453    0.35820    1.000
    H25      H        0.52340    0.54900    0.39490    1.000
    C45      C        0.32820    0.72698    0.08050    1.000
    C46      C        0.30530    0.80296    0.07490    1.000
    H26      H        0.36780    0.83310    0.14210    1.000
    C47      C        0.19020    0.83389    0.96990    1.000
    C48      C        0.16280    0.91518    0.96870    1.000
    C49      C        0.10000    0.78927    0.86610    1.000
    H27      H        0.02280    0.81010    0.79580    1.000
    C50      C        0.02820    0.66625    0.75140    1.000
    C51      C        0.12410    0.71403    0.86640    1.000
    C52      C        0.23660    0.68315    0.97530    1.000
    H28      H        0.25080    0.63250    0.97800    1.000
    N4       N        0.67430    0.62751    0.40870    1.000
    O13      O        0.26880    0.95719    0.02480    1.000
    O14      O        0.03150    0.93870    0.90840    1.000
    O15      O        0.06190    0.59888    0.75120    1.000
    O16      O        0.92210    0.69409    0.66180    1.000
