# CIF file generated by openbabel 3.1.0, see https://openbabel.org
data_I
_chemical_name_common 'image0'
_cell_length_a 8.2983
_cell_length_b 17.3652
_cell_length_c 7.8347
_cell_angle_alpha 90
_cell_angle_beta 108.51
_cell_angle_gamma 90
_space_group_name_H-M_alt 'P 1'
_space_group_name_Hall 'P 1'
loop_
    _symmetry_equiv_pos_as_xyz
    x,y,z
loop_
    _atom_site_label
    _atom_site_type_symbol
    _atom_site_fract_x
    _atom_site_fract_y
    _atom_site_fract_z
    _atom_site_occupancy
    Dy1      Dy       0.22284    0.47759    0.24840    1.000
    N1       N        0.52940    0.23480    0.39100    1.000
    H1       H        0.42680    0.23970    0.32020    1.000
    N2       N        0.61830    0.16980    0.42180    1.000
    O1       O        0.41150    0.38220    0.37800    1.000
    O2       O        0.65410    0.42090    0.57270    1.000
    O3       O        0.02650    0.12720    0.72750    1.000
    O4       O        0.87230    0.06170    0.49180    1.000
    O5       O        0.98310    0.54180    0.29370    1.000
    O6       O        0.80300    0.54580    0.45390    1.000
    C1       C        0.56160    0.37160    0.48220    1.000
    C2       C        0.62560    0.29150    0.48820    1.000
    C3       C        0.78180    0.26130    0.58650    1.000
    H2       H        0.87300    0.28770    0.66490    1.000
    C4       C        0.77430    0.18380    0.54430    1.000
    C5       C        0.89900    0.12120    0.59000    1.000
    C6       C        0.93820    0.52590    0.42810    1.000
    Dy2      Dy       0.77716    0.97759    0.25160    1.000
    N3       N        0.47060    0.73480    0.10900    1.000
    H3       H        0.57320    0.73970    0.17980    1.000
    N4       N        0.38170    0.66980    0.07820    1.000
    O7       O        0.58850    0.88220    0.12200    1.000
    O8       O        0.34590    0.92090    0.92730    1.000
    O9       O        0.97350    0.62720    0.77250    1.000
    O10      O        0.12770    0.56170    0.00820    1.000
    O11      O        0.01690    0.04180    0.20630    1.000
    O12      O        0.19700    0.04580    0.04610    1.000
    C7       C        0.43840    0.87160    0.01780    1.000
    C8       C        0.37440    0.79150    0.01180    1.000
    C9       C        0.21820    0.76130    0.91350    1.000
    H4       H        0.12700    0.78770    0.83510    1.000
    C10      C        0.22570    0.68380    0.95570    1.000
    C11      C        0.10100    0.62120    0.91000    1.000
    C12      C        0.06180    0.02590    0.07190    1.000
    Dy3      Dy       0.77716    0.52241    0.75160    1.000
    N5       N        0.47060    0.76520    0.60900    1.000
    H5       H        0.57320    0.76030    0.67980    1.000
    N6       N        0.38170    0.83020    0.57820    1.000
    O13      O        0.58850    0.61780    0.62200    1.000
    O14      O        0.34590    0.57910    0.42730    1.000
    O15      O        0.97350    0.87280    0.27250    1.000
    O16      O        0.12770    0.93830    0.50820    1.000
    O17      O        0.01690    0.45820    0.70630    1.000
    O18      O        0.19700    0.45420    0.54610    1.000
    C13      C        0.43840    0.62840    0.51780    1.000
    C14      C        0.37440    0.70850    0.51180    1.000
    C15      C        0.21820    0.73870    0.41350    1.000
    H6       H        0.12700    0.71230    0.33510    1.000
    C16      C        0.22570    0.81620    0.45570    1.000
    C17      C        0.10100    0.87880    0.41000    1.000
    C18      C        0.06180    0.47410    0.57190    1.000
    Dy4      Dy       0.22284    0.02241    0.74840    1.000
    N7       N        0.52940    0.26520    0.89100    1.000
    H7       H        0.42680    0.26030    0.82020    1.000
    N8       N        0.61830    0.33020    0.92180    1.000
    O19      O        0.41150    0.11780    0.87800    1.000
    O20      O        0.65410    0.07910    0.07270    1.000
    O21      O        0.02650    0.37280    0.22750    1.000
    O22      O        0.87230    0.43830    0.99180    1.000
    O23      O        0.98310    0.95820    0.79370    1.000
    O24      O        0.80300    0.95420    0.95390    1.000
    C19      C        0.56160    0.12840    0.98220    1.000
    C20      C        0.62560    0.20850    0.98820    1.000
    C21      C        0.78180    0.23870    0.08650    1.000
    H8       H        0.87300    0.21230    0.16490    1.000
    C22      C        0.77430    0.31620    0.04430    1.000
    C23      C        0.89900    0.37880    0.09000    1.000
    C24      C        0.93820    0.97410    0.92810    1.000
