data_functionalizedCrystal
_audit_creation_method	'EQeq! by Chris Wilmer'
_symmetry_space_group_name_H-M	'P1'
_symmetry_Int_Tables_number	1
_symmetry_cell_setting	triclinic
loop_
_symmetry_equiv_pos_as_xyz
  x,y,z
_cell_length_a	10.7402
_cell_length_b	28.559
_cell_length_c	42.642
_cell_angle_alpha	90
_cell_angle_beta	90
_cell_angle_gamma	90
loop_
_atom_site_label
_atom_site_type_symbol
_atom_site_fract_x
_atom_site_fract_y
_atom_site_fract_z
_atom_site_charge
Mof_C 	C 	0.7577	0.9981	0.4143	0.38
Mof_C 	C 	0.7062	0.0378	0.4327	-0.05
Mof_C 	C 	0.7303	0.0835	0.4226	-0.01
Mof_H 	H 	0.7793	0.0888	0.4044	0.063
Mof_C 	C 	0.683	0.1208	0.4391	-0.038
Mof_C 	C 	0.704	0.1702	0.42748	0.351
Mof_C 	C 	0.6133	0.1138	0.4664	-0.124
Mof_H 	H 	0.5825	0.1396	0.4781	0.086
Mof_C 	C 	0.59	0.0677	0.476	0.175
Mof_C 	C 	0.6345	0.0301	0.4587	-0.104
Mof_H 	H 	0.6152	0.999	0.4649	0.099
Mof_C 	C 	0.511	0.0892	0.5244	0.2
Mof_H 	H 	0.4826	0.0766	0.5446	-0.011
Mof_H 	H 	0.4415	0.1053	0.514	-0.118
Mof_H 	H 	0.579	0.1114	0.5279	0.026
Mof_C 	C 	0.5509	0.3021	0.37469	0.371
Mof_C 	C 	0.4366	0.3085	0.3546	-0.055
Mof_C 	C 	0.3246	0.288	0.3633	-0.005
Mof_H 	H 	0.3209	0.2681	0.3812	0.064
Mof_C 	C 	0.2184	0.2965	0.3458	-0.04
Mof_C 	C 	0.0936	0.2779	0.3562	0.365
Mof_C 	C 	0.2159	0.3381	0.3232	0.04
Mof_H 	H 	0.1404	0.3488	0.314	0.034
Mof_C 	C 	0.3253	0.359	0.3168	0.096
Mof_C 	C 	0.4338	0.3463	0.3327	-0.069
Mof_H 	H 	0.5082	0.3634	0.3288	0.06
Mof_C 	C 	0.236	0.4171	0.2822	0.196
Mof_C 	C 	0.6724	0.3435	0.4613	0.363
Mof_C 	C 	0.6382	0.3734	0.4886	-0.114
Mof_C 	C 	0.5921	0.3527	0.5164	0.046
Mof_H 	H 	0.579	0.3199	0.5174	0.032
Mof_C 	C 	0.5664	0.3804	0.5419	-0.113
Mof_C 	C 	0.5306	0.3585	0.5727	0.341
Mof_C 	C 	0.603	0.4304	0.5404	0.13
Mof_H 	H 	0.5956	0.4496	0.5585	-0.083
Mof_C 	C 	0.648	0.4486	0.5139	0.402
Mof_C 	C 	0.685	0.4194	0.4881	0.191
Mof_H 	H 	0.7386	0.4304	0.4719	-0.044
Mof_C 	C 	0.657	0.5267	0.5341	-4.028
Mof_H 	H 	0.6852	0.558	0.5279	1.216
Mof_H 	H 	0.7016	0.5169	0.5531	0.172
Mof_H 	H 	0.5675	0.5273	0.5383	1.379
Mof_C 	C 	0.276	0.297	0.66344	0.377
Mof_C 	C 	0.1956	0.334	0.6773	-0.101
Mof_C 	C 	0.2284	0.3811	0.6726	0.081
Mof_H 	H 	0.304	0.388	0.662	0.026
Mof_C 	C 	0.155	0.4174	0.6828	-0.195
Mof_C 	C 	0.1918	0.4678	0.6747	0.615
Mof_C 	C 	0.0496	0.4059	0.6981	0.006
Mof_H 	H 	0.9965	0.4305	0.7049	0.014
Mof_C 	C 	0.0127	0.358	0.7047	0.082
Mof_C 	C 	0.0873	0.322	0.6934	-0.043
Mof_H 	H 	0.0651	0.2901	0.6966	0.064
Mof_C 	C 	0.816	0.387	0.7265	-0.205
Mof_H 	H 	0.7437	0.3746	0.7377	0.093
Mof_H 	H 	0.7891	0.4008	0.7066	0.091
Mof_H 	H 	0.857	0.4109	0.7393	0.089
Mof_C 	C 	0.0166	0.6092	0.6194	0.366
Mof_C 	C 	0.902	0.6202	0.6017	-0.07
Mof_C 	C 	0.7897	0.5983	0.6094	0.01
Mof_H 	H 	0.7869	0.5759	0.6259	0.06
Mof_C 	C 	0.683	0.6093	0.593	-0.097
Mof_C 	C 	0.5617	0.5867	0.6022	0.364
Mof_C 	C 	0.6853	0.6423	0.5691	-0.11
Mof_H 	H 	0.6111	0.6497	0.558	0.064
Mof_C 	C 	0.7946	0.6644	0.5616	0.124
Mof_C 	C 	0.9039	0.6528	0.5778	-0.081
Mof_H 	H 	0.9802	0.6675	0.5723	0.072
Mof_C 	C 	0.7016	0.7069	0.5199	-0.16
Mof_H 	H 	0.6314	0.6877	0.5269	0.077
Mof_H 	H 	0.7192	0.7004	0.4978	0.082
Mof_H 	H 	0.6807	0.7401	0.5224	0.083
Mof_C 	C 	0.1414	0.6364	0.70408	0.389
Mof_C 	C 	0.0698	0.6636	0.72811	-0.138
Mof_C 	C 	0.0736	0.7129	0.7281	0.023
Mof_C 	C 	0.0249	0.7362	0.7497	0.047
Mof_C 	C 	0.991	0.8118	0.7734	0.037
Mof_O 	O 	0.712	0.95817	0.41809	-0.466
Mof_O 	O 	0.8379	0.27179	0.39994	-0.653
Mof_O 	O 	0.8462	0.008	0.3962	-0.485
Mof_O 	O 	0.3084	0.57435	0.64483	-0.659
Mof_O 	O 	0.755	0.1755	0.4018	-0.436
Mof_O 	O 	0.6624	0.2029	0.44439	-0.464
Mof_O 	O 	0.55	0.0547	0.5065	-0.161
Mof_O 	O 	0.5446	0.2727	0.39619	-0.462
Mof_O 	O 	0.6436	0.32797	0.36866	-0.508
Mof_O 	O 	0.0918	0.2445	0.37555	-0.434
Mof_O 	O 	0.9994	0.298	0.34501	-0.455
Mof_O 	O 	0.3412	0.3959	0.2957	-0.196
Mof_O 	O 	0.637	0.3012	0.46244	-0.46
Mof_O 	O 	0.7393	0.359	0.43941	-0.47
Mof_O 	O 	0.4927	0.3162	0.57125	-0.454
Mof_O 	O 	0.5411	0.3808	0.59781	-0.306
Mof_O 	O 	0.682	0.4954	0.5102	0.661
Mof_O 	O 	0.3798	0.3092	0.65245	-0.459
Mof_O 	O 	0.2352	0.25575	0.66399	-0.455
Mof_O 	O 	0.29	0.472	0.6608	-0.36
Mof_O 	O 	0.1126	0.4951	0.6766	-0.768
Mof_O 	O 	0.9054	0.3482	0.7201	-0.138
Mof_O 	O 	0.011	0.5769	0.63973	-0.457
Mof_O 	O 	0.1163	0.6318	0.61375	-0.513
Mof_O 	O 	0.5689	0.555	0.6229	-0.494
Mof_O 	O 	0.4668	0.6003	0.5889	-0.49
Mof_O 	O 	0.8054	0.6965	0.53774	-0.167
Mof_O 	O 	0.1282	0.5921	0.70515	-0.459
Mof_O 	O 	0.2067	0.6563	0.68366	-0.449
Mof_O 	O 	0.0376	0.7846	0.7484	-0.148
Mof_Zn	Zn	0.92914	0.98155	0.35801	1.2
Mof_Zn	Zn	0.68615	0.26415	0.42564	1.228
Mof_Zn	Zn	0.43194	0.28819	0.60983	1.231
Mof_Zn	Zn	0.31629	0.19882	0.64469	1.235
Mof_Zn	Zn	0.15271	0.5583	0.66575	1.237
Mof_Zn	Zn	0.28623	0.60079	0.59965	1.235
Mof_H 	H 	0.048	0.488	0.6908	0.266
Mof_C 	C 	0.45	0.0966	0.517	0.086
Mof_H 	H 	0.3861	0.0848	0.5315	0.018
Mof_H 	H 	0.4124	0.1198	0.5029	0.064
Mof_H 	H 	0.5172	0.1112	0.529	-0.1
Mof_C 	C 	0.2319	0.3129	0.3165	-0.148
Mof_H 	H 	0.1618	0.3137	0.3029	0.089
Mof_C 	C 	0.348	0.329	0.3054	0.104
Mof_C 	C 	0.4522	0.3252	0.3241	-0.032
Mof_H 	H 	0.5321	0.3337	0.3164	0.053
Mof_C 	C 	0.461	0.3653	0.2617	0.061
Mof_C 	C 	0.557	0.4283	0.5404	-0.044
Mof_H 	H 	0.5258	0.446	0.5575	0.073
Mof_C 	C 	0.596	0.4502	0.5124	-0.513
Mof_C 	C 	0.631	0.4227	0.4864	-0.224
Mof_H 	H 	0.6504	0.4375	0.467	0.089
Mof_C 	C 	0.585	0.5259	0.5328	-0.374
Mof_H 	H 	0.5966	0.559	0.5274	0.226
Mof_H 	H 	0.6417	0.5175	0.5499	1.629
Mof_H 	H 	0.4988	0.5207	0.5394	-0.521
Mof_C 	C 	0.8674	0.3034	0.7256	-0.181
Mof_H 	H 	0.788	0.3039	0.7369	0.097
Mof_H 	H 	0.9301	0.2872	0.7383	0.088
Mof_H 	H 	0.8568	0.287	0.7056	0.096
Mof_C 	C 	0.944	0.8127	0.7703	0.06
Mof_O 	O 	0.4986	0.0583	0.4988	-0.121
Mof_O 	O 	0.3451	0.3501	0.2757	-0.177
Mof_O 	O 	0.6114	0.4978	0.5062	0.035
Mof_O 	O 	0.3054	0.4772	0.6753	-0.219
Mof_O 	O 	0.213	0.4389	0.308	-0.212
Mof_H 	H 	0.974	0.7004	0.523	0.069
Mof_H 	H 	0.8845	0.7413	0.5107	0.085
Mof_H 	H 	0.9333	0.7418	0.5461	0.076
Mof_C 	C 	0.906	0.7218	0.5288	-0.141
Mof_C 	C 	0.7423	0.5019	0.9143	0.379
Mof_C 	C 	0.7938	0.4622	0.9327	-0.051
Mof_C 	C 	0.7697	0.4165	0.9226	-0.011
Mof_H 	H 	0.7207	0.4112	0.9044	0.062
Mof_C 	C 	0.817	0.3792	0.9391	-0.039
Mof_C 	C 	0.796	0.3298	0.92748	0.35
Mof_C 	C 	0.8867	0.3862	0.9664	-0.125
Mof_H 	H 	0.9175	0.3604	0.9781	0.085
Mof_C 	C 	0.91	0.4323	0.976	0.174
Mof_C 	C 	0.8655	0.4699	0.9587	-0.105
Mof_H 	H 	0.8848	0.501	0.9649	0.098
Mof_C 	C 	0.989	0.4108	0.0244	0.194
Mof_H 	H 	0.0174	0.4234	0.0446	-0.012
Mof_H 	H 	0.0585	0.3947	0.014	-0.118
Mof_H 	H 	0.921	0.3886	0.0279	0.025
Mof_C 	C 	0.9491	0.1979	0.87469	0.372
Mof_C 	C 	0.0634	0.1915	0.8546	-0.056
Mof_C 	C 	0.1754	0.212	0.8633	-0.005
Mof_H 	H 	0.1791	0.2319	0.8812	0.064
Mof_C 	C 	0.2816	0.2035	0.8458	-0.04
Mof_C 	C 	0.4064	0.2221	0.8562	0.366
Mof_C 	C 	0.2841	0.1619	0.8232	0.04
Mof_H 	H 	0.3596	0.1512	0.814	0.034
Mof_C 	C 	0.1747	0.141	0.8168	0.096
Mof_C 	C 	0.0662	0.1537	0.8327	-0.07
Mof_H 	H 	0.9918	0.1366	0.8288	0.061
Mof_C 	C 	0.264	0.0829	0.7822	0.196
Mof_C 	C 	0.8276	0.1565	0.9613	0.363
Mof_C 	C 	0.8618	0.1266	0.9886	-0.114
Mof_C 	C 	0.9079	0.1473	0.0164	0.047
Mof_H 	H 	0.921	0.1801	0.0174	0.032
Mof_C 	C 	0.9336	0.1196	0.0419	-0.114
Mof_C 	C 	0.9694	0.1415	0.0727	0.342
Mof_C 	C 	0.897	0.0696	0.0404	0.132
Mof_H 	H 	0.9044	0.0504	0.0585	-0.084
Mof_C 	C 	0.852	0.0514	0.0139	0.406
Mof_C 	C 	0.815	0.0806	0.9881	0.194
Mof_H 	H 	0.7614	0.0696	0.9719	-0.045
Mof_C 	C 	0.843	0.9733	0.0341	-4.054
Mof_H 	H 	0.8148	0.942	0.0279	1.224
Mof_H 	H 	0.7984	0.9831	0.0531	0.173
Mof_H 	H 	0.9325	0.9727	0.0383	1.389
Mof_C 	C 	0.224	0.203	0.16344	0.377
Mof_C 	C 	0.3044	0.166	0.1773	-0.101
Mof_C 	C 	0.2716	0.1189	0.1726	0.081
Mof_H 	H 	0.196	0.112	0.162	0.026
Mof_C 	C 	0.345	0.0826	0.1828	-0.195
Mof_C 	C 	0.3082	0.0322	0.1747	0.616
Mof_C 	C 	0.4504	0.0941	0.1981	0.008
Mof_H 	H 	0.5035	0.0695	0.2049	0.013
Mof_C 	C 	0.4873	0.142	0.2047	0.083
Mof_C 	C 	0.4127	0.178	0.1934	-0.043
Mof_H 	H 	0.4349	0.2099	0.1966	0.064
Mof_C 	C 	0.684	0.113	0.2265	-0.205
Mof_H 	H 	0.7563	0.1254	0.2377	0.093
Mof_H 	H 	0.7109	0.0992	0.2066	0.091
Mof_H 	H 	0.643	0.0891	0.2393	0.089
Mof_C 	C 	0.4834	0.8908	0.1194	0.368
Mof_C 	C 	0.598	0.8798	0.1017	-0.072
Mof_C 	C 	0.7103	0.9017	0.1094	0.011
Mof_H 	H 	0.7131	0.9241	0.1259	0.06
Mof_C 	C 	0.817	0.8907	0.093	-0.098
Mof_C 	C 	0.9383	0.9133	0.1022	0.365
Mof_C 	C 	0.8147	0.8577	0.0691	-0.109
Mof_H 	H 	0.8889	0.8503	0.058	0.063
Mof_C 	C 	0.7054	0.8356	0.0616	0.123
Mof_C 	C 	0.5961	0.8472	0.0778	-0.08
Mof_H 	H 	0.5198	0.8325	0.0723	0.072
Mof_C 	C 	0.7984	0.7931	0.0199	-0.16
Mof_H 	H 	0.8686	0.8123	0.0269	0.077
Mof_H 	H 	0.7808	0.7996	0.9978	0.082
Mof_H 	H 	0.8193	0.7599	0.0224	0.083
Mof_C 	C 	0.3586	0.8636	0.20408	0.39
Mof_C 	C 	0.4302	0.8364	0.22811	-0.139
Mof_C 	C 	0.4264	0.7871	0.2281	0.025
Mof_C 	C 	0.4751	0.7638	0.2497	0.043
Mof_C 	C 	0.509	0.6882	0.2734	0.039
Mof_O 	O 	0.788	0.54183	0.91809	-0.466
Mof_O 	O 	0.6621	0.22821	0.89994	-0.653
Mof_O 	O 	0.6538	0.492	0.8962	-0.486
Mof_O 	O 	0.1916	0.92565	0.14483	-0.659
Mof_O 	O 	0.745	0.3245	0.9018	-0.436
Mof_O 	O 	0.8376	0.2971	0.94439	-0.464
Mof_O 	O 	0.95	0.4453	0.0065	-0.153
Mof_O 	O 	0.9554	0.2273	0.89619	-0.462
Mof_O 	O 	0.8564	0.17203	0.86866	-0.508
Mof_O 	O 	0.4082	0.2555	0.87555	-0.434
Mof_O 	O 	0.5006	0.202	0.84501	-0.456
Mof_O 	O 	0.1588	0.1041	0.7957	-0.196
Mof_O 	O 	0.863	0.1988	0.96244	-0.46
Mof_O 	O 	0.7607	0.141	0.93941	-0.471
Mof_O 	O 	0.0073	0.1838	0.07125	-0.455
Mof_O 	O 	0.9589	0.1192	0.09781	-0.306
Mof_O 	O 	0.818	0.0046	0.0102	0.665
Mof_O 	O 	0.1202	0.1908	0.15245	-0.46
Mof_O 	O 	0.2648	0.24425	0.16399	-0.455
Mof_O 	O 	0.21	0.028	0.1608	-0.36
Mof_O 	O 	0.3874	0.0049	0.1766	-0.768
Mof_O 	O 	0.5946	0.1518	0.2201	-0.139
Mof_O 	O 	0.489	0.9231	0.13973	-0.457
Mof_O 	O 	0.3837	0.8682	0.11375	-0.514
Mof_O 	O 	0.9311	0.945	0.1229	-0.494
Mof_O 	O 	0.0332	0.8997	0.0889	-0.491
Mof_O 	O 	0.6946	0.8035	0.03774	-0.166
Mof_O 	O 	0.3718	0.9079	0.20515	-0.459
Mof_O 	O 	0.2933	0.8437	0.18366	-0.45
Mof_O 	O 	0.4624	0.7154	0.2484	-0.147
Mof_Zn	Zn	0.57086	0.51845	0.85801	1.2
Mof_Zn	Zn	0.81385	0.23585	0.92564	1.228
Mof_Zn	Zn	0.06806	0.21181	0.10983	1.231
Mof_Zn	Zn	0.18371	0.30118	0.14469	1.235
Mof_Zn	Zn	0.34729	0.9417	0.16575	1.237
Mof_Zn	Zn	0.21377	0.89921	0.09965	1.235
Mof_H 	H 	0.452	0.012	0.1908	0.267
Mof_C 	C 	0.05	0.4034	0.017	0.085
Mof_H 	H 	0.1139	0.4152	0.0315	0.018
Mof_H 	H 	0.0876	0.3802	0.0029	0.063
Mof_H 	H 	0.9828	0.3888	0.029	-0.097
Mof_C 	C 	0.2681	0.1871	0.8165	-0.148
Mof_H 	H 	0.3382	0.1863	0.8029	0.09
Mof_C 	C 	0.152	0.171	0.8054	0.104
Mof_C 	C 	0.0478	0.1748	0.8241	-0.033
Mof_H 	H 	0.9679	0.1663	0.8164	0.054
Mof_C 	C 	0.039	0.1347	0.7617	0.059
Mof_C 	C 	0.943	0.0717	0.0404	-0.044
Mof_H 	H 	0.9742	0.054	0.0575	0.074
Mof_C 	C 	0.904	0.0498	0.0124	-0.518
Mof_C 	C 	0.869	0.0773	0.9864	-0.227
Mof_H 	H 	0.8496	0.0625	0.967	0.089
Mof_C 	C 	0.915	0.9741	0.0328	-0.377
Mof_H 	H 	0.9034	0.941	0.0274	0.227
Mof_H 	H 	0.8583	0.9825	0.0499	1.639
Mof_H 	H 	0.0012	0.9793	0.0394	-0.525
Mof_C 	C 	0.6326	0.1966	0.2256	-0.179
Mof_H 	H 	0.712	0.1961	0.2369	0.096
Mof_H 	H 	0.5699	0.2128	0.2383	0.088
Mof_H 	H 	0.6432	0.213	0.2056	0.096
Mof_C 	C 	0.556	0.6873	0.2703	0.058
Mof_O 	O 	0.0014	0.4417	0.9988	-0.128
Mof_O 	O 	0.1549	0.1499	0.7757	-0.177
Mof_O 	O 	0.8886	0.0022	0.0062	0.036
Mof_O 	O 	0.1946	0.0228	0.1753	-0.22
Mof_O 	O 	0.287	0.0611	0.808	-0.212
Mof_H 	H 	0.526	0.7996	0.023	0.069
Mof_H 	H 	0.6155	0.7587	0.0107	0.084
Mof_H 	H 	0.5667	0.7582	0.0461	0.076
Mof_C 	C 	0.594	0.7782	0.0288	-0.141
Mof_C 	C 	0.2423	0.9981	0.0857	0.379
Mof_C 	C 	0.2938	0.0378	0.0673	-0.051
Mof_C 	C 	0.2697	0.0835	0.0774	-0.011
Mof_H 	H 	0.2207	0.0888	0.0956	0.062
Mof_C 	C 	0.317	0.1208	0.0609	-0.04
Mof_C 	C 	0.296	0.1702	0.07252	0.35
Mof_C 	C 	0.3867	0.1138	0.0336	-0.125
Mof_H 	H 	0.4175	0.1396	0.0219	0.085
Mof_C 	C 	0.41	0.0677	0.024	0.174
Mof_C 	C 	0.3655	0.0301	0.0413	-0.105
Mof_H 	H 	0.3848	0.999	0.0351	0.098
Mof_C 	C 	0.489	0.0892	0.9756	0.199
Mof_H 	H 	0.5174	0.0766	0.9554	-0.012
Mof_H 	H 	0.5585	0.1053	0.986	-0.119
Mof_H 	H 	0.421	0.1114	0.9721	0.026
Mof_C 	C 	0.4491	0.3021	0.12531	0.372
Mof_C 	C 	0.5634	0.3085	0.1454	-0.055
Mof_C 	C 	0.6754	0.288	0.1367	-0.005
Mof_H 	H 	0.6791	0.2681	0.1188	0.064
Mof_C 	C 	0.7816	0.2965	0.1542	-0.04
Mof_C 	C 	0.9064	0.2779	0.1438	0.367
Mof_C 	C 	0.7841	0.3381	0.1768	0.04
Mof_H 	H 	0.8596	0.3488	0.186	0.034
Mof_C 	C 	0.6747	0.359	0.1832	0.095
Mof_C 	C 	0.5662	0.3463	0.1673	-0.069
Mof_H 	H 	0.4918	0.3634	0.1712	0.06
Mof_C 	C 	0.764	0.4171	0.2178	0.196
Mof_C 	C 	0.3276	0.3435	0.0387	0.363
Mof_C 	C 	0.3618	0.3734	0.0114	-0.114
Mof_C 	C 	0.4079	0.3527	0.9836	0.046
Mof_H 	H 	0.421	0.3199	0.9826	0.032
Mof_C 	C 	0.4336	0.3804	0.9581	-0.113
Mof_C 	C 	0.4694	0.3585	0.9273	0.341
Mof_C 	C 	0.397	0.4304	0.9596	0.13
Mof_H 	H 	0.4044	0.4496	0.9415	-0.083
Mof_C 	C 	0.352	0.4486	0.9861	0.402
Mof_C 	C 	0.315	0.4194	0.0119	0.191
Mof_H 	H 	0.2614	0.4304	0.0281	-0.044
Mof_C 	C 	0.343	0.5267	0.9659	-4.03
Mof_H 	H 	0.3148	0.558	0.9721	1.217
Mof_H 	H 	0.2984	0.5169	0.9469	0.172
Mof_H 	H 	0.4325	0.5273	0.9617	1.38
Mof_C 	C 	0.724	0.297	0.83656	0.377
Mof_C 	C 	0.8044	0.334	0.8227	-0.101
Mof_C 	C 	0.7716	0.3811	0.8274	0.082
Mof_H 	H 	0.696	0.388	0.838	0.026
Mof_C 	C 	0.845	0.4174	0.8172	-0.196
Mof_C 	C 	0.8082	0.4678	0.8253	0.616
Mof_C 	C 	0.9504	0.4059	0.8019	0.009
Mof_H 	H 	0.0035	0.4305	0.7951	0.011
Mof_C 	C 	0.9873	0.358	0.7953	0.083
Mof_C 	C 	0.9127	0.322	0.8066	-0.043
Mof_H 	H 	0.9349	0.2901	0.8034	0.064
Mof_C 	C 	0.184	0.387	0.7735	-0.204
Mof_H 	H 	0.2563	0.3746	0.7623	0.092
Mof_H 	H 	0.2109	0.4008	0.7934	0.09
Mof_H 	H 	0.143	0.4109	0.7607	0.089
Mof_C 	C 	0.9834	0.6092	0.8806	0.369
Mof_C 	C 	0.098	0.6202	0.8983	-0.073
Mof_C 	C 	0.2103	0.5983	0.8906	0.011
Mof_H 	H 	0.2131	0.5759	0.8741	0.059
Mof_C 	C 	0.317	0.6093	0.907	-0.098
Mof_C 	C 	0.4383	0.5867	0.8978	0.365
Mof_C 	C 	0.3147	0.6423	0.9309	-0.109
Mof_H 	H 	0.3889	0.6497	0.942	0.063
Mof_C 	C 	0.2054	0.6644	0.9384	0.123
Mof_C 	C 	0.0961	0.6528	0.9222	-0.079
Mof_H 	H 	0.0198	0.6675	0.9277	0.071
Mof_C 	C 	0.2984	0.7069	0.9801	-0.159
Mof_H 	H 	0.3686	0.6877	0.9731	0.077
Mof_H 	H 	0.2808	0.7004	0.0022	0.081
Mof_H 	H 	0.3193	0.7401	0.9776	0.083
Mof_C 	C 	0.8586	0.6364	0.79592	0.39
Mof_C 	C 	0.9302	0.6636	0.77189	-0.138
Mof_C 	C 	0.9264	0.7129	0.7719	0.026
Mof_C 	C 	0.9751	0.7362	0.7503	0.04
Mof_C 	C 	0.009	0.8118	0.7266	0.041
Mof_O 	O 	0.288	0.95817	0.08191	-0.466
Mof_O 	O 	0.1621	0.27179	0.10006	-0.653
Mof_O 	O 	0.1538	0.008	0.1038	-0.486
Mof_O 	O 	0.6916	0.57435	0.85517	-0.659
Mof_O 	O 	0.245	0.1755	0.0982	-0.436
Mof_O 	O 	0.3376	0.2029	0.05561	-0.464
Mof_O 	O 	0.45	0.0547	0.9935	-0.161
Mof_O 	O 	0.4554	0.2727	0.10381	-0.462
Mof_O 	O 	0.3564	0.32797	0.13134	-0.508
Mof_O 	O 	0.9082	0.2445	0.12445	-0.434
Mof_O 	O 	0.0006	0.298	0.15499	-0.457
Mof_O 	O 	0.6588	0.3959	0.2043	-0.196
Mof_O 	O 	0.363	0.3012	0.03756	-0.46
Mof_O 	O 	0.2607	0.359	0.06059	-0.471
Mof_O 	O 	0.5073	0.3162	0.92875	-0.454
Mof_O 	O 	0.4589	0.3808	0.90219	-0.306
Mof_O 	O 	0.318	0.4954	0.9898	0.661
Mof_O 	O 	0.6202	0.3092	0.84755	-0.459
Mof_O 	O 	0.7648	0.25575	0.83601	-0.455
Mof_O 	O 	0.71	0.472	0.8392	-0.36
Mof_O 	O 	0.8874	0.4951	0.8234	-0.768
Mof_O 	O 	0.0946	0.3482	0.7799	-0.14
Mof_O 	O 	0.989	0.5769	0.86027	-0.457
Mof_O 	O 	0.8837	0.6318	0.88625	-0.514
Mof_O 	O 	0.4311	0.555	0.8771	-0.494
Mof_O 	O 	0.5332	0.6003	0.9111	-0.49
Mof_O 	O 	0.1946	0.6965	0.96226	-0.167
Mof_O 	O 	0.8718	0.5921	0.79485	-0.458
Mof_O 	O 	0.7933	0.6563	0.81634	-0.449
Mof_O 	O 	0.9624	0.7846	0.7516	-0.145
Mof_Zn	Zn	0.07086	0.98155	0.14199	1.2
Mof_Zn	Zn	0.31385	0.26415	0.07436	1.228
Mof_Zn	Zn	0.56806	0.28819	0.89017	1.231
Mof_Zn	Zn	0.68371	0.19882	0.85531	1.235
Mof_Zn	Zn	0.84729	0.5583	0.83425	1.237
Mof_Zn	Zn	0.71377	0.60079	0.90035	1.235
Mof_H 	H 	0.952	0.488	0.8092	0.267
Mof_C 	C 	0.55	0.0966	0.983	0.086
Mof_H 	H 	0.6139	0.0848	0.9685	0.018
Mof_H 	H 	0.5876	0.1198	0.9971	0.064
Mof_H 	H 	0.4828	0.1112	0.971	-0.1
Mof_C 	C 	0.7681	0.3129	0.1835	-0.148
Mof_H 	H 	0.8382	0.3137	0.1971	0.09
Mof_C 	C 	0.652	0.329	0.1946	0.104
Mof_C 	C 	0.5478	0.3252	0.1759	-0.032
Mof_H 	H 	0.4679	0.3337	0.1836	0.053
Mof_C 	C 	0.539	0.3653	0.2383	0.061
Mof_C 	C 	0.443	0.4283	0.9596	-0.044
Mof_H 	H 	0.4742	0.446	0.9425	0.073
Mof_C 	C 	0.404	0.4502	0.9876	-0.513
Mof_C 	C 	0.369	0.4227	0.0136	-0.224
Mof_H 	H 	0.3496	0.4375	0.033	0.088
Mof_C 	C 	0.415	0.5259	0.9672	-0.374
Mof_H 	H 	0.4034	0.559	0.9726	0.226
Mof_H 	H 	0.3583	0.5175	0.9501	1.63
Mof_H 	H 	0.5012	0.5207	0.9606	-0.521
Mof_C 	C 	0.1326	0.3034	0.7744	-0.178
Mof_H 	H 	0.212	0.3039	0.7631	0.096
Mof_H 	H 	0.0699	0.2872	0.7617	0.087
Mof_H 	H 	0.1432	0.287	0.7944	0.095
Mof_C 	C 	0.056	0.8127	0.7297	0.055
Mof_O 	O 	0.5014	0.0583	0.0012	-0.122
Mof_O 	O 	0.6549	0.3501	0.2243	-0.177
Mof_O 	O 	0.3886	0.4978	0.9938	0.035
Mof_O 	O 	0.6946	0.4772	0.8247	-0.219
Mof_O 	O 	0.787	0.4389	0.192	-0.212
Mof_H 	H 	0.026	0.7004	0.977	0.068
Mof_H 	H 	0.1155	0.7413	0.9893	0.084
Mof_H 	H 	0.0667	0.7418	0.9539	0.076
Mof_C 	C 	0.094	0.7218	0.9712	-0.14
Mof_C 	C 	0.2577	0.5019	0.5857	0.379
Mof_C 	C 	0.2062	0.4622	0.5673	-0.051
Mof_C 	C 	0.2303	0.4165	0.5774	-0.011
Mof_H 	H 	0.2793	0.4112	0.5956	0.062
Mof_C 	C 	0.183	0.3792	0.5609	-0.04
Mof_C 	C 	0.204	0.3298	0.57252	0.35
Mof_C 	C 	0.1133	0.3862	0.5336	-0.125
Mof_H 	H 	0.0825	0.3604	0.5219	0.084
Mof_C 	C 	0.09	0.4323	0.524	0.174
Mof_C 	C 	0.1345	0.4699	0.5413	-0.105
Mof_H 	H 	0.1152	0.501	0.5351	0.098
Mof_C 	C 	0.011	0.4108	0.4756	0.203
Mof_H 	H 	0.9826	0.4234	0.4554	-0.013
Mof_H 	H 	0.9415	0.3947	0.486	-0.121
Mof_H 	H 	0.079	0.3886	0.4721	0.026
Mof_C 	C 	0.0509	0.1979	0.62531	0.371
Mof_C 	C 	0.9366	0.1915	0.6454	-0.055
Mof_C 	C 	0.8246	0.212	0.6367	-0.005
Mof_H 	H 	0.8209	0.2319	0.6188	0.064
Mof_C 	C 	0.7184	0.2035	0.6542	-0.04
Mof_C 	C 	0.5936	0.2221	0.6438	0.366
Mof_C 	C 	0.7159	0.1619	0.6768	0.04
Mof_H 	H 	0.6404	0.1512	0.686	0.034
Mof_C 	C 	0.8253	0.141	0.6832	0.095
Mof_C 	C 	0.9338	0.1537	0.6673	-0.068
Mof_H 	H 	0.0082	0.1366	0.6712	0.06
Mof_C 	C 	0.736	0.0829	0.7178	0.196
Mof_C 	C 	0.1724	0.1565	0.5387	0.363
Mof_C 	C 	0.1382	0.1266	0.5114	-0.114
Mof_C 	C 	0.0921	0.1473	0.4836	0.046
Mof_H 	H 	0.079	0.1801	0.4826	0.032
Mof_C 	C 	0.0664	0.1196	0.4581	-0.113
Mof_C 	C 	0.0306	0.1415	0.4273	0.34
Mof_C 	C 	0.103	0.0696	0.4596	0.129
Mof_H 	H 	0.0956	0.0504	0.4415	-0.082
Mof_C 	C 	0.148	0.0514	0.4861	0.399
Mof_C 	C 	0.185	0.0806	0.5119	0.188
Mof_H 	H 	0.2386	0.0696	0.5281	-0.043
Mof_C 	C 	0.157	0.9733	0.4659	-4.008
Mof_H 	H 	0.1852	0.942	0.4721	1.21
Mof_H 	H 	0.2016	0.9831	0.4469	0.171
Mof_H 	H 	0.0675	0.9727	0.4617	1.371
Mof_C 	C 	0.776	0.203	0.33656	0.377
Mof_C 	C 	0.6956	0.166	0.3227	-0.101
Mof_C 	C 	0.7284	0.1189	0.3274	0.081
Mof_H 	H 	0.804	0.112	0.338	0.026
Mof_C 	C 	0.655	0.0826	0.3172	-0.195
Mof_C 	C 	0.6918	0.0322	0.3253	0.616
Mof_C 	C 	0.5496	0.0941	0.3019	0.008
Mof_H 	H 	0.4965	0.0695	0.2951	0.013
Mof_C 	C 	0.5127	0.142	0.2953	0.083
Mof_C 	C 	0.5873	0.178	0.3066	-0.043
Mof_H 	H 	0.5651	0.2099	0.3034	0.064
Mof_C 	C 	0.316	0.113	0.2735	-0.205
Mof_H 	H 	0.2437	0.1254	0.2623	0.093
Mof_H 	H 	0.2891	0.0992	0.2934	0.09
Mof_H 	H 	0.357	0.0891	0.2607	0.089
Mof_C 	C 	0.5166	0.8908	0.3806	0.367
Mof_C 	C 	0.402	0.8798	0.3983	-0.072
Mof_C 	C 	0.2897	0.9017	0.3906	0.01
Mof_H 	H 	0.2869	0.9241	0.3741	0.06
Mof_C 	C 	0.183	0.8907	0.407	-0.097
Mof_C 	C 	0.0617	0.9133	0.3978	0.363
Mof_C 	C 	0.1853	0.8577	0.4309	-0.109
Mof_H 	H 	0.1111	0.8503	0.442	0.063
Mof_C 	C 	0.2946	0.8356	0.4384	0.124
Mof_C 	C 	0.4039	0.8472	0.4222	-0.08
Mof_H 	H 	0.4802	0.8325	0.4277	0.072
Mof_C 	C 	0.2016	0.7931	0.4801	-0.159
Mof_H 	H 	0.1314	0.8123	0.4731	0.077
Mof_H 	H 	0.2192	0.7996	0.5022	0.081
Mof_H 	H 	0.1807	0.7599	0.4776	0.082
Mof_C 	C 	0.6414	0.8636	0.29592	0.39
Mof_C 	C 	0.5698	0.8364	0.27189	-0.139
Mof_C 	C 	0.5736	0.7871	0.2719	0.025
Mof_C 	C 	0.5249	0.7638	0.2503	0.043
Mof_C 	C 	0.491	0.6882	0.2266	0.039
Mof_O 	O 	0.212	0.54183	0.58191	-0.466
Mof_O 	O 	0.3379	0.22821	0.60006	-0.653
Mof_O 	O 	0.3462	0.492	0.6038	-0.486
Mof_O 	O 	0.8084	0.92565	0.35517	-0.658
Mof_O 	O 	0.255	0.3245	0.5982	-0.436
Mof_O 	O 	0.1624	0.2971	0.55561	-0.464
Mof_O 	O 	0.05	0.4453	0.4935	-0.167
Mof_O 	O 	0.0446	0.2273	0.60381	-0.462
Mof_O 	O 	0.1436	0.17203	0.63134	-0.508
Mof_O 	O 	0.5918	0.2555	0.62445	-0.434
Mof_O 	O 	0.4994	0.202	0.65499	-0.456
Mof_O 	O 	0.8412	0.1041	0.7043	-0.196
Mof_O 	O 	0.137	0.1988	0.53756	-0.46
Mof_O 	O 	0.2393	0.141	0.56059	-0.471
Mof_O 	O 	0.9927	0.1838	0.42875	-0.453
Mof_O 	O 	0.0411	0.1192	0.40219	-0.306
Mof_O 	O 	0.182	0.0046	0.4898	0.658
Mof_O 	O 	0.8798	0.1908	0.34755	-0.459
Mof_O 	O 	0.7352	0.24425	0.33601	-0.455
Mof_O 	O 	0.79	0.028	0.3392	-0.36
Mof_O 	O 	0.6126	0.0049	0.3234	-0.768
Mof_O 	O 	0.4054	0.1518	0.2799	-0.139
Mof_O 	O 	0.511	0.9231	0.36027	-0.457
Mof_O 	O 	0.6163	0.8682	0.38625	-0.514
Mof_O 	O 	0.0689	0.945	0.3771	-0.494
Mof_O 	O 	0.9668	0.8997	0.4111	-0.489
Mof_O 	O 	0.3054	0.8035	0.46226	-0.167
Mof_O 	O 	0.6282	0.9079	0.29485	-0.459
Mof_O 	O 	0.7067	0.8437	0.31634	-0.449
Mof_O 	O 	0.5376	0.7154	0.2516	-0.147
Mof_Zn	Zn	0.42914	0.51845	0.64199	1.2
Mof_Zn	Zn	0.18615	0.23585	0.57436	1.228
Mof_Zn	Zn	0.93194	0.21181	0.39017	1.231
Mof_Zn	Zn	0.81629	0.30118	0.35531	1.235
Mof_Zn	Zn	0.65271	0.9417	0.33425	1.237
Mof_Zn	Zn	0.78623	0.89921	0.40035	1.235
Mof_H 	H 	0.548	0.012	0.3092	0.267
Mof_C 	C 	0.95	0.4034	0.483	0.086
Mof_H 	H 	0.8861	0.4152	0.4685	0.018
Mof_H 	H 	0.9124	0.3802	0.4971	0.065
Mof_H 	H 	0.0172	0.3888	0.471	-0.103
Mof_C 	C 	0.7319	0.1871	0.6835	-0.148
Mof_H 	H 	0.6618	0.1863	0.6971	0.089
Mof_C 	C 	0.848	0.171	0.6946	0.104
Mof_C 	C 	0.9522	0.1748	0.6759	-0.032
Mof_H 	H 	0.0321	0.1663	0.6836	0.052
Mof_C 	C 	0.961	0.1347	0.7383	0.062
Mof_C 	C 	0.057	0.0717	0.4596	-0.043
Mof_H 	H 	0.0258	0.054	0.4425	0.073
Mof_C 	C 	0.096	0.0498	0.4876	-0.508
Mof_C 	C 	0.131	0.0773	0.5136	-0.222
Mof_H 	H 	0.1504	0.0625	0.533	0.088
Mof_C 	C 	0.085	0.9741	0.4672	-0.372
Mof_H 	H 	0.0966	0.941	0.4726	0.225
Mof_H 	H 	0.1417	0.9825	0.4501	1.621
Mof_H 	H 	0.9988	0.9793	0.4606	-0.517
Mof_C 	C 	0.3674	0.1966	0.2744	-0.179
Mof_H 	H 	0.288	0.1961	0.2631	0.096
Mof_H 	H 	0.4301	0.2128	0.2617	0.088
Mof_H 	H 	0.3568	0.213	0.2944	0.096
Mof_C 	C 	0.444	0.6873	0.2297	0.058
Mof_O 	O 	0.9986	0.4417	0.5012	-0.116
Mof_O 	O 	0.8451	0.1499	0.7243	-0.177
Mof_O 	O 	0.1114	0.0022	0.4938	0.034
Mof_O 	O 	0.8054	0.0228	0.3247	-0.219
Mof_O 	O 	0.713	0.0611	0.692	-0.212
Mof_H 	H 	0.474	0.7996	0.477	0.069
Mof_H 	H 	0.3845	0.7587	0.4893	0.084
Mof_H 	H 	0.4333	0.7582	0.4539	0.076
Mof_C 	C 	0.406	0.7782	0.4712	-0.141
Mof_C 	C 	0.2423	0.0019	0.5857	0.379
Mof_C 	C 	0.2938	0.9622	0.5673	-0.051
Mof_C 	C 	0.2697	0.9165	0.5774	-0.011
Mof_H 	H 	0.2207	0.9112	0.5956	0.062
Mof_C 	C 	0.317	0.8792	0.5609	-0.04
Mof_C 	C 	0.296	0.8298	0.57252	0.35
Mof_C 	C 	0.3867	0.8862	0.5336	-0.125
Mof_H 	H 	0.4175	0.8604	0.5219	0.085
Mof_C 	C 	0.41	0.9323	0.524	0.174
Mof_C 	C 	0.3655	0.9699	0.5413	-0.105
Mof_H 	H 	0.3848	0.001	0.5351	0.098
Mof_C 	C 	0.489	0.9108	0.4756	0.199
Mof_H 	H 	0.5174	0.9234	0.4554	-0.012
Mof_H 	H 	0.5585	0.8947	0.486	-0.119
Mof_H 	H 	0.421	0.8886	0.4721	0.026
Mof_C 	C 	0.4491	0.6979	0.62531	0.372
Mof_C 	C 	0.5634	0.6915	0.6454	-0.055
Mof_C 	C 	0.6754	0.712	0.6367	-0.005
Mof_H 	H 	0.6791	0.7319	0.6188	0.064
Mof_C 	C 	0.7816	0.7035	0.6542	-0.04
Mof_C 	C 	0.9064	0.7221	0.6438	0.367
Mof_C 	C 	0.7841	0.6619	0.6768	0.04
Mof_H 	H 	0.8596	0.6512	0.686	0.034
Mof_C 	C 	0.6747	0.641	0.6832	0.095
Mof_C 	C 	0.5662	0.6537	0.6673	-0.069
Mof_H 	H 	0.4918	0.6366	0.6712	0.06
Mof_C 	C 	0.764	0.5829	0.7178	0.196
Mof_C 	C 	0.3276	0.6565	0.5387	0.363
Mof_C 	C 	0.3618	0.6266	0.5114	-0.114
Mof_C 	C 	0.4079	0.6473	0.4836	0.046
Mof_H 	H 	0.421	0.6801	0.4826	0.032
Mof_C 	C 	0.4336	0.6196	0.4581	-0.113
Mof_C 	C 	0.4694	0.6415	0.4273	0.341
Mof_C 	C 	0.397	0.5696	0.4596	0.13
Mof_H 	H 	0.4044	0.5504	0.4415	-0.083
Mof_C 	C 	0.352	0.5514	0.4861	0.402
Mof_C 	C 	0.315	0.5806	0.5119	0.191
Mof_H 	H 	0.2614	0.5696	0.5281	-0.044
Mof_C 	C 	0.343	0.4733	0.4659	-4.031
Mof_H 	H 	0.3148	0.442	0.4721	1.217
Mof_H 	H 	0.2984	0.4831	0.4469	0.172
Mof_H 	H 	0.4325	0.4727	0.4617	1.38
Mof_C 	C 	0.724	0.703	0.33656	0.377
Mof_C 	C 	0.8044	0.666	0.3227	-0.101
Mof_C 	C 	0.7716	0.6189	0.3274	0.082
Mof_H 	H 	0.696	0.612	0.338	0.026
Mof_C 	C 	0.845	0.5826	0.3172	-0.196
Mof_C 	C 	0.8082	0.5322	0.3253	0.616
Mof_C 	C 	0.9504	0.5941	0.3019	0.009
Mof_H 	H 	0.0035	0.5695	0.2951	0.011
Mof_C 	C 	0.9873	0.642	0.2953	0.083
Mof_C 	C 	0.9127	0.678	0.3066	-0.043
Mof_H 	H 	0.9349	0.7099	0.3034	0.064
Mof_C 	C 	0.184	0.613	0.2735	-0.204
Mof_H 	H 	0.2563	0.6254	0.2623	0.092
Mof_H 	H 	0.2109	0.5992	0.2934	0.09
Mof_H 	H 	0.143	0.5891	0.2607	0.089
Mof_C 	C 	0.9834	0.3908	0.3806	0.369
Mof_C 	C 	0.098	0.3798	0.3983	-0.073
Mof_C 	C 	0.2103	0.4017	0.3906	0.011
Mof_H 	H 	0.2131	0.4241	0.3741	0.059
Mof_C 	C 	0.317	0.3907	0.407	-0.098
Mof_C 	C 	0.4383	0.4133	0.3978	0.365
Mof_C 	C 	0.3147	0.3577	0.4309	-0.109
Mof_H 	H 	0.3889	0.3503	0.442	0.063
Mof_C 	C 	0.2054	0.3356	0.4384	0.123
Mof_C 	C 	0.0961	0.3472	0.4222	-0.079
Mof_H 	H 	0.0198	0.3325	0.4277	0.071
Mof_C 	C 	0.2984	0.2931	0.4801	-0.16
Mof_H 	H 	0.3686	0.3123	0.4731	0.077
Mof_H 	H 	0.2808	0.2996	0.5022	0.082
Mof_H 	H 	0.3193	0.2599	0.4776	0.083
Mof_C 	C 	0.8586	0.3636	0.29592	0.39
Mof_C 	C 	0.9302	0.3364	0.27189	-0.138
Mof_C 	C 	0.9264	0.2871	0.2719	0.026
Mof_C 	C 	0.9751	0.2638	0.2503	0.04
Mof_C 	C 	0.009	0.1882	0.2266	0.041
Mof_O 	O 	0.288	0.04183	0.58191	-0.466
Mof_O 	O 	0.1621	0.72821	0.60006	-0.653
Mof_O 	O 	0.1538	0.992	0.6038	-0.486
Mof_O 	O 	0.6916	0.42565	0.35517	-0.659
Mof_O 	O 	0.245	0.8245	0.5982	-0.436
Mof_O 	O 	0.3376	0.7971	0.55561	-0.464
Mof_O 	O 	0.45	0.9453	0.4935	-0.161
Mof_O 	O 	0.4554	0.7273	0.60381	-0.462
Mof_O 	O 	0.3564	0.67203	0.63134	-0.508
Mof_O 	O 	0.9082	0.7555	0.62445	-0.434
Mof_O 	O 	0.0006	0.702	0.65499	-0.457
Mof_O 	O 	0.6588	0.6041	0.7043	-0.196
Mof_O 	O 	0.363	0.6988	0.53756	-0.46
Mof_O 	O 	0.2607	0.641	0.56059	-0.471
Mof_O 	O 	0.5073	0.6838	0.42875	-0.454
Mof_O 	O 	0.4589	0.6192	0.40219	-0.306
Mof_O 	O 	0.318	0.5046	0.4898	0.662
Mof_O 	O 	0.6202	0.6908	0.34755	-0.459
Mof_O 	O 	0.7648	0.74425	0.33601	-0.455
Mof_O 	O 	0.71	0.528	0.3392	-0.36
Mof_O 	O 	0.8874	0.5049	0.3234	-0.768
Mof_O 	O 	0.0946	0.6518	0.2799	-0.14
Mof_O 	O 	0.989	0.4231	0.36027	-0.457
Mof_O 	O 	0.8837	0.3682	0.38625	-0.514
Mof_O 	O 	0.4311	0.445	0.3771	-0.494
Mof_O 	O 	0.5332	0.3997	0.4111	-0.49
Mof_O 	O 	0.1946	0.3035	0.46226	-0.167
Mof_O 	O 	0.8718	0.4079	0.29485	-0.458
Mof_O 	O 	0.7933	0.3437	0.31634	-0.449
Mof_O 	O 	0.9624	0.2154	0.2516	-0.146
Mof_Zn	Zn	0.07086	0.01845	0.64199	1.2
Mof_Zn	Zn	0.31385	0.73585	0.57436	1.228
Mof_Zn	Zn	0.56806	0.71181	0.39017	1.231
Mof_Zn	Zn	0.68371	0.80118	0.35531	1.235
Mof_Zn	Zn	0.84729	0.4417	0.33425	1.237
Mof_Zn	Zn	0.71377	0.39921	0.40035	1.235
Mof_H 	H 	0.952	0.512	0.3092	0.267
Mof_C 	C 	0.55	0.9034	0.483	0.086
Mof_H 	H 	0.6139	0.9152	0.4685	0.018
Mof_H 	H 	0.5876	0.8802	0.4971	0.064
Mof_H 	H 	0.4828	0.8888	0.471	-0.1
Mof_C 	C 	0.7681	0.6871	0.6835	-0.148
Mof_H 	H 	0.8382	0.6863	0.6971	0.09
Mof_C 	C 	0.652	0.671	0.6946	0.104
Mof_C 	C 	0.5478	0.6748	0.6759	-0.032
Mof_H 	H 	0.4679	0.6663	0.6836	0.053
Mof_C 	C 	0.539	0.6347	0.7383	0.061
Mof_C 	C 	0.443	0.5717	0.4596	-0.044
Mof_H 	H 	0.4742	0.554	0.4425	0.073
Mof_C 	C 	0.404	0.5498	0.4876	-0.513
Mof_C 	C 	0.369	0.5773	0.5136	-0.224
Mof_H 	H 	0.3496	0.5625	0.533	0.088
Mof_C 	C 	0.415	0.4741	0.4672	-0.375
Mof_H 	H 	0.4034	0.441	0.4726	0.226
Mof_H 	H 	0.3583	0.4825	0.4501	1.63
Mof_H 	H 	0.5012	0.4793	0.4606	-0.521
Mof_C 	C 	0.1326	0.6966	0.2744	-0.178
Mof_H 	H 	0.212	0.6961	0.2631	0.096
Mof_H 	H 	0.0699	0.7128	0.2617	0.087
Mof_H 	H 	0.1432	0.713	0.2944	0.095
Mof_C 	C 	0.056	0.1873	0.2297	0.055
Mof_O 	O 	0.5014	0.9417	0.5012	-0.122
Mof_O 	O 	0.6549	0.6499	0.7243	-0.177
Mof_O 	O 	0.3886	0.5022	0.4938	0.035
Mof_O 	O 	0.6946	0.5228	0.3247	-0.219
Mof_O 	O 	0.787	0.5611	0.692	-0.212
Mof_H 	H 	0.026	0.2996	0.477	0.068
Mof_H 	H 	0.1155	0.2587	0.4893	0.084
Mof_H 	H 	0.0667	0.2582	0.4539	0.076
Mof_C 	C 	0.094	0.2782	0.4712	-0.14
Mof_C 	C 	0.2577	0.4981	0.0857	0.379
Mof_C 	C 	0.2062	0.5378	0.0673	-0.051
Mof_C 	C 	0.2303	0.5835	0.0774	-0.011
Mof_H 	H 	0.2793	0.5888	0.0956	0.062
Mof_C 	C 	0.183	0.6208	0.0609	-0.04
Mof_C 	C 	0.204	0.6702	0.07252	0.35
Mof_C 	C 	0.1133	0.6138	0.0336	-0.125
Mof_H 	H 	0.0825	0.6396	0.0219	0.084
Mof_C 	C 	0.09	0.5677	0.024	0.174
Mof_C 	C 	0.1345	0.5301	0.0413	-0.105
Mof_H 	H 	0.1152	0.499	0.0351	0.098
Mof_C 	C 	0.011	0.5892	0.9756	0.204
Mof_H 	H 	0.9826	0.5766	0.9554	-0.013
Mof_H 	H 	0.9415	0.6053	0.986	-0.121
Mof_H 	H 	0.079	0.6114	0.9721	0.026
Mof_C 	C 	0.0509	0.8021	0.12531	0.371
Mof_C 	C 	0.9366	0.8085	0.1454	-0.055
Mof_C 	C 	0.8246	0.788	0.1367	-0.005
Mof_H 	H 	0.8209	0.7681	0.1188	0.064
Mof_C 	C 	0.7184	0.7965	0.1542	-0.04
Mof_C 	C 	0.5936	0.7779	0.1438	0.366
Mof_C 	C 	0.7159	0.8381	0.1768	0.04
Mof_H 	H 	0.6404	0.8488	0.186	0.034
Mof_C 	C 	0.8253	0.859	0.1832	0.095
Mof_C 	C 	0.9338	0.8463	0.1673	-0.068
Mof_H 	H 	0.0082	0.8634	0.1712	0.06
Mof_C 	C 	0.736	0.9171	0.2178	0.196
Mof_C 	C 	0.1724	0.8435	0.0387	0.363
Mof_C 	C 	0.1382	0.8734	0.0114	-0.114
Mof_C 	C 	0.0921	0.8527	0.9836	0.046
Mof_H 	H 	0.079	0.8199	0.9826	0.032
Mof_C 	C 	0.0664	0.8804	0.9581	-0.113
Mof_C 	C 	0.0306	0.8585	0.9273	0.339
Mof_C 	C 	0.103	0.9304	0.9596	0.129
Mof_H 	H 	0.0956	0.9496	0.9415	-0.082
Mof_C 	C 	0.148	0.9486	0.9861	0.399
Mof_C 	C 	0.185	0.9194	0.0119	0.189
Mof_H 	H 	0.2386	0.9304	0.0281	-0.043
Mof_C 	C 	0.157	0.0267	0.9659	-4.009
Mof_H 	H 	0.1852	0.058	0.9721	1.211
Mof_H 	H 	0.2016	0.0169	0.9469	0.171
Mof_H 	H 	0.0675	0.0273	0.9617	1.372
Mof_C 	C 	0.776	0.797	0.83656	0.377
Mof_C 	C 	0.6956	0.834	0.8227	-0.101
Mof_C 	C 	0.7284	0.8811	0.8274	0.081
Mof_H 	H 	0.804	0.888	0.838	0.026
Mof_C 	C 	0.655	0.9174	0.8172	-0.195
Mof_C 	C 	0.6918	0.9678	0.8253	0.616
Mof_C 	C 	0.5496	0.9059	0.8019	0.008
Mof_H 	H 	0.4965	0.9305	0.7951	0.013
Mof_C 	C 	0.5127	0.858	0.7953	0.083
Mof_C 	C 	0.5873	0.822	0.8066	-0.043
Mof_H 	H 	0.5651	0.7901	0.8034	0.064
Mof_C 	C 	0.316	0.887	0.7735	-0.205
Mof_H 	H 	0.2437	0.8746	0.7623	0.093
Mof_H 	H 	0.2891	0.9008	0.7934	0.09
Mof_H 	H 	0.357	0.9109	0.7607	0.089
Mof_C 	C 	0.5166	0.1092	0.8806	0.367
Mof_C 	C 	0.402	0.1202	0.8983	-0.072
Mof_C 	C 	0.2897	0.0983	0.8906	0.01
Mof_H 	H 	0.2869	0.0759	0.8741	0.06
Mof_C 	C 	0.183	0.1093	0.907	-0.097
Mof_C 	C 	0.0617	0.0867	0.8978	0.363
Mof_C 	C 	0.1853	0.1423	0.9309	-0.109
Mof_H 	H 	0.1111	0.1497	0.942	0.063
Mof_C 	C 	0.2946	0.1644	0.9384	0.124
Mof_C 	C 	0.4039	0.1528	0.9222	-0.08
Mof_H 	H 	0.4802	0.1675	0.9277	0.072
Mof_C 	C 	0.2016	0.2069	0.9801	-0.159
Mof_H 	H 	0.1314	0.1877	0.9731	0.077
Mof_H 	H 	0.2192	0.2004	0.0022	0.081
Mof_H 	H 	0.1807	0.2401	0.9776	0.082
Mof_C 	C 	0.6414	0.1364	0.79592	0.39
Mof_C 	C 	0.5698	0.1636	0.77189	-0.139
Mof_C 	C 	0.5736	0.2129	0.7719	0.025
Mof_C 	C 	0.5249	0.2362	0.7503	0.043
Mof_C 	C 	0.491	0.3118	0.7266	0.039
Mof_O 	O 	0.212	0.45817	0.08191	-0.466
Mof_O 	O 	0.3379	0.77179	0.10006	-0.653
Mof_O 	O 	0.3462	0.508	0.1038	-0.486
Mof_O 	O 	0.8084	0.07435	0.85517	-0.658
Mof_O 	O 	0.255	0.6755	0.0982	-0.436
Mof_O 	O 	0.1624	0.7029	0.05561	-0.464
Mof_O 	O 	0.05	0.5547	0.9935	-0.167
Mof_O 	O 	0.0446	0.7727	0.10381	-0.462
Mof_O 	O 	0.1436	0.82797	0.13134	-0.508
Mof_O 	O 	0.5918	0.7445	0.12445	-0.434
Mof_O 	O 	0.4994	0.798	0.15499	-0.456
Mof_O 	O 	0.8412	0.8959	0.2043	-0.196
Mof_O 	O 	0.137	0.8012	0.03756	-0.46
Mof_O 	O 	0.2393	0.859	0.06059	-0.471
Mof_O 	O 	0.9927	0.8162	0.92875	-0.453
Mof_O 	O 	0.0411	0.8808	0.90219	-0.306
Mof_O 	O 	0.182	0.9954	0.9898	0.658
Mof_O 	O 	0.8798	0.8092	0.84755	-0.459
Mof_O 	O 	0.7352	0.75575	0.83601	-0.455
Mof_O 	O 	0.79	0.972	0.8392	-0.36
Mof_O 	O 	0.6126	0.9951	0.8234	-0.768
Mof_O 	O 	0.4054	0.8482	0.7799	-0.139
Mof_O 	O 	0.511	0.0769	0.86027	-0.457
Mof_O 	O 	0.6163	0.1318	0.88625	-0.514
Mof_O 	O 	0.0689	0.055	0.8771	-0.494
Mof_O 	O 	0.9668	0.1003	0.9111	-0.489
Mof_O 	O 	0.3054	0.1965	0.96226	-0.167
Mof_O 	O 	0.6282	0.0921	0.79485	-0.459
Mof_O 	O 	0.7067	0.1563	0.81634	-0.449
Mof_O 	O 	0.5376	0.2846	0.7516	-0.147
Mof_Zn	Zn	0.42914	0.48155	0.14199	1.2
Mof_Zn	Zn	0.18615	0.76415	0.07436	1.228
Mof_Zn	Zn	0.93194	0.78819	0.89017	1.231
Mof_Zn	Zn	0.81629	0.69882	0.85531	1.235
Mof_Zn	Zn	0.65271	0.0583	0.83425	1.237
Mof_Zn	Zn	0.78623	0.10079	0.90035	1.235
Mof_H 	H 	0.548	0.988	0.8092	0.267
Mof_C 	C 	0.95	0.5966	0.983	0.086
Mof_H 	H 	0.8861	0.5848	0.9685	0.018
Mof_H 	H 	0.9124	0.6198	0.9971	0.065
Mof_H 	H 	0.0172	0.6112	0.971	-0.104
Mof_C 	C 	0.7319	0.8129	0.1835	-0.148
Mof_H 	H 	0.6618	0.8137	0.1971	0.089
Mof_C 	C 	0.848	0.829	0.1946	0.104
Mof_C 	C 	0.9522	0.8252	0.1759	-0.032
Mof_H 	H 	0.0321	0.8337	0.1836	0.052
Mof_C 	C 	0.961	0.8653	0.2383	0.062
Mof_C 	C 	0.057	0.9283	0.9596	-0.043
Mof_H 	H 	0.0258	0.946	0.9425	0.073
Mof_C 	C 	0.096	0.9502	0.9876	-0.508
Mof_C 	C 	0.131	0.9227	0.0136	-0.222
Mof_H 	H 	0.1504	0.9375	0.033	0.088
Mof_C 	C 	0.085	0.0259	0.9672	-0.373
Mof_H 	H 	0.0966	0.059	0.9726	0.225
Mof_H 	H 	0.1417	0.0175	0.9501	1.621
Mof_H 	H 	0.9988	0.0207	0.9606	-0.517
Mof_C 	C 	0.3674	0.8034	0.7744	-0.179
Mof_H 	H 	0.288	0.8039	0.7631	0.096
Mof_H 	H 	0.4301	0.7872	0.7617	0.088
Mof_H 	H 	0.3568	0.787	0.7944	0.096
Mof_C 	C 	0.444	0.3127	0.7297	0.058
Mof_O 	O 	0.9986	0.5583	0.0012	-0.116
Mof_O 	O 	0.8451	0.8501	0.2243	-0.177
Mof_O 	O 	0.1114	0.9978	0.9938	0.034
Mof_O 	O 	0.8054	0.9772	0.8247	-0.219
Mof_O 	O 	0.713	0.9389	0.192	-0.212
Mof_H 	H 	0.474	0.2004	0.977	0.069
Mof_H 	H 	0.3845	0.2413	0.9893	0.084
Mof_H 	H 	0.4333	0.2418	0.9539	0.076
Mof_C 	C 	0.406	0.2218	0.9712	-0.141
Mof_C 	C 	0.7577	0.0019	0.9143	0.379
Mof_C 	C 	0.7062	0.9622	0.9327	-0.051
Mof_C 	C 	0.7303	0.9165	0.9226	-0.011
Mof_H 	H 	0.7793	0.9112	0.9044	0.062
Mof_C 	C 	0.683	0.8792	0.9391	-0.039
Mof_C 	C 	0.704	0.8298	0.92748	0.35
Mof_C 	C 	0.6133	0.8862	0.9664	-0.125
Mof_H 	H 	0.5825	0.8604	0.9781	0.085
Mof_C 	C 	0.59	0.9323	0.976	0.174
Mof_C 	C 	0.6345	0.9699	0.9587	-0.105
Mof_H 	H 	0.6152	0.001	0.9649	0.098
Mof_C 	C 	0.511	0.9108	0.0244	0.199
Mof_H 	H 	0.4826	0.9234	0.0446	-0.012
Mof_H 	H 	0.4415	0.8947	0.014	-0.119
Mof_H 	H 	0.579	0.8886	0.0279	0.025
Mof_C 	C 	0.5509	0.6979	0.87469	0.371
Mof_C 	C 	0.4366	0.6915	0.8546	-0.055
Mof_C 	C 	0.3246	0.712	0.8633	-0.005
Mof_H 	H 	0.3209	0.7319	0.8812	0.064
Mof_C 	C 	0.2184	0.7035	0.8458	-0.04
Mof_C 	C 	0.0936	0.7221	0.8562	0.365
Mof_C 	C 	0.2159	0.6619	0.8232	0.04
Mof_H 	H 	0.1404	0.6512	0.814	0.034
Mof_C 	C 	0.3253	0.641	0.8168	0.096
Mof_C 	C 	0.4338	0.6537	0.8327	-0.069
Mof_H 	H 	0.5082	0.6366	0.8288	0.06
Mof_C 	C 	0.236	0.5829	0.7822	0.196
Mof_C 	C 	0.6724	0.6565	0.9613	0.363
Mof_C 	C 	0.6382	0.6266	0.9886	-0.114
Mof_C 	C 	0.5921	0.6473	0.0164	0.046
Mof_H 	H 	0.579	0.6801	0.0174	0.032
Mof_C 	C 	0.5664	0.6196	0.0419	-0.113
Mof_C 	C 	0.5306	0.6415	0.0727	0.341
Mof_C 	C 	0.603	0.5696	0.0404	0.13
Mof_H 	H 	0.5956	0.5504	0.0585	-0.083
Mof_C 	C 	0.648	0.5514	0.0139	0.402
Mof_C 	C 	0.685	0.5806	0.9881	0.191
Mof_H 	H 	0.7386	0.5696	0.9719	-0.044
Mof_C 	C 	0.657	0.4733	0.0341	-4.028
Mof_H 	H 	0.6852	0.442	0.0279	1.216
Mof_H 	H 	0.7016	0.4831	0.0531	0.172
Mof_H 	H 	0.5675	0.4727	0.0383	1.379
Mof_C 	C 	0.276	0.703	0.16344	0.377
Mof_C 	C 	0.1956	0.666	0.1773	-0.101
Mof_C 	C 	0.2284	0.6189	0.1726	0.081
Mof_H 	H 	0.304	0.612	0.162	0.026
Mof_C 	C 	0.155	0.5826	0.1828	-0.195
Mof_C 	C 	0.1918	0.5322	0.1747	0.615
Mof_C 	C 	0.0496	0.5941	0.1981	0.006
Mof_H 	H 	0.9965	0.5695	0.2049	0.014
Mof_C 	C 	0.0127	0.642	0.2047	0.082
Mof_C 	C 	0.0873	0.678	0.1934	-0.043
Mof_H 	H 	0.0651	0.7099	0.1966	0.064
Mof_C 	C 	0.816	0.613	0.2265	-0.205
Mof_H 	H 	0.7437	0.6254	0.2377	0.093
Mof_H 	H 	0.7891	0.5992	0.2066	0.091
Mof_H 	H 	0.857	0.5891	0.2393	0.089
Mof_C 	C 	0.0166	0.3908	0.1194	0.366
Mof_C 	C 	0.902	0.3798	0.1017	-0.07
Mof_C 	C 	0.7897	0.4017	0.1094	0.01
Mof_H 	H 	0.7869	0.4241	0.1259	0.06
Mof_C 	C 	0.683	0.3907	0.093	-0.097
Mof_C 	C 	0.5617	0.4133	0.1022	0.364
Mof_C 	C 	0.6853	0.3577	0.0691	-0.11
Mof_H 	H 	0.6111	0.3503	0.058	0.064
Mof_C 	C 	0.7946	0.3356	0.0616	0.124
Mof_C 	C 	0.9039	0.3472	0.0778	-0.081
Mof_H 	H 	0.9802	0.3325	0.0723	0.072
Mof_C 	C 	0.7016	0.2931	0.0199	-0.16
Mof_H 	H 	0.6314	0.3123	0.0269	0.077
Mof_H 	H 	0.7192	0.2996	0.9978	0.082
Mof_H 	H 	0.6807	0.2599	0.0224	0.083
Mof_C 	C 	0.1414	0.3636	0.20408	0.389
Mof_C 	C 	0.0698	0.3364	0.22811	-0.138
Mof_C 	C 	0.0736	0.2871	0.2281	0.023
Mof_C 	C 	0.0249	0.2638	0.2497	0.047
Mof_C 	C 	0.991	0.1882	0.2734	0.037
Mof_O 	O 	0.712	0.04183	0.91809	-0.466
Mof_O 	O 	0.8379	0.72821	0.89994	-0.653
Mof_O 	O 	0.8462	0.992	0.8962	-0.485
Mof_O 	O 	0.3084	0.42565	0.14483	-0.659
Mof_O 	O 	0.755	0.8245	0.9018	-0.436
Mof_O 	O 	0.6624	0.7971	0.94439	-0.464
Mof_O 	O 	0.55	0.9453	0.0065	-0.162
Mof_O 	O 	0.5446	0.7273	0.89619	-0.462
Mof_O 	O 	0.6436	0.67203	0.86866	-0.508
Mof_O 	O 	0.0918	0.7555	0.87555	-0.434
Mof_O 	O 	0.9994	0.702	0.84501	-0.455
Mof_O 	O 	0.3412	0.6041	0.7957	-0.196
Mof_O 	O 	0.637	0.6988	0.96244	-0.46
Mof_O 	O 	0.7393	0.641	0.93941	-0.47
Mof_O 	O 	0.4927	0.6838	0.07125	-0.454
Mof_O 	O 	0.5411	0.6192	0.09781	-0.306
Mof_O 	O 	0.682	0.5046	0.0102	0.66
Mof_O 	O 	0.3798	0.6908	0.15245	-0.459
Mof_O 	O 	0.2352	0.74425	0.16399	-0.455
Mof_O 	O 	0.29	0.528	0.1608	-0.36
Mof_O 	O 	0.1126	0.5049	0.1766	-0.768
Mof_O 	O 	0.9054	0.6518	0.2201	-0.138
Mof_O 	O 	0.011	0.4231	0.13973	-0.457
Mof_O 	O 	0.1163	0.3682	0.11375	-0.514
Mof_O 	O 	0.5689	0.445	0.1229	-0.494
Mof_O 	O 	0.4668	0.3997	0.0889	-0.49
Mof_O 	O 	0.8054	0.3035	0.03774	-0.167
Mof_O 	O 	0.1282	0.4079	0.20515	-0.459
Mof_O 	O 	0.2067	0.3437	0.18366	-0.449
Mof_O 	O 	0.0376	0.2154	0.2484	-0.148
Mof_Zn	Zn	0.92914	0.01845	0.85801	1.2
Mof_Zn	Zn	0.68615	0.73585	0.92564	1.228
Mof_Zn	Zn	0.43194	0.71181	0.10983	1.231
Mof_Zn	Zn	0.31629	0.80118	0.14469	1.235
Mof_Zn	Zn	0.15271	0.4417	0.16575	1.237
Mof_Zn	Zn	0.28623	0.39921	0.09965	1.235
Mof_H 	H 	0.048	0.512	0.1908	0.266
Mof_C 	C 	0.45	0.9034	0.017	0.086
Mof_H 	H 	0.3861	0.9152	0.0315	0.018
Mof_H 	H 	0.4124	0.8802	0.0029	0.064
Mof_H 	H 	0.5172	0.8888	0.029	-0.1
Mof_C 	C 	0.2319	0.6871	0.8165	-0.148
Mof_H 	H 	0.1618	0.6863	0.8029	0.089
Mof_C 	C 	0.348	0.671	0.8054	0.104
Mof_C 	C 	0.4522	0.6748	0.8241	-0.032
Mof_H 	H 	0.5321	0.6663	0.8164	0.053
Mof_C 	C 	0.461	0.6347	0.7617	0.061
Mof_C 	C 	0.557	0.5717	0.0404	-0.044
Mof_H 	H 	0.5258	0.554	0.0575	0.073
Mof_C 	C 	0.596	0.5498	0.0124	-0.513
Mof_C 	C 	0.631	0.5773	0.9864	-0.224
Mof_H 	H 	0.6504	0.5625	0.967	0.089
Mof_C 	C 	0.585	0.4741	0.0328	-0.374
Mof_H 	H 	0.5966	0.441	0.0274	0.226
Mof_H 	H 	0.6417	0.4825	0.0499	1.629
Mof_H 	H 	0.4988	0.4793	0.0394	-0.521
Mof_C 	C 	0.8674	0.6966	0.2256	-0.181
Mof_H 	H 	0.788	0.6961	0.2369	0.097
Mof_H 	H 	0.9301	0.7128	0.2383	0.088
Mof_H 	H 	0.8568	0.713	0.2056	0.096
Mof_C 	C 	0.944	0.1873	0.2703	0.06
Mof_O 	O 	0.4986	0.9417	0.9988	-0.121
Mof_O 	O 	0.3451	0.6499	0.7757	-0.177
Mof_O 	O 	0.6114	0.5022	0.0062	0.035
Mof_O 	O 	0.3054	0.5228	0.1753	-0.219
Mof_O 	O 	0.213	0.5611	0.808	-0.212
Mof_H 	H 	0.974	0.2996	0.023	0.069
Mof_H 	H 	0.8845	0.2587	0.0107	0.085
Mof_H 	H 	0.9333	0.2582	0.0461	0.076
Mof_C 	C 	0.906	0.2782	0.0288	-0.141
Mof_C 	C 	0.7423	0.4981	0.4143	0.379
Mof_C 	C 	0.7938	0.5378	0.4327	-0.051
Mof_C 	C 	0.7697	0.5835	0.4226	-0.011
Mof_H 	H 	0.7207	0.5888	0.4044	0.062
Mof_C 	C 	0.817	0.6208	0.4391	-0.039
Mof_C 	C 	0.796	0.6702	0.42748	0.35
Mof_C 	C 	0.8867	0.6138	0.4664	-0.125
Mof_H 	H 	0.9175	0.6396	0.4781	0.085
Mof_C 	C 	0.91	0.5677	0.476	0.174
Mof_C 	C 	0.8655	0.5301	0.4587	-0.105
Mof_H 	H 	0.8848	0.499	0.4649	0.098
Mof_C 	C 	0.989	0.5892	0.5244	0.194
Mof_H 	H 	0.0174	0.5766	0.5446	-0.012
Mof_H 	H 	0.0585	0.6053	0.514	-0.118
Mof_H 	H 	0.921	0.6114	0.5279	0.025
Mof_C 	C 	0.9491	0.8021	0.37469	0.372
Mof_C 	C 	0.0634	0.8085	0.3546	-0.056
Mof_C 	C 	0.1754	0.788	0.3633	-0.005
Mof_H 	H 	0.1791	0.7681	0.3812	0.064
Mof_C 	C 	0.2816	0.7965	0.3458	-0.04
Mof_C 	C 	0.4064	0.7779	0.3562	0.366
Mof_C 	C 	0.2841	0.8381	0.3232	0.04
Mof_H 	H 	0.3596	0.8488	0.314	0.034
Mof_C 	C 	0.1747	0.859	0.3168	0.096
Mof_C 	C 	0.0662	0.8463	0.3327	-0.07
Mof_H 	H 	0.9918	0.8634	0.3288	0.061
Mof_C 	C 	0.264	0.9171	0.2822	0.196
Mof_C 	C 	0.8276	0.8435	0.4613	0.363
Mof_C 	C 	0.8618	0.8734	0.4886	-0.114
Mof_C 	C 	0.9079	0.8527	0.5164	0.047
Mof_H 	H 	0.921	0.8199	0.5174	0.032
Mof_C 	C 	0.9336	0.8804	0.5419	-0.114
Mof_C 	C 	0.9694	0.8585	0.5727	0.342
Mof_C 	C 	0.897	0.9304	0.5404	0.132
Mof_H 	H 	0.9044	0.9496	0.5585	-0.084
Mof_C 	C 	0.852	0.9486	0.5139	0.406
Mof_C 	C 	0.815	0.9194	0.4881	0.194
Mof_H 	H 	0.7614	0.9304	0.4719	-0.045
Mof_C 	C 	0.843	0.0267	0.5341	-4.053
Mof_H 	H 	0.8148	0.058	0.5279	1.223
Mof_H 	H 	0.7984	0.0169	0.5531	0.173
Mof_H 	H 	0.9325	0.0273	0.5383	1.388
Mof_C 	C 	0.224	0.797	0.66344	0.378
Mof_C 	C 	0.3044	0.834	0.6773	-0.101
Mof_C 	C 	0.2716	0.8811	0.6726	0.081
Mof_H 	H 	0.196	0.888	0.662	0.026
Mof_C 	C 	0.345	0.9174	0.6828	-0.195
Mof_C 	C 	0.3082	0.9678	0.6747	0.616
Mof_C 	C 	0.4504	0.9059	0.6981	0.008
Mof_H 	H 	0.5035	0.9305	0.7049	0.013
Mof_C 	C 	0.4873	0.858	0.7047	0.083
Mof_C 	C 	0.4127	0.822	0.6934	-0.043
Mof_H 	H 	0.4349	0.7901	0.6966	0.064
Mof_C 	C 	0.684	0.887	0.7265	-0.205
Mof_H 	H 	0.7563	0.8746	0.7377	0.093
Mof_H 	H 	0.7109	0.9008	0.7066	0.091
Mof_H 	H 	0.643	0.9109	0.7393	0.089
Mof_C 	C 	0.4834	0.1092	0.6194	0.368
Mof_C 	C 	0.598	0.1202	0.6017	-0.072
Mof_C 	C 	0.7103	0.0983	0.6094	0.011
Mof_H 	H 	0.7131	0.0759	0.6259	0.06
Mof_C 	C 	0.817	0.1093	0.593	-0.098
Mof_C 	C 	0.9383	0.0867	0.6022	0.365
Mof_C 	C 	0.8147	0.1423	0.5691	-0.109
Mof_H 	H 	0.8889	0.1497	0.558	0.063
Mof_C 	C 	0.7054	0.1644	0.5616	0.123
Mof_C 	C 	0.5961	0.1528	0.5778	-0.08
Mof_H 	H 	0.5198	0.1675	0.5723	0.072
Mof_C 	C 	0.7984	0.2069	0.5199	-0.16
Mof_H 	H 	0.8686	0.1877	0.5269	0.077
Mof_H 	H 	0.7808	0.2004	0.4978	0.082
Mof_H 	H 	0.8193	0.2401	0.5224	0.083
Mof_C 	C 	0.3586	0.1364	0.70408	0.39
Mof_C 	C 	0.4302	0.1636	0.72811	-0.139
Mof_C 	C 	0.4264	0.2129	0.7281	0.025
Mof_C 	C 	0.4751	0.2362	0.7497	0.043
Mof_C 	C 	0.509	0.3118	0.7734	0.039
Mof_O 	O 	0.788	0.45817	0.41809	-0.466
Mof_O 	O 	0.6621	0.77179	0.39994	-0.653
Mof_O 	O 	0.6538	0.508	0.3962	-0.486
Mof_O 	O 	0.1916	0.07435	0.64483	-0.659
Mof_O 	O 	0.745	0.6755	0.4018	-0.436
Mof_O 	O 	0.8376	0.7029	0.44439	-0.464
Mof_O 	O 	0.95	0.5547	0.5065	-0.153
Mof_O 	O 	0.9554	0.7727	0.39619	-0.462
Mof_O 	O 	0.8564	0.82797	0.36866	-0.508
Mof_O 	O 	0.4082	0.7445	0.37555	-0.434
Mof_O 	O 	0.5006	0.798	0.34501	-0.456
Mof_O 	O 	0.1588	0.8959	0.2957	-0.196
Mof_O 	O 	0.863	0.8012	0.46244	-0.46
Mof_O 	O 	0.7607	0.859	0.43941	-0.471
Mof_O 	O 	0.0073	0.8162	0.57125	-0.455
Mof_O 	O 	0.9589	0.8808	0.59781	-0.306
Mof_O 	O 	0.818	0.9954	0.5102	0.665
Mof_O 	O 	0.1202	0.8092	0.65245	-0.46
Mof_O 	O 	0.2648	0.75575	0.66399	-0.455
Mof_O 	O 	0.21	0.972	0.6608	-0.36
Mof_O 	O 	0.3874	0.9951	0.6766	-0.768
Mof_O 	O 	0.5946	0.8482	0.7201	-0.139
Mof_O 	O 	0.489	0.0769	0.63973	-0.457
Mof_O 	O 	0.3837	0.1318	0.61375	-0.514
Mof_O 	O 	0.9311	0.055	0.6229	-0.494
Mof_O 	O 	0.0332	0.1003	0.5889	-0.491
Mof_O 	O 	0.6946	0.1965	0.53774	-0.167
Mof_O 	O 	0.3718	0.0921	0.70515	-0.459
Mof_O 	O 	0.2933	0.1563	0.68366	-0.45
Mof_O 	O 	0.4624	0.2846	0.7484	-0.147
Mof_Zn	Zn	0.57086	0.48155	0.35801	1.2
Mof_Zn	Zn	0.81385	0.76415	0.42564	1.228
Mof_Zn	Zn	0.06806	0.78819	0.60983	1.231
Mof_Zn	Zn	0.18371	0.69882	0.64469	1.235
Mof_Zn	Zn	0.34729	0.0583	0.66575	1.237
Mof_Zn	Zn	0.21377	0.10079	0.59965	1.235
Mof_H 	H 	0.452	0.988	0.6908	0.267
Mof_C 	C 	0.05	0.5966	0.517	0.085
Mof_H 	H 	0.1139	0.5848	0.5315	0.018
Mof_H 	H 	0.0876	0.6198	0.5029	0.063
Mof_H 	H 	0.9828	0.6112	0.529	-0.097
Mof_C 	C 	0.2681	0.8129	0.3165	-0.148
Mof_H 	H 	0.3382	0.8137	0.3029	0.09
Mof_C 	C 	0.152	0.829	0.3054	0.104
Mof_C 	C 	0.0478	0.8252	0.3241	-0.033
Mof_H 	H 	0.9679	0.8337	0.3164	0.053
Mof_C 	C 	0.039	0.8653	0.2617	0.059
Mof_C 	C 	0.943	0.9283	0.5404	-0.044
Mof_H 	H 	0.9742	0.946	0.5575	0.074
Mof_C 	C 	0.904	0.9502	0.5124	-0.518
Mof_C 	C 	0.869	0.9227	0.4864	-0.227
Mof_H 	H 	0.8496	0.9375	0.467	0.089
Mof_C 	C 	0.915	0.0259	0.5328	-0.377
Mof_H 	H 	0.9034	0.059	0.5274	0.227
Mof_H 	H 	0.8583	0.0175	0.5499	1.639
Mof_H 	H 	0.0012	0.0207	0.5394	-0.525
Mof_C 	C 	0.6326	0.8034	0.7256	-0.179
Mof_H 	H 	0.712	0.8039	0.7369	0.096
Mof_H 	H 	0.5699	0.7872	0.7383	0.088
Mof_H 	H 	0.6432	0.787	0.7056	0.096
Mof_C 	C 	0.556	0.3127	0.7703	0.058
Mof_O 	O 	0.0014	0.5583	0.4988	-0.129
Mof_O 	O 	0.1549	0.8501	0.2757	-0.177
Mof_O 	O 	0.8886	0.9978	0.5062	0.036
Mof_O 	O 	0.1946	0.9772	0.6753	-0.22
Mof_O 	O 	0.287	0.9389	0.308	-0.212
Mof_H 	H 	0.526	0.2004	0.523	0.069
Mof_H 	H 	0.6155	0.2413	0.5107	0.085
Mof_H 	H 	0.5667	0.2418	0.5461	0.076
Mof_C 	C 	0.594	0.2218	0.5288	-0.141
Mof_C 	C 	-1.97153e-32	0.6392	0.75	0.102
Mof_C 	C 	0.5	0.8608	0.25	0.103
Mof_C 	C 	3.72158e-33	0.3608	0.25	0.102
Mof_C 	C 	0.5	0.1392	0.75	0.103
_end
