data_functionalizedCrystal
_audit_creation_method	'EQeq! by Chris Wilmer'
_symmetry_space_group_name_H-M	'P1'
_symmetry_Int_Tables_number	1
_symmetry_cell_setting	triclinic
loop_
_symmetry_equiv_pos_as_xyz
  x,y,z
_cell_length_a	41.393
_cell_length_b	41.393
_cell_length_c	41.393
_cell_angle_alpha	90
_cell_angle_beta	90
_cell_angle_gamma	90
loop_
_atom_site_label
_atom_site_type_symbol
_atom_site_fract_x
_atom_site_fract_y
_atom_site_fract_z
_atom_site_charge
Mof_Zn	Zn	0.70388	0.87758	0.03351	1.199
Mof_O 	O 	0.72674	0.90817	0.00606	-0.464
Mof_N 	N 	0.68106	0.84918	0.00189	-0.26
Mof_N 	N 	0.67317	0.9026	0.0607	-0.27
Mof_N 	N 	0.65382	0.81164	0.9763	-0.267
Mof_C 	C 	0.759	0.95477	0.99873	-0.105
Mof_O 	O 	0.75635	0.92434	0.04767	-0.343
Mof_C 	C 	0.74759	0.92656	0.0195	0.346
Mof_C 	C 	0.65396	0.83275	0.00086	0.221
Mof_C 	C 	0.674	0.92797	0.081	0.241
Mof_N 	N 	0.6991	0.838	0.977	-0.059
Mof_N 	N 	0.6987	0.9487	0.0831	-0.367
Mof_H 	H 	0.6964	0.9664	0.0937	0.188
Mof_H 	H 	0.7168	0.9443	0.0739	0.176
Mof_N 	N 	0.6301	0.8345	0.0236	-0.354
Mof_H 	H 	0.6323	0.847	0.04	0.161
Mof_H 	H 	0.6129	0.823	0.0215	0.177
Mof_N 	N 	0.64616	0.93327	0.0943	-0.262
Mof_N 	N 	0.6267	0.9092	0.0829	-0.064
Mof_N 	N 	0.6826	0.817	0.9615	-0.064
Mof_C 	C 	0.78604	0.97221	0.00857	0.047
Mof_H 	H 	0.7977	0.966	0.0268	0.042
Mof_O 	O 	0.6026	0.9922	0.0964	-0.465
Mof_N 	N 	0.643	0.8908	0.0649	-0.074
Mof_C 	C 	0.5896	0.0435	0.0567	0.054
Mof_H 	H 	0.6076	0.0307	0.0525	0.045
Mof_O 	O 	0.5605	0.0031	0.1279	-0.311
Mof_C 	C 	0.5699	0.037	0.0822	-0.109
Mof_C 	C 	0.5775	0.0085	0.1039	0.357
Mof_Zn	Zn	0.70388	0.37758	0.53351	1.199
Mof_O 	O 	0.72674	0.40817	0.50606	-0.464
Mof_N 	N 	0.68106	0.34918	0.50189	-0.26
Mof_N 	N 	0.67317	0.4026	0.5607	-0.27
Mof_N 	N 	0.65382	0.31164	0.4763	-0.267
Mof_C 	C 	0.759	0.45477	0.49873	-0.105
Mof_O 	O 	0.75635	0.42434	0.54767	-0.343
Mof_C 	C 	0.74759	0.42656	0.5195	0.346
Mof_C 	C 	0.65396	0.33275	0.50086	0.221
Mof_C 	C 	0.674	0.42797	0.581	0.241
Mof_N 	N 	0.6991	0.338	0.477	-0.059
Mof_N 	N 	0.6987	0.4487	0.5831	-0.367
Mof_H 	H 	0.6964	0.4664	0.5937	0.188
Mof_H 	H 	0.7168	0.4443	0.5739	0.176
Mof_N 	N 	0.6301	0.3345	0.5236	-0.354
Mof_H 	H 	0.6323	0.347	0.54	0.161
Mof_H 	H 	0.6129	0.323	0.5215	0.177
Mof_N 	N 	0.64616	0.43327	0.5943	-0.262
Mof_N 	N 	0.6267	0.4092	0.5829	-0.064
Mof_N 	N 	0.6826	0.317	0.4615	-0.064
Mof_C 	C 	0.78604	0.47221	0.50857	0.047
Mof_H 	H 	0.7977	0.466	0.5268	0.042
Mof_O 	O 	0.6026	0.4922	0.5964	-0.465
Mof_N 	N 	0.643	0.3908	0.5649	-0.074
Mof_C 	C 	0.5896	0.5435	0.5567	0.054
Mof_H 	H 	0.6076	0.5307	0.5525	0.045
Mof_O 	O 	0.5605	0.5031	0.6279	-0.311
Mof_C 	C 	0.5699	0.537	0.5822	-0.109
Mof_C 	C 	0.5775	0.5085	0.6039	0.357
Mof_Zn	Zn	0.20388	0.87758	0.53351	1.199
Mof_O 	O 	0.22674	0.90817	0.50606	-0.464
Mof_N 	N 	0.18106	0.84918	0.50189	-0.26
Mof_N 	N 	0.17317	0.9026	0.5607	-0.27
Mof_N 	N 	0.15382	0.81164	0.4763	-0.267
Mof_C 	C 	0.259	0.95477	0.49873	-0.105
Mof_O 	O 	0.25635	0.92434	0.54767	-0.343
Mof_C 	C 	0.24759	0.92656	0.5195	0.346
Mof_C 	C 	0.15396	0.83275	0.50086	0.221
Mof_C 	C 	0.174	0.92797	0.581	0.241
Mof_N 	N 	0.1991	0.838	0.477	-0.059
Mof_N 	N 	0.1987	0.9487	0.5831	-0.367
Mof_H 	H 	0.1964	0.9664	0.5937	0.188
Mof_H 	H 	0.2168	0.9443	0.5739	0.176
Mof_N 	N 	0.1301	0.8345	0.5236	-0.354
Mof_H 	H 	0.1323	0.847	0.54	0.161
Mof_H 	H 	0.1129	0.823	0.5215	0.177
Mof_N 	N 	0.14616	0.93327	0.5943	-0.262
Mof_N 	N 	0.1267	0.9092	0.5829	-0.064
Mof_N 	N 	0.1826	0.817	0.4615	-0.064
Mof_C 	C 	0.28604	0.97221	0.50857	0.047
Mof_H 	H 	0.2977	0.966	0.5268	0.042
Mof_O 	O 	0.1026	0.9922	0.5964	-0.465
Mof_N 	N 	0.143	0.8908	0.5649	-0.074
Mof_C 	C 	0.0896	0.0435	0.5567	0.054
Mof_H 	H 	0.1076	0.0307	0.5525	0.045
Mof_O 	O 	0.0605	0.0031	0.6279	-0.311
Mof_C 	C 	0.0699	0.037	0.5822	-0.109
Mof_C 	C 	0.0775	0.0085	0.6039	0.357
Mof_Zn	Zn	0.20388	0.37758	0.03351	1.199
Mof_O 	O 	0.22674	0.40817	0.00606	-0.464
Mof_N 	N 	0.18106	0.34918	0.00189	-0.26
Mof_N 	N 	0.17317	0.4026	0.0607	-0.27
Mof_N 	N 	0.15382	0.31164	0.9763	-0.267
Mof_C 	C 	0.259	0.45477	0.99873	-0.105
Mof_O 	O 	0.25635	0.42434	0.04767	-0.343
Mof_C 	C 	0.24759	0.42656	0.0195	0.346
Mof_C 	C 	0.15396	0.33275	0.00086	0.221
Mof_C 	C 	0.174	0.42797	0.081	0.241
Mof_N 	N 	0.1991	0.338	0.977	-0.059
Mof_N 	N 	0.1987	0.4487	0.0831	-0.367
Mof_H 	H 	0.1964	0.4664	0.0937	0.188
Mof_H 	H 	0.2168	0.4443	0.0739	0.176
Mof_N 	N 	0.1301	0.3345	0.0236	-0.354
Mof_H 	H 	0.1323	0.347	0.04	0.161
Mof_H 	H 	0.1129	0.323	0.0215	0.177
Mof_N 	N 	0.14616	0.43327	0.0943	-0.262
Mof_N 	N 	0.1267	0.4092	0.0829	-0.064
Mof_N 	N 	0.1826	0.317	0.9615	-0.064
Mof_C 	C 	0.28604	0.47221	0.00857	0.047
Mof_H 	H 	0.2977	0.466	0.0268	0.042
Mof_O 	O 	0.1026	0.4922	0.0964	-0.465
Mof_N 	N 	0.143	0.3908	0.0649	-0.074
Mof_C 	C 	0.0896	0.5435	0.0567	0.054
Mof_H 	H 	0.1076	0.5307	0.0525	0.045
Mof_O 	O 	0.0605	0.5031	0.1279	-0.311
Mof_C 	C 	0.0699	0.537	0.0822	-0.109
Mof_C 	C 	0.0775	0.5085	0.1039	0.357
Mof_Zn	Zn	0.54612	0.37242	0.03351	1.199
Mof_O 	O 	0.52326	0.34183	0.00606	-0.464
Mof_N 	N 	0.56894	0.40082	0.00189	-0.26
Mof_N 	N 	0.57683	0.3474	0.0607	-0.27
Mof_N 	N 	0.59618	0.43836	0.9763	-0.267
Mof_C 	C 	0.491	0.29523	0.99873	-0.105
Mof_O 	O 	0.49365	0.32566	0.04767	-0.343
Mof_C 	C 	0.50241	0.32344	0.0195	0.346
Mof_C 	C 	0.59604	0.41725	0.00086	0.221
Mof_C 	C 	0.576	0.32203	0.081	0.241
Mof_N 	N 	0.5509	0.412	0.977	-0.059
Mof_N 	N 	0.5513	0.3013	0.0831	-0.367
Mof_H 	H 	0.5536	0.2836	0.0937	0.188
Mof_H 	H 	0.5332	0.3057	0.0739	0.176
Mof_N 	N 	0.6199	0.4155	0.0236	-0.354
Mof_H 	H 	0.6177	0.403	0.04	0.161
Mof_H 	H 	0.6371	0.427	0.0215	0.177
Mof_N 	N 	0.60384	0.31673	0.0943	-0.262
Mof_N 	N 	0.6233	0.3408	0.0829	-0.064
Mof_N 	N 	0.5674	0.433	0.9615	-0.064
Mof_C 	C 	0.46396	0.27779	0.00857	0.047
Mof_H 	H 	0.4523	0.284	0.0268	0.042
Mof_O 	O 	0.6474	0.2578	0.0964	-0.465
Mof_N 	N 	0.607	0.3592	0.0649	-0.074
Mof_C 	C 	0.6604	0.2065	0.0567	0.054
Mof_H 	H 	0.6424	0.2193	0.0525	0.045
Mof_O 	O 	0.6895	0.2469	0.1279	-0.311
Mof_C 	C 	0.6801	0.213	0.0822	-0.109
Mof_C 	C 	0.6725	0.2415	0.1039	0.357
Mof_Zn	Zn	0.54612	0.87242	0.53351	1.199
Mof_O 	O 	0.52326	0.84183	0.50606	-0.464
Mof_N 	N 	0.56894	0.90082	0.50189	-0.26
Mof_N 	N 	0.57683	0.8474	0.5607	-0.27
Mof_N 	N 	0.59618	0.93836	0.4763	-0.267
Mof_C 	C 	0.491	0.79523	0.49873	-0.105
Mof_O 	O 	0.49365	0.82566	0.54767	-0.343
Mof_C 	C 	0.50241	0.82344	0.5195	0.346
Mof_C 	C 	0.59604	0.91725	0.50086	0.221
Mof_C 	C 	0.576	0.82203	0.581	0.241
Mof_N 	N 	0.5509	0.912	0.477	-0.059
Mof_N 	N 	0.5513	0.8013	0.5831	-0.367
Mof_H 	H 	0.5536	0.7836	0.5937	0.188
Mof_H 	H 	0.5332	0.8057	0.5739	0.176
Mof_N 	N 	0.6199	0.9155	0.5236	-0.354
Mof_H 	H 	0.6177	0.903	0.54	0.161
Mof_H 	H 	0.6371	0.927	0.5215	0.177
Mof_N 	N 	0.60384	0.81673	0.5943	-0.262
Mof_N 	N 	0.6233	0.8408	0.5829	-0.064
Mof_N 	N 	0.5674	0.933	0.4615	-0.064
Mof_C 	C 	0.46396	0.77779	0.50857	0.047
Mof_H 	H 	0.4523	0.784	0.5268	0.042
Mof_O 	O 	0.6474	0.7578	0.5964	-0.465
Mof_N 	N 	0.607	0.8592	0.5649	-0.074
Mof_C 	C 	0.6604	0.7065	0.5567	0.054
Mof_H 	H 	0.6424	0.7193	0.5525	0.045
Mof_O 	O 	0.6895	0.7469	0.6279	-0.311
Mof_C 	C 	0.6801	0.713	0.5822	-0.109
Mof_C 	C 	0.6725	0.7415	0.6039	0.357
Mof_Zn	Zn	0.04612	0.37242	0.53351	1.199
Mof_O 	O 	0.02326	0.34183	0.50606	-0.464
Mof_N 	N 	0.06894	0.40082	0.50189	-0.26
Mof_N 	N 	0.07683	0.3474	0.5607	-0.27
Mof_N 	N 	0.09618	0.43836	0.4763	-0.267
Mof_C 	C 	0.991	0.29523	0.49873	-0.105
Mof_O 	O 	0.99365	0.32566	0.54767	-0.343
Mof_C 	C 	0.00241	0.32344	0.5195	0.346
Mof_C 	C 	0.09604	0.41725	0.50086	0.221
Mof_C 	C 	0.076	0.32203	0.581	0.241
Mof_N 	N 	0.0509	0.412	0.477	-0.059
Mof_N 	N 	0.0513	0.3013	0.5831	-0.367
Mof_H 	H 	0.0536	0.2836	0.5937	0.188
Mof_H 	H 	0.0332	0.3057	0.5739	0.176
Mof_N 	N 	0.1199	0.4155	0.5236	-0.354
Mof_H 	H 	0.1177	0.403	0.54	0.161
Mof_H 	H 	0.1371	0.427	0.5215	0.177
Mof_N 	N 	0.10384	0.31673	0.5943	-0.262
Mof_N 	N 	0.1233	0.3408	0.5829	-0.064
Mof_N 	N 	0.0674	0.433	0.4615	-0.064
Mof_C 	C 	0.96396	0.27779	0.50857	0.047
Mof_H 	H 	0.9523	0.284	0.5268	0.042
Mof_O 	O 	0.1474	0.2578	0.5964	-0.465
Mof_N 	N 	0.107	0.3592	0.5649	-0.074
Mof_C 	C 	0.1604	0.2065	0.5567	0.054
Mof_H 	H 	0.1424	0.2193	0.5525	0.045
Mof_O 	O 	0.1895	0.2469	0.6279	-0.311
Mof_C 	C 	0.1801	0.213	0.5822	-0.109
Mof_C 	C 	0.1725	0.2415	0.6039	0.357
Mof_Zn	Zn	0.04612	0.87242	0.03351	1.199
Mof_O 	O 	0.02326	0.84183	0.00606	-0.464
Mof_N 	N 	0.06894	0.90082	0.00189	-0.26
Mof_N 	N 	0.07683	0.8474	0.0607	-0.27
Mof_N 	N 	0.09618	0.93836	0.9763	-0.267
Mof_C 	C 	0.991	0.79523	0.99873	-0.105
Mof_O 	O 	0.99365	0.82566	0.04767	-0.343
Mof_C 	C 	0.00241	0.82344	0.0195	0.346
Mof_C 	C 	0.09604	0.91725	0.00086	0.221
Mof_C 	C 	0.076	0.82203	0.081	0.241
Mof_N 	N 	0.0509	0.912	0.977	-0.059
Mof_N 	N 	0.0513	0.8013	0.0831	-0.367
Mof_H 	H 	0.0536	0.7836	0.0937	0.188
Mof_H 	H 	0.0332	0.8057	0.0739	0.176
Mof_N 	N 	0.1199	0.9155	0.0236	-0.354
Mof_H 	H 	0.1177	0.903	0.04	0.161
Mof_H 	H 	0.1371	0.927	0.0215	0.177
Mof_N 	N 	0.10384	0.81673	0.0943	-0.262
Mof_N 	N 	0.1233	0.8408	0.0829	-0.064
Mof_N 	N 	0.0674	0.933	0.9615	-0.064
Mof_C 	C 	0.96396	0.77779	0.00857	0.047
Mof_H 	H 	0.9523	0.784	0.0268	0.042
Mof_O 	O 	0.1474	0.7578	0.0964	-0.465
Mof_N 	N 	0.107	0.8592	0.0649	-0.074
Mof_C 	C 	0.1604	0.7065	0.0567	0.054
Mof_H 	H 	0.1424	0.7193	0.0525	0.045
Mof_O 	O 	0.1895	0.7469	0.1279	-0.311
Mof_C 	C 	0.1801	0.713	0.0822	-0.109
Mof_C 	C 	0.1725	0.7415	0.1039	0.357
Mof_Zn	Zn	0.54612	0.87758	0.21649	1.199
Mof_O 	O 	0.52326	0.90817	0.24394	-0.464
Mof_N 	N 	0.56894	0.84918	0.24811	-0.26
Mof_N 	N 	0.57683	0.9026	0.1893	-0.27
Mof_N 	N 	0.59618	0.81164	0.2737	-0.267
Mof_C 	C 	0.491	0.95477	0.25127	-0.105
Mof_O 	O 	0.49365	0.92434	0.20233	-0.343
Mof_C 	C 	0.50241	0.92656	0.2305	0.346
Mof_C 	C 	0.59604	0.83275	0.24914	0.221
Mof_C 	C 	0.576	0.92797	0.169	0.241
Mof_N 	N 	0.5509	0.838	0.273	-0.059
Mof_N 	N 	0.5513	0.9487	0.1669	-0.367
Mof_H 	H 	0.5536	0.9664	0.1563	0.188
Mof_H 	H 	0.5332	0.9443	0.1761	0.176
Mof_N 	N 	0.6199	0.8345	0.2264	-0.354
Mof_H 	H 	0.6177	0.847	0.21	0.161
Mof_H 	H 	0.6371	0.823	0.2285	0.177
Mof_N 	N 	0.60384	0.93327	0.1557	-0.262
Mof_N 	N 	0.6233	0.9092	0.1671	-0.064
Mof_N 	N 	0.5674	0.817	0.2885	-0.064
Mof_C 	C 	0.46396	0.97221	0.24143	0.047
Mof_H 	H 	0.4523	0.966	0.2232	0.042
Mof_O 	O 	0.6474	0.9922	0.1536	-0.465
Mof_N 	N 	0.607	0.8908	0.1851	-0.074
Mof_C 	C 	0.6604	0.0435	0.1933	0.054
Mof_H 	H 	0.6424	0.0307	0.1975	0.045
Mof_O 	O 	0.6895	0.0031	0.1221	-0.311
Mof_C 	C 	0.6801	0.037	0.1678	-0.109
Mof_C 	C 	0.6725	0.0085	0.1461	0.357
Mof_Zn	Zn	0.54612	0.37758	0.71649	1.199
Mof_O 	O 	0.52326	0.40817	0.74394	-0.464
Mof_N 	N 	0.56894	0.34918	0.74811	-0.26
Mof_N 	N 	0.57683	0.4026	0.6893	-0.27
Mof_N 	N 	0.59618	0.31164	0.7737	-0.267
Mof_C 	C 	0.491	0.45477	0.75127	-0.105
Mof_O 	O 	0.49365	0.42434	0.70233	-0.343
Mof_C 	C 	0.50241	0.42656	0.7305	0.346
Mof_C 	C 	0.59604	0.33275	0.74914	0.221
Mof_C 	C 	0.576	0.42797	0.669	0.241
Mof_N 	N 	0.5509	0.338	0.773	-0.059
Mof_N 	N 	0.5513	0.4487	0.6669	-0.367
Mof_H 	H 	0.5536	0.4664	0.6563	0.188
Mof_H 	H 	0.5332	0.4443	0.6761	0.176
Mof_N 	N 	0.6199	0.3345	0.7264	-0.354
Mof_H 	H 	0.6177	0.347	0.71	0.161
Mof_H 	H 	0.6371	0.323	0.7285	0.177
Mof_N 	N 	0.60384	0.43327	0.6557	-0.262
Mof_N 	N 	0.6233	0.4092	0.6671	-0.064
Mof_N 	N 	0.5674	0.317	0.7885	-0.064
Mof_C 	C 	0.46396	0.47221	0.74143	0.047
Mof_H 	H 	0.4523	0.466	0.7232	0.042
Mof_O 	O 	0.6474	0.4922	0.6536	-0.465
Mof_N 	N 	0.607	0.3908	0.6851	-0.074
Mof_C 	C 	0.6604	0.5435	0.6933	0.054
Mof_H 	H 	0.6424	0.5307	0.6975	0.045
Mof_O 	O 	0.6895	0.5031	0.6221	-0.311
Mof_C 	C 	0.6801	0.537	0.6678	-0.109
Mof_C 	C 	0.6725	0.5085	0.6461	0.357
Mof_Zn	Zn	0.04612	0.87758	0.71649	1.199
Mof_O 	O 	0.02326	0.90817	0.74394	-0.464
Mof_N 	N 	0.06894	0.84918	0.74811	-0.26
Mof_N 	N 	0.07683	0.9026	0.6893	-0.27
Mof_N 	N 	0.09618	0.81164	0.7737	-0.267
Mof_C 	C 	0.991	0.95477	0.75127	-0.105
Mof_O 	O 	0.99365	0.92434	0.70233	-0.343
Mof_C 	C 	0.00241	0.92656	0.7305	0.346
Mof_C 	C 	0.09604	0.83275	0.74914	0.221
Mof_C 	C 	0.076	0.92797	0.669	0.241
Mof_N 	N 	0.0509	0.838	0.773	-0.059
Mof_N 	N 	0.0513	0.9487	0.6669	-0.367
Mof_H 	H 	0.0536	0.9664	0.6563	0.188
Mof_H 	H 	0.0332	0.9443	0.6761	0.176
Mof_N 	N 	0.1199	0.8345	0.7264	-0.354
Mof_H 	H 	0.1177	0.847	0.71	0.161
Mof_H 	H 	0.1371	0.823	0.7285	0.177
Mof_N 	N 	0.10384	0.93327	0.6557	-0.262
Mof_N 	N 	0.1233	0.9092	0.6671	-0.064
Mof_N 	N 	0.0674	0.817	0.7885	-0.064
Mof_C 	C 	0.96396	0.97221	0.74143	0.047
Mof_H 	H 	0.9523	0.966	0.7232	0.042
Mof_O 	O 	0.1474	0.9922	0.6536	-0.465
Mof_N 	N 	0.107	0.8908	0.6851	-0.074
Mof_C 	C 	0.1604	0.0435	0.6933	0.054
Mof_H 	H 	0.1424	0.0307	0.6975	0.045
Mof_O 	O 	0.1895	0.0031	0.6221	-0.311
Mof_C 	C 	0.1801	0.037	0.6678	-0.109
Mof_C 	C 	0.1725	0.0085	0.6461	0.357
Mof_Zn	Zn	0.04612	0.37758	0.21649	1.199
Mof_O 	O 	0.02326	0.40817	0.24394	-0.464
Mof_N 	N 	0.06894	0.34918	0.24811	-0.26
Mof_N 	N 	0.07683	0.4026	0.1893	-0.27
Mof_N 	N 	0.09618	0.31164	0.2737	-0.267
Mof_C 	C 	0.991	0.45477	0.25127	-0.105
Mof_O 	O 	0.99365	0.42434	0.20233	-0.343
Mof_C 	C 	0.00241	0.42656	0.2305	0.346
Mof_C 	C 	0.09604	0.33275	0.24914	0.221
Mof_C 	C 	0.076	0.42797	0.169	0.241
Mof_N 	N 	0.0509	0.338	0.273	-0.059
Mof_N 	N 	0.0513	0.4487	0.1669	-0.367
Mof_H 	H 	0.0536	0.4664	0.1563	0.188
Mof_H 	H 	0.0332	0.4443	0.1761	0.176
Mof_N 	N 	0.1199	0.3345	0.2264	-0.354
Mof_H 	H 	0.1177	0.347	0.21	0.161
Mof_H 	H 	0.1371	0.323	0.2285	0.177
Mof_N 	N 	0.10384	0.43327	0.1557	-0.262
Mof_N 	N 	0.1233	0.4092	0.1671	-0.064
Mof_N 	N 	0.0674	0.317	0.2885	-0.064
Mof_C 	C 	0.96396	0.47221	0.24143	0.047
Mof_H 	H 	0.9523	0.466	0.2232	0.042
Mof_O 	O 	0.1474	0.4922	0.1536	-0.465
Mof_N 	N 	0.107	0.3908	0.1851	-0.074
Mof_C 	C 	0.1604	0.5435	0.1933	0.054
Mof_H 	H 	0.1424	0.5307	0.1975	0.045
Mof_O 	O 	0.1895	0.5031	0.1221	-0.311
Mof_C 	C 	0.1801	0.537	0.1678	-0.109
Mof_C 	C 	0.1725	0.5085	0.1461	0.357
Mof_Zn	Zn	0.70388	0.37242	0.21649	1.199
Mof_O 	O 	0.72674	0.34183	0.24394	-0.464
Mof_N 	N 	0.68106	0.40082	0.24811	-0.26
Mof_N 	N 	0.67317	0.3474	0.1893	-0.27
Mof_N 	N 	0.65382	0.43836	0.2737	-0.267
Mof_C 	C 	0.759	0.29523	0.25127	-0.105
Mof_O 	O 	0.75635	0.32566	0.20233	-0.343
Mof_C 	C 	0.74759	0.32344	0.2305	0.346
Mof_C 	C 	0.65396	0.41725	0.24914	0.221
Mof_C 	C 	0.674	0.32203	0.169	0.241
Mof_N 	N 	0.6991	0.412	0.273	-0.059
Mof_N 	N 	0.6987	0.3013	0.1669	-0.367
Mof_H 	H 	0.6964	0.2836	0.1563	0.188
Mof_H 	H 	0.7168	0.3057	0.1761	0.176
Mof_N 	N 	0.6301	0.4155	0.2264	-0.354
Mof_H 	H 	0.6323	0.403	0.21	0.161
Mof_H 	H 	0.6129	0.427	0.2285	0.177
Mof_N 	N 	0.64616	0.31673	0.1557	-0.262
Mof_N 	N 	0.6267	0.3408	0.1671	-0.064
Mof_N 	N 	0.6826	0.433	0.2885	-0.064
Mof_C 	C 	0.78604	0.27779	0.24143	0.047
Mof_H 	H 	0.7977	0.284	0.2232	0.042
Mof_O 	O 	0.6026	0.2578	0.1536	-0.465
Mof_N 	N 	0.643	0.3592	0.1851	-0.074
Mof_C 	C 	0.5896	0.2065	0.1933	0.054
Mof_H 	H 	0.6076	0.2193	0.1975	0.045
Mof_O 	O 	0.5605	0.2469	0.1221	-0.311
Mof_C 	C 	0.5699	0.213	0.1678	-0.109
Mof_C 	C 	0.5775	0.2415	0.1461	0.357
Mof_Zn	Zn	0.70388	0.87242	0.71649	1.199
Mof_O 	O 	0.72674	0.84183	0.74394	-0.464
Mof_N 	N 	0.68106	0.90082	0.74811	-0.26
Mof_N 	N 	0.67317	0.8474	0.6893	-0.27
Mof_N 	N 	0.65382	0.93836	0.7737	-0.267
Mof_C 	C 	0.759	0.79523	0.75127	-0.105
Mof_O 	O 	0.75635	0.82566	0.70233	-0.343
Mof_C 	C 	0.74759	0.82344	0.7305	0.345
Mof_C 	C 	0.65396	0.91725	0.74914	0.22
Mof_C 	C 	0.674	0.82203	0.669	0.24
Mof_N 	N 	0.6991	0.912	0.773	-0.06
Mof_N 	N 	0.6987	0.8013	0.6669	-0.368
Mof_H 	H 	0.6964	0.7836	0.6563	0.187
Mof_H 	H 	0.7168	0.8057	0.6761	0.175
Mof_N 	N 	0.6301	0.9155	0.7264	-0.355
Mof_H 	H 	0.6323	0.903	0.71	0.16
Mof_H 	H 	0.6129	0.927	0.7285	0.176
Mof_N 	N 	0.64616	0.81673	0.6557	-0.263
Mof_N 	N 	0.6267	0.8408	0.6671	-0.065
Mof_N 	N 	0.6826	0.933	0.7885	-0.065
Mof_C 	C 	0.78604	0.77779	0.74143	0.046
Mof_H 	H 	0.7977	0.784	0.7232	0.041
Mof_O 	O 	0.6026	0.7578	0.6536	-0.466
Mof_N 	N 	0.643	0.8592	0.6851	-0.075
Mof_C 	C 	0.5896	0.7065	0.6933	0.053
Mof_H 	H 	0.6076	0.7193	0.6975	0.044
Mof_O 	O 	0.5605	0.7469	0.6221	-0.312
Mof_C 	C 	0.5699	0.713	0.6678	-0.11
Mof_C 	C 	0.5775	0.7415	0.6461	0.356
Mof_Zn	Zn	0.20388	0.37242	0.71649	1.198
Mof_O 	O 	0.22674	0.34183	0.74394	-0.465
Mof_N 	N 	0.18106	0.40082	0.74811	-0.261
Mof_N 	N 	0.17317	0.3474	0.6893	-0.271
Mof_N 	N 	0.15382	0.43836	0.7737	-0.268
Mof_C 	C 	0.259	0.29523	0.75127	-0.106
Mof_O 	O 	0.25635	0.32566	0.70233	-0.344
Mof_C 	C 	0.24759	0.32344	0.7305	0.345
Mof_C 	C 	0.15396	0.41725	0.74914	0.22
Mof_C 	C 	0.174	0.32203	0.669	0.24
Mof_N 	N 	0.1991	0.412	0.773	-0.06
Mof_N 	N 	0.1987	0.3013	0.6669	-0.368
Mof_H 	H 	0.1964	0.2836	0.6563	0.187
Mof_H 	H 	0.2168	0.3057	0.6761	0.175
Mof_N 	N 	0.1301	0.4155	0.7264	-0.355
Mof_H 	H 	0.1323	0.403	0.71	0.16
Mof_H 	H 	0.1129	0.427	0.7285	0.176
Mof_N 	N 	0.14616	0.31673	0.6557	-0.263
Mof_N 	N 	0.1267	0.3408	0.6671	-0.065
Mof_N 	N 	0.1826	0.433	0.7885	-0.065
Mof_C 	C 	0.28604	0.27779	0.74143	0.046
Mof_H 	H 	0.2977	0.284	0.7232	0.041
Mof_O 	O 	0.1026	0.2578	0.6536	-0.466
Mof_N 	N 	0.143	0.3592	0.6851	-0.075
Mof_C 	C 	0.0896	0.2065	0.6933	0.053
Mof_H 	H 	0.1076	0.2193	0.6975	0.044
Mof_O 	O 	0.0605	0.2469	0.6221	-0.312
Mof_C 	C 	0.0699	0.213	0.6678	-0.11
Mof_C 	C 	0.0775	0.2415	0.6461	0.356
Mof_Zn	Zn	0.20388	0.87242	0.21649	1.198
Mof_O 	O 	0.22674	0.84183	0.24394	-0.465
Mof_N 	N 	0.18106	0.90082	0.24811	-0.261
Mof_N 	N 	0.17317	0.8474	0.1893	-0.271
Mof_N 	N 	0.15382	0.93836	0.2737	-0.268
Mof_C 	C 	0.259	0.79523	0.25127	-0.106
Mof_O 	O 	0.25635	0.82566	0.20233	-0.344
Mof_C 	C 	0.24759	0.82344	0.2305	0.345
Mof_C 	C 	0.15396	0.91725	0.24914	0.22
Mof_C 	C 	0.174	0.82203	0.169	0.24
Mof_N 	N 	0.1991	0.912	0.273	-0.06
Mof_N 	N 	0.1987	0.8013	0.1669	-0.368
Mof_H 	H 	0.1964	0.7836	0.1563	0.187
Mof_H 	H 	0.2168	0.8057	0.1761	0.175
Mof_N 	N 	0.1301	0.9155	0.2264	-0.355
Mof_H 	H 	0.1323	0.903	0.21	0.16
Mof_H 	H 	0.1129	0.927	0.2285	0.176
Mof_N 	N 	0.14616	0.81673	0.1557	-0.263
Mof_N 	N 	0.1267	0.8408	0.1671	-0.065
Mof_N 	N 	0.1826	0.933	0.2885	-0.065
Mof_C 	C 	0.28604	0.77779	0.24143	0.046
Mof_H 	H 	0.2977	0.784	0.2232	0.041
Mof_O 	O 	0.1026	0.7578	0.1536	-0.466
Mof_N 	N 	0.143	0.8592	0.1851	-0.075
Mof_C 	C 	0.0896	0.7065	0.1933	0.053
Mof_H 	H 	0.1076	0.7193	0.1975	0.044
Mof_O 	O 	0.0605	0.7469	0.1221	-0.312
Mof_C 	C 	0.0699	0.713	0.1678	-0.11
Mof_C 	C 	0.0775	0.7415	0.1461	0.356
Mof_Zn	Zn	0.03351	0.70388	0.87758	1.198
Mof_O 	O 	0.00606	0.72674	0.90817	-0.465
Mof_N 	N 	0.00189	0.68106	0.84918	-0.261
Mof_N 	N 	0.0607	0.67317	0.9026	-0.271
Mof_N 	N 	0.9763	0.65382	0.81164	-0.268
Mof_C 	C 	0.99873	0.759	0.95477	-0.106
Mof_O 	O 	0.04767	0.75635	0.92434	-0.344
Mof_C 	C 	0.0195	0.74759	0.92656	0.345
Mof_C 	C 	0.00086	0.65396	0.83275	0.22
Mof_C 	C 	0.081	0.674	0.92797	0.24
Mof_N 	N 	0.977	0.6991	0.838	-0.06
Mof_N 	N 	0.0831	0.6987	0.9487	-0.368
Mof_H 	H 	0.0937	0.6964	0.9664	0.187
Mof_H 	H 	0.0739	0.7168	0.9443	0.175
Mof_N 	N 	0.0236	0.6301	0.8345	-0.355
Mof_H 	H 	0.04	0.6323	0.847	0.16
Mof_H 	H 	0.0215	0.6129	0.823	0.176
Mof_N 	N 	0.0943	0.64616	0.93327	-0.263
Mof_N 	N 	0.0829	0.6267	0.9092	-0.065
Mof_N 	N 	0.9615	0.6826	0.817	-0.065
Mof_C 	C 	0.00857	0.78604	0.97221	0.046
Mof_H 	H 	0.0268	0.7977	0.966	0.041
Mof_O 	O 	0.0964	0.6026	0.9922	-0.466
Mof_N 	N 	0.0649	0.643	0.8908	-0.075
Mof_C 	C 	0.0567	0.5896	0.0435	0.053
Mof_H 	H 	0.0525	0.6076	0.0307	0.044
Mof_O 	O 	0.1279	0.5605	0.0031	-0.312
Mof_C 	C 	0.0822	0.5699	0.037	-0.11
Mof_C 	C 	0.1039	0.5775	0.0085	0.356
Mof_Zn	Zn	0.03351	0.20388	0.37758	1.198
Mof_O 	O 	0.00606	0.22674	0.40817	-0.465
Mof_N 	N 	0.00189	0.18106	0.34918	-0.261
Mof_N 	N 	0.0607	0.17317	0.4026	-0.271
Mof_N 	N 	0.9763	0.15382	0.31164	-0.268
Mof_C 	C 	0.99873	0.259	0.45477	-0.106
Mof_O 	O 	0.04767	0.25635	0.42434	-0.344
Mof_C 	C 	0.0195	0.24759	0.42656	0.345
Mof_C 	C 	0.00086	0.15396	0.33275	0.22
Mof_C 	C 	0.081	0.174	0.42797	0.24
Mof_N 	N 	0.977	0.1991	0.338	-0.06
Mof_N 	N 	0.0831	0.1987	0.4487	-0.368
Mof_H 	H 	0.0937	0.1964	0.4664	0.187
Mof_H 	H 	0.0739	0.2168	0.4443	0.175
Mof_N 	N 	0.0236	0.1301	0.3345	-0.355
Mof_H 	H 	0.04	0.1323	0.347	0.16
Mof_H 	H 	0.0215	0.1129	0.323	0.176
Mof_N 	N 	0.0943	0.14616	0.43327	-0.263
Mof_N 	N 	0.0829	0.1267	0.4092	-0.065
Mof_N 	N 	0.9615	0.1826	0.317	-0.065
Mof_C 	C 	0.00857	0.28604	0.47221	0.046
Mof_H 	H 	0.0268	0.2977	0.466	0.041
Mof_O 	O 	0.0964	0.1026	0.4922	-0.466
Mof_N 	N 	0.0649	0.143	0.3908	-0.075
Mof_C 	C 	0.0567	0.0896	0.5435	0.053
Mof_H 	H 	0.0525	0.1076	0.5307	0.044
Mof_O 	O 	0.1279	0.0605	0.5031	-0.312
Mof_C 	C 	0.0822	0.0699	0.537	-0.11
Mof_C 	C 	0.1039	0.0775	0.5085	0.356
Mof_Zn	Zn	0.53351	0.70388	0.37758	1.198
Mof_O 	O 	0.50606	0.72674	0.40817	-0.465
Mof_N 	N 	0.50189	0.68106	0.34918	-0.261
Mof_N 	N 	0.5607	0.67317	0.4026	-0.271
Mof_N 	N 	0.4763	0.65382	0.31164	-0.268
Mof_C 	C 	0.49873	0.759	0.45477	-0.106
Mof_O 	O 	0.54767	0.75635	0.42434	-0.344
Mof_C 	C 	0.5195	0.74759	0.42656	0.345
Mof_C 	C 	0.50086	0.65396	0.33275	0.22
Mof_C 	C 	0.581	0.674	0.42797	0.24
Mof_N 	N 	0.477	0.6991	0.338	-0.06
Mof_N 	N 	0.5831	0.6987	0.4487	-0.368
Mof_H 	H 	0.5937	0.6964	0.4664	0.187
Mof_H 	H 	0.5739	0.7168	0.4443	0.175
Mof_N 	N 	0.5236	0.6301	0.3345	-0.355
Mof_H 	H 	0.54	0.6323	0.347	0.16
Mof_H 	H 	0.5215	0.6129	0.323	0.176
Mof_N 	N 	0.5943	0.64616	0.43327	-0.263
Mof_N 	N 	0.5829	0.6267	0.4092	-0.065
Mof_N 	N 	0.4615	0.6826	0.317	-0.065
Mof_C 	C 	0.50857	0.78604	0.47221	0.046
Mof_H 	H 	0.5268	0.7977	0.466	0.041
Mof_O 	O 	0.5964	0.6026	0.4922	-0.466
Mof_N 	N 	0.5649	0.643	0.3908	-0.075
Mof_C 	C 	0.5567	0.5896	0.5435	0.053
Mof_H 	H 	0.5525	0.6076	0.5307	0.044
Mof_O 	O 	0.6279	0.5605	0.5031	-0.312
Mof_C 	C 	0.5822	0.5699	0.537	-0.11
Mof_C 	C 	0.6039	0.5775	0.5085	0.356
Mof_Zn	Zn	0.53351	0.20388	0.87758	1.198
Mof_O 	O 	0.50606	0.22674	0.90817	-0.465
Mof_N 	N 	0.50189	0.18106	0.84918	-0.261
Mof_N 	N 	0.5607	0.17317	0.9026	-0.271
Mof_N 	N 	0.4763	0.15382	0.81164	-0.268
Mof_C 	C 	0.49873	0.259	0.95477	-0.106
Mof_O 	O 	0.54767	0.25635	0.92434	-0.344
Mof_C 	C 	0.5195	0.24759	0.92656	0.345
Mof_C 	C 	0.50086	0.15396	0.83275	0.22
Mof_C 	C 	0.581	0.174	0.92797	0.24
Mof_N 	N 	0.477	0.1991	0.838	-0.06
Mof_N 	N 	0.5831	0.1987	0.9487	-0.368
Mof_H 	H 	0.5937	0.1964	0.9664	0.187
Mof_H 	H 	0.5739	0.2168	0.9443	0.175
Mof_N 	N 	0.5236	0.1301	0.8345	-0.355
Mof_H 	H 	0.54	0.1323	0.847	0.16
Mof_H 	H 	0.5215	0.1129	0.823	0.176
Mof_N 	N 	0.5943	0.14616	0.93327	-0.263
Mof_N 	N 	0.5829	0.1267	0.9092	-0.065
Mof_N 	N 	0.4615	0.1826	0.817	-0.065
Mof_C 	C 	0.50857	0.28604	0.97221	0.046
Mof_H 	H 	0.5268	0.2977	0.966	0.041
Mof_O 	O 	0.5964	0.1026	0.9922	-0.466
Mof_N 	N 	0.5649	0.143	0.8908	-0.075
Mof_C 	C 	0.5567	0.0896	0.0435	0.053
Mof_H 	H 	0.5525	0.1076	0.0307	0.044
Mof_O 	O 	0.6279	0.0605	0.0031	-0.312
Mof_C 	C 	0.5822	0.0699	0.037	-0.11
Mof_C 	C 	0.6039	0.0775	0.0085	0.356
Mof_Zn	Zn	0.03351	0.54612	0.37242	1.198
Mof_O 	O 	0.00606	0.52326	0.34183	-0.465
Mof_N 	N 	0.00189	0.56894	0.40082	-0.261
Mof_N 	N 	0.0607	0.57683	0.3474	-0.271
Mof_N 	N 	0.9763	0.59618	0.43836	-0.268
Mof_C 	C 	0.99873	0.491	0.29523	-0.106
Mof_O 	O 	0.04767	0.49365	0.32566	-0.344
Mof_C 	C 	0.0195	0.50241	0.32344	0.345
Mof_C 	C 	0.00086	0.59604	0.41725	0.22
Mof_C 	C 	0.081	0.576	0.32203	0.24
Mof_N 	N 	0.977	0.5509	0.412	-0.06
Mof_N 	N 	0.0831	0.5513	0.3013	-0.368
Mof_H 	H 	0.0937	0.5536	0.2836	0.187
Mof_H 	H 	0.0739	0.5332	0.3057	0.175
Mof_N 	N 	0.0236	0.6199	0.4155	-0.355
Mof_H 	H 	0.04	0.6177	0.403	0.16
Mof_H 	H 	0.0215	0.6371	0.427	0.176
Mof_N 	N 	0.0943	0.60384	0.31673	-0.263
Mof_N 	N 	0.0829	0.6233	0.3408	-0.065
Mof_N 	N 	0.9615	0.5674	0.433	-0.065
Mof_C 	C 	0.00857	0.46396	0.27779	0.046
Mof_H 	H 	0.0268	0.4523	0.284	0.041
Mof_O 	O 	0.0964	0.6474	0.2578	-0.466
Mof_N 	N 	0.0649	0.607	0.3592	-0.075
Mof_C 	C 	0.0567	0.6604	0.2065	0.053
Mof_H 	H 	0.0525	0.6424	0.2193	0.044
Mof_O 	O 	0.1279	0.6895	0.2469	-0.312
Mof_C 	C 	0.0822	0.6801	0.213	-0.11
Mof_C 	C 	0.1039	0.6725	0.2415	0.356
Mof_Zn	Zn	0.03351	0.04612	0.87242	1.198
Mof_O 	O 	0.00606	0.02326	0.84183	-0.465
Mof_N 	N 	0.00189	0.06894	0.90082	-0.261
Mof_N 	N 	0.0607	0.07683	0.8474	-0.271
Mof_N 	N 	0.9763	0.09618	0.93836	-0.268
Mof_C 	C 	0.99873	0.991	0.79523	-0.106
Mof_O 	O 	0.04767	0.99365	0.82566	-0.344
Mof_C 	C 	0.0195	0.00241	0.82344	0.345
Mof_C 	C 	0.00086	0.09604	0.91725	0.22
Mof_C 	C 	0.081	0.076	0.82203	0.24
Mof_N 	N 	0.977	0.0509	0.912	-0.06
Mof_N 	N 	0.0831	0.0513	0.8013	-0.368
Mof_H 	H 	0.0937	0.0536	0.7836	0.187
Mof_H 	H 	0.0739	0.0332	0.8057	0.175
Mof_N 	N 	0.0236	0.1199	0.9155	-0.355
Mof_H 	H 	0.04	0.1177	0.903	0.16
Mof_H 	H 	0.0215	0.1371	0.927	0.176
Mof_N 	N 	0.0943	0.10384	0.81673	-0.263
Mof_N 	N 	0.0829	0.1233	0.8408	-0.065
Mof_N 	N 	0.9615	0.0674	0.933	-0.065
Mof_C 	C 	0.00857	0.96396	0.77779	0.046
Mof_H 	H 	0.0268	0.9523	0.784	0.041
Mof_O 	O 	0.0964	0.1474	0.7578	-0.466
Mof_N 	N 	0.0649	0.107	0.8592	-0.075
Mof_C 	C 	0.0567	0.1604	0.7065	0.053
Mof_H 	H 	0.0525	0.1424	0.7193	0.044
Mof_O 	O 	0.1279	0.1895	0.7469	-0.312
Mof_C 	C 	0.0822	0.1801	0.713	-0.11
Mof_C 	C 	0.1039	0.1725	0.7415	0.356
Mof_Zn	Zn	0.53351	0.54612	0.87242	1.198
Mof_O 	O 	0.50606	0.52326	0.84183	-0.465
Mof_N 	N 	0.50189	0.56894	0.90082	-0.261
Mof_N 	N 	0.5607	0.57683	0.8474	-0.271
Mof_N 	N 	0.4763	0.59618	0.93836	-0.268
Mof_C 	C 	0.49873	0.491	0.79523	-0.106
Mof_O 	O 	0.54767	0.49365	0.82566	-0.344
Mof_C 	C 	0.5195	0.50241	0.82344	0.345
Mof_C 	C 	0.50086	0.59604	0.91725	0.22
Mof_C 	C 	0.581	0.576	0.82203	0.24
Mof_N 	N 	0.477	0.5509	0.912	-0.06
Mof_N 	N 	0.5831	0.5513	0.8013	-0.368
Mof_H 	H 	0.5937	0.5536	0.7836	0.187
Mof_H 	H 	0.5739	0.5332	0.8057	0.175
Mof_N 	N 	0.5236	0.6199	0.9155	-0.355
Mof_H 	H 	0.54	0.6177	0.903	0.16
Mof_H 	H 	0.5215	0.6371	0.927	0.176
Mof_N 	N 	0.5943	0.60384	0.81673	-0.263
Mof_N 	N 	0.5829	0.6233	0.8408	-0.065
Mof_N 	N 	0.4615	0.5674	0.933	-0.065
Mof_C 	C 	0.50857	0.46396	0.77779	0.046
Mof_H 	H 	0.5268	0.4523	0.784	0.041
Mof_O 	O 	0.5964	0.6474	0.7578	-0.466
Mof_N 	N 	0.5649	0.607	0.8592	-0.075
Mof_C 	C 	0.5567	0.6604	0.7065	0.053
Mof_H 	H 	0.5525	0.6424	0.7193	0.044
Mof_O 	O 	0.6279	0.6895	0.7469	-0.312
Mof_C 	C 	0.5822	0.6801	0.713	-0.11
Mof_C 	C 	0.6039	0.6725	0.7415	0.356
Mof_Zn	Zn	0.53351	0.04612	0.37242	1.198
Mof_O 	O 	0.50606	0.02326	0.34183	-0.465
Mof_N 	N 	0.50189	0.06894	0.40082	-0.261
Mof_N 	N 	0.5607	0.07683	0.3474	-0.271
Mof_N 	N 	0.4763	0.09618	0.43836	-0.268
Mof_C 	C 	0.49873	0.991	0.29523	-0.106
Mof_O 	O 	0.54767	0.99365	0.32566	-0.344
Mof_C 	C 	0.5195	0.00241	0.32344	0.345
Mof_C 	C 	0.50086	0.09604	0.41725	0.22
Mof_C 	C 	0.581	0.076	0.32203	0.24
Mof_N 	N 	0.477	0.0509	0.412	-0.06
Mof_N 	N 	0.5831	0.0513	0.3013	-0.368
Mof_H 	H 	0.5937	0.0536	0.2836	0.187
Mof_H 	H 	0.5739	0.0332	0.3057	0.175
Mof_N 	N 	0.5236	0.1199	0.4155	-0.355
Mof_H 	H 	0.54	0.1177	0.403	0.16
Mof_H 	H 	0.5215	0.1371	0.427	0.176
Mof_N 	N 	0.5943	0.10384	0.31673	-0.263
Mof_N 	N 	0.5829	0.1233	0.3408	-0.065
Mof_N 	N 	0.4615	0.0674	0.433	-0.065
Mof_C 	C 	0.50857	0.96396	0.27779	0.046
Mof_H 	H 	0.5268	0.9523	0.284	0.041
Mof_O 	O 	0.5964	0.1474	0.2578	-0.466
Mof_N 	N 	0.5649	0.107	0.3592	-0.075
Mof_C 	C 	0.5567	0.1604	0.2065	0.053
Mof_H 	H 	0.5525	0.1424	0.2193	0.044
Mof_O 	O 	0.6279	0.1895	0.2469	-0.312
Mof_C 	C 	0.5822	0.1801	0.213	-0.11
Mof_C 	C 	0.6039	0.1725	0.2415	0.356
Mof_Zn	Zn	0.21649	0.54612	0.87758	1.198
Mof_O 	O 	0.24394	0.52326	0.90817	-0.465
Mof_N 	N 	0.24811	0.56894	0.84918	-0.261
Mof_N 	N 	0.1893	0.57683	0.9026	-0.271
Mof_N 	N 	0.2737	0.59618	0.81164	-0.268
Mof_C 	C 	0.25127	0.491	0.95477	-0.106
Mof_O 	O 	0.20233	0.49365	0.92434	-0.344
Mof_C 	C 	0.2305	0.50241	0.92656	0.345
Mof_C 	C 	0.24914	0.59604	0.83275	0.22
Mof_C 	C 	0.169	0.576	0.92797	0.24
Mof_N 	N 	0.273	0.5509	0.838	-0.06
Mof_N 	N 	0.1669	0.5513	0.9487	-0.368
Mof_H 	H 	0.1563	0.5536	0.9664	0.187
Mof_H 	H 	0.1761	0.5332	0.9443	0.175
Mof_N 	N 	0.2264	0.6199	0.8345	-0.355
Mof_H 	H 	0.21	0.6177	0.847	0.16
Mof_H 	H 	0.2285	0.6371	0.823	0.176
Mof_N 	N 	0.1557	0.60384	0.93327	-0.263
Mof_N 	N 	0.1671	0.6233	0.9092	-0.065
Mof_N 	N 	0.2885	0.5674	0.817	-0.065
Mof_C 	C 	0.24143	0.46396	0.97221	0.046
Mof_H 	H 	0.2232	0.4523	0.966	0.041
Mof_O 	O 	0.1536	0.6474	0.9922	-0.466
Mof_N 	N 	0.1851	0.607	0.8908	-0.075
Mof_C 	C 	0.1933	0.6604	0.0435	0.053
Mof_H 	H 	0.1975	0.6424	0.0307	0.044
Mof_O 	O 	0.1221	0.6895	0.0031	-0.312
Mof_C 	C 	0.1678	0.6801	0.037	-0.11
Mof_C 	C 	0.1461	0.6725	0.0085	0.356
Mof_Zn	Zn	0.21649	0.04612	0.37758	1.198
Mof_O 	O 	0.24394	0.02326	0.40817	-0.465
Mof_N 	N 	0.24811	0.06894	0.34918	-0.261
Mof_N 	N 	0.1893	0.07683	0.4026	-0.271
Mof_N 	N 	0.2737	0.09618	0.31164	-0.268
Mof_C 	C 	0.25127	0.991	0.45477	-0.106
Mof_O 	O 	0.20233	0.99365	0.42434	-0.344
Mof_C 	C 	0.2305	0.00241	0.42656	0.345
Mof_C 	C 	0.24914	0.09604	0.33275	0.22
Mof_C 	C 	0.169	0.076	0.42797	0.24
Mof_N 	N 	0.273	0.0509	0.338	-0.06
Mof_N 	N 	0.1669	0.0513	0.4487	-0.368
Mof_H 	H 	0.1563	0.0536	0.4664	0.187
Mof_H 	H 	0.1761	0.0332	0.4443	0.175
Mof_N 	N 	0.2264	0.1199	0.3345	-0.355
Mof_H 	H 	0.21	0.1177	0.347	0.16
Mof_H 	H 	0.2285	0.1371	0.323	0.176
Mof_N 	N 	0.1557	0.10384	0.43327	-0.263
Mof_N 	N 	0.1671	0.1233	0.4092	-0.065
Mof_N 	N 	0.2885	0.0674	0.317	-0.065
Mof_C 	C 	0.24143	0.96396	0.47221	0.046
Mof_H 	H 	0.2232	0.9523	0.466	0.041
Mof_O 	O 	0.1536	0.1474	0.4922	-0.466
Mof_N 	N 	0.1851	0.107	0.3908	-0.075
Mof_C 	C 	0.1933	0.1604	0.5435	0.053
Mof_H 	H 	0.1975	0.1424	0.5307	0.044
Mof_O 	O 	0.1221	0.1895	0.5031	-0.312
Mof_C 	C 	0.1678	0.1801	0.537	-0.11
Mof_C 	C 	0.1461	0.1725	0.5085	0.356
Mof_Zn	Zn	0.71649	0.54612	0.37758	1.198
Mof_O 	O 	0.74394	0.52326	0.40817	-0.465
Mof_N 	N 	0.74811	0.56894	0.34918	-0.261
Mof_N 	N 	0.6893	0.57683	0.4026	-0.271
Mof_N 	N 	0.7737	0.59618	0.31164	-0.268
Mof_C 	C 	0.75127	0.491	0.45477	-0.106
Mof_O 	O 	0.70233	0.49365	0.42434	-0.344
Mof_C 	C 	0.7305	0.50241	0.42656	0.345
Mof_C 	C 	0.74914	0.59604	0.33275	0.22
Mof_C 	C 	0.669	0.576	0.42797	0.24
Mof_N 	N 	0.773	0.5509	0.338	-0.06
Mof_N 	N 	0.6669	0.5513	0.4487	-0.368
Mof_H 	H 	0.6563	0.5536	0.4664	0.187
Mof_H 	H 	0.6761	0.5332	0.4443	0.175
Mof_N 	N 	0.7264	0.6199	0.3345	-0.355
Mof_H 	H 	0.71	0.6177	0.347	0.16
Mof_H 	H 	0.7285	0.6371	0.323	0.176
Mof_N 	N 	0.6557	0.60384	0.43327	-0.263
Mof_N 	N 	0.6671	0.6233	0.4092	-0.065
Mof_N 	N 	0.7885	0.5674	0.317	-0.065
Mof_C 	C 	0.74143	0.46396	0.47221	0.046
Mof_H 	H 	0.7232	0.4523	0.466	0.041
Mof_O 	O 	0.6536	0.6474	0.4922	-0.466
Mof_N 	N 	0.6851	0.607	0.3908	-0.075
Mof_C 	C 	0.6933	0.6604	0.5435	0.053
Mof_H 	H 	0.6975	0.6424	0.5307	0.044
Mof_O 	O 	0.6221	0.6895	0.5031	-0.312
Mof_C 	C 	0.6678	0.6801	0.537	-0.11
Mof_C 	C 	0.6461	0.6725	0.5085	0.356
Mof_Zn	Zn	0.71649	0.04612	0.87758	1.198
Mof_O 	O 	0.74394	0.02326	0.90817	-0.465
Mof_N 	N 	0.74811	0.06894	0.84918	-0.261
Mof_N 	N 	0.6893	0.07683	0.9026	-0.271
Mof_N 	N 	0.7737	0.09618	0.81164	-0.268
Mof_C 	C 	0.75127	0.991	0.95477	-0.106
Mof_O 	O 	0.70233	0.99365	0.92434	-0.344
Mof_C 	C 	0.7305	0.00241	0.92656	0.345
Mof_C 	C 	0.74914	0.09604	0.83275	0.22
Mof_C 	C 	0.669	0.076	0.92797	0.24
Mof_N 	N 	0.773	0.0509	0.838	-0.06
Mof_N 	N 	0.6669	0.0513	0.9487	-0.368
Mof_H 	H 	0.6563	0.0536	0.9664	0.187
Mof_H 	H 	0.6761	0.0332	0.9443	0.175
Mof_N 	N 	0.7264	0.1199	0.8345	-0.355
Mof_H 	H 	0.71	0.1177	0.847	0.16
Mof_H 	H 	0.7285	0.1371	0.823	0.176
Mof_N 	N 	0.6557	0.10384	0.93327	-0.263
Mof_N 	N 	0.6671	0.1233	0.9092	-0.065
Mof_N 	N 	0.7885	0.0674	0.817	-0.065
Mof_C 	C 	0.74143	0.96396	0.97221	0.046
Mof_H 	H 	0.7232	0.9523	0.966	0.041
Mof_O 	O 	0.6536	0.1474	0.9922	-0.466
Mof_N 	N 	0.6851	0.107	0.8908	-0.075
Mof_C 	C 	0.6933	0.1604	0.0435	0.053
Mof_H 	H 	0.6975	0.1424	0.0307	0.044
Mof_O 	O 	0.6221	0.1895	0.0031	-0.312
Mof_C 	C 	0.6678	0.1801	0.037	-0.11
Mof_C 	C 	0.6461	0.1725	0.0085	0.356
Mof_Zn	Zn	0.21649	0.70388	0.37242	1.198
Mof_O 	O 	0.24394	0.72674	0.34183	-0.465
Mof_N 	N 	0.24811	0.68106	0.40082	-0.261
Mof_N 	N 	0.1893	0.67317	0.3474	-0.271
Mof_N 	N 	0.2737	0.65382	0.43836	-0.268
Mof_C 	C 	0.25127	0.759	0.29523	-0.106
Mof_O 	O 	0.20233	0.75635	0.32566	-0.344
Mof_C 	C 	0.2305	0.74759	0.32344	0.345
Mof_C 	C 	0.24914	0.65396	0.41725	0.22
Mof_C 	C 	0.169	0.674	0.32203	0.24
Mof_N 	N 	0.273	0.6991	0.412	-0.06
Mof_N 	N 	0.1669	0.6987	0.3013	-0.368
Mof_H 	H 	0.1563	0.6964	0.2836	0.187
Mof_H 	H 	0.1761	0.7168	0.3057	0.175
Mof_N 	N 	0.2264	0.6301	0.4155	-0.355
Mof_H 	H 	0.21	0.6323	0.403	0.16
Mof_H 	H 	0.2285	0.6129	0.427	0.176
Mof_N 	N 	0.1557	0.64616	0.31673	-0.263
Mof_N 	N 	0.1671	0.6267	0.3408	-0.065
Mof_N 	N 	0.2885	0.6826	0.433	-0.065
Mof_C 	C 	0.24143	0.78604	0.27779	0.046
Mof_H 	H 	0.2232	0.7977	0.284	0.041
Mof_O 	O 	0.1536	0.6026	0.2578	-0.466
Mof_N 	N 	0.1851	0.643	0.3592	-0.075
Mof_C 	C 	0.1933	0.5896	0.2065	0.053
Mof_H 	H 	0.1975	0.6076	0.2193	0.044
Mof_O 	O 	0.1221	0.5605	0.2469	-0.312
Mof_C 	C 	0.1678	0.5699	0.213	-0.11
Mof_C 	C 	0.1461	0.5775	0.2415	0.356
Mof_Zn	Zn	0.21649	0.20388	0.87242	1.198
Mof_O 	O 	0.24394	0.22674	0.84183	-0.465
Mof_N 	N 	0.24811	0.18106	0.90082	-0.261
Mof_N 	N 	0.1893	0.17317	0.8474	-0.271
Mof_N 	N 	0.2737	0.15382	0.93836	-0.268
Mof_C 	C 	0.25127	0.259	0.79523	-0.106
Mof_O 	O 	0.20233	0.25635	0.82566	-0.344
Mof_C 	C 	0.2305	0.24759	0.82344	0.345
Mof_C 	C 	0.24914	0.15396	0.91725	0.22
Mof_C 	C 	0.169	0.174	0.82203	0.24
Mof_N 	N 	0.273	0.1991	0.912	-0.06
Mof_N 	N 	0.1669	0.1987	0.8013	-0.368
Mof_H 	H 	0.1563	0.1964	0.7836	0.187
Mof_H 	H 	0.1761	0.2168	0.8057	0.175
Mof_N 	N 	0.2264	0.1301	0.9155	-0.355
Mof_H 	H 	0.21	0.1323	0.903	0.16
Mof_H 	H 	0.2285	0.1129	0.927	0.176
Mof_N 	N 	0.1557	0.14616	0.81673	-0.263
Mof_N 	N 	0.1671	0.1267	0.8408	-0.065
Mof_N 	N 	0.2885	0.1826	0.933	-0.065
Mof_C 	C 	0.24143	0.28604	0.77779	0.046
Mof_H 	H 	0.2232	0.2977	0.784	0.041
Mof_O 	O 	0.1536	0.1026	0.7578	-0.466
Mof_N 	N 	0.1851	0.143	0.8592	-0.075
Mof_C 	C 	0.1933	0.0896	0.7065	0.053
Mof_H 	H 	0.1975	0.1076	0.7193	0.044
Mof_O 	O 	0.1221	0.0605	0.7469	-0.312
Mof_C 	C 	0.1678	0.0699	0.713	-0.11
Mof_C 	C 	0.1461	0.0775	0.7415	0.356
Mof_Zn	Zn	0.71649	0.70388	0.87242	1.198
Mof_O 	O 	0.74394	0.72674	0.84183	-0.465
Mof_N 	N 	0.74811	0.68106	0.90082	-0.261
Mof_N 	N 	0.6893	0.67317	0.8474	-0.271
Mof_N 	N 	0.7737	0.65382	0.93836	-0.268
Mof_C 	C 	0.75127	0.759	0.79523	-0.106
Mof_O 	O 	0.70233	0.75635	0.82566	-0.344
Mof_C 	C 	0.7305	0.74759	0.82344	0.345
Mof_C 	C 	0.74914	0.65396	0.91725	0.22
Mof_C 	C 	0.669	0.674	0.82203	0.24
Mof_N 	N 	0.773	0.6991	0.912	-0.06
Mof_N 	N 	0.6669	0.6987	0.8013	-0.368
Mof_H 	H 	0.6563	0.6964	0.7836	0.187
Mof_H 	H 	0.6761	0.7168	0.8057	0.175
Mof_N 	N 	0.7264	0.6301	0.9155	-0.355
Mof_H 	H 	0.71	0.6323	0.903	0.16
Mof_H 	H 	0.7285	0.6129	0.927	0.176
Mof_N 	N 	0.6557	0.64616	0.81673	-0.263
Mof_N 	N 	0.6671	0.6267	0.8408	-0.065
Mof_N 	N 	0.7885	0.6826	0.933	-0.065
Mof_C 	C 	0.74143	0.78604	0.77779	0.046
Mof_H 	H 	0.7232	0.7977	0.784	0.041
Mof_O 	O 	0.6536	0.6026	0.7578	-0.466
Mof_N 	N 	0.6851	0.643	0.8592	-0.075
Mof_C 	C 	0.6933	0.5896	0.7065	0.053
Mof_H 	H 	0.6975	0.6076	0.7193	0.044
Mof_O 	O 	0.6221	0.5605	0.7469	-0.312
Mof_C 	C 	0.6678	0.5699	0.713	-0.11
Mof_C 	C 	0.6461	0.5775	0.7415	0.356
Mof_Zn	Zn	0.71649	0.20388	0.37242	1.198
Mof_O 	O 	0.74394	0.22674	0.34183	-0.465
Mof_N 	N 	0.74811	0.18106	0.40082	-0.261
Mof_N 	N 	0.6893	0.17317	0.3474	-0.271
Mof_N 	N 	0.7737	0.15382	0.43836	-0.268
Mof_C 	C 	0.75127	0.259	0.29523	-0.106
Mof_O 	O 	0.70233	0.25635	0.32566	-0.344
Mof_C 	C 	0.7305	0.24759	0.32344	0.345
Mof_C 	C 	0.74914	0.15396	0.41725	0.22
Mof_C 	C 	0.669	0.174	0.32203	0.24
Mof_N 	N 	0.773	0.1991	0.412	-0.06
Mof_N 	N 	0.6669	0.1987	0.3013	-0.368
Mof_H 	H 	0.6563	0.1964	0.2836	0.187
Mof_H 	H 	0.6761	0.2168	0.3057	0.175
Mof_N 	N 	0.7264	0.1301	0.4155	-0.355
Mof_H 	H 	0.71	0.1323	0.403	0.16
Mof_H 	H 	0.7285	0.1129	0.427	0.176
Mof_N 	N 	0.6557	0.14616	0.31673	-0.263
Mof_N 	N 	0.6671	0.1267	0.3408	-0.065
Mof_N 	N 	0.7885	0.1826	0.433	-0.065
Mof_C 	C 	0.74143	0.28604	0.27779	0.046
Mof_H 	H 	0.7232	0.2977	0.284	0.041
Mof_O 	O 	0.6536	0.1026	0.2578	-0.466
Mof_N 	N 	0.6851	0.143	0.3592	-0.075
Mof_C 	C 	0.6933	0.0896	0.2065	0.053
Mof_H 	H 	0.6975	0.1076	0.2193	0.044
Mof_O 	O 	0.6221	0.0605	0.2469	-0.312
Mof_C 	C 	0.6678	0.0699	0.213	-0.11
Mof_C 	C 	0.6461	0.0775	0.2415	0.356
Mof_Zn	Zn	0.87758	0.03351	0.70388	1.198
Mof_O 	O 	0.90817	0.00606	0.72674	-0.465
Mof_N 	N 	0.84918	0.00189	0.68106	-0.261
Mof_N 	N 	0.9026	0.0607	0.67317	-0.271
Mof_N 	N 	0.81164	0.9763	0.65382	-0.268
Mof_C 	C 	0.95477	0.99873	0.759	-0.106
Mof_O 	O 	0.92434	0.04767	0.75635	-0.344
Mof_C 	C 	0.92656	0.0195	0.74759	0.345
Mof_C 	C 	0.83275	0.00086	0.65396	0.22
Mof_C 	C 	0.92797	0.081	0.674	0.24
Mof_N 	N 	0.838	0.977	0.6991	-0.06
Mof_N 	N 	0.9487	0.0831	0.6987	-0.368
Mof_H 	H 	0.9664	0.0937	0.6964	0.187
Mof_H 	H 	0.9443	0.0739	0.7168	0.175
Mof_N 	N 	0.8345	0.0236	0.6301	-0.355
Mof_H 	H 	0.847	0.04	0.6323	0.16
Mof_H 	H 	0.823	0.0215	0.6129	0.176
Mof_N 	N 	0.93327	0.0943	0.64616	-0.263
Mof_N 	N 	0.9092	0.0829	0.6267	-0.065
Mof_N 	N 	0.817	0.9615	0.6826	-0.065
Mof_C 	C 	0.97221	0.00857	0.78604	0.046
Mof_H 	H 	0.966	0.0268	0.7977	0.041
Mof_O 	O 	0.9922	0.0964	0.6026	-0.466
Mof_N 	N 	0.8908	0.0649	0.643	-0.075
Mof_C 	C 	0.0435	0.0567	0.5896	0.053
Mof_H 	H 	0.0307	0.0525	0.6076	0.044
Mof_O 	O 	0.0031	0.1279	0.5605	-0.312
Mof_C 	C 	0.037	0.0822	0.5699	-0.11
Mof_C 	C 	0.0085	0.1039	0.5775	0.356
Mof_Zn	Zn	0.87758	0.53351	0.20388	1.198
Mof_O 	O 	0.90817	0.50606	0.22674	-0.465
Mof_N 	N 	0.84918	0.50189	0.18106	-0.261
Mof_N 	N 	0.9026	0.5607	0.17317	-0.271
Mof_N 	N 	0.81164	0.4763	0.15382	-0.268
Mof_C 	C 	0.95477	0.49873	0.259	-0.106
Mof_O 	O 	0.92434	0.54767	0.25635	-0.344
Mof_C 	C 	0.92656	0.5195	0.24759	0.345
Mof_C 	C 	0.83275	0.50086	0.15396	0.22
Mof_C 	C 	0.92797	0.581	0.174	0.24
Mof_N 	N 	0.838	0.477	0.1991	-0.06
Mof_N 	N 	0.9487	0.5831	0.1987	-0.368
Mof_H 	H 	0.9664	0.5937	0.1964	0.187
Mof_H 	H 	0.9443	0.5739	0.2168	0.175
Mof_N 	N 	0.8345	0.5236	0.1301	-0.355
Mof_H 	H 	0.847	0.54	0.1323	0.16
Mof_H 	H 	0.823	0.5215	0.1129	0.176
Mof_N 	N 	0.93327	0.5943	0.14616	-0.263
Mof_N 	N 	0.9092	0.5829	0.1267	-0.065
Mof_N 	N 	0.817	0.4615	0.1826	-0.065
Mof_C 	C 	0.97221	0.50857	0.28604	0.046
Mof_H 	H 	0.966	0.5268	0.2977	0.041
Mof_O 	O 	0.9922	0.5964	0.1026	-0.466
Mof_N 	N 	0.8908	0.5649	0.143	-0.075
Mof_C 	C 	0.0435	0.5567	0.0896	0.053
Mof_H 	H 	0.0307	0.5525	0.1076	0.044
Mof_O 	O 	0.0031	0.6279	0.0605	-0.312
Mof_C 	C 	0.037	0.5822	0.0699	-0.11
Mof_C 	C 	0.0085	0.6039	0.0775	0.356
Mof_Zn	Zn	0.37758	0.03351	0.20388	1.198
Mof_O 	O 	0.40817	0.00606	0.22674	-0.465
Mof_N 	N 	0.34918	0.00189	0.18106	-0.261
Mof_N 	N 	0.4026	0.0607	0.17317	-0.271
Mof_N 	N 	0.31164	0.9763	0.15382	-0.268
Mof_C 	C 	0.45477	0.99873	0.259	-0.106
Mof_O 	O 	0.42434	0.04767	0.25635	-0.344
Mof_C 	C 	0.42656	0.0195	0.24759	0.345
Mof_C 	C 	0.33275	0.00086	0.15396	0.22
Mof_C 	C 	0.42797	0.081	0.174	0.24
Mof_N 	N 	0.338	0.977	0.1991	-0.06
Mof_N 	N 	0.4487	0.0831	0.1987	-0.368
Mof_H 	H 	0.4664	0.0937	0.1964	0.187
Mof_H 	H 	0.4443	0.0739	0.2168	0.175
Mof_N 	N 	0.3345	0.0236	0.1301	-0.355
Mof_H 	H 	0.347	0.04	0.1323	0.16
Mof_H 	H 	0.323	0.0215	0.1129	0.176
Mof_N 	N 	0.43327	0.0943	0.14616	-0.263
Mof_N 	N 	0.4092	0.0829	0.1267	-0.065
Mof_N 	N 	0.317	0.9615	0.1826	-0.065
Mof_C 	C 	0.47221	0.00857	0.28604	0.046
Mof_H 	H 	0.466	0.0268	0.2977	0.041
Mof_O 	O 	0.4922	0.0964	0.1026	-0.466
Mof_N 	N 	0.3908	0.0649	0.143	-0.075
Mof_C 	C 	0.5435	0.0567	0.0896	0.053
Mof_H 	H 	0.5307	0.0525	0.1076	0.044
Mof_O 	O 	0.5031	0.1279	0.0605	-0.312
Mof_C 	C 	0.537	0.0822	0.0699	-0.11
Mof_C 	C 	0.5085	0.1039	0.0775	0.356
Mof_Zn	Zn	0.37758	0.53351	0.70388	1.198
Mof_O 	O 	0.40817	0.50606	0.72674	-0.465
Mof_N 	N 	0.34918	0.50189	0.68106	-0.261
Mof_N 	N 	0.4026	0.5607	0.67317	-0.271
Mof_N 	N 	0.31164	0.4763	0.65382	-0.268
Mof_C 	C 	0.45477	0.49873	0.759	-0.106
Mof_O 	O 	0.42434	0.54767	0.75635	-0.344
Mof_C 	C 	0.42656	0.5195	0.74759	0.345
Mof_C 	C 	0.33275	0.50086	0.65396	0.22
Mof_C 	C 	0.42797	0.581	0.674	0.24
Mof_N 	N 	0.338	0.477	0.6991	-0.06
Mof_N 	N 	0.4487	0.5831	0.6987	-0.368
Mof_H 	H 	0.4664	0.5937	0.6964	0.187
Mof_H 	H 	0.4443	0.5739	0.7168	0.175
Mof_N 	N 	0.3345	0.5236	0.6301	-0.355
Mof_H 	H 	0.347	0.54	0.6323	0.16
Mof_H 	H 	0.323	0.5215	0.6129	0.176
Mof_N 	N 	0.43327	0.5943	0.64616	-0.263
Mof_N 	N 	0.4092	0.5829	0.6267	-0.065
Mof_N 	N 	0.317	0.4615	0.6826	-0.065
Mof_C 	C 	0.47221	0.50857	0.78604	0.046
Mof_H 	H 	0.466	0.5268	0.7977	0.041
Mof_O 	O 	0.4922	0.5964	0.6026	-0.466
Mof_N 	N 	0.3908	0.5649	0.643	-0.075
Mof_C 	C 	0.5435	0.5567	0.5896	0.053
Mof_H 	H 	0.5307	0.5525	0.6076	0.044
Mof_O 	O 	0.5031	0.6279	0.5605	-0.312
Mof_C 	C 	0.537	0.5822	0.5699	-0.11
Mof_C 	C 	0.5085	0.6039	0.5775	0.356
Mof_Zn	Zn	0.37242	0.03351	0.54612	1.198
Mof_O 	O 	0.34183	0.00606	0.52326	-0.465
Mof_N 	N 	0.40082	0.00189	0.56894	-0.261
Mof_N 	N 	0.3474	0.0607	0.57683	-0.271
Mof_N 	N 	0.43836	0.9763	0.59618	-0.268
Mof_C 	C 	0.29523	0.99873	0.491	-0.106
Mof_O 	O 	0.32566	0.04767	0.49365	-0.344
Mof_C 	C 	0.32344	0.0195	0.50241	0.345
Mof_C 	C 	0.41725	0.00086	0.59604	0.22
Mof_C 	C 	0.32203	0.081	0.576	0.24
Mof_N 	N 	0.412	0.977	0.5509	-0.06
Mof_N 	N 	0.3013	0.0831	0.5513	-0.368
Mof_H 	H 	0.2836	0.0937	0.5536	0.187
Mof_H 	H 	0.3057	0.0739	0.5332	0.175
Mof_N 	N 	0.4155	0.0236	0.6199	-0.355
Mof_H 	H 	0.403	0.04	0.6177	0.16
Mof_H 	H 	0.427	0.0215	0.6371	0.176
Mof_N 	N 	0.31673	0.0943	0.60384	-0.263
Mof_N 	N 	0.3408	0.0829	0.6233	-0.065
Mof_N 	N 	0.433	0.9615	0.5674	-0.065
Mof_C 	C 	0.27779	0.00857	0.46396	0.046
Mof_H 	H 	0.284	0.0268	0.4523	0.041
Mof_O 	O 	0.2578	0.0964	0.6474	-0.466
Mof_N 	N 	0.3592	0.0649	0.607	-0.075
Mof_C 	C 	0.2065	0.0567	0.6604	0.053
Mof_H 	H 	0.2193	0.0525	0.6424	0.044
Mof_O 	O 	0.2469	0.1279	0.6895	-0.312
Mof_C 	C 	0.213	0.0822	0.6801	-0.11
Mof_C 	C 	0.2415	0.1039	0.6725	0.356
Mof_Zn	Zn	0.37242	0.53351	0.04612	1.198
Mof_O 	O 	0.34183	0.50606	0.02326	-0.465
Mof_N 	N 	0.40082	0.50189	0.06894	-0.261
Mof_N 	N 	0.3474	0.5607	0.07683	-0.271
Mof_N 	N 	0.43836	0.4763	0.09618	-0.268
Mof_C 	C 	0.29523	0.49873	0.991	-0.106
Mof_O 	O 	0.32566	0.54767	0.99365	-0.344
Mof_C 	C 	0.32344	0.5195	0.00241	0.345
Mof_C 	C 	0.41725	0.50086	0.09604	0.22
Mof_C 	C 	0.32203	0.581	0.076	0.24
Mof_N 	N 	0.412	0.477	0.0509	-0.06
Mof_N 	N 	0.3013	0.5831	0.0513	-0.368
Mof_H 	H 	0.2836	0.5937	0.0536	0.187
Mof_H 	H 	0.3057	0.5739	0.0332	0.175
Mof_N 	N 	0.4155	0.5236	0.1199	-0.355
Mof_H 	H 	0.403	0.54	0.1177	0.16
Mof_H 	H 	0.427	0.5215	0.1371	0.176
Mof_N 	N 	0.31673	0.5943	0.10384	-0.263
Mof_N 	N 	0.3408	0.5829	0.1233	-0.065
Mof_N 	N 	0.433	0.4615	0.0674	-0.065
Mof_C 	C 	0.27779	0.50857	0.96396	0.046
Mof_H 	H 	0.284	0.5268	0.9523	0.041
Mof_O 	O 	0.2578	0.5964	0.1474	-0.466
Mof_N 	N 	0.3592	0.5649	0.107	-0.075
Mof_C 	C 	0.2065	0.5567	0.1604	0.053
Mof_H 	H 	0.2193	0.5525	0.1424	0.044
Mof_O 	O 	0.2469	0.6279	0.1895	-0.312
Mof_C 	C 	0.213	0.5822	0.1801	-0.11
Mof_C 	C 	0.2415	0.6039	0.1725	0.356
Mof_Zn	Zn	0.87242	0.03351	0.04612	1.198
Mof_O 	O 	0.84183	0.00606	0.02326	-0.465
Mof_N 	N 	0.90082	0.00189	0.06894	-0.261
Mof_N 	N 	0.8474	0.0607	0.07683	-0.271
Mof_N 	N 	0.93836	0.9763	0.09618	-0.268
Mof_C 	C 	0.79523	0.99873	0.991	-0.106
Mof_O 	O 	0.82566	0.04767	0.99365	-0.344
Mof_C 	C 	0.82344	0.0195	0.00241	0.345
Mof_C 	C 	0.91725	0.00086	0.09604	0.22
Mof_C 	C 	0.82203	0.081	0.076	0.24
Mof_N 	N 	0.912	0.977	0.0509	-0.06
Mof_N 	N 	0.8013	0.0831	0.0513	-0.368
Mof_H 	H 	0.7836	0.0937	0.0536	0.187
Mof_H 	H 	0.8057	0.0739	0.0332	0.175
Mof_N 	N 	0.9155	0.0236	0.1199	-0.355
Mof_H 	H 	0.903	0.04	0.1177	0.16
Mof_H 	H 	0.927	0.0215	0.1371	0.176
Mof_N 	N 	0.81673	0.0943	0.10384	-0.263
Mof_N 	N 	0.8408	0.0829	0.1233	-0.065
Mof_N 	N 	0.933	0.9615	0.0674	-0.065
Mof_C 	C 	0.77779	0.00857	0.96396	0.046
Mof_H 	H 	0.784	0.0268	0.9523	0.041
Mof_O 	O 	0.7578	0.0964	0.1474	-0.466
Mof_N 	N 	0.8592	0.0649	0.107	-0.075
Mof_C 	C 	0.7065	0.0567	0.1604	0.053
Mof_H 	H 	0.7193	0.0525	0.1424	0.044
Mof_O 	O 	0.7469	0.1279	0.1895	-0.312
Mof_C 	C 	0.713	0.0822	0.1801	-0.11
Mof_C 	C 	0.7415	0.1039	0.1725	0.356
Mof_Zn	Zn	0.87242	0.53351	0.54612	1.198
Mof_O 	O 	0.84183	0.50606	0.52326	-0.465
Mof_N 	N 	0.90082	0.50189	0.56894	-0.261
Mof_N 	N 	0.8474	0.5607	0.57683	-0.271
Mof_N 	N 	0.93836	0.4763	0.59618	-0.268
Mof_C 	C 	0.79523	0.49873	0.491	-0.106
Mof_O 	O 	0.82566	0.54767	0.49365	-0.344
Mof_C 	C 	0.82344	0.5195	0.50241	0.345
Mof_C 	C 	0.91725	0.50086	0.59604	0.22
Mof_C 	C 	0.82203	0.581	0.576	0.24
Mof_N 	N 	0.912	0.477	0.5509	-0.06
Mof_N 	N 	0.8013	0.5831	0.5513	-0.368
Mof_H 	H 	0.7836	0.5937	0.5536	0.187
Mof_H 	H 	0.8057	0.5739	0.5332	0.175
Mof_N 	N 	0.9155	0.5236	0.6199	-0.355
Mof_H 	H 	0.903	0.54	0.6177	0.16
Mof_H 	H 	0.927	0.5215	0.6371	0.176
Mof_N 	N 	0.81673	0.5943	0.60384	-0.263
Mof_N 	N 	0.8408	0.5829	0.6233	-0.065
Mof_N 	N 	0.933	0.4615	0.5674	-0.065
Mof_C 	C 	0.77779	0.50857	0.46396	0.046
Mof_H 	H 	0.784	0.5268	0.4523	0.041
Mof_O 	O 	0.7578	0.5964	0.6474	-0.466
Mof_N 	N 	0.8592	0.5649	0.607	-0.075
Mof_C 	C 	0.7065	0.5567	0.6604	0.053
Mof_H 	H 	0.7193	0.5525	0.6424	0.044
Mof_O 	O 	0.7469	0.6279	0.6895	-0.312
Mof_C 	C 	0.713	0.5822	0.6801	-0.11
Mof_C 	C 	0.7415	0.6039	0.6725	0.356
Mof_Zn	Zn	0.87758	0.21649	0.54612	1.198
Mof_O 	O 	0.90817	0.24394	0.52326	-0.465
Mof_N 	N 	0.84918	0.24811	0.56894	-0.261
Mof_N 	N 	0.9026	0.1893	0.57683	-0.271
Mof_N 	N 	0.81164	0.2737	0.59618	-0.268
Mof_C 	C 	0.95477	0.25127	0.491	-0.106
Mof_O 	O 	0.92434	0.20233	0.49365	-0.344
Mof_C 	C 	0.92656	0.2305	0.50241	0.345
Mof_C 	C 	0.83275	0.24914	0.59604	0.22
Mof_C 	C 	0.92797	0.169	0.576	0.24
Mof_N 	N 	0.838	0.273	0.5509	-0.06
Mof_N 	N 	0.9487	0.1669	0.5513	-0.368
Mof_H 	H 	0.9664	0.1563	0.5536	0.187
Mof_H 	H 	0.9443	0.1761	0.5332	0.175
Mof_N 	N 	0.8345	0.2264	0.6199	-0.355
Mof_H 	H 	0.847	0.21	0.6177	0.16
Mof_H 	H 	0.823	0.2285	0.6371	0.176
Mof_N 	N 	0.93327	0.1557	0.60384	-0.263
Mof_N 	N 	0.9092	0.1671	0.6233	-0.065
Mof_N 	N 	0.817	0.2885	0.5674	-0.065
Mof_C 	C 	0.97221	0.24143	0.46396	0.046
Mof_H 	H 	0.966	0.2232	0.4523	0.041
Mof_O 	O 	0.9922	0.1536	0.6474	-0.466
Mof_N 	N 	0.8908	0.1851	0.607	-0.075
Mof_C 	C 	0.0435	0.1933	0.6604	0.053
Mof_H 	H 	0.0307	0.1975	0.6424	0.044
Mof_O 	O 	0.0031	0.1221	0.6895	-0.312
Mof_C 	C 	0.037	0.1678	0.6801	-0.11
Mof_C 	C 	0.0085	0.1461	0.6725	0.356
Mof_Zn	Zn	0.87758	0.71649	0.04612	1.198
Mof_O 	O 	0.90817	0.74394	0.02326	-0.465
Mof_N 	N 	0.84918	0.74811	0.06894	-0.261
Mof_N 	N 	0.9026	0.6893	0.07683	-0.271
Mof_N 	N 	0.81164	0.7737	0.09618	-0.268
Mof_C 	C 	0.95477	0.75127	0.991	-0.106
Mof_O 	O 	0.92434	0.70233	0.99365	-0.344
Mof_C 	C 	0.92656	0.7305	0.00241	0.345
Mof_C 	C 	0.83275	0.74914	0.09604	0.22
Mof_C 	C 	0.92797	0.669	0.076	0.24
Mof_N 	N 	0.838	0.773	0.0509	-0.06
Mof_N 	N 	0.9487	0.6669	0.0513	-0.368
Mof_H 	H 	0.9664	0.6563	0.0536	0.187
Mof_H 	H 	0.9443	0.6761	0.0332	0.175
Mof_N 	N 	0.8345	0.7264	0.1199	-0.355
Mof_H 	H 	0.847	0.71	0.1177	0.16
Mof_H 	H 	0.823	0.7285	0.1371	0.176
Mof_N 	N 	0.93327	0.6557	0.10384	-0.263
Mof_N 	N 	0.9092	0.6671	0.1233	-0.065
Mof_N 	N 	0.817	0.7885	0.0674	-0.065
Mof_C 	C 	0.97221	0.74143	0.96396	0.046
Mof_H 	H 	0.966	0.7232	0.9523	0.041
Mof_O 	O 	0.9922	0.6536	0.1474	-0.466
Mof_N 	N 	0.8908	0.6851	0.107	-0.075
Mof_C 	C 	0.0435	0.6933	0.1604	0.053
Mof_H 	H 	0.0307	0.6975	0.1424	0.044
Mof_O 	O 	0.0031	0.6221	0.1895	-0.312
Mof_C 	C 	0.037	0.6678	0.1801	-0.11
Mof_C 	C 	0.0085	0.6461	0.1725	0.356
Mof_Zn	Zn	0.37758	0.21649	0.04612	1.198
Mof_O 	O 	0.40817	0.24394	0.02326	-0.465
Mof_N 	N 	0.34918	0.24811	0.06894	-0.261
Mof_N 	N 	0.4026	0.1893	0.07683	-0.271
Mof_N 	N 	0.31164	0.2737	0.09618	-0.268
Mof_C 	C 	0.45477	0.25127	0.991	-0.106
Mof_O 	O 	0.42434	0.20233	0.99365	-0.344
Mof_C 	C 	0.42656	0.2305	0.00241	0.345
Mof_C 	C 	0.33275	0.24914	0.09604	0.22
Mof_C 	C 	0.42797	0.169	0.076	0.24
Mof_N 	N 	0.338	0.273	0.0509	-0.06
Mof_N 	N 	0.4487	0.1669	0.0513	-0.368
Mof_H 	H 	0.4664	0.1563	0.0536	0.187
Mof_H 	H 	0.4443	0.1761	0.0332	0.175
Mof_N 	N 	0.3345	0.2264	0.1199	-0.355
Mof_H 	H 	0.347	0.21	0.1177	0.16
Mof_H 	H 	0.323	0.2285	0.1371	0.176
Mof_N 	N 	0.43327	0.1557	0.10384	-0.263
Mof_N 	N 	0.4092	0.1671	0.1233	-0.065
Mof_N 	N 	0.317	0.2885	0.0674	-0.065
Mof_C 	C 	0.47221	0.24143	0.96396	0.046
Mof_H 	H 	0.466	0.2232	0.9523	0.041
Mof_O 	O 	0.4922	0.1536	0.1474	-0.466
Mof_N 	N 	0.3908	0.1851	0.107	-0.075
Mof_C 	C 	0.5435	0.1933	0.1604	0.053
Mof_H 	H 	0.5307	0.1975	0.1424	0.044
Mof_O 	O 	0.5031	0.1221	0.1895	-0.312
Mof_C 	C 	0.537	0.1678	0.1801	-0.11
Mof_C 	C 	0.5085	0.1461	0.1725	0.356
Mof_Zn	Zn	0.37758	0.71649	0.54612	1.198
Mof_O 	O 	0.40817	0.74394	0.52326	-0.465
Mof_N 	N 	0.34918	0.74811	0.56894	-0.261
Mof_N 	N 	0.4026	0.6893	0.57683	-0.271
Mof_N 	N 	0.31164	0.7737	0.59618	-0.268
Mof_C 	C 	0.45477	0.75127	0.491	-0.106
Mof_O 	O 	0.42434	0.70233	0.49365	-0.344
Mof_C 	C 	0.42656	0.7305	0.50241	0.345
Mof_C 	C 	0.33275	0.74914	0.59604	0.22
Mof_C 	C 	0.42797	0.669	0.576	0.24
Mof_N 	N 	0.338	0.773	0.5509	-0.06
Mof_N 	N 	0.4487	0.6669	0.5513	-0.368
Mof_H 	H 	0.4664	0.6563	0.5536	0.187
Mof_H 	H 	0.4443	0.6761	0.5332	0.175
Mof_N 	N 	0.3345	0.7264	0.6199	-0.355
Mof_H 	H 	0.347	0.71	0.6177	0.16
Mof_H 	H 	0.323	0.7285	0.6371	0.176
Mof_N 	N 	0.43327	0.6557	0.60384	-0.263
Mof_N 	N 	0.4092	0.6671	0.6233	-0.065
Mof_N 	N 	0.317	0.7885	0.5674	-0.065
Mof_C 	C 	0.47221	0.74143	0.46396	0.046
Mof_H 	H 	0.466	0.7232	0.4523	0.041
Mof_O 	O 	0.4922	0.6536	0.6474	-0.466
Mof_N 	N 	0.3908	0.6851	0.607	-0.075
Mof_C 	C 	0.5435	0.6933	0.6604	0.053
Mof_H 	H 	0.5307	0.6975	0.6424	0.044
Mof_O 	O 	0.5031	0.6221	0.6895	-0.312
Mof_C 	C 	0.537	0.6678	0.6801	-0.11
Mof_C 	C 	0.5085	0.6461	0.6725	0.356
Mof_Zn	Zn	0.37242	0.21649	0.70388	1.198
Mof_O 	O 	0.34183	0.24394	0.72674	-0.465
Mof_N 	N 	0.40082	0.24811	0.68106	-0.261
Mof_N 	N 	0.3474	0.1893	0.67317	-0.271
Mof_N 	N 	0.43836	0.2737	0.65382	-0.268
Mof_C 	C 	0.29523	0.25127	0.759	-0.106
Mof_O 	O 	0.32566	0.20233	0.75635	-0.344
Mof_C 	C 	0.32344	0.2305	0.74759	0.345
Mof_C 	C 	0.41725	0.24914	0.65396	0.22
Mof_C 	C 	0.32203	0.169	0.674	0.24
Mof_N 	N 	0.412	0.273	0.6991	-0.06
Mof_N 	N 	0.3013	0.1669	0.6987	-0.368
Mof_H 	H 	0.2836	0.1563	0.6964	0.187
Mof_H 	H 	0.3057	0.1761	0.7168	0.175
Mof_N 	N 	0.4155	0.2264	0.6301	-0.355
Mof_H 	H 	0.403	0.21	0.6323	0.16
Mof_H 	H 	0.427	0.2285	0.6129	0.176
Mof_N 	N 	0.31673	0.1557	0.64616	-0.263
Mof_N 	N 	0.3408	0.1671	0.6267	-0.065
Mof_N 	N 	0.433	0.2885	0.6826	-0.065
Mof_C 	C 	0.27779	0.24143	0.78604	0.046
Mof_H 	H 	0.284	0.2232	0.7977	0.041
Mof_O 	O 	0.2578	0.1536	0.6026	-0.466
Mof_N 	N 	0.3592	0.1851	0.643	-0.075
Mof_C 	C 	0.2065	0.1933	0.5896	0.053
Mof_H 	H 	0.2193	0.1975	0.6076	0.044
Mof_O 	O 	0.2469	0.1221	0.5605	-0.312
Mof_C 	C 	0.213	0.1678	0.5699	-0.11
Mof_C 	C 	0.2415	0.1461	0.5775	0.356
Mof_Zn	Zn	0.37242	0.71649	0.20388	1.198
Mof_O 	O 	0.34183	0.74394	0.22674	-0.465
Mof_N 	N 	0.40082	0.74811	0.18106	-0.261
Mof_N 	N 	0.3474	0.6893	0.17317	-0.271
Mof_N 	N 	0.43836	0.7737	0.15382	-0.268
Mof_C 	C 	0.29523	0.75127	0.259	-0.106
Mof_O 	O 	0.32566	0.70233	0.25635	-0.344
Mof_C 	C 	0.32344	0.7305	0.24759	0.345
Mof_C 	C 	0.41725	0.74914	0.15396	0.22
Mof_C 	C 	0.32203	0.669	0.174	0.24
Mof_N 	N 	0.412	0.773	0.1991	-0.06
Mof_N 	N 	0.3013	0.6669	0.1987	-0.368
Mof_H 	H 	0.2836	0.6563	0.1964	0.187
Mof_H 	H 	0.3057	0.6761	0.2168	0.175
Mof_N 	N 	0.4155	0.7264	0.1301	-0.355
Mof_H 	H 	0.403	0.71	0.1323	0.16
Mof_H 	H 	0.427	0.7285	0.1129	0.176
Mof_N 	N 	0.31673	0.6557	0.14616	-0.263
Mof_N 	N 	0.3408	0.6671	0.1267	-0.065
Mof_N 	N 	0.433	0.7885	0.1826	-0.065
Mof_C 	C 	0.27779	0.74143	0.28604	0.046
Mof_H 	H 	0.284	0.7232	0.2977	0.041
Mof_O 	O 	0.2578	0.6536	0.1026	-0.466
Mof_N 	N 	0.3592	0.6851	0.143	-0.075
Mof_C 	C 	0.2065	0.6933	0.0896	0.053
Mof_H 	H 	0.2193	0.6975	0.1076	0.044
Mof_O 	O 	0.2469	0.6221	0.0605	-0.312
Mof_C 	C 	0.213	0.6678	0.0699	-0.11
Mof_C 	C 	0.2415	0.6461	0.0775	0.356
Mof_Zn	Zn	0.87242	0.21649	0.20388	1.198
Mof_O 	O 	0.84183	0.24394	0.22674	-0.465
Mof_N 	N 	0.90082	0.24811	0.18106	-0.261
Mof_N 	N 	0.8474	0.1893	0.17317	-0.271
Mof_N 	N 	0.93836	0.2737	0.15382	-0.268
Mof_C 	C 	0.79523	0.25127	0.259	-0.106
Mof_O 	O 	0.82566	0.20233	0.25635	-0.344
Mof_C 	C 	0.82344	0.2305	0.24759	0.345
Mof_C 	C 	0.91725	0.24914	0.15396	0.22
Mof_C 	C 	0.82203	0.169	0.174	0.24
Mof_N 	N 	0.912	0.273	0.1991	-0.06
Mof_N 	N 	0.8013	0.1669	0.1987	-0.368
Mof_H 	H 	0.7836	0.1563	0.1964	0.187
Mof_H 	H 	0.8057	0.1761	0.2168	0.175
Mof_N 	N 	0.9155	0.2264	0.1301	-0.355
Mof_H 	H 	0.903	0.21	0.1323	0.16
Mof_H 	H 	0.927	0.2285	0.1129	0.176
Mof_N 	N 	0.81673	0.1557	0.14616	-0.263
Mof_N 	N 	0.8408	0.1671	0.1267	-0.065
Mof_N 	N 	0.933	0.2885	0.1826	-0.065
Mof_C 	C 	0.77779	0.24143	0.28604	0.046
Mof_H 	H 	0.784	0.2232	0.2977	0.041
Mof_O 	O 	0.7578	0.1536	0.1026	-0.466
Mof_N 	N 	0.8592	0.1851	0.143	-0.075
Mof_C 	C 	0.7065	0.1933	0.0896	0.053
Mof_H 	H 	0.7193	0.1975	0.1076	0.044
Mof_O 	O 	0.7469	0.1221	0.0605	-0.312
Mof_C 	C 	0.713	0.1678	0.0699	-0.11
Mof_C 	C 	0.7415	0.1461	0.0775	0.356
Mof_Zn	Zn	0.87242	0.71649	0.70388	1.198
Mof_O 	O 	0.84183	0.74394	0.72674	-0.465
Mof_N 	N 	0.90082	0.74811	0.68106	-0.261
Mof_N 	N 	0.8474	0.6893	0.67317	-0.271
Mof_N 	N 	0.93836	0.7737	0.65382	-0.268
Mof_C 	C 	0.79523	0.75127	0.759	-0.106
Mof_O 	O 	0.82566	0.70233	0.75635	-0.344
Mof_C 	C 	0.82344	0.7305	0.74759	0.345
Mof_C 	C 	0.91725	0.74914	0.65396	0.22
Mof_C 	C 	0.82203	0.669	0.674	0.24
Mof_N 	N 	0.912	0.773	0.6991	-0.06
Mof_N 	N 	0.8013	0.6669	0.6987	-0.368
Mof_H 	H 	0.7836	0.6563	0.6964	0.187
Mof_H 	H 	0.8057	0.6761	0.7168	0.175
Mof_N 	N 	0.9155	0.7264	0.6301	-0.355
Mof_H 	H 	0.903	0.71	0.6323	0.16
Mof_H 	H 	0.927	0.7285	0.6129	0.176
Mof_N 	N 	0.81673	0.6557	0.64616	-0.263
Mof_N 	N 	0.8408	0.6671	0.6267	-0.065
Mof_N 	N 	0.933	0.7885	0.6826	-0.065
Mof_C 	C 	0.77779	0.74143	0.78604	0.046
Mof_H 	H 	0.784	0.7232	0.7977	0.041
Mof_O 	O 	0.7578	0.6536	0.6026	-0.466
Mof_N 	N 	0.8592	0.6851	0.643	-0.075
Mof_C 	C 	0.7065	0.6933	0.5896	0.053
Mof_H 	H 	0.7193	0.6975	0.6076	0.044
Mof_O 	O 	0.7469	0.6221	0.5605	-0.312
Mof_C 	C 	0.713	0.6678	0.5699	-0.11
Mof_C 	C 	0.7415	0.6461	0.5775	0.356
Mof_Zn	Zn	0.29612	0.12242	0.96649	1.198
Mof_O 	O 	0.27326	0.09183	0.99394	-0.465
Mof_N 	N 	0.31894	0.15082	0.99811	-0.261
Mof_N 	N 	0.32683	0.0974	0.9393	-0.271
Mof_N 	N 	0.34618	0.18836	0.0237	-0.268
Mof_C 	C 	0.241	0.04523	0.00127	-0.106
Mof_O 	O 	0.24365	0.07566	0.95233	-0.344
Mof_C 	C 	0.25241	0.07344	0.9805	0.345
Mof_C 	C 	0.34604	0.16725	0.99914	0.22
Mof_C 	C 	0.326	0.07203	0.919	0.24
Mof_N 	N 	0.3009	0.162	0.023	-0.06
Mof_N 	N 	0.3013	0.0513	0.9169	-0.368
Mof_H 	H 	0.3036	0.0336	0.9063	0.187
Mof_H 	H 	0.2832	0.0557	0.9261	0.175
Mof_N 	N 	0.3699	0.1655	0.9764	-0.355
Mof_H 	H 	0.3677	0.153	0.96	0.16
Mof_H 	H 	0.3871	0.177	0.9785	0.176
Mof_N 	N 	0.35384	0.06673	0.9057	-0.263
Mof_N 	N 	0.3733	0.0908	0.9171	-0.065
Mof_N 	N 	0.3174	0.183	0.0385	-0.065
Mof_C 	C 	0.21396	0.02779	0.99143	0.046
Mof_H 	H 	0.2023	0.034	0.9732	0.041
Mof_O 	O 	0.3974	0.0078	0.9036	-0.466
Mof_N 	N 	0.357	0.1092	0.9351	-0.075
Mof_C 	C 	0.4104	0.9565	0.9433	0.053
Mof_H 	H 	0.3924	0.9693	0.9475	0.044
Mof_O 	O 	0.4395	0.9969	0.8721	-0.312
Mof_C 	C 	0.4301	0.963	0.9178	-0.11
Mof_C 	C 	0.4225	0.9915	0.8961	0.356
Mof_Zn	Zn	0.29612	0.62242	0.46649	1.198
Mof_O 	O 	0.27326	0.59183	0.49394	-0.465
Mof_N 	N 	0.31894	0.65082	0.49811	-0.261
Mof_N 	N 	0.32683	0.5974	0.4393	-0.271
Mof_N 	N 	0.34618	0.68836	0.5237	-0.268
Mof_C 	C 	0.241	0.54523	0.50127	-0.106
Mof_O 	O 	0.24365	0.57566	0.45233	-0.344
Mof_C 	C 	0.25241	0.57344	0.4805	0.345
Mof_C 	C 	0.34604	0.66725	0.49914	0.22
Mof_C 	C 	0.326	0.57203	0.419	0.24
Mof_N 	N 	0.3009	0.662	0.523	-0.06
Mof_N 	N 	0.3013	0.5513	0.4169	-0.368
Mof_H 	H 	0.3036	0.5336	0.4063	0.187
Mof_H 	H 	0.2832	0.5557	0.4261	0.175
Mof_N 	N 	0.3699	0.6655	0.4764	-0.355
Mof_H 	H 	0.3677	0.653	0.46	0.16
Mof_H 	H 	0.3871	0.677	0.4785	0.176
Mof_N 	N 	0.35384	0.56673	0.4057	-0.263
Mof_N 	N 	0.3733	0.5908	0.4171	-0.065
Mof_N 	N 	0.3174	0.683	0.5385	-0.065
Mof_C 	C 	0.21396	0.52779	0.49143	0.046
Mof_H 	H 	0.2023	0.534	0.4732	0.041
Mof_O 	O 	0.3974	0.5078	0.4036	-0.466
Mof_N 	N 	0.357	0.6092	0.4351	-0.075
Mof_C 	C 	0.4104	0.4565	0.4433	0.053
Mof_H 	H 	0.3924	0.4693	0.4475	0.044
Mof_O 	O 	0.4395	0.4969	0.3721	-0.312
Mof_C 	C 	0.4301	0.463	0.4178	-0.11
Mof_C 	C 	0.4225	0.4915	0.3961	0.356
Mof_Zn	Zn	0.79612	0.12242	0.46649	1.198
Mof_O 	O 	0.77326	0.09183	0.49394	-0.465
Mof_N 	N 	0.81894	0.15082	0.49811	-0.261
Mof_N 	N 	0.82683	0.0974	0.4393	-0.271
Mof_N 	N 	0.84618	0.18836	0.5237	-0.268
Mof_C 	C 	0.741	0.04523	0.50127	-0.106
Mof_O 	O 	0.74365	0.07566	0.45233	-0.344
Mof_C 	C 	0.75241	0.07344	0.4805	0.345
Mof_C 	C 	0.84604	0.16725	0.49914	0.22
Mof_C 	C 	0.826	0.07203	0.419	0.24
Mof_N 	N 	0.8009	0.162	0.523	-0.06
Mof_N 	N 	0.8013	0.0513	0.4169	-0.368
Mof_H 	H 	0.8036	0.0336	0.4063	0.187
Mof_H 	H 	0.7832	0.0557	0.4261	0.175
Mof_N 	N 	0.8699	0.1655	0.4764	-0.355
Mof_H 	H 	0.8677	0.153	0.46	0.16
Mof_H 	H 	0.8871	0.177	0.4785	0.176
Mof_N 	N 	0.85384	0.06673	0.4057	-0.263
Mof_N 	N 	0.8733	0.0908	0.4171	-0.065
Mof_N 	N 	0.8174	0.183	0.5385	-0.065
Mof_C 	C 	0.71396	0.02779	0.49143	0.046
Mof_H 	H 	0.7023	0.034	0.4732	0.041
Mof_O 	O 	0.8974	0.0078	0.4036	-0.466
Mof_N 	N 	0.857	0.1092	0.4351	-0.075
Mof_C 	C 	0.9104	0.9565	0.4433	0.053
Mof_H 	H 	0.8924	0.9693	0.4475	0.044
Mof_O 	O 	0.9395	0.9969	0.3721	-0.312
Mof_C 	C 	0.9301	0.963	0.4178	-0.11
Mof_C 	C 	0.9225	0.9915	0.3961	0.356
Mof_Zn	Zn	0.79612	0.62242	0.96649	1.198
Mof_O 	O 	0.77326	0.59183	0.99394	-0.465
Mof_N 	N 	0.81894	0.65082	0.99811	-0.261
Mof_N 	N 	0.82683	0.5974	0.9393	-0.271
Mof_N 	N 	0.84618	0.68836	0.0237	-0.268
Mof_C 	C 	0.741	0.54523	0.00127	-0.106
Mof_O 	O 	0.74365	0.57566	0.95233	-0.344
Mof_C 	C 	0.75241	0.57344	0.9805	0.345
Mof_C 	C 	0.84604	0.66725	0.99914	0.22
Mof_C 	C 	0.826	0.57203	0.919	0.24
Mof_N 	N 	0.8009	0.662	0.023	-0.06
Mof_N 	N 	0.8013	0.5513	0.9169	-0.368
Mof_H 	H 	0.8036	0.5336	0.9063	0.187
Mof_H 	H 	0.7832	0.5557	0.9261	0.175
Mof_N 	N 	0.8699	0.6655	0.9764	-0.355
Mof_H 	H 	0.8677	0.653	0.96	0.16
Mof_H 	H 	0.8871	0.677	0.9785	0.176
Mof_N 	N 	0.85384	0.56673	0.9057	-0.263
Mof_N 	N 	0.8733	0.5908	0.9171	-0.065
Mof_N 	N 	0.8174	0.683	0.0385	-0.065
Mof_C 	C 	0.71396	0.52779	0.99143	0.046
Mof_H 	H 	0.7023	0.534	0.9732	0.041
Mof_O 	O 	0.8974	0.5078	0.9036	-0.466
Mof_N 	N 	0.857	0.6092	0.9351	-0.075
Mof_C 	C 	0.9104	0.4565	0.9433	0.053
Mof_H 	H 	0.8924	0.4693	0.9475	0.044
Mof_O 	O 	0.9395	0.4969	0.8721	-0.312
Mof_C 	C 	0.9301	0.463	0.9178	-0.11
Mof_C 	C 	0.9225	0.4915	0.8961	0.356
Mof_Zn	Zn	0.45388	0.62758	0.96649	1.198
Mof_O 	O 	0.47674	0.65817	0.99394	-0.465
Mof_N 	N 	0.43106	0.59918	0.99811	-0.261
Mof_N 	N 	0.42317	0.6526	0.9393	-0.271
Mof_N 	N 	0.40382	0.56164	0.0237	-0.268
Mof_C 	C 	0.509	0.70477	0.00127	-0.106
Mof_O 	O 	0.50635	0.67434	0.95233	-0.344
Mof_C 	C 	0.49759	0.67656	0.9805	0.345
Mof_C 	C 	0.40396	0.58275	0.99914	0.22
Mof_C 	C 	0.424	0.67797	0.919	0.24
Mof_N 	N 	0.4491	0.588	0.023	-0.06
Mof_N 	N 	0.4487	0.6987	0.9169	-0.368
Mof_H 	H 	0.4464	0.7164	0.9063	0.187
Mof_H 	H 	0.4668	0.6943	0.9261	0.175
Mof_N 	N 	0.3801	0.5845	0.9764	-0.355
Mof_H 	H 	0.3823	0.597	0.96	0.16
Mof_H 	H 	0.3629	0.573	0.9785	0.176
Mof_N 	N 	0.39616	0.68327	0.9057	-0.263
Mof_N 	N 	0.3767	0.6592	0.9171	-0.065
Mof_N 	N 	0.4326	0.567	0.0385	-0.065
Mof_C 	C 	0.53604	0.72221	0.99143	0.046
Mof_H 	H 	0.5477	0.716	0.9732	0.041
Mof_O 	O 	0.3526	0.7422	0.9036	-0.466
Mof_N 	N 	0.393	0.6408	0.9351	-0.075
Mof_C 	C 	0.3396	0.7935	0.9433	0.053
Mof_H 	H 	0.3576	0.7807	0.9475	0.044
Mof_O 	O 	0.3105	0.7531	0.8721	-0.312
Mof_C 	C 	0.3199	0.787	0.9178	-0.11
Mof_C 	C 	0.3275	0.7585	0.8961	0.356
Mof_Zn	Zn	0.45388	0.12758	0.46649	1.198
Mof_O 	O 	0.47674	0.15817	0.49394	-0.465
Mof_N 	N 	0.43106	0.09918	0.49811	-0.261
Mof_N 	N 	0.42317	0.1526	0.4393	-0.271
Mof_N 	N 	0.40382	0.06164	0.5237	-0.268
Mof_C 	C 	0.509	0.20477	0.50127	-0.106
Mof_O 	O 	0.50635	0.17434	0.45233	-0.344
Mof_C 	C 	0.49759	0.17656	0.4805	0.345
Mof_C 	C 	0.40396	0.08275	0.49914	0.22
Mof_C 	C 	0.424	0.17797	0.419	0.24
Mof_N 	N 	0.4491	0.088	0.523	-0.06
Mof_N 	N 	0.4487	0.1987	0.4169	-0.368
Mof_H 	H 	0.4464	0.2164	0.4063	0.187
Mof_H 	H 	0.4668	0.1943	0.4261	0.175
Mof_N 	N 	0.3801	0.0845	0.4764	-0.355
Mof_H 	H 	0.3823	0.097	0.46	0.16
Mof_H 	H 	0.3629	0.073	0.4785	0.176
Mof_N 	N 	0.39616	0.18327	0.4057	-0.263
Mof_N 	N 	0.3767	0.1592	0.4171	-0.065
Mof_N 	N 	0.4326	0.067	0.5385	-0.065
Mof_C 	C 	0.53604	0.22221	0.49143	0.046
Mof_H 	H 	0.5477	0.216	0.4732	0.041
Mof_O 	O 	0.3526	0.2422	0.4036	-0.466
Mof_N 	N 	0.393	0.1408	0.4351	-0.075
Mof_C 	C 	0.3396	0.2935	0.4433	0.053
Mof_H 	H 	0.3576	0.2807	0.4475	0.044
Mof_O 	O 	0.3105	0.2531	0.3721	-0.312
Mof_C 	C 	0.3199	0.287	0.4178	-0.11
Mof_C 	C 	0.3275	0.2585	0.3961	0.356
Mof_Zn	Zn	0.95388	0.62758	0.46649	1.198
Mof_O 	O 	0.97674	0.65817	0.49394	-0.465
Mof_N 	N 	0.93106	0.59918	0.49811	-0.261
Mof_N 	N 	0.92317	0.6526	0.4393	-0.271
Mof_N 	N 	0.90382	0.56164	0.5237	-0.268
Mof_C 	C 	0.009	0.70477	0.50127	-0.106
Mof_O 	O 	0.00635	0.67434	0.45233	-0.344
Mof_C 	C 	0.99759	0.67656	0.4805	0.345
Mof_C 	C 	0.90396	0.58275	0.49914	0.22
Mof_C 	C 	0.924	0.67797	0.419	0.24
Mof_N 	N 	0.9491	0.588	0.523	-0.06
Mof_N 	N 	0.9487	0.6987	0.4169	-0.368
Mof_H 	H 	0.9464	0.7164	0.4063	0.187
Mof_H 	H 	0.9668	0.6943	0.4261	0.175
Mof_N 	N 	0.8801	0.5845	0.4764	-0.355
Mof_H 	H 	0.8823	0.597	0.46	0.16
Mof_H 	H 	0.8629	0.573	0.4785	0.176
Mof_N 	N 	0.89616	0.68327	0.4057	-0.263
Mof_N 	N 	0.8767	0.6592	0.4171	-0.065
Mof_N 	N 	0.9326	0.567	0.5385	-0.065
Mof_C 	C 	0.03604	0.72221	0.49143	0.046
Mof_H 	H 	0.0477	0.716	0.4732	0.041
Mof_O 	O 	0.8526	0.7422	0.4036	-0.466
Mof_N 	N 	0.893	0.6408	0.4351	-0.075
Mof_C 	C 	0.8396	0.7935	0.4433	0.053
Mof_H 	H 	0.8576	0.7807	0.4475	0.044
Mof_O 	O 	0.8105	0.7531	0.3721	-0.312
Mof_C 	C 	0.8199	0.787	0.4178	-0.11
Mof_C 	C 	0.8275	0.7585	0.3961	0.356
Mof_Zn	Zn	0.95388	0.12758	0.96649	1.198
Mof_O 	O 	0.97674	0.15817	0.99394	-0.465
Mof_N 	N 	0.93106	0.09918	0.99811	-0.261
Mof_N 	N 	0.92317	0.1526	0.9393	-0.271
Mof_N 	N 	0.90382	0.06164	0.0237	-0.268
Mof_C 	C 	0.009	0.20477	0.00127	-0.106
Mof_O 	O 	0.00635	0.17434	0.95233	-0.344
Mof_C 	C 	0.99759	0.17656	0.9805	0.345
Mof_C 	C 	0.90396	0.08275	0.99914	0.22
Mof_C 	C 	0.924	0.17797	0.919	0.24
Mof_N 	N 	0.9491	0.088	0.023	-0.06
Mof_N 	N 	0.9487	0.1987	0.9169	-0.368
Mof_H 	H 	0.9464	0.2164	0.9063	0.187
Mof_H 	H 	0.9668	0.1943	0.9261	0.175
Mof_N 	N 	0.8801	0.0845	0.9764	-0.355
Mof_H 	H 	0.8823	0.097	0.96	0.16
Mof_H 	H 	0.8629	0.073	0.9785	0.176
Mof_N 	N 	0.89616	0.18327	0.9057	-0.263
Mof_N 	N 	0.8767	0.1592	0.9171	-0.065
Mof_N 	N 	0.9326	0.067	0.0385	-0.065
Mof_C 	C 	0.03604	0.22221	0.99143	0.046
Mof_H 	H 	0.0477	0.216	0.9732	0.041
Mof_O 	O 	0.8526	0.2422	0.9036	-0.466
Mof_N 	N 	0.893	0.1408	0.9351	-0.075
Mof_C 	C 	0.8396	0.2935	0.9433	0.053
Mof_H 	H 	0.8576	0.2807	0.9475	0.044
Mof_O 	O 	0.8105	0.2531	0.8721	-0.312
Mof_C 	C 	0.8199	0.287	0.9178	-0.11
Mof_C 	C 	0.8275	0.2585	0.8961	0.356
Mof_Zn	Zn	0.45388	0.12242	0.78351	1.198
Mof_O 	O 	0.47674	0.09183	0.75606	-0.465
Mof_N 	N 	0.43106	0.15082	0.75189	-0.261
Mof_N 	N 	0.42317	0.0974	0.8107	-0.271
Mof_N 	N 	0.40382	0.18836	0.7263	-0.268
Mof_C 	C 	0.509	0.04523	0.74873	-0.106
Mof_O 	O 	0.50635	0.07566	0.79767	-0.344
Mof_C 	C 	0.49759	0.07344	0.7695	0.345
Mof_C 	C 	0.40396	0.16725	0.75086	0.22
Mof_C 	C 	0.424	0.07203	0.831	0.24
Mof_N 	N 	0.4491	0.162	0.727	-0.06
Mof_N 	N 	0.4487	0.0513	0.8331	-0.368
Mof_H 	H 	0.4464	0.0336	0.8437	0.187
Mof_H 	H 	0.4668	0.0557	0.8239	0.175
Mof_N 	N 	0.3801	0.1655	0.7736	-0.355
Mof_H 	H 	0.3823	0.153	0.79	0.16
Mof_H 	H 	0.3629	0.177	0.7715	0.176
Mof_N 	N 	0.39616	0.06673	0.8443	-0.263
Mof_N 	N 	0.3767	0.0908	0.8329	-0.065
Mof_N 	N 	0.4326	0.183	0.7115	-0.065
Mof_C 	C 	0.53604	0.02779	0.75857	0.046
Mof_H 	H 	0.5477	0.034	0.7768	0.041
Mof_O 	O 	0.3526	0.0078	0.8464	-0.466
Mof_N 	N 	0.393	0.1092	0.8149	-0.075
Mof_C 	C 	0.3396	0.9565	0.8067	0.053
Mof_H 	H 	0.3576	0.9693	0.8025	0.044
Mof_O 	O 	0.3105	0.9969	0.8779	-0.312
Mof_C 	C 	0.3199	0.963	0.8322	-0.11
Mof_C 	C 	0.3275	0.9915	0.8539	0.356
Mof_Zn	Zn	0.45388	0.62242	0.28351	1.198
Mof_O 	O 	0.47674	0.59183	0.25606	-0.465
Mof_N 	N 	0.43106	0.65082	0.25189	-0.261
Mof_N 	N 	0.42317	0.5974	0.3107	-0.271
Mof_N 	N 	0.40382	0.68836	0.2263	-0.268
Mof_C 	C 	0.509	0.54523	0.24873	-0.106
Mof_O 	O 	0.50635	0.57566	0.29767	-0.344
Mof_C 	C 	0.49759	0.57344	0.2695	0.345
Mof_C 	C 	0.40396	0.66725	0.25086	0.22
Mof_C 	C 	0.424	0.57203	0.331	0.24
Mof_N 	N 	0.4491	0.662	0.227	-0.06
Mof_N 	N 	0.4487	0.5513	0.3331	-0.368
Mof_H 	H 	0.4464	0.5336	0.3437	0.187
Mof_H 	H 	0.4668	0.5557	0.3239	0.175
Mof_N 	N 	0.3801	0.6655	0.2736	-0.355
Mof_H 	H 	0.3823	0.653	0.29	0.16
Mof_H 	H 	0.3629	0.677	0.2715	0.176
Mof_N 	N 	0.39616	0.56673	0.3443	-0.263
Mof_N 	N 	0.3767	0.5908	0.3329	-0.065
Mof_N 	N 	0.4326	0.683	0.2115	-0.065
Mof_C 	C 	0.53604	0.52779	0.25857	0.046
Mof_H 	H 	0.5477	0.534	0.2768	0.041
Mof_O 	O 	0.3526	0.5078	0.3464	-0.466
Mof_N 	N 	0.393	0.6092	0.3149	-0.075
Mof_C 	C 	0.3396	0.4565	0.3067	0.053
Mof_H 	H 	0.3576	0.4693	0.3025	0.044
Mof_O 	O 	0.3105	0.4969	0.3779	-0.312
Mof_C 	C 	0.3199	0.463	0.3322	-0.11
Mof_C 	C 	0.3275	0.4915	0.3539	0.356
Mof_Zn	Zn	0.95388	0.12242	0.28351	1.198
Mof_O 	O 	0.97674	0.09183	0.25606	-0.465
Mof_N 	N 	0.93106	0.15082	0.25189	-0.261
Mof_N 	N 	0.92317	0.0974	0.3107	-0.271
Mof_N 	N 	0.90382	0.18836	0.2263	-0.268
Mof_C 	C 	0.009	0.04523	0.24873	-0.106
Mof_O 	O 	0.00635	0.07566	0.29767	-0.344
Mof_C 	C 	0.99759	0.07344	0.2695	0.345
Mof_C 	C 	0.90396	0.16725	0.25086	0.22
Mof_C 	C 	0.924	0.07203	0.331	0.24
Mof_N 	N 	0.9491	0.162	0.227	-0.06
Mof_N 	N 	0.9487	0.0513	0.3331	-0.368
Mof_H 	H 	0.9464	0.0336	0.3437	0.187
Mof_H 	H 	0.9668	0.0557	0.3239	0.175
Mof_N 	N 	0.8801	0.1655	0.2736	-0.355
Mof_H 	H 	0.8823	0.153	0.29	0.16
Mof_H 	H 	0.8629	0.177	0.2715	0.176
Mof_N 	N 	0.89616	0.06673	0.3443	-0.263
Mof_N 	N 	0.8767	0.0908	0.3329	-0.065
Mof_N 	N 	0.9326	0.183	0.2115	-0.065
Mof_C 	C 	0.03604	0.02779	0.25857	0.046
Mof_H 	H 	0.0477	0.034	0.2768	0.041
Mof_O 	O 	0.8526	0.0078	0.3464	-0.466
Mof_N 	N 	0.893	0.1092	0.3149	-0.075
Mof_C 	C 	0.8396	0.9565	0.3067	0.053
Mof_H 	H 	0.8576	0.9693	0.3025	0.044
Mof_O 	O 	0.8105	0.9969	0.3779	-0.312
Mof_C 	C 	0.8199	0.963	0.3322	-0.11
Mof_C 	C 	0.8275	0.9915	0.3539	0.356
Mof_Zn	Zn	0.95388	0.62242	0.78351	1.198
Mof_O 	O 	0.97674	0.59183	0.75606	-0.465
Mof_N 	N 	0.93106	0.65082	0.75189	-0.261
Mof_N 	N 	0.92317	0.5974	0.8107	-0.271
Mof_N 	N 	0.90382	0.68836	0.7263	-0.268
Mof_C 	C 	0.009	0.54523	0.74873	-0.106
Mof_O 	O 	0.00635	0.57566	0.79767	-0.344
Mof_C 	C 	0.99759	0.57344	0.7695	0.345
Mof_C 	C 	0.90396	0.66725	0.75086	0.22
Mof_C 	C 	0.924	0.57203	0.831	0.24
Mof_N 	N 	0.9491	0.662	0.727	-0.06
Mof_N 	N 	0.9487	0.5513	0.8331	-0.368
Mof_H 	H 	0.9464	0.5336	0.8437	0.187
Mof_H 	H 	0.9668	0.5557	0.8239	0.175
Mof_N 	N 	0.8801	0.6655	0.7736	-0.355
Mof_H 	H 	0.8823	0.653	0.79	0.16
Mof_H 	H 	0.8629	0.677	0.7715	0.176
Mof_N 	N 	0.89616	0.56673	0.8443	-0.263
Mof_N 	N 	0.8767	0.5908	0.8329	-0.065
Mof_N 	N 	0.9326	0.683	0.7115	-0.065
Mof_C 	C 	0.03604	0.52779	0.75857	0.046
Mof_H 	H 	0.0477	0.534	0.7768	0.041
Mof_O 	O 	0.8526	0.5078	0.8464	-0.466
Mof_N 	N 	0.893	0.6092	0.8149	-0.075
Mof_C 	C 	0.8396	0.4565	0.8067	0.053
Mof_H 	H 	0.8576	0.4693	0.8025	0.044
Mof_O 	O 	0.8105	0.4969	0.8779	-0.312
Mof_C 	C 	0.8199	0.463	0.8322	-0.11
Mof_C 	C 	0.8275	0.4915	0.8539	0.356
Mof_Zn	Zn	0.29612	0.62758	0.78351	1.198
Mof_O 	O 	0.27326	0.65817	0.75606	-0.465
Mof_N 	N 	0.31894	0.59918	0.75189	-0.261
Mof_N 	N 	0.32683	0.6526	0.8107	-0.271
Mof_N 	N 	0.34618	0.56164	0.7263	-0.268
Mof_C 	C 	0.241	0.70477	0.74873	-0.106
Mof_O 	O 	0.24365	0.67434	0.79767	-0.344
Mof_C 	C 	0.25241	0.67656	0.7695	0.345
Mof_C 	C 	0.34604	0.58275	0.75086	0.22
Mof_C 	C 	0.326	0.67797	0.831	0.24
Mof_N 	N 	0.3009	0.588	0.727	-0.06
Mof_N 	N 	0.3013	0.6987	0.8331	-0.368
Mof_H 	H 	0.3036	0.7164	0.8437	0.187
Mof_H 	H 	0.2832	0.6943	0.8239	0.175
Mof_N 	N 	0.3699	0.5845	0.7736	-0.355
Mof_H 	H 	0.3677	0.597	0.79	0.16
Mof_H 	H 	0.3871	0.573	0.7715	0.176
Mof_N 	N 	0.35384	0.68327	0.8443	-0.263
Mof_N 	N 	0.3733	0.6592	0.8329	-0.065
Mof_N 	N 	0.3174	0.567	0.7115	-0.065
Mof_C 	C 	0.21396	0.72221	0.75857	0.046
Mof_H 	H 	0.2023	0.716	0.7768	0.041
Mof_O 	O 	0.3974	0.7422	0.8464	-0.466
Mof_N 	N 	0.357	0.6408	0.8149	-0.075
Mof_C 	C 	0.4104	0.7935	0.8067	0.053
Mof_H 	H 	0.3924	0.7807	0.8025	0.044
Mof_O 	O 	0.4395	0.7531	0.8779	-0.312
Mof_C 	C 	0.4301	0.787	0.8322	-0.11
Mof_C 	C 	0.4225	0.7585	0.8539	0.356
Mof_Zn	Zn	0.29612	0.12758	0.28351	1.198
Mof_O 	O 	0.27326	0.15817	0.25606	-0.465
Mof_N 	N 	0.31894	0.09918	0.25189	-0.261
Mof_N 	N 	0.32683	0.1526	0.3107	-0.271
Mof_N 	N 	0.34618	0.06164	0.2263	-0.268
Mof_C 	C 	0.241	0.20477	0.24873	-0.106
Mof_O 	O 	0.24365	0.17434	0.29767	-0.344
Mof_C 	C 	0.25241	0.17656	0.2695	0.345
Mof_C 	C 	0.34604	0.08275	0.25086	0.22
Mof_C 	C 	0.326	0.17797	0.331	0.24
Mof_N 	N 	0.3009	0.088	0.227	-0.06
Mof_N 	N 	0.3013	0.1987	0.3331	-0.368
Mof_H 	H 	0.3036	0.2164	0.3437	0.187
Mof_H 	H 	0.2832	0.1943	0.3239	0.175
Mof_N 	N 	0.3699	0.0845	0.2736	-0.355
Mof_H 	H 	0.3677	0.097	0.29	0.16
Mof_H 	H 	0.3871	0.073	0.2715	0.176
Mof_N 	N 	0.35384	0.18327	0.3443	-0.263
Mof_N 	N 	0.3733	0.1592	0.3329	-0.065
Mof_N 	N 	0.3174	0.067	0.2115	-0.065
Mof_C 	C 	0.21396	0.22221	0.25857	0.046
Mof_H 	H 	0.2023	0.216	0.2768	0.041
Mof_O 	O 	0.3974	0.2422	0.3464	-0.466
Mof_N 	N 	0.357	0.1408	0.3149	-0.075
Mof_C 	C 	0.4104	0.2935	0.3067	0.053
Mof_H 	H 	0.3924	0.2807	0.3025	0.044
Mof_O 	O 	0.4395	0.2531	0.3779	-0.312
Mof_C 	C 	0.4301	0.287	0.3322	-0.11
Mof_C 	C 	0.4225	0.2585	0.3539	0.356
Mof_Zn	Zn	0.79612	0.62758	0.28351	1.198
Mof_O 	O 	0.77326	0.65817	0.25606	-0.465
Mof_N 	N 	0.81894	0.59918	0.25189	-0.261
Mof_N 	N 	0.82683	0.6526	0.3107	-0.271
Mof_N 	N 	0.84618	0.56164	0.2263	-0.268
Mof_C 	C 	0.741	0.70477	0.24873	-0.106
Mof_O 	O 	0.74365	0.67434	0.29767	-0.344
Mof_C 	C 	0.75241	0.67656	0.2695	0.345
Mof_C 	C 	0.84604	0.58275	0.25086	0.22
Mof_C 	C 	0.826	0.67797	0.331	0.24
Mof_N 	N 	0.8009	0.588	0.227	-0.06
Mof_N 	N 	0.8013	0.6987	0.3331	-0.368
Mof_H 	H 	0.8036	0.7164	0.3437	0.187
Mof_H 	H 	0.7832	0.6943	0.3239	0.175
Mof_N 	N 	0.8699	0.5845	0.2736	-0.355
Mof_H 	H 	0.8677	0.597	0.29	0.16
Mof_H 	H 	0.8871	0.573	0.2715	0.176
Mof_N 	N 	0.85384	0.68327	0.3443	-0.263
Mof_N 	N 	0.8733	0.6592	0.3329	-0.065
Mof_N 	N 	0.8174	0.567	0.2115	-0.065
Mof_C 	C 	0.71396	0.72221	0.25857	0.046
Mof_H 	H 	0.7023	0.716	0.2768	0.041
Mof_O 	O 	0.8974	0.7422	0.3464	-0.466
Mof_N 	N 	0.857	0.6408	0.3149	-0.075
Mof_C 	C 	0.9104	0.7935	0.3067	0.053
Mof_H 	H 	0.8924	0.7807	0.3025	0.044
Mof_O 	O 	0.9395	0.7531	0.3779	-0.312
Mof_C 	C 	0.9301	0.787	0.3322	-0.11
Mof_C 	C 	0.9225	0.7585	0.3539	0.356
Mof_Zn	Zn	0.79612	0.12758	0.78351	1.198
Mof_O 	O 	0.77326	0.15817	0.75606	-0.465
Mof_N 	N 	0.81894	0.09918	0.75189	-0.261
Mof_N 	N 	0.82683	0.1526	0.8107	-0.271
Mof_N 	N 	0.84618	0.06164	0.7263	-0.268
Mof_C 	C 	0.741	0.20477	0.74873	-0.106
Mof_O 	O 	0.74365	0.17434	0.79767	-0.344
Mof_C 	C 	0.75241	0.17656	0.7695	0.345
Mof_C 	C 	0.84604	0.08275	0.75086	0.22
Mof_C 	C 	0.826	0.17797	0.831	0.24
Mof_N 	N 	0.8009	0.088	0.727	-0.06
Mof_N 	N 	0.8013	0.1987	0.8331	-0.368
Mof_H 	H 	0.8036	0.2164	0.8437	0.187
Mof_H 	H 	0.7832	0.1943	0.8239	0.175
Mof_N 	N 	0.8699	0.0845	0.7736	-0.355
Mof_H 	H 	0.8677	0.097	0.79	0.16
Mof_H 	H 	0.8871	0.073	0.7715	0.176
Mof_N 	N 	0.85384	0.18327	0.8443	-0.263
Mof_N 	N 	0.8733	0.1592	0.8329	-0.065
Mof_N 	N 	0.8174	0.067	0.7115	-0.065
Mof_C 	C 	0.71396	0.22221	0.75857	0.046
Mof_H 	H 	0.7023	0.216	0.7768	0.041
Mof_O 	O 	0.8974	0.2422	0.8464	-0.466
Mof_N 	N 	0.857	0.1408	0.8149	-0.075
Mof_C 	C 	0.9104	0.2935	0.8067	0.053
Mof_H 	H 	0.8924	0.2807	0.8025	0.044
Mof_O 	O 	0.9395	0.2531	0.8779	-0.312
Mof_C 	C 	0.9301	0.287	0.8322	-0.11
Mof_C 	C 	0.9225	0.2585	0.8539	0.356
Mof_Zn	Zn	0.96649	0.29612	0.12242	1.198
Mof_O 	O 	0.99394	0.27326	0.09183	-0.465
Mof_N 	N 	0.99811	0.31894	0.15082	-0.261
Mof_N 	N 	0.9393	0.32683	0.0974	-0.271
Mof_N 	N 	0.0237	0.34618	0.18836	-0.268
Mof_C 	C 	0.00127	0.241	0.04523	-0.106
Mof_O 	O 	0.95233	0.24365	0.07566	-0.344
Mof_C 	C 	0.9805	0.25241	0.07344	0.345
Mof_C 	C 	0.99914	0.34604	0.16725	0.22
Mof_C 	C 	0.919	0.326	0.07203	0.24
Mof_N 	N 	0.023	0.3009	0.162	-0.06
Mof_N 	N 	0.9169	0.3013	0.0513	-0.368
Mof_H 	H 	0.9063	0.3036	0.0336	0.187
Mof_H 	H 	0.9261	0.2832	0.0557	0.175
Mof_N 	N 	0.9764	0.3699	0.1655	-0.355
Mof_H 	H 	0.96	0.3677	0.153	0.16
Mof_H 	H 	0.9785	0.3871	0.177	0.176
Mof_N 	N 	0.9057	0.35384	0.06673	-0.263
Mof_N 	N 	0.9171	0.3733	0.0908	-0.065
Mof_N 	N 	0.0385	0.3174	0.183	-0.065
Mof_C 	C 	0.99143	0.21396	0.02779	0.046
Mof_H 	H 	0.9732	0.2023	0.034	0.041
Mof_O 	O 	0.9036	0.3974	0.0078	-0.466
Mof_N 	N 	0.9351	0.357	0.1092	-0.075
Mof_C 	C 	0.9433	0.4104	0.9565	0.053
Mof_H 	H 	0.9475	0.3924	0.9693	0.044
Mof_O 	O 	0.8721	0.4395	0.9969	-0.312
Mof_C 	C 	0.9178	0.4301	0.963	-0.11
Mof_C 	C 	0.8961	0.4225	0.9915	0.356
Mof_Zn	Zn	0.96649	0.79612	0.62242	1.198
Mof_O 	O 	0.99394	0.77326	0.59183	-0.465
Mof_N 	N 	0.99811	0.81894	0.65082	-0.261
Mof_N 	N 	0.9393	0.82683	0.5974	-0.271
Mof_N 	N 	0.0237	0.84618	0.68836	-0.268
Mof_C 	C 	0.00127	0.741	0.54523	-0.106
Mof_O 	O 	0.95233	0.74365	0.57566	-0.344
Mof_C 	C 	0.9805	0.75241	0.57344	0.345
Mof_C 	C 	0.99914	0.84604	0.66725	0.22
Mof_C 	C 	0.919	0.826	0.57203	0.24
Mof_N 	N 	0.023	0.8009	0.662	-0.06
Mof_N 	N 	0.9169	0.8013	0.5513	-0.368
Mof_H 	H 	0.9063	0.8036	0.5336	0.187
Mof_H 	H 	0.9261	0.7832	0.5557	0.175
Mof_N 	N 	0.9764	0.8699	0.6655	-0.355
Mof_H 	H 	0.96	0.8677	0.653	0.16
Mof_H 	H 	0.9785	0.8871	0.677	0.176
Mof_N 	N 	0.9057	0.85384	0.56673	-0.263
Mof_N 	N 	0.9171	0.8733	0.5908	-0.065
Mof_N 	N 	0.0385	0.8174	0.683	-0.065
Mof_C 	C 	0.99143	0.71396	0.52779	0.046
Mof_H 	H 	0.9732	0.7023	0.534	0.041
Mof_O 	O 	0.9036	0.8974	0.5078	-0.466
Mof_N 	N 	0.9351	0.857	0.6092	-0.075
Mof_C 	C 	0.9433	0.9104	0.4565	0.053
Mof_H 	H 	0.9475	0.8924	0.4693	0.044
Mof_O 	O 	0.8721	0.9395	0.4969	-0.312
Mof_C 	C 	0.9178	0.9301	0.463	-0.11
Mof_C 	C 	0.8961	0.9225	0.4915	0.356
Mof_Zn	Zn	0.46649	0.29612	0.62242	1.198
Mof_O 	O 	0.49394	0.27326	0.59183	-0.465
Mof_N 	N 	0.49811	0.31894	0.65082	-0.261
Mof_N 	N 	0.4393	0.32683	0.5974	-0.271
Mof_N 	N 	0.5237	0.34618	0.68836	-0.268
Mof_C 	C 	0.50127	0.241	0.54523	-0.106
Mof_O 	O 	0.45233	0.24365	0.57566	-0.344
Mof_C 	C 	0.4805	0.25241	0.57344	0.345
Mof_C 	C 	0.49914	0.34604	0.66725	0.22
Mof_C 	C 	0.419	0.326	0.57203	0.24
Mof_N 	N 	0.523	0.3009	0.662	-0.06
Mof_N 	N 	0.4169	0.3013	0.5513	-0.368
Mof_H 	H 	0.4063	0.3036	0.5336	0.187
Mof_H 	H 	0.4261	0.2832	0.5557	0.175
Mof_N 	N 	0.4764	0.3699	0.6655	-0.355
Mof_H 	H 	0.46	0.3677	0.653	0.16
Mof_H 	H 	0.4785	0.3871	0.677	0.176
Mof_N 	N 	0.4057	0.35384	0.56673	-0.263
Mof_N 	N 	0.4171	0.3733	0.5908	-0.065
Mof_N 	N 	0.5385	0.3174	0.683	-0.065
Mof_C 	C 	0.49143	0.21396	0.52779	0.046
Mof_H 	H 	0.4732	0.2023	0.534	0.041
Mof_O 	O 	0.4036	0.3974	0.5078	-0.466
Mof_N 	N 	0.4351	0.357	0.6092	-0.075
Mof_C 	C 	0.4433	0.4104	0.4565	0.053
Mof_H 	H 	0.4475	0.3924	0.4693	0.044
Mof_O 	O 	0.3721	0.4395	0.4969	-0.312
Mof_C 	C 	0.4178	0.4301	0.463	-0.11
Mof_C 	C 	0.3961	0.4225	0.4915	0.356
Mof_Zn	Zn	0.46649	0.79612	0.12242	1.198
Mof_O 	O 	0.49394	0.77326	0.09183	-0.465
Mof_N 	N 	0.49811	0.81894	0.15082	-0.261
Mof_N 	N 	0.4393	0.82683	0.0974	-0.271
Mof_N 	N 	0.5237	0.84618	0.18836	-0.268
Mof_C 	C 	0.50127	0.741	0.04523	-0.106
Mof_O 	O 	0.45233	0.74365	0.07566	-0.344
Mof_C 	C 	0.4805	0.75241	0.07344	0.345
Mof_C 	C 	0.49914	0.84604	0.16725	0.22
Mof_C 	C 	0.419	0.826	0.07203	0.24
Mof_N 	N 	0.523	0.8009	0.162	-0.06
Mof_N 	N 	0.4169	0.8013	0.0513	-0.368
Mof_H 	H 	0.4063	0.8036	0.0336	0.187
Mof_H 	H 	0.4261	0.7832	0.0557	0.175
Mof_N 	N 	0.4764	0.8699	0.1655	-0.355
Mof_H 	H 	0.46	0.8677	0.153	0.16
Mof_H 	H 	0.4785	0.8871	0.177	0.176
Mof_N 	N 	0.4057	0.85384	0.06673	-0.263
Mof_N 	N 	0.4171	0.8733	0.0908	-0.065
Mof_N 	N 	0.5385	0.8174	0.183	-0.065
Mof_C 	C 	0.49143	0.71396	0.02779	0.046
Mof_H 	H 	0.4732	0.7023	0.034	0.041
Mof_O 	O 	0.4036	0.8974	0.0078	-0.466
Mof_N 	N 	0.4351	0.857	0.1092	-0.075
Mof_C 	C 	0.4433	0.9104	0.9565	0.053
Mof_H 	H 	0.4475	0.8924	0.9693	0.044
Mof_O 	O 	0.3721	0.9395	0.9969	-0.312
Mof_C 	C 	0.4178	0.9301	0.963	-0.11
Mof_C 	C 	0.3961	0.9225	0.9915	0.356
Mof_Zn	Zn	0.96649	0.45388	0.62758	1.198
Mof_O 	O 	0.99394	0.47674	0.65817	-0.465
Mof_N 	N 	0.99811	0.43106	0.59918	-0.261
Mof_N 	N 	0.9393	0.42317	0.6526	-0.271
Mof_N 	N 	0.0237	0.40382	0.56164	-0.268
Mof_C 	C 	0.00127	0.509	0.70477	-0.106
Mof_O 	O 	0.95233	0.50635	0.67434	-0.344
Mof_C 	C 	0.9805	0.49759	0.67656	0.345
Mof_C 	C 	0.99914	0.40396	0.58275	0.22
Mof_C 	C 	0.919	0.424	0.67797	0.24
Mof_N 	N 	0.023	0.4491	0.588	-0.06
Mof_N 	N 	0.9169	0.4487	0.6987	-0.368
Mof_H 	H 	0.9063	0.4464	0.7164	0.187
Mof_H 	H 	0.9261	0.4668	0.6943	0.175
Mof_N 	N 	0.9764	0.3801	0.5845	-0.355
Mof_H 	H 	0.96	0.3823	0.597	0.16
Mof_H 	H 	0.9785	0.3629	0.573	0.176
Mof_N 	N 	0.9057	0.39616	0.68327	-0.263
Mof_N 	N 	0.9171	0.3767	0.6592	-0.065
Mof_N 	N 	0.0385	0.4326	0.567	-0.065
Mof_C 	C 	0.99143	0.53604	0.72221	0.046
Mof_H 	H 	0.9732	0.5477	0.716	0.041
Mof_O 	O 	0.9036	0.3526	0.7422	-0.466
Mof_N 	N 	0.9351	0.393	0.6408	-0.075
Mof_C 	C 	0.9433	0.3396	0.7935	0.053
Mof_H 	H 	0.9475	0.3576	0.7807	0.044
Mof_O 	O 	0.8721	0.3105	0.7531	-0.312
Mof_C 	C 	0.9178	0.3199	0.787	-0.11
Mof_C 	C 	0.8961	0.3275	0.7585	0.356
Mof_Zn	Zn	0.96649	0.95388	0.12758	1.198
Mof_O 	O 	0.99394	0.97674	0.15817	-0.465
Mof_N 	N 	0.99811	0.93106	0.09918	-0.261
Mof_N 	N 	0.9393	0.92317	0.1526	-0.271
Mof_N 	N 	0.0237	0.90382	0.06164	-0.268
Mof_C 	C 	0.00127	0.009	0.20477	-0.106
Mof_O 	O 	0.95233	0.00635	0.17434	-0.344
Mof_C 	C 	0.9805	0.99759	0.17656	0.345
Mof_C 	C 	0.99914	0.90396	0.08275	0.22
Mof_C 	C 	0.919	0.924	0.17797	0.24
Mof_N 	N 	0.023	0.9491	0.088	-0.06
Mof_N 	N 	0.9169	0.9487	0.1987	-0.368
Mof_H 	H 	0.9063	0.9464	0.2164	0.187
Mof_H 	H 	0.9261	0.9668	0.1943	0.175
Mof_N 	N 	0.9764	0.8801	0.0845	-0.355
Mof_H 	H 	0.96	0.8823	0.097	0.16
Mof_H 	H 	0.9785	0.8629	0.073	0.176
Mof_N 	N 	0.9057	0.89616	0.18327	-0.263
Mof_N 	N 	0.9171	0.8767	0.1592	-0.065
Mof_N 	N 	0.0385	0.9326	0.067	-0.065
Mof_C 	C 	0.99143	0.03604	0.22221	0.046
Mof_H 	H 	0.9732	0.0477	0.216	0.041
Mof_O 	O 	0.9036	0.8526	0.2422	-0.466
Mof_N 	N 	0.9351	0.893	0.1408	-0.075
Mof_C 	C 	0.9433	0.8396	0.2935	0.053
Mof_H 	H 	0.9475	0.8576	0.2807	0.044
Mof_O 	O 	0.8721	0.8105	0.2531	-0.312
Mof_C 	C 	0.9178	0.8199	0.287	-0.11
Mof_C 	C 	0.8961	0.8275	0.2585	0.356
Mof_Zn	Zn	0.46649	0.45388	0.12758	1.198
Mof_O 	O 	0.49394	0.47674	0.15817	-0.465
Mof_N 	N 	0.49811	0.43106	0.09918	-0.261
Mof_N 	N 	0.4393	0.42317	0.1526	-0.271
Mof_N 	N 	0.5237	0.40382	0.06164	-0.268
Mof_C 	C 	0.50127	0.509	0.20477	-0.106
Mof_O 	O 	0.45233	0.50635	0.17434	-0.344
Mof_C 	C 	0.4805	0.49759	0.17656	0.345
Mof_C 	C 	0.49914	0.40396	0.08275	0.22
Mof_C 	C 	0.419	0.424	0.17797	0.24
Mof_N 	N 	0.523	0.4491	0.088	-0.06
Mof_N 	N 	0.4169	0.4487	0.1987	-0.368
Mof_H 	H 	0.4063	0.4464	0.2164	0.187
Mof_H 	H 	0.4261	0.4668	0.1943	0.175
Mof_N 	N 	0.4764	0.3801	0.0845	-0.355
Mof_H 	H 	0.46	0.3823	0.097	0.16
Mof_H 	H 	0.4785	0.3629	0.073	0.176
Mof_N 	N 	0.4057	0.39616	0.18327	-0.263
Mof_N 	N 	0.4171	0.3767	0.1592	-0.065
Mof_N 	N 	0.5385	0.4326	0.067	-0.065
Mof_C 	C 	0.49143	0.53604	0.22221	0.046
Mof_H 	H 	0.4732	0.5477	0.216	0.041
Mof_O 	O 	0.4036	0.3526	0.2422	-0.466
Mof_N 	N 	0.4351	0.393	0.1408	-0.075
Mof_C 	C 	0.4433	0.3396	0.2935	0.053
Mof_H 	H 	0.4475	0.3576	0.2807	0.044
Mof_O 	O 	0.3721	0.3105	0.2531	-0.312
Mof_C 	C 	0.4178	0.3199	0.287	-0.11
Mof_C 	C 	0.3961	0.3275	0.2585	0.356
Mof_Zn	Zn	0.46649	0.95388	0.62758	1.198
Mof_O 	O 	0.49394	0.97674	0.65817	-0.465
Mof_N 	N 	0.49811	0.93106	0.59918	-0.261
Mof_N 	N 	0.4393	0.92317	0.6526	-0.271
Mof_N 	N 	0.5237	0.90382	0.56164	-0.268
Mof_C 	C 	0.50127	0.009	0.70477	-0.106
Mof_O 	O 	0.45233	0.00635	0.67434	-0.344
Mof_C 	C 	0.4805	0.99759	0.67656	0.345
Mof_C 	C 	0.49914	0.90396	0.58275	0.22
Mof_C 	C 	0.419	0.924	0.67797	0.24
Mof_N 	N 	0.523	0.9491	0.588	-0.06
Mof_N 	N 	0.4169	0.9487	0.6987	-0.368
Mof_H 	H 	0.4063	0.9464	0.7164	0.187
Mof_H 	H 	0.4261	0.9668	0.6943	0.175
Mof_N 	N 	0.4764	0.8801	0.5845	-0.355
Mof_H 	H 	0.46	0.8823	0.597	0.16
Mof_H 	H 	0.4785	0.8629	0.573	0.176
Mof_N 	N 	0.4057	0.89616	0.68327	-0.263
Mof_N 	N 	0.4171	0.8767	0.6592	-0.065
Mof_N 	N 	0.5385	0.9326	0.567	-0.065
Mof_C 	C 	0.49143	0.03604	0.72221	0.046
Mof_H 	H 	0.4732	0.0477	0.716	0.041
Mof_O 	O 	0.4036	0.8526	0.7422	-0.466
Mof_N 	N 	0.4351	0.893	0.6408	-0.075
Mof_C 	C 	0.4433	0.8396	0.7935	0.053
Mof_H 	H 	0.4475	0.8576	0.7807	0.044
Mof_O 	O 	0.3721	0.8105	0.7531	-0.312
Mof_C 	C 	0.4178	0.8199	0.787	-0.11
Mof_C 	C 	0.3961	0.8275	0.7585	0.356
Mof_Zn	Zn	0.78351	0.45388	0.12242	1.198
Mof_O 	O 	0.75606	0.47674	0.09183	-0.465
Mof_N 	N 	0.75189	0.43106	0.15082	-0.261
Mof_N 	N 	0.8107	0.42317	0.0974	-0.271
Mof_N 	N 	0.7263	0.40382	0.18836	-0.268
Mof_C 	C 	0.74873	0.509	0.04523	-0.106
Mof_O 	O 	0.79767	0.50635	0.07566	-0.344
Mof_C 	C 	0.7695	0.49759	0.07344	0.345
Mof_C 	C 	0.75086	0.40396	0.16725	0.22
Mof_C 	C 	0.831	0.424	0.07203	0.24
Mof_N 	N 	0.727	0.4491	0.162	-0.06
Mof_N 	N 	0.8331	0.4487	0.0513	-0.368
Mof_H 	H 	0.8437	0.4464	0.0336	0.187
Mof_H 	H 	0.8239	0.4668	0.0557	0.175
Mof_N 	N 	0.7736	0.3801	0.1655	-0.355
Mof_H 	H 	0.79	0.3823	0.153	0.16
Mof_H 	H 	0.7715	0.3629	0.177	0.176
Mof_N 	N 	0.8443	0.39616	0.06673	-0.263
Mof_N 	N 	0.8329	0.3767	0.0908	-0.065
Mof_N 	N 	0.7115	0.4326	0.183	-0.065
Mof_C 	C 	0.75857	0.53604	0.02779	0.046
Mof_H 	H 	0.7768	0.5477	0.034	0.041
Mof_O 	O 	0.8464	0.3526	0.0078	-0.466
Mof_N 	N 	0.8149	0.393	0.1092	-0.075
Mof_C 	C 	0.8067	0.3396	0.9565	0.053
Mof_H 	H 	0.8025	0.3576	0.9693	0.044
Mof_O 	O 	0.8779	0.3105	0.9969	-0.312
Mof_C 	C 	0.8322	0.3199	0.963	-0.11
Mof_C 	C 	0.8539	0.3275	0.9915	0.356
Mof_Zn	Zn	0.78351	0.95388	0.62242	1.198
Mof_O 	O 	0.75606	0.97674	0.59183	-0.465
Mof_N 	N 	0.75189	0.93106	0.65082	-0.261
Mof_N 	N 	0.8107	0.92317	0.5974	-0.271
Mof_N 	N 	0.7263	0.90382	0.68836	-0.268
Mof_C 	C 	0.74873	0.009	0.54523	-0.106
Mof_O 	O 	0.79767	0.00635	0.57566	-0.344
Mof_C 	C 	0.7695	0.99759	0.57344	0.345
Mof_C 	C 	0.75086	0.90396	0.66725	0.22
Mof_C 	C 	0.831	0.924	0.57203	0.24
Mof_N 	N 	0.727	0.9491	0.662	-0.06
Mof_N 	N 	0.8331	0.9487	0.5513	-0.368
Mof_H 	H 	0.8437	0.9464	0.5336	0.187
Mof_H 	H 	0.8239	0.9668	0.5557	0.175
Mof_N 	N 	0.7736	0.8801	0.6655	-0.355
Mof_H 	H 	0.79	0.8823	0.653	0.16
Mof_H 	H 	0.7715	0.8629	0.677	0.176
Mof_N 	N 	0.8443	0.89616	0.56673	-0.263
Mof_N 	N 	0.8329	0.8767	0.5908	-0.065
Mof_N 	N 	0.7115	0.9326	0.683	-0.065
Mof_C 	C 	0.75857	0.03604	0.52779	0.046
Mof_H 	H 	0.7768	0.0477	0.534	0.041
Mof_O 	O 	0.8464	0.8526	0.5078	-0.466
Mof_N 	N 	0.8149	0.893	0.6092	-0.075
Mof_C 	C 	0.8067	0.8396	0.4565	0.053
Mof_H 	H 	0.8025	0.8576	0.4693	0.044
Mof_O 	O 	0.8779	0.8105	0.4969	-0.312
Mof_C 	C 	0.8322	0.8199	0.463	-0.11
Mof_C 	C 	0.8539	0.8275	0.4915	0.356
Mof_Zn	Zn	0.28351	0.45388	0.62242	1.198
Mof_O 	O 	0.25606	0.47674	0.59183	-0.465
Mof_N 	N 	0.25189	0.43106	0.65082	-0.261
Mof_N 	N 	0.3107	0.42317	0.5974	-0.271
Mof_N 	N 	0.2263	0.40382	0.68836	-0.268
Mof_C 	C 	0.24873	0.509	0.54523	-0.106
Mof_O 	O 	0.29767	0.50635	0.57566	-0.344
Mof_C 	C 	0.2695	0.49759	0.57344	0.345
Mof_C 	C 	0.25086	0.40396	0.66725	0.22
Mof_C 	C 	0.331	0.424	0.57203	0.24
Mof_N 	N 	0.227	0.4491	0.662	-0.06
Mof_N 	N 	0.3331	0.4487	0.5513	-0.368
Mof_H 	H 	0.3437	0.4464	0.5336	0.187
Mof_H 	H 	0.3239	0.4668	0.5557	0.175
Mof_N 	N 	0.2736	0.3801	0.6655	-0.355
Mof_H 	H 	0.29	0.3823	0.653	0.16
Mof_H 	H 	0.2715	0.3629	0.677	0.176
Mof_N 	N 	0.3443	0.39616	0.56673	-0.263
Mof_N 	N 	0.3329	0.3767	0.5908	-0.065
Mof_N 	N 	0.2115	0.4326	0.683	-0.065
Mof_C 	C 	0.25857	0.53604	0.52779	0.046
Mof_H 	H 	0.2768	0.5477	0.534	0.041
Mof_O 	O 	0.3464	0.3526	0.5078	-0.466
Mof_N 	N 	0.3149	0.393	0.6092	-0.075
Mof_C 	C 	0.3067	0.3396	0.4565	0.053
Mof_H 	H 	0.3025	0.3576	0.4693	0.044
Mof_O 	O 	0.3779	0.3105	0.4969	-0.312
Mof_C 	C 	0.3322	0.3199	0.463	-0.11
Mof_C 	C 	0.3539	0.3275	0.4915	0.356
Mof_Zn	Zn	0.28351	0.95388	0.12242	1.198
Mof_O 	O 	0.25606	0.97674	0.09183	-0.465
Mof_N 	N 	0.25189	0.93106	0.15082	-0.261
Mof_N 	N 	0.3107	0.92317	0.0974	-0.271
Mof_N 	N 	0.2263	0.90382	0.18836	-0.268
Mof_C 	C 	0.24873	0.009	0.04523	-0.106
Mof_O 	O 	0.29767	0.00635	0.07566	-0.344
Mof_C 	C 	0.2695	0.99759	0.07344	0.345
Mof_C 	C 	0.25086	0.90396	0.16725	0.22
Mof_C 	C 	0.331	0.924	0.07203	0.24
Mof_N 	N 	0.227	0.9491	0.162	-0.06
Mof_N 	N 	0.3331	0.9487	0.0513	-0.368
Mof_H 	H 	0.3437	0.9464	0.0336	0.187
Mof_H 	H 	0.3239	0.9668	0.0557	0.175
Mof_N 	N 	0.2736	0.8801	0.1655	-0.355
Mof_H 	H 	0.29	0.8823	0.153	0.16
Mof_H 	H 	0.2715	0.8629	0.177	0.176
Mof_N 	N 	0.3443	0.89616	0.06673	-0.263
Mof_N 	N 	0.3329	0.8767	0.0908	-0.065
Mof_N 	N 	0.2115	0.9326	0.183	-0.065
Mof_C 	C 	0.25857	0.03604	0.02779	0.046
Mof_H 	H 	0.2768	0.0477	0.034	0.041
Mof_O 	O 	0.3464	0.8526	0.0078	-0.466
Mof_N 	N 	0.3149	0.893	0.1092	-0.075
Mof_C 	C 	0.3067	0.8396	0.9565	0.053
Mof_H 	H 	0.3025	0.8576	0.9693	0.044
Mof_O 	O 	0.3779	0.8105	0.9969	-0.312
Mof_C 	C 	0.3322	0.8199	0.963	-0.11
Mof_C 	C 	0.3539	0.8275	0.9915	0.356
Mof_Zn	Zn	0.78351	0.29612	0.62758	1.198
Mof_O 	O 	0.75606	0.27326	0.65817	-0.465
Mof_N 	N 	0.75189	0.31894	0.59918	-0.261
Mof_N 	N 	0.8107	0.32683	0.6526	-0.271
Mof_N 	N 	0.7263	0.34618	0.56164	-0.268
Mof_C 	C 	0.74873	0.241	0.70477	-0.106
Mof_O 	O 	0.79767	0.24365	0.67434	-0.344
Mof_C 	C 	0.7695	0.25241	0.67656	0.345
Mof_C 	C 	0.75086	0.34604	0.58275	0.22
Mof_C 	C 	0.831	0.326	0.67797	0.24
Mof_N 	N 	0.727	0.3009	0.588	-0.06
Mof_N 	N 	0.8331	0.3013	0.6987	-0.368
Mof_H 	H 	0.8437	0.3036	0.7164	0.187
Mof_H 	H 	0.8239	0.2832	0.6943	0.175
Mof_N 	N 	0.7736	0.3699	0.5845	-0.355
Mof_H 	H 	0.79	0.3677	0.597	0.16
Mof_H 	H 	0.7715	0.3871	0.573	0.176
Mof_N 	N 	0.8443	0.35384	0.68327	-0.263
Mof_N 	N 	0.8329	0.3733	0.6592	-0.065
Mof_N 	N 	0.7115	0.3174	0.567	-0.065
Mof_C 	C 	0.75857	0.21396	0.72221	0.046
Mof_H 	H 	0.7768	0.2023	0.716	0.041
Mof_O 	O 	0.8464	0.3974	0.7422	-0.466
Mof_N 	N 	0.8149	0.357	0.6408	-0.075
Mof_C 	C 	0.8067	0.4104	0.7935	0.053
Mof_H 	H 	0.8025	0.3924	0.7807	0.044
Mof_O 	O 	0.8779	0.4395	0.7531	-0.312
Mof_C 	C 	0.8322	0.4301	0.787	-0.11
Mof_C 	C 	0.8539	0.4225	0.7585	0.356
Mof_Zn	Zn	0.78351	0.79612	0.12758	1.198
Mof_O 	O 	0.75606	0.77326	0.15817	-0.465
Mof_N 	N 	0.75189	0.81894	0.09918	-0.261
Mof_N 	N 	0.8107	0.82683	0.1526	-0.271
Mof_N 	N 	0.7263	0.84618	0.06164	-0.268
Mof_C 	C 	0.74873	0.741	0.20477	-0.106
Mof_O 	O 	0.79767	0.74365	0.17434	-0.344
Mof_C 	C 	0.7695	0.75241	0.17656	0.345
Mof_C 	C 	0.75086	0.84604	0.08275	0.22
Mof_C 	C 	0.831	0.826	0.17797	0.24
Mof_N 	N 	0.727	0.8009	0.088	-0.06
Mof_N 	N 	0.8331	0.8013	0.1987	-0.368
Mof_H 	H 	0.8437	0.8036	0.2164	0.187
Mof_H 	H 	0.8239	0.7832	0.1943	0.175
Mof_N 	N 	0.7736	0.8699	0.0845	-0.355
Mof_H 	H 	0.79	0.8677	0.097	0.16
Mof_H 	H 	0.7715	0.8871	0.073	0.176
Mof_N 	N 	0.8443	0.85384	0.18327	-0.263
Mof_N 	N 	0.8329	0.8733	0.1592	-0.065
Mof_N 	N 	0.7115	0.8174	0.067	-0.065
Mof_C 	C 	0.75857	0.71396	0.22221	0.046
Mof_H 	H 	0.7768	0.7023	0.216	0.041
Mof_O 	O 	0.8464	0.8974	0.2422	-0.466
Mof_N 	N 	0.8149	0.857	0.1408	-0.075
Mof_C 	C 	0.8067	0.9104	0.2935	0.053
Mof_H 	H 	0.8025	0.8924	0.2807	0.044
Mof_O 	O 	0.8779	0.9395	0.2531	-0.312
Mof_C 	C 	0.8322	0.9301	0.287	-0.11
Mof_C 	C 	0.8539	0.9225	0.2585	0.356
Mof_Zn	Zn	0.28351	0.29612	0.12758	1.198
Mof_O 	O 	0.25606	0.27326	0.15817	-0.465
Mof_N 	N 	0.25189	0.31894	0.09918	-0.261
Mof_N 	N 	0.3107	0.32683	0.1526	-0.271
Mof_N 	N 	0.2263	0.34618	0.06164	-0.268
Mof_C 	C 	0.24873	0.241	0.20477	-0.106
Mof_O 	O 	0.29767	0.24365	0.17434	-0.344
Mof_C 	C 	0.2695	0.25241	0.17656	0.345
Mof_C 	C 	0.25086	0.34604	0.08275	0.22
Mof_C 	C 	0.331	0.326	0.17797	0.24
Mof_N 	N 	0.227	0.3009	0.088	-0.06
Mof_N 	N 	0.3331	0.3013	0.1987	-0.368
Mof_H 	H 	0.3437	0.3036	0.2164	0.187
Mof_H 	H 	0.3239	0.2832	0.1943	0.175
Mof_N 	N 	0.2736	0.3699	0.0845	-0.355
Mof_H 	H 	0.29	0.3677	0.097	0.16
Mof_H 	H 	0.2715	0.3871	0.073	0.176
Mof_N 	N 	0.3443	0.35384	0.18327	-0.263
Mof_N 	N 	0.3329	0.3733	0.1592	-0.065
Mof_N 	N 	0.2115	0.3174	0.067	-0.065
Mof_C 	C 	0.25857	0.21396	0.22221	0.046
Mof_H 	H 	0.2768	0.2023	0.216	0.041
Mof_O 	O 	0.3464	0.3974	0.2422	-0.466
Mof_N 	N 	0.3149	0.357	0.1408	-0.075
Mof_C 	C 	0.3067	0.4104	0.2935	0.053
Mof_H 	H 	0.3025	0.3924	0.2807	0.044
Mof_O 	O 	0.3779	0.4395	0.2531	-0.312
Mof_C 	C 	0.3322	0.4301	0.287	-0.11
Mof_C 	C 	0.3539	0.4225	0.2585	0.356
Mof_Zn	Zn	0.28351	0.79612	0.62758	1.198
Mof_O 	O 	0.25606	0.77326	0.65817	-0.465
Mof_N 	N 	0.25189	0.81894	0.59918	-0.261
Mof_N 	N 	0.3107	0.82683	0.6526	-0.271
Mof_N 	N 	0.2263	0.84618	0.56164	-0.268
Mof_C 	C 	0.24873	0.741	0.70477	-0.106
Mof_O 	O 	0.29767	0.74365	0.67434	-0.344
Mof_C 	C 	0.2695	0.75241	0.67656	0.345
Mof_C 	C 	0.25086	0.84604	0.58275	0.22
Mof_C 	C 	0.331	0.826	0.67797	0.24
Mof_N 	N 	0.227	0.8009	0.588	-0.06
Mof_N 	N 	0.3331	0.8013	0.6987	-0.368
Mof_H 	H 	0.3437	0.8036	0.7164	0.187
Mof_H 	H 	0.3239	0.7832	0.6943	0.175
Mof_N 	N 	0.2736	0.8699	0.5845	-0.355
Mof_H 	H 	0.29	0.8677	0.597	0.16
Mof_H 	H 	0.2715	0.8871	0.573	0.176
Mof_N 	N 	0.3443	0.85384	0.68327	-0.263
Mof_N 	N 	0.3329	0.8733	0.6592	-0.065
Mof_N 	N 	0.2115	0.8174	0.567	-0.065
Mof_C 	C 	0.25857	0.71396	0.72221	0.046
Mof_H 	H 	0.2768	0.7023	0.716	0.041
Mof_O 	O 	0.3464	0.8974	0.7422	-0.466
Mof_N 	N 	0.3149	0.857	0.6408	-0.075
Mof_C 	C 	0.3067	0.9104	0.7935	0.053
Mof_H 	H 	0.3025	0.8924	0.7807	0.044
Mof_O 	O 	0.3779	0.9395	0.7531	-0.312
Mof_C 	C 	0.3322	0.9301	0.787	-0.11
Mof_C 	C 	0.3539	0.9225	0.7585	0.356
Mof_Zn	Zn	0.12242	0.96649	0.29612	1.198
Mof_O 	O 	0.09183	0.99394	0.27326	-0.465
Mof_N 	N 	0.15082	0.99811	0.31894	-0.261
Mof_N 	N 	0.0974	0.9393	0.32683	-0.271
Mof_N 	N 	0.18836	0.0237	0.34618	-0.268
Mof_C 	C 	0.04523	0.00127	0.241	-0.106
Mof_O 	O 	0.07566	0.95233	0.24365	-0.344
Mof_C 	C 	0.07344	0.9805	0.25241	0.345
Mof_C 	C 	0.16725	0.99914	0.34604	0.22
Mof_C 	C 	0.07203	0.919	0.326	0.24
Mof_N 	N 	0.162	0.023	0.3009	-0.06
Mof_N 	N 	0.0513	0.9169	0.3013	-0.368
Mof_H 	H 	0.0336	0.9063	0.3036	0.187
Mof_H 	H 	0.0557	0.9261	0.2832	0.175
Mof_N 	N 	0.1655	0.9764	0.3699	-0.355
Mof_H 	H 	0.153	0.96	0.3677	0.16
Mof_H 	H 	0.177	0.9785	0.3871	0.176
Mof_N 	N 	0.06673	0.9057	0.35384	-0.263
Mof_N 	N 	0.0908	0.9171	0.3733	-0.065
Mof_N 	N 	0.183	0.0385	0.3174	-0.065
Mof_C 	C 	0.02779	0.99143	0.21396	0.046
Mof_H 	H 	0.034	0.9732	0.2023	0.041
Mof_O 	O 	0.0078	0.9036	0.3974	-0.466
Mof_N 	N 	0.1092	0.9351	0.357	-0.075
Mof_C 	C 	0.9565	0.9433	0.4104	0.053
Mof_H 	H 	0.9693	0.9475	0.3924	0.044
Mof_O 	O 	0.9969	0.8721	0.4395	-0.312
Mof_C 	C 	0.963	0.9178	0.4301	-0.11
Mof_C 	C 	0.9915	0.8961	0.4225	0.356
Mof_Zn	Zn	0.12242	0.46649	0.79612	1.198
Mof_O 	O 	0.09183	0.49394	0.77326	-0.465
Mof_N 	N 	0.15082	0.49811	0.81894	-0.261
Mof_N 	N 	0.0974	0.4393	0.82683	-0.271
Mof_N 	N 	0.18836	0.5237	0.84618	-0.268
Mof_C 	C 	0.04523	0.50127	0.741	-0.106
Mof_O 	O 	0.07566	0.45233	0.74365	-0.344
Mof_C 	C 	0.07344	0.4805	0.75241	0.345
Mof_C 	C 	0.16725	0.49914	0.84604	0.22
Mof_C 	C 	0.07203	0.419	0.826	0.24
Mof_N 	N 	0.162	0.523	0.8009	-0.06
Mof_N 	N 	0.0513	0.4169	0.8013	-0.368
Mof_H 	H 	0.0336	0.4063	0.8036	0.187
Mof_H 	H 	0.0557	0.4261	0.7832	0.175
Mof_N 	N 	0.1655	0.4764	0.8699	-0.355
Mof_H 	H 	0.153	0.46	0.8677	0.16
Mof_H 	H 	0.177	0.4785	0.8871	0.176
Mof_N 	N 	0.06673	0.4057	0.85384	-0.263
Mof_N 	N 	0.0908	0.4171	0.8733	-0.065
Mof_N 	N 	0.183	0.5385	0.8174	-0.065
Mof_C 	C 	0.02779	0.49143	0.71396	0.046
Mof_H 	H 	0.034	0.4732	0.7023	0.041
Mof_O 	O 	0.0078	0.4036	0.8974	-0.466
Mof_N 	N 	0.1092	0.4351	0.857	-0.075
Mof_C 	C 	0.9565	0.4433	0.9104	0.053
Mof_H 	H 	0.9693	0.4475	0.8924	0.044
Mof_O 	O 	0.9969	0.3721	0.9395	-0.312
Mof_C 	C 	0.963	0.4178	0.9301	-0.11
Mof_C 	C 	0.9915	0.3961	0.9225	0.356
Mof_Zn	Zn	0.62242	0.96649	0.79612	1.198
Mof_O 	O 	0.59183	0.99394	0.77326	-0.465
Mof_N 	N 	0.65082	0.99811	0.81894	-0.261
Mof_N 	N 	0.5974	0.9393	0.82683	-0.271
Mof_N 	N 	0.68836	0.0237	0.84618	-0.268
Mof_C 	C 	0.54523	0.00127	0.741	-0.106
Mof_O 	O 	0.57566	0.95233	0.74365	-0.344
Mof_C 	C 	0.57344	0.9805	0.75241	0.345
Mof_C 	C 	0.66725	0.99914	0.84604	0.22
Mof_C 	C 	0.57203	0.919	0.826	0.24
Mof_N 	N 	0.662	0.023	0.8009	-0.06
Mof_N 	N 	0.5513	0.9169	0.8013	-0.368
Mof_H 	H 	0.5336	0.9063	0.8036	0.187
Mof_H 	H 	0.5557	0.9261	0.7832	0.175
Mof_N 	N 	0.6655	0.9764	0.8699	-0.355
Mof_H 	H 	0.653	0.96	0.8677	0.16
Mof_H 	H 	0.677	0.9785	0.8871	0.176
Mof_N 	N 	0.56673	0.9057	0.85384	-0.263
Mof_N 	N 	0.5908	0.9171	0.8733	-0.065
Mof_N 	N 	0.683	0.0385	0.8174	-0.065
Mof_C 	C 	0.52779	0.99143	0.71396	0.046
Mof_H 	H 	0.534	0.9732	0.7023	0.041
Mof_O 	O 	0.5078	0.9036	0.8974	-0.466
Mof_N 	N 	0.6092	0.9351	0.857	-0.075
Mof_C 	C 	0.4565	0.9433	0.9104	0.053
Mof_H 	H 	0.4693	0.9475	0.8924	0.044
Mof_O 	O 	0.4969	0.8721	0.9395	-0.312
Mof_C 	C 	0.463	0.9178	0.9301	-0.11
Mof_C 	C 	0.4915	0.8961	0.9225	0.356
Mof_Zn	Zn	0.62242	0.46649	0.29612	1.198
Mof_O 	O 	0.59183	0.49394	0.27326	-0.465
Mof_N 	N 	0.65082	0.49811	0.31894	-0.261
Mof_N 	N 	0.5974	0.4393	0.32683	-0.271
Mof_N 	N 	0.68836	0.5237	0.34618	-0.268
Mof_C 	C 	0.54523	0.50127	0.241	-0.106
Mof_O 	O 	0.57566	0.45233	0.24365	-0.344
Mof_C 	C 	0.57344	0.4805	0.25241	0.345
Mof_C 	C 	0.66725	0.49914	0.34604	0.22
Mof_C 	C 	0.57203	0.419	0.326	0.24
Mof_N 	N 	0.662	0.523	0.3009	-0.06
Mof_N 	N 	0.5513	0.4169	0.3013	-0.368
Mof_H 	H 	0.5336	0.4063	0.3036	0.187
Mof_H 	H 	0.5557	0.4261	0.2832	0.175
Mof_N 	N 	0.6655	0.4764	0.3699	-0.355
Mof_H 	H 	0.653	0.46	0.3677	0.16
Mof_H 	H 	0.677	0.4785	0.3871	0.176
Mof_N 	N 	0.56673	0.4057	0.35384	-0.263
Mof_N 	N 	0.5908	0.4171	0.3733	-0.065
Mof_N 	N 	0.683	0.5385	0.3174	-0.065
Mof_C 	C 	0.52779	0.49143	0.21396	0.046
Mof_H 	H 	0.534	0.4732	0.2023	0.041
Mof_O 	O 	0.5078	0.4036	0.3974	-0.466
Mof_N 	N 	0.6092	0.4351	0.357	-0.075
Mof_C 	C 	0.4565	0.4433	0.4104	0.053
Mof_H 	H 	0.4693	0.4475	0.3924	0.044
Mof_O 	O 	0.4969	0.3721	0.4395	-0.312
Mof_C 	C 	0.463	0.4178	0.4301	-0.11
Mof_C 	C 	0.4915	0.3961	0.4225	0.356
Mof_Zn	Zn	0.62758	0.96649	0.45388	1.198
Mof_O 	O 	0.65817	0.99394	0.47674	-0.465
Mof_N 	N 	0.59918	0.99811	0.43106	-0.261
Mof_N 	N 	0.6526	0.9393	0.42317	-0.271
Mof_N 	N 	0.56164	0.0237	0.40382	-0.268
Mof_C 	C 	0.70477	0.00127	0.509	-0.106
Mof_O 	O 	0.67434	0.95233	0.50635	-0.344
Mof_C 	C 	0.67656	0.9805	0.49759	0.345
Mof_C 	C 	0.58275	0.99914	0.40396	0.22
Mof_C 	C 	0.67797	0.919	0.424	0.24
Mof_N 	N 	0.588	0.023	0.4491	-0.06
Mof_N 	N 	0.6987	0.9169	0.4487	-0.368
Mof_H 	H 	0.7164	0.9063	0.4464	0.187
Mof_H 	H 	0.6943	0.9261	0.4668	0.175
Mof_N 	N 	0.5845	0.9764	0.3801	-0.355
Mof_H 	H 	0.597	0.96	0.3823	0.16
Mof_H 	H 	0.573	0.9785	0.3629	0.176
Mof_N 	N 	0.68327	0.9057	0.39616	-0.263
Mof_N 	N 	0.6592	0.9171	0.3767	-0.065
Mof_N 	N 	0.567	0.0385	0.4326	-0.065
Mof_C 	C 	0.72221	0.99143	0.53604	0.046
Mof_H 	H 	0.716	0.9732	0.5477	0.041
Mof_O 	O 	0.7422	0.9036	0.3526	-0.466
Mof_N 	N 	0.6408	0.9351	0.393	-0.075
Mof_C 	C 	0.7935	0.9433	0.3396	0.053
Mof_H 	H 	0.7807	0.9475	0.3576	0.044
Mof_O 	O 	0.7531	0.8721	0.3105	-0.312
Mof_C 	C 	0.787	0.9178	0.3199	-0.11
Mof_C 	C 	0.7585	0.8961	0.3275	0.356
Mof_Zn	Zn	0.62758	0.46649	0.95388	1.198
Mof_O 	O 	0.65817	0.49394	0.97674	-0.465
Mof_N 	N 	0.59918	0.49811	0.93106	-0.261
Mof_N 	N 	0.6526	0.4393	0.92317	-0.271
Mof_N 	N 	0.56164	0.5237	0.90382	-0.268
Mof_C 	C 	0.70477	0.50127	0.009	-0.106
Mof_O 	O 	0.67434	0.45233	0.00635	-0.344
Mof_C 	C 	0.67656	0.4805	0.99759	0.345
Mof_C 	C 	0.58275	0.49914	0.90396	0.22
Mof_C 	C 	0.67797	0.419	0.924	0.24
Mof_N 	N 	0.588	0.523	0.9491	-0.06
Mof_N 	N 	0.6987	0.4169	0.9487	-0.368
Mof_H 	H 	0.7164	0.4063	0.9464	0.187
Mof_H 	H 	0.6943	0.4261	0.9668	0.175
Mof_N 	N 	0.5845	0.4764	0.8801	-0.355
Mof_H 	H 	0.597	0.46	0.8823	0.16
Mof_H 	H 	0.573	0.4785	0.8629	0.176
Mof_N 	N 	0.68327	0.4057	0.89616	-0.263
Mof_N 	N 	0.6592	0.4171	0.8767	-0.065
Mof_N 	N 	0.567	0.5385	0.9326	-0.065
Mof_C 	C 	0.72221	0.49143	0.03604	0.046
Mof_H 	H 	0.716	0.4732	0.0477	0.041
Mof_O 	O 	0.7422	0.4036	0.8526	-0.466
Mof_N 	N 	0.6408	0.4351	0.893	-0.075
Mof_C 	C 	0.7935	0.4433	0.8396	0.053
Mof_H 	H 	0.7807	0.4475	0.8576	0.044
Mof_O 	O 	0.7531	0.3721	0.8105	-0.312
Mof_C 	C 	0.787	0.4178	0.8199	-0.11
Mof_C 	C 	0.7585	0.3961	0.8275	0.356
Mof_Zn	Zn	0.12758	0.96649	0.95388	1.198
Mof_O 	O 	0.15817	0.99394	0.97674	-0.465
Mof_N 	N 	0.09918	0.99811	0.93106	-0.261
Mof_N 	N 	0.1526	0.9393	0.92317	-0.271
Mof_N 	N 	0.06164	0.0237	0.90382	-0.268
Mof_C 	C 	0.20477	0.00127	0.009	-0.106
Mof_O 	O 	0.17434	0.95233	0.00635	-0.344
Mof_C 	C 	0.17656	0.9805	0.99759	0.345
Mof_C 	C 	0.08275	0.99914	0.90396	0.22
Mof_C 	C 	0.17797	0.919	0.924	0.24
Mof_N 	N 	0.088	0.023	0.9491	-0.06
Mof_N 	N 	0.1987	0.9169	0.9487	-0.368
Mof_H 	H 	0.2164	0.9063	0.9464	0.187
Mof_H 	H 	0.1943	0.9261	0.9668	0.175
Mof_N 	N 	0.0845	0.9764	0.8801	-0.355
Mof_H 	H 	0.097	0.96	0.8823	0.16
Mof_H 	H 	0.073	0.9785	0.8629	0.176
Mof_N 	N 	0.18327	0.9057	0.89616	-0.263
Mof_N 	N 	0.1592	0.9171	0.8767	-0.065
Mof_N 	N 	0.067	0.0385	0.9326	-0.065
Mof_C 	C 	0.22221	0.99143	0.03604	0.046
Mof_H 	H 	0.216	0.9732	0.0477	0.041
Mof_O 	O 	0.2422	0.9036	0.8526	-0.466
Mof_N 	N 	0.1408	0.9351	0.893	-0.075
Mof_C 	C 	0.2935	0.9433	0.8396	0.053
Mof_H 	H 	0.2807	0.9475	0.8576	0.044
Mof_O 	O 	0.2531	0.8721	0.8105	-0.312
Mof_C 	C 	0.287	0.9178	0.8199	-0.11
Mof_C 	C 	0.2585	0.8961	0.8275	0.356
Mof_Zn	Zn	0.12758	0.46649	0.45388	1.198
Mof_O 	O 	0.15817	0.49394	0.47674	-0.465
Mof_N 	N 	0.09918	0.49811	0.43106	-0.261
Mof_N 	N 	0.1526	0.4393	0.42317	-0.271
Mof_N 	N 	0.06164	0.5237	0.40382	-0.268
Mof_C 	C 	0.20477	0.50127	0.509	-0.106
Mof_O 	O 	0.17434	0.45233	0.50635	-0.344
Mof_C 	C 	0.17656	0.4805	0.49759	0.345
Mof_C 	C 	0.08275	0.49914	0.40396	0.22
Mof_C 	C 	0.17797	0.419	0.424	0.24
Mof_N 	N 	0.088	0.523	0.4491	-0.06
Mof_N 	N 	0.1987	0.4169	0.4487	-0.368
Mof_H 	H 	0.2164	0.4063	0.4464	0.187
Mof_H 	H 	0.1943	0.4261	0.4668	0.175
Mof_N 	N 	0.0845	0.4764	0.3801	-0.355
Mof_H 	H 	0.097	0.46	0.3823	0.16
Mof_H 	H 	0.073	0.4785	0.3629	0.176
Mof_N 	N 	0.18327	0.4057	0.39616	-0.263
Mof_N 	N 	0.1592	0.4171	0.3767	-0.065
Mof_N 	N 	0.067	0.5385	0.4326	-0.065
Mof_C 	C 	0.22221	0.49143	0.53604	0.046
Mof_H 	H 	0.216	0.4732	0.5477	0.041
Mof_O 	O 	0.2422	0.4036	0.3526	-0.466
Mof_N 	N 	0.1408	0.4351	0.393	-0.075
Mof_C 	C 	0.2935	0.4433	0.3396	0.053
Mof_H 	H 	0.2807	0.4475	0.3576	0.044
Mof_O 	O 	0.2531	0.3721	0.3105	-0.312
Mof_C 	C 	0.287	0.4178	0.3199	-0.11
Mof_C 	C 	0.2585	0.3961	0.3275	0.356
Mof_Zn	Zn	0.12242	0.78351	0.45388	1.198
Mof_O 	O 	0.09183	0.75606	0.47674	-0.465
Mof_N 	N 	0.15082	0.75189	0.43106	-0.261
Mof_N 	N 	0.0974	0.8107	0.42317	-0.271
Mof_N 	N 	0.18836	0.7263	0.40382	-0.268
Mof_C 	C 	0.04523	0.74873	0.509	-0.106
Mof_O 	O 	0.07566	0.79767	0.50635	-0.344
Mof_C 	C 	0.07344	0.7695	0.49759	0.345
Mof_C 	C 	0.16725	0.75086	0.40396	0.22
Mof_C 	C 	0.07203	0.831	0.424	0.24
Mof_N 	N 	0.162	0.727	0.4491	-0.06
Mof_N 	N 	0.0513	0.8331	0.4487	-0.368
Mof_H 	H 	0.0336	0.8437	0.4464	0.187
Mof_H 	H 	0.0557	0.8239	0.4668	0.175
Mof_N 	N 	0.1655	0.7736	0.3801	-0.355
Mof_H 	H 	0.153	0.79	0.3823	0.16
Mof_H 	H 	0.177	0.7715	0.3629	0.176
Mof_N 	N 	0.06673	0.8443	0.39616	-0.263
Mof_N 	N 	0.0908	0.8329	0.3767	-0.065
Mof_N 	N 	0.183	0.7115	0.4326	-0.065
Mof_C 	C 	0.02779	0.75857	0.53604	0.046
Mof_H 	H 	0.034	0.7768	0.5477	0.041
Mof_O 	O 	0.0078	0.8464	0.3526	-0.466
Mof_N 	N 	0.1092	0.8149	0.393	-0.075
Mof_C 	C 	0.9565	0.8067	0.3396	0.053
Mof_H 	H 	0.9693	0.8025	0.3576	0.044
Mof_O 	O 	0.9969	0.8779	0.3105	-0.312
Mof_C 	C 	0.963	0.8322	0.3199	-0.11
Mof_C 	C 	0.9915	0.8539	0.3275	0.356
Mof_Zn	Zn	0.12242	0.28351	0.95388	1.198
Mof_O 	O 	0.09183	0.25606	0.97674	-0.465
Mof_N 	N 	0.15082	0.25189	0.93106	-0.261
Mof_N 	N 	0.0974	0.3107	0.92317	-0.271
Mof_N 	N 	0.18836	0.2263	0.90382	-0.268
Mof_C 	C 	0.04523	0.24873	0.009	-0.106
Mof_O 	O 	0.07566	0.29767	0.00635	-0.344
Mof_C 	C 	0.07344	0.2695	0.99759	0.345
Mof_C 	C 	0.16725	0.25086	0.90396	0.22
Mof_C 	C 	0.07203	0.331	0.924	0.24
Mof_N 	N 	0.162	0.227	0.9491	-0.06
Mof_N 	N 	0.0513	0.3331	0.9487	-0.368
Mof_H 	H 	0.0336	0.3437	0.9464	0.187
Mof_H 	H 	0.0557	0.3239	0.9668	0.175
Mof_N 	N 	0.1655	0.2736	0.8801	-0.355
Mof_H 	H 	0.153	0.29	0.8823	0.16
Mof_H 	H 	0.177	0.2715	0.8629	0.176
Mof_N 	N 	0.06673	0.3443	0.89616	-0.263
Mof_N 	N 	0.0908	0.3329	0.8767	-0.065
Mof_N 	N 	0.183	0.2115	0.9326	-0.065
Mof_C 	C 	0.02779	0.25857	0.03604	0.046
Mof_H 	H 	0.034	0.2768	0.0477	0.041
Mof_O 	O 	0.0078	0.3464	0.8526	-0.466
Mof_N 	N 	0.1092	0.3149	0.893	-0.075
Mof_C 	C 	0.9565	0.3067	0.8396	0.053
Mof_H 	H 	0.9693	0.3025	0.8576	0.044
Mof_O 	O 	0.9969	0.3779	0.8105	-0.312
Mof_C 	C 	0.963	0.3322	0.8199	-0.11
Mof_C 	C 	0.9915	0.3539	0.8275	0.356
Mof_Zn	Zn	0.62242	0.78351	0.95388	1.198
Mof_O 	O 	0.59183	0.75606	0.97674	-0.465
Mof_N 	N 	0.65082	0.75189	0.93106	-0.261
Mof_N 	N 	0.5974	0.8107	0.92317	-0.271
Mof_N 	N 	0.68836	0.7263	0.90382	-0.268
Mof_C 	C 	0.54523	0.74873	0.009	-0.106
Mof_O 	O 	0.57566	0.79767	0.00635	-0.344
Mof_C 	C 	0.57344	0.7695	0.99759	0.345
Mof_C 	C 	0.66725	0.75086	0.90396	0.22
Mof_C 	C 	0.57203	0.831	0.924	0.24
Mof_N 	N 	0.662	0.727	0.9491	-0.06
Mof_N 	N 	0.5513	0.8331	0.9487	-0.368
Mof_H 	H 	0.5336	0.8437	0.9464	0.187
Mof_H 	H 	0.5557	0.8239	0.9668	0.175
Mof_N 	N 	0.6655	0.7736	0.8801	-0.355
Mof_H 	H 	0.653	0.79	0.8823	0.16
Mof_H 	H 	0.677	0.7715	0.8629	0.176
Mof_N 	N 	0.56673	0.8443	0.89616	-0.263
Mof_N 	N 	0.5908	0.8329	0.8767	-0.065
Mof_N 	N 	0.683	0.7115	0.9326	-0.065
Mof_C 	C 	0.52779	0.75857	0.03604	0.046
Mof_H 	H 	0.534	0.7768	0.0477	0.041
Mof_O 	O 	0.5078	0.8464	0.8526	-0.466
Mof_N 	N 	0.6092	0.8149	0.893	-0.075
Mof_C 	C 	0.4565	0.8067	0.8396	0.053
Mof_H 	H 	0.4693	0.8025	0.8576	0.044
Mof_O 	O 	0.4969	0.8779	0.8105	-0.312
Mof_C 	C 	0.463	0.8322	0.8199	-0.11
Mof_C 	C 	0.4915	0.8539	0.8275	0.356
Mof_Zn	Zn	0.62242	0.28351	0.45388	1.198
Mof_O 	O 	0.59183	0.25606	0.47674	-0.465
Mof_N 	N 	0.65082	0.25189	0.43106	-0.261
Mof_N 	N 	0.5974	0.3107	0.42317	-0.271
Mof_N 	N 	0.68836	0.2263	0.40382	-0.268
Mof_C 	C 	0.54523	0.24873	0.509	-0.106
Mof_O 	O 	0.57566	0.29767	0.50635	-0.344
Mof_C 	C 	0.57344	0.2695	0.49759	0.345
Mof_C 	C 	0.66725	0.25086	0.40396	0.22
Mof_C 	C 	0.57203	0.331	0.424	0.24
Mof_N 	N 	0.662	0.227	0.4491	-0.06
Mof_N 	N 	0.5513	0.3331	0.4487	-0.368
Mof_H 	H 	0.5336	0.3437	0.4464	0.187
Mof_H 	H 	0.5557	0.3239	0.4668	0.175
Mof_N 	N 	0.6655	0.2736	0.3801	-0.355
Mof_H 	H 	0.653	0.29	0.3823	0.16
Mof_H 	H 	0.677	0.2715	0.3629	0.176
Mof_N 	N 	0.56673	0.3443	0.39616	-0.263
Mof_N 	N 	0.5908	0.3329	0.3767	-0.065
Mof_N 	N 	0.683	0.2115	0.4326	-0.065
Mof_C 	C 	0.52779	0.25857	0.53604	0.046
Mof_H 	H 	0.534	0.2768	0.5477	0.041
Mof_O 	O 	0.5078	0.3464	0.3526	-0.466
Mof_N 	N 	0.6092	0.3149	0.393	-0.075
Mof_C 	C 	0.4565	0.3067	0.3396	0.053
Mof_H 	H 	0.4693	0.3025	0.3576	0.044
Mof_O 	O 	0.4969	0.3779	0.3105	-0.312
Mof_C 	C 	0.463	0.3322	0.3199	-0.11
Mof_C 	C 	0.4915	0.3539	0.3275	0.356
Mof_Zn	Zn	0.62758	0.78351	0.29612	1.198
Mof_O 	O 	0.65817	0.75606	0.27326	-0.465
Mof_N 	N 	0.59918	0.75189	0.31894	-0.261
Mof_N 	N 	0.6526	0.8107	0.32683	-0.271
Mof_N 	N 	0.56164	0.7263	0.34618	-0.268
Mof_C 	C 	0.70477	0.74873	0.241	-0.106
Mof_O 	O 	0.67434	0.79767	0.24365	-0.344
Mof_C 	C 	0.67656	0.7695	0.25241	0.345
Mof_C 	C 	0.58275	0.75086	0.34604	0.22
Mof_C 	C 	0.67797	0.831	0.326	0.24
Mof_N 	N 	0.588	0.727	0.3009	-0.06
Mof_N 	N 	0.6987	0.8331	0.3013	-0.368
Mof_H 	H 	0.7164	0.8437	0.3036	0.187
Mof_H 	H 	0.6943	0.8239	0.2832	0.175
Mof_N 	N 	0.5845	0.7736	0.3699	-0.355
Mof_H 	H 	0.597	0.79	0.3677	0.16
Mof_H 	H 	0.573	0.7715	0.3871	0.176
Mof_N 	N 	0.68327	0.8443	0.35384	-0.263
Mof_N 	N 	0.6592	0.8329	0.3733	-0.065
Mof_N 	N 	0.567	0.7115	0.3174	-0.065
Mof_C 	C 	0.72221	0.75857	0.21396	0.046
Mof_H 	H 	0.716	0.7768	0.2023	0.041
Mof_O 	O 	0.7422	0.8464	0.3974	-0.466
Mof_N 	N 	0.6408	0.8149	0.357	-0.075
Mof_C 	C 	0.7935	0.8067	0.4104	0.053
Mof_H 	H 	0.7807	0.8025	0.3924	0.044
Mof_O 	O 	0.7531	0.8779	0.4395	-0.312
Mof_C 	C 	0.787	0.8322	0.4301	-0.11
Mof_C 	C 	0.7585	0.8539	0.4225	0.356
Mof_Zn	Zn	0.62758	0.28351	0.79612	1.198
Mof_O 	O 	0.65817	0.25606	0.77326	-0.465
Mof_N 	N 	0.59918	0.25189	0.81894	-0.261
Mof_N 	N 	0.6526	0.3107	0.82683	-0.271
Mof_N 	N 	0.56164	0.2263	0.84618	-0.268
Mof_C 	C 	0.70477	0.24873	0.741	-0.106
Mof_O 	O 	0.67434	0.29767	0.74365	-0.344
Mof_C 	C 	0.67656	0.2695	0.75241	0.345
Mof_C 	C 	0.58275	0.25086	0.84604	0.22
Mof_C 	C 	0.67797	0.331	0.826	0.24
Mof_N 	N 	0.588	0.227	0.8009	-0.06
Mof_N 	N 	0.6987	0.3331	0.8013	-0.368
Mof_H 	H 	0.7164	0.3437	0.8036	0.187
Mof_H 	H 	0.6943	0.3239	0.7832	0.175
Mof_N 	N 	0.5845	0.2736	0.8699	-0.355
Mof_H 	H 	0.597	0.29	0.8677	0.16
Mof_H 	H 	0.573	0.2715	0.8871	0.176
Mof_N 	N 	0.68327	0.3443	0.85384	-0.263
Mof_N 	N 	0.6592	0.3329	0.8733	-0.065
Mof_N 	N 	0.567	0.2115	0.8174	-0.065
Mof_C 	C 	0.72221	0.25857	0.71396	0.046
Mof_H 	H 	0.716	0.2768	0.7023	0.041
Mof_O 	O 	0.7422	0.3464	0.8974	-0.466
Mof_N 	N 	0.6408	0.3149	0.857	-0.075
Mof_C 	C 	0.7935	0.3067	0.9104	0.053
Mof_H 	H 	0.7807	0.3025	0.8924	0.044
Mof_O 	O 	0.7531	0.3779	0.9395	-0.312
Mof_C 	C 	0.787	0.3322	0.9301	-0.11
Mof_C 	C 	0.7585	0.3539	0.9225	0.356
Mof_Zn	Zn	0.12758	0.78351	0.79612	1.198
Mof_O 	O 	0.15817	0.75606	0.77326	-0.465
Mof_N 	N 	0.09918	0.75189	0.81894	-0.261
Mof_N 	N 	0.1526	0.8107	0.82683	-0.271
Mof_N 	N 	0.06164	0.7263	0.84618	-0.268
Mof_C 	C 	0.20477	0.74873	0.741	-0.106
Mof_O 	O 	0.17434	0.79767	0.74365	-0.344
Mof_C 	C 	0.17656	0.7695	0.75241	0.345
Mof_C 	C 	0.08275	0.75086	0.84604	0.22
Mof_C 	C 	0.17797	0.831	0.826	0.24
Mof_N 	N 	0.088	0.727	0.8009	-0.06
Mof_N 	N 	0.1987	0.8331	0.8013	-0.368
Mof_H 	H 	0.2164	0.8437	0.8036	0.187
Mof_H 	H 	0.1943	0.8239	0.7832	0.175
Mof_N 	N 	0.0845	0.7736	0.8699	-0.355
Mof_H 	H 	0.097	0.79	0.8677	0.16
Mof_H 	H 	0.073	0.7715	0.8871	0.176
Mof_N 	N 	0.18327	0.8443	0.85384	-0.263
Mof_N 	N 	0.1592	0.8329	0.8733	-0.065
Mof_N 	N 	0.067	0.7115	0.8174	-0.065
Mof_C 	C 	0.22221	0.75857	0.71396	0.046
Mof_H 	H 	0.216	0.7768	0.7023	0.041
Mof_O 	O 	0.2422	0.8464	0.8974	-0.466
Mof_N 	N 	0.1408	0.8149	0.857	-0.075
Mof_C 	C 	0.2935	0.8067	0.9104	0.053
Mof_H 	H 	0.2807	0.8025	0.8924	0.044
Mof_O 	O 	0.2531	0.8779	0.9395	-0.312
Mof_C 	C 	0.287	0.8322	0.9301	-0.11
Mof_C 	C 	0.2585	0.8539	0.9225	0.356
Mof_Zn	Zn	0.12758	0.28351	0.29612	1.198
Mof_O 	O 	0.15817	0.25606	0.27326	-0.465
Mof_N 	N 	0.09918	0.25189	0.31894	-0.261
Mof_N 	N 	0.1526	0.3107	0.32683	-0.271
Mof_N 	N 	0.06164	0.2263	0.34618	-0.268
Mof_C 	C 	0.20477	0.24873	0.241	-0.106
Mof_O 	O 	0.17434	0.29767	0.24365	-0.344
Mof_C 	C 	0.17656	0.2695	0.25241	0.345
Mof_C 	C 	0.08275	0.25086	0.34604	0.22
Mof_C 	C 	0.17797	0.331	0.326	0.24
Mof_N 	N 	0.088	0.227	0.3009	-0.06
Mof_N 	N 	0.1987	0.3331	0.3013	-0.368
Mof_H 	H 	0.2164	0.3437	0.3036	0.187
Mof_H 	H 	0.1943	0.3239	0.2832	0.175
Mof_N 	N 	0.0845	0.2736	0.3699	-0.355
Mof_H 	H 	0.097	0.29	0.3677	0.16
Mof_H 	H 	0.073	0.2715	0.3871	0.176
Mof_N 	N 	0.18327	0.3443	0.35384	-0.263
Mof_N 	N 	0.1592	0.3329	0.3733	-0.065
Mof_N 	N 	0.067	0.2115	0.3174	-0.065
Mof_C 	C 	0.22221	0.25857	0.21396	0.046
Mof_H 	H 	0.216	0.2768	0.2023	0.041
Mof_O 	O 	0.2422	0.3464	0.3974	-0.466
Mof_N 	N 	0.1408	0.3149	0.357	-0.075
Mof_C 	C 	0.2935	0.3067	0.4104	0.053
Mof_H 	H 	0.2807	0.3025	0.3924	0.044
Mof_O 	O 	0.2531	0.3779	0.4395	-0.312
Mof_C 	C 	0.287	0.3322	0.4301	-0.11
Mof_C 	C 	0.2585	0.3539	0.4225	0.356
Mof_Zn	Zn	0.625	0.96384	0.125	1.218
Mof_Zn	Zn	0.625	0.46384	0.625	1.218
Mof_Zn	Zn	0.125	0.96384	0.625	1.218
Mof_Zn	Zn	0.125	0.46384	0.125	1.218
Mof_Zn	Zn	0.625	0.28616	0.125	1.218
Mof_Zn	Zn	0.625	0.78616	0.625	1.218
Mof_Zn	Zn	0.125	0.28616	0.625	1.218
Mof_Zn	Zn	0.125	0.78616	0.125	1.218
Mof_Zn	Zn	0.125	0.625	0.96384	1.218
Mof_Zn	Zn	0.125	0.125	0.46384	1.218
Mof_Zn	Zn	0.625	0.625	0.46384	1.218
Mof_Zn	Zn	0.625	0.125	0.96384	1.218
Mof_Zn	Zn	0.125	0.625	0.28616	1.218
Mof_Zn	Zn	0.125	0.125	0.78616	1.218
Mof_Zn	Zn	0.625	0.625	0.78616	1.218
Mof_Zn	Zn	0.625	0.125	0.28616	1.218
Mof_Zn	Zn	0.96384	0.125	0.625	1.218
Mof_Zn	Zn	0.96384	0.625	0.125	1.218
Mof_Zn	Zn	0.46384	0.125	0.125	1.218
Mof_Zn	Zn	0.46384	0.625	0.625	1.218
Mof_Zn	Zn	0.28616	0.125	0.625	1.218
Mof_Zn	Zn	0.28616	0.625	0.125	1.218
Mof_Zn	Zn	0.78616	0.125	0.125	1.218
Mof_Zn	Zn	0.78616	0.625	0.625	1.218
Mof_Zn	Zn	0.375	0.03616	0.875	1.218
Mof_Zn	Zn	0.375	0.53616	0.375	1.218
Mof_Zn	Zn	0.875	0.03616	0.375	1.218
Mof_Zn	Zn	0.875	0.53616	0.875	1.218
Mof_Zn	Zn	0.375	0.71384	0.875	1.218
Mof_Zn	Zn	0.375	0.21384	0.375	1.218
Mof_Zn	Zn	0.875	0.71384	0.375	1.218
Mof_Zn	Zn	0.875	0.21384	0.875	1.218
Mof_Zn	Zn	0.875	0.375	0.03616	1.218
Mof_Zn	Zn	0.875	0.875	0.53616	1.218
Mof_Zn	Zn	0.375	0.375	0.53616	1.218
Mof_Zn	Zn	0.375	0.875	0.03616	1.218
Mof_Zn	Zn	0.875	0.375	0.71384	1.218
Mof_Zn	Zn	0.875	0.875	0.21384	1.218
Mof_Zn	Zn	0.375	0.375	0.21384	1.218
Mof_Zn	Zn	0.375	0.875	0.71384	1.218
Mof_Zn	Zn	0.03616	0.875	0.375	1.218
Mof_Zn	Zn	0.03616	0.375	0.875	1.218
Mof_Zn	Zn	0.53616	0.875	0.875	1.218
Mof_Zn	Zn	0.53616	0.375	0.375	1.218
Mof_Zn	Zn	0.71384	0.875	0.375	1.218
Mof_Zn	Zn	0.71384	0.375	0.875	1.218
Mof_Zn	Zn	0.21384	0.875	0.875	1.218
Mof_Zn	Zn	0.21384	0.375	0.375	1.218
_end
