data_functionalizedCrystal
_audit_creation_method	'EQeq! by Chris Wilmer'
_symmetry_space_group_name_H-M	'P1'
_symmetry_Int_Tables_number	1
_symmetry_cell_setting	triclinic
loop_
_symmetry_equiv_pos_as_xyz
  x,y,z
_cell_length_a	10.107
_cell_length_b	10.258
_cell_length_c	16.276
_cell_angle_alpha	90
_cell_angle_beta	95.38
_cell_angle_gamma	90
loop_
_atom_site_label
_atom_site_type_symbol
_atom_site_fract_x
_atom_site_fract_y
_atom_site_fract_z
_atom_site_charge
Mof_Co	Co	0.227	0.25396	0.57763	1.096
Mof_Co	Co	0.773	0.75396	0.92237	1.133
Mof_Co	Co	0.773	0.74604	0.42237	1.124
Mof_Co	Co	0.227	0.24604	0.07763	1.091
Mof_Co	Co	-0	0	-0	1.024
Mof_Co	Co	3.30202e-33	0.5	0.5	1.081
Mof_H 	H 	0.0506	0.6407	0.7503	0.006
Mof_H 	H 	0.4364	0.5568	0.7368	0.048
Mof_H 	H 	0.3248	0.7747	0.9229	0.062
Mof_H 	H 	0.9494	0.1407	0.7497	0.046
Mof_H 	H 	0.5636	0.0568	0.7632	0.026
Mof_H 	H 	0.6752	0.2747	0.5771	0.026
Mof_H 	H 	0.9494	0.3593	0.2497	0.037
Mof_H 	H 	0.5636	0.4432	0.2632	0.027
Mof_H 	H 	0.6752	0.2253	0.0771	0.006
Mof_H 	H 	0.0506	0.8593	0.2503	-0.003
Mof_H 	H 	0.4364	0.9432	0.2368	0.049
Mof_H 	H 	0.3248	0.7253	0.4229	0.04
Mof_C 	C 	0.0642	0.7798	0.8897	0.263
Mof_C 	C 	0.1703	0.717	0.8441	-0.102
Mof_C 	C 	0.1389	0.648	0.7716	0.043
Mof_C 	C 	0.2377	0.5897	0.7304	-0.129
Mof_C 	C 	0.3702	0.5985	0.763	0.045
Mof_C 	C 	0.403	0.67	0.8347	-0.087
Mof_C 	C 	0.3028	0.7278	0.8747	0.028
Mof_C 	C 	0.2011	0.5161	0.6521	0.39
Mof_C 	C 	0.5454	0.6876	0.8676	0.308
Mof_C 	C 	0.9358	0.2798	0.6103	0.53
Mof_C 	C 	0.8297	0.217	0.6559	-0.176
Mof_C 	C 	0.8611	0.148	0.7284	0.083
Mof_C 	C 	0.7623	0.0897	0.7696	-0.12
Mof_C 	C 	0.6298	0.0985	0.737	0.054
Mof_C 	C 	0.597	0.17	0.6653	-0.127
Mof_C 	C 	0.6972	0.2278	0.6253	0.08
Mof_C 	C 	0.7989	0.0161	0.8479	0.31
Mof_C 	C 	0.4546	0.1876	0.6324	0.323
Mof_C 	C 	0.9358	0.2202	0.1103	0.538
Mof_C 	C 	0.8297	0.283	0.1559	-0.201
Mof_C 	C 	0.8611	0.352	0.2284	0.107
Mof_C 	C 	0.7623	0.4103	0.2696	-0.154
Mof_C 	C 	0.6298	0.4015	0.237	0.078
Mof_C 	C 	0.597	0.33	0.1653	-0.149
Mof_C 	C 	0.6972	0.2722	0.1253	0.096
Mof_C 	C 	0.7989	0.4839	0.3479	0.395
Mof_C 	C 	0.4546	0.3124	0.1324	0.331
Mof_C 	C 	0.0642	0.7202	0.3897	0.268
Mof_C 	C 	0.1703	0.783	0.3441	-0.128
Mof_C 	C 	0.1389	0.852	0.2716	0.066
Mof_C 	C 	0.2377	0.9103	0.2304	-0.163
Mof_C 	C 	0.3702	0.9015	0.263	0.069
Mof_C 	C 	0.403	0.83	0.3347	-0.108
Mof_C 	C 	0.3028	0.7722	0.3747	0.045
Mof_C 	C 	0.2011	0.9839	0.1521	0.478
Mof_C 	C 	0.5454	0.8124	0.3676	0.317
Mof_O 	O 	0.9468	0.7466	0.8689	-0.357
Mof_O 	O 	0.1032	0.8608	0.9445	-0.414
Mof_O 	O 	0.094	0.5502	0.6121	-0.495
Mof_O 	O 	0.2795	0.4286	0.6333	-0.447
Mof_O 	O 	0.6371	0.6614	0.8235	-0.349
Mof_O 	O 	0.5695	0.7323	0.9396	-0.374
Mof_O 	O 	0.0532	0.2466	0.6311	-0.602
Mof_O 	O 	0.8968	0.3608	0.5555	-0.474
Mof_O 	O 	0.906	0.0502	0.8879	-0.399
Mof_O 	O 	0.7205	0.9286	0.8667	-0.359
Mof_O 	O 	0.3629	0.1614	0.6765	-0.387
Mof_O 	O 	0.4305	0.2323	0.5604	-0.422
Mof_O 	O 	0.0532	0.2534	0.1311	-0.616
Mof_O 	O 	0.8968	0.1392	0.0555	-0.506
Mof_O 	O 	0.906	0.4498	0.3879	-0.431
Mof_O 	O 	0.7205	0.5714	0.3667	-0.439
Mof_O 	O 	0.3629	0.3386	0.1765	-0.39
Mof_O 	O 	0.4305	0.2677	0.0604	-0.441
Mof_O 	O 	0.9468	0.7534	0.3689	-0.368
Mof_O 	O 	0.1032	0.6392	0.4445	-0.469
Mof_O 	O 	0.094	0.9498	0.1121	-0.505
Mof_O 	O 	0.2795	0.0714	0.1333	-0.53
Mof_O 	O 	0.6371	0.8386	0.3235	-0.352
Mof_O 	O 	0.5695	0.7677	0.4396	-0.394
_end
