# CIF file generated by openbabel 3.1.0, see https://openbabel.org
data_I
_chemical_name_common 'image0'
_cell_length_a 14.14
_cell_length_b 11.319
_cell_length_c 16.6
_cell_angle_alpha 90
_cell_angle_beta 90
_cell_angle_gamma 90
_space_group_name_H-M_alt 'P 1'
_space_group_name_Hall 'P 1'
loop_
    _symmetry_equiv_pos_as_xyz
    x,y,z
loop_
    _atom_site_label
    _atom_site_type_symbol
    _atom_site_fract_x
    _atom_site_fract_y
    _atom_site_fract_z
    _atom_site_occupancy
    Mn1      Mn       0.61180    0.46610    0.55630    1.000
    O1       O        0.80140    0.52400    0.94760    1.000
    O2       O        0.78420    0.38100    0.03700    1.000
    O3       O        0.60920    0.29600    0.63520    1.000
    O4       O        0.48320    0.05200    0.86440    1.000
    C1       C        0.63800    0.29000    0.93900    1.000
    H1       H        0.63060    0.27860    0.99460    1.000
    O5       O        0.49820    0.12200    0.99130    1.000
    C2       C        0.76200    0.42300    0.97400    1.000
    C3       C        0.70500    0.39800    0.82900    1.000
    H2       H        0.74720    0.45470    0.80940    1.000
    C4       C        0.65200    0.36800    0.68900    1.000
    C5       C        0.69900    0.37100    0.91100    1.000
    C6       C        0.51900    0.13300    0.91700    1.000
    O6       O        0.70420    0.44800    0.66320    1.000
    C7       C        0.59600    0.24400    0.80300    1.000
    H3       H        0.56660    0.19430    0.76540    1.000
    C8       C        0.58600    0.22100    0.88300    1.000
    C9       C        0.64500    0.33500    0.77800    1.000
    Mn2      Mn       0.88820    0.53390    0.05630    1.000
    O7       O        0.69860    0.47600    0.44760    1.000
    O8       O        0.71580    0.61900    0.53700    1.000
    O9       O        0.89080    0.70400    0.13520    1.000
    O10      O        0.01680    0.94800    0.36440    1.000
    C10      C        0.86200    0.71000    0.43900    1.000
    H4       H        0.86940    0.72140    0.49460    1.000
    O11      O        0.00180    0.87800    0.49130    1.000
    C11      C        0.73800    0.57700    0.47400    1.000
    C12      C        0.79500    0.60200    0.32900    1.000
    H5       H        0.75280    0.54530    0.30940    1.000
    C13      C        0.84800    0.63200    0.18900    1.000
    C14      C        0.80100    0.62900    0.41100    1.000
    C15      C        0.98100    0.86700    0.41700    1.000
    O12      O        0.79580    0.55200    0.16320    1.000
    C16      C        0.90400    0.75600    0.30300    1.000
    H6       H        0.93340    0.80570    0.26540    1.000
    C17      C        0.91400    0.77900    0.38300    1.000
    C18      C        0.85500    0.66500    0.27800    1.000
    Mn3      Mn       0.38820    0.96610    0.94370    1.000
    O13      O        0.19860    0.02400    0.55240    1.000
    O14      O        0.21580    0.88100    0.46300    1.000
    O15      O        0.39080    0.79600    0.86480    1.000
    O16      O        0.51680    0.55200    0.63560    1.000
    C19      C        0.36200    0.79000    0.56100    1.000
    H7       H        0.36940    0.77860    0.50540    1.000
    O17      O        0.50180    0.62200    0.50870    1.000
    C20      C        0.23800    0.92300    0.52600    1.000
    C21      C        0.29500    0.89800    0.67100    1.000
    H8       H        0.25280    0.95470    0.69060    1.000
    C22      C        0.34800    0.86800    0.81100    1.000
    C23      C        0.30100    0.87100    0.58900    1.000
    C24      C        0.48100    0.63300    0.58300    1.000
    O18      O        0.29580    0.94800    0.83680    1.000
    C25      C        0.40400    0.74400    0.69700    1.000
    H9       H        0.43340    0.69430    0.73460    1.000
    C26      C        0.41400    0.72100    0.61700    1.000
    C27      C        0.35500    0.83500    0.72200    1.000
    Mn4      Mn       0.11180    0.03390    0.44370    1.000
    O19      O        0.30140    0.97600    0.05240    1.000
    O20      O        0.28420    0.11900    0.96300    1.000
    O21      O        0.10920    0.20400    0.36480    1.000
    O22      O        0.98320    0.44800    0.13560    1.000
    C28      C        0.13800    0.21000    0.06100    1.000
    H10      H        0.13060    0.22140    0.00540    1.000
    O23      O        0.99820    0.37800    0.00870    1.000
    C29      C        0.26200    0.07700    0.02600    1.000
    C30      C        0.20500    0.10200    0.17100    1.000
    H11      H        0.24720    0.04530    0.19060    1.000
    C31      C        0.15200    0.13200    0.31100    1.000
    C32      C        0.19900    0.12900    0.08900    1.000
    C33      C        0.01900    0.36700    0.08300    1.000
    O24      O        0.20420    0.05200    0.33680    1.000
    C34      C        0.09600    0.25600    0.19700    1.000
    H12      H        0.06660    0.30570    0.23460    1.000
    C35      C        0.08600    0.27900    0.11700    1.000
    C36      C        0.14500    0.16500    0.22200    1.000
    Mn5      Mn       0.38820    0.53390    0.44370    1.000
    O25      O        0.19860    0.47600    0.05240    1.000
    O26      O        0.21580    0.61900    0.96300    1.000
    O27      O        0.39080    0.70400    0.36480    1.000
    O28      O        0.51680    0.94800    0.13560    1.000
    C37      C        0.36200    0.71000    0.06100    1.000
    H13      H        0.36940    0.72140    0.00540    1.000
    O29      O        0.50180    0.87800    0.00870    1.000
    C38      C        0.23800    0.57700    0.02600    1.000
    C39      C        0.29500    0.60200    0.17100    1.000
    H14      H        0.25280    0.54530    0.19060    1.000
    C40      C        0.34800    0.63200    0.31100    1.000
    C41      C        0.30100    0.62900    0.08900    1.000
    C42      C        0.48100    0.86700    0.08300    1.000
    O30      O        0.29580    0.55200    0.33680    1.000
    C43      C        0.40400    0.75600    0.19700    1.000
    H15      H        0.43340    0.80570    0.23460    1.000
    C44      C        0.41400    0.77900    0.11700    1.000
    C45      C        0.35500    0.66500    0.22200    1.000
    Mn6      Mn       0.11180    0.46610    0.94370    1.000
    O31      O        0.30140    0.52400    0.55240    1.000
    O32      O        0.28420    0.38100    0.46300    1.000
    O33      O        0.10920    0.29600    0.86480    1.000
    O34      O        0.98320    0.05200    0.63560    1.000
    C46      C        0.13800    0.29000    0.56100    1.000
    H16      H        0.13060    0.27860    0.50540    1.000
    O35      O        0.99820    0.12200    0.50870    1.000
    C47      C        0.26200    0.42300    0.52600    1.000
    C48      C        0.20500    0.39800    0.67100    1.000
    H17      H        0.24720    0.45470    0.69060    1.000
    C49      C        0.15200    0.36800    0.81100    1.000
    C50      C        0.19900    0.37100    0.58900    1.000
    C51      C        0.01900    0.13300    0.58300    1.000
    O36      O        0.20420    0.44800    0.83680    1.000
    C52      C        0.09600    0.24400    0.69700    1.000
    H18      H        0.06660    0.19430    0.73460    1.000
    C53      C        0.08600    0.22100    0.61700    1.000
    C54      C        0.14500    0.33500    0.72200    1.000
    Mn7      Mn       0.61180    0.03390    0.05630    1.000
    O37      O        0.80140    0.97600    0.44760    1.000
    O38      O        0.78420    0.11900    0.53700    1.000
    O39      O        0.60920    0.20400    0.13520    1.000
    O40      O        0.48320    0.44800    0.36440    1.000
    C55      C        0.63800    0.21000    0.43900    1.000
    H19      H        0.63060    0.22140    0.49460    1.000
    O41      O        0.49820    0.37800    0.49130    1.000
    C56      C        0.76200    0.07700    0.47400    1.000
    C57      C        0.70500    0.10200    0.32900    1.000
    H20      H        0.74720    0.04530    0.30940    1.000
    C58      C        0.65200    0.13200    0.18900    1.000
    C59      C        0.69900    0.12900    0.41100    1.000
    C60      C        0.51900    0.36700    0.41700    1.000
    O42      O        0.70420    0.05200    0.16320    1.000
    C61      C        0.59600    0.25600    0.30300    1.000
    H21      H        0.56660    0.30570    0.26540    1.000
    C62      C        0.58600    0.27900    0.38300    1.000
    C63      C        0.64500    0.16500    0.27800    1.000
    Mn8      Mn       0.88820    0.96610    0.55630    1.000
    O43      O        0.69860    0.02400    0.94760    1.000
    O44      O        0.71580    0.88100    0.03700    1.000
    O45      O        0.89080    0.79600    0.63520    1.000
    O46      O        0.01680    0.55200    0.86440    1.000
    C64      C        0.86200    0.79000    0.93900    1.000
    H22      H        0.86940    0.77860    0.99460    1.000
    O47      O        0.00180    0.62200    0.99130    1.000
    C65      C        0.73800    0.92300    0.97400    1.000
    C66      C        0.79500    0.89800    0.82900    1.000
    H23      H        0.75280    0.95470    0.80940    1.000
    C67      C        0.84800    0.86800    0.68900    1.000
    C68      C        0.80100    0.87100    0.91100    1.000
    C69      C        0.98100    0.63300    0.91700    1.000
    O48      O        0.79580    0.94800    0.66320    1.000
    C70      C        0.90400    0.74400    0.80300    1.000
    H24      H        0.93340    0.69430    0.76540    1.000
    C71      C        0.91400    0.72100    0.88300    1.000
    C72      C        0.85500    0.83500    0.77800    1.000
