data_functionalizedCrystal
_audit_creation_method	'EQeq! by Chris Wilmer'
_symmetry_space_group_name_H-M	'P1'
_symmetry_Int_Tables_number	1
_symmetry_cell_setting	triclinic
loop_
_symmetry_equiv_pos_as_xyz
  x,y,z
_cell_length_a	14.2938
_cell_length_b	14.8561
_cell_length_c	23.1087
_cell_angle_alpha	92.7867
_cell_angle_beta	91.5679
_cell_angle_gamma	109.889
loop_
_atom_site_label
_atom_site_type_symbol
_atom_site_fract_x
_atom_site_fract_y
_atom_site_fract_z
_atom_site_charge
Mof_Cu	Cu	0.1456	0.7703	0.19256	0.861
Mof_Cu	Cu	0.0678	0.4279	0.02455	0.815
Mof_Cu	Cu	0.0788	0.3212	0.66095	0.857
Mof_Cu	Cu	0.1365	0.0279	0.40075	0.811
Mof_Cu	Cu	0.9624	0.2038	0.22981	0.851
Mof_Cu	Cu	0.0787	0.9564	0.53804	0.823
Mof_Cu	Cu	0.1282	0.5189	0.89475	0.83
Mof_N 	N 	0.0432	0.8073	0.1484	-0.225
Mof_N 	N 	0.1181	0.6759	0.1252	-0.194
Mof_N 	N 	0.0935	0.8773	0.2994	-0.082
Mof_N 	N 	0.1421	0.8275	0.2673	-0.218
Mof_C 	C 	0.5571	0.0382	0.3757	0.026
Mof_H 	H 	0.6142	0.023	0.3826	0.003
Mof_N 	N 	0.268	0.7499	0.226	-0.245
Mof_N 	N 	0.9855	0.3425	0.0812	-0.182
Mof_N 	N 	0.3679	0.018	0.4983	-0.218
Mof_N 	N 	0.9475	0.2536	0.1545	-0.21
Mof_N 	N 	0.2988	0.9892	0.5357	-0.057
Mof_N 	N 	0.0724	0.5514	0.0688	-0.202
Mof_N 	N 	0.2189	0.0007	0.5104	-0.19
Mof_N 	N 	0.14	0.9051	0.35	-0.146
Mof_N 	N 	0.0542	0.0923	0.3654	-0.23
Mof_N 	N 	0.0515	0.3969	0.7235	-0.213
Mof_N 	N 	0.8549	0.2609	0.2502	-0.222
Mof_N 	N 	0.0061	0.2785	0.1088	-0.074
Mof_N 	N 	0.0105	0.4878	0.7873	-0.072
Mof_N 	N 	0.9268	0.144	0.3568	-0.083
Mof_N 	N 	0.2204	0.4823	0.9436	-0.193
Mof_N 	N 	0.9884	0.344	0.5954	-0.225
Mof_N 	N 	0.1069	0.1426	0.6039	-0.072
Mof_N 	N 	0.0181	0.6043	0.0511	-0.255
Mof_N 	N 	0.0746	0.4553	0.8164	-0.203
Mof_N 	N 	0.91	0.3649	0.1086	-0.222
Mof_N 	N 	0.2357	0.0324	0.4573	-0.247
Mof_N 	N 	0.9942	0.4537	0.7324	-0.071
Mof_N 	N 	0.0788	0.2176	0.6056	-0.208
Mof_N 	N 	0.2044	0.4556	0.999	-0.205
Mof_N 	N 	0.1349	0.5958	0.1134	-0.071
Mof_N 	N 	0.1662	0.2984	0.7256	-0.227
Mof_N 	N 	0.0662	0.0882	0.5611	-0.211
Mof_N 	N 	0.0047	0.1257	0.5291	-0.254
Mof_N 	N 	0.2208	0.8788	0.3533	-0.101
Mof_N 	N 	0.367	0.4994	0.9805	-0.197
Mof_N 	N 	0.9869	0.1738	0.309	-0.204
Mof_N 	N 	0.3164	0.5091	0.9285	-0.088
Mof_N 	N 	0.9745	0.1036	0.3882	-0.179
Mof_N 	N 	0.438	0.463	0.0797	-0.223
Mof_C 	C 	0.801	0.257	0.2966	0.077
Mof_H 	H 	0.8157	0.2255	0.3278	-0.009
Mof_C 	C 	0.751	0.341	0.2045	-0.086
Mof_H 	H 	0.7299	0.3654	0.1719	0.014
Mof_C 	C 	0.728	0.293	0.3027	-0.136
Mof_H 	H 	0.6945	0.2869	0.337	0.067
Mof_C 	C 	0.703	0.339	0.2573	0.018
Mof_H 	H 	0.6559	0.3689	0.2617	0.011
Mof_C 	C 	0.33	0.718	0.2012	0.128
Mof_H 	H 	0.3134	0.6941	0.1629	-0.029
Mof_C 	C 	0.415	0.715	0.2241	-0.184
Mof_H 	H 	0.4519	0.6824	0.2053	0.089
Mof_C 	C 	0.446	0.764	0.2778	0.067
Mof_H 	H 	0.5104	0.7744	0.2928	-0
Mof_C 	C 	0.383	0.798	0.3093	-0.126
Mof_H 	H 	0.4	0.8257	0.3468	0.074
Mof_C 	C 	0.425	0.427	0.1791	-0.119
Mof_H 	H 	0.4581	0.4217	0.2134	0.063
Mof_C 	C 	0.338	0.455	0.075	-0
Mof_C 	C 	0.474	0.445	0.1284	0.069
Mof_H 	H 	0.5394	0.4446	0.1289	-0.008
Mof_C 	C 	0.322	0.416	0.1776	0.006
Mof_H 	H 	0.2836	0.3978	0.2099	0.022
Mof_C 	C 	0.278	0.434	0.1234	-0.081
Mof_H 	H 	0.2125	0.4321	0.1209	0.032
Mof_C 	C 	0.828	0.307	0.2026	-0.002
Mof_C 	C 	0.29	0.788	0.281	0.046
Mof_C 	C 	0.922	0.862	0.0713	0.03
Mof_H 	H 	0.8833	0.8807	0.0442	0.007
Mof_C 	C 	0.953	0.786	0.0606	-0.106
Mof_H 	H 	0.9318	0.7491	0.026	0.024
Mof_C 	C 	0.014	0.762	0.0992	0.029
Mof_C 	C 	0.011	0.882	0.1637	0.038
Mof_H 	H 	0.0286	0.9156	0.1997	0.01
Mof_C 	C 	0.949	0.907	0.1209	-0.106
Mof_H 	H 	0.927	0.9577	0.1303	0.056
Mof_C 	C 	0.161	0.344	0.7769	0.019
Mof_C 	C 	0.216	0.329	0.8267	-0.11
Mof_H 	H 	0.212	0.3581	0.8627	0.053
Mof_C 	C 	0.22	0.24	0.7244	0.078
Mof_H 	H 	0.2192	0.2046	0.69	-0.014
Mof_C 	C 	0.276	0.27	0.8206	0.057
Mof_H 	H 	0.3131	0.2618	0.8521	-0.002
Mof_C 	C 	0.277	0.229	0.7704	-0.157
Mof_H 	H 	0.3173	0.192	0.7654	0.071
Mof_N 	N 	0.4901	0.0308	0.4192	-0.224
Mof_C 	C 	0.923	0.289	0.499	-0.124
Mof_H 	H 	0.9173	0.2482	0.466	0.045
Mof_C 	C 	0.889	0.362	0.4994	0.059
Mof_H 	H 	0.8556	0.369	0.4657	-0.001
Mof_C 	C 	0.968	0.276	0.5504	0.017
Mof_C 	C 	0.958	0.415	0.5926	0.084
Mof_H 	H 	0.9747	0.4615	0.6232	-0.011
Mof_C 	C 	0.898	0.427	0.5441	-0.151
Mof_H 	H 	0.869	0.4739	0.5438	0.075
Mof_C 	C 	0.4048	0.0536	0.4089	-0.017
Mof_C 	C 	0.3864	0.0838	0.3551	-0.063
Mof_H 	H 	0.3293	0.099	0.3482	0.015
Mof_C 	C 	0.4535	0.0911	0.3116	-0.011
Mof_H 	H 	0.4412	0.1113	0.2756	0.022
Mof_C 	C 	0.5388	0.0683	0.3219	-0.093
Mof_H 	H 	0.5836	0.0733	0.2928	0.049
Mof_C 	C 	0.047	0.681	0.0882	0.043
Mof_C 	C 	0.218	0.831	0.3037	0.071
Mof_C 	C 	0.331	0.038	0.4527	0.1
Mof_C 	C 	0.3	0.47	0.018	0.053
Mof_C 	C 	0.017	0.206	0.559	0.072
Mof_C 	C 	0.891	0.307	0.154	0.072
Mof_C 	C 	0.099	0.401	0.7754	0.06
Mof_C 	C 	0.058	0.13	0.3123	0.061
Mof_C 	C 	0.23	0.1586	0.1697	-0.094
Mof_H 	H 	0.2669	0.1651	0.1367	0.047
Mof_C 	C 	0.14	0.1751	0.1682	0.028
Mof_H 	H 	0.1166	0.1927	0.1341	0.003
Mof_N 	N 	0.0849	0.1655	0.2175	-0.214
Mof_C 	C 	0.1198	0.1393	0.2685	-0.009
Mof_C 	C 	0.2099	0.1228	0.2701	-0.069
Mof_H 	H 	0.2332	0.1052	0.3042	0.01
Mof_C 	C 	0.265	0.1324	0.2207	-0.012
Mof_H 	H 	0.3252	0.1214	0.2217	0.019
Mof_Cu	Cu	0.8544	0.2297	0.80744	0.86
Mof_Cu	Cu	0.9322	0.5721	0.97545	0.832
Mof_Cu	Cu	0.9212	0.6788	0.33905	0.857
Mof_Cu	Cu	0.8635	0.9721	0.59925	0.825
Mof_Cu	Cu	0.0376	0.7962	0.77019	0.856
Mof_Cu	Cu	0.9213	0.0436	0.46196	0.803
Mof_Cu	Cu	0.8718	0.4811	0.10525	0.826
Mof_N 	N 	0.9568	0.1927	0.8516	-0.225
Mof_N 	N 	0.8819	0.3241	0.8748	-0.195
Mof_N 	N 	0.9065	0.1227	0.7006	-0.09
Mof_N 	N 	0.8579	0.1725	0.7327	-0.22
Mof_C 	C 	0.4429	0.9618	0.6243	0.036
Mof_H 	H 	0.3858	0.977	0.6174	0.012
Mof_N 	N 	0.732	0.2501	0.774	-0.245
Mof_N 	N 	0.0145	0.6575	0.9188	-0.173
Mof_N 	N 	0.6321	0.982	0.5017	-0.19
Mof_N 	N 	0.0525	0.7464	0.8455	-0.205
Mof_N 	N 	0.7012	0.0108	0.4643	-0.098
Mof_N 	N 	0.9276	0.4486	0.9312	-0.197
Mof_N 	N 	0.7811	0.9993	0.4896	-0.159
Mof_N 	N 	0.86	0.0949	0.65	-0.16
Mof_N 	N 	0.9458	0.9077	0.6346	-0.225
Mof_N 	N 	0.9485	0.6031	0.2765	-0.214
Mof_N 	N 	0.1451	0.7391	0.7498	-0.22
Mof_N 	N 	0.9939	0.7215	0.8912	-0.07
Mof_N 	N 	0.9895	0.5122	0.2127	-0.073
Mof_N 	N 	0.0732	0.856	0.6432	-0.079
Mof_N 	N 	0.7796	0.5177	0.0564	-0.198
Mof_N 	N 	0.0116	0.656	0.4046	-0.225
Mof_N 	N 	0.8931	0.8574	0.3961	-0.066
Mof_N 	N 	0.9819	0.3957	0.9489	-0.247
Mof_N 	N 	0.9254	0.5447	0.1836	-0.203
Mof_N 	N 	0.09	0.6351	0.8914	-0.218
Mof_N 	N 	0.7643	0.9676	0.5427	-0.241
Mof_N 	N 	0.0058	0.5463	0.2676	-0.068
Mof_N 	N 	0.9212	0.7824	0.3944	-0.207
Mof_N 	N 	0.7956	0.5444	0.001	-0.244
Mof_N 	N 	0.8651	0.4042	0.8866	-0.07
Mof_N 	N 	0.8338	0.7016	0.2744	-0.227
Mof_N 	N 	0.9338	0.9118	0.4389	-0.198
Mof_N 	N 	0.9953	0.8743	0.4709	-0.248
Mof_N 	N 	0.7792	0.1212	0.6467	-0.112
Mof_N 	N 	0.633	0.5006	0.0195	-0.234
Mof_N 	N 	0.0131	0.8262	0.691	-0.2
Mof_N 	N 	0.6836	0.4909	0.0715	-0.092
Mof_N 	N 	0.0255	0.8964	0.6118	-0.171
Mof_N 	N 	0.562	0.537	0.9203	-0.213
Mof_C 	C 	0.199	0.743	0.7034	0.08
Mof_H 	H 	0.1843	0.7745	0.6722	-0.007
Mof_C 	C 	0.249	0.659	0.7955	-0.085
Mof_H 	H 	0.2701	0.6346	0.8281	0.018
Mof_C 	C 	0.272	0.707	0.6973	-0.136
Mof_H 	H 	0.3055	0.7131	0.663	0.069
Mof_C 	C 	0.297	0.661	0.7427	0.021
Mof_H 	H 	0.3441	0.6311	0.7383	0.011
Mof_C 	C 	0.67	0.282	0.7988	0.124
Mof_H 	H 	0.6866	0.3059	0.8371	-0.028
Mof_C 	C 	0.585	0.285	0.7759	-0.183
Mof_H 	H 	0.5481	0.3176	0.7947	0.088
Mof_C 	C 	0.554	0.236	0.7222	0.061
Mof_H 	H 	0.4896	0.2256	0.7072	-0.004
Mof_C 	C 	0.617	0.202	0.6907	-0.127
Mof_H 	H 	0.6	0.1743	0.6532	0.064
Mof_C 	C 	0.575	0.573	0.8209	-0.113
Mof_H 	H 	0.5419	0.5783	0.7866	0.062
Mof_C 	C 	0.662	0.545	0.925	-0.016
Mof_C 	C 	0.526	0.555	0.8716	0.068
Mof_H 	H 	0.4606	0.5554	0.8711	-0.004
Mof_C 	C 	0.678	0.584	0.8224	-0.001
Mof_H 	H 	0.7164	0.6022	0.7901	0.023
Mof_C 	C 	0.722	0.566	0.8766	-0.067
Mof_H 	H 	0.7875	0.5679	0.8791	0.029
Mof_C 	C 	0.172	0.693	0.7974	0.001
Mof_C 	C 	0.71	0.212	0.719	0.04
Mof_C 	C 	0.078	0.138	0.9287	0.017
Mof_H 	H 	0.1167	0.1193	0.9558	0.014
Mof_C 	C 	0.047	0.214	0.9394	-0.094
Mof_H 	H 	0.0682	0.2509	0.974	0.03
Mof_C 	C 	0.986	0.238	0.9008	0.022
Mof_C 	C 	0.989	0.118	0.8363	0.024
Mof_H 	H 	0.9714	0.0844	0.8003	0.003
Mof_C 	C 	0.051	0.093	0.8791	-0.093
Mof_H 	H 	0.073	0.0423	0.8697	0.042
Mof_C 	C 	0.839	0.656	0.2231	0.019
Mof_C 	C 	0.784	0.671	0.1733	-0.111
Mof_H 	H 	0.788	0.6419	0.1373	0.051
Mof_C 	C 	0.78	0.76	0.2756	0.08
Mof_H 	H 	0.7808	0.7954	0.31	-0.009
Mof_C 	C 	0.724	0.73	0.1794	0.059
Mof_H 	H 	0.6869	0.7382	0.1479	-0.004
Mof_C 	C 	0.723	0.771	0.2296	-0.157
Mof_H 	H 	0.6827	0.808	0.2346	0.077
Mof_N 	N 	0.5099	0.9692	0.5808	-0.215
Mof_C 	C 	0.077	0.711	0.501	-0.126
Mof_H 	H 	0.0827	0.7518	0.534	0.048
Mof_C 	C 	0.111	0.638	0.5006	0.063
Mof_H 	H 	0.1444	0.631	0.5343	-0.001
Mof_C 	C 	0.032	0.724	0.4496	0.024
Mof_C 	C 	0.042	0.585	0.4074	0.085
Mof_H 	H 	0.0253	0.5385	0.3768	-0.011
Mof_C 	C 	0.102	0.573	0.4559	-0.151
Mof_H 	H 	0.131	0.5261	0.4562	0.076
Mof_C 	C 	0.5952	0.9464	0.5911	-0.009
Mof_C 	C 	0.6136	0.9162	0.6449	-0.06
Mof_H 	H 	0.6707	0.901	0.6518	0.018
Mof_C 	C 	0.5465	0.9089	0.6884	-0.003
Mof_H 	H 	0.5588	0.8887	0.7244	0.026
Mof_C 	C 	0.4612	0.9317	0.6781	-0.09
Mof_H 	H 	0.4164	0.9267	0.7072	0.058
Mof_C 	C 	0.953	0.319	0.9118	0.046
Mof_C 	C 	0.782	0.169	0.6963	0.066
Mof_C 	C 	0.669	0.962	0.5473	0.106
Mof_C 	C 	0.7	0.53	0.982	0.129
Mof_C 	C 	0.983	0.794	0.441	0.07
Mof_C 	C 	0.109	0.693	0.846	0.077
Mof_C 	C 	0.901	0.599	0.2246	0.06
Mof_C 	C 	0.942	0.87	0.6877	0.064
Mof_C 	C 	0.77	0.8414	0.8303	-0.091
Mof_H 	H 	0.7331	0.8349	0.8633	0.058
Mof_C 	C 	0.86	0.8249	0.8318	0.035
Mof_H 	H 	0.8834	0.8073	0.8659	0.01
Mof_N 	N 	0.9151	0.8345	0.7825	-0.212
Mof_C 	C 	0.8802	0.8607	0.7315	-0.003
Mof_C 	C 	0.7901	0.8772	0.7299	-0.065
Mof_H 	H 	0.7668	0.8948	0.6958	0.014
Mof_C 	C 	0.735	0.8676	0.7793	-0.005
Mof_H 	H 	0.6748	0.8786	0.7783	0.025
Mof_Cu	Cu	0.5	0.5	-0	0.842
Mof_Cu	Cu	0.5	-6.17334e-18	0.5	0.847
_end
