data_functionalizedCrystal
_audit_creation_method	'EQeq! by Chris Wilmer'
_symmetry_space_group_name_H-M	'P1'
_symmetry_Int_Tables_number	1
_symmetry_cell_setting	triclinic
loop_
_symmetry_equiv_pos_as_xyz
  x,y,z
_cell_length_a	25.004
_cell_length_b	25.004
_cell_length_c	8.6253
_cell_angle_alpha	90
_cell_angle_beta	90
_cell_angle_gamma	120
loop_
_atom_site_label
_atom_site_type_symbol
_atom_site_fract_x
_atom_site_fract_y
_atom_site_fract_z
_atom_site_charge
Mof_N 	N 	0.92156	0.27664	0.5505	-0.145
Mof_C 	C 	0.8729	0.22026	0.5927	0.082
Mof_N 	N 	0.58823	0.60997	0.88383	-0.135
Mof_C 	C 	0.53957	0.55359	0.92603	0.204
Mof_N 	N 	0.25489	0.94331	0.21717	-0.15
Mof_C 	C 	0.20623	0.88693	0.25937	0.07
Mof_N 	N 	0.72336	0.64492	0.5505	-0.146
Mof_C 	C 	0.77974	0.65264	0.5927	0.082
Mof_N 	N 	0.39003	0.97825	0.88383	-0.136
Mof_C 	C 	0.44641	0.98597	0.92603	0.192
Mof_N 	N 	0.05669	0.31159	0.21717	-0.148
Mof_C 	C 	0.11307	0.31931	0.25937	0.07
Mof_N 	N 	0.35508	0.07844	0.5505	-0.145
Mof_C 	C 	0.34736	0.1271	0.5927	0.082
Mof_N 	N 	0.02175	0.41177	0.88383	-0.133
Mof_C 	C 	0.01403	0.46043	0.92603	0.186
Mof_N 	N 	0.68841	0.74511	0.21717	-0.148
Mof_C 	C 	0.68069	0.79377	0.25937	0.071
Mof_N 	N 	0.27664	0.92156	0.4495	-0.151
Mof_C 	C 	0.22026	0.8729	0.4073	0.085
Mof_N 	N 	0.94331	0.25489	0.78283	-0.122
Mof_C 	C 	0.88693	0.20623	0.74063	0.099
Mof_N 	N 	0.60997	0.58823	0.11617	-0.136
Mof_C 	C 	0.55359	0.53957	0.07397	-0.037
Mof_N 	N 	0.64492	0.72336	0.4495	-0.15
Mof_C 	C 	0.65264	0.77974	0.4073	0.085
Mof_N 	N 	0.31159	0.05669	0.78283	-0.126
Mof_C 	C 	0.31931	0.11307	0.74063	0.098
Mof_N 	N 	0.97825	0.39003	0.11617	-0.134
Mof_C 	C 	0.98597	0.44641	0.07397	-0.018
Mof_N 	N 	0.07844	0.35508	0.4495	-0.151
Mof_C 	C 	0.1271	0.34736	0.4073	0.085
Mof_N 	N 	0.74511	0.68841	0.78283	-0.126
Mof_C 	C 	0.79377	0.68069	0.74063	0.098
Mof_N 	N 	0.41177	0.02175	0.11617	-0.137
Mof_C 	C 	0.46043	0.01403	0.07397	-0.026
Mof_N 	N 	0.07844	0.72336	0.4495	-0.151
Mof_C 	C 	0.1271	0.77974	0.4073	0.085
Mof_N 	N 	0.74511	0.05669	0.78283	-0.126
Mof_C 	C 	0.79377	0.11307	0.74063	0.099
Mof_N 	N 	0.41177	0.39003	0.11617	-0.136
Mof_C 	C 	0.46043	0.44641	0.07397	-0.037
Mof_N 	N 	0.27664	0.35508	0.4495	-0.15
Mof_C 	C 	0.22026	0.34736	0.4073	0.085
Mof_N 	N 	0.94331	0.68841	0.78283	-0.123
Mof_C 	C 	0.88693	0.68069	0.74063	0.099
Mof_N 	N 	0.60997	0.02175	0.11617	-0.137
Mof_C 	C 	0.55359	0.01403	0.07397	-0.025
Mof_N 	N 	0.64492	0.92156	0.4495	-0.151
Mof_C 	C 	0.65264	0.8729	0.4073	0.085
Mof_N 	N 	0.31159	0.25489	0.78283	-0.126
Mof_C 	C 	0.31931	0.20623	0.74063	0.098
Mof_N 	N 	0.97825	0.58823	0.11617	-0.134
Mof_C 	C 	0.98597	0.53957	0.07397	-0.017
Mof_N 	N 	0.72336	0.07844	0.5505	-0.145
Mof_C 	C 	0.77974	0.1271	0.5927	0.082
Mof_N 	N 	0.39003	0.41177	0.88383	-0.135
Mof_C 	C 	0.44641	0.46043	0.92603	0.204
Mof_N 	N 	0.05669	0.74511	0.21717	-0.148
Mof_C 	C 	0.11307	0.79377	0.25937	0.07
Mof_N 	N 	0.35508	0.27664	0.5505	-0.146
Mof_C 	C 	0.34736	0.22026	0.5927	0.081
Mof_N 	N 	0.02175	0.60997	0.88383	-0.133
Mof_C 	C 	0.01403	0.55359	0.92603	0.186
Mof_N 	N 	0.68841	0.94331	0.21717	-0.15
Mof_C 	C 	0.68069	0.88693	0.25937	0.07
Mof_N 	N 	0.92156	0.64492	0.5505	-0.145
Mof_C 	C 	0.8729	0.65264	0.5927	0.082
Mof_N 	N 	0.58823	0.97825	0.88383	-0.136
Mof_C 	C 	0.53957	0.98597	0.92603	0.191
Mof_N 	N 	0.25489	0.31159	0.21717	-0.148
Mof_C 	C 	0.20623	0.31931	0.25937	0.07
Mof_Mn	Mn	0.94665	0.33333	0.33333	0.784
Mof_Mn	Mn	0.66667	0.61331	0.33333	0.773
Mof_Mn	Mn	0.38669	0.05335	0.33333	0.776
Mof_Mn	Mn	0.33333	0.94665	0.66667	0.78
Mof_Mn	Mn	2.43437e-17	0.27998	-0	0.682
Mof_Mn	Mn	0.61331	0.66667	0.66667	0.787
Mof_Mn	Mn	0.27998	0	-0	0.7
Mof_Mn	Mn	0.05335	0.38669	0.66667	0.782
Mof_Mn	Mn	0.72002	0.72002	-0	0.695
Mof_Mn	Mn	0.05335	0.66667	0.66667	0.782
Mof_Mn	Mn	0.72002	0	-0	0.703
Mof_Mn	Mn	0.38669	0.33333	0.33333	0.773
Mof_Mn	Mn	0.33333	0.38669	0.66667	0.787
Mof_Mn	Mn	-0	0.72002	-0	0.682
Mof_Mn	Mn	0.61331	0.94665	0.66667	0.78
Mof_Mn	Mn	0.27998	0.27998	-0	0.693
Mof_Mn	Mn	0.66667	0.05335	0.33333	0.776
Mof_Mn	Mn	0.94665	0.61331	0.33333	0.784
Mof_Cl	Cl	-2.11225e-17	0.42874	0.5	-0.503
Mof_Cl	Cl	0.66667	0.76207	0.83333	-0.443
Mof_Cl	Cl	0.33333	0.09541	0.16667	-0.511
Mof_Cl	Cl	0.57126	0.57126	0.5	-0.494
Mof_Cl	Cl	0.23793	0.90459	0.83333	-0.446
Mof_Cl	Cl	0.90459	0.23793	0.16667	-0.506
Mof_Cl	Cl	0.42874	-2.70269e-33	0.5	-0.489
Mof_Cl	Cl	0.09541	0.33333	0.83333	-0.442
Mof_Cl	Cl	0.76207	0.66667	0.16667	-0.511
Mof_Cl	Cl	-2.11225e-17	0.57126	0.5	-0.503
Mof_Cl	Cl	0.66667	0.90459	0.83333	-0.445
Mof_Cl	Cl	0.33333	0.23793	0.16667	-0.512
Mof_Cl	Cl	0.42874	0.42874	0.5	-0.494
Mof_Cl	Cl	0.09541	0.76207	0.83333	-0.443
Mof_Cl	Cl	0.76207	0.09541	0.16667	-0.51
Mof_Cl	Cl	0.57126	-2.70269e-33	0.5	-0.489
Mof_Cl	Cl	0.23793	0.33333	0.83333	-0.442
Mof_Cl	Cl	0.90459	0.66667	0.16667	-0.506
Mof_N 	N 	0.96238	0.29571	0.66667	-0.1
Mof_N 	N 	0.62905	0.62905	-0	-0.142
Mof_N 	N 	0.70429	0.66667	0.66667	-0.104
Mof_N 	N 	0.37095	0	-0	-0.139
Mof_N 	N 	0.33333	0.03762	0.66667	-0.102
Mof_N 	N 	-0	0.37095	-0	-0.147
Mof_N 	N 	0.29571	0.96238	0.33333	-0.112
Mof_N 	N 	0.66667	0.70429	0.33333	-0.11
Mof_N 	N 	0.03762	0.33333	0.33333	-0.113
Mof_N 	N 	0.03762	0.70429	0.33333	-0.113
Mof_N 	N 	0.29571	0.33333	0.33333	-0.11
Mof_N 	N 	0.66667	0.96238	0.33333	-0.112
Mof_N 	N 	0.70429	0.03762	0.66667	-0.102
Mof_N 	N 	0.37095	0.37095	-0	-0.142
Mof_N 	N 	0.33333	0.29571	0.66667	-0.104
Mof_N 	N 	-0	0.62905	-0	-0.147
Mof_N 	N 	0.96238	0.66667	0.66667	-0.1
Mof_N 	N 	0.62905	0	-0	-0.139
Mof_C 	C 	0.81882	0.18118	0.5128	-0.136
Mof_H 	H 	0.8095	0.1905	0.4132	0.1
Mof_C 	C 	0.48549	0.51451	0.84613	-0.227
Mof_H 	H 	0.47617	0.52383	0.74653	0.133
Mof_C 	C 	0.15215	0.84785	0.17947	-0.14
Mof_H 	H 	0.14283	0.85717	0.07987	0.081
Mof_C 	C 	0.81882	0.63764	0.5128	-0.136
Mof_H 	H 	0.8095	0.619	0.4132	0.1
Mof_C 	C 	0.48549	0.97097	0.84613	-0.219
Mof_H 	H 	0.47617	0.95233	0.74653	0.128
Mof_C 	C 	0.15215	0.30431	0.17947	-0.139
Mof_H 	H 	0.14283	0.28567	0.07987	0.082
Mof_C 	C 	0.36236	0.18118	0.5128	-0.136
Mof_H 	H 	0.381	0.1905	0.4132	0.1
Mof_C 	C 	0.02903	0.51451	0.84613	-0.214
Mof_H 	H 	0.04767	0.52383	0.74653	0.128
Mof_C 	C 	0.69569	0.84785	0.17947	-0.14
Mof_H 	H 	0.71433	0.85717	0.07987	0.082
Mof_C 	C 	0.18118	0.81882	0.4872	-0.149
Mof_H 	H 	0.1905	0.8095	0.5868	0.105
Mof_C 	C 	0.84785	0.15215	0.82053	-0.141
Mof_H 	H 	0.85717	0.14283	0.92013	0.135
Mof_C 	C 	0.51451	0.48549	0.15387	-0.058
Mof_H 	H 	0.52383	0.47617	0.25347	0.073
Mof_C 	C 	0.63764	0.81882	0.4872	-0.148
Mof_H 	H 	0.619	0.8095	0.5868	0.105
Mof_C 	C 	0.30431	0.15215	0.82053	-0.141
Mof_H 	H 	0.28567	0.14283	0.92013	0.134
Mof_C 	C 	0.97097	0.48549	0.15387	-0.071
Mof_H 	H 	0.95233	0.47617	0.25347	0.08
Mof_C 	C 	0.18118	0.36236	0.4872	-0.148
Mof_H 	H 	0.1905	0.381	0.5868	0.105
Mof_C 	C 	0.84785	0.69569	0.82053	-0.141
Mof_H 	H 	0.85717	0.71433	0.92013	0.135
Mof_C 	C 	0.51451	0.02903	0.15387	-0.067
Mof_H 	H 	0.52383	0.04767	0.25347	0.076
_end
