# CIF file generated by openbabel 3.1.0, see https://openbabel.org
data_I
_chemical_name_common 'FUYYAA_clean'
_cell_length_a 8.823
_cell_length_b 9.396
_cell_length_c 14.546
_cell_angle_alpha 81.85
_cell_angle_beta 72.798
_cell_angle_gamma 65.368
_space_group_name_H-M_alt 'P 1'
_space_group_name_Hall 'P 1'
loop_
    _symmetry_equiv_pos_as_xyz
    x,y,z
loop_
    _atom_site_label
    _atom_site_type_symbol
    _atom_site_fract_x
    _atom_site_fract_y
    _atom_site_fract_z
    _atom_site_occupancy
    Nd1      Nd       0.07647    0.18795    0.63437    1.000
    Nd2      Nd       0.92353    0.81205    0.36563    1.000
    Cu1      Cu       0.42703    0.38274    0.93446    1.000
    Cu2      Cu       0.57297    0.61726    0.06554    1.000
    H1       H        0.72380    0.29710    0.14740    1.000
    H2       H        0.97880    0.07770    0.11130    1.000
    H3       H        0.51180    0.89690    0.92820    1.000
    H4       H        0.04190    0.53910    0.77420    1.000
    H5       H        0.65770    0.96450    0.78220    1.000
    H6       H        0.92100    0.78260    0.70250    1.000
    H7       H        0.18440    0.07750    0.96990    1.000
    H8       H        0.27620    0.70290    0.85260    1.000
    H9       H        0.02120    0.92230    0.88870    1.000
    H10      H        0.48820    0.10310    0.07180    1.000
    H11      H        0.95810    0.46090    0.22580    1.000
    H12      H        0.34230    0.03550    0.21780    1.000
    H13      H        0.07900    0.21740    0.29750    1.000
    H14      H        0.81560    0.92250    0.03010    1.000
    C1       C        0.95980    0.46850    0.47170    1.000
    C2       C        0.89820    0.42470    0.94900    1.000
    C3       C        0.84060    0.57670    0.89340    1.000
    C4       C        0.69160    0.38370    0.78390    1.000
    C5       C        0.75400    0.22040    0.83330    1.000
    C6       C        0.80790    0.29620    0.09080    1.000
    C7       C        0.95960    0.16430    0.06960    1.000
    C8       C        0.61940    0.82480    0.89660    1.000
    C9       C        0.93390    0.61180    0.80470    1.000
    C10      C        0.70500    0.86550    0.80940    1.000
    C11      C        0.86200    0.75790    0.76270    1.000
    C12      C        0.05340    0.29400    0.92280    1.000
    C13      C        0.19870    0.27630    0.83110    1.000
    C14      C        0.08120    0.16520    0.98550    1.000
    C15      C        0.90800    0.02120    0.53330    1.000
    C16      C        0.04020    0.53150    0.52830    1.000
    C17      C        0.10180    0.57530    0.05100    1.000
    C18      C        0.15940    0.42330    0.10660    1.000
    C19      C        0.30840    0.61630    0.21610    1.000
    C20      C        0.24600    0.77960    0.16670    1.000
    C21      C        0.19210    0.70380    0.90920    1.000
    C22      C        0.04040    0.83570    0.93040    1.000
    C23      C        0.38060    0.17520    0.10340    1.000
    C24      C        0.06610    0.38820    0.19530    1.000
    C25      C        0.29500    0.13450    0.19060    1.000
    C26      C        0.13800    0.24210    0.23730    1.000
    C27      C        0.94660    0.70600    0.07720    1.000
    C28      C        0.80130    0.72370    0.16890    1.000
    C29      C        0.91880    0.83480    0.01450    1.000
    C30      C        0.09200    0.97880    0.46670    1.000
    N1       N        0.77870    0.42210    0.03220    1.000
    N2       N        0.68630    0.68370    0.93780    1.000
    N3       N        0.22130    0.57790    0.96780    1.000
    N4       N        0.31370    0.31630    0.06220    1.000
    O1       O        0.96120    0.33400    0.49580    1.000
    O2       O        0.64980    0.20150    0.91120    1.000
    O3       O        0.54360    0.48150    0.82580    1.000
    O4       O        0.78810    0.40710    0.70730    1.000
    O5       O        0.17870    0.24100    0.75760    1.000
    O6       O        0.89880    0.12380    0.79500    1.000
    O7       O        0.32960    0.29020    0.83660    1.000
    O8       O        0.89870    0.55630    0.40710    1.000
    O9       O        0.87320    0.08840    0.61050    1.000
    O10      O        0.80640    0.98660    0.50530    1.000
    O11      O        0.03880    0.66600    0.50420    1.000
    O12      O        0.35020    0.79850    0.08880    1.000
    O13      O        0.45640    0.51850    0.17420    1.000
    O14      O        0.21190    0.59290    0.29270    1.000
    O15      O        0.82130    0.75900    0.24240    1.000
    O16      O        0.10120    0.87620    0.20500    1.000
    O17      O        0.67040    0.70980    0.16340    1.000
    O18      O        0.10130    0.44370    0.59290    1.000
    O19      O        0.12680    0.91160    0.38950    1.000
    O20      O        0.19360    0.01340    0.49470    1.000
