data_functionalizedCrystal
_audit_creation_method	'EQeq! by Chris Wilmer'
_symmetry_space_group_name_H-M	'P1'
_symmetry_Int_Tables_number	1
_symmetry_cell_setting	triclinic
loop_
_symmetry_equiv_pos_as_xyz
  x,y,z
_cell_length_a	30.585
_cell_length_b	30.585
_cell_length_c	27.348
_cell_angle_alpha	90
_cell_angle_beta	90
_cell_angle_gamma	90
loop_
_atom_site_label
_atom_site_type_symbol
_atom_site_fract_x
_atom_site_fract_y
_atom_site_fract_z
_atom_site_charge
Mof_Nb	Nb	0.04054	0.9901	0.80646	0.726
Mof_Nb	Nb	0.04113	0.99012	0.6993	0.729
Mof_Nb	Nb	0.98069	0.93278	0.75251	0.826
Mof_Nb	Nb	0.947	0.00916	0.80588	0.78
Mof_Nb	Nb	0.94739	0.00901	0.6987	0.783
Mof_Nb	Nb	0.00743	0.06633	0.75254	0.699
Mof_Cl	Cl	0.03291	0.91028	0.816	-0.55
Mof_Cl	Cl	0.99338	0.99952	0.87885	-0.449
Mof_Cl	Cl	0.10461	0.97778	0.75344	-0.448
Mof_Cl	Cl	0.06469	0.06662	0.81624	-0.488
Mof_Cl	Cl	0.03377	0.91055	0.68975	-0.568
Mof_Cl	Cl	0.99461	0.99954	0.62648	-0.464
Mof_Cl	Cl	0.06551	0.06666	0.68976	-0.483
Mof_Cl	Cl	0.9226	0.93247	0.8153	-0.491
Mof_Cl	Cl	0.92334	0.93239	0.68924	-0.493
Mof_Cl	Cl	0.8837	0.0214	0.75208	-0.457
Mof_Cl	Cl	0.95429	0.08925	0.81519	-0.482
Mof_Cl	Cl	0.95467	0.08897	0.68914	-0.487
Mof_N 	N 	0.11562	0.96749	0.89528	-0.048
Mof_N 	N 	0.11954	0.97074	0.61336	-0.05
Mof_N 	N 	0.96749	0.82076	0.7512	-0.137
Mof_N 	N 	0.87015	0.031	0.89337	-0.042
Mof_N 	N 	0.86942	0.02771	0.61216	-0.043
Mof_N 	N 	0.02371	0.17753	0.7515	-0.156
Mof_N 	N 	0.03939	0.77021	0.80087	-0.29
Mof_N 	N 	0.03908	0.77111	0.69996	-0.292
Mof_C 	C 	0.09109	0.97726	0.86575	0.058
Mof_C 	C 	0.09338	0.97819	0.64179	0.054
Mof_C 	C 	0.96911	0.85843	0.75203	0.039
Mof_C 	C 	0.89543	0.02188	0.86448	0.063
Mof_C 	C 	0.89562	0.01998	0.6406	0.056
Mof_C 	C 	0.02017	0.14027	0.75211	0.039
Mof_C 	C 	0.9769	0.2455	0.6499	0.111
Mof_C 	C 	0.91945	0.21912	0.70547	0.747
Mof_C 	C 	0.8941	0.2089	0.66018	-1.148
Mof_H 	H 	0.912	0.2156	0.6314	0.393
Mof_H 	H 	0.8674	0.2266	0.6595	0.4
Mof_H 	H 	0.8863	0.1778	0.66	0.407
Mof_C 	C 	0.90078	0.21191	0.75113	-0.767
Mof_H 	H 	0.8715	0.2017	0.7514	0.306
Mof_C 	C 	0.9827	0.232	0.8513	0.114
Mof_C 	C 	0.92028	0.21804	0.7963	0.75
Mof_C 	C 	0.8955	0.2054	0.84174	-1.135
Mof_H 	H 	0.8669	0.1934	0.8326	0.397
Mof_H 	H 	0.8914	0.2312	0.8624	0.394
Mof_H 	H 	0.9121	0.1832	0.8598	0.401
Mof_C 	C 	0.09376	0.81522	0.66003	-0.897
Mof_H 	H 	0.0805	0.802	0.6309	0.313
Mof_H 	H 	0.1247	0.8071	0.6617	0.335
Mof_H 	H 	0.0911	0.8471	0.6581	0.336
Mof_C 	C 	0.07055	0.79895	0.70505	0.474
Mof_C 	C 	0.0847	0.81366	0.75082	-0.519
Mof_H 	H 	0.1058	0.8365	0.751	0.238
Mof_C 	C 	0.0026	0.2257	0.1004	0.046
Mof_C 	C 	0.07105	0.79835	0.79574	0.472
Mof_C 	C 	0.09393	0.81311	0.84166	-0.878
Mof_H 	H 	0.117	0.8341	0.8332	0.329
Mof_H 	H 	0.1069	0.7878	0.8581	0.321
Mof_H 	H 	0.0728	0.8271	0.8636	0.316
Mof_C 	C 	0.025	0.752	0.6504	-0.03
Mof_O 	O 	0.95864	0.23463	0.69978	-0.535
Mof_O 	O 	0.95863	0.23431	0.80149	-0.542
Mof_O 	O 	0.02021	0.21061	0.05087	-0.533
Mof_O 	O 	0.02111	0.21092	0.94996	-0.529
Mof_Nb	Nb	0.54054	0.4901	0.30646	0.764
Mof_Nb	Nb	0.54113	0.49012	0.1993	0.766
Mof_Nb	Nb	0.48069	0.43278	0.25251	0.762
Mof_Nb	Nb	0.447	0.50916	0.30588	0.762
Mof_Nb	Nb	0.44739	0.50901	0.1987	0.765
Mof_Nb	Nb	0.50743	0.56633	0.25254	0.752
Mof_Cl	Cl	0.53291	0.41028	0.316	-0.526
Mof_Cl	Cl	0.49338	0.49952	0.37885	-0.477
Mof_Cl	Cl	0.60461	0.47778	0.25344	-0.457
Mof_Cl	Cl	0.56469	0.56662	0.31624	-0.492
Mof_Cl	Cl	0.53377	0.41055	0.18975	-0.543
Mof_Cl	Cl	0.49461	0.49954	0.12648	-0.493
Mof_Cl	Cl	0.56551	0.56666	0.18976	-0.487
Mof_Cl	Cl	0.4226	0.43247	0.3153	-0.486
Mof_Cl	Cl	0.42334	0.43239	0.18924	-0.487
Mof_Cl	Cl	0.3837	0.5214	0.25208	-0.453
Mof_Cl	Cl	0.45429	0.58925	0.31519	-0.504
Mof_Cl	Cl	0.45467	0.58897	0.18914	-0.511
Mof_N 	N 	0.61562	0.46749	0.39528	-0.046
Mof_N 	N 	0.61954	0.47074	0.11336	-0.048
Mof_N 	N 	0.46749	0.32076	0.2512	-0.147
Mof_N 	N 	0.37015	0.531	0.39337	-0.044
Mof_N 	N 	0.36942	0.52771	0.11216	-0.045
Mof_N 	N 	0.52371	0.67753	0.2515	-0.153
Mof_N 	N 	0.53939	0.27021	0.30087	-0.294
Mof_N 	N 	0.53908	0.27111	0.19996	-0.294
Mof_C 	C 	0.59109	0.47726	0.36575	0.059
Mof_C 	C 	0.59338	0.47819	0.14179	0.054
Mof_C 	C 	0.46911	0.35843	0.25203	0.036
Mof_C 	C 	0.39543	0.52188	0.36448	0.065
Mof_C 	C 	0.39562	0.51998	0.1406	0.057
Mof_C 	C 	0.52017	0.64027	0.25211	0.044
Mof_C 	C 	0.4769	0.7455	0.1499	0.079
Mof_C 	C 	0.41945	0.71912	0.20547	0.749
Mof_C 	C 	0.3941	0.7089	0.16018	-1.149
Mof_H 	H 	0.412	0.7156	0.1314	0.392
Mof_H 	H 	0.3674	0.7266	0.1595	0.401
Mof_H 	H 	0.3863	0.6778	0.16	0.406
Mof_C 	C 	0.40078	0.71191	0.25113	-0.774
Mof_H 	H 	0.3715	0.7017	0.2514	0.308
Mof_C 	C 	0.4827	0.732	0.3513	0.061
Mof_C 	C 	0.42028	0.71804	0.2963	0.751
Mof_C 	C 	0.3955	0.7054	0.34174	-1.134
Mof_H 	H 	0.3669	0.6934	0.3326	0.396
Mof_H 	H 	0.3914	0.7312	0.3624	0.394
Mof_H 	H 	0.4121	0.6832	0.3598	0.399
Mof_C 	C 	0.59376	0.31522	0.16003	-0.903
Mof_H 	H 	0.5805	0.302	0.1309	0.317
Mof_H 	H 	0.6247	0.3071	0.1617	0.336
Mof_H 	H 	0.5911	0.3471	0.1581	0.34
Mof_C 	C 	0.57055	0.29895	0.20505	0.48
Mof_C 	C 	0.5847	0.31366	0.25082	-0.522
Mof_H 	H 	0.6058	0.3365	0.251	0.239
Mof_C 	C 	0.5026	0.7257	0.6004	0.084
Mof_C 	C 	0.57105	0.29835	0.29574	0.478
Mof_C 	C 	0.59393	0.31311	0.34166	-0.887
Mof_H 	H 	0.617	0.3341	0.3332	0.332
Mof_H 	H 	0.6069	0.2878	0.3581	0.323
Mof_H 	H 	0.5728	0.3271	0.3636	0.323
Mof_C 	C 	0.525	0.252	0.1504	-0.011
Mof_O 	O 	0.45864	0.73463	0.19978	-0.549
Mof_O 	O 	0.45863	0.73431	0.30149	-0.552
Mof_O 	O 	0.52021	0.71061	0.55087	-0.542
Mof_O 	O 	0.52111	0.71092	0.44996	-0.54
Mof_Nb	Nb	0.45946	0.0099	0.30646	0.765
Mof_Nb	Nb	0.45887	0.00988	0.1993	0.766
Mof_Nb	Nb	0.51931	0.06722	0.25251	0.762
Mof_Nb	Nb	0.553	0.99084	0.30588	0.762
Mof_Nb	Nb	0.55261	0.99099	0.1987	0.765
Mof_Nb	Nb	0.49257	0.93367	0.25254	0.752
Mof_Cl	Cl	0.46709	0.08972	0.316	-0.526
Mof_Cl	Cl	0.50662	0.00048	0.37885	-0.477
Mof_Cl	Cl	0.39539	0.02222	0.25344	-0.457
Mof_Cl	Cl	0.43531	0.93338	0.31624	-0.492
Mof_Cl	Cl	0.46623	0.08945	0.18975	-0.543
Mof_Cl	Cl	0.50539	0.00046	0.12648	-0.493
Mof_Cl	Cl	0.43449	0.93334	0.18976	-0.487
Mof_Cl	Cl	0.5774	0.06753	0.3153	-0.486
Mof_Cl	Cl	0.57666	0.06761	0.18924	-0.487
Mof_Cl	Cl	0.6163	0.9786	0.25208	-0.453
Mof_Cl	Cl	0.54571	0.91075	0.31519	-0.504
Mof_Cl	Cl	0.54533	0.91103	0.18914	-0.511
Mof_N 	N 	0.38438	0.03251	0.39528	-0.045
Mof_N 	N 	0.38046	0.02926	0.11336	-0.048
Mof_N 	N 	0.53251	0.17924	0.2512	-0.147
Mof_N 	N 	0.62985	0.969	0.39337	-0.044
Mof_N 	N 	0.63058	0.97229	0.11216	-0.045
Mof_N 	N 	0.47629	0.82247	0.2515	-0.153
Mof_N 	N 	0.46061	0.22979	0.30087	-0.294
Mof_N 	N 	0.46092	0.22889	0.19996	-0.294
Mof_C 	C 	0.40891	0.02274	0.36575	0.059
Mof_C 	C 	0.40662	0.02181	0.14179	0.055
Mof_C 	C 	0.53089	0.14157	0.25203	0.036
Mof_C 	C 	0.60457	0.97812	0.36448	0.065
Mof_C 	C 	0.60438	0.98002	0.1406	0.057
Mof_C 	C 	0.47983	0.85973	0.25211	0.045
Mof_C 	C 	0.5231	0.7545	0.1499	0.079
Mof_C 	C 	0.58055	0.78088	0.20547	0.749
Mof_C 	C 	0.6059	0.7911	0.16018	-1.149
Mof_H 	H 	0.588	0.7844	0.1314	0.392
Mof_H 	H 	0.6326	0.7734	0.1595	0.401
Mof_H 	H 	0.6137	0.8222	0.16	0.405
Mof_C 	C 	0.59922	0.78809	0.25113	-0.774
Mof_H 	H 	0.6285	0.7983	0.2514	0.308
Mof_C 	C 	0.5173	0.768	0.3513	0.061
Mof_C 	C 	0.57972	0.78196	0.2963	0.751
Mof_C 	C 	0.6045	0.7946	0.34174	-1.134
Mof_H 	H 	0.6331	0.8066	0.3326	0.396
Mof_H 	H 	0.6086	0.7688	0.3624	0.394
Mof_H 	H 	0.5879	0.8168	0.3598	0.399
Mof_C 	C 	0.40624	0.18478	0.16003	-0.903
Mof_H 	H 	0.4195	0.198	0.1309	0.317
Mof_H 	H 	0.3753	0.1929	0.1617	0.336
Mof_H 	H 	0.4089	0.1529	0.1581	0.34
Mof_C 	C 	0.42945	0.20105	0.20505	0.48
Mof_C 	C 	0.4153	0.18634	0.25082	-0.523
Mof_H 	H 	0.3942	0.1635	0.251	0.239
Mof_C 	C 	0.4974	0.7743	0.6004	0.084
Mof_C 	C 	0.42895	0.20165	0.29574	0.479
Mof_C 	C 	0.40607	0.18689	0.34166	-0.887
Mof_H 	H 	0.383	0.1659	0.3332	0.332
Mof_H 	H 	0.3931	0.2122	0.3581	0.323
Mof_H 	H 	0.4272	0.1729	0.3636	0.323
Mof_C 	C 	0.475	0.248	0.1504	-0.011
Mof_O 	O 	0.54136	0.76537	0.19978	-0.549
Mof_O 	O 	0.54137	0.76569	0.30149	-0.552
Mof_O 	O 	0.47979	0.78939	0.55087	-0.542
Mof_O 	O 	0.47889	0.78908	0.44996	-0.54
Mof_Nb	Nb	0.95946	0.5099	0.80646	0.801
Mof_Nb	Nb	0.95887	0.50988	0.6993	0.803
Mof_Nb	Nb	0.01931	0.56722	0.75251	0.7
Mof_Nb	Nb	0.053	0.49084	0.80588	0.743
Mof_Nb	Nb	0.05261	0.49099	0.6987	0.746
Mof_Nb	Nb	0.99257	0.43367	0.75254	0.808
Mof_Cl	Cl	0.96709	0.58972	0.816	-0.5
Mof_Cl	Cl	0.00662	0.50048	0.87885	-0.503
Mof_Cl	Cl	0.89539	0.52222	0.75344	-0.466
Mof_Cl	Cl	0.93531	0.43338	0.81624	-0.494
Mof_Cl	Cl	0.96623	0.58945	0.68975	-0.517
Mof_Cl	Cl	0.00539	0.50046	0.62648	-0.52
Mof_Cl	Cl	0.93449	0.43334	0.68976	-0.49
Mof_Cl	Cl	0.0774	0.56753	0.8153	-0.48
Mof_Cl	Cl	0.07666	0.56761	0.68924	-0.482
Mof_Cl	Cl	0.1163	0.4786	0.75208	-0.448
Mof_Cl	Cl	0.04571	0.41075	0.81519	-0.525
Mof_Cl	Cl	0.04533	0.41103	0.68914	-0.533
Mof_N 	N 	0.88438	0.53251	0.89528	-0.043
Mof_N 	N 	0.88046	0.52926	0.61336	-0.045
Mof_N 	N 	0.03251	0.67924	0.7512	-0.149
Mof_N 	N 	0.12985	0.469	0.89337	-0.045
Mof_N 	N 	0.13058	0.47229	0.61216	-0.047
Mof_N 	N 	0.97629	0.32247	0.7515	-0.142
Mof_N 	N 	0.96061	0.72979	0.80087	-0.284
Mof_N 	N 	0.96092	0.72889	0.69996	-0.283
Mof_C 	C 	0.90891	0.52274	0.86575	0.059
Mof_C 	C 	0.90662	0.52181	0.64179	0.055
Mof_C 	C 	0.03089	0.64157	0.75203	0.032
Mof_C 	C 	0.10457	0.47812	0.86448	0.067
Mof_C 	C 	0.10438	0.48002	0.6406	0.059
Mof_C 	C 	0.97983	0.35973	0.75211	0.05
Mof_C 	C 	0.0231	0.2545	0.6499	0.047
Mof_C 	C 	0.08055	0.28088	0.70547	0.74
Mof_C 	C 	0.1059	0.2911	0.66018	-1.14
Mof_H 	H 	0.088	0.2844	0.6314	0.388
Mof_H 	H 	0.1326	0.2734	0.6595	0.399
Mof_H 	H 	0.1137	0.3222	0.66	0.402
Mof_C 	C 	0.09922	0.28809	0.75113	-0.767
Mof_H 	H 	0.1285	0.2983	0.7514	0.306
Mof_C 	C 	0.0173	0.268	0.8513	0.009
Mof_C 	C 	0.07972	0.28196	0.7963	0.741
Mof_C 	C 	0.1045	0.2946	0.84174	-1.124
Mof_H 	H 	0.1331	0.3066	0.8326	0.393
Mof_H 	H 	0.1086	0.2688	0.8624	0.391
Mof_H 	H 	0.0879	0.3168	0.8598	0.394
Mof_C 	C 	0.90624	0.68478	0.66003	-0.907
Mof_H 	H 	0.9195	0.698	0.6309	0.321
Mof_H 	H 	0.8753	0.6929	0.6617	0.337
Mof_H 	H 	0.9089	0.6529	0.6581	0.343
Mof_C 	C 	0.92945	0.70105	0.70505	0.484
Mof_C 	C 	0.9153	0.68634	0.75082	-0.52
Mof_H 	H 	0.8942	0.6635	0.751	0.238
Mof_C 	C 	0.9974	0.2743	0.1004	0.121
Mof_C 	C 	0.92895	0.70165	0.79574	0.483
Mof_C 	C 	0.90607	0.68689	0.84166	-0.894
Mof_H 	H 	0.883	0.6659	0.8332	0.334
Mof_H 	H 	0.8931	0.7122	0.8581	0.326
Mof_H 	H 	0.9272	0.6729	0.8636	0.33
Mof_C 	C 	0.975	0.748	0.6504	0.012
Mof_O 	O 	0.04136	0.26537	0.69978	-0.542
Mof_O 	O 	0.04137	0.26569	0.80149	-0.541
Mof_O 	O 	0.97979	0.28939	0.05087	-0.529
Mof_O 	O 	0.97889	0.28908	0.94996	-0.531
Mof_Nb	Nb	0.7599	0.29054	0.05646	0.764
Mof_Nb	Nb	0.75988	0.29113	0.9493	0.766
Mof_Nb	Nb	0.81722	0.23069	0.00251	0.764
Mof_Nb	Nb	0.74084	0.197	0.05588	0.762
Mof_Nb	Nb	0.74099	0.19739	0.9487	0.765
Mof_Nb	Nb	0.68367	0.25743	0.00254	0.753
Mof_Cl	Cl	0.83972	0.28291	0.066	-0.527
Mof_Cl	Cl	0.75048	0.24338	0.12885	-0.475
Mof_Cl	Cl	0.77222	0.35461	0.00344	-0.459
Mof_Cl	Cl	0.68338	0.31469	0.06624	-0.488
Mof_Cl	Cl	0.83945	0.28377	0.93975	-0.547
Mof_Cl	Cl	0.75046	0.24461	0.87648	-0.493
Mof_Cl	Cl	0.68334	0.31551	0.93976	-0.487
Mof_Cl	Cl	0.81753	0.1726	0.0653	-0.481
Mof_Cl	Cl	0.81761	0.17334	0.93924	-0.486
Mof_Cl	Cl	0.7286	0.1337	0.00208	-0.452
Mof_Cl	Cl	0.66075	0.20429	0.06519	-0.504
Mof_Cl	Cl	0.66103	0.20467	0.93914	-0.511
Mof_N 	N 	0.78251	0.36562	0.14528	-0.046
Mof_N 	N 	0.77926	0.36954	0.86336	-0.048
Mof_N 	N 	0.92924	0.21749	0.0012	-0.135
Mof_N 	N 	0.719	0.12015	0.14337	-0.043
Mof_N 	N 	0.72229	0.11942	0.86216	-0.045
Mof_N 	N 	0.57247	0.27371	0.0015	-0.153
Mof_C 	C 	0.77274	0.34109	0.11575	0.059
Mof_C 	C 	0.77181	0.34338	0.89179	0.053
Mof_C 	C 	0.89157	0.21911	0.00203	0.041
Mof_C 	C 	0.72812	0.14543	0.11448	0.065
Mof_C 	C 	0.73002	0.14562	0.8906	0.057
Mof_C 	C 	0.60973	0.27017	0.00211	0.046
Mof_C 	C 	0.5045	0.2269	0.8999	0.079
Mof_C 	C 	0.53088	0.16945	0.95547	0.749
Mof_C 	C 	0.5411	0.1441	0.91018	-1.149
Mof_H 	H 	0.5344	0.162	0.8814	0.392
Mof_H 	H 	0.5234	0.1174	0.9095	0.401
Mof_H 	H 	0.5722	0.1363	0.91	0.406
Mof_C 	C 	0.53809	0.15078	0.00113	-0.775
Mof_H 	H 	0.5483	0.1215	0.0014	0.309
Mof_C 	C 	0.518	0.2327	0.1013	0.084
Mof_C 	C 	0.53196	0.17028	0.0463	0.754
Mof_C 	C 	0.5446	0.1455	0.09174	-1.137
Mof_H 	H 	0.5566	0.1169	0.0826	0.397
Mof_H 	H 	0.5188	0.1414	0.1124	0.395
Mof_H 	H 	0.5668	0.1621	0.1098	0.399
Mof_C 	C 	0.93478	0.34376	0.91003	-1.126
Mof_H 	H 	0.948	0.3305	0.8809	0.385
Mof_H 	H 	0.9429	0.3747	0.9117	0.403
Mof_H 	H 	0.9029	0.3411	0.9081	0.402
Mof_C 	C 	0.95105	0.32055	0.95505	0.729
Mof_C 	C 	0.93634	0.3347	0.00082	-0.739
Mof_H 	H 	0.9135	0.3558	0.001	0.307
Mof_C 	C 	0.5243	0.2526	0.3504	-0.007
Mof_C 	C 	0.95165	0.32105	0.04574	0.727
Mof_C 	C 	0.93689	0.34393	0.09166	-1.108
Mof_H 	H 	0.9159	0.367	0.0832	0.394
Mof_H 	H 	0.9622	0.3569	0.1081	0.393
Mof_H 	H 	0.9229	0.3228	0.1136	0.387
Mof_C 	C 	0.998	0.275	0.9004	0.115
Mof_O 	O 	0.51537	0.20864	0.94978	-0.549
Mof_O 	O 	0.51569	0.20863	0.05149	-0.557
Mof_Nb	Nb	0.2599	0.79054	0.55646	0.764
Mof_Nb	Nb	0.25988	0.79113	0.4493	0.766
Mof_Nb	Nb	0.31722	0.73069	0.50251	0.763
Mof_Nb	Nb	0.24084	0.697	0.55588	0.762
Mof_Nb	Nb	0.24099	0.69739	0.4487	0.765
Mof_Nb	Nb	0.18367	0.75743	0.50254	0.752
Mof_Cl	Cl	0.33972	0.78291	0.566	-0.528
Mof_Cl	Cl	0.25048	0.74338	0.62885	-0.474
Mof_Cl	Cl	0.27222	0.85461	0.50344	-0.46
Mof_Cl	Cl	0.18338	0.81469	0.56624	-0.489
Mof_Cl	Cl	0.33945	0.78377	0.43975	-0.547
Mof_Cl	Cl	0.25046	0.74461	0.37648	-0.493
Mof_Cl	Cl	0.18334	0.81551	0.43976	-0.488
Mof_Cl	Cl	0.31753	0.6726	0.5653	-0.482
Mof_Cl	Cl	0.31761	0.67334	0.43924	-0.487
Mof_Cl	Cl	0.2286	0.6337	0.50208	-0.453
Mof_Cl	Cl	0.16075	0.70429	0.56519	-0.503
Mof_Cl	Cl	0.16103	0.70467	0.43914	-0.51
Mof_N 	N 	0.28251	0.86562	0.64528	-0.046
Mof_N 	N 	0.27926	0.86954	0.36336	-0.048
Mof_N 	N 	0.42924	0.71749	0.5012	-0.146
Mof_N 	N 	0.219	0.62015	0.64337	-0.043
Mof_N 	N 	0.22229	0.61942	0.36216	-0.045
Mof_N 	N 	0.07247	0.77371	0.5015	-0.155
Mof_C 	C 	0.27274	0.84109	0.61575	0.059
Mof_C 	C 	0.27181	0.84338	0.39179	0.053
Mof_C 	C 	0.39157	0.71911	0.50203	0.04
Mof_C 	C 	0.22812	0.64543	0.61448	0.065
Mof_C 	C 	0.23002	0.64562	0.3906	0.057
Mof_C 	C 	0.10973	0.77017	0.50211	0.044
Mof_C 	C 	0.0045	0.7269	0.3999	0.042
Mof_C 	C 	0.03088	0.66945	0.45547	0.735
Mof_C 	C 	0.0411	0.6441	0.41018	-1.131
Mof_H 	H 	0.0344	0.662	0.3814	0.385
Mof_H 	H 	0.0234	0.6174	0.4095	0.389
Mof_H 	H 	0.0722	0.6363	0.41	0.4
Mof_C 	C 	0.03809	0.65078	0.50113	-0.766
Mof_H 	H 	0.0483	0.6215	0.5014	0.303
Mof_C 	C 	0.018	0.7327	0.6013	0.063
Mof_C 	C 	0.03196	0.67028	0.5463	0.741
Mof_C 	C 	0.0446	0.6455	0.59174	-1.121
Mof_H 	H 	0.0566	0.6169	0.5826	0.39
Mof_H 	H 	0.0188	0.6414	0.6124	0.383
Mof_H 	H 	0.0668	0.6621	0.6098	0.395
Mof_C 	C 	0.43478	0.84376	0.41003	-1.12
Mof_H 	H 	0.448	0.8305	0.3809	0.381
Mof_H 	H 	0.4429	0.8747	0.4117	0.397
Mof_H 	H 	0.4029	0.8411	0.4081	0.4
Mof_C 	C 	0.45105	0.82055	0.45505	0.726
Mof_C 	C 	0.43634	0.8347	0.50082	-0.744
Mof_H 	H 	0.4135	0.8558	0.501	0.307
Mof_C 	C 	0.0243	0.7526	0.8504	-0.035
Mof_C 	C 	0.45165	0.82105	0.54574	0.726
Mof_C 	C 	0.43689	0.84393	0.59166	-1.104
Mof_H 	H 	0.4159	0.867	0.5832	0.391
Mof_H 	H 	0.4622	0.8569	0.6081	0.387
Mof_H 	H 	0.4229	0.8228	0.6136	0.386
Mof_C 	C 	0.498	0.775	0.4004	0.06
Mof_O 	O 	0.01537	0.70864	0.44978	-0.54
Mof_O 	O 	0.01569	0.70863	0.55149	-0.552
Mof_Nb	Nb	0.7401	0.70946	0.55646	0.764
Mof_Nb	Nb	0.74012	0.70887	0.4493	0.766
Mof_Nb	Nb	0.68278	0.76931	0.50251	0.763
Mof_Nb	Nb	0.75916	0.803	0.55588	0.762
Mof_Nb	Nb	0.75901	0.80261	0.4487	0.765
Mof_Nb	Nb	0.81633	0.74257	0.50254	0.753
Mof_Cl	Cl	0.66028	0.71709	0.566	-0.528
Mof_Cl	Cl	0.74952	0.75662	0.62885	-0.475
Mof_Cl	Cl	0.72778	0.64539	0.50344	-0.459
Mof_Cl	Cl	0.81662	0.68531	0.56624	-0.487
Mof_Cl	Cl	0.66055	0.71623	0.43975	-0.548
Mof_Cl	Cl	0.74954	0.75539	0.37648	-0.493
Mof_Cl	Cl	0.81666	0.68449	0.43976	-0.485
Mof_Cl	Cl	0.68247	0.8274	0.5653	-0.482
Mof_Cl	Cl	0.68239	0.82666	0.43924	-0.487
Mof_Cl	Cl	0.7714	0.8663	0.50208	-0.452
Mof_Cl	Cl	0.83925	0.79571	0.56519	-0.503
Mof_Cl	Cl	0.83897	0.79533	0.43914	-0.511
Mof_N 	N 	0.71749	0.63438	0.64528	-0.046
Mof_N 	N 	0.72074	0.63046	0.36336	-0.048
Mof_N 	N 	0.57076	0.78251	0.5012	-0.146
Mof_N 	N 	0.781	0.87985	0.64337	-0.043
Mof_N 	N 	0.77771	0.88058	0.36216	-0.045
Mof_N 	N 	0.92753	0.72629	0.5015	-0.143
Mof_C 	C 	0.72726	0.65891	0.61575	0.059
Mof_C 	C 	0.72819	0.65662	0.39179	0.053
Mof_C 	C 	0.60843	0.78089	0.50203	0.04
Mof_C 	C 	0.77188	0.85457	0.61448	0.065
Mof_C 	C 	0.76998	0.85438	0.3906	0.057
Mof_C 	C 	0.89027	0.72983	0.50211	0.046
Mof_C 	C 	0.9955	0.7731	0.3999	0.117
Mof_C 	C 	0.96912	0.83055	0.45547	0.754
Mof_C 	C 	0.9589	0.8559	0.41018	-1.159
Mof_H 	H 	0.9656	0.838	0.3814	0.397
Mof_H 	H 	0.9766	0.8826	0.4095	0.412
Mof_H 	H 	0.9278	0.8637	0.41	0.409
Mof_C 	C 	0.96191	0.84922	0.50113	-0.771
Mof_H 	H 	0.9517	0.8785	0.5014	0.311
Mof_C 	C 	0.982	0.7673	0.6013	0.105
Mof_C 	C 	0.96804	0.82972	0.5463	0.757
Mof_C 	C 	0.9554	0.8545	0.59174	-1.144
Mof_H 	H 	0.9434	0.8831	0.5826	0.402
Mof_H 	H 	0.9812	0.8586	0.6124	0.405
Mof_H 	H 	0.9332	0.8379	0.6098	0.401
Mof_C 	C 	0.56522	0.65624	0.41003	-1.12
Mof_H 	H 	0.552	0.6695	0.3809	0.381
Mof_H 	H 	0.5571	0.6253	0.4117	0.397
Mof_H 	H 	0.5971	0.6589	0.4081	0.4
Mof_C 	C 	0.54895	0.67945	0.45505	0.726
Mof_C 	C 	0.56366	0.6653	0.50082	-0.744
Mof_H 	H 	0.5865	0.6442	0.501	0.307
Mof_C 	C 	0.9757	0.7474	0.8504	0.024
Mof_C 	C 	0.54835	0.67895	0.54574	0.726
Mof_C 	C 	0.56311	0.65607	0.59166	-1.104
Mof_H 	H 	0.5841	0.633	0.5832	0.391
Mof_H 	H 	0.5378	0.6431	0.6081	0.387
Mof_H 	H 	0.5771	0.6772	0.6136	0.386
Mof_C 	C 	0.502	0.725	0.4004	0.06
Mof_O 	O 	0.98463	0.79136	0.44978	-0.537
Mof_O 	O 	0.98431	0.79137	0.55149	-0.54
Mof_Nb	Nb	0.2401	0.20946	0.05646	0.764
Mof_Nb	Nb	0.24012	0.20887	0.9493	0.766
Mof_Nb	Nb	0.18278	0.26931	0.00251	0.764
Mof_Nb	Nb	0.25916	0.303	0.05588	0.762
Mof_Nb	Nb	0.25901	0.30261	0.9487	0.765
Mof_Nb	Nb	0.31633	0.24257	0.00254	0.753
Mof_Cl	Cl	0.16028	0.21709	0.066	-0.527
Mof_Cl	Cl	0.24952	0.25662	0.12885	-0.474
Mof_Cl	Cl	0.22778	0.14539	0.00344	-0.459
Mof_Cl	Cl	0.31662	0.18531	0.06624	-0.488
Mof_Cl	Cl	0.16055	0.21623	0.93975	-0.547
Mof_Cl	Cl	0.24954	0.25539	0.87648	-0.493
Mof_Cl	Cl	0.31666	0.18449	0.93976	-0.486
Mof_Cl	Cl	0.18247	0.3274	0.0653	-0.483
Mof_Cl	Cl	0.18239	0.32666	0.93924	-0.488
Mof_Cl	Cl	0.2714	0.3663	0.00208	-0.452
Mof_Cl	Cl	0.33925	0.29571	0.06519	-0.503
Mof_Cl	Cl	0.33897	0.29533	0.93914	-0.511
Mof_N 	N 	0.21749	0.13438	0.14528	-0.046
Mof_N 	N 	0.22074	0.13046	0.86336	-0.048
Mof_N 	N 	0.07076	0.28251	0.0012	-0.148
Mof_N 	N 	0.281	0.37985	0.14337	-0.043
Mof_N 	N 	0.27771	0.38058	0.86216	-0.045
Mof_N 	N 	0.42753	0.22629	0.0015	-0.153
Mof_C 	C 	0.22726	0.15891	0.11575	0.059
Mof_C 	C 	0.22819	0.15662	0.89179	0.053
Mof_C 	C 	0.10843	0.28089	0.00203	0.039
Mof_C 	C 	0.27188	0.35457	0.11448	0.065
Mof_C 	C 	0.26998	0.35438	0.8906	0.057
Mof_C 	C 	0.39027	0.22983	0.00211	0.046
Mof_C 	C 	0.4955	0.2731	0.8999	0.079
Mof_C 	C 	0.46912	0.33055	0.95547	0.75
Mof_C 	C 	0.4589	0.3559	0.91018	-1.15
Mof_H 	H 	0.4656	0.338	0.8814	0.392
Mof_H 	H 	0.4766	0.3826	0.9095	0.401
Mof_H 	H 	0.4278	0.3637	0.91	0.406
Mof_C 	C 	0.46191	0.34922	0.00113	-0.776
Mof_H 	H 	0.4517	0.3785	0.0014	0.309
Mof_C 	C 	0.482	0.2673	0.1013	0.084
Mof_C 	C 	0.46804	0.32972	0.0463	0.754
Mof_C 	C 	0.4554	0.3545	0.09174	-1.137
Mof_H 	H 	0.4434	0.3831	0.0826	0.397
Mof_H 	H 	0.4812	0.3586	0.1124	0.395
Mof_H 	H 	0.4332	0.3379	0.1098	0.399
Mof_C 	C 	0.06522	0.15624	0.91003	-1.106
Mof_H 	H 	0.052	0.1695	0.8809	0.376
Mof_H 	H 	0.0571	0.1253	0.9117	0.388
Mof_H 	H 	0.0971	0.1589	0.9081	0.396
Mof_C 	C 	0.04895	0.17945	0.95505	0.713
Mof_C 	C 	0.06366	0.1653	0.00082	-0.734
Mof_H 	H 	0.0865	0.1442	0.001	0.303
Mof_C 	C 	0.4757	0.2474	0.3504	-0.007
Mof_C 	C 	0.04835	0.17895	0.04574	0.715
Mof_C 	C 	0.06311	0.15607	0.09166	-1.091
Mof_H 	H 	0.0841	0.133	0.0832	0.386
Mof_H 	H 	0.0378	0.1431	0.1081	0.378
Mof_H 	H 	0.0771	0.1772	0.1136	0.383
Mof_C 	C 	0.002	0.225	0.9004	0.007
Mof_O 	O 	0.48463	0.29136	0.94978	-0.549
Mof_O 	O 	0.48431	0.29137	0.05149	-0.557
Mof_Mn	Mn	-1.32713e-32	0.25	0.75068	1.153
Mof_Mn	Mn	0.5	0.75	0.25068	1.203
Mof_Mn	Mn	0.5	0.25	0.00068	1.205
Mof_Mn	Mn	9.57258e-33	0.75	0.50068	1.154
Mof_Mn	Mn	1.04098e-32	0.75	0.7504	0.862
Mof_Mn	Mn	0.5	0.25	0.2504	0.908
Mof_Mn	Mn	-1.23981e-33	0.25	0.0004	1.148
Mof_Mn	Mn	0.5	0.75	0.5004	1.197
Mof_N 	N 	0.04136	0.76537	0.30022	-0.292
Mof_N 	N 	0.04137	0.76569	0.19851	-0.293
Mof_N 	N 	0.54136	0.26537	0.80022	-0.296
Mof_N 	N 	0.54137	0.26569	0.69851	-0.3
Mof_N 	N 	0.45864	0.23463	0.80022	-0.296
Mof_N 	N 	0.45863	0.23431	0.69851	-0.3
Mof_N 	N 	0.95864	0.73463	0.30022	-0.287
Mof_N 	N 	0.95863	0.73431	0.19851	-0.293
Mof_N 	N 	0.98463	0.29136	0.55022	-0.289
Mof_N 	N 	0.98431	0.29137	0.44851	-0.292
Mof_N 	N 	0.48463	0.79136	0.05022	-0.296
Mof_N 	N 	0.48431	0.79137	0.94851	-0.303
Mof_N 	N 	0.51537	0.70864	0.05022	-0.296
Mof_N 	N 	0.51569	0.70863	0.94851	-0.303
Mof_N 	N 	0.01537	0.20864	0.55022	-0.291
Mof_N 	N 	0.01569	0.20863	0.44851	-0.301
Mof_Nb	Nb	0.95946	0.0099	0.19354	0.8
Mof_Nb	Nb	0.95887	0.00988	0.3007	0.802
Mof_Nb	Nb	0.01931	0.06722	0.24749	0.702
Mof_Nb	Nb	0.053	0.99084	0.19412	0.742
Mof_Nb	Nb	0.05261	0.99099	0.3013	0.745
Mof_Nb	Nb	0.99257	0.93367	0.24746	0.809
Mof_Cl	Cl	0.96709	0.08972	0.184	-0.501
Mof_Cl	Cl	0.00662	0.00048	0.12115	-0.502
Mof_Cl	Cl	0.89539	0.02222	0.24656	-0.466
Mof_Cl	Cl	0.93531	0.93338	0.18376	-0.494
Mof_Cl	Cl	0.96623	0.08945	0.31025	-0.515
Mof_Cl	Cl	0.00539	0.00046	0.37352	-0.519
Mof_Cl	Cl	0.93449	0.93334	0.31024	-0.493
Mof_Cl	Cl	0.0774	0.06753	0.1847	-0.48
Mof_Cl	Cl	0.07666	0.06761	0.31076	-0.478
Mof_Cl	Cl	0.1163	0.9786	0.24792	-0.447
Mof_Cl	Cl	0.04571	0.91075	0.18481	-0.523
Mof_Cl	Cl	0.04533	0.91103	0.31086	-0.534
Mof_N 	N 	0.88438	0.03251	0.10472	-0.043
Mof_N 	N 	0.88046	0.02926	0.38664	-0.046
Mof_N 	N 	0.03251	0.17924	0.2488	-0.149
Mof_N 	N 	0.12985	0.969	0.10663	-0.045
Mof_N 	N 	0.13058	0.97229	0.38784	-0.046
Mof_N 	N 	0.97629	0.82247	0.2485	-0.143
Mof_N 	N 	0.96061	0.22979	0.19913	-0.284
Mof_N 	N 	0.96092	0.22889	0.30004	-0.287
Mof_C 	C 	0.90891	0.02274	0.13425	0.059
Mof_C 	C 	0.90662	0.02181	0.35821	0.054
Mof_C 	C 	0.03089	0.14157	0.24797	0.033
Mof_C 	C 	0.10457	0.97812	0.13552	0.067
Mof_C 	C 	0.10438	0.98002	0.3594	0.061
Mof_C 	C 	0.97983	0.85973	0.24789	0.045
Mof_C 	C 	0.0231	0.7545	0.3501	-0.043
Mof_C 	C 	0.08055	0.78088	0.29453	0.487
Mof_C 	C 	0.1059	0.7911	0.33982	-0.914
Mof_H 	H 	0.088	0.7844	0.3686	0.322
Mof_H 	H 	0.1326	0.7734	0.3405	0.336
Mof_H 	H 	0.1137	0.8222	0.34	0.339
Mof_C 	C 	0.09922	0.78809	0.24887	-0.538
Mof_H 	H 	0.1285	0.7983	0.2486	0.235
Mof_C 	C 	0.0173	0.768	0.1487	-0.062
Mof_C 	C 	0.07972	0.78196	0.2037	0.487
Mof_C 	C 	0.1045	0.7946	0.15826	-0.901
Mof_H 	H 	0.1331	0.8066	0.1674	0.333
Mof_H 	H 	0.1086	0.7688	0.1376	0.326
Mof_H 	H 	0.0879	0.8168	0.1402	0.33
Mof_C 	C 	0.90624	0.18478	0.33997	-0.907
Mof_H 	H 	0.9195	0.198	0.3691	0.32
Mof_H 	H 	0.8753	0.1929	0.3383	0.337
Mof_H 	H 	0.9089	0.1529	0.3419	0.344
Mof_C 	C 	0.92945	0.20105	0.29495	0.485
Mof_C 	C 	0.9153	0.18634	0.24918	-0.521
Mof_H 	H 	0.8942	0.1635	0.249	0.239
Mof_C 	C 	0.9974	0.7743	0.8996	0.122
Mof_C 	C 	0.92895	0.20165	0.20426	0.484
Mof_C 	C 	0.90607	0.18689	0.15834	-0.894
Mof_H 	H 	0.883	0.1659	0.1668	0.334
Mof_H 	H 	0.8931	0.2122	0.1419	0.326
Mof_H 	H 	0.9272	0.1729	0.1364	0.33
Mof_C 	C 	0.975	0.248	0.3496	0.033
Mof_O 	O 	0.97979	0.78939	0.94913	-0.529
Mof_O 	O 	0.97889	0.78908	0.05004	-0.536
Mof_Nb	Nb	0.45946	0.5099	0.69354	0.765
Mof_Nb	Nb	0.45887	0.50988	0.8007	0.766
Mof_Nb	Nb	0.51931	0.56722	0.74749	0.762
Mof_Nb	Nb	0.553	0.49084	0.69412	0.762
Mof_Nb	Nb	0.55261	0.49099	0.8013	0.765
Mof_Nb	Nb	0.49257	0.43367	0.74746	0.751
Mof_Cl	Cl	0.46709	0.58972	0.684	-0.526
Mof_Cl	Cl	0.50662	0.50048	0.62115	-0.477
Mof_Cl	Cl	0.39539	0.52222	0.74656	-0.457
Mof_Cl	Cl	0.43531	0.43338	0.68376	-0.492
Mof_Cl	Cl	0.46623	0.58945	0.81025	-0.54
Mof_Cl	Cl	0.50539	0.50046	0.87352	-0.493
Mof_Cl	Cl	0.43449	0.43334	0.81024	-0.49
Mof_Cl	Cl	0.5774	0.56753	0.6847	-0.486
Mof_Cl	Cl	0.57666	0.56761	0.81076	-0.484
Mof_Cl	Cl	0.6163	0.4786	0.74792	-0.451
Mof_Cl	Cl	0.54571	0.41075	0.68481	-0.502
Mof_Cl	Cl	0.54533	0.41103	0.81086	-0.511
Mof_N 	N 	0.38438	0.53251	0.60472	-0.046
Mof_N 	N 	0.38046	0.52926	0.88664	-0.048
Mof_N 	N 	0.53251	0.67924	0.7488	-0.147
Mof_N 	N 	0.62985	0.469	0.60663	-0.043
Mof_N 	N 	0.63058	0.47229	0.88784	-0.044
Mof_N 	N 	0.47629	0.32247	0.7485	-0.155
Mof_N 	N 	0.46061	0.72979	0.69913	-0.294
Mof_N 	N 	0.46092	0.72889	0.80004	-0.298
Mof_C 	C 	0.40891	0.52274	0.63425	0.058
Mof_C 	C 	0.40662	0.52181	0.85821	0.054
Mof_C 	C 	0.53089	0.64157	0.74797	0.037
Mof_C 	C 	0.60457	0.47812	0.63552	0.065
Mof_C 	C 	0.60438	0.48002	0.8594	0.059
Mof_C 	C 	0.47983	0.35973	0.74789	0.04
Mof_C 	C 	0.5231	0.2545	0.8501	-0.012
Mof_C 	C 	0.58055	0.28088	0.79453	0.492
Mof_C 	C 	0.6059	0.2911	0.83982	-0.92
Mof_H 	H 	0.588	0.2844	0.8686	0.325
Mof_H 	H 	0.6326	0.2734	0.8405	0.337
Mof_H 	H 	0.6137	0.3222	0.84	0.342
Mof_C 	C 	0.59922	0.28809	0.74887	-0.542
Mof_H 	H 	0.6285	0.2983	0.7486	0.236
Mof_C 	C 	0.5173	0.268	0.6487	-0.011
Mof_C 	C 	0.57972	0.28196	0.7037	0.492
Mof_C 	C 	0.6045	0.2946	0.65826	-0.907
Mof_H 	H 	0.6331	0.3066	0.6674	0.335
Mof_H 	H 	0.6086	0.2688	0.6376	0.328
Mof_H 	H 	0.5879	0.3168	0.6402	0.334
Mof_C 	C 	0.40624	0.68478	0.83997	-0.903
Mof_H 	H 	0.4195	0.698	0.8691	0.316
Mof_H 	H 	0.3753	0.6929	0.8383	0.336
Mof_H 	H 	0.4089	0.6529	0.8419	0.34
Mof_C 	C 	0.42945	0.70105	0.79495	0.481
Mof_C 	C 	0.4153	0.68634	0.74918	-0.523
Mof_H 	H 	0.3942	0.6635	0.749	0.239
Mof_C 	C 	0.4974	0.2743	0.3996	0.084
Mof_C 	C 	0.42895	0.70165	0.70426	0.479
Mof_C 	C 	0.40607	0.68689	0.65834	-0.887
Mof_H 	H 	0.383	0.6659	0.6668	0.332
Mof_H 	H 	0.3931	0.7122	0.6419	0.323
Mof_H 	H 	0.4272	0.6729	0.6364	0.323
Mof_C 	C 	0.475	0.748	0.8496	0.012
Mof_O 	O 	0.47979	0.28939	0.44913	-0.542
Mof_O 	O 	0.47889	0.28908	0.55004	-0.546
Mof_Nb	Nb	0.54054	0.9901	0.69354	0.765
Mof_Nb	Nb	0.54113	0.99012	0.8007	0.766
Mof_Nb	Nb	0.48069	0.93278	0.74749	0.762
Mof_Nb	Nb	0.447	0.00916	0.69412	0.762
Mof_Nb	Nb	0.44739	0.00901	0.8013	0.765
Mof_Nb	Nb	0.50743	0.06633	0.74746	0.751
Mof_Cl	Cl	0.53291	0.91028	0.684	-0.526
Mof_Cl	Cl	0.49338	0.99952	0.62115	-0.477
Mof_Cl	Cl	0.60461	0.97778	0.74656	-0.458
Mof_Cl	Cl	0.56469	0.06662	0.68376	-0.492
Mof_Cl	Cl	0.53377	0.91055	0.81025	-0.54
Mof_Cl	Cl	0.49461	0.99954	0.87352	-0.493
Mof_Cl	Cl	0.56551	0.06666	0.81024	-0.49
Mof_Cl	Cl	0.4226	0.93247	0.6847	-0.486
Mof_Cl	Cl	0.42334	0.93239	0.81076	-0.484
Mof_Cl	Cl	0.3837	0.0214	0.74792	-0.451
Mof_Cl	Cl	0.45429	0.08925	0.68481	-0.501
Mof_Cl	Cl	0.45467	0.08897	0.81086	-0.511
Mof_N 	N 	0.61562	0.96749	0.60472	-0.046
Mof_N 	N 	0.61954	0.97074	0.88664	-0.048
Mof_N 	N 	0.46749	0.82076	0.7488	-0.147
Mof_N 	N 	0.37015	0.031	0.60663	-0.043
Mof_N 	N 	0.36942	0.02771	0.88784	-0.044
Mof_N 	N 	0.52371	0.17753	0.7485	-0.155
Mof_N 	N 	0.53939	0.77021	0.69913	-0.294
Mof_N 	N 	0.53908	0.77111	0.80004	-0.298
Mof_C 	C 	0.59109	0.97726	0.63425	0.058
Mof_C 	C 	0.59338	0.97819	0.85821	0.054
Mof_C 	C 	0.46911	0.85843	0.74797	0.037
Mof_C 	C 	0.39543	0.02188	0.63552	0.065
Mof_C 	C 	0.39562	0.01998	0.8594	0.059
Mof_C 	C 	0.52017	0.14027	0.74789	0.04
Mof_C 	C 	0.4769	0.2455	0.8501	-0.012
Mof_C 	C 	0.41945	0.21912	0.79453	0.492
Mof_C 	C 	0.3941	0.2089	0.83982	-0.92
Mof_H 	H 	0.412	0.2156	0.8686	0.325
Mof_H 	H 	0.3674	0.2266	0.8405	0.337
Mof_H 	H 	0.3863	0.1778	0.84	0.342
Mof_C 	C 	0.40078	0.21191	0.74887	-0.542
Mof_H 	H 	0.3715	0.2017	0.7486	0.236
Mof_C 	C 	0.4827	0.232	0.6487	-0.011
Mof_C 	C 	0.42028	0.21804	0.7037	0.492
Mof_C 	C 	0.3955	0.2054	0.65826	-0.907
Mof_H 	H 	0.3669	0.1934	0.6674	0.335
Mof_H 	H 	0.3914	0.2312	0.6376	0.328
Mof_H 	H 	0.4121	0.1832	0.6402	0.334
Mof_C 	C 	0.59376	0.81522	0.83997	-0.903
Mof_H 	H 	0.5805	0.802	0.8691	0.316
Mof_H 	H 	0.6247	0.8071	0.8383	0.336
Mof_H 	H 	0.5911	0.8471	0.8419	0.34
Mof_C 	C 	0.57055	0.79895	0.79495	0.481
Mof_C 	C 	0.5847	0.81366	0.74918	-0.523
Mof_H 	H 	0.6058	0.8365	0.749	0.239
Mof_C 	C 	0.5026	0.2257	0.3996	0.084
Mof_C 	C 	0.57105	0.79835	0.70426	0.479
Mof_C 	C 	0.59393	0.81311	0.65834	-0.887
Mof_H 	H 	0.617	0.8341	0.6668	0.332
Mof_H 	H 	0.6069	0.7878	0.6419	0.323
Mof_H 	H 	0.5728	0.8271	0.6364	0.323
Mof_C 	C 	0.525	0.752	0.8496	0.012
Mof_O 	O 	0.52021	0.21061	0.44913	-0.542
Mof_O 	O 	0.52111	0.21092	0.55004	-0.546
Mof_Nb	Nb	0.04054	0.4901	0.19354	0.728
Mof_Nb	Nb	0.04113	0.49012	0.3007	0.729
Mof_Nb	Nb	0.98069	0.43278	0.24749	0.825
Mof_Nb	Nb	0.947	0.50916	0.19412	0.782
Mof_Nb	Nb	0.94739	0.50901	0.3013	0.785
Mof_Nb	Nb	0.00743	0.56633	0.24746	0.697
Mof_Cl	Cl	0.03291	0.41028	0.184	-0.55
Mof_Cl	Cl	0.99338	0.49952	0.12115	-0.449
Mof_Cl	Cl	0.10461	0.47778	0.24656	-0.449
Mof_Cl	Cl	0.06469	0.56662	0.18376	-0.489
Mof_Cl	Cl	0.03377	0.41055	0.31025	-0.565
Mof_Cl	Cl	0.99461	0.49954	0.37352	-0.465
Mof_Cl	Cl	0.06551	0.56666	0.31024	-0.486
Mof_Cl	Cl	0.9226	0.43247	0.1847	-0.491
Mof_Cl	Cl	0.92334	0.43239	0.31076	-0.489
Mof_Cl	Cl	0.8837	0.5214	0.24792	-0.455
Mof_Cl	Cl	0.95429	0.58925	0.18481	-0.479
Mof_Cl	Cl	0.95467	0.58897	0.31086	-0.487
Mof_N 	N 	0.11562	0.46749	0.10472	-0.048
Mof_N 	N 	0.11954	0.47074	0.38664	-0.051
Mof_N 	N 	0.96749	0.32076	0.2488	-0.137
Mof_N 	N 	0.87015	0.531	0.10663	-0.041
Mof_N 	N 	0.86942	0.52771	0.38784	-0.042
Mof_N 	N 	0.02371	0.67753	0.2485	-0.157
Mof_N 	N 	0.03939	0.27021	0.19913	-0.29
Mof_N 	N 	0.03908	0.27111	0.30004	-0.295
Mof_C 	C 	0.09109	0.47726	0.13425	0.058
Mof_C 	C 	0.09338	0.47819	0.35821	0.054
Mof_C 	C 	0.96911	0.35843	0.24797	0.04
Mof_C 	C 	0.89543	0.52188	0.13552	0.063
Mof_C 	C 	0.89562	0.51998	0.3594	0.057
Mof_C 	C 	0.02017	0.64027	0.24789	0.034
Mof_C 	C 	0.9769	0.7455	0.3501	0.023
Mof_C 	C 	0.91945	0.71912	0.29453	0.495
Mof_C 	C 	0.8941	0.7089	0.33982	-0.923
Mof_H 	H 	0.912	0.7156	0.3686	0.328
Mof_H 	H 	0.8674	0.7266	0.3405	0.338
Mof_H 	H 	0.8863	0.6778	0.34	0.345
Mof_C 	C 	0.90078	0.71191	0.24887	-0.539
Mof_H 	H 	0.8715	0.7017	0.2486	0.235
Mof_C 	C 	0.9827	0.732	0.1487	0.044
Mof_C 	C 	0.92028	0.71804	0.2037	0.495
Mof_C 	C 	0.8955	0.7054	0.15826	-0.912
Mof_H 	H 	0.8669	0.6934	0.1674	0.336
Mof_H 	H 	0.8914	0.7312	0.1376	0.329
Mof_H 	H 	0.9121	0.6832	0.1402	0.338
Mof_C 	C 	0.09376	0.31522	0.33997	-0.897
Mof_H 	H 	0.0805	0.302	0.3691	0.313
Mof_H 	H 	0.1247	0.3071	0.3383	0.335
Mof_H 	H 	0.0911	0.3471	0.3419	0.336
Mof_C 	C 	0.07055	0.29895	0.29495	0.475
Mof_C 	C 	0.0847	0.31366	0.24918	-0.519
Mof_H 	H 	0.1058	0.3365	0.249	0.238
Mof_C 	C 	0.0026	0.7257	0.8996	0.046
Mof_C 	C 	0.07105	0.29835	0.20426	0.472
Mof_C 	C 	0.09393	0.31311	0.15834	-0.878
Mof_H 	H 	0.117	0.3341	0.1668	0.329
Mof_H 	H 	0.1069	0.2878	0.1419	0.321
Mof_H 	H 	0.0728	0.3271	0.1364	0.316
Mof_C 	C 	0.025	0.252	0.3496	-0.007
Mof_O 	O 	0.02021	0.71061	0.94913	-0.534
Mof_O 	O 	0.02111	0.71092	0.05004	-0.534
Mof_Nb	Nb	0.2401	0.70946	0.94354	0.764
Mof_Nb	Nb	0.24012	0.70887	0.0507	0.766
Mof_Nb	Nb	0.18278	0.76931	0.99749	0.763
Mof_Nb	Nb	0.25916	0.803	0.94412	0.762
Mof_Nb	Nb	0.25901	0.80261	0.0513	0.766
Mof_Nb	Nb	0.31633	0.74257	0.99746	0.752
Mof_Cl	Cl	0.16028	0.71709	0.934	-0.527
Mof_Cl	Cl	0.24952	0.75662	0.87115	-0.474
Mof_Cl	Cl	0.22778	0.64539	0.99656	-0.46
Mof_Cl	Cl	0.31662	0.68531	0.93376	-0.488
Mof_Cl	Cl	0.16055	0.71623	0.06025	-0.544
Mof_Cl	Cl	0.24954	0.75539	0.12352	-0.493
Mof_Cl	Cl	0.31666	0.68449	0.06024	-0.49
Mof_Cl	Cl	0.18247	0.8274	0.9347	-0.483
Mof_Cl	Cl	0.18239	0.82666	0.06076	-0.485
Mof_Cl	Cl	0.2714	0.8663	0.99792	-0.451
Mof_Cl	Cl	0.33925	0.79571	0.93481	-0.501
Mof_Cl	Cl	0.33897	0.79533	0.06086	-0.511
Mof_N 	N 	0.21749	0.63438	0.85472	-0.046
Mof_N 	N 	0.22074	0.63046	0.13664	-0.049
Mof_N 	N 	0.07076	0.78251	0.9988	-0.148
Mof_N 	N 	0.281	0.87985	0.85663	-0.043
Mof_N 	N 	0.27771	0.88058	0.13784	-0.044
Mof_N 	N 	0.42753	0.72629	0.9985	-0.154
Mof_C 	C 	0.22726	0.65891	0.88425	0.059
Mof_C 	C 	0.22819	0.65662	0.10821	0.053
Mof_C 	C 	0.10843	0.78089	0.99797	0.04
Mof_C 	C 	0.27188	0.85457	0.88552	0.066
Mof_C 	C 	0.26998	0.85438	0.1094	0.059
Mof_C 	C 	0.39027	0.72983	0.99789	0.041
Mof_C 	C 	0.4955	0.7731	0.1001	-0.012
Mof_C 	C 	0.46912	0.83055	0.04453	0.493
Mof_C 	C 	0.4589	0.8559	0.08982	-0.92
Mof_H 	H 	0.4656	0.838	0.1186	0.325
Mof_H 	H 	0.4766	0.8826	0.0905	0.337
Mof_H 	H 	0.4278	0.8637	0.09	0.342
Mof_C 	C 	0.46191	0.84922	0.99887	-0.542
Mof_H 	H 	0.4517	0.8785	0.9986	0.237
Mof_C 	C 	0.482	0.7673	0.8987	0.012
Mof_C 	C 	0.46804	0.82972	0.9537	0.494
Mof_C 	C 	0.4554	0.8545	0.90826	-0.909
Mof_H 	H 	0.4434	0.8831	0.9174	0.335
Mof_H 	H 	0.4812	0.8586	0.8876	0.328
Mof_H 	H 	0.4332	0.8379	0.8902	0.333
Mof_C 	C 	0.06522	0.65624	0.08997	-1.107
Mof_H 	H 	0.052	0.6695	0.1191	0.375
Mof_H 	H 	0.0571	0.6253	0.0883	0.389
Mof_H 	H 	0.0971	0.6589	0.0919	0.397
Mof_C 	C 	0.04895	0.67945	0.04495	0.716
Mof_C 	C 	0.06366	0.6653	0.99918	-0.736
Mof_H 	H 	0.0865	0.6442	0.999	0.304
Mof_C 	C 	0.4757	0.7474	0.6496	-0.007
Mof_C 	C 	0.04835	0.67895	0.95426	0.716
Mof_C 	C 	0.06311	0.65607	0.90834	-1.091
Mof_H 	H 	0.0841	0.633	0.9168	0.386
Mof_H 	H 	0.0378	0.6431	0.8919	0.378
Mof_H 	H 	0.0771	0.6772	0.8864	0.383
Mof_C 	C 	0.002	0.725	0.0996	0.029
Mof_Nb	Nb	0.7401	0.20946	0.44354	0.764
Mof_Nb	Nb	0.74012	0.20887	0.5507	0.766
Mof_Nb	Nb	0.68278	0.26931	0.49749	0.763
Mof_Nb	Nb	0.75916	0.303	0.44412	0.762
Mof_Nb	Nb	0.75901	0.30261	0.5513	0.765
Mof_Nb	Nb	0.81633	0.24257	0.49746	0.752
Mof_Cl	Cl	0.66028	0.21709	0.434	-0.528
Mof_Cl	Cl	0.74952	0.25662	0.37115	-0.475
Mof_Cl	Cl	0.72778	0.14539	0.49656	-0.459
Mof_Cl	Cl	0.81662	0.18531	0.43376	-0.487
Mof_Cl	Cl	0.66055	0.21623	0.56025	-0.545
Mof_Cl	Cl	0.74954	0.25539	0.62352	-0.493
Mof_Cl	Cl	0.81666	0.18449	0.56024	-0.488
Mof_Cl	Cl	0.68247	0.3274	0.4347	-0.482
Mof_Cl	Cl	0.68239	0.32666	0.56076	-0.484
Mof_Cl	Cl	0.7714	0.3663	0.49792	-0.451
Mof_Cl	Cl	0.83925	0.29571	0.43481	-0.501
Mof_Cl	Cl	0.83897	0.29533	0.56086	-0.511
Mof_N 	N 	0.71749	0.13438	0.35472	-0.046
Mof_N 	N 	0.72074	0.13046	0.63664	-0.049
Mof_N 	N 	0.57076	0.28251	0.4988	-0.146
Mof_N 	N 	0.781	0.37985	0.35663	-0.043
Mof_N 	N 	0.77771	0.38058	0.63784	-0.044
Mof_N 	N 	0.92753	0.22629	0.4985	-0.144
Mof_C 	C 	0.72726	0.15891	0.38425	0.058
Mof_C 	C 	0.72819	0.15662	0.60821	0.053
Mof_C 	C 	0.60843	0.28089	0.49797	0.041
Mof_C 	C 	0.77188	0.35457	0.38552	0.066
Mof_C 	C 	0.76998	0.35438	0.6094	0.059
Mof_C 	C 	0.89027	0.22983	0.49789	0.041
Mof_C 	C 	0.9955	0.2731	0.6001	0.027
Mof_C 	C 	0.96912	0.33055	0.54453	0.502
Mof_C 	C 	0.9589	0.3559	0.58982	-0.934
Mof_H 	H 	0.9656	0.338	0.6186	0.332
Mof_H 	H 	0.9766	0.3826	0.5905	0.349
Mof_H 	H 	0.9278	0.3637	0.59	0.347
Mof_C 	C 	0.96191	0.34922	0.49887	-0.542
Mof_H 	H 	0.9517	0.3785	0.4986	0.24
Mof_C 	C 	0.982	0.2673	0.3987	0.035
Mof_C 	C 	0.96804	0.32972	0.4537	0.502
Mof_C 	C 	0.9554	0.3545	0.40826	-0.921
Mof_H 	H 	0.9434	0.3831	0.4174	0.341
Mof_H 	H 	0.9812	0.3586	0.3876	0.34
Mof_H 	H 	0.9332	0.3379	0.3902	0.337
Mof_C 	C 	0.56522	0.15624	0.58997	-1.122
Mof_H 	H 	0.552	0.1695	0.6191	0.381
Mof_H 	H 	0.5571	0.1253	0.5883	0.397
Mof_H 	H 	0.5971	0.1589	0.5919	0.401
Mof_C 	C 	0.54895	0.17945	0.54495	0.729
Mof_C 	C 	0.56366	0.1653	0.49918	-0.745
Mof_H 	H 	0.5865	0.1442	0.499	0.307
Mof_C 	C 	0.9757	0.2474	0.1496	0.024
Mof_C 	C 	0.54835	0.17895	0.45426	0.727
Mof_C 	C 	0.56311	0.15607	0.40834	-1.104
Mof_H 	H 	0.5841	0.133	0.4168	0.391
Mof_H 	H 	0.5378	0.1431	0.3919	0.387
Mof_H 	H 	0.5771	0.1772	0.3864	0.386
Mof_C 	C 	0.502	0.225	0.5996	0.083
Mof_Nb	Nb	0.2599	0.29054	0.44354	0.764
Mof_Nb	Nb	0.25988	0.29113	0.5507	0.766
Mof_Nb	Nb	0.31722	0.23069	0.49749	0.763
Mof_Nb	Nb	0.24084	0.197	0.44412	0.762
Mof_Nb	Nb	0.24099	0.19739	0.5513	0.765
Mof_Nb	Nb	0.18367	0.25743	0.49746	0.751
Mof_Cl	Cl	0.33972	0.28291	0.434	-0.528
Mof_Cl	Cl	0.25048	0.24338	0.37115	-0.474
Mof_Cl	Cl	0.27222	0.35461	0.49656	-0.46
Mof_Cl	Cl	0.18338	0.31469	0.43376	-0.489
Mof_Cl	Cl	0.33945	0.28377	0.56025	-0.545
Mof_Cl	Cl	0.25046	0.24461	0.62352	-0.493
Mof_Cl	Cl	0.18334	0.31551	0.56024	-0.491
Mof_Cl	Cl	0.31753	0.1726	0.4347	-0.482
Mof_Cl	Cl	0.31761	0.17334	0.56076	-0.484
Mof_Cl	Cl	0.2286	0.1337	0.49792	-0.451
Mof_Cl	Cl	0.16075	0.20429	0.43481	-0.5
Mof_Cl	Cl	0.16103	0.20467	0.56086	-0.51
Mof_N 	N 	0.28251	0.36562	0.35472	-0.046
Mof_N 	N 	0.27926	0.36954	0.63664	-0.049
Mof_N 	N 	0.42924	0.21749	0.4988	-0.146
Mof_N 	N 	0.219	0.12015	0.35663	-0.042
Mof_N 	N 	0.22229	0.11942	0.63784	-0.044
Mof_N 	N 	0.07247	0.27371	0.4985	-0.156
Mof_C 	C 	0.27274	0.34109	0.38425	0.058
Mof_C 	C 	0.27181	0.34338	0.60821	0.052
Mof_C 	C 	0.39157	0.21911	0.49797	0.041
Mof_C 	C 	0.22812	0.14543	0.38552	0.066
Mof_C 	C 	0.23002	0.14562	0.6094	0.059
Mof_C 	C 	0.10973	0.27017	0.49789	0.04
Mof_C 	C 	0.0045	0.2269	0.6001	-0.048
Mof_C 	C 	0.03088	0.16945	0.54453	0.482
Mof_C 	C 	0.0411	0.1441	0.58982	-0.906
Mof_H 	H 	0.0344	0.162	0.6186	0.319
Mof_H 	H 	0.0234	0.1174	0.5905	0.326
Mof_H 	H 	0.0722	0.1363	0.59	0.337
Mof_C 	C 	0.03809	0.15078	0.49887	-0.536
Mof_H 	H 	0.0483	0.1215	0.4986	0.232
Mof_C 	C 	0.018	0.2327	0.3987	-0.008
Mof_C 	C 	0.03196	0.17028	0.4537	0.484
Mof_C 	C 	0.0446	0.1455	0.40826	-0.895
Mof_H 	H 	0.0566	0.1169	0.4174	0.329
Mof_H 	H 	0.0188	0.1414	0.3876	0.317
Mof_H 	H 	0.0668	0.1621	0.3902	0.33
Mof_C 	C 	0.43478	0.34376	0.58997	-1.122
Mof_H 	H 	0.448	0.3305	0.6191	0.381
Mof_H 	H 	0.4429	0.3747	0.5883	0.397
Mof_H 	H 	0.4029	0.3411	0.5919	0.401
Mof_C 	C 	0.45105	0.32055	0.54495	0.729
Mof_C 	C 	0.43634	0.3347	0.49918	-0.745
Mof_H 	H 	0.4135	0.3558	0.499	0.308
Mof_C 	C 	0.0243	0.2526	0.1496	-0.034
Mof_C 	C 	0.45165	0.32105	0.45426	0.727
Mof_C 	C 	0.43689	0.34393	0.40834	-1.104
Mof_H 	H 	0.4159	0.367	0.4168	0.391
Mof_H 	H 	0.4622	0.3569	0.3919	0.387
Mof_H 	H 	0.4229	0.3228	0.3864	0.386
Mof_C 	C 	0.498	0.275	0.5996	0.083
Mof_Nb	Nb	0.7599	0.79054	0.94354	0.764
Mof_Nb	Nb	0.75988	0.79113	0.0507	0.766
Mof_Nb	Nb	0.81722	0.73069	0.99749	0.764
Mof_Nb	Nb	0.74084	0.697	0.94412	0.762
Mof_Nb	Nb	0.74099	0.69739	0.0513	0.765
Mof_Nb	Nb	0.68367	0.75743	0.99746	0.752
Mof_Cl	Cl	0.83972	0.78291	0.934	-0.528
Mof_Cl	Cl	0.75048	0.74338	0.87115	-0.475
Mof_Cl	Cl	0.77222	0.85461	0.99656	-0.459
Mof_Cl	Cl	0.68338	0.81469	0.93376	-0.488
Mof_Cl	Cl	0.83945	0.78377	0.06025	-0.544
Mof_Cl	Cl	0.75046	0.74461	0.12352	-0.493
Mof_Cl	Cl	0.68334	0.81551	0.06024	-0.49
Mof_Cl	Cl	0.81753	0.6726	0.9347	-0.481
Mof_Cl	Cl	0.81761	0.67334	0.06076	-0.482
Mof_Cl	Cl	0.7286	0.6337	0.99792	-0.451
Mof_Cl	Cl	0.66075	0.70429	0.93481	-0.501
Mof_Cl	Cl	0.66103	0.70467	0.06086	-0.511
Mof_N 	N 	0.78251	0.86562	0.85472	-0.046
Mof_N 	N 	0.77926	0.86954	0.13664	-0.049
Mof_N 	N 	0.92924	0.71749	0.9988	-0.135
Mof_N 	N 	0.719	0.62015	0.85663	-0.043
Mof_N 	N 	0.72229	0.61942	0.13784	-0.044
Mof_N 	N 	0.57247	0.77371	0.9985	-0.154
Mof_C 	C 	0.77274	0.84109	0.88425	0.058
Mof_C 	C 	0.77181	0.84338	0.10821	0.053
Mof_C 	C 	0.89157	0.71911	0.99797	0.042
Mof_C 	C 	0.72812	0.64543	0.88552	0.066
Mof_C 	C 	0.73002	0.64562	0.1094	0.059
Mof_C 	C 	0.60973	0.77017	0.99789	0.041
Mof_C 	C 	0.5045	0.7269	0.1001	-0.012
Mof_C 	C 	0.53088	0.66945	0.04453	0.493
Mof_C 	C 	0.5411	0.6441	0.08982	-0.92
Mof_H 	H 	0.5344	0.662	0.1186	0.325
Mof_H 	H 	0.5234	0.6174	0.0905	0.337
Mof_H 	H 	0.5722	0.6363	0.09	0.342
Mof_C 	C 	0.53809	0.65078	0.99887	-0.542
Mof_H 	H 	0.5483	0.6215	0.9986	0.236
Mof_C 	C 	0.518	0.7327	0.8987	0.012
Mof_C 	C 	0.53196	0.67028	0.9537	0.494
Mof_C 	C 	0.5446	0.6455	0.90826	-0.909
Mof_H 	H 	0.5566	0.6169	0.9174	0.335
Mof_H 	H 	0.5188	0.6414	0.8876	0.328
Mof_H 	H 	0.5668	0.6621	0.8902	0.333
Mof_C 	C 	0.93478	0.84376	0.08997	-1.128
Mof_H 	H 	0.948	0.8305	0.1191	0.385
Mof_H 	H 	0.9429	0.8747	0.0883	0.404
Mof_H 	H 	0.9029	0.8411	0.0919	0.403
Mof_C 	C 	0.95105	0.82055	0.04495	0.732
Mof_C 	C 	0.93634	0.8347	0.99918	-0.74
Mof_H 	H 	0.9135	0.8558	0.999	0.307
Mof_C 	C 	0.5243	0.7526	0.6496	-0.007
Mof_C 	C 	0.95165	0.82105	0.95426	0.728
Mof_C 	C 	0.93689	0.84393	0.90834	-1.109
Mof_H 	H 	0.9159	0.867	0.9168	0.394
Mof_H 	H 	0.9622	0.8569	0.8919	0.393
Mof_H 	H 	0.9229	0.8228	0.8864	0.387
Mof_C 	C 	0.998	0.775	0.0996	0.138
Mof_Mn	Mn	2.80937e-33	0.75	0.24932	0.865
Mof_Mn	Mn	0.5	0.25	0.74932	0.911
Mof_Mn	Mn	0.5	0.75	0.99932	0.911
Mof_Mn	Mn	-2.273e-33	0.25	0.49932	0.865
Mof_Mn	Mn	-1.1367e-33	0.25	0.2496	0.863
Mof_Mn	Mn	0.5	0.75	0.7496	0.908
Mof_Mn	Mn	1.12452e-32	0.75	0.9996	1.148
Mof_Mn	Mn	0.5	0.25	0.4996	1.198
_end
