# CIF file generated by openbabel 3.1.0, see https://openbabel.org
data_I
_chemical_name_common 'image0'
_cell_length_a 35.2547
_cell_length_b 14.7628
_cell_length_c 31.0405
_cell_angle_alpha 90
_cell_angle_beta 101.841
_cell_angle_gamma 90
_space_group_name_H-M_alt 'P 1'
_space_group_name_Hall 'P 1'
loop_
    _symmetry_equiv_pos_as_xyz
    x,y,z
loop_
    _atom_site_label
    _atom_site_type_symbol
    _atom_site_fract_x
    _atom_site_fract_y
    _atom_site_fract_z
    _atom_site_occupancy
    I1       I        0.52356    0.85047    0.63271    1.000
    I2       I        0.73416    0.26022    0.29670    1.000
    I3       I        0.61628    0.75781    0.56048    1.000
    I4       I        0.62872    0.33050    0.19743    1.000
    I5       I        0.88980    0.24163    0.40066    1.000
    I6       I        0.85267    0.09115    0.51025    1.000
    Zn1      Zn       0.58058    0.87541    0.59557    1.000
    Zn2      Zn       0.87375    0.09653    0.43672    1.000
    Zn3      Zn       0.67233    0.35097    0.27300    1.000
    N1       N        0.68380    0.48890    0.27870    1.000
    N2       N        0.83210    0.03000    0.39200    1.000
    N3       N        0.72070    0.94680    0.27160    1.000
    N4       N        0.68070    0.81960    0.25050    1.000
    N5       N        0.61950    0.05580    0.14300    1.000
    N6       N        0.63950    0.33420    0.32010    1.000
    N7       N        0.56740    0.97970    0.55010    1.000
    N8       N        0.52230    0.27050    0.47150    1.000
    N9       N        0.73420    0.80840    0.31040    1.000
    N10      N        0.42040    0.51110    0.44060    1.000
    N11      N        0.53810    0.35250    0.41190    1.000
    N12      N        0.57420    0.22060    0.43850    1.000
    C1       C        0.55670    0.13220    0.49600    1.000
    C2       C        0.61060    0.97230    0.15390    1.000
    H1       H        0.58790    0.94680    0.13810    1.000
    C3       C        0.77330    0.94130    0.33460    1.000
    C4       C        0.66600    0.95830    0.21040    1.000
    C5       C        0.69070    0.90590    0.24650    1.000
    C6       C        0.55130    0.21210    0.46650    1.000
    C7       C        0.74120    0.89610    0.30390    1.000
    C8       C        0.51720    0.33640    0.44190    1.000
    C9       C        0.67620    0.04640    0.20000    1.000
    H2       H        0.69860    0.07370    0.21560    1.000
    C10      C        0.70440    0.77350    0.28140    1.000
    C11      C        0.64990    0.27960    0.35530    1.000
    H3       H        0.67390    0.25090    0.35930    1.000
    C12      C        0.63270    0.92110    0.18690    1.000
    H4       H        0.62520    0.86290    0.19290    1.000
    C13      C        0.65210    0.09150    0.16590    1.000
    H5       H        0.65910    0.14950    0.15870    1.000
    C14      C        0.65890    0.54680    0.25390    1.000
    H6       H        0.63710    0.52340    0.23510    1.000
    C15      C        0.59170    0.30800    0.38060    1.000
    C16      C        0.56690    0.29300    0.41210    1.000
    C17      C        0.71520    0.52350    0.30530    1.000
    H7       H        0.73280    0.48410    0.32220    1.000
    C18      C        0.43740    0.46610    0.47690    1.000
    H8       H        0.42770    0.47400    0.50230    1.000
    C19      C        0.69670    0.67480    0.28280    1.000
    C20      C        0.58760    0.07310    0.49710    1.000
    H9       H        0.60530    0.08400    0.47930    1.000
    C21      C        0.48390    0.39820    0.44210    1.000
    C22      C        0.78430    0.02740    0.32650    1.000
    H10      H        0.77160    0.05750    0.30130    1.000
    C23      C        0.58110    0.36480    0.34450    1.000
    H11      H        0.55760    0.39540    0.33990    1.000
    C24      C        0.79190    0.89970    0.37290    1.000
    H12      H        0.78490    0.84170    0.38000    1.000
    C25      C        0.81340    0.06930    0.35460    1.000
    H13      H        0.82070    0.12730    0.34790    1.000
    C26      C        0.53060    0.11090    0.52250    1.000
    H14      H        0.50920    0.14780    0.52250    1.000
    C27      C        0.82160    0.94630    0.40070    1.000
    H15      H        0.83450    0.91800    0.42630    1.000
    C28      C        0.66440    0.63790    0.25510    1.000
    H16      H        0.64650    0.67560    0.23740    1.000
    C29      C        0.53650    0.03520    0.54860    1.000
    H17      H        0.51870    0.02150    0.56600    1.000
    C30      C        0.62760    0.26440    0.38490    1.000
    H18      H        0.63610    0.22490    0.40820    1.000
    C31      C        0.72230    0.61460    0.30850    1.000
    H19      H        0.74420    0.63640    0.32780    1.000
    C32      C        0.60520    0.37570    0.31600    1.000
    H20      H        0.59740    0.41440    0.29220    1.000
    C33      C        0.59220    0.99910    0.52420    1.000
    H21      H        0.61330    0.96120    0.52460    1.000
    C34      C        0.46810    0.40950    0.47870    1.000
    H22      H        0.47830    0.37850    0.50450    1.000
    C35      C        0.43530    0.49950    0.40530    1.000
    H23      H        0.42440    0.53130    0.37990    1.000
    C36      C        0.46630    0.44250    0.40390    1.000
    H24      H        0.47520    0.43430    0.37790    1.000
    I7       I        0.02356    0.35047    0.63271    1.000
    I8       I        0.23416    0.76022    0.29670    1.000
    I9       I        0.11628    0.25781    0.56048    1.000
    I10      I        0.12872    0.83050    0.19743    1.000
    I11      I        0.38980    0.74163    0.40066    1.000
    I12      I        0.35267    0.59115    0.51025    1.000
    Zn4      Zn       0.08058    0.37541    0.59557    1.000
    Zn5      Zn       0.37375    0.59653    0.43672    1.000
    Zn6      Zn       0.17233    0.85097    0.27300    1.000
    N13      N        0.18380    0.98890    0.27870    1.000
    N14      N        0.33210    0.53000    0.39200    1.000
    N15      N        0.22070    0.44680    0.27160    1.000
    N16      N        0.18070    0.31960    0.25050    1.000
    N17      N        0.11950    0.55580    0.14300    1.000
    N18      N        0.13950    0.83420    0.32010    1.000
    N19      N        0.06740    0.47970    0.55010    1.000
    N20      N        0.02230    0.77050    0.47150    1.000
    N21      N        0.23420    0.30840    0.31040    1.000
    N22      N        0.92040    0.01110    0.44060    1.000
    N23      N        0.03810    0.85250    0.41190    1.000
    N24      N        0.07420    0.72060    0.43850    1.000
    C37      C        0.05670    0.63220    0.49600    1.000
    C38      C        0.11060    0.47230    0.15390    1.000
    H25      H        0.08790    0.44680    0.13810    1.000
    C39      C        0.27330    0.44130    0.33460    1.000
    C40      C        0.16600    0.45830    0.21040    1.000
    C41      C        0.19070    0.40590    0.24650    1.000
    C42      C        0.05130    0.71210    0.46650    1.000
    C43      C        0.24120    0.39610    0.30390    1.000
    C44      C        0.01720    0.83640    0.44190    1.000
    C45      C        0.17620    0.54640    0.20000    1.000
    H26      H        0.19860    0.57370    0.21560    1.000
    C46      C        0.20440    0.27350    0.28140    1.000
    C47      C        0.14990    0.77960    0.35530    1.000
    H27      H        0.17390    0.75090    0.35930    1.000
    C48      C        0.13270    0.42110    0.18690    1.000
    H28      H        0.12520    0.36290    0.19290    1.000
    C49      C        0.15210    0.59150    0.16590    1.000
    H29      H        0.15910    0.64950    0.15870    1.000
    C50      C        0.15890    0.04680    0.25390    1.000
    H30      H        0.13710    0.02340    0.23510    1.000
    C51      C        0.09170    0.80800    0.38060    1.000
    C52      C        0.06690    0.79300    0.41210    1.000
    C53      C        0.21520    0.02350    0.30530    1.000
    H31      H        0.23280    0.98410    0.32220    1.000
    C54      C        0.93740    0.96610    0.47690    1.000
    H32      H        0.92770    0.97400    0.50230    1.000
    C55      C        0.19670    0.17480    0.28280    1.000
    C56      C        0.08760    0.57310    0.49710    1.000
    H33      H        0.10530    0.58400    0.47930    1.000
    C57      C        0.98390    0.89820    0.44210    1.000
    C58      C        0.28430    0.52740    0.32650    1.000
    H34      H        0.27160    0.55750    0.30130    1.000
    C59      C        0.08110    0.86480    0.34450    1.000
    H35      H        0.05760    0.89540    0.33990    1.000
    C60      C        0.29190    0.39970    0.37290    1.000
    H36      H        0.28490    0.34170    0.38000    1.000
    C61      C        0.31340    0.56930    0.35460    1.000
    H37      H        0.32070    0.62730    0.34790    1.000
    C62      C        0.03060    0.61090    0.52250    1.000
    H38      H        0.00920    0.64780    0.52250    1.000
    C63      C        0.32160    0.44630    0.40070    1.000
    H39      H        0.33450    0.41800    0.42630    1.000
    C64      C        0.16440    0.13790    0.25510    1.000
    H40      H        0.14650    0.17560    0.23740    1.000
    C65      C        0.03650    0.53520    0.54860    1.000
    H41      H        0.01870    0.52150    0.56600    1.000
    C66      C        0.12760    0.76440    0.38490    1.000
    H42      H        0.13610    0.72490    0.40820    1.000
    C67      C        0.22230    0.11460    0.30850    1.000
    H43      H        0.24420    0.13640    0.32780    1.000
    C68      C        0.10520    0.87570    0.31600    1.000
    H44      H        0.09740    0.91440    0.29220    1.000
    C69      C        0.09220    0.49910    0.52420    1.000
    H45      H        0.11330    0.46120    0.52460    1.000
    C70      C        0.96810    0.90950    0.47870    1.000
    H46      H        0.97830    0.87850    0.50450    1.000
    C71      C        0.93530    0.99950    0.40530    1.000
    H47      H        0.92440    0.03130    0.37990    1.000
    C72      C        0.96630    0.94250    0.40390    1.000
    H48      H        0.97520    0.93430    0.37790    1.000
    I13      I        0.52356    0.14953    0.13271    1.000
    I14      I        0.73416    0.73978    0.79670    1.000
    I15      I        0.61628    0.24219    0.06048    1.000
    I16      I        0.62872    0.66950    0.69743    1.000
    I17      I        0.88980    0.75837    0.90066    1.000
    I18      I        0.85267    0.90885    0.01025    1.000
    Zn7      Zn       0.58058    0.12459    0.09557    1.000
    Zn8      Zn       0.87375    0.90347    0.93672    1.000
    Zn9      Zn       0.67233    0.64903    0.77300    1.000
    N25      N        0.68380    0.51110    0.77870    1.000
    N26      N        0.83210    0.97000    0.89200    1.000
    N27      N        0.72070    0.05320    0.77160    1.000
    N28      N        0.68070    0.18040    0.75050    1.000
    N29      N        0.61950    0.94420    0.64300    1.000
    N30      N        0.63950    0.66580    0.82010    1.000
    N31      N        0.56740    0.02030    0.05010    1.000
    N32      N        0.52230    0.72950    0.97150    1.000
    N33      N        0.73420    0.19160    0.81040    1.000
    N34      N        0.42040    0.48890    0.94060    1.000
    N35      N        0.53810    0.64750    0.91190    1.000
    N36      N        0.57420    0.77940    0.93850    1.000
    C73      C        0.55670    0.86780    0.99600    1.000
    C74      C        0.61060    0.02770    0.65390    1.000
    H49      H        0.58790    0.05320    0.63810    1.000
    C75      C        0.77330    0.05870    0.83460    1.000
    C76      C        0.66600    0.04170    0.71040    1.000
    C77      C        0.69070    0.09410    0.74650    1.000
    C78      C        0.55130    0.78790    0.96650    1.000
    C79      C        0.74120    0.10390    0.80390    1.000
    C80      C        0.51720    0.66360    0.94190    1.000
    C81      C        0.67620    0.95360    0.70000    1.000
    H50      H        0.69860    0.92630    0.71560    1.000
    C82      C        0.70440    0.22650    0.78140    1.000
    C83      C        0.64990    0.72040    0.85530    1.000
    H51      H        0.67390    0.74910    0.85930    1.000
    C84      C        0.63270    0.07890    0.68690    1.000
    H52      H        0.62520    0.13710    0.69290    1.000
    C85      C        0.65210    0.90850    0.66590    1.000
    H53      H        0.65910    0.85050    0.65870    1.000
    C86      C        0.65890    0.45320    0.75390    1.000
    H54      H        0.63710    0.47660    0.73510    1.000
    C87      C        0.59170    0.69200    0.88060    1.000
    C88      C        0.56690    0.70700    0.91210    1.000
    C89      C        0.71520    0.47650    0.80530    1.000
    H55      H        0.73280    0.51590    0.82220    1.000
    C90      C        0.43740    0.53390    0.97690    1.000
    H56      H        0.42770    0.52600    0.00230    1.000
    C91      C        0.69670    0.32520    0.78280    1.000
    C92      C        0.58760    0.92690    0.99710    1.000
    H57      H        0.60530    0.91600    0.97930    1.000
    C93      C        0.48390    0.60180    0.94210    1.000
    C94      C        0.78430    0.97260    0.82650    1.000
    H58      H        0.77160    0.94250    0.80130    1.000
    C95      C        0.58110    0.63520    0.84450    1.000
    H59      H        0.55760    0.60460    0.83990    1.000
    C96      C        0.79190    0.10030    0.87290    1.000
    H60      H        0.78490    0.15830    0.88000    1.000
    C97      C        0.81340    0.93070    0.85460    1.000
    H61      H        0.82070    0.87270    0.84790    1.000
    C98      C        0.53060    0.88910    0.02250    1.000
    H62      H        0.50920    0.85220    0.02250    1.000
    C99      C        0.82160    0.05370    0.90070    1.000
    H63      H        0.83450    0.08200    0.92630    1.000
    C100     C        0.66440    0.36210    0.75510    1.000
    H64      H        0.64650    0.32440    0.73740    1.000
    C101     C        0.53650    0.96480    0.04860    1.000
    H65      H        0.51870    0.97850    0.06600    1.000
    C102     C        0.62760    0.73560    0.88490    1.000
    H66      H        0.63610    0.77510    0.90820    1.000
    C103     C        0.72230    0.38540    0.80850    1.000
    H67      H        0.74420    0.36360    0.82780    1.000
    C104     C        0.60520    0.62430    0.81600    1.000
    H68      H        0.59740    0.58560    0.79220    1.000
    C105     C        0.59220    0.00090    0.02420    1.000
    H69      H        0.61330    0.03880    0.02460    1.000
    C106     C        0.46810    0.59050    0.97870    1.000
    H70      H        0.47830    0.62150    0.00450    1.000
    C107     C        0.43530    0.50050    0.90530    1.000
    H71      H        0.42440    0.46870    0.87990    1.000
    C108     C        0.46630    0.55750    0.90390    1.000
    H72      H        0.47520    0.56570    0.87790    1.000
    I19      I        0.02356    0.64953    0.13271    1.000
    I20      I        0.23416    0.23978    0.79670    1.000
    I21      I        0.11628    0.74219    0.06048    1.000
    I22      I        0.12872    0.16950    0.69743    1.000
    I23      I        0.38980    0.25837    0.90066    1.000
    I24      I        0.35267    0.40885    0.01025    1.000
    Zn10     Zn       0.08058    0.62459    0.09557    1.000
    Zn11     Zn       0.37375    0.40347    0.93672    1.000
    Zn12     Zn       0.17233    0.14903    0.77300    1.000
    N37      N        0.18380    0.01110    0.77870    1.000
    N38      N        0.33210    0.47000    0.89200    1.000
    N39      N        0.22070    0.55320    0.77160    1.000
    N40      N        0.18070    0.68040    0.75050    1.000
    N41      N        0.11950    0.44420    0.64300    1.000
    N42      N        0.13950    0.16580    0.82010    1.000
    N43      N        0.06740    0.52030    0.05010    1.000
    N44      N        0.02230    0.22950    0.97150    1.000
    N45      N        0.23420    0.69160    0.81040    1.000
    N46      N        0.92040    0.98890    0.94060    1.000
    N47      N        0.03810    0.14750    0.91190    1.000
    N48      N        0.07420    0.27940    0.93850    1.000
    C109     C        0.05670    0.36780    0.99600    1.000
    C110     C        0.11060    0.52770    0.65390    1.000
    H73      H        0.08790    0.55320    0.63810    1.000
    C111     C        0.27330    0.55870    0.83460    1.000
    C112     C        0.16600    0.54170    0.71040    1.000
    C113     C        0.19070    0.59410    0.74650    1.000
    C114     C        0.05130    0.28790    0.96650    1.000
    C115     C        0.24120    0.60390    0.80390    1.000
    C116     C        0.01720    0.16360    0.94190    1.000
    C117     C        0.17620    0.45360    0.70000    1.000
    H74      H        0.19860    0.42630    0.71560    1.000
    C118     C        0.20440    0.72650    0.78140    1.000
    C119     C        0.14990    0.22040    0.85530    1.000
    H75      H        0.17390    0.24910    0.85930    1.000
    C120     C        0.13270    0.57890    0.68690    1.000
    H76      H        0.12520    0.63710    0.69290    1.000
    C121     C        0.15210    0.40850    0.66590    1.000
    H77      H        0.15910    0.35050    0.65870    1.000
    C122     C        0.15890    0.95320    0.75390    1.000
    H78      H        0.13710    0.97660    0.73510    1.000
    C123     C        0.09170    0.19200    0.88060    1.000
    C124     C        0.06690    0.20700    0.91210    1.000
    C125     C        0.21520    0.97650    0.80530    1.000
    H79      H        0.23280    0.01590    0.82220    1.000
    C126     C        0.93740    0.03390    0.97690    1.000
    H80      H        0.92770    0.02600    0.00230    1.000
    C127     C        0.19670    0.82520    0.78280    1.000
    C128     C        0.08760    0.42690    0.99710    1.000
    H81      H        0.10530    0.41600    0.97930    1.000
    C129     C        0.98390    0.10180    0.94210    1.000
    C130     C        0.28430    0.47260    0.82650    1.000
    H82      H        0.27160    0.44250    0.80130    1.000
    C131     C        0.08110    0.13520    0.84450    1.000
    H83      H        0.05760    0.10460    0.83990    1.000
    C132     C        0.29190    0.60030    0.87290    1.000
    H84      H        0.28490    0.65830    0.88000    1.000
    C133     C        0.31340    0.43070    0.85460    1.000
    H85      H        0.32070    0.37270    0.84790    1.000
    C134     C        0.03060    0.38910    0.02250    1.000
    H86      H        0.00920    0.35220    0.02250    1.000
    C135     C        0.32160    0.55370    0.90070    1.000
    H87      H        0.33450    0.58200    0.92630    1.000
    C136     C        0.16440    0.86210    0.75510    1.000
    H88      H        0.14650    0.82440    0.73740    1.000
    C137     C        0.03650    0.46480    0.04860    1.000
    H89      H        0.01870    0.47850    0.06600    1.000
    C138     C        0.12760    0.23560    0.88490    1.000
    H90      H        0.13610    0.27510    0.90820    1.000
    C139     C        0.22230    0.88540    0.80850    1.000
    H91      H        0.24420    0.86360    0.82780    1.000
    C140     C        0.10520    0.12430    0.81600    1.000
    H92      H        0.09740    0.08560    0.79220    1.000
    C141     C        0.09220    0.50090    0.02420    1.000
    H93      H        0.11330    0.53880    0.02460    1.000
    C142     C        0.96810    0.09050    0.97870    1.000
    H94      H        0.97830    0.12150    0.00450    1.000
    C143     C        0.93530    0.00050    0.90530    1.000
    H95      H        0.92440    0.96870    0.87990    1.000
    C144     C        0.96630    0.05750    0.90390    1.000
    H96      H        0.97520    0.06570    0.87790    1.000
    I25      I        0.47644    0.85047    0.86729    1.000
    I26      I        0.26584    0.26022    0.20330    1.000
    I27      I        0.38372    0.75781    0.93952    1.000
    I28      I        0.37128    0.33050    0.30257    1.000
    I29      I        0.11020    0.24163    0.09934    1.000
    I30      I        0.14733    0.09115    0.98975    1.000
    Zn13     Zn       0.41942    0.87541    0.90443    1.000
    Zn14     Zn       0.12625    0.09653    0.06328    1.000
    Zn15     Zn       0.32767    0.35097    0.22700    1.000
    N49      N        0.31620    0.48890    0.22130    1.000
    N50      N        0.16790    0.03000    0.10800    1.000
    N51      N        0.27930    0.94680    0.22840    1.000
    N52      N        0.31930    0.81960    0.24950    1.000
    N53      N        0.38050    0.05580    0.35700    1.000
    N54      N        0.36050    0.33420    0.17990    1.000
    N55      N        0.43260    0.97970    0.94990    1.000
    N56      N        0.47770    0.27050    0.02850    1.000
    N57      N        0.26580    0.80840    0.18960    1.000
    N58      N        0.57960    0.51110    0.05940    1.000
    N59      N        0.46190    0.35250    0.08810    1.000
    N60      N        0.42580    0.22060    0.06150    1.000
    C145     C        0.44330    0.13220    0.00400    1.000
    C146     C        0.38940    0.97230    0.34610    1.000
    H97      H        0.41210    0.94680    0.36190    1.000
    C147     C        0.22670    0.94130    0.16540    1.000
    C148     C        0.33400    0.95830    0.28960    1.000
    C149     C        0.30930    0.90590    0.25350    1.000
    C150     C        0.44870    0.21210    0.03350    1.000
    C151     C        0.25880    0.89610    0.19610    1.000
    C152     C        0.48280    0.33640    0.05810    1.000
    C153     C        0.32380    0.04640    0.30000    1.000
    H98      H        0.30140    0.07370    0.28440    1.000
    C154     C        0.29560    0.77350    0.21860    1.000
    C155     C        0.35010    0.27960    0.14470    1.000
    H99      H        0.32610    0.25090    0.14070    1.000
    C156     C        0.36730    0.92110    0.31310    1.000
    H100     H        0.37480    0.86290    0.30710    1.000
    C157     C        0.34790    0.09150    0.33410    1.000
    H101     H        0.34090    0.14950    0.34130    1.000
    C158     C        0.34110    0.54680    0.24610    1.000
    H102     H        0.36290    0.52340    0.26490    1.000
    C159     C        0.40830    0.30800    0.11940    1.000
    C160     C        0.43310    0.29300    0.08790    1.000
    C161     C        0.28480    0.52350    0.19470    1.000
    H103     H        0.26720    0.48410    0.17780    1.000
    C162     C        0.56260    0.46610    0.02310    1.000
    H104     H        0.57230    0.47400    0.99770    1.000
    C163     C        0.30330    0.67480    0.21720    1.000
    C164     C        0.41240    0.07310    0.00290    1.000
    H105     H        0.39470    0.08400    0.02070    1.000
    C165     C        0.51610    0.39820    0.05790    1.000
    C166     C        0.21570    0.02740    0.17350    1.000
    H106     H        0.22840    0.05750    0.19870    1.000
    C167     C        0.41890    0.36480    0.15550    1.000
    H107     H        0.44240    0.39540    0.16010    1.000
    C168     C        0.20810    0.89970    0.12710    1.000
    H108     H        0.21510    0.84170    0.12000    1.000
    C169     C        0.18660    0.06930    0.14540    1.000
    H109     H        0.17930    0.12730    0.15210    1.000
    C170     C        0.46940    0.11090    0.97750    1.000
    H110     H        0.49080    0.14780    0.97750    1.000
    C171     C        0.17840    0.94630    0.09930    1.000
    H111     H        0.16550    0.91800    0.07370    1.000
    C172     C        0.33560    0.63790    0.24490    1.000
    H112     H        0.35350    0.67560    0.26260    1.000
    C173     C        0.46350    0.03520    0.95140    1.000
    H113     H        0.48130    0.02150    0.93400    1.000
    C174     C        0.37240    0.26440    0.11510    1.000
    H114     H        0.36390    0.22490    0.09180    1.000
    C175     C        0.27770    0.61460    0.19150    1.000
    H115     H        0.25580    0.63640    0.17220    1.000
    C176     C        0.39480    0.37570    0.18400    1.000
    H116     H        0.40260    0.41440    0.20780    1.000
    C177     C        0.40780    0.99910    0.97580    1.000
    H117     H        0.38670    0.96120    0.97540    1.000
    C178     C        0.53190    0.40950    0.02130    1.000
    H118     H        0.52170    0.37850    0.99550    1.000
    C179     C        0.56470    0.49950    0.09470    1.000
    H119     H        0.57560    0.53130    0.12010    1.000
    C180     C        0.53370    0.44250    0.09610    1.000
    H120     H        0.52480    0.43430    0.12210    1.000
    I31      I        0.97644    0.35047    0.86729    1.000
    I32      I        0.76584    0.76022    0.20330    1.000
    I33      I        0.88372    0.25781    0.93952    1.000
    I34      I        0.87128    0.83050    0.30257    1.000
    I35      I        0.61020    0.74163    0.09934    1.000
    I36      I        0.64733    0.59115    0.98975    1.000
    Zn16     Zn       0.91942    0.37541    0.90443    1.000
    Zn17     Zn       0.62625    0.59653    0.06328    1.000
    Zn18     Zn       0.82767    0.85097    0.22700    1.000
    N61      N        0.81620    0.98890    0.22130    1.000
    N62      N        0.66790    0.53000    0.10800    1.000
    N63      N        0.77930    0.44680    0.22840    1.000
    N64      N        0.81930    0.31960    0.24950    1.000
    N65      N        0.88050    0.55580    0.35700    1.000
    N66      N        0.86050    0.83420    0.17990    1.000
    N67      N        0.93260    0.47970    0.94990    1.000
    N68      N        0.97770    0.77050    0.02850    1.000
    N69      N        0.76580    0.30840    0.18960    1.000
    N70      N        0.07960    0.01110    0.05940    1.000
    N71      N        0.96190    0.85250    0.08810    1.000
    N72      N        0.92580    0.72060    0.06150    1.000
    C181     C        0.94330    0.63220    0.00400    1.000
    C182     C        0.88940    0.47230    0.34610    1.000
    H121     H        0.91210    0.44680    0.36190    1.000
    C183     C        0.72670    0.44130    0.16540    1.000
    C184     C        0.83400    0.45830    0.28960    1.000
    C185     C        0.80930    0.40590    0.25350    1.000
    C186     C        0.94870    0.71210    0.03350    1.000
    C187     C        0.75880    0.39610    0.19610    1.000
    C188     C        0.98280    0.83640    0.05810    1.000
    C189     C        0.82380    0.54640    0.30000    1.000
    H122     H        0.80140    0.57370    0.28440    1.000
    C190     C        0.79560    0.27350    0.21860    1.000
    C191     C        0.85010    0.77960    0.14470    1.000
    H123     H        0.82610    0.75090    0.14070    1.000
    C192     C        0.86730    0.42110    0.31310    1.000
    H124     H        0.87480    0.36290    0.30710    1.000
    C193     C        0.84790    0.59150    0.33410    1.000
    H125     H        0.84090    0.64950    0.34130    1.000
    C194     C        0.84110    0.04680    0.24610    1.000
    H126     H        0.86290    0.02340    0.26490    1.000
    C195     C        0.90830    0.80800    0.11940    1.000
    C196     C        0.93310    0.79300    0.08790    1.000
    C197     C        0.78480    0.02350    0.19470    1.000
    H127     H        0.76720    0.98410    0.17780    1.000
    C198     C        0.06260    0.96610    0.02310    1.000
    H128     H        0.07230    0.97400    0.99770    1.000
    C199     C        0.80330    0.17480    0.21720    1.000
    C200     C        0.91240    0.57310    0.00290    1.000
    H129     H        0.89470    0.58400    0.02070    1.000
    C201     C        0.01610    0.89820    0.05790    1.000
    C202     C        0.71570    0.52740    0.17350    1.000
    H130     H        0.72840    0.55750    0.19870    1.000
    C203     C        0.91890    0.86480    0.15550    1.000
    H131     H        0.94240    0.89540    0.16010    1.000
    C204     C        0.70810    0.39970    0.12710    1.000
    H132     H        0.71510    0.34170    0.12000    1.000
    C205     C        0.68660    0.56930    0.14540    1.000
    H133     H        0.67930    0.62730    0.15210    1.000
    C206     C        0.96940    0.61090    0.97750    1.000
    H134     H        0.99080    0.64780    0.97750    1.000
    C207     C        0.67840    0.44630    0.09930    1.000
    H135     H        0.66550    0.41800    0.07370    1.000
    C208     C        0.83560    0.13790    0.24490    1.000
    H136     H        0.85350    0.17560    0.26260    1.000
    C209     C        0.96350    0.53520    0.95140    1.000
    H137     H        0.98130    0.52150    0.93400    1.000
    C210     C        0.87240    0.76440    0.11510    1.000
    H138     H        0.86390    0.72490    0.09180    1.000
    C211     C        0.77770    0.11460    0.19150    1.000
    H139     H        0.75580    0.13640    0.17220    1.000
    C212     C        0.89480    0.87570    0.18400    1.000
    H140     H        0.90260    0.91440    0.20780    1.000
    C213     C        0.90780    0.49910    0.97580    1.000
    H141     H        0.88670    0.46120    0.97540    1.000
    C214     C        0.03190    0.90950    0.02130    1.000
    H142     H        0.02170    0.87850    0.99550    1.000
    C215     C        0.06470    0.99950    0.09470    1.000
    H143     H        0.07560    0.03130    0.12010    1.000
    C216     C        0.03370    0.94250    0.09610    1.000
    H144     H        0.02480    0.93430    0.12210    1.000
    I37      I        0.47644    0.14953    0.36729    1.000
    I38      I        0.26584    0.73978    0.70330    1.000
    I39      I        0.38372    0.24219    0.43952    1.000
    I40      I        0.37128    0.66950    0.80257    1.000
    I41      I        0.11020    0.75837    0.59934    1.000
    I42      I        0.14733    0.90885    0.48975    1.000
    Zn19     Zn       0.41942    0.12459    0.40443    1.000
    Zn20     Zn       0.12625    0.90347    0.56328    1.000
    Zn21     Zn       0.32767    0.64903    0.72700    1.000
    N73      N        0.31620    0.51110    0.72130    1.000
    N74      N        0.16790    0.97000    0.60800    1.000
    N75      N        0.27930    0.05320    0.72840    1.000
    N76      N        0.31930    0.18040    0.74950    1.000
    N77      N        0.38050    0.94420    0.85700    1.000
    N78      N        0.36050    0.66580    0.67990    1.000
    N79      N        0.43260    0.02030    0.44990    1.000
    N80      N        0.47770    0.72950    0.52850    1.000
    N81      N        0.26580    0.19160    0.68960    1.000
    N82      N        0.57960    0.48890    0.55940    1.000
    N83      N        0.46190    0.64750    0.58810    1.000
    N84      N        0.42580    0.77940    0.56150    1.000
    C217     C        0.44330    0.86780    0.50400    1.000
    C218     C        0.38940    0.02770    0.84610    1.000
    H145     H        0.41210    0.05320    0.86190    1.000
    C219     C        0.22670    0.05870    0.66540    1.000
    C220     C        0.33400    0.04170    0.78960    1.000
    C221     C        0.30930    0.09410    0.75350    1.000
    C222     C        0.44870    0.78790    0.53350    1.000
    C223     C        0.25880    0.10390    0.69610    1.000
    C224     C        0.48280    0.66360    0.55810    1.000
    C225     C        0.32380    0.95360    0.80000    1.000
    H146     H        0.30140    0.92630    0.78440    1.000
    C226     C        0.29560    0.22650    0.71860    1.000
    C227     C        0.35010    0.72040    0.64470    1.000
    H147     H        0.32610    0.74910    0.64070    1.000
    C228     C        0.36730    0.07890    0.81310    1.000
    H148     H        0.37480    0.13710    0.80710    1.000
    C229     C        0.34790    0.90850    0.83410    1.000
    H149     H        0.34090    0.85050    0.84130    1.000
    C230     C        0.34110    0.45320    0.74610    1.000
    H150     H        0.36290    0.47660    0.76490    1.000
    C231     C        0.40830    0.69200    0.61940    1.000
    C232     C        0.43310    0.70700    0.58790    1.000
    C233     C        0.28480    0.47650    0.69470    1.000
    H151     H        0.26720    0.51590    0.67780    1.000
    C234     C        0.56260    0.53390    0.52310    1.000
    H152     H        0.57230    0.52600    0.49770    1.000
    C235     C        0.30330    0.32520    0.71720    1.000
    C236     C        0.41240    0.92690    0.50290    1.000
    H153     H        0.39470    0.91600    0.52070    1.000
    C237     C        0.51610    0.60180    0.55790    1.000
    C238     C        0.21570    0.97260    0.67350    1.000
    H154     H        0.22840    0.94250    0.69870    1.000
    C239     C        0.41890    0.63520    0.65550    1.000
    H155     H        0.44240    0.60460    0.66010    1.000
    C240     C        0.20810    0.10030    0.62710    1.000
    H156     H        0.21510    0.15830    0.62000    1.000
    C241     C        0.18660    0.93070    0.64540    1.000
    H157     H        0.17930    0.87270    0.65210    1.000
    C242     C        0.46940    0.88910    0.47750    1.000
    H158     H        0.49080    0.85220    0.47750    1.000
    C243     C        0.17840    0.05370    0.59930    1.000
    H159     H        0.16550    0.08200    0.57370    1.000
    C244     C        0.33560    0.36210    0.74490    1.000
    H160     H        0.35350    0.32440    0.76260    1.000
    C245     C        0.46350    0.96480    0.45140    1.000
    H161     H        0.48130    0.97850    0.43400    1.000
    C246     C        0.37240    0.73560    0.61510    1.000
    H162     H        0.36390    0.77510    0.59180    1.000
    C247     C        0.27770    0.38540    0.69150    1.000
    H163     H        0.25580    0.36360    0.67220    1.000
    C248     C        0.39480    0.62430    0.68400    1.000
    H164     H        0.40260    0.58560    0.70780    1.000
    C249     C        0.40780    0.00090    0.47580    1.000
    H165     H        0.38670    0.03880    0.47540    1.000
    C250     C        0.53190    0.59050    0.52130    1.000
    H166     H        0.52170    0.62150    0.49550    1.000
    C251     C        0.56470    0.50050    0.59470    1.000
    H167     H        0.57560    0.46870    0.62010    1.000
    C252     C        0.53370    0.55750    0.59610    1.000
    H168     H        0.52480    0.56570    0.62210    1.000
    I43      I        0.97644    0.64953    0.36729    1.000
    I44      I        0.76584    0.23978    0.70330    1.000
    I45      I        0.88372    0.74219    0.43952    1.000
    I46      I        0.87128    0.16950    0.80257    1.000
    I47      I        0.61020    0.25837    0.59934    1.000
    I48      I        0.64733    0.40885    0.48975    1.000
    Zn22     Zn       0.91942    0.62459    0.40443    1.000
    Zn23     Zn       0.62625    0.40347    0.56328    1.000
    Zn24     Zn       0.82767    0.14903    0.72700    1.000
    N85      N        0.81620    0.01110    0.72130    1.000
    N86      N        0.66790    0.47000    0.60800    1.000
    N87      N        0.77930    0.55320    0.72840    1.000
    N88      N        0.81930    0.68040    0.74950    1.000
    N89      N        0.88050    0.44420    0.85700    1.000
    N90      N        0.86050    0.16580    0.67990    1.000
    N91      N        0.93260    0.52030    0.44990    1.000
    N92      N        0.97770    0.22950    0.52850    1.000
    N93      N        0.76580    0.69160    0.68960    1.000
    N94      N        0.07960    0.98890    0.55940    1.000
    N95      N        0.96190    0.14750    0.58810    1.000
    N96      N        0.92580    0.27940    0.56150    1.000
    C253     C        0.94330    0.36780    0.50400    1.000
    C254     C        0.88940    0.52770    0.84610    1.000
    H169     H        0.91210    0.55320    0.86190    1.000
    C255     C        0.72670    0.55870    0.66540    1.000
    C256     C        0.83400    0.54170    0.78960    1.000
    C257     C        0.80930    0.59410    0.75350    1.000
    C258     C        0.94870    0.28790    0.53350    1.000
    C259     C        0.75880    0.60390    0.69610    1.000
    C260     C        0.98280    0.16360    0.55810    1.000
    C261     C        0.82380    0.45360    0.80000    1.000
    H170     H        0.80140    0.42630    0.78440    1.000
    C262     C        0.79560    0.72650    0.71860    1.000
    C263     C        0.85010    0.22040    0.64470    1.000
    H171     H        0.82610    0.24910    0.64070    1.000
    C264     C        0.86730    0.57890    0.81310    1.000
    H172     H        0.87480    0.63710    0.80710    1.000
    C265     C        0.84790    0.40850    0.83410    1.000
    H173     H        0.84090    0.35050    0.84130    1.000
    C266     C        0.84110    0.95320    0.74610    1.000
    H174     H        0.86290    0.97660    0.76490    1.000
    C267     C        0.90830    0.19200    0.61940    1.000
    C268     C        0.93310    0.20700    0.58790    1.000
    C269     C        0.78480    0.97650    0.69470    1.000
    H175     H        0.76720    0.01590    0.67780    1.000
    C270     C        0.06260    0.03390    0.52310    1.000
    H176     H        0.07230    0.02600    0.49770    1.000
    C271     C        0.80330    0.82520    0.71720    1.000
    C272     C        0.91240    0.42690    0.50290    1.000
    H177     H        0.89470    0.41600    0.52070    1.000
    C273     C        0.01610    0.10180    0.55790    1.000
    C274     C        0.71570    0.47260    0.67350    1.000
    H178     H        0.72840    0.44250    0.69870    1.000
    C275     C        0.91890    0.13520    0.65550    1.000
    H179     H        0.94240    0.10460    0.66010    1.000
    C276     C        0.70810    0.60030    0.62710    1.000
    H180     H        0.71510    0.65830    0.62000    1.000
    C277     C        0.68660    0.43070    0.64540    1.000
    H181     H        0.67930    0.37270    0.65210    1.000
    C278     C        0.96940    0.38910    0.47750    1.000
    H182     H        0.99080    0.35220    0.47750    1.000
    C279     C        0.67840    0.55370    0.59930    1.000
    H183     H        0.66550    0.58200    0.57370    1.000
    C280     C        0.83560    0.86210    0.74490    1.000
    H184     H        0.85350    0.82440    0.76260    1.000
    C281     C        0.96350    0.46480    0.45140    1.000
    H185     H        0.98130    0.47850    0.43400    1.000
    C282     C        0.87240    0.23560    0.61510    1.000
    H186     H        0.86390    0.27510    0.59180    1.000
    C283     C        0.77770    0.88540    0.69150    1.000
    H187     H        0.75580    0.86360    0.67220    1.000
    C284     C        0.89480    0.12430    0.68400    1.000
    H188     H        0.90260    0.08560    0.70780    1.000
    C285     C        0.90780    0.50090    0.47580    1.000
    H189     H        0.88670    0.53880    0.47540    1.000
    C286     C        0.03190    0.09050    0.52130    1.000
    H190     H        0.02170    0.12150    0.49550    1.000
    C287     C        0.06470    0.00050    0.59470    1.000
    H191     H        0.07560    0.96870    0.62010    1.000
    C288     C        0.03370    0.05750    0.59610    1.000
    H192     H        0.02480    0.06570    0.62210    1.000
