data_functionalizedCrystal
_audit_creation_method	'EQeq! by Chris Wilmer'
_symmetry_space_group_name_H-M	'P1'
_symmetry_Int_Tables_number	1
_symmetry_cell_setting	triclinic
loop_
_symmetry_equiv_pos_as_xyz
  x,y,z
_cell_length_a	9.1332
_cell_length_b	13.8397
_cell_length_c	9.0847
_cell_angle_alpha	90
_cell_angle_beta	117.392
_cell_angle_gamma	90
loop_
_atom_site_label
_atom_site_type_symbol
_atom_site_fract_x
_atom_site_fract_y
_atom_site_fract_z
_atom_site_charge
Mof_Co	Co	0.27759	0.59584	0.22192	1.166
Mof_O 	O 	0.0208	0.6087	0.1064	-0.349
Mof_O 	O 	0.7937	0.533	0.9237	-0.358
Mof_C 	C 	0.9455	0.5399	0.009	0.215
Mof_O 	O 	0.5261	0.5555	0.3408	-0.367
Mof_O 	O 	0.712	0.4844	0.5727	-0.344
Mof_C 	C 	0.5707	0.5114	0.4762	0.222
Mof_N 	N 	0.3131	0.7236	0.3579	-0.196
Mof_N 	N 	0.432	0.7894	0.3835	-0.191
Mof_H 	H 	0.4958	0.7895	0.3346	0.121
Mof_N 	N 	0.3173	0.8321	0.5394	-0.263
Mof_C 	C 	0.248	0.7522	0.4535	0.113
Mof_H 	H 	0.1603	0.7192	0.4605	-0.003
Mof_C 	C 	0.4371	0.8542	0.495	0.232
Mof_N 	N 	0.542	0.9266	0.54	-0.338
Mof_H 	H 	0.6103	0.9329	0.4968	0.175
Mof_H 	H 	0.5443	0.9688	0.6136	0.169
Mof_Co	Co	0.72241	0.09584	0.27808	1.165
Mof_O 	O 	0.9792	0.1087	0.3936	-0.354
Mof_O 	O 	0.2063	0.033	0.5763	-0.361
Mof_C 	C 	0.0545	0.0399	0.491	0.22
Mof_O 	O 	0.4739	0.0555	0.1592	-0.367
Mof_O 	O 	0.288	0.9844	0.9273	-0.345
Mof_C 	C 	0.4293	0.0114	0.0238	0.222
Mof_N 	N 	0.6869	0.2236	0.1421	-0.196
Mof_N 	N 	0.568	0.2894	0.1165	-0.191
Mof_H 	H 	0.5042	0.2895	0.1654	0.121
Mof_N 	N 	0.6827	0.3321	0.9606	-0.261
Mof_C 	C 	0.752	0.2522	0.0465	0.111
Mof_H 	H 	0.8397	0.2192	0.0395	-0.003
Mof_C 	C 	0.5629	0.3542	0.005	0.23
Mof_N 	N 	0.458	0.4266	0.96	-0.338
Mof_H 	H 	0.3897	0.4329	0.0032	0.175
Mof_H 	H 	0.4557	0.4688	0.8864	0.169
Mof_Co	Co	0.72241	0.40416	0.77808	1.165
Mof_O 	O 	0.9792	0.3913	0.8936	-0.35
Mof_O 	O 	0.2063	0.467	0.0763	-0.358
Mof_C 	C 	0.0545	0.4601	0.991	0.215
Mof_O 	O 	0.4739	0.4445	0.6592	-0.367
Mof_O 	O 	0.288	0.5156	0.4273	-0.344
Mof_C 	C 	0.4293	0.4886	0.5238	0.222
Mof_N 	N 	0.6869	0.2764	0.6421	-0.196
Mof_N 	N 	0.568	0.2106	0.6165	-0.191
Mof_H 	H 	0.5042	0.2105	0.6654	0.121
Mof_N 	N 	0.6827	0.1679	0.4606	-0.263
Mof_C 	C 	0.752	0.2478	0.5465	0.113
Mof_H 	H 	0.8397	0.2808	0.5395	-0.003
Mof_C 	C 	0.5629	0.1458	0.505	0.232
Mof_N 	N 	0.458	0.0734	0.46	-0.338
Mof_H 	H 	0.3897	0.0671	0.5032	0.175
Mof_H 	H 	0.4557	0.0312	0.3864	0.169
Mof_Co	Co	0.27759	0.90416	0.72192	1.165
Mof_O 	O 	0.0208	0.8913	0.6064	-0.354
Mof_O 	O 	0.7937	0.967	0.4237	-0.361
Mof_C 	C 	0.9455	0.9601	0.509	0.22
Mof_O 	O 	0.5261	0.9445	0.8408	-0.367
Mof_O 	O 	0.712	0.0156	0.0727	-0.345
Mof_C 	C 	0.5707	0.9886	0.9762	0.222
Mof_N 	N 	0.3131	0.7764	0.8579	-0.196
Mof_N 	N 	0.432	0.7106	0.8835	-0.191
Mof_H 	H 	0.4958	0.7105	0.8346	0.121
Mof_N 	N 	0.3173	0.6679	0.0394	-0.261
Mof_C 	C 	0.248	0.7478	0.9535	0.111
Mof_H 	H 	0.1603	0.7808	0.9605	-0.003
Mof_C 	C 	0.4371	0.6458	0.995	0.23
Mof_N 	N 	0.542	0.5734	0.04	-0.338
Mof_H 	H 	0.6103	0.5671	0.9968	0.175
Mof_H 	H 	0.5443	0.5312	0.1136	0.169
_end
