data_functionalizedCrystal
_audit_creation_method	'EQeq! by Chris Wilmer'
_symmetry_space_group_name_H-M	'P1'
_symmetry_Int_Tables_number	1
_symmetry_cell_setting	triclinic
loop_
_symmetry_equiv_pos_as_xyz
  x,y,z
_cell_length_a	16.62
_cell_length_b	30.526
_cell_length_c	28.362
_cell_angle_alpha	90
_cell_angle_beta	98.317
_cell_angle_gamma	90
loop_
_atom_site_label
_atom_site_type_symbol
_atom_site_fract_x
_atom_site_fract_y
_atom_site_fract_z
_atom_site_charge
Mof_O 	O 	0.587	0.939	0.1371	-0.282
Mof_C 	C 	0.1037	0.9302	0.141	0.007
Mof_H 	H 	0.1402	0.9549	0.1379	0.035
Mof_C 	C 	0.0717	0.9548	0.4493	-0.039
Mof_H 	H 	0.0439	0.9605	0.4768	0.056
Mof_C 	C 	0.3005	0.8458	0.314	0.309
Mof_C 	C 	0.0065	0.9435	0.4083	0.349
Mof_C 	C 	0.3059	0.4001	0.4953	-0.087
Mof_H 	H 	0.2601	0.3907	0.5111	0.064
Mof_C 	C 	0.1227	0.995	0.4431	0.027
Mof_H 	H 	0.1555	0.9884	0.4179	0.028
Mof_C 	C 	0.1286	0.8539	0.3106	0.27
Mof_C 	C 	0.0817	0.039	0.431	0.285
Mof_Fe	Fe	0.345	0.36926	0.04982	1.023
Mof_O 	O 	0.3561	0.4317	0.0697	-0.552
Mof_C 	C 	0.371	0.4455	0.1118	0.521
Mof_H 	H 	0.3785	0.4258	0.1371	-0.181
Mof_O 	O 	0.376	0.4869	0.1198	-0.6
Mof_C 	C 	0.2519	0.8753	0.5808	-0.028
Mof_H 	H 	0.2935	0.893	0.6001	0.061
Mof_C 	C 	0.3091	0.4494	0.4896	0.427
Mof_C 	C 	0.172	0.8979	0.585	-0.034
Mof_H 	H 	0.1291	0.8832	0.5633	0.06
Mof_C 	C 	0.386	0.3799	0.5176	-0.008
Mof_H 	H 	0.4316	0.3888	0.5014	0.054
Mof_C 	C 	0.2684	0.8287	0.5977	0.333
Mof_C 	C 	0.1487	0.8967	0.6347	0.335
Mof_C 	C 	0.0337	0.0236	0.5792	0.579
Mof_H 	H 	0.9781	0.0256	0.5799	-0.214
Mof_C 	C 	0.3807	0.9846	0.6509	0.572
Mof_H 	H 	0.4228	0.9719	0.6716	-0.157
Mof_O 	O 	0.2118	0.0877	0.7209	-0.605
Mof_C 	C 	0.21	0.0675	0.6811	0.475
Mof_H 	H 	0.2086	0.0832	0.6529	-0.175
Mof_O 	O 	0.2087	0.0258	0.6805	-0.522
Mof_C 	C 	0.3044	0.1148	0.506	-0.027
Mof_H 	H 	0.3374	0.1162	0.4801	0.041
Mof_C 	C 	0.3612	0.126	0.551	0.296
Mof_C 	C 	0.2373	0.1486	0.494	0.009
Mof_H 	H 	0.2035	0.1381	0.465	0.027
Mof_C 	C 	0.1824	0.1497	0.5325	0.287
Mof_C 	C 	0.3995	0.3916	0.5704	0.355
Mof_C 	C 	0.1489	0.4209	0.3522	0.486
Mof_H 	H 	0.0987	0.4348	0.349	-0.14
Mof_C 	C 	0.5171	0.4098	0.4059	0.386
Mof_H 	H 	0.5686	0.4156	0.4223	-0.084
Mof_C 	C 	0.3454	0.304	0.2554	-0.01
Mof_H 	H 	0.3701	0.2752	0.2522	0.046
Mof_C 	C 	0.4046	0.3376	0.2408	0.345
Mof_C 	C 	0.2503	0.298	0.9452	0.003
Mof_H 	H 	0.2138	0.3195	0.9567	0.046
Mof_C 	C 	0.235	0.2997	0.8913	0.292
Mof_C 	C 	0.3362	0.3116	0.9644	-0.021
Mof_H 	H 	0.373	0.2885	0.9564	0.05
Mof_C 	C 	0.371	0.3552	0.9521	0.265
Mof_C 	C 	0.056	0.1986	0.9241	0.492
Mof_H 	H 	0.0026	0.2048	0.9114	-0.092
Mof_C 	C 	0.423	0.194	0.9144	0.419
Mof_H 	H 	0.4698	0.2013	0.902	-0.14
Mof_C 	C 	0.2802	0.076	0.0447	-0.032
Mof_H 	H 	0.3146	0.0705	0.0753	0.046
Mof_C 	C 	0.2011	0.0518	0.0446	0.014
Mof_H 	H 	0.17	0.0658	0.0673	0.02
Mof_C 	C 	0.34	0.9352	0.1458	-0.024
Mof_H 	H 	0.3086	0.9396	0.1721	0.045
Mof_C 	C 	0.3906	0.9763	0.1431	0.323
Mof_C 	C 	0.3781	0.8897	0.1528	-0.023
Mof_H 	H 	0.4082	0.884	0.1261	0.058
Mof_C 	C 	0.1682	0.7992	0.0452	-0.024
Mof_H 	H 	0.1264	0.8134	0.0223	0.053
Mof_C 	C 	0.2521	0.8094	0.0332	-0.042
Mof_H 	H 	0.2942	0.7956	0.0562	0.063
Mof_C 	C 	0.257	0.7929	0.9829	0.405
Mof_C 	C 	0.156	0.75	0.0443	0.355
Mof_C 	C 	0.001	0.7942	0.157	0.538
Mof_H 	H 	0.9463	0.7872	0.151	-0.122
Mof_C 	C 	0.351	0.7544	0.1706	0.633
Mof_H 	H 	0.391	0.7333	0.1692	-0.208
Mof_C 	C 	0.2547	0.8868	0.2951	-0.071
Mof_H 	H 	0.2913	0.9118	0.3022	0.065
Mof_C 	C 	0.1793	0.8952	0.3186	0.051
Mof_H 	H 	0.1487	0.9194	0.3019	0.009
Mof_O 	O 	0.177	0.7145	0.1866	-0.363
Mof_C 	C 	0.206	0.705	0.2309	0.373
Mof_H 	H 	0.2117	0.7262	0.2548	-0.166
Mof_O 	O 	0.227	0.665	0.2394	-0.448
Mof_Fe	Fe	0.2301	0.21186	0.91267	1.022
Mof_O 	O 	0.2272	0.1752	0.8529	-0.471
Mof_C 	C 	0.214	0.1332	0.8561	0.434
Mof_H 	H 	0.2021	0.1207	0.8841	-0.148
Mof_O 	O 	0.219	0.11	0.819	-0.566
Mof_C 	C 	0.377	0.4748	0.32	0.606
Mof_H 	H 	0.3911	0.448	0.3081	-0.198
Mof_C 	C 	0.0587	0.9223	0.0911	-0.037
Mof_H 	H 	0.0285	0.8948	0.0921	0.051
Mof_C 	C 	0.9978	0.9571	0.0709	0.34
Mof_C 	C 	0.0562	0.9429	0.1807	0.303
Mof_C 	C 	0.4371	0.8857	0.1986	0.329
Mof_C 	C 	0.422	0.9071	0.003	0.527
Mof_H 	H 	0.4753	0.8994	0.0014	-0.133
Mof_C 	C 	0.0574	0.8948	0.9496	0.416
Mof_H 	H 	0.0097	0.8833	0.933	-0.096
Mof_O 	O 	0.2198	0.9035	0.9046	-0.473
Mof_C 	C 	0.218	0.9424	0.8888	0.483
Mof_H 	H 	0.2286	0.9656	0.9099	-0.157
Mof_O 	O 	0.2001	0.9499	0.844	-0.576
Mof_C 	C 	0.3237	0.0586	0.0051	0.291
Mof_C 	C 	0.1515	0.0533	0.995	0.267
Mof_C 	C 	0.4361	0.2044	0.063	0.004
Mof_H 	H 	0.4714	0.23	0.0617	0.05
Mof_C 	C 	0.3955	0.2071	0.1072	-0.062
Mof_H 	H 	0.3583	0.1822	0.1079	0.064
Mof_C 	C 	0.4473	0.212	0.1557	0.367
Mof_C 	C 	0.105	0.177	0.0865	0.342
Mof_C 	C 	0.1624	0.2152	0.0839	-0.067
Mof_H 	H 	0.1993	0.2177	0.114	0.054
Mof_C 	C 	0.1258	0.2596	0.0699	0.03
Mof_H 	H 	0.0965	0.2561	0.0376	0.029
Mof_C 	C 	0.0636	0.2761	0.1001	0.283
Mof_C 	C 	0.153	0.3959	0.0418	0.301
Mof_H 	H 	0.1091	0.4113	0.0256	-0.072
Mof_C 	C 	0.508	0.3379	0.0897	0.438
Mof_H 	H 	0.5621	0.3389	0.0855	-0.086
Mof_C 	C 	0.2672	0.305	0.22	-0.039
Mof_H 	H 	0.2285	0.2848	0.2315	0.058
Mof_C 	C 	0.2314	0.3507	0.2195	0.312
Mof_C 	C 	0.4727	0.2768	0.4163	-0.068
Mof_H 	H 	0.5051	0.2773	0.448	0.083
Mof_C 	C 	0.5288	0.2731	0.3788	0.368
Mof_C 	C 	0.4055	0.2428	0.4154	0.043
Mof_H 	H 	0.3682	0.2458	0.3855	0.023
Mof_C 	C 	0.4372	0.1962	0.4196	0.247
Mof_C 	C 	0.1362	0.2708	0.3375	0.35
Mof_C 	C 	0.1906	0.2759	0.3847	-0.033
Mof_H 	H 	0.2155	0.2471	0.3922	0.043
Mof_C 	C 	0.1492	0.2885	0.4273	0.006
Mof_H 	H 	0.1275	0.3182	0.4221	0.045
Mof_C 	C 	0.0806	0.2588	0.4377	0.298
Mof_C 	C 	0.1658	0.3142	0.5721	0.461
Mof_H 	H 	0.1263	0.33	0.5849	-0.113
Mof_C 	C 	0.516	0.2601	0.5784	0.379
Mof_H 	H 	0.571	0.2614	0.5905	-0.083
Mof_C 	C 	0.319	0.2421	0.6526	0.378
Mof_H 	H 	0.3163	0.2204	0.6295	-0.125
Mof_C 	C 	0.3965	0.9721	0.4961	-0.037
Mof_H 	H 	0.4239	0.9436	0.5003	0.066
Mof_C 	C 	0.344	0.9733	0.4476	0.048
Mof_H 	H 	0.3129	0.0007	0.4446	-0.009
Mof_C 	C 	0.3854	0.9676	0.4037	0.336
Mof_C 	C 	0.4596	0.0084	0.5053	0.326
Mof_C 	C 	0.0569	0.8178	0.4761	0.401
Mof_H 	H 	0.0118	0.8045	0.486	-0.079
Mof_C 	C 	0.4213	0.8386	0.4798	0.445
Mof_H 	H 	0.4761	0.8345	0.4911	-0.098
Mof_O 	O 	0.2276	0.7623	0.47	-0.426
Mof_C 	C 	0.23	0.7477	0.4278	0.479
Mof_H 	H 	0.2433	0.766	0.404	-0.158
Mof_O 	O 	0.212	0.7072	0.4191	-0.542
Mof_C 	C 	0.4857	0.163	0.0602	0.285
Mof_O 	O 	0.5589	0.1611	0.086	-0.238
Mof_O 	O 	0.2249	0.8527	0.4395	-0.573
Mof_O 	O 	0.2669	0.881	0.5322	-0.375
Mof_O 	O 	0.1253	0.9201	0.4621	-0.362
Mof_O 	O 	0.0316	0.9147	0.382	-0.401
Mof_O 	O 	0.9428	0.963	0.4006	-0.372
Mof_O 	O 	0.1768	0.9998	0.4858	-0.371
Mof_O 	O 	0.2341	0.0293	0.5785	-0.585
Mof_O 	O 	0.1802	0.943	0.5676	-0.368
Mof_O 	O 	0.2622	0.799	0.5643	-0.389
Mof_O 	O 	0.2773	0.8194	0.6395	-0.386
Mof_O 	O 	0.1674	0.9354	0.6574	-0.385
Mof_O 	O 	0.1196	0.8678	0.6524	-0.341
Mof_O 	O 	0.0746	0.0038	0.6125	-0.479
Mof_O 	O 	0.0595	0.0407	0.5458	-0.506
Mof_O 	O 	0.3166	0.9676	0.65	-0.461
Mof_O 	O 	0.4015	0.018	0.6275	-0.482
Mof_O 	O 	0.2771	0.0709	0.5071	-0.375
Mof_O 	O 	0.3678	0.0983	0.5863	-0.357
Mof_O 	O 	0.3887	0.1643	0.5582	-0.362
Mof_O 	O 	0.3126	0.2513	0.544	-0.562
Mof_O 	O 	0.3718	0.3334	0.5151	-0.361
Mof_O 	O 	0.2565	0.3059	0.3822	-0.383
Mof_O 	O 	0.3331	0.3783	0.3526	-0.577
Mof_O 	O 	0.3017	0.3813	0.4454	-0.37
Mof_O 	O 	0.3216	0.4656	0.4503	-0.528
Mof_O 	O 	0.2942	0.4701	0.5238	-0.488
Mof_O 	O 	0.3865	0.3631	0.6016	-0.426
Mof_O 	O 	0.4272	0.428	0.5834	-0.395
Mof_O 	O 	0.3573	0.4764	0.3589	-0.55
Mof_O 	O 	0.378	0.5094	0.2945	-0.522
Mof_O 	O 	0.2097	0.443	0.3725	-0.429
Mof_O 	O 	0.1496	0.3835	0.3366	-0.425
Mof_O 	O 	0.4536	0.4223	0.4254	-0.379
Mof_O 	O 	0.5123	0.3903	0.366	-0.367
Mof_O 	O 	0.3364	0.3084	0.3023	-0.368
Mof_O 	O 	0.4414	0.3618	0.2753	-0.339
Mof_O 	O 	0.4235	0.3395	0.2023	-0.385
Mof_O 	O 	0.3184	0.3427	0.1073	-0.568
Mof_O 	O 	0.3352	0.3104	0.0168	-0.382
Mof_O 	O 	0.21	0.2036	0.0445	-0.378
Mof_O 	O 	0.2467	0.1667	0.9607	-0.563
Mof_O 	O 	0.2346	0.2577	0.9649	-0.384
Mof_O 	O 	0.2233	0.2646	0.8718	-0.356
Mof_O 	O 	0.2163	0.3395	0.8717	-0.248
Mof_O 	O 	0.3693	0.3867	0.9859	-0.401
Mof_O 	O 	0.3963	0.3631	0.912	-0.23
Mof_O 	O 	0.1075	0.2099	0.9021	-0.436
Mof_O 	O 	0.0687	0.1779	0.9651	-0.38
Mof_O 	O 	0.3618	0.2167	0.9086	-0.403
Mof_O 	O 	0.416	0.1577	0.9399	-0.398
Mof_O 	O 	0.2733	0.1227	0.0379	-0.374
Mof_O 	O 	0.2115	0.0078	0.0561	-0.405
Mof_O 	O 	0.2281	0.9404	0.001	-0.57
Mof_O 	O 	0.256	0.8563	0.0376	-0.372
Mof_O 	O 	0.2794	0.9335	0.101	-0.388
Mof_O 	O 	0.3927	0.9938	0.1015	-0.359
Mof_O 	O 	0.4399	0.9847	0.1783	-0.372
Mof_O 	O 	0.3114	0.8593	0.1494	-0.378
Mof_O 	O 	0.1988	0.8125	0.1916	-0.578
Mof_O 	O 	0.1661	0.8161	0.0925	-0.372
Mof_O 	O 	0.2523	0.8226	0.9514	-0.339
Mof_O 	O 	0.275	0.758	0.9812	-0.324
Mof_O 	O 	0.1482	0.7321	0.085	-0.328
Mof_O 	O 	0.141	0.7312	0.006	-0.369
Mof_O 	O 	0.048	0.7686	0.1455	-0.43
Mof_O 	O 	0.0208	0.8305	0.1767	-0.428
Mof_O 	O 	0.2949	0.7525	0.1395	-0.478
Mof_O 	O 	0.3643	0.7796	0.2037	-0.512
Mof_O 	O 	0.2359	0.8828	0.2417	-0.36
Mof_O 	O 	0.198	0.9059	0.3638	-0.377
Mof_O 	O 	0.1014	0.8383	0.349	-0.331
Mof_O 	O 	0.1037	0.8373	0.2708	-0.362
Mof_O 	O 	0.3223	0.8438	0.3583	-0.356
Mof_O 	O 	0.32	0.8153	0.283	-0.327
Mof_O 	O 	0.1544	0.8942	0.1515	-0.39
Mof_O 	O 	0.1203	0.9149	0.0616	-0.365
Mof_O 	O 	0.0311	0.9852	0.0435	-0.348
Mof_O 	O 	0.9331	0.9633	0.0795	-0.351
Mof_O 	O 	0.0609	0.9142	0.2155	-0.403
Mof_O 	O 	0.0121	0.9745	0.1786	-0.401
Mof_O 	O 	0.4072	0.8682	0.2312	-0.415
Mof_O 	O 	0.5076	0.8971	0.1982	-0.333
Mof_O 	O 	0.3664	0.8927	0.9751	-0.428
Mof_O 	O 	0.4032	0.9333	0.0348	-0.43
Mof_O 	O 	0.1173	0.8703	0.9571	-0.386
Mof_O 	O 	0.0564	0.9358	0.9633	-0.389
Mof_O 	O 	0.3401	0.0156	0.0017	-0.367
Mof_O 	O 	0.348	0.0845	0.9747	-0.361
Mof_O 	O 	0.1193	0.0214	0.9734	-0.352
Mof_O 	O 	0.1301	0.0928	0.9744	-0.317
Mof_O 	O 	0.3689	0.2063	0.023	-0.377
Mof_O 	O 	0.3446	0.2511	0.0989	-0.376
Mof_O 	O 	0.4468	0.2482	0.1782	-0.373
Mof_O 	O 	0.4725	0.1786	0.1708	-0.315
Mof_O 	O 	0.4492	0.1331	0.0367	-0.353
Mof_O 	O 	0.1033	0.1465	0.0578	-0.41
Mof_O 	O 	0.051	0.1799	0.1155	-0.46
Mof_O 	O 	0.19	0.2867	0.066	-0.372
Mof_O 	O 	0.1095	0.3057	0.1329	-0.327
Mof_O 	O 	0.9931	0.2658	0.1007	-0.392
Mof_O 	O 	0.2236	0.3868	0.0209	-0.366
Mof_O 	O 	0.1528	0.3814	0.0849	-0.358
Mof_O 	O 	0.4643	0.3662	0.064	-0.407
Mof_O 	O 	0.4942	0.3095	0.1188	-0.402
Mof_O 	O 	0.2756	0.2923	0.1714	-0.356
Mof_O 	O 	0.2231	0.3698	0.2589	-0.365
Mof_O 	O 	0.214	0.3701	0.1783	-0.343
Mof_O 	O 	0.4241	0.317	0.4093	-0.343
Mof_O 	O 	0.5071	0.2971	0.3414	-0.374
Mof_O 	O 	0.5854	0.2475	0.3843	-0.386
Mof_O 	O 	0.3637	0.2544	0.4538	-0.399
Mof_O 	O 	0.4331	0.1775	0.4626	-0.326
Mof_O 	O 	0.4719	0.1748	0.3904	-0.29
Mof_O 	O 	0.1524	0.2986	0.3055	-0.352
Mof_O 	O 	0.0893	0.2423	0.33	-0.348
Mof_O 	O 	0.2123	0.2897	0.4647	-0.37
Mof_O 	O 	0.0992	0.2298	0.4696	-0.369
Mof_O 	O 	0.0103	0.2643	0.4181	-0.267
Mof_O 	O 	0.2302	0.3321	0.5729	-0.439
Mof_O 	O 	0.1438	0.2748	0.5555	-0.398
Mof_O 	O 	0.4665	0.2823	0.5966	-0.369
Mof_O 	O 	0.4891	0.2331	0.5393	-0.348
Mof_O 	O 	0.3353	0.287	0.6442	-0.439
Mof_O 	O 	0.31	0.2354	0.696	-0.537
Mof_O 	O 	0.2627	0.1897	0.4838	-0.373
Mof_O 	O 	0.1536	0.1154	0.5489	-0.374
Mof_O 	O 	0.1701	0.1862	0.5528	-0.338
Mof_O 	O 	0.3375	0.9756	0.53	-0.344
Mof_O 	O 	0.2898	0.9379	0.4494	-0.402
Mof_O 	O 	0.3788	0.9321	0.3833	-0.367
Mof_O 	O 	0.4305	0.998	0.3924	-0.374
Mof_O 	O 	0.4452	0.0393	0.5353	-0.45
Mof_O 	O 	0.5239	0.0058	0.4901	-0.494
Mof_O 	O 	0.0982	0.0701	0.4619	-0.39
Mof_O 	O 	0.0395	0.0439	0.3916	-0.423
Mof_O 	O 	0.1235	0.8195	0.5073	-0.359
Mof_O 	O 	0.0483	0.8322	0.4348	-0.385
Mof_O 	O 	0.3693	0.8133	0.4985	-0.376
Mof_O 	O 	0.405	0.8668	0.4491	-0.409
Mof_Fe	Fe	0.3052	0.88756	0.40825	0.99
Mof_Fe	Fe	0.1255	0.87646	0.40925	0.971
Mof_Fe	Fe	0.2471	0.82339	0.49655	1.045
Mof_Fe	Fe	0.2306	0.9414	0.50667	0.935
Mof_Fe	Fe	0.1665	0.05379	0.52355	0.985
Mof_Fe	Fe	0.3403	0.03553	0.56258	0.953
Mof_Fe	Fe	0.2002	0.98765	0.62212	1.08
Mof_Fe	Fe	0.3758	0.2141	0.50945	0.97
Mof_Fe	Fe	0.2047	0.24095	0.51218	0.958
Mof_Fe	Fe	0.3475	0.3039	0.57702	0.998
Mof_Fe	Fe	0.3213	0.31553	0.44682	0.929
Mof_Fe	Fe	0.2412	0.3427	0.32361	0.994
Mof_Fe	Fe	0.4231	0.3446	0.34386	0.983
Mof_Fe	Fe	0.3293	0.42475	0.39645	1.041
Mof_Fe	Fe	0.3852	0.29979	0.14496	0.962
Mof_Fe	Fe	0.2132	0.33033	0.11949	0.994
Mof_Fe	Fe	0.2823	0.25436	0.03406	0.951
Mof_Fe	Fe	0.1721	0.15197	0.00512	0.98
Mof_Fe	Fe	0.3473	0.14848	0.9935	1.005
Mof_Fe	Fe	0.1306	0.96466	0.01586	0.998
Mof_Fe	Fe	0.3093	0.96963	0.04804	1.02
Mof_Fe	Fe	0.2426	0.88627	0.97288	1.047
Mof_Fe	Fe	0.2149	0.87759	0.09773	0.945
Mof_Fe	Fe	0.3023	0.83477	0.21348	1.012
Mof_Fe	Fe	0.1282	0.85971	0.20735	0.975
Mof_Fe	Fe	0.1735	0.76949	0.14415	1.029
Mof_O 	O 	0.642	0.0979	0.1422	-0.379
Mof_Ba	Ba	0.59448	0.01639	0.40921	1.118
Mof_Ba	Ba	0.73968	0.22704	0.36523	1.182
Mof_Ba	Ba	0.2536	0.17075	0.74716	1.428
Mof_Ba	Ba	0.9223	0.11916	0.09367	0.495
Mof_Ba	Ba	0.5889	0.02611	0.1623	1.511
Mof_Ba	Ba	0.6075	0.8629	0.2881	0.8
Mof_Ba	Ba	0.3977	0.52913	0.2081	1.154
Mof_Ba	Ba	0.2027	0.02532	0.78976	1.323
Mof_O 	O 	0.619	0.9584	0.2409	-0.448
Mof_O 	O 	0.698	0.1972	0.4546	-0.349
Mof_O 	O 	0.667	0.8704	0.193	-0.337
Mof_O 	O 	0.527	0.0484	0.0793	-0.366
Mof_O 	O 	0.9032	0.151	0.9975	-0.233
Mof_O 	O 	0.4904	0.7948	0.3052	-0.291
Mof_Ba	Ba	0.1418	0.66266	0.49288	1.203
Mof_O 	O 	0.1292	0.7312	0.5556	-0.373
Mof_O 	O 	0.778	0.832	0.2799	-0.39
Mof_O 	O 	0.25	0.2588	0.7821	-0.341
Mof_O 	O 	0.286	0.9458	0.7564	-0.36
Mof_Ba	Ba	0.111	0.8742	0.8023	0.717
Mof_O 	O 	0.1379	0.7984	0.7609	-0.535
Mof_O 	O 	0.9679	0.8097	0.7822	-0.229
Mof_O 	O 	0.1433	0.8002	0.8746	-0.185
Mof_O 	O 	0.277	0.6293	0.4528	-0.421
Mof_O 	O 	0.7069	0.0786	0.6612	-0.42
Mof_O 	O 	0.666	0.2328	0.1066	-0.096
Mof_Ba	Ba	0.7718	0.9145	0.26737	0.685
Mof_Ba	Ba	0.6089	0.79857	0.2457	1.129
Mof_Ba	Ba	0.9301	0.033	0.3144	0.227
Mof_Ba	Ba	0.7907	0.3721	0.194	0.421
Mof_O 	O 	0.83	0.0788	0.9571	-0.206
Mof_O 	O 	0.805	0.0939	0.994	-0.273
Mof_O 	O 	0.596	0.1147	0.1753	-0.272
Mof_Ba	Ba	0.7903	0.2307	0.1777	2.099
Mof_Ba	Ba	0.7793	0.245	0.1318	-1.624
Mof_Ba	Ba	0.8311	0.3902	0.2419	0.45
Mof_Ba	Ba	0.6871	0.0089	0.1113	-0.227
Mof_Ba	Ba	0.9437	0.2289	0.1786	0.173
Mof_Ba	Ba	0.8733	0.2039	0.0844	1.349
Mof_Ba	Ba	0.3325	0.4775	0.9783	0.883
Mof_Ba	Ba	0.8985	0.9516	0.2409	0.622
Mof_Ba	Ba	0.0131	0.0954	0.2985	0.52
Mof_Ba	Ba	0.3109	0.536	0.0463	0.851
Mof_Ba	Ba	0.218	0.6604	0.34	1.496
Mof_Ba	Ba	0.6345	0.0532	0.5661	1.536
Mof_O 	O 	0.3151	0.6311	0.3964	-0.485
Mof_O 	O 	0.413	0.439	0.8629	-0.297
Mof_C 	C 	0.8963	0.4302	0.859	0.007
Mof_H 	H 	0.8598	0.4549	0.8621	0.029
Mof_C 	C 	0.9283	0.4548	0.5507	-0.032
Mof_H 	H 	0.9561	0.4605	0.5232	0.047
Mof_C 	C 	0.6995	0.3458	0.686	0.309
Mof_C 	C 	0.9935	0.4435	0.5917	0.348
Mof_C 	C 	0.6941	0.9001	0.5047	-0.084
Mof_H 	H 	0.7399	0.8907	0.4889	0.064
Mof_C 	C 	0.8773	0.495	0.5569	-0.006
Mof_H 	H 	0.8445	0.4884	0.5821	0.028
Mof_C 	C 	0.8714	0.3539	0.6894	0.269
Mof_C 	C 	0.9183	0.539	0.569	0.319
Mof_Fe	Fe	0.655	0.86926	0.95018	1.023
Mof_O 	O 	0.6439	0.9317	0.9303	-0.55
Mof_C 	C 	0.629	0.9455	0.8882	0.517
Mof_H 	H 	0.6215	0.9258	0.8629	-0.174
Mof_O 	O 	0.624	0.9869	0.8802	-0.569
Mof_C 	C 	0.7481	0.3753	0.4192	-0.028
Mof_H 	H 	0.7065	0.393	0.3999	0.061
Mof_C 	C 	0.6909	0.9494	0.5104	0.423
Mof_C 	C 	0.828	0.3979	0.415	-0.033
Mof_H 	H 	0.8709	0.3832	0.4367	0.059
Mof_C 	C 	0.614	0.8799	0.4824	-0.007
Mof_H 	H 	0.5684	0.8888	0.4986	0.055
Mof_C 	C 	0.7316	0.3287	0.4023	0.333
Mof_C 	C 	0.8513	0.3967	0.3653	0.333
Mof_C 	C 	0.9663	0.5236	0.4208	0.573
Mof_H 	H 	0.0219	0.5256	0.4201	-0.205
Mof_C 	C 	0.6193	0.4846	0.3491	0.513
Mof_H 	H 	0.5772	0.4719	0.3284	-0.146
Mof_O 	O 	0.7882	0.5877	0.2791	-0.605
Mof_C 	C 	0.79	0.5675	0.3189	0.469
Mof_H 	H 	0.7914	0.5832	0.3471	-0.171
Mof_O 	O 	0.7913	0.5258	0.3195	-0.502
Mof_C 	C 	0.6956	0.6148	0.494	-0.028
Mof_H 	H 	0.6626	0.6162	0.5199	0.042
Mof_C 	C 	0.6388	0.626	0.449	0.297
Mof_C 	C 	0.7627	0.6486	0.506	0.009
Mof_H 	H 	0.7965	0.6381	0.535	0.028
Mof_C 	C 	0.8176	0.6497	0.4675	0.288
Mof_C 	C 	0.6005	0.8916	0.4296	0.352
Mof_C 	C 	0.8511	0.9209	0.6478	0.483
Mof_H 	H 	0.9013	0.9348	0.651	-0.132
Mof_C 	C 	0.4829	0.9098	0.5941	0.387
Mof_H 	H 	0.4314	0.9156	0.5777	-0.083
Mof_C 	C 	0.6546	0.804	0.7446	-0.01
Mof_H 	H 	0.6299	0.7752	0.7478	0.046
Mof_C 	C 	0.5954	0.8376	0.7592	0.345
Mof_C 	C 	0.7497	0.798	0.0548	0.005
Mof_H 	H 	0.7862	0.8195	0.0433	0.045
Mof_C 	C 	0.765	0.7997	0.1087	0.292
Mof_C 	C 	0.6638	0.8116	0.0356	-0.025
Mof_H 	H 	0.627	0.7885	0.0436	0.05
Mof_C 	C 	0.629	0.8552	0.0479	0.267
Mof_C 	C 	0.944	0.6986	0.0759	0.493
Mof_H 	H 	0.9974	0.7048	0.0886	-0.092
Mof_C 	C 	0.577	0.694	0.0856	0.419
Mof_H 	H 	0.5302	0.7013	0.098	-0.141
Mof_C 	C 	0.7198	0.576	0.9553	-0.029
Mof_H 	H 	0.6854	0.5705	0.9247	0.05
Mof_C 	C 	0.7989	0.5518	0.9554	0.012
Mof_H 	H 	0.83	0.5658	0.9327	0.026
Mof_C 	C 	0.66	0.4352	0.8542	-0.024
Mof_H 	H 	0.6914	0.4396	0.8279	0.043
Mof_C 	C 	0.6094	0.4763	0.8569	0.323
Mof_C 	C 	0.6219	0.3897	0.8472	-0.023
Mof_H 	H 	0.5918	0.384	0.8739	0.058
Mof_C 	C 	0.8318	0.2992	0.9548	-0.025
Mof_H 	H 	0.8736	0.3134	0.9777	0.054
Mof_C 	C 	0.7479	0.3094	0.9668	-0.04
Mof_H 	H 	0.7058	0.2956	0.9438	0.063
Mof_C 	C 	0.743	0.2929	0.0171	0.402
Mof_C 	C 	0.844	0.25	0.9557	0.355
Mof_C 	C 	0.999	0.2942	0.843	0.542
Mof_H 	H 	0.0537	0.2872	0.849	-0.123
Mof_C 	C 	0.649	0.2544	0.8294	0.633
Mof_H 	H 	0.609	0.2333	0.8308	-0.208
Mof_C 	C 	0.7453	0.3868	0.7049	-0.071
Mof_H 	H 	0.7087	0.4118	0.6978	0.063
Mof_C 	C 	0.8207	0.3952	0.6814	0.052
Mof_H 	H 	0.8513	0.4194	0.6981	0.006
Mof_O 	O 	0.823	0.2145	0.8134	-0.362
Mof_C 	C 	0.794	0.205	0.7691	0.373
Mof_H 	H 	0.7883	0.2262	0.7452	-0.166
Mof_O 	O 	0.773	0.165	0.7606	-0.447
Mof_Fe	Fe	0.7699	0.71186	0.08733	1.022
Mof_O 	O 	0.7728	0.6752	0.1471	-0.471
Mof_C 	C 	0.786	0.6332	0.1439	0.436
Mof_H 	H 	0.7979	0.6207	0.1159	-0.148
Mof_O 	O 	0.781	0.61	0.181	-0.569
Mof_C 	C 	0.623	0.9748	0.68	0.66
Mof_H 	H 	0.6089	0.948	0.6919	-0.21
Mof_C 	C 	0.9413	0.4223	0.9089	-0.038
Mof_H 	H 	0.9715	0.3948	0.9079	0.052
Mof_C 	C 	0.0022	0.4571	0.9291	0.339
Mof_C 	C 	0.9438	0.4429	0.8193	0.303
Mof_C 	C 	0.5629	0.3857	0.8014	0.328
Mof_C 	C 	0.578	0.4071	0.997	0.527
Mof_H 	H 	0.5247	0.3994	0.9986	-0.132
Mof_C 	C 	0.9426	0.3948	0.0504	0.417
Mof_H 	H 	0.9903	0.3833	0.067	-0.096
Mof_O 	O 	0.7802	0.4035	0.0954	-0.478
Mof_C 	C 	0.782	0.4424	0.1112	0.488
Mof_H 	H 	0.7714	0.4656	0.0901	-0.169
Mof_O 	O 	0.7999	0.4499	0.156	-0.593
Mof_C 	C 	0.6763	0.5586	0.9949	0.292
Mof_C 	C 	0.8485	0.5533	0.005	0.266
Mof_C 	C 	0.5639	0.7044	0.937	0.004
Mof_H 	H 	0.5286	0.73	0.9383	0.05
Mof_C 	C 	0.6045	0.7071	0.8928	-0.062
Mof_H 	H 	0.6417	0.6822	0.8921	0.064
Mof_C 	C 	0.5527	0.712	0.8443	0.366
Mof_C 	C 	0.895	0.677	0.9135	0.343
Mof_C 	C 	0.8376	0.7152	0.9161	-0.066
Mof_H 	H 	0.8007	0.7177	0.886	0.054
Mof_C 	C 	0.8742	0.7596	0.9301	0.029
Mof_H 	H 	0.9035	0.7561	0.9624	0.03
Mof_C 	C 	0.9364	0.7761	0.8999	0.285
Mof_C 	C 	0.847	0.8959	0.9582	0.303
Mof_H 	H 	0.8909	0.9113	0.9744	-0.069
Mof_C 	C 	0.492	0.8379	0.9103	0.438
Mof_H 	H 	0.4379	0.8389	0.9145	-0.085
Mof_C 	C 	0.7328	0.805	0.78	-0.038
Mof_H 	H 	0.7715	0.7848	0.7685	0.058
Mof_C 	C 	0.7686	0.8507	0.7805	0.312
Mof_C 	C 	0.5273	0.7768	0.5837	-0.068
Mof_H 	H 	0.4949	0.7773	0.552	0.082
Mof_C 	C 	0.4712	0.7731	0.6212	0.368
Mof_C 	C 	0.5945	0.7428	0.5846	0.043
Mof_H 	H 	0.6318	0.7458	0.6145	0.023
Mof_C 	C 	0.5628	0.6962	0.5804	0.248
Mof_C 	C 	0.8638	0.7708	0.6625	0.349
Mof_C 	C 	0.8094	0.7759	0.6153	-0.033
Mof_H 	H 	0.7845	0.7471	0.6078	0.043
Mof_C 	C 	0.8508	0.7885	0.5727	0.005
Mof_H 	H 	0.8725	0.8182	0.5779	0.046
Mof_C 	C 	0.9194	0.7588	0.5623	0.298
Mof_C 	C 	0.8342	0.8142	0.4279	0.461
Mof_H 	H 	0.8737	0.83	0.4151	-0.112
Mof_C 	C 	0.484	0.7601	0.4216	0.379
Mof_H 	H 	0.429	0.7614	0.4095	-0.083
Mof_C 	C 	0.681	0.7421	0.3474	0.378
Mof_H 	H 	0.6837	0.7204	0.3705	-0.125
Mof_C 	C 	0.6035	0.4721	0.5039	-0.054
Mof_H 	H 	0.5761	0.4436	0.4997	0.068
Mof_C 	C 	0.656	0.4733	0.5524	-0.002
Mof_H 	H 	0.6871	0.5007	0.5554	0.03
Mof_C 	C 	0.6146	0.4676	0.5963	0.349
Mof_C 	C 	0.5404	0.5084	0.4947	0.355
Mof_C 	C 	0.9431	0.3178	0.5239	0.4
Mof_H 	H 	0.9882	0.3045	0.514	-0.078
Mof_C 	C 	0.5787	0.3386	0.5202	0.445
Mof_H 	H 	0.5239	0.3345	0.5089	-0.098
Mof_O 	O 	0.7724	0.2623	0.53	-0.426
Mof_C 	C 	0.77	0.2477	0.5722	0.479
Mof_H 	H 	0.7567	0.266	0.596	-0.158
Mof_O 	O 	0.788	0.2072	0.5809	-0.541
Mof_C 	C 	0.5143	0.663	0.9398	0.285
Mof_O 	O 	0.4411	0.6611	0.914	-0.238
Mof_O 	O 	0.7751	0.3527	0.5605	-0.573
Mof_O 	O 	0.7331	0.381	0.4678	-0.374
Mof_O 	O 	0.8747	0.4201	0.5379	-0.363
Mof_O 	O 	0.9684	0.4147	0.618	-0.403
Mof_O 	O 	0.0572	0.463	0.5994	-0.389
Mof_O 	O 	0.8232	0.4998	0.5142	-0.385
Mof_O 	O 	0.7659	0.5293	0.4215	-0.568
Mof_O 	O 	0.8198	0.443	0.4324	-0.369
Mof_O 	O 	0.7378	0.299	0.4357	-0.389
Mof_O 	O 	0.7227	0.3194	0.3605	-0.386
Mof_O 	O 	0.8326	0.4354	0.3426	-0.385
Mof_O 	O 	0.8804	0.3678	0.3476	-0.338
Mof_O 	O 	0.9254	0.5038	0.3875	-0.456
Mof_O 	O 	0.9405	0.5407	0.4542	-0.497
Mof_O 	O 	0.6834	0.4676	0.35	-0.447
Mof_O 	O 	0.5985	0.518	0.3725	-0.448
Mof_O 	O 	0.7229	0.5709	0.4929	-0.373
Mof_O 	O 	0.6322	0.5983	0.4137	-0.359
Mof_O 	O 	0.6113	0.6643	0.4418	-0.363
Mof_O 	O 	0.6874	0.7513	0.456	-0.562
Mof_O 	O 	0.6282	0.8334	0.4849	-0.361
Mof_O 	O 	0.7435	0.8059	0.6178	-0.383
Mof_O 	O 	0.6669	0.8783	0.6474	-0.577
Mof_O 	O 	0.6983	0.8813	0.5546	-0.37
Mof_O 	O 	0.6784	0.9656	0.5497	-0.513
Mof_O 	O 	0.7058	0.9701	0.4762	-0.466
Mof_O 	O 	0.6135	0.8631	0.3984	-0.424
Mof_O 	O 	0.5728	0.928	0.4166	-0.381
Mof_O 	O 	0.6427	0.9764	0.6411	-0.552
Mof_O 	O 	0.622	0.0094	0.7055	-0.553
Mof_O 	O 	0.7903	0.943	0.6275	-0.42
Mof_O 	O 	0.8504	0.8835	0.6634	-0.422
Mof_O 	O 	0.5464	0.9223	0.5746	-0.374
Mof_O 	O 	0.4877	0.8903	0.634	-0.366
Mof_O 	O 	0.6636	0.8084	0.6977	-0.368
Mof_O 	O 	0.5586	0.8618	0.7247	-0.336
Mof_O 	O 	0.5765	0.8395	0.7977	-0.383
Mof_O 	O 	0.6816	0.8427	0.8927	-0.568
Mof_O 	O 	0.6648	0.8104	0.9832	-0.381
Mof_O 	O 	0.79	0.7036	0.9555	-0.378
Mof_O 	O 	0.7533	0.6667	0.0393	-0.563
Mof_O 	O 	0.7654	0.7577	0.0351	-0.386
Mof_O 	O 	0.7767	0.7646	0.1282	-0.356
Mof_O 	O 	0.7837	0.8395	0.1283	-0.247
Mof_O 	O 	0.6307	0.8867	0.0141	-0.41
Mof_O 	O 	0.6037	0.8631	0.088	-0.232
Mof_O 	O 	0.8925	0.7099	0.0979	-0.436
Mof_O 	O 	0.9313	0.6779	0.0349	-0.381
Mof_O 	O 	0.6382	0.7167	0.0914	-0.403
Mof_O 	O 	0.584	0.6577	0.0601	-0.399
Mof_O 	O 	0.7267	0.6227	0.9621	-0.373
Mof_O 	O 	0.7885	0.5078	0.9439	-0.377
Mof_O 	O 	0.7719	0.4404	0.999	-0.568
Mof_O 	O 	0.744	0.3563	0.9624	-0.371
Mof_O 	O 	0.7206	0.4335	0.899	-0.387
Mof_O 	O 	0.6073	0.4938	0.8985	-0.372
Mof_O 	O 	0.5601	0.4847	0.8217	-0.385
Mof_O 	O 	0.6886	0.3593	0.8506	-0.378
Mof_O 	O 	0.8012	0.3125	0.8084	-0.578
Mof_O 	O 	0.8339	0.3161	0.9075	-0.371
Mof_O 	O 	0.7477	0.3226	0.0486	-0.339
Mof_O 	O 	0.725	0.258	0.0188	-0.324
Mof_O 	O 	0.8518	0.2321	0.915	-0.327
Mof_O 	O 	0.859	0.2312	0.994	-0.368
Mof_O 	O 	0.952	0.2686	0.8545	-0.431
Mof_O 	O 	0.9792	0.3305	0.8233	-0.427
Mof_O 	O 	0.7051	0.2525	0.8605	-0.477
Mof_O 	O 	0.6357	0.2796	0.7963	-0.511
Mof_O 	O 	0.7641	0.3828	0.7583	-0.361
Mof_O 	O 	0.802	0.4059	0.6362	-0.379
Mof_O 	O 	0.8986	0.3383	0.651	-0.331
Mof_O 	O 	0.8963	0.3373	0.7292	-0.361
Mof_O 	O 	0.6777	0.3438	0.6417	-0.355
Mof_O 	O 	0.68	0.3153	0.717	-0.327
Mof_O 	O 	0.8456	0.3942	0.8485	-0.391
Mof_O 	O 	0.8797	0.4149	0.9384	-0.362
Mof_O 	O 	0.9689	0.4852	0.9565	-0.357
Mof_O 	O 	0.0669	0.4633	0.9205	-0.36
Mof_O 	O 	0.9391	0.4142	0.7845	-0.402
Mof_O 	O 	0.9879	0.4745	0.8214	-0.408
Mof_O 	O 	0.5928	0.3682	0.7688	-0.415
Mof_O 	O 	0.4924	0.3971	0.8018	-0.334
Mof_O 	O 	0.6336	0.3927	0.0249	-0.431
Mof_O 	O 	0.5968	0.4333	0.9652	-0.43
Mof_O 	O 	0.8827	0.3703	0.0429	-0.386
Mof_O 	O 	0.9436	0.4358	0.0367	-0.393
Mof_O 	O 	0.6599	0.5156	0.9983	-0.345
Mof_O 	O 	0.652	0.5845	0.0253	-0.36
Mof_O 	O 	0.8807	0.5214	0.0266	-0.334
Mof_O 	O 	0.8699	0.5928	0.0256	-0.316
Mof_O 	O 	0.6311	0.7063	0.977	-0.376
Mof_O 	O 	0.6554	0.7511	0.9011	-0.376
Mof_O 	O 	0.5532	0.7482	0.8218	-0.373
Mof_O 	O 	0.5275	0.6786	0.8292	-0.314
Mof_O 	O 	0.5508	0.6331	0.9633	-0.351
Mof_O 	O 	0.8967	0.6465	0.9422	-0.408
Mof_O 	O 	0.949	0.6799	0.8845	-0.459
Mof_O 	O 	0.81	0.7867	0.934	-0.372
Mof_O 	O 	0.8905	0.8057	0.8671	-0.327
Mof_O 	O 	0.0069	0.7658	0.8993	-0.394
Mof_O 	O 	0.7764	0.8868	0.9791	-0.366
Mof_O 	O 	0.8472	0.8814	0.9151	-0.355
Mof_O 	O 	0.5357	0.8662	0.936	-0.405
Mof_O 	O 	0.5058	0.8095	0.8812	-0.401
Mof_O 	O 	0.7244	0.7923	0.8286	-0.356
Mof_O 	O 	0.7769	0.8698	0.7411	-0.362
Mof_O 	O 	0.786	0.8701	0.8217	-0.339
Mof_O 	O 	0.5759	0.817	0.5907	-0.343
Mof_O 	O 	0.4929	0.7971	0.6586	-0.374
Mof_O 	O 	0.4146	0.7475	0.6157	-0.386
Mof_O 	O 	0.6363	0.7544	0.5462	-0.399
Mof_O 	O 	0.5669	0.6775	0.5374	-0.326
Mof_O 	O 	0.5281	0.6748	0.6096	-0.289
Mof_O 	O 	0.8476	0.7986	0.6945	-0.351
Mof_O 	O 	0.9107	0.7423	0.67	-0.347
Mof_O 	O 	0.7877	0.7897	0.5353	-0.369
Mof_O 	O 	0.9008	0.7298	0.5304	-0.369
Mof_O 	O 	0.9897	0.7643	0.5819	-0.267
Mof_O 	O 	0.7698	0.8321	0.4271	-0.438
Mof_O 	O 	0.8562	0.7748	0.4445	-0.397
Mof_O 	O 	0.5335	0.7823	0.4034	-0.369
Mof_O 	O 	0.5109	0.7331	0.4607	-0.349
Mof_O 	O 	0.6647	0.787	0.3558	-0.439
Mof_O 	O 	0.69	0.7354	0.304	-0.536
Mof_O 	O 	0.7373	0.6897	0.5162	-0.373
Mof_O 	O 	0.8464	0.6154	0.4511	-0.376
Mof_O 	O 	0.8299	0.6862	0.4472	-0.338
Mof_O 	O 	0.6625	0.4756	0.47	-0.357
Mof_O 	O 	0.7102	0.4379	0.5506	-0.394
Mof_O 	O 	0.6212	0.4321	0.6167	-0.374
Mof_O 	O 	0.5695	0.498	0.6076	-0.402
Mof_O 	O 	0.5548	0.5393	0.4647	-0.455
Mof_O 	O 	0.4761	0.5058	0.5099	-0.493
Mof_O 	O 	0.9018	0.5701	0.5381	-0.395
Mof_O 	O 	0.9605	0.5439	0.6084	-0.427
Mof_O 	O 	0.8765	0.3195	0.4927	-0.358
Mof_O 	O 	0.9517	0.3322	0.5652	-0.384
Mof_O 	O 	0.6307	0.3133	0.5015	-0.376
Mof_O 	O 	0.595	0.3668	0.5509	-0.409
Mof_Fe	Fe	0.6948	0.38756	0.59175	0.989
Mof_Fe	Fe	0.8745	0.37646	0.59075	0.97
Mof_Fe	Fe	0.7529	0.32339	0.50345	1.045
Mof_Fe	Fe	0.7694	0.4414	0.49333	0.93
Mof_Fe	Fe	0.8335	0.55379	0.47645	1.002
Mof_Fe	Fe	0.6597	0.53553	0.43742	0.97
Mof_Fe	Fe	0.7998	0.48765	0.37788	1.026
Mof_Fe	Fe	0.6242	0.7141	0.49055	0.97
Mof_Fe	Fe	0.7953	0.74095	0.48782	0.958
Mof_Fe	Fe	0.6525	0.8039	0.42298	0.998
Mof_Fe	Fe	0.6787	0.81553	0.55318	0.929
Mof_Fe	Fe	0.7588	0.8427	0.67639	0.995
Mof_Fe	Fe	0.5769	0.8446	0.65614	0.984
Mof_Fe	Fe	0.6707	0.92475	0.60355	1.045
Mof_Fe	Fe	0.6148	0.79979	0.85504	0.962
Mof_Fe	Fe	0.7868	0.83033	0.88051	0.994
Mof_Fe	Fe	0.7177	0.75436	0.96594	0.953
Mof_Fe	Fe	0.8279	0.65197	0.99488	0.983
Mof_Fe	Fe	0.6527	0.64848	0.0065	1.002
Mof_Fe	Fe	0.8694	0.46466	0.98414	0.973
Mof_Fe	Fe	0.6907	0.46963	0.95196	0.989
Mof_Fe	Fe	0.7574	0.38627	0.02712	1.043
Mof_Fe	Fe	0.7851	0.37759	0.90227	0.945
Mof_Fe	Fe	0.6977	0.33477	0.78652	1.012
Mof_Fe	Fe	0.8718	0.35971	0.79265	0.975
Mof_Fe	Fe	0.8265	0.26949	0.85585	1.029
Mof_O 	O 	0.358	0.5979	0.8578	-0.385
Mof_Ba	Ba	0.40552	0.51639	0.59079	1.187
Mof_Ba	Ba	0.26032	0.72704	0.63477	1.181
Mof_Ba	Ba	0.7464	0.67075	0.25284	1.429
Mof_Ba	Ba	0.0777	0.61916	0.90633	0.512
Mof_Ba	Ba	0.4111	0.52611	0.8377	1.522
Mof_Ba	Ba	0.3925	0.3629	0.7119	0.79
Mof_Ba	Ba	0.6023	0.02913	0.7919	1.116
Mof_Ba	Ba	0.7973	0.52532	0.21024	1.378
Mof_O 	O 	0.381	0.4584	0.7591	-0.462
Mof_O 	O 	0.302	0.6972	0.5454	-0.349
Mof_O 	O 	0.333	0.3704	0.807	-0.338
Mof_O 	O 	0.473	0.5484	0.9207	-0.359
Mof_O 	O 	0.0968	0.651	0.0025	-0.235
Mof_O 	O 	0.5096	0.2948	0.6948	-0.29
Mof_Ba	Ba	0.8582	0.16266	0.50712	1.201
Mof_O 	O 	0.8708	0.2312	0.4444	-0.372
Mof_O 	O 	0.222	0.332	0.7201	-0.39
Mof_O 	O 	0.75	0.7588	0.2179	-0.341
Mof_O 	O 	0.714	0.4458	0.2436	-0.373
Mof_Ba	Ba	0.889	0.3742	0.1977	0.706
Mof_O 	O 	0.8621	0.2984	0.2391	-0.534
Mof_O 	O 	0.0321	0.3097	0.2178	-0.23
Mof_O 	O 	0.8567	0.3002	0.1254	-0.187
Mof_O 	O 	0.723	0.1293	0.5472	-0.419
Mof_O 	O 	0.2931	0.5786	0.3388	-0.417
Mof_O 	O 	0.334	0.7328	0.8934	-0.095
Mof_Ba	Ba	0.2282	0.4145	0.73263	0.683
Mof_Ba	Ba	0.3911	0.29857	0.7543	1.134
Mof_Ba	Ba	0.0699	0.533	0.6856	0.296
Mof_Ba	Ba	0.2093	0.8721	0.806	0.371
Mof_O 	O 	0.17	0.5788	0.0429	-0.207
Mof_O 	O 	0.195	0.5939	0.006	-0.278
Mof_O 	O 	0.404	0.6147	0.8247	-0.27
Mof_Ba	Ba	0.2097	0.7307	0.8223	2.108
Mof_Ba	Ba	0.2207	0.745	0.8682	-1.63
Mof_Ba	Ba	0.1689	0.8902	0.7581	0.502
Mof_Ba	Ba	0.3129	0.5089	0.8887	-0.112
Mof_Ba	Ba	0.0563	0.7289	0.8214	0.169
Mof_Ba	Ba	0.1267	0.7039	0.9156	1.346
Mof_Ba	Ba	0.6675	0.9775	0.0217	1.026
Mof_Ba	Ba	0.1015	0.4516	0.7591	0.562
Mof_Ba	Ba	0.9869	0.5954	0.7015	0.512
Mof_Ba	Ba	0.6891	0.036	0.9537	0.749
Mof_Ba	Ba	0.782	0.1604	0.66	1.493
Mof_Ba	Ba	0.3655	0.5532	0.4339	1.57
Mof_O 	O 	0.6849	0.1311	0.6036	-0.482
_end
