# CIF file generated by openbabel 3.1.0, see https://openbabel.org
data_I
_chemical_name_common 'image0'
_cell_length_a 18.1128
_cell_length_b 8.7931
_cell_length_c 19.2053
_cell_angle_alpha 90
_cell_angle_beta 102.909
_cell_angle_gamma 90
_space_group_name_H-M_alt 'P 1'
_space_group_name_Hall 'P 1'
loop_
    _symmetry_equiv_pos_as_xyz
    x,y,z
loop_
    _atom_site_label
    _atom_site_type_symbol
    _atom_site_fract_x
    _atom_site_fract_y
    _atom_site_fract_z
    _atom_site_occupancy
    Cd1      Cd       0.20866    0.90703    0.04758    1.000
    O1       O        0.07630    0.15980    0.95520    1.000
    C1       C        0.11710    0.41960    0.65060    1.000
    C2       C        0.12930    0.21730    0.85600    1.000
    O2       O        0.17830    0.43420    0.62970    1.000
    O3       O        0.19080    0.06650    0.95280    1.000
    C3       C        0.05860    0.34920    0.75250    1.000
    O4       O        0.05360    0.46130    0.61630    1.000
    O5       O        0.08740    0.81500    0.00540    1.000
    C4       C        0.06200    0.28260    0.81840    1.000
    C5       C        0.09790    0.69630    0.97140    1.000
    O6       O        0.31690    0.82640    0.00870    1.000
    C6       C        0.18860    0.28690    0.76060    1.000
    C7       C        0.13270    0.14250    0.92670    1.000
    C8       C        0.47650    0.09000    0.04820    1.000
    O7       O        0.33420    0.02390    0.08010    1.000
    C9       C        0.03100    0.61670    0.92910    1.000
    H1       H        0.98790    0.63650    0.94920    1.000
    H2       H        0.04060    0.50930    0.92990    1.000
    H3       H        0.02080    0.65240    0.88070    1.000
    C10      C        0.19200    0.21810    0.82620    1.000
    C11      C        0.12200    0.35080    0.72280    1.000
    C12      C        0.35580    0.93710    0.03760    1.000
    C13      C        0.43170    0.97000    0.01890    1.000
    C14      C        0.54390    0.11920    0.03130    1.000
    O8       O        0.25920    0.14060    0.85500    1.000
    H4       H        0.25700    0.10490    0.89400    1.000
    O9       O        0.99300    0.40870    0.72220    1.000
    H5       H        0.99440    0.44000    0.68230    1.000
    O10      O        0.46210    0.16610    0.10100    1.000
    O11      O        0.99230    0.28280    0.83800    1.000
    H6       H        0.99340    0.22140    0.87030    1.000
    O12      O        0.25510    0.30500    0.73980    1.000
    H7       H        0.24630    0.32320    0.69680    1.000
    O13      O        0.58020    0.24930    0.05810    1.000
    H8       H        0.61810    0.26060    0.04190    1.000
    O14      O        0.16350    0.65400    0.97220    1.000
    Cd2      Cd       0.79134    0.40703    0.45242    1.000
    O15      O        0.92370    0.65980    0.54480    1.000
    C15      C        0.88290    0.91960    0.84940    1.000
    C16      C        0.87070    0.71730    0.64400    1.000
    O16      O        0.82170    0.93420    0.87030    1.000
    O17      O        0.80920    0.56650    0.54720    1.000
    C17      C        0.94140    0.84920    0.74750    1.000
    O18      O        0.94640    0.96130    0.88370    1.000
    O19      O        0.91260    0.31500    0.49460    1.000
    C18      C        0.93800    0.78260    0.68160    1.000
    C19      C        0.90210    0.19630    0.52860    1.000
    O20      O        0.68310    0.32640    0.49130    1.000
    C20      C        0.81140    0.78690    0.73940    1.000
    C21      C        0.86730    0.64250    0.57330    1.000
    C22      C        0.52350    0.59000    0.45180    1.000
    O21      O        0.66580    0.52390    0.41990    1.000
    C23      C        0.96900    0.11670    0.57090    1.000
    H9       H        0.01210    0.13650    0.55080    1.000
    H10      H        0.95940    0.00930    0.57010    1.000
    H11      H        0.97920    0.15240    0.61930    1.000
    C24      C        0.80800    0.71810    0.67380    1.000
    C25      C        0.87800    0.85080    0.77720    1.000
    C26      C        0.64420    0.43710    0.46240    1.000
    C27      C        0.56830    0.47000    0.48110    1.000
    C28      C        0.45610    0.61920    0.46870    1.000
    O22      O        0.74080    0.64060    0.64500    1.000
    H12      H        0.74300    0.60490    0.60600    1.000
    O23      O        0.00700    0.90870    0.77780    1.000
    H13      H        0.00560    0.94000    0.81770    1.000
    O24      O        0.53790    0.66610    0.39900    1.000
    O25      O        0.00770    0.78280    0.66200    1.000
    H14      H        0.00660    0.72140    0.62970    1.000
    O26      O        0.74490    0.80500    0.76020    1.000
    H15      H        0.75370    0.82320    0.80320    1.000
    O27      O        0.41980    0.74930    0.44190    1.000
    H16      H        0.38190    0.76060    0.45810    1.000
    O28      O        0.83650    0.15400    0.52780    1.000
    Cd3      Cd       0.79134    0.09297    0.95242    1.000
    O29      O        0.92370    0.84020    0.04480    1.000
    C29      C        0.88290    0.58040    0.34940    1.000
    C30      C        0.87070    0.78270    0.14400    1.000
    O30      O        0.82170    0.56580    0.37030    1.000
    O31      O        0.80920    0.93350    0.04720    1.000
    C31      C        0.94140    0.65080    0.24750    1.000
    O32      O        0.94640    0.53870    0.38370    1.000
    O33      O        0.91260    0.18500    0.99460    1.000
    C32      C        0.93800    0.71740    0.18160    1.000
    C33      C        0.90210    0.30370    0.02860    1.000
    O34      O        0.68310    0.17360    0.99130    1.000
    C34      C        0.81140    0.71310    0.23940    1.000
    C35      C        0.86730    0.85750    0.07330    1.000
    C36      C        0.52350    0.91000    0.95180    1.000
    O35      O        0.66580    0.97610    0.91990    1.000
    C37      C        0.96900    0.38330    0.07090    1.000
    H17      H        0.01210    0.36350    0.05080    1.000
    H18      H        0.95940    0.49070    0.07010    1.000
    H19      H        0.97920    0.34760    0.11930    1.000
    C38      C        0.80800    0.78190    0.17380    1.000
    C39      C        0.87800    0.64920    0.27720    1.000
    C40      C        0.64420    0.06290    0.96240    1.000
    C41      C        0.56830    0.03000    0.98110    1.000
    C42      C        0.45610    0.88080    0.96870    1.000
    O36      O        0.74080    0.85940    0.14500    1.000
    H20      H        0.74300    0.89510    0.10600    1.000
    O37      O        0.00700    0.59130    0.27780    1.000
    H21      H        0.00560    0.56000    0.31770    1.000
    O38      O        0.53790    0.83390    0.89900    1.000
    O39      O        0.00770    0.71720    0.16200    1.000
    H22      H        0.00660    0.77860    0.12970    1.000
    O40      O        0.74490    0.69500    0.26020    1.000
    H23      H        0.75370    0.67680    0.30320    1.000
    O41      O        0.41980    0.75070    0.94190    1.000
    H24      H        0.38190    0.73940    0.95810    1.000
    O42      O        0.83650    0.34600    0.02780    1.000
    Cd4      Cd       0.20866    0.59297    0.54758    1.000
    O43      O        0.07630    0.34020    0.45520    1.000
    C43      C        0.11710    0.08040    0.15060    1.000
    C44      C        0.12930    0.28270    0.35600    1.000
    O44      O        0.17830    0.06580    0.12970    1.000
    O45      O        0.19080    0.43350    0.45280    1.000
    C45      C        0.05860    0.15080    0.25250    1.000
    O46      O        0.05360    0.03870    0.11630    1.000
    O47      O        0.08740    0.68500    0.50540    1.000
    C46      C        0.06200    0.21740    0.31840    1.000
    C47      C        0.09790    0.80370    0.47140    1.000
    O48      O        0.31690    0.67360    0.50870    1.000
    C48      C        0.18860    0.21310    0.26060    1.000
    C49      C        0.13270    0.35750    0.42670    1.000
    C50      C        0.47650    0.41000    0.54820    1.000
    O49      O        0.33420    0.47610    0.58010    1.000
    C51      C        0.03100    0.88330    0.42910    1.000
    H25      H        0.98790    0.86350    0.44920    1.000
    H26      H        0.04060    0.99070    0.42990    1.000
    H27      H        0.02080    0.84760    0.38070    1.000
    C52      C        0.19200    0.28190    0.32620    1.000
    C53      C        0.12200    0.14920    0.22280    1.000
    C54      C        0.35580    0.56290    0.53760    1.000
    C55      C        0.43170    0.53000    0.51890    1.000
    C56      C        0.54390    0.38080    0.53130    1.000
    O50      O        0.25920    0.35940    0.35500    1.000
    H28      H        0.25700    0.39510    0.39400    1.000
    O51      O        0.99300    0.09130    0.22220    1.000
    H29      H        0.99440    0.06000    0.18230    1.000
    O52      O        0.46210    0.33390    0.60100    1.000
    O53      O        0.99230    0.21720    0.33800    1.000
    H30      H        0.99340    0.27860    0.37030    1.000
    O54      O        0.25510    0.19500    0.23980    1.000
    H31      H        0.24630    0.17680    0.19680    1.000
    O55      O        0.58020    0.25070    0.55810    1.000
    H32      H        0.61810    0.23940    0.54190    1.000
    O56      O        0.16350    0.84600    0.47220    1.000
    Cd5      Cd       0.00000    0.00000    0.00000    1.000
    Cd6      Cd       0.00000    0.50000    0.50000    1.000
