data_functionalizedCrystal
_audit_creation_method	'EQeq! by Chris Wilmer'
_symmetry_space_group_name_H-M	'P1'
_symmetry_Int_Tables_number	1
_symmetry_cell_setting	triclinic
loop_
_symmetry_equiv_pos_as_xyz
  x,y,z
_cell_length_a	14.4189
_cell_length_b	14.5932
_cell_length_c	18.0571
_cell_angle_alpha	66.2301
_cell_angle_beta	66.4682
_cell_angle_gamma	60.3944
loop_
_atom_site_label
_atom_site_type_symbol
_atom_site_fract_x
_atom_site_fract_y
_atom_site_fract_z
_atom_site_charge
Mof_Zn	Zn	0.55545	0.73808	0.85586	1.242
Mof_Zn	Zn	0.30298	0.75117	0.47917	1.235
Mof_Zn	Zn	0.64939	0.76192	0.64414	1.242
Mof_Zn	Zn	0.03332	0.74883	0.02083	1.233
Mof_Zn	Zn	0.44455	0.26192	0.14414	1.241
Mof_Zn	Zn	0.69702	0.24883	0.52083	1.234
Mof_Zn	Zn	0.35061	0.23808	0.35586	1.241
Mof_Zn	Zn	0.96668	0.25117	0.97917	1.232
Mof_H 	H 	0.943	0.7584	0.628	0.032
Mof_H 	H 	0.5199	0.4813	0.9011	0.038
Mof_H 	H 	0.5589	0.2202	0.8502	0.053
Mof_H 	H 	0.6492	0.4497	0.6663	0.047
Mof_H 	H 	0.5454	0.563	0.5134	0.01
Mof_H 	H 	0.4976	0.5433	0.6107	0.025
Mof_H 	H 	0.4167	0.7261	0.6005	0.099
Mof_H 	H 	0.5396	0.7004	0.5476	0.102
Mof_H 	H 	0.4505	0.912	0.4566	0.12
Mof_H 	H 	0.3426	0.9058	0.5242	0.111
Mof_H 	H 	0.2809	0.0357	0.4147	0.012
Mof_H 	H 	0.375	0.9696	0.3504	0.011
Mof_H 	H 	0.5515	0.6611	0.4219	0.196
Mof_H 	H 	0.5875	0.7514	0.4124	0.199
Mof_H 	H 	0.5118	0.7753	0.3585	0.218
Mof_H 	H 	0.8294	0.7416	0.872	0.033
Mof_H 	H 	0.4023	0.0187	0.5989	0.037
Mof_H 	H 	0.1293	0.2798	0.6498	0.053
Mof_H 	H 	0.2652	0.0503	0.8337	0.045
Mof_H 	H 	0.1218	0.937	0.9866	0.013
Mof_H 	H 	0.1516	0.9567	0.8893	0.027
Mof_H 	H 	0.2433	0.7739	0.8995	0.098
Mof_H 	H 	0.2876	0.7996	0.9524	0.101
Mof_H 	H 	0.3191	0.588	0.0434	0.122
Mof_H 	H 	0.2726	0.5942	0.9758	0.114
Mof_H 	H 	0.2313	0.4643	0.0853	0.009
Mof_H 	H 	0.195	0.5304	0.1496	0.01
Mof_H 	H 	0.1345	0.8389	0.0781	0.193
Mof_H 	H 	0.2513	0.7486	0.0876	0.198
Mof_H 	H 	0.1456	0.7247	0.1415	0.217
Mof_H 	H 	0.057	0.2416	0.372	0.032
Mof_H 	H 	0.4801	0.5187	0.0989	0.038
Mof_H 	H 	0.4411	0.7798	0.1498	0.053
Mof_H 	H 	0.3508	0.5503	0.3337	0.047
Mof_H 	H 	0.4546	0.437	0.4866	0.01
Mof_H 	H 	0.5024	0.4567	0.3893	0.025
Mof_H 	H 	0.5833	0.2739	0.3995	0.099
Mof_H 	H 	0.4604	0.2996	0.4524	0.102
Mof_H 	H 	0.5495	0.088	0.5434	0.12
Mof_H 	H 	0.6574	0.0942	0.4758	0.111
Mof_H 	H 	0.7191	0.9643	0.5853	0.012
Mof_H 	H 	0.625	0.0304	0.6496	0.011
Mof_H 	H 	0.4485	0.3389	0.5781	0.196
Mof_H 	H 	0.4125	0.2486	0.5876	0.199
Mof_H 	H 	0.4882	0.2247	0.6415	0.218
Mof_H 	H 	0.1706	0.2584	0.128	0.033
Mof_H 	H 	0.5977	0.9813	0.4011	0.037
Mof_H 	H 	0.8707	0.7202	0.3502	0.053
Mof_H 	H 	0.7348	0.9497	0.1663	0.045
Mof_H 	H 	0.8782	0.063	0.0134	0.013
Mof_H 	H 	0.8484	0.0433	0.1107	0.027
Mof_H 	H 	0.7567	0.2261	0.1005	0.098
Mof_H 	H 	0.7124	0.2004	0.0476	0.101
Mof_H 	H 	0.6809	0.412	0.9566	0.122
Mof_H 	H 	0.7274	0.4058	0.0242	0.114
Mof_H 	H 	0.7687	0.5357	0.9147	0.009
Mof_H 	H 	0.805	0.4696	0.8504	0.01
Mof_H 	H 	0.8655	0.1611	0.9219	0.193
Mof_H 	H 	0.7487	0.2514	0.9124	0.198
Mof_H 	H 	0.8544	0.2753	0.8585	0.217
Mof_H 	H 	0.1248	0.75	0.75	0.033
Mof_H 	H 	0.8752	0.25	0.25	0.033
Mof_C 	C 	0.9512	0.7558	0.6774	0.118
Mof_C 	C 	0.0452	0.7578	0.677	-0.153
Mof_C 	C 	0.1355	0.7666	0.6018	0.376
Mof_C 	C 	0.5969	0.5882	0.7516	0.417
Mof_C 	C 	0.5858	0.4818	0.778	-0.134
Mof_C 	C 	0.5416	0.442	0.8632	0.05
Mof_C 	C 	0.5307	0.3454	0.89	-0.107
Mof_C 	C 	0.5648	0.2869	0.8323	0.026
Mof_C 	C 	0.6066	0.3273	0.7499	-0.072
Mof_C 	C 	0.6187	0.4239	0.7225	0.049
Mof_C 	C 	0.4915	0.2973	0.9817	0.339
Mof_C 	C 	0.6446	0.26	0.6894	0.259
Mof_C 	C 	0.4829	0.5919	0.5573	0.103
Mof_C 	C 	0.4697	0.7025	0.5511	-0.209
Mof_C 	C 	0.3894	0.8921	0.4705	-0.239
Mof_C 	C 	0.3246	0.9632	0.4056	0.11
Mof_C 	C 	0.5289	0.738	0.412	-0.515
Mof_C 	C 	0.8844	0.7442	0.8226	0.116
Mof_C 	C 	0.98	0.7422	0.823	-0.15
Mof_C 	C 	0.0039	0.7334	0.8982	0.375
Mof_C 	C 	0.4367	0.9118	0.7484	0.419
Mof_C 	C 	0.3456	0.0182	0.722	-0.137
Mof_C 	C 	0.3468	0.058	0.6368	0.053
Mof_C 	C 	0.2661	0.1546	0.61	-0.109
Mof_C 	C 	0.184	0.2131	0.6677	0.029
Mof_C 	C 	0.1838	0.1727	0.7501	-0.073
Mof_C 	C 	0.2651	0.0761	0.7775	0.051
Mof_C 	C 	0.2705	0.2027	0.5183	0.345
Mof_C 	C 	0.094	0.24	0.8106	0.262
Mof_C 	C 	0.1321	0.9081	0.9427	0.1
Mof_C 	C 	0.2233	0.7975	0.9489	-0.205
Mof_C 	C 	0.252	0.6079	0.0295	-0.245
Mof_C 	C 	0.1934	0.5368	0.0944	0.117
Mof_C 	C 	0.1789	0.762	0.088	-0.513
Mof_C 	C 	0.0488	0.2442	0.3226	0.118
Mof_C 	C 	0.9548	0.2422	0.323	-0.153
Mof_C 	C 	0.8645	0.2334	0.3982	0.376
Mof_C 	C 	0.4031	0.4118	0.2484	0.417
Mof_C 	C 	0.4142	0.5182	0.222	-0.134
Mof_C 	C 	0.4584	0.558	0.1368	0.05
Mof_C 	C 	0.4693	0.6546	0.11	-0.107
Mof_C 	C 	0.4352	0.7131	0.1677	0.026
Mof_C 	C 	0.3934	0.6727	0.2501	-0.072
Mof_C 	C 	0.3813	0.5761	0.2775	0.049
Mof_C 	C 	0.5085	0.7027	0.0183	0.339
Mof_C 	C 	0.3554	0.74	0.3106	0.259
Mof_C 	C 	0.5171	0.4081	0.4427	0.103
Mof_C 	C 	0.5303	0.2975	0.4489	-0.209
Mof_C 	C 	0.6106	0.1079	0.5295	-0.239
Mof_C 	C 	0.6754	0.0368	0.5944	0.11
Mof_C 	C 	0.4711	0.262	0.588	-0.515
Mof_C 	C 	0.1156	0.2558	0.1774	0.116
Mof_C 	C 	0.02	0.2578	0.177	-0.15
Mof_C 	C 	0.9961	0.2666	0.1018	0.375
Mof_C 	C 	0.5633	0.0882	0.2516	0.419
Mof_C 	C 	0.6544	0.9818	0.278	-0.137
Mof_C 	C 	0.6532	0.942	0.3632	0.053
Mof_C 	C 	0.7339	0.8454	0.39	-0.109
Mof_C 	C 	0.816	0.7869	0.3323	0.029
Mof_C 	C 	0.8162	0.8273	0.2499	-0.073
Mof_C 	C 	0.7349	0.9239	0.2225	0.051
Mof_C 	C 	0.7295	0.7973	0.4817	0.345
Mof_C 	C 	0.906	0.76	0.1894	0.262
Mof_C 	C 	0.8679	0.0919	0.0573	0.1
Mof_C 	C 	0.7767	0.2025	0.0511	-0.205
Mof_C 	C 	0.748	0.3921	0.9705	-0.245
Mof_C 	C 	0.8066	0.4632	0.9056	0.117
Mof_C 	C 	0.8211	0.238	0.912	-0.513
Mof_C 	C 	0.7663	0.75	0.75	0.463
Mof_C 	C 	0.8675	0.75	0.75	-0.178
Mof_C 	C 	0.0603	0.75	0.75	0.097
Mof_C 	C 	0.2337	0.25	0.25	0.463
Mof_C 	C 	0.1325	0.25	0.25	-0.178
Mof_C 	C 	0.9397	0.25	0.25	0.097
Mof_N 	N 	0.4318	0.7779	0.4771	-0.094
Mof_N 	N 	0.1868	0.7221	0.0229	-0.095
Mof_N 	N 	0.5682	0.2221	0.5229	-0.094
Mof_N 	N 	0.8132	0.2779	0.9771	-0.095
Mof_O 	O 	0.6945	0.7517	0.8175	-0.504
Mof_O 	O 	0.1407	0.7462	0.5392	-0.378
Mof_O 	O 	0.2067	0.7904	0.599	-0.398
Mof_O 	O 	0.57454	0.62996	0.80836	-0.515
Mof_O 	O 	0.63217	0.6265	0.67516	-0.48
Mof_O 	O 	0.4748	0.34845	0.03055	-0.445
Mof_O 	O 	0.4826	0.2108	0.0052	-0.302
Mof_O 	O 	0.66584	0.30656	0.61336	-0.403
Mof_O 	O 	0.5545	0.2263	0.7027	-0.234
Mof_O 	O 	0.3899	0.5955	0.5501	-0.317
Mof_O 	O 	0.2557	0.9202	0.409	-0.308
Mof_O 	O 	0.7637	0.7483	0.6825	-0.504
Mof_O 	O 	0.9261	0.7538	0.9608	-0.376
Mof_O 	O 	0.0961	0.7096	0.901	-0.397
Mof_O 	O 	0.51286	0.87004	0.69164	-0.515
Mof_O 	O 	0.43383	0.8735	0.82484	-0.48
Mof_O 	O 	0.3538	0.15155	0.46945	-0.448
Mof_O 	O 	0.1986	0.2892	0.4948	-0.306
Mof_O 	O 	0.08576	0.19344	0.88664	-0.402
Mof_O 	O 	0.9835	0.2737	0.7973	-0.236
Mof_O 	O 	0.0355	0.9045	0.9499	-0.315
Mof_O 	O 	0.0849	0.5798	0.091	-0.309
Mof_O 	O 	0.3055	0.2483	0.1825	-0.504
Mof_O 	O 	0.8593	0.2538	0.4608	-0.378
Mof_O 	O 	0.7933	0.2096	0.401	-0.398
Mof_O 	O 	0.42546	0.37004	0.19164	-0.515
Mof_O 	O 	0.36783	0.3735	0.32484	-0.48
Mof_O 	O 	0.5252	0.65155	0.96945	-0.445
Mof_O 	O 	0.5174	0.7892	0.9948	-0.302
Mof_O 	O 	0.33416	0.69344	0.38664	-0.403
Mof_O 	O 	0.4455	0.7737	0.2973	-0.234
Mof_O 	O 	0.6101	0.4045	0.4499	-0.317
Mof_O 	O 	0.7443	0.0798	0.591	-0.308
Mof_O 	O 	0.2363	0.2517	0.3175	-0.504
Mof_O 	O 	0.0739	0.2462	0.0392	-0.376
Mof_O 	O 	0.9039	0.2904	0.099	-0.397
Mof_O 	O 	0.48714	0.12996	0.30836	-0.515
Mof_O 	O 	0.56617	0.1265	0.17516	-0.48
Mof_O 	O 	0.6462	0.84845	0.53055	-0.448
Mof_O 	O 	0.8014	0.7108	0.5052	-0.306
Mof_O 	O 	0.91424	0.80656	0.11336	-0.402
Mof_O 	O 	0.0165	0.7263	0.2027	-0.236
Mof_O 	O 	0.9645	0.0955	0.0501	-0.315
Mof_O 	O 	0.9151	0.4202	0.909	-0.309
_end
