# CIF file generated by openbabel 3.1.0, see https://openbabel.org
data_I
_chemical_name_common 'image0'
_cell_length_a 13.365
_cell_length_b 13.365
_cell_length_c 27.429
_cell_angle_alpha 90
_cell_angle_beta 90
_cell_angle_gamma 90
_space_group_name_H-M_alt 'P 1'
_space_group_name_Hall 'P 1'
loop_
    _symmetry_equiv_pos_as_xyz
    x,y,z
loop_
    _atom_site_label
    _atom_site_type_symbol
    _atom_site_fract_x
    _atom_site_fract_y
    _atom_site_fract_z
    _atom_site_occupancy
    Zn1      Zn       0.58775    0.02348    0.05332    1.000
    C1       C        0.48170    0.12210    0.26446    1.000
    H1       H        0.43330    0.16810    0.27410    1.000
    C2       C        0.49980    0.10630    0.21505    1.000
    H2       H        0.46530    0.14320    0.19170    1.000
    C3       C        0.57000    0.03510    0.20079    1.000
    C4       C        0.58850    0.01530    0.14754    1.000
    C5       C        0.55950    0.22100    0.00260    1.000
    H3       H        0.60020    0.25290    0.02530    1.000
    C6       C        0.46690    0.19370    0.94181    1.000
    H4       H        0.42970    0.20250    0.91340    1.000
    N1       N        0.51610    0.26760    0.96454    1.000
    N2       N        0.47720    0.10680    0.96444    1.000
    N3       N        0.53740    0.12450    0.00404    1.000
    O1       O        0.54930    0.07607    0.11678    1.000
    O2       O        0.64022    0.94240    0.13467    1.000
    Zn2      Zn       0.91225    0.47652    0.05332    1.000
    C7       C        0.01830    0.37790    0.26446    1.000
    H5       H        0.06670    0.33190    0.27410    1.000
    C8       C        0.00020    0.39370    0.21505    1.000
    H6       H        0.03470    0.35680    0.19170    1.000
    C9       C        0.93000    0.46490    0.20079    1.000
    C10      C        0.91150    0.48470    0.14754    1.000
    C11      C        0.94050    0.27900    0.00260    1.000
    H7       H        0.89980    0.24710    0.02530    1.000
    C12      C        0.03310    0.30630    0.94181    1.000
    H8       H        0.07030    0.29750    0.91340    1.000
    N4       N        0.98390    0.23240    0.96454    1.000
    N5       N        0.02280    0.39320    0.96444    1.000
    N6       N        0.96260    0.37550    0.00404    1.000
    O3       O        0.95070    0.42393    0.11678    1.000
    O4       O        0.85978    0.55760    0.13467    1.000
    Zn3      Zn       0.47652    0.58775    0.05332    1.000
    C13      C        0.37790    0.48170    0.26446    1.000
    H9       H        0.33190    0.43330    0.27410    1.000
    C14      C        0.39370    0.49980    0.21505    1.000
    H10      H        0.35680    0.46530    0.19170    1.000
    C15      C        0.46490    0.57000    0.20079    1.000
    C16      C        0.48470    0.58850    0.14754    1.000
    C17      C        0.27900    0.55950    0.00260    1.000
    H11      H        0.24710    0.60020    0.02530    1.000
    C18      C        0.30630    0.46690    0.94181    1.000
    H12      H        0.29750    0.42970    0.91340    1.000
    N7       N        0.23240    0.51610    0.96454    1.000
    N8       N        0.39320    0.47720    0.96444    1.000
    N9       N        0.37550    0.53740    0.00404    1.000
    O5       O        0.42393    0.54930    0.11678    1.000
    O6       O        0.55760    0.64022    0.13467    1.000
    Zn4      Zn       0.02348    0.91225    0.05332    1.000
    C19      C        0.12210    0.01830    0.26446    1.000
    H13      H        0.16810    0.06670    0.27410    1.000
    C20      C        0.10630    0.00020    0.21505    1.000
    H14      H        0.14320    0.03470    0.19170    1.000
    C21      C        0.03510    0.93000    0.20079    1.000
    C22      C        0.01530    0.91150    0.14754    1.000
    C23      C        0.22100    0.94050    0.00260    1.000
    H15      H        0.25290    0.89980    0.02530    1.000
    C24      C        0.19370    0.03310    0.94181    1.000
    H16      H        0.20250    0.07030    0.91340    1.000
    N10      N        0.26760    0.98390    0.96454    1.000
    N11      N        0.10680    0.02280    0.96444    1.000
    N12      N        0.12450    0.96260    0.00404    1.000
    O7       O        0.07607    0.95070    0.11678    1.000
    O8       O        0.94240    0.85978    0.13467    1.000
    Zn5      Zn       0.41225    0.52348    0.44668    1.000
    C25      C        0.51830    0.62210    0.23554    1.000
    H17      H        0.56670    0.66810    0.22590    1.000
    C26      C        0.50020    0.60630    0.28495    1.000
    H18      H        0.53470    0.64320    0.30830    1.000
    C27      C        0.43000    0.53510    0.29921    1.000
    C28      C        0.41150    0.51530    0.35246    1.000
    C29      C        0.44050    0.72100    0.49740    1.000
    H19      H        0.39980    0.75290    0.47470    1.000
    C30      C        0.53310    0.69370    0.55819    1.000
    H20      H        0.57030    0.70250    0.58660    1.000
    N13      N        0.48390    0.76760    0.53546    1.000
    N14      N        0.52280    0.60680    0.53556    1.000
    N15      N        0.46260    0.62450    0.49596    1.000
    O9       O        0.45070    0.57607    0.38322    1.000
    O10      O        0.35978    0.44240    0.36533    1.000
    Zn6      Zn       0.08775    0.97652    0.44668    1.000
    C31      C        0.98170    0.87790    0.23554    1.000
    H21      H        0.93330    0.83190    0.22590    1.000
    C32      C        0.99980    0.89370    0.28495    1.000
    H22      H        0.96530    0.85680    0.30830    1.000
    C33      C        0.07000    0.96490    0.29921    1.000
    C34      C        0.08850    0.98470    0.35246    1.000
    C35      C        0.05950    0.77900    0.49740    1.000
    H23      H        0.10020    0.74710    0.47470    1.000
    C36      C        0.96690    0.80630    0.55819    1.000
    H24      H        0.92970    0.79750    0.58660    1.000
    N16      N        0.01610    0.73240    0.53546    1.000
    N17      N        0.97720    0.89320    0.53556    1.000
    N18      N        0.03740    0.87550    0.49596    1.000
    O11      O        0.04930    0.92393    0.38322    1.000
    O12      O        0.14022    0.05760    0.36533    1.000
    Zn7      Zn       0.52348    0.08775    0.44668    1.000
    C37      C        0.62210    0.98170    0.23554    1.000
    H25      H        0.66810    0.93330    0.22590    1.000
    C38      C        0.60630    0.99980    0.28495    1.000
    H26      H        0.64320    0.96530    0.30830    1.000
    C39      C        0.53510    0.07000    0.29921    1.000
    C40      C        0.51530    0.08850    0.35246    1.000
    C41      C        0.72100    0.05950    0.49740    1.000
    H27      H        0.75290    0.10020    0.47470    1.000
    C42      C        0.69370    0.96690    0.55819    1.000
    H28      H        0.70250    0.92970    0.58660    1.000
    N19      N        0.76760    0.01610    0.53546    1.000
    N20      N        0.60680    0.97720    0.53556    1.000
    N21      N        0.62450    0.03740    0.49596    1.000
    O13      O        0.57607    0.04930    0.38322    1.000
    O14      O        0.44240    0.14022    0.36533    1.000
    Zn8      Zn       0.97652    0.41225    0.44668    1.000
    C43      C        0.87790    0.51830    0.23554    1.000
    H29      H        0.83190    0.56670    0.22590    1.000
    C44      C        0.89370    0.50020    0.28495    1.000
    H30      H        0.85680    0.53470    0.30830    1.000
    C45      C        0.96490    0.43000    0.29921    1.000
    C46      C        0.98470    0.41150    0.35246    1.000
    C47      C        0.77900    0.44050    0.49740    1.000
    H31      H        0.74710    0.39980    0.47470    1.000
    C48      C        0.80630    0.53310    0.55819    1.000
    H32      H        0.79750    0.57030    0.58660    1.000
    N22      N        0.73240    0.48390    0.53546    1.000
    N23      N        0.89320    0.52280    0.53556    1.000
    N24      N        0.87550    0.46260    0.49596    1.000
    O15      O        0.92393    0.45070    0.38322    1.000
    O16      O        0.05760    0.35978    0.36533    1.000
    Zn9      Zn       0.41225    0.97652    0.94668    1.000
    C49      C        0.51830    0.87790    0.73554    1.000
    H33      H        0.56670    0.83190    0.72590    1.000
    C50      C        0.50020    0.89370    0.78495    1.000
    H34      H        0.53470    0.85680    0.80830    1.000
    C51      C        0.43000    0.96490    0.79921    1.000
    C52      C        0.41150    0.98470    0.85246    1.000
    C53      C        0.44050    0.77900    0.99740    1.000
    H35      H        0.39980    0.74710    0.97470    1.000
    C54      C        0.53310    0.80630    0.05819    1.000
    H36      H        0.57030    0.79750    0.08660    1.000
    N25      N        0.48390    0.73240    0.03546    1.000
    N26      N        0.52280    0.89320    0.03556    1.000
    N27      N        0.46260    0.87550    0.99596    1.000
    O17      O        0.45070    0.92393    0.88322    1.000
    O18      O        0.35978    0.05760    0.86533    1.000
    Zn10     Zn       0.08775    0.52348    0.94668    1.000
    C55      C        0.98170    0.62210    0.73554    1.000
    H37      H        0.93330    0.66810    0.72590    1.000
    C56      C        0.99980    0.60630    0.78495    1.000
    H38      H        0.96530    0.64320    0.80830    1.000
    C57      C        0.07000    0.53510    0.79921    1.000
    C58      C        0.08850    0.51530    0.85246    1.000
    C59      C        0.05950    0.72100    0.99740    1.000
    H39      H        0.10020    0.75290    0.97470    1.000
    C60      C        0.96690    0.69370    0.05819    1.000
    H40      H        0.92970    0.70250    0.08660    1.000
    N28      N        0.01610    0.76760    0.03546    1.000
    N29      N        0.97720    0.60680    0.03556    1.000
    N30      N        0.03740    0.62450    0.99596    1.000
    O19      O        0.04930    0.57607    0.88322    1.000
    O20      O        0.14022    0.44240    0.86533    1.000
    Zn11     Zn       0.52348    0.41225    0.94668    1.000
    C61      C        0.62210    0.51830    0.73554    1.000
    H41      H        0.66810    0.56670    0.72590    1.000
    C62      C        0.60630    0.50020    0.78495    1.000
    H42      H        0.64320    0.53470    0.80830    1.000
    C63      C        0.53510    0.43000    0.79921    1.000
    C64      C        0.51530    0.41150    0.85246    1.000
    C65      C        0.72100    0.44050    0.99740    1.000
    H43      H        0.75290    0.39980    0.97470    1.000
    C66      C        0.69370    0.53310    0.05819    1.000
    H44      H        0.70250    0.57030    0.08660    1.000
    N31      N        0.76760    0.48390    0.03546    1.000
    N32      N        0.60680    0.52280    0.03556    1.000
    N33      N        0.62450    0.46260    0.99596    1.000
    O21      O        0.57607    0.45070    0.88322    1.000
    O22      O        0.44240    0.35978    0.86533    1.000
    Zn12     Zn       0.97652    0.08775    0.94668    1.000
    C67      C        0.87790    0.98170    0.73554    1.000
    H45      H        0.83190    0.93330    0.72590    1.000
    C68      C        0.89370    0.99980    0.78495    1.000
    H46      H        0.85680    0.96530    0.80830    1.000
    C69      C        0.96490    0.07000    0.79921    1.000
    C70      C        0.98470    0.08850    0.85246    1.000
    C71      C        0.77900    0.05950    0.99740    1.000
    H47      H        0.74710    0.10020    0.97470    1.000
    C72      C        0.80630    0.96690    0.05819    1.000
    H48      H        0.79750    0.92970    0.08660    1.000
    N34      N        0.73240    0.01610    0.03546    1.000
    N35      N        0.89320    0.97720    0.03556    1.000
    N36      N        0.87550    0.03740    0.99596    1.000
    O23      O        0.92393    0.04930    0.88322    1.000
    O24      O        0.05760    0.14022    0.86533    1.000
    Zn13     Zn       0.58775    0.47652    0.55332    1.000
    C73      C        0.48170    0.37790    0.76446    1.000
    H49      H        0.43330    0.33190    0.77410    1.000
    C74      C        0.49980    0.39370    0.71505    1.000
    H50      H        0.46530    0.35680    0.69170    1.000
    C75      C        0.57000    0.46490    0.70079    1.000
    C76      C        0.58850    0.48470    0.64754    1.000
    C77      C        0.55950    0.27900    0.50260    1.000
    H51      H        0.60020    0.24710    0.52530    1.000
    C78      C        0.46690    0.30630    0.44181    1.000
    H52      H        0.42970    0.29750    0.41340    1.000
    N37      N        0.51610    0.23240    0.46454    1.000
    N38      N        0.47720    0.39320    0.46444    1.000
    N39      N        0.53740    0.37550    0.50404    1.000
    O25      O        0.54930    0.42393    0.61678    1.000
    O26      O        0.64022    0.55760    0.63467    1.000
    Zn14     Zn       0.91225    0.02348    0.55332    1.000
    C79      C        0.01830    0.12210    0.76446    1.000
    H53      H        0.06670    0.16810    0.77410    1.000
    C80      C        0.00020    0.10630    0.71505    1.000
    H54      H        0.03470    0.14320    0.69170    1.000
    C81      C        0.93000    0.03510    0.70079    1.000
    C82      C        0.91150    0.01530    0.64754    1.000
    C83      C        0.94050    0.22100    0.50260    1.000
    H55      H        0.89980    0.25290    0.52530    1.000
    C84      C        0.03310    0.19370    0.44181    1.000
    H56      H        0.07030    0.20250    0.41340    1.000
    N40      N        0.98390    0.26760    0.46454    1.000
    N41      N        0.02280    0.10680    0.46444    1.000
    N42      N        0.96260    0.12450    0.50404    1.000
    O27      O        0.95070    0.07607    0.61678    1.000
    O28      O        0.85978    0.94240    0.63467    1.000
    Zn15     Zn       0.47652    0.91225    0.55332    1.000
    C85      C        0.37790    0.01830    0.76446    1.000
    H57      H        0.33190    0.06670    0.77410    1.000
    C86      C        0.39370    0.00020    0.71505    1.000
    H58      H        0.35680    0.03470    0.69170    1.000
    C87      C        0.46490    0.93000    0.70079    1.000
    C88      C        0.48470    0.91150    0.64754    1.000
    C89      C        0.27900    0.94050    0.50260    1.000
    H59      H        0.24710    0.89980    0.52530    1.000
    C90      C        0.30630    0.03310    0.44181    1.000
    H60      H        0.29750    0.07030    0.41340    1.000
    N43      N        0.23240    0.98390    0.46454    1.000
    N44      N        0.39320    0.02280    0.46444    1.000
    N45      N        0.37550    0.96260    0.50404    1.000
    O29      O        0.42393    0.95070    0.61678    1.000
    O30      O        0.55760    0.85978    0.63467    1.000
    Zn16     Zn       0.02348    0.58775    0.55332    1.000
    C91      C        0.12210    0.48170    0.76446    1.000
    H61      H        0.16810    0.43330    0.77410    1.000
    C92      C        0.10630    0.49980    0.71505    1.000
    H62      H        0.14320    0.46530    0.69170    1.000
    C93      C        0.03510    0.57000    0.70079    1.000
    C94      C        0.01530    0.58850    0.64754    1.000
    C95      C        0.22100    0.55950    0.50260    1.000
    H63      H        0.25290    0.60020    0.52530    1.000
    C96      C        0.19370    0.46690    0.44181    1.000
    H64      H        0.20250    0.42970    0.41340    1.000
    N46      N        0.26760    0.51610    0.46454    1.000
    N47      N        0.10680    0.47720    0.46444    1.000
    N48      N        0.12450    0.53740    0.50404    1.000
    O31      O        0.07607    0.54930    0.61678    1.000
    O32      O        0.94240    0.64022    0.63467    1.000
