data_functionalizedCrystal
_audit_creation_method	'EQeq! by Chris Wilmer'
_symmetry_space_group_name_H-M	'P1'
_symmetry_Int_Tables_number	1
_symmetry_cell_setting	triclinic
loop_
_symmetry_equiv_pos_as_xyz
  x,y,z
_cell_length_a	32.3599
_cell_length_b	32.3599
_cell_length_c	38.4521
_cell_angle_alpha	65.1161
_cell_angle_beta	65.1161
_cell_angle_gamma	60
loop_
_atom_site_label
_atom_site_type_symbol
_atom_site_fract_x
_atom_site_fract_y
_atom_site_fract_z
_atom_site_charge
Mof_Zn	Zn	0.78708	0.82005	0.49724	1.222
Mof_Zn	Zn	0.82005	0.89563	0.49724	1.222
Mof_Zn	Zn	0.89563	0.78708	0.49724	1.222
Mof_Zn	Zn	0.71292	0.60437	0.00276	1.222
Mof_Zn	Zn	0.67995	0.71292	0.00276	1.222
Mof_Zn	Zn	0.60437	0.67995	0.00276	1.222
Mof_Zn	Zn	0.21292	0.17995	0.50276	1.222
Mof_Zn	Zn	0.17995	0.10437	0.50276	1.222
Mof_Zn	Zn	0.10437	0.21292	0.50276	1.222
Mof_Zn	Zn	0.28708	0.39563	0.99724	1.222
Mof_Zn	Zn	0.32005	0.28708	0.99724	1.222
Mof_Zn	Zn	0.39563	0.32005	0.99724	1.222
Mof_Zn	Zn	0.85937	0.85937	0.42189	1.251
Mof_Zn	Zn	0.64063	0.64063	0.07811	1.251
Mof_Zn	Zn	0.14063	0.14063	0.57811	1.251
Mof_Zn	Zn	0.35937	0.35937	0.92189	1.251
Mof_H 	H 	0.7702	0.8734	0.3599	0.197
Mof_H 	H 	0.7127	0.8304	0.4163	-0.045
Mof_H 	H 	0.7338	0.9089	0.3065	0.022
Mof_H 	H 	0.6856	0.9229	0.2687	0.076
Mof_H 	H 	0.6649	0.8262	0.3995	0.056
Mof_H 	H 	0.6414	0.9242	0.2369	0.062
Mof_H 	H 	0.6062	0.958	0.2669	0.062
Mof_H 	H 	0.4864	0.9472	0.2813	0.065
Mof_H 	H 	0.5217	0.9114	0.3098	0.068
Mof_H 	H 	0.4414	0.9482	0.3413	0.067
Mof_H 	H 	0.37	0.9793	0.3893	0.038
Mof_H 	H 	0.4071	0.0906	0.3686	0.067
Mof_H 	H 	0.5163	0.1123	0.2948	0.107
Mof_H 	H 	0.4792	0.1107	0.3374	0.101
Mof_H 	H 	0.4591	0.1346	0.2999	0.103
Mof_H 	H 	0.3109	0.0433	0.4292	-0.022
Mof_H 	H 	0.3512	0.1057	0.4109	0.174
Mof_H 	H 	0.5795	0.7841	0.4208	0.126
Mof_H 	H 	0.5752	0.8337	0.4226	0.124
Mof_H 	H 	0.6253	0.7873	0.4226	0.121
Mof_H 	H 	0.8734	0.9965	0.3599	0.197
Mof_H 	H 	0.8304	0.0406	0.4163	-0.045
Mof_H 	H 	0.9089	0.0508	0.3065	0.022
Mof_H 	H 	0.9229	0.1228	0.2687	0.076
Mof_H 	H 	0.8262	0.1094	0.3995	0.056
Mof_H 	H 	0.9242	0.1975	0.2369	0.062
Mof_H 	H 	0.958	0.1689	0.2669	0.062
Mof_H 	H 	0.9472	0.2851	0.2813	0.065
Mof_H 	H 	0.9114	0.2571	0.3098	0.068
Mof_H 	H 	0.9482	0.2691	0.3413	0.067
Mof_H 	H 	0.9793	0.2614	0.3893	0.038
Mof_H 	H 	0.0906	0.1337	0.3686	0.067
Mof_H 	H 	0.1123	0.0766	0.2948	0.107
Mof_H 	H 	0.1107	0.0727	0.3374	0.101
Mof_H 	H 	0.1346	0.1064	0.2999	0.103
Mof_H 	H 	0.0433	0.2166	0.4292	-0.022
Mof_H 	H 	0.1057	0.1322	0.4109	0.174
Mof_H 	H 	0.7841	0.2156	0.4208	0.126
Mof_H 	H 	0.8337	0.1685	0.4226	0.124
Mof_H 	H 	0.7873	0.1648	0.4226	0.121
Mof_H 	H 	0.9965	0.7702	0.3599	0.197
Mof_H 	H 	0.0406	0.7127	0.4163	-0.045
Mof_H 	H 	0.0508	0.7338	0.3065	0.021
Mof_H 	H 	0.1228	0.6856	0.2687	0.075
Mof_H 	H 	0.1094	0.6649	0.3995	0.055
Mof_H 	H 	0.1975	0.6414	0.2369	0.061
Mof_H 	H 	0.1689	0.6062	0.2669	0.061
Mof_H 	H 	0.2851	0.4864	0.2813	0.064
Mof_H 	H 	0.2571	0.5217	0.3098	0.067
Mof_H 	H 	0.2691	0.4414	0.3413	0.066
Mof_H 	H 	0.2614	0.37	0.3893	0.037
Mof_H 	H 	0.1337	0.4071	0.3686	0.066
Mof_H 	H 	0.0766	0.5163	0.2948	0.106
Mof_H 	H 	0.0727	0.4792	0.3374	0.1
Mof_H 	H 	0.1064	0.4591	0.2999	0.102
Mof_H 	H 	0.2166	0.3109	0.4292	-0.023
Mof_H 	H 	0.1322	0.3512	0.4109	0.173
Mof_H 	H 	0.2156	0.5795	0.4208	0.125
Mof_H 	H 	0.1685	0.5752	0.4226	0.123
Mof_H 	H 	0.1648	0.6253	0.4226	0.12
Mof_H 	H 	0.7298	0.5035	0.1401	0.196
Mof_H 	H 	0.7873	0.4594	0.0837	-0.046
Mof_H 	H 	0.7662	0.4492	0.1935	0.022
Mof_H 	H 	0.8144	0.3772	0.2313	0.075
Mof_H 	H 	0.8351	0.3906	0.1005	0.055
Mof_H 	H 	0.8586	0.3025	0.2631	0.061
Mof_H 	H 	0.8938	0.3311	0.2331	0.061
Mof_H 	H 	0.0136	0.2149	0.2187	0.064
Mof_H 	H 	0.9783	0.2429	0.1902	0.067
Mof_H 	H 	0.0586	0.2309	0.1587	0.066
Mof_H 	H 	0.13	0.2386	0.1107	0.037
Mof_H 	H 	0.0929	0.3663	0.1314	0.066
Mof_H 	H 	0.9837	0.4234	0.2052	0.106
Mof_H 	H 	0.0208	0.4273	0.1626	0.1
Mof_H 	H 	0.0409	0.3936	0.2001	0.102
Mof_H 	H 	0.1891	0.2834	0.0708	-0.023
Mof_H 	H 	0.1488	0.3678	0.0891	0.173
Mof_H 	H 	0.9205	0.2844	0.0792	0.125
Mof_H 	H 	0.9248	0.3315	0.0774	0.123
Mof_H 	H 	0.8747	0.3352	0.0774	0.12
Mof_H 	H 	0.6266	0.7298	0.1401	0.196
Mof_H 	H 	0.6696	0.7873	0.0837	-0.046
Mof_H 	H 	0.5911	0.7662	0.1935	0.022
Mof_H 	H 	0.5771	0.8144	0.2313	0.075
Mof_H 	H 	0.6738	0.8351	0.1005	0.055
Mof_H 	H 	0.5758	0.8586	0.2631	0.061
Mof_H 	H 	0.542	0.8938	0.2331	0.061
Mof_H 	H 	0.5528	0.0136	0.2187	0.064
Mof_H 	H 	0.5886	0.9783	0.1902	0.067
Mof_H 	H 	0.5518	0.0586	0.1587	0.066
Mof_H 	H 	0.5207	0.13	0.1107	0.037
Mof_H 	H 	0.4094	0.0929	0.1314	0.066
Mof_H 	H 	0.3877	0.9837	0.2052	0.106
Mof_H 	H 	0.3893	0.0208	0.1626	0.1
Mof_H 	H 	0.3654	0.0409	0.2001	0.102
Mof_H 	H 	0.4567	0.1891	0.0708	-0.023
Mof_H 	H 	0.3943	0.1488	0.0891	0.173
Mof_H 	H 	0.7159	0.9205	0.0792	0.125
Mof_H 	H 	0.6663	0.9248	0.0774	0.123
Mof_H 	H 	0.7127	0.8747	0.0774	0.12
Mof_H 	H 	0.5035	0.6266	0.1401	0.196
Mof_H 	H 	0.4594	0.6696	0.0837	-0.046
Mof_H 	H 	0.4492	0.5911	0.1935	0.022
Mof_H 	H 	0.3772	0.5771	0.2313	0.075
Mof_H 	H 	0.3906	0.6738	0.1005	0.055
Mof_H 	H 	0.3025	0.5758	0.2631	0.061
Mof_H 	H 	0.3311	0.542	0.2331	0.061
Mof_H 	H 	0.2149	0.5528	0.2187	0.064
Mof_H 	H 	0.2429	0.5886	0.1902	0.067
Mof_H 	H 	0.2309	0.5518	0.1587	0.066
Mof_H 	H 	0.2386	0.5207	0.1107	0.037
Mof_H 	H 	0.3663	0.4094	0.1314	0.066
Mof_H 	H 	0.4234	0.3877	0.2052	0.106
Mof_H 	H 	0.4273	0.3893	0.1626	0.1
Mof_H 	H 	0.3936	0.3654	0.2001	0.102
Mof_H 	H 	0.2834	0.4567	0.0708	-0.023
Mof_H 	H 	0.3678	0.3943	0.0891	0.173
Mof_H 	H 	0.2844	0.7159	0.0792	0.125
Mof_H 	H 	0.3315	0.6663	0.0774	0.123
Mof_H 	H 	0.3352	0.7127	0.0774	0.12
Mof_H 	H 	0.2298	0.1266	0.6401	0.196
Mof_H 	H 	0.2873	0.1696	0.5837	-0.046
Mof_H 	H 	0.2662	0.0911	0.6935	0.021
Mof_H 	H 	0.3144	0.0771	0.7313	0.075
Mof_H 	H 	0.3351	0.1738	0.6005	0.055
Mof_H 	H 	0.3586	0.0758	0.7631	0.061
Mof_H 	H 	0.3938	0.042	0.7331	0.061
Mof_H 	H 	0.5136	0.0528	0.7187	0.064
Mof_H 	H 	0.4783	0.0886	0.6902	0.067
Mof_H 	H 	0.5586	0.0518	0.6587	0.066
Mof_H 	H 	0.63	0.0207	0.6107	0.037
Mof_H 	H 	0.5929	0.9094	0.6314	0.066
Mof_H 	H 	0.4837	0.8877	0.7052	0.106
Mof_H 	H 	0.5208	0.8893	0.6626	0.1
Mof_H 	H 	0.5409	0.8654	0.7001	0.102
Mof_H 	H 	0.6891	0.9567	0.5708	-0.023
Mof_H 	H 	0.6488	0.8943	0.5891	0.173
Mof_H 	H 	0.4205	0.2159	0.5792	0.125
Mof_H 	H 	0.4248	0.1663	0.5774	0.123
Mof_H 	H 	0.3747	0.2127	0.5774	0.12
Mof_H 	H 	0.1266	0.0035	0.6401	0.196
Mof_H 	H 	0.1696	0.9594	0.5837	-0.046
Mof_H 	H 	0.0911	0.9492	0.6935	0.021
Mof_H 	H 	0.0771	0.8772	0.7313	0.075
Mof_H 	H 	0.1738	0.8906	0.6005	0.055
Mof_H 	H 	0.0758	0.8025	0.7631	0.061
Mof_H 	H 	0.042	0.8311	0.7331	0.061
Mof_H 	H 	0.0528	0.7149	0.7187	0.064
Mof_H 	H 	0.0886	0.7429	0.6902	0.067
Mof_H 	H 	0.0518	0.7309	0.6587	0.066
Mof_H 	H 	0.0207	0.7386	0.6107	0.037
Mof_H 	H 	0.9094	0.8663	0.6314	0.066
Mof_H 	H 	0.8877	0.9234	0.7052	0.106
Mof_H 	H 	0.8893	0.9273	0.6626	0.1
Mof_H 	H 	0.8654	0.8936	0.7001	0.102
Mof_H 	H 	0.9567	0.7834	0.5708	-0.023
Mof_H 	H 	0.8943	0.8678	0.5891	0.173
Mof_H 	H 	0.2159	0.7844	0.5792	0.125
Mof_H 	H 	0.1663	0.8315	0.5774	0.123
Mof_H 	H 	0.2127	0.8352	0.5774	0.12
Mof_H 	H 	0.0035	0.2298	0.6401	0.196
Mof_H 	H 	0.9594	0.2873	0.5837	-0.046
Mof_H 	H 	0.9492	0.2662	0.6935	0.021
Mof_H 	H 	0.8772	0.3144	0.7313	0.075
Mof_H 	H 	0.8906	0.3351	0.6005	0.055
Mof_H 	H 	0.8025	0.3586	0.7631	0.061
Mof_H 	H 	0.8311	0.3938	0.7331	0.061
Mof_H 	H 	0.7149	0.5136	0.7187	0.064
Mof_H 	H 	0.7429	0.4783	0.6902	0.067
Mof_H 	H 	0.7309	0.5586	0.6587	0.066
Mof_H 	H 	0.7386	0.63	0.6107	0.037
Mof_H 	H 	0.8663	0.5929	0.6314	0.066
Mof_H 	H 	0.9234	0.4837	0.7052	0.106
Mof_H 	H 	0.9273	0.5208	0.6626	0.1
Mof_H 	H 	0.8936	0.5409	0.7001	0.102
Mof_H 	H 	0.7834	0.6891	0.5708	-0.023
Mof_H 	H 	0.8678	0.6488	0.5891	0.173
Mof_H 	H 	0.7844	0.4205	0.5792	0.125
Mof_H 	H 	0.8315	0.4248	0.5774	0.123
Mof_H 	H 	0.8352	0.3747	0.5774	0.12
Mof_H 	H 	0.2702	0.4965	0.8599	0.196
Mof_H 	H 	0.2127	0.5406	0.9163	-0.046
Mof_H 	H 	0.2338	0.5508	0.8065	0.022
Mof_H 	H 	0.1856	0.6228	0.7687	0.075
Mof_H 	H 	0.1649	0.6094	0.8995	0.055
Mof_H 	H 	0.1414	0.6975	0.7369	0.061
Mof_H 	H 	0.1062	0.6689	0.7669	0.061
Mof_H 	H 	0.9864	0.7851	0.7813	0.064
Mof_H 	H 	0.0217	0.7571	0.8098	0.067
Mof_H 	H 	0.9414	0.7691	0.8413	0.066
Mof_H 	H 	0.87	0.7614	0.8893	0.037
Mof_H 	H 	0.9071	0.6337	0.8686	0.066
Mof_H 	H 	0.0163	0.5766	0.7948	0.106
Mof_H 	H 	0.9792	0.5727	0.8374	0.1
Mof_H 	H 	0.9591	0.6064	0.7999	0.102
Mof_H 	H 	0.8109	0.7166	0.9292	-0.023
Mof_H 	H 	0.8512	0.6322	0.9109	0.173
Mof_H 	H 	0.0795	0.7156	0.9208	0.125
Mof_H 	H 	0.0752	0.6685	0.9226	0.123
Mof_H 	H 	0.1253	0.6648	0.9226	0.12
Mof_H 	H 	0.3734	0.2702	0.8599	0.196
Mof_H 	H 	0.3304	0.2127	0.9163	-0.046
Mof_H 	H 	0.4089	0.2338	0.8065	0.022
Mof_H 	H 	0.4229	0.1856	0.7687	0.075
Mof_H 	H 	0.3262	0.1649	0.8995	0.055
Mof_H 	H 	0.4242	0.1414	0.7369	0.061
Mof_H 	H 	0.458	0.1062	0.7669	0.061
Mof_H 	H 	0.4472	0.9864	0.7813	0.064
Mof_H 	H 	0.4114	0.0217	0.8098	0.067
Mof_H 	H 	0.4482	0.9414	0.8413	0.066
Mof_H 	H 	0.4793	0.87	0.8893	0.037
Mof_H 	H 	0.5906	0.9071	0.8686	0.066
Mof_H 	H 	0.6123	0.0163	0.7948	0.106
Mof_H 	H 	0.6107	0.9792	0.8374	0.1
Mof_H 	H 	0.6346	0.9591	0.7999	0.102
Mof_H 	H 	0.5433	0.8109	0.9292	-0.023
Mof_H 	H 	0.6057	0.8512	0.9109	0.173
Mof_H 	H 	0.2841	0.0795	0.9208	0.125
Mof_H 	H 	0.3337	0.0752	0.9226	0.123
Mof_H 	H 	0.2873	0.1253	0.9226	0.12
Mof_H 	H 	0.4965	0.3734	0.8599	0.196
Mof_H 	H 	0.5406	0.3304	0.9163	-0.046
Mof_H 	H 	0.5508	0.4089	0.8065	0.022
Mof_H 	H 	0.6228	0.4229	0.7687	0.075
Mof_H 	H 	0.6094	0.3262	0.8995	0.055
Mof_H 	H 	0.6975	0.4242	0.7369	0.061
Mof_H 	H 	0.6689	0.458	0.7669	0.061
Mof_H 	H 	0.7851	0.4472	0.7813	0.064
Mof_H 	H 	0.7571	0.4114	0.8098	0.067
Mof_H 	H 	0.7691	0.4482	0.8413	0.066
Mof_H 	H 	0.7614	0.4793	0.8893	0.037
Mof_H 	H 	0.6337	0.5906	0.8686	0.066
Mof_H 	H 	0.5766	0.6123	0.7948	0.106
Mof_H 	H 	0.5727	0.6107	0.8374	0.1
Mof_H 	H 	0.6064	0.6346	0.7999	0.102
Mof_H 	H 	0.7166	0.5433	0.9292	-0.023
Mof_H 	H 	0.6322	0.6057	0.9109	0.173
Mof_H 	H 	0.7156	0.2841	0.9208	0.125
Mof_H 	H 	0.6685	0.3337	0.9226	0.123
Mof_H 	H 	0.6648	0.2873	0.9226	0.12
Mof_C 	C 	0.7767	0.8506	0.4184	0.467
Mof_C 	C 	0.75625	0.85895	0.38585	-0.439
Mof_C 	C 	0.72506	0.84876	0.39152	0.259
Mof_C 	C 	0.70414	0.86614	0.35678	-0.069
Mof_C 	C 	0.7103	0.8951	0.3176	0.017
Mof_C 	C 	0.68141	0.90341	0.29507	-0.121
Mof_C 	C 	0.64637	0.88277	0.31169	0.102
Mof_C 	C 	0.6401	0.8538	0.3509	0.063
Mof_C 	C 	0.669	0.8456	0.3734	-0.069
Mof_C 	C 	0.61195	0.93025	0.25925	-0.045
Mof_C 	C 	0.51521	0.94101	0.28787	-0.057
Mof_C 	C 	0.46689	0.00079	0.32633	0.081
Mof_C 	C 	0.43446	0.97676	0.34682	-0.093
Mof_C 	C 	0.3918	0.9953	0.3755	-0.025
Mof_C 	C 	0.38157	0.03787	0.38369	-0.02
Mof_C 	C 	0.414	0.0619	0.3632	-0.115
Mof_C 	C 	0.45666	0.04336	0.33452	0.126
Mof_C 	C 	0.4856	0.1087	0.3113	-0.226
Mof_C 	C 	0.33371	0.05801	0.41597	0.198
Mof_C 	C 	0.32888	0.09058	0.42206	-0.388
Mof_C 	C 	0.27954	0.10644	0.45158	0.381
Mof_C 	C 	0.5967	0.805	0.4127	-0.287
Mof_C 	C 	0.8506	0.9543	0.4184	0.467
Mof_C 	C 	0.85895	0.99895	0.38585	-0.439
Mof_C 	C 	0.84876	0.03466	0.39152	0.259
Mof_C 	C 	0.86614	0.07294	0.35678	-0.069
Mof_C 	C 	0.8951	0.077	0.3176	0.017
Mof_C 	C 	0.90341	0.12011	0.29507	-0.121
Mof_C 	C 	0.88277	0.15917	0.31169	0.102
Mof_C 	C 	0.8538	0.1552	0.3509	0.063
Mof_C 	C 	0.8456	0.112	0.3734	-0.069
Mof_C 	C 	0.93025	0.19855	0.25925	-0.045
Mof_C 	C 	0.94101	0.25591	0.28787	-0.057
Mof_C 	C 	0.00079	0.20599	0.32633	0.082
Mof_C 	C 	0.97676	0.24196	0.34682	-0.093
Mof_C 	C 	0.9953	0.2374	0.3755	-0.025
Mof_C 	C 	0.03787	0.19687	0.38369	-0.02
Mof_C 	C 	0.0619	0.1609	0.3632	-0.115
Mof_C 	C 	0.04336	0.16546	0.33452	0.126
Mof_C 	C 	0.1087	0.0944	0.3113	-0.226
Mof_C 	C 	0.05801	0.19231	0.41597	0.198
Mof_C 	C 	0.09058	0.15848	0.42206	-0.388
Mof_C 	C 	0.10644	0.16244	0.45158	0.381
Mof_C 	C 	0.805	0.1856	0.4127	-0.287
Mof_C 	C 	0.9543	0.7767	0.4184	0.468
Mof_C 	C 	0.99895	0.75625	0.38585	-0.439
Mof_C 	C 	0.03466	0.72506	0.39152	0.26
Mof_C 	C 	0.07294	0.70414	0.35678	-0.069
Mof_C 	C 	0.077	0.7103	0.3176	0.017
Mof_C 	C 	0.12011	0.68141	0.29507	-0.121
Mof_C 	C 	0.15917	0.64637	0.31169	0.103
Mof_C 	C 	0.1552	0.6401	0.3509	0.063
Mof_C 	C 	0.112	0.669	0.3734	-0.068
Mof_C 	C 	0.19855	0.61195	0.25925	-0.045
Mof_C 	C 	0.25591	0.51521	0.28787	-0.057
Mof_C 	C 	0.20599	0.46689	0.32633	0.081
Mof_C 	C 	0.24196	0.43446	0.34682	-0.093
Mof_C 	C 	0.2374	0.3918	0.3755	-0.025
Mof_C 	C 	0.19687	0.38157	0.38369	-0.02
Mof_C 	C 	0.1609	0.414	0.3632	-0.115
Mof_C 	C 	0.16546	0.45666	0.33452	0.126
Mof_C 	C 	0.0944	0.4856	0.3113	-0.226
Mof_C 	C 	0.19231	0.33371	0.41597	0.198
Mof_C 	C 	0.15848	0.32888	0.42206	-0.388
Mof_C 	C 	0.16244	0.27954	0.45158	0.381
Mof_C 	C 	0.1856	0.5967	0.4127	-0.287
Mof_C 	C 	0.7233	0.5457	0.0816	0.467
Mof_C 	C 	0.74375	0.50105	0.11415	-0.439
Mof_C 	C 	0.77494	0.46534	0.10848	0.259
Mof_C 	C 	0.79586	0.42706	0.14322	-0.069
Mof_C 	C 	0.7897	0.423	0.1824	0.017
Mof_C 	C 	0.81859	0.37989	0.20493	-0.121
Mof_C 	C 	0.85363	0.34083	0.18831	0.102
Mof_C 	C 	0.8599	0.3448	0.1491	0.063
Mof_C 	C 	0.831	0.388	0.1266	-0.069
Mof_C 	C 	0.88805	0.30145	0.24075	-0.045
Mof_C 	C 	0.98479	0.24409	0.21213	-0.058
Mof_C 	C 	0.03311	0.29401	0.17367	0.081
Mof_C 	C 	0.06554	0.25804	0.15318	-0.093
Mof_C 	C 	0.1082	0.2626	0.1245	-0.025
Mof_C 	C 	0.11843	0.30313	0.11631	-0.02
Mof_C 	C 	0.086	0.3391	0.1368	-0.115
Mof_C 	C 	0.04334	0.33454	0.16548	0.126
Mof_C 	C 	0.0144	0.4056	0.1887	-0.225
Mof_C 	C 	0.16629	0.30769	0.08403	0.198
Mof_C 	C 	0.17112	0.34152	0.07794	-0.388
Mof_C 	C 	0.22046	0.33756	0.04842	0.381
Mof_C 	C 	0.9033	0.3144	0.0873	-0.287
Mof_C 	C 	0.6494	0.7233	0.0816	0.467
Mof_C 	C 	0.64105	0.74375	0.11415	-0.439
Mof_C 	C 	0.65124	0.77494	0.10848	0.259
Mof_C 	C 	0.63386	0.79586	0.14322	-0.069
Mof_C 	C 	0.6049	0.7897	0.1824	0.017
Mof_C 	C 	0.59659	0.81859	0.20493	-0.121
Mof_C 	C 	0.61723	0.85363	0.18831	0.102
Mof_C 	C 	0.6462	0.8599	0.1491	0.063
Mof_C 	C 	0.6544	0.831	0.1266	-0.069
Mof_C 	C 	0.56975	0.88805	0.24075	-0.045
Mof_C 	C 	0.55899	0.98479	0.21213	-0.058
Mof_C 	C 	0.49921	0.03311	0.17367	0.081
Mof_C 	C 	0.52324	0.06554	0.15318	-0.093
Mof_C 	C 	0.5047	0.1082	0.1245	-0.025
Mof_C 	C 	0.46213	0.11843	0.11631	-0.02
Mof_C 	C 	0.4381	0.086	0.1368	-0.115
Mof_C 	C 	0.45664	0.04334	0.16548	0.127
Mof_C 	C 	0.3913	0.0144	0.1887	-0.225
Mof_C 	C 	0.44199	0.16629	0.08403	0.198
Mof_C 	C 	0.40942	0.17112	0.07794	-0.388
Mof_C 	C 	0.39356	0.22046	0.04842	0.381
Mof_C 	C 	0.695	0.9033	0.0873	-0.287
Mof_C 	C 	0.5457	0.6494	0.0816	0.467
Mof_C 	C 	0.50105	0.64105	0.11415	-0.439
Mof_C 	C 	0.46534	0.65124	0.10848	0.259
Mof_C 	C 	0.42706	0.63386	0.14322	-0.069
Mof_C 	C 	0.423	0.6049	0.1824	0.017
Mof_C 	C 	0.37989	0.59659	0.20493	-0.121
Mof_C 	C 	0.34083	0.61723	0.18831	0.102
Mof_C 	C 	0.3448	0.6462	0.1491	0.063
Mof_C 	C 	0.388	0.6544	0.1266	-0.069
Mof_C 	C 	0.30145	0.56975	0.24075	-0.045
Mof_C 	C 	0.24409	0.55899	0.21213	-0.057
Mof_C 	C 	0.29401	0.49921	0.17367	0.081
Mof_C 	C 	0.25804	0.52324	0.15318	-0.093
Mof_C 	C 	0.2626	0.5047	0.1245	-0.025
Mof_C 	C 	0.30313	0.46213	0.11631	-0.02
Mof_C 	C 	0.3391	0.4381	0.1368	-0.115
Mof_C 	C 	0.33454	0.45664	0.16548	0.127
Mof_C 	C 	0.4056	0.3913	0.1887	-0.226
Mof_C 	C 	0.30769	0.44199	0.08403	0.198
Mof_C 	C 	0.34152	0.40942	0.07794	-0.388
Mof_C 	C 	0.33756	0.39356	0.04842	0.381
Mof_C 	C 	0.3144	0.695	0.0873	-0.287
Mof_C 	C 	0.2233	0.1494	0.5816	0.467
Mof_C 	C 	0.24375	0.14105	0.61415	-0.439
Mof_C 	C 	0.27494	0.15124	0.60848	0.259
Mof_C 	C 	0.29586	0.13386	0.64322	-0.069
Mof_C 	C 	0.2897	0.1049	0.6824	0.017
Mof_C 	C 	0.31859	0.09659	0.70493	-0.121
Mof_C 	C 	0.35363	0.11723	0.68831	0.102
Mof_C 	C 	0.3599	0.1462	0.6491	0.063
Mof_C 	C 	0.331	0.1544	0.6266	-0.069
Mof_C 	C 	0.38805	0.06975	0.74075	-0.045
Mof_C 	C 	0.48479	0.05899	0.71213	-0.057
Mof_C 	C 	0.53311	0.99921	0.67367	0.081
Mof_C 	C 	0.56554	0.02324	0.65318	-0.093
Mof_C 	C 	0.6082	0.0047	0.6245	-0.025
Mof_C 	C 	0.61843	0.96213	0.61631	-0.02
Mof_C 	C 	0.586	0.9381	0.6368	-0.115
Mof_C 	C 	0.54334	0.95664	0.66548	0.126
Mof_C 	C 	0.5144	0.8913	0.6887	-0.226
Mof_C 	C 	0.66629	0.94199	0.58403	0.198
Mof_C 	C 	0.67112	0.90942	0.57794	-0.388
Mof_C 	C 	0.72046	0.89356	0.54842	0.381
Mof_C 	C 	0.4033	0.195	0.5873	-0.287
Mof_C 	C 	0.1494	0.0457	0.5816	0.467
Mof_C 	C 	0.14105	0.00105	0.61415	-0.439
Mof_C 	C 	0.15124	0.96534	0.60848	0.259
Mof_C 	C 	0.13386	0.92706	0.64322	-0.069
Mof_C 	C 	0.1049	0.923	0.6824	0.017
Mof_C 	C 	0.09659	0.87989	0.70493	-0.121
Mof_C 	C 	0.11723	0.84083	0.68831	0.102
Mof_C 	C 	0.1462	0.8448	0.6491	0.063
Mof_C 	C 	0.1544	0.888	0.6266	-0.069
Mof_C 	C 	0.06975	0.80145	0.74075	-0.045
Mof_C 	C 	0.05899	0.74409	0.71213	-0.057
Mof_C 	C 	0.99921	0.79401	0.67367	0.082
Mof_C 	C 	0.02324	0.75804	0.65318	-0.093
Mof_C 	C 	0.0047	0.7626	0.6245	-0.025
Mof_C 	C 	0.96213	0.80313	0.61631	-0.02
Mof_C 	C 	0.9381	0.8391	0.6368	-0.115
Mof_C 	C 	0.95664	0.83454	0.66548	0.126
Mof_C 	C 	0.8913	0.9056	0.6887	-0.226
Mof_C 	C 	0.94199	0.80769	0.58403	0.198
Mof_C 	C 	0.90942	0.84152	0.57794	-0.388
Mof_C 	C 	0.89356	0.83756	0.54842	0.381
Mof_C 	C 	0.195	0.8144	0.5873	-0.287
Mof_C 	C 	0.0457	0.2233	0.5816	0.468
Mof_C 	C 	0.00105	0.24375	0.61415	-0.439
Mof_C 	C 	0.96534	0.27494	0.60848	0.26
Mof_C 	C 	0.92706	0.29586	0.64322	-0.069
Mof_C 	C 	0.923	0.2897	0.6824	0.017
Mof_C 	C 	0.87989	0.31859	0.70493	-0.121
Mof_C 	C 	0.84083	0.35363	0.68831	0.103
Mof_C 	C 	0.8448	0.3599	0.6491	0.063
Mof_C 	C 	0.888	0.331	0.6266	-0.068
Mof_C 	C 	0.80145	0.38805	0.74075	-0.045
Mof_C 	C 	0.74409	0.48479	0.71213	-0.057
Mof_C 	C 	0.79401	0.53311	0.67367	0.081
Mof_C 	C 	0.75804	0.56554	0.65318	-0.093
Mof_C 	C 	0.7626	0.6082	0.6245	-0.025
Mof_C 	C 	0.80313	0.61843	0.61631	-0.02
Mof_C 	C 	0.8391	0.586	0.6368	-0.115
Mof_C 	C 	0.83454	0.54334	0.66548	0.126
Mof_C 	C 	0.9056	0.5144	0.6887	-0.226
Mof_C 	C 	0.80769	0.66629	0.58403	0.198
Mof_C 	C 	0.84152	0.67112	0.57794	-0.388
Mof_C 	C 	0.83756	0.72046	0.54842	0.381
Mof_C 	C 	0.8144	0.4033	0.5873	-0.287
Mof_C 	C 	0.2767	0.4543	0.9184	0.467
Mof_C 	C 	0.25625	0.49895	0.88585	-0.439
Mof_C 	C 	0.22506	0.53466	0.89152	0.259
Mof_C 	C 	0.20414	0.57294	0.85678	-0.069
Mof_C 	C 	0.2103	0.577	0.8176	0.017
Mof_C 	C 	0.18141	0.62011	0.79507	-0.121
Mof_C 	C 	0.14637	0.65917	0.81169	0.102
Mof_C 	C 	0.1401	0.6552	0.8509	0.063
Mof_C 	C 	0.169	0.612	0.8734	-0.069
Mof_C 	C 	0.11195	0.69855	0.75925	-0.045
Mof_C 	C 	0.01521	0.75591	0.78787	-0.058
Mof_C 	C 	0.96689	0.70599	0.82633	0.081
Mof_C 	C 	0.93446	0.74196	0.84682	-0.093
Mof_C 	C 	0.8918	0.7374	0.8755	-0.025
Mof_C 	C 	0.88157	0.69687	0.88369	-0.02
Mof_C 	C 	0.914	0.6609	0.8632	-0.115
Mof_C 	C 	0.95666	0.66546	0.83452	0.126
Mof_C 	C 	0.9856	0.5944	0.8113	-0.225
Mof_C 	C 	0.83371	0.69231	0.91597	0.198
Mof_C 	C 	0.82888	0.65848	0.92206	-0.388
Mof_C 	C 	0.77954	0.66244	0.95158	0.381
Mof_C 	C 	0.0967	0.6856	0.9127	-0.287
Mof_C 	C 	0.3506	0.2767	0.9184	0.467
Mof_C 	C 	0.35895	0.25625	0.88585	-0.439
Mof_C 	C 	0.34876	0.22506	0.89152	0.259
Mof_C 	C 	0.36614	0.20414	0.85678	-0.069
Mof_C 	C 	0.3951	0.2103	0.8176	0.017
Mof_C 	C 	0.40341	0.18141	0.79507	-0.121
Mof_C 	C 	0.38277	0.14637	0.81169	0.102
Mof_C 	C 	0.3538	0.1401	0.8509	0.063
Mof_C 	C 	0.3456	0.169	0.8734	-0.069
Mof_C 	C 	0.43025	0.11195	0.75925	-0.045
Mof_C 	C 	0.44101	0.01521	0.78787	-0.058
Mof_C 	C 	0.50079	0.96689	0.82633	0.081
Mof_C 	C 	0.47676	0.93446	0.84682	-0.093
Mof_C 	C 	0.4953	0.8918	0.8755	-0.025
Mof_C 	C 	0.53787	0.88157	0.88369	-0.02
Mof_C 	C 	0.5619	0.914	0.8632	-0.115
Mof_C 	C 	0.54336	0.95666	0.83452	0.127
Mof_C 	C 	0.6087	0.9856	0.8113	-0.225
Mof_C 	C 	0.55801	0.83371	0.91597	0.198
Mof_C 	C 	0.59058	0.82888	0.92206	-0.388
Mof_C 	C 	0.60644	0.77954	0.95158	0.381
Mof_C 	C 	0.305	0.0967	0.9127	-0.287
Mof_C 	C 	0.4543	0.3506	0.9184	0.467
Mof_C 	C 	0.49895	0.35895	0.88585	-0.439
Mof_C 	C 	0.53466	0.34876	0.89152	0.259
Mof_C 	C 	0.57294	0.36614	0.85678	-0.069
Mof_C 	C 	0.577	0.3951	0.8176	0.017
Mof_C 	C 	0.62011	0.40341	0.79507	-0.121
Mof_C 	C 	0.65917	0.38277	0.81169	0.102
Mof_C 	C 	0.6552	0.3538	0.8509	0.063
Mof_C 	C 	0.612	0.3456	0.8734	-0.069
Mof_C 	C 	0.69855	0.43025	0.75925	-0.045
Mof_C 	C 	0.75591	0.44101	0.78787	-0.057
Mof_C 	C 	0.70599	0.50079	0.82633	0.081
Mof_C 	C 	0.74196	0.47676	0.84682	-0.093
Mof_C 	C 	0.7374	0.4953	0.8755	-0.025
Mof_C 	C 	0.69687	0.53787	0.88369	-0.02
Mof_C 	C 	0.6609	0.5619	0.8632	-0.115
Mof_C 	C 	0.66546	0.54336	0.83452	0.127
Mof_C 	C 	0.5944	0.6087	0.8113	-0.226
Mof_C 	C 	0.69231	0.55801	0.91597	0.198
Mof_C 	C 	0.65848	0.59058	0.92206	-0.388
Mof_C 	C 	0.66244	0.60644	0.95158	0.381
Mof_C 	C 	0.6856	0.305	0.9127	-0.287
Mof_C 	C 	0.56275	0.93725	0.25	0.081
Mof_C 	C 	0.93725	0.25	0.25	0.081
Mof_C 	C 	0.25	0.56275	0.25	0.081
Mof_C 	C 	0.43725	0.06275	0.75	0.081
Mof_C 	C 	0.06275	0.75	0.75	0.081
Mof_C 	C 	0.75	0.43725	0.75	0.081
Mof_O 	O 	0.81505	0.86445	0.40265	-0.533
Mof_O 	O 	0.24683	0.08433	0.47201	-0.482
Mof_O 	O 	0.76555	0.82725	0.45365	-0.518
Mof_O 	O 	0.26612	0.14312	0.46844	-0.49
Mof_O 	O 	0.61424	0.88654	0.29228	-0.168
Mof_O 	O 	0.50991	0.98411	0.29627	-0.162
Mof_O 	O 	0.48926	0.05976	0.31412	-0.169
Mof_O 	O 	0.61272	0.82132	0.36794	-0.128
Mof_O 	O 	0.86445	0.91785	0.40265	-0.534
Mof_O 	O 	0.08433	0.19683	0.47201	-0.482
Mof_O 	O 	0.82725	0.95355	0.45365	-0.518
Mof_O 	O 	0.14312	0.12232	0.46844	-0.49
Mof_O 	O 	0.88654	0.20694	0.29228	-0.168
Mof_O 	O 	0.98411	0.20971	0.29627	-0.162
Mof_O 	O 	0.05976	0.13686	0.31412	-0.169
Mof_O 	O 	0.82132	0.19802	0.36794	-0.128
Mof_O 	O 	0.91785	0.81505	0.40265	-0.534
Mof_O 	O 	0.19683	0.24683	0.47201	-0.482
Mof_O 	O 	0.95355	0.76555	0.45365	-0.518
Mof_O 	O 	0.12232	0.26612	0.46844	-0.49
Mof_O 	O 	0.20694	0.61424	0.29228	-0.168
Mof_O 	O 	0.20971	0.50991	0.29627	-0.162
Mof_O 	O 	0.13686	0.48926	0.31412	-0.169
Mof_O 	O 	0.19802	0.61272	0.36794	-0.128
Mof_O 	O 	0.68495	0.58215	0.09735	-0.533
Mof_O 	O 	0.25317	0.30317	0.02799	-0.481
Mof_O 	O 	0.73445	0.54645	0.04635	-0.518
Mof_O 	O 	0.23388	0.37768	0.03156	-0.489
Mof_O 	O 	0.88576	0.29306	0.20772	-0.168
Mof_O 	O 	0.99009	0.29029	0.20373	-0.162
Mof_O 	O 	0.01074	0.36314	0.18588	-0.169
Mof_O 	O 	0.88728	0.30198	0.13206	-0.128
Mof_O 	O 	0.63555	0.68495	0.09735	-0.533
Mof_O 	O 	0.41567	0.25317	0.02799	-0.481
Mof_O 	O 	0.67275	0.73445	0.04635	-0.518
Mof_O 	O 	0.35688	0.23388	0.03156	-0.489
Mof_O 	O 	0.61346	0.88576	0.20772	-0.168
Mof_O 	O 	0.51589	0.99009	0.20373	-0.162
Mof_O 	O 	0.44024	0.01074	0.18588	-0.169
Mof_O 	O 	0.67868	0.88728	0.13206	-0.128
Mof_O 	O 	0.58215	0.63555	0.09735	-0.533
Mof_O 	O 	0.30317	0.41567	0.02799	-0.481
Mof_O 	O 	0.54645	0.67275	0.04635	-0.518
Mof_O 	O 	0.37768	0.35688	0.03156	-0.489
Mof_O 	O 	0.29306	0.61346	0.20772	-0.168
Mof_O 	O 	0.29029	0.51589	0.20373	-0.162
Mof_O 	O 	0.36314	0.44024	0.18588	-0.169
Mof_O 	O 	0.30198	0.67868	0.13206	-0.128
Mof_O 	O 	0.18495	0.13555	0.59735	-0.533
Mof_O 	O 	0.75317	0.91567	0.52799	-0.482
Mof_O 	O 	0.23445	0.17275	0.54635	-0.518
Mof_O 	O 	0.73388	0.85688	0.53156	-0.49
Mof_O 	O 	0.38576	0.11346	0.70772	-0.168
Mof_O 	O 	0.49009	0.01589	0.70373	-0.162
Mof_O 	O 	0.51074	0.94024	0.68588	-0.169
Mof_O 	O 	0.38728	0.17868	0.63206	-0.128
Mof_O 	O 	0.13555	0.08215	0.59735	-0.534
Mof_O 	O 	0.91567	0.80317	0.52799	-0.482
Mof_O 	O 	0.17275	0.04645	0.54635	-0.518
Mof_O 	O 	0.85688	0.87768	0.53156	-0.49
Mof_O 	O 	0.11346	0.79306	0.70772	-0.168
Mof_O 	O 	0.01589	0.79029	0.70373	-0.162
Mof_O 	O 	0.94024	0.86314	0.68588	-0.169
Mof_O 	O 	0.17868	0.80198	0.63206	-0.128
Mof_O 	O 	0.08215	0.18495	0.59735	-0.534
Mof_O 	O 	0.80317	0.75317	0.52799	-0.482
Mof_O 	O 	0.04645	0.23445	0.54635	-0.518
Mof_O 	O 	0.87768	0.73388	0.53156	-0.49
Mof_O 	O 	0.79306	0.38576	0.70772	-0.168
Mof_O 	O 	0.79029	0.49009	0.70373	-0.162
Mof_O 	O 	0.86314	0.51074	0.68588	-0.169
Mof_O 	O 	0.80198	0.38728	0.63206	-0.128
Mof_O 	O 	0.31505	0.41785	0.90265	-0.533
Mof_O 	O 	0.74683	0.69683	0.97201	-0.481
Mof_O 	O 	0.26555	0.45355	0.95365	-0.518
Mof_O 	O 	0.76612	0.62232	0.96844	-0.489
Mof_O 	O 	0.11424	0.70694	0.79228	-0.168
Mof_O 	O 	0.00991	0.70971	0.79627	-0.162
Mof_O 	O 	0.98926	0.63686	0.81412	-0.169
Mof_O 	O 	0.11272	0.69802	0.86794	-0.128
Mof_O 	O 	0.36445	0.31505	0.90265	-0.533
Mof_O 	O 	0.58433	0.74683	0.97201	-0.481
Mof_O 	O 	0.32725	0.26555	0.95365	-0.518
Mof_O 	O 	0.64312	0.76612	0.96844	-0.489
Mof_O 	O 	0.38654	0.11424	0.79228	-0.168
Mof_O 	O 	0.48411	0.00991	0.79627	-0.162
Mof_O 	O 	0.55976	0.98926	0.81412	-0.169
Mof_O 	O 	0.32132	0.11272	0.86794	-0.128
Mof_O 	O 	0.41785	0.36445	0.90265	-0.533
Mof_O 	O 	0.69683	0.58433	0.97201	-0.481
Mof_O 	O 	0.45355	0.32725	0.95365	-0.518
Mof_O 	O 	0.62232	0.64312	0.96844	-0.489
Mof_O 	O 	0.70694	0.38654	0.79228	-0.168
Mof_O 	O 	0.70971	0.48411	0.79627	-0.162
Mof_O 	O 	0.63686	0.55976	0.81412	-0.169
Mof_O 	O 	0.69802	0.32132	0.86794	-0.128
Mof_O 	O 	0.84083	0.84083	0.47751	-0.973
Mof_O 	O 	0.65917	0.65917	0.02249	-0.973
Mof_O 	O 	0.15917	0.15917	0.52249	-0.973
Mof_O 	O 	0.34083	0.34083	0.97751	-0.973
_end
