data_functionalizedCrystal
_audit_creation_method	'EQeq! by Chris Wilmer'
_symmetry_space_group_name_H-M	'P1'
_symmetry_Int_Tables_number	1
_symmetry_cell_setting	triclinic
loop_
_symmetry_equiv_pos_as_xyz
  x,y,z
_cell_length_a	8.13
_cell_length_b	22.358
_cell_length_c	10.538
_cell_angle_alpha	90
_cell_angle_beta	112.357
_cell_angle_gamma	90
loop_
_atom_site_label
_atom_site_type_symbol
_atom_site_fract_x
_atom_site_fract_y
_atom_site_fract_z
_atom_site_charge
Mof_Zn	Zn	0.84223	0.19393	0.41381	1.229
Mof_Zn	Zn	0.28353	0.03194	0.33221	1.235
Mof_Cl	Cl	0.30358	0.97535	0.15615	-0.491
Mof_P 	P 	0.0035	0.14788	0.20862	0.481
Mof_P 	P 	0.69687	0.07216	0.46679	0.459
Mof_P 	P 	0.48756	0.22974	0.19198	0.488
Mof_O 	O 	0.1003	0.0899	0.2496	-0.443
Mof_O 	O 	0.0482	0.1812	0.0989	-0.241
Mof_O 	O 	0.0295	0.18758	0.3327	-0.393
Mof_O 	O 	0.7872	0.01704	0.5467	-0.436
Mof_O 	O 	0.7909	0.13018	0.5314	-0.376
Mof_O 	O 	0.4993	0.07634	0.4441	-0.442
Mof_O 	O 	0.3101	0.2458	0.2045	-0.435
Mof_H 	H 	0.2349	0.2206	0.1641	0.301
Mof_O 	O 	0.6354	0.24919	0.3254	-0.387
Mof_O 	O 	0.5016	0.25526	0.0655	-0.413
Mof_N 	N 	0.6903	0.12899	0.2386	-0.08
Mof_C 	C 	0.7646	0.1341	0.1311	-0.319
Mof_H 	H 	0.7067	0.1667	0.0695	0.158
Mof_H 	H 	0.7421	0.0975	0.0779	0.177
Mof_C 	C 	0.7182	0.0687	0.3013	-0.315
Mof_H 	H 	0.8356	0.0542	0.3132	0.138
Mof_H 	H 	0.6309	0.0411	0.2414	0.145
Mof_C 	C 	0.5006	0.1484	0.1865	-0.303
Mof_H 	H 	0.4399	0.1346	0.093	0.144
Mof_H 	H 	0.442	0.1309	0.2425	0.116
Mof_Zn	Zn	0.65777	0.69393	0.08619	1.231
Mof_Zn	Zn	0.21647	0.53194	0.16779	1.236
Mof_Cl	Cl	0.19642	0.47535	0.34385	-0.489
Mof_P 	P 	0.4965	0.64788	0.29138	0.478
Mof_P 	P 	0.80313	0.57216	0.03321	0.456
Mof_P 	P 	0.01244	0.72974	0.30802	0.476
Mof_O 	O 	0.3997	0.5899	0.2504	-0.443
Mof_O 	O 	0.4518	0.6812	0.4011	-0.244
Mof_O 	O 	0.4705	0.68758	0.1673	-0.396
Mof_O 	O 	0.7128	0.51704	0.9533	-0.434
Mof_O 	O 	0.7091	0.63018	0.9686	-0.372
Mof_O 	O 	0.0007	0.57634	0.0559	-0.442
Mof_O 	O 	0.1899	0.7458	0.2955	-0.434
Mof_H 	H 	0.2651	0.7206	0.3359	0.3
Mof_O 	O 	0.8646	0.74919	0.1746	-0.382
Mof_O 	O 	0.9984	0.75526	0.4345	-0.407
Mof_N 	N 	0.8097	0.62899	0.2614	-0.082
Mof_C 	C 	0.7354	0.6341	0.3689	-0.313
Mof_H 	H 	0.7933	0.6667	0.4305	0.158
Mof_H 	H 	0.7579	0.5975	0.4221	0.176
Mof_C 	C 	0.7818	0.5687	0.1987	-0.314
Mof_H 	H 	0.6644	0.5542	0.1868	0.138
Mof_H 	H 	0.8691	0.5411	0.2586	0.145
Mof_C 	C 	0.9994	0.6484	0.3135	-0.284
Mof_H 	H 	0.0601	0.6346	0.407	0.135
Mof_H 	H 	0.058	0.6309	0.2575	0.108
Mof_Zn	Zn	0.15777	0.80607	0.58619	1.23
Mof_Zn	Zn	0.71647	0.96806	0.66779	1.236
Mof_Cl	Cl	0.69642	0.02465	0.84385	-0.49
Mof_P 	P 	0.9965	0.85212	0.79138	0.482
Mof_P 	P 	0.30313	0.92784	0.53321	0.459
Mof_P 	P 	0.51244	0.77026	0.80802	0.488
Mof_O 	O 	0.8997	0.9101	0.7504	-0.443
Mof_O 	O 	0.9518	0.8188	0.9011	-0.241
Mof_O 	O 	0.9705	0.81242	0.6673	-0.393
Mof_O 	O 	0.2128	0.98296	0.4533	-0.436
Mof_O 	O 	0.2091	0.86982	0.4686	-0.376
Mof_O 	O 	0.5007	0.92366	0.5559	-0.442
Mof_O 	O 	0.6899	0.7542	0.7955	-0.435
Mof_H 	H 	0.7651	0.7794	0.8359	0.301
Mof_O 	O 	0.3646	0.75081	0.6746	-0.387
Mof_O 	O 	0.4984	0.74474	0.9345	-0.413
Mof_N 	N 	0.3097	0.87101	0.7614	-0.08
Mof_C 	C 	0.2354	0.8659	0.8689	-0.319
Mof_H 	H 	0.2933	0.8333	0.9305	0.158
Mof_H 	H 	0.2579	0.9025	0.9221	0.177
Mof_C 	C 	0.2818	0.9313	0.6987	-0.315
Mof_H 	H 	0.1644	0.9458	0.6868	0.138
Mof_H 	H 	0.3691	0.9589	0.7586	0.145
Mof_C 	C 	0.4994	0.8516	0.8135	-0.303
Mof_H 	H 	0.5601	0.8654	0.907	0.144
Mof_H 	H 	0.558	0.8691	0.7575	0.116
Mof_Zn	Zn	0.34223	0.30607	0.91381	1.231
Mof_Zn	Zn	0.78353	0.46806	0.83221	1.236
Mof_Cl	Cl	0.80358	0.52465	0.65615	-0.489
Mof_P 	P 	0.5035	0.35212	0.70862	0.478
Mof_P 	P 	0.19687	0.42784	0.96679	0.456
Mof_P 	P 	0.98756	0.27026	0.69198	0.476
Mof_O 	O 	0.6003	0.4101	0.7496	-0.443
Mof_O 	O 	0.5482	0.3188	0.5989	-0.244
Mof_O 	O 	0.5295	0.31242	0.8327	-0.396
Mof_O 	O 	0.2872	0.48296	0.0467	-0.434
Mof_O 	O 	0.2909	0.36982	0.0314	-0.372
Mof_O 	O 	0.9993	0.42366	0.9441	-0.442
Mof_O 	O 	0.8101	0.2542	0.7045	-0.434
Mof_H 	H 	0.7349	0.2794	0.6641	0.3
Mof_O 	O 	0.1354	0.25081	0.8254	-0.382
Mof_O 	O 	0.0016	0.24474	0.5655	-0.407
Mof_N 	N 	0.1903	0.37101	0.7386	-0.082
Mof_C 	C 	0.2646	0.3659	0.6311	-0.313
Mof_H 	H 	0.2067	0.3333	0.5695	0.158
Mof_H 	H 	0.2421	0.4025	0.5779	0.176
Mof_C 	C 	0.2182	0.4313	0.8013	-0.314
Mof_H 	H 	0.3356	0.4458	0.8132	0.138
Mof_H 	H 	0.1309	0.4589	0.7414	0.145
Mof_C 	C 	0.0006	0.3516	0.6865	-0.284
Mof_H 	H 	0.9399	0.3654	0.593	0.135
Mof_H 	H 	0.942	0.3691	0.7425	0.108
_end
