# CIF file generated by openbabel 3.1.0, see https://openbabel.org
data_I
_chemical_name_common 'image0'
_cell_length_a 15.894
_cell_length_b 10.491
_cell_length_c 20.909
_cell_angle_alpha 90
_cell_angle_beta 107.841
_cell_angle_gamma 90
_space_group_name_H-M_alt 'P 1'
_space_group_name_Hall 'P 1'
loop_
    _symmetry_equiv_pos_as_xyz
    x,y,z
loop_
    _atom_site_label
    _atom_site_type_symbol
    _atom_site_fract_x
    _atom_site_fract_y
    _atom_site_fract_z
    _atom_site_occupancy
    C1       C        0.86610    0.60250    0.83610    1.000
    H1       H        0.88150    0.51280    0.83780    1.000
    H2       H        0.83140    0.61570    0.86650    1.000
    C2       C        0.95040    0.68030    0.86060    1.000
    C3       C        0.01580    0.64100    0.91750    1.000
    H3       H        0.00800    0.56730    0.93970    1.000
    C4       C        0.09320    0.71090    0.94180    1.000
    H4       H        0.13680    0.68360    0.98010    1.000
    C5       C        0.10590    0.82060    0.90950    1.000
    C6       C        0.04230    0.85680    0.85120    1.000
    H5       H        0.05110    0.92820    0.82770    1.000
    C7       C        0.96490    0.78650    0.82760    1.000
    H6       H        0.92200    0.81230    0.78850    1.000
    C8       C        0.18760    0.89480    0.93650    1.000
    C9       C        0.74820    0.72820    0.75580    1.000
    C10      C        0.73150    0.80100    0.80700    1.000
    H7       H        0.76550    0.78750    0.85130    1.000
    C11      C        0.66600    0.89190    0.79280    1.000
    C12      C        0.61300    0.91430    0.72780    1.000
    H8       H        0.56800    0.97460    0.71880    1.000
    C13      C        0.62880    0.84430    0.67600    1.000
    C14      C        0.69560    0.75390    0.68940    1.000
    H9       H        0.70590    0.70950    0.65400    1.000
    C15      C        0.57500    0.86730    0.60370    1.000
    C16      C        0.65310    0.96840    0.85090    1.000
    C17      C        0.83880    0.57700    0.71490    1.000
    H10      H        0.89920    0.54720    0.73320    1.000
    H11      H        0.83820    0.64240    0.68200    1.000
    C18      C        0.70520    0.43280    0.69260    1.000
    H12      H        0.68830    0.47620    0.72540    1.000
    C19      C        0.78200    0.46730    0.67970    1.000
    C20      C        0.65280    0.33480    0.65750    1.000
    H13      H        0.60070    0.31380    0.66650    1.000
    C21      C        0.67730    0.26860    0.60950    1.000
    C22      C        0.61790    0.16710    0.56880    1.000
    C23      C        0.75550    0.29830    0.59780    1.000
    H14      H        0.77390    0.25080    0.56700    1.000
    C24      C        0.80740    0.39890    0.63180    1.000
    H15      H        0.85910    0.42040    0.62230    1.000
    N1       N        0.81190    0.63350    0.76840    1.000
    O1       O        0.60510    0.06650    0.83880    1.000
    O2       O        0.53930    0.16860    0.56790    1.000
    O3       O        0.65100    0.08730    0.53860    1.000
    O4       O        0.60720    0.83130    0.55930    1.000
    O5       O        0.50090    0.92050    0.59250    1.000
    O6       O        0.68840    0.92990    0.90950    1.000
    O7       O        0.19640    0.99070    0.89960    1.000
    O8       O        0.24330    0.86640    0.98920    1.000
    Gd1      Gd       0.39937    0.07818    0.54554    1.000
    C25      C        0.13390    0.60250    0.66390    1.000
    H16      H        0.11850    0.51280    0.66220    1.000
    H17      H        0.16860    0.61570    0.63350    1.000
    C26      C        0.04960    0.68030    0.63940    1.000
    C27      C        0.98420    0.64100    0.58250    1.000
    H18      H        0.99200    0.56730    0.56030    1.000
    C28      C        0.90680    0.71090    0.55820    1.000
    H19      H        0.86320    0.68360    0.51990    1.000
    C29      C        0.89410    0.82060    0.59050    1.000
    C30      C        0.95770    0.85680    0.64880    1.000
    H20      H        0.94890    0.92820    0.67230    1.000
    C31      C        0.03510    0.78650    0.67240    1.000
    H21      H        0.07800    0.81230    0.71150    1.000
    C32      C        0.81240    0.89480    0.56350    1.000
    C33      C        0.25180    0.72820    0.74420    1.000
    C34      C        0.26850    0.80100    0.69300    1.000
    H22      H        0.23450    0.78750    0.64870    1.000
    C35      C        0.33400    0.89190    0.70720    1.000
    C36      C        0.38700    0.91430    0.77220    1.000
    H23      H        0.43200    0.97460    0.78120    1.000
    C37      C        0.37120    0.84430    0.82400    1.000
    C38      C        0.30440    0.75390    0.81060    1.000
    H24      H        0.29410    0.70950    0.84600    1.000
    C39      C        0.42500    0.86730    0.89630    1.000
    C40      C        0.34690    0.96840    0.64910    1.000
    C41      C        0.16120    0.57700    0.78510    1.000
    H25      H        0.10080    0.54720    0.76680    1.000
    H26      H        0.16180    0.64240    0.81800    1.000
    C42      C        0.29480    0.43280    0.80740    1.000
    H27      H        0.31170    0.47620    0.77460    1.000
    C43      C        0.21800    0.46730    0.82030    1.000
    C44      C        0.34720    0.33480    0.84250    1.000
    H28      H        0.39930    0.31380    0.83350    1.000
    C45      C        0.32270    0.26860    0.89050    1.000
    C46      C        0.38210    0.16710    0.93120    1.000
    C47      C        0.24450    0.29830    0.90220    1.000
    H29      H        0.22610    0.25080    0.93300    1.000
    C48      C        0.19260    0.39890    0.86820    1.000
    H30      H        0.14090    0.42040    0.87770    1.000
    N2       N        0.18810    0.63350    0.73160    1.000
    O9       O        0.39490    0.06650    0.66120    1.000
    O10      O        0.46070    0.16860    0.93210    1.000
    O11      O        0.34900    0.08730    0.96140    1.000
    O12      O        0.39280    0.83130    0.94070    1.000
    O13      O        0.49910    0.92050    0.90750    1.000
    O14      O        0.31160    0.92990    0.59050    1.000
    O15      O        0.80360    0.99070    0.60040    1.000
    O16      O        0.75670    0.86640    0.51080    1.000
    Gd2      Gd       0.60062    0.07818    0.95446    1.000
    C49      C        0.13390    0.39750    0.16390    1.000
    H31      H        0.11850    0.48720    0.16220    1.000
    H32      H        0.16860    0.38430    0.13350    1.000
    C50      C        0.04960    0.31970    0.13940    1.000
    C51      C        0.98420    0.35900    0.08250    1.000
    H33      H        0.99200    0.43270    0.06030    1.000
    C52      C        0.90680    0.28910    0.05820    1.000
    H34      H        0.86320    0.31640    0.01990    1.000
    C53      C        0.89410    0.17940    0.09050    1.000
    C54      C        0.95770    0.14320    0.14880    1.000
    H35      H        0.94890    0.07180    0.17230    1.000
    C55      C        0.03510    0.21350    0.17240    1.000
    H36      H        0.07800    0.18770    0.21150    1.000
    C56      C        0.81240    0.10520    0.06350    1.000
    C57      C        0.25180    0.27180    0.24420    1.000
    C58      C        0.26850    0.19900    0.19300    1.000
    H37      H        0.23450    0.21250    0.14870    1.000
    C59      C        0.33400    0.10810    0.20720    1.000
    C60      C        0.38700    0.08570    0.27220    1.000
    H38      H        0.43200    0.02540    0.28120    1.000
    C61      C        0.37120    0.15570    0.32400    1.000
    C62      C        0.30440    0.24610    0.31060    1.000
    H39      H        0.29410    0.29050    0.34600    1.000
    C63      C        0.42500    0.13270    0.39630    1.000
    C64      C        0.34690    0.03160    0.14910    1.000
    C65      C        0.16120    0.42300    0.28510    1.000
    H40      H        0.10080    0.45280    0.26680    1.000
    H41      H        0.16180    0.35760    0.31800    1.000
    C66      C        0.29480    0.56720    0.30740    1.000
    H42      H        0.31170    0.52380    0.27460    1.000
    C67      C        0.21800    0.53270    0.32030    1.000
    C68      C        0.34720    0.66520    0.34250    1.000
    H43      H        0.39930    0.68620    0.33350    1.000
    C69      C        0.32270    0.73140    0.39050    1.000
    C70      C        0.38210    0.83290    0.43120    1.000
    C71      C        0.24450    0.70170    0.40220    1.000
    H44      H        0.22610    0.74920    0.43300    1.000
    C72      C        0.19260    0.60110    0.36820    1.000
    H45      H        0.14090    0.57960    0.37770    1.000
    N3       N        0.18810    0.36650    0.23160    1.000
    O17      O        0.39490    0.93350    0.16120    1.000
    O18      O        0.46070    0.83140    0.43210    1.000
    O19      O        0.34900    0.91270    0.46140    1.000
    O20      O        0.39280    0.16870    0.44070    1.000
    O21      O        0.49910    0.07950    0.40750    1.000
    O22      O        0.31160    0.07010    0.09050    1.000
    O23      O        0.80360    0.00930    0.10040    1.000
    O24      O        0.75670    0.13360    0.01080    1.000
    Gd3      Gd       0.60062    0.92182    0.45446    1.000
    C73      C        0.86610    0.39750    0.33610    1.000
    H46      H        0.88150    0.48720    0.33780    1.000
    H47      H        0.83140    0.38430    0.36650    1.000
    C74      C        0.95040    0.31970    0.36060    1.000
    C75      C        0.01580    0.35900    0.41750    1.000
    H48      H        0.00800    0.43270    0.43970    1.000
    C76      C        0.09320    0.28910    0.44180    1.000
    H49      H        0.13680    0.31640    0.48010    1.000
    C77      C        0.10590    0.17940    0.40950    1.000
    C78      C        0.04230    0.14320    0.35120    1.000
    H50      H        0.05110    0.07180    0.32770    1.000
    C79      C        0.96490    0.21350    0.32760    1.000
    H51      H        0.92200    0.18770    0.28850    1.000
    C80      C        0.18760    0.10520    0.43650    1.000
    C81      C        0.74820    0.27180    0.25580    1.000
    C82      C        0.73150    0.19900    0.30700    1.000
    H52      H        0.76550    0.21250    0.35130    1.000
    C83      C        0.66600    0.10810    0.29280    1.000
    C84      C        0.61300    0.08570    0.22780    1.000
    H53      H        0.56800    0.02540    0.21880    1.000
    C85      C        0.62880    0.15570    0.17600    1.000
    C86      C        0.69560    0.24610    0.18940    1.000
    H54      H        0.70590    0.29050    0.15400    1.000
    C87      C        0.57500    0.13270    0.10370    1.000
    C88      C        0.65310    0.03160    0.35090    1.000
    C89      C        0.83880    0.42300    0.21490    1.000
    H55      H        0.89920    0.45280    0.23320    1.000
    H56      H        0.83820    0.35760    0.18200    1.000
    C90      C        0.70520    0.56720    0.19260    1.000
    H57      H        0.68830    0.52380    0.22540    1.000
    C91      C        0.78200    0.53270    0.17970    1.000
    C92      C        0.65280    0.66520    0.15750    1.000
    H58      H        0.60070    0.68620    0.16650    1.000
    C93      C        0.67730    0.73140    0.10950    1.000
    C94      C        0.61790    0.83290    0.06880    1.000
    C95      C        0.75550    0.70170    0.09780    1.000
    H59      H        0.77390    0.74920    0.06700    1.000
    C96      C        0.80740    0.60110    0.13180    1.000
    H60      H        0.85910    0.57960    0.12230    1.000
    N4       N        0.81190    0.36650    0.26840    1.000
    O25      O        0.60510    0.93350    0.33880    1.000
    O26      O        0.53930    0.83140    0.06790    1.000
    O27      O        0.65100    0.91270    0.03860    1.000
    O28      O        0.60720    0.16870    0.05930    1.000
    O29      O        0.50090    0.07950    0.09250    1.000
    O30      O        0.68840    0.07010    0.40950    1.000
    O31      O        0.19640    0.00930    0.39960    1.000
    O32      O        0.24330    0.13360    0.48920    1.000
    Gd4      Gd       0.39937    0.92182    0.04554    1.000
