# CIF file generated by openbabel 3.1.0, see https://openbabel.org
data_I
_chemical_name_common 'HOJLEY_clean'
_cell_length_a 8.713
_cell_length_b 13.054
_cell_length_c 13.568
_cell_angle_alpha 90
_cell_angle_beta 90
_cell_angle_gamma 90.184
_space_group_name_H-M_alt 'P 1'
_space_group_name_Hall 'P 1'
loop_
    _symmetry_equiv_pos_as_xyz
    x,y,z
loop_
    _atom_site_label
    _atom_site_type_symbol
    _atom_site_fract_x
    _atom_site_fract_y
    _atom_site_fract_z
    _atom_site_occupancy
    Cu1      Cu       0.95483    0.41238    0.95983    1.000
    Cu2      Cu       0.54517    0.58762    0.45983    1.000
    Cu3      Cu       0.04517    0.58762    0.04017    1.000
    Cu4      Cu       0.45483    0.41238    0.54017    1.000
    H1       H        0.78570    0.37810    0.77210    1.000
    H2       H        0.73710    0.26200    0.65020    1.000
    H3       H        0.91400    0.04370    0.82290    1.000
    H4       H        0.95980    0.16630    0.93980    1.000
    H5       H        0.71670    0.09130    0.59420    1.000
    H6       H        0.72700    0.00370    0.67280    1.000
    H7       H        0.81300    0.88730    0.55290    1.000
    H8       H        0.79340    0.97510    0.47490    1.000
    H9       H        0.93230    0.13520    0.49550    1.000
    H10      H        0.04140    0.14990    0.58650    1.000
    H11      H        0.40970    0.30340    0.05370    1.000
    H12      H        0.49050    0.39620    0.00150    1.000
    H13      H        0.57900    0.38250    0.16360    1.000
    H14      H        0.49440    0.48750    0.14990    1.000
    H15      H        0.36030    0.31200    0.23800    1.000
    H16      H        0.26980    0.41370    0.22000    1.000
    H17      H        0.71430    0.62190    0.27210    1.000
    H18      H        0.76290    0.73800    0.15020    1.000
    H19      H        0.58600    0.95630    0.32290    1.000
    H20      H        0.54020    0.83370    0.43980    1.000
    H21      H        0.78330    0.90870    0.09420    1.000
    H22      H        0.77300    0.99630    0.17280    1.000
    H23      H        0.68700    0.11270    0.05290    1.000
    H24      H        0.70660    0.02490    0.97490    1.000
    H25      H        0.56770    0.86480    0.99550    1.000
    H26      H        0.45860    0.85010    0.08650    1.000
    H27      H        0.09030    0.69660    0.55370    1.000
    H28      H        0.00950    0.60380    0.50150    1.000
    H29      H        0.92100    0.61750    0.66360    1.000
    H30      H        0.00560    0.51250    0.64990    1.000
    H31      H        0.13970    0.68800    0.73800    1.000
    H32      H        0.23020    0.58630    0.72000    1.000
    H33      H        0.21430    0.62190    0.22790    1.000
    H34      H        0.26290    0.73800    0.34980    1.000
    H35      H        0.08600    0.95630    0.17710    1.000
    H36      H        0.04020    0.83370    0.06020    1.000
    H37      H        0.28330    0.90870    0.40580    1.000
    H38      H        0.27300    0.99630    0.32720    1.000
    H39      H        0.18700    0.11270    0.44710    1.000
    H40      H        0.20660    0.02490    0.52510    1.000
    H41      H        0.06770    0.86480    0.50450    1.000
    H42      H        0.95860    0.85010    0.41350    1.000
    H43      H        0.59030    0.69660    0.94630    1.000
    H44      H        0.50950    0.60380    0.99850    1.000
    H45      H        0.42100    0.61750    0.83640    1.000
    H46      H        0.50560    0.51250    0.85010    1.000
    H47      H        0.63970    0.68800    0.76200    1.000
    H48      H        0.73020    0.58630    0.78000    1.000
    H49      H        0.28570    0.37810    0.72790    1.000
    H50      H        0.23710    0.26200    0.84980    1.000
    H51      H        0.41400    0.04370    0.67710    1.000
    H52      H        0.45980    0.16630    0.56020    1.000
    H53      H        0.21670    0.09130    0.90580    1.000
    H54      H        0.22700    0.00370    0.82720    1.000
    H55      H        0.31300    0.88730    0.94710    1.000
    H56      H        0.29340    0.97510    0.02510    1.000
    H57      H        0.43230    0.13520    0.00450    1.000
    H58      H        0.54140    0.14990    0.91350    1.000
    H59      H        0.90970    0.30340    0.44630    1.000
    H60      H        0.99050    0.39620    0.49850    1.000
    H61      H        0.07900    0.38250    0.33640    1.000
    H62      H        0.99440    0.48750    0.35010    1.000
    H63      H        0.86030    0.31200    0.26200    1.000
    H64      H        0.76980    0.41370    0.28000    1.000
    C1       C        0.81300    0.31000    0.78230    1.000
    C2       C        0.78270    0.24050    0.70860    1.000
    C3       C        0.82020    0.13820    0.72167    1.000
    C4       C        0.88750    0.11140    0.81059    1.000
    C5       C        0.91480    0.18580    0.88061    1.000
    C6       C        0.78320    0.06000    0.64290    1.000
    C7       C        0.86580    0.94270    0.51920    1.000
    C8       C        0.00260    0.10028    0.53950    1.000
    C9       C        0.26280    0.42260    0.02817    1.000
    C10      C        0.41810    0.37760    0.05281    1.000
    C11      C        0.48000    0.41380    0.15162    1.000
    C12      C        0.37020    0.38600    0.23520    1.000
    C13      C        0.41860    0.42430    0.33539    1.000
    C14      C        0.68700    0.69000    0.28230    1.000
    C15      C        0.71730    0.75950    0.20860    1.000
    C16      C        0.67980    0.86180    0.22167    1.000
    C17      C        0.61250    0.88860    0.31059    1.000
    C18      C        0.58520    0.81420    0.38061    1.000
    C19      C        0.71680    0.94000    0.14290    1.000
    C20      C        0.63420    0.05730    0.01920    1.000
    C21      C        0.49740    0.89972    0.03950    1.000
    C22      C        0.23720    0.57740    0.52817    1.000
    C23      C        0.08190    0.62240    0.55281    1.000
    C24      C        0.02000    0.58620    0.65162    1.000
    C25      C        0.12980    0.61400    0.73520    1.000
    C26      C        0.08140    0.57570    0.83539    1.000
    C27      C        0.18700    0.69000    0.21770    1.000
    C28      C        0.21730    0.75950    0.29140    1.000
    C29      C        0.17980    0.86180    0.27833    1.000
    C30      C        0.11250    0.88860    0.18941    1.000
    C31      C        0.08520    0.81420    0.11939    1.000
    C32      C        0.21680    0.94000    0.35710    1.000
    C33      C        0.13420    0.05730    0.48080    1.000
    C34      C        0.99740    0.89972    0.46050    1.000
    C35      C        0.73720    0.57740    0.97183    1.000
    C36      C        0.58190    0.62240    0.94719    1.000
    C37      C        0.52000    0.58620    0.84838    1.000
    C38      C        0.62980    0.61400    0.76480    1.000
    C39      C        0.58140    0.57570    0.66461    1.000
    C40      C        0.31300    0.31000    0.71770    1.000
    C41      C        0.28270    0.24050    0.79140    1.000
    C42      C        0.32020    0.13820    0.77833    1.000
    C43      C        0.38750    0.11140    0.68941    1.000
    C44      C        0.41480    0.18580    0.61939    1.000
    C45      C        0.28320    0.06000    0.85710    1.000
    C46      C        0.36580    0.94270    0.98080    1.000
    C47      C        0.50260    0.10028    0.96050    1.000
    C48      C        0.76280    0.42260    0.47183    1.000
    C49      C        0.91810    0.37760    0.44719    1.000
    C50      C        0.98000    0.41380    0.34838    1.000
    C51      C        0.87020    0.38600    0.26480    1.000
    C52      C        0.91860    0.42430    0.16461    1.000
    N1       N        0.87970    0.28494    0.86774    1.000
    N2       N        0.91990    0.01846    0.59237    1.000
    N3       N        0.62030    0.71506    0.36774    1.000
    N4       N        0.58010    0.98154    0.09237    1.000
    N5       N        0.12030    0.71506    0.13226    1.000
    N6       N        0.08010    0.98154    0.40763    1.000
    N7       N        0.37970    0.28494    0.63226    1.000
    N8       N        0.41990    0.01846    0.90763    1.000
    O1       O        0.16430    0.36451    0.98947    1.000
    O2       O        0.24210    0.51502    0.04939    1.000
    O3       O        0.40000    0.36478    0.40791    1.000
    O4       O        0.47160    0.51367    0.34126    1.000
    O5       O        0.33570    0.63549    0.48947    1.000
    O6       O        0.25790    0.48498    0.54939    1.000
    O7       O        0.10000    0.63522    0.90791    1.000
    O8       O        0.02840    0.48633    0.84126    1.000
    O9       O        0.83570    0.63549    0.01053    1.000
    O10      O        0.75790    0.48498    0.95061    1.000
    O11      O        0.60000    0.63522    0.59209    1.000
    O12      O        0.52840    0.48633    0.65874    1.000
    O13      O        0.66430    0.36451    0.51053    1.000
    O14      O        0.74210    0.51502    0.45061    1.000
    O15      O        0.90000    0.36478    0.09209    1.000
    O16      O        0.97160    0.51367    0.15874    1.000
