# CIF file generated by openbabel 3.1.0, see https://openbabel.org
data_I
_chemical_name_common 'FUWXOL_clean'
_cell_length_a 8.6429
_cell_length_b 8.8848
_cell_length_c 15.4504
_cell_angle_alpha 90
_cell_angle_beta 90
_cell_angle_gamma 90
_space_group_name_H-M_alt 'P 1'
_space_group_name_Hall 'P 1'
loop_
    _symmetry_equiv_pos_as_xyz
    x,y,z
loop_
    _atom_site_label
    _atom_site_type_symbol
    _atom_site_fract_x
    _atom_site_fract_y
    _atom_site_fract_z
    _atom_site_occupancy
    Zn1      Zn       0.45148    0.25548    0.87354    1.000
    H2       H        0.05600    0.14600    0.83300    1.000
    C3       C        0.12080    0.12730    0.78930    1.000
    C4       C        0.21830    0.98980    0.68310    1.000
    C5       C        0.21820    0.90520    0.60250    1.000
    C6       C        0.33520    0.04560    0.73380    1.000
    C7       C        0.50160    0.03810    0.73250    1.000
    N8       N        0.27320    0.13290    0.80020    1.000
    N9       N        0.08320    0.04010    0.72060    1.000
    N10      N        0.09480    0.89260    0.55250    1.000
    N11      N        0.14800    0.81040    0.48650    1.000
    N12      N        0.29350    0.77590    0.49540    1.000
    N13      N        0.34140    0.83450    0.57020    1.000
    N14      N        0.57900    0.12870    0.78600    1.000
    N15      N        0.73070    0.09960    0.77340    1.000
    N16      N        0.74300    0.99350    0.71420    1.000
    N17      N        0.59840    0.95400    0.68690    1.000
    H18      H        0.45983    0.47905    0.29605    1.000
    Zn19     Zn       0.04852    0.74452    0.37354    1.000
    H20      H        0.44400    0.85400    0.33300    1.000
    C21      C        0.37920    0.87270    0.28930    1.000
    C22      C        0.28170    0.01020    0.18310    1.000
    C23      C        0.28180    0.09480    0.10250    1.000
    C24      C        0.16480    0.95440    0.23380    1.000
    C25      C        0.99840    0.96190    0.23250    1.000
    N26      N        0.22680    0.86710    0.30020    1.000
    N27      N        0.41680    0.95990    0.22060    1.000
    N28      N        0.40520    0.10740    0.05250    1.000
    N29      N        0.35200    0.18960    0.98650    1.000
    N30      N        0.20650    0.22410    0.99540    1.000
    N31      N        0.15860    0.16550    0.07020    1.000
    N32      N        0.92100    0.87130    0.28600    1.000
    N33      N        0.76930    0.90040    0.27340    1.000
    N34      N        0.75700    0.00650    0.21420    1.000
    N35      N        0.90160    0.04600    0.18690    1.000
    H36      H        0.04017    0.52095    0.79605    1.000
    Zn37     Zn       0.54852    0.75548    0.62646    1.000
    H38      H        0.94400    0.64600    0.66700    1.000
    C39      C        0.87920    0.62730    0.71070    1.000
    C40      C        0.78170    0.48980    0.81690    1.000
    C41      C        0.78180    0.40520    0.89750    1.000
    C42      C        0.66480    0.54560    0.76620    1.000
    C43      C        0.49840    0.53810    0.76750    1.000
    N44      N        0.72680    0.63290    0.69980    1.000
    N45      N        0.91680    0.54010    0.77940    1.000
    N46      N        0.90520    0.39260    0.94750    1.000
    N47      N        0.85200    0.31040    0.01350    1.000
    N48      N        0.70650    0.27590    0.00460    1.000
    N49      N        0.65860    0.33450    0.92980    1.000
    N50      N        0.42100    0.62870    0.71400    1.000
    N51      N        0.26930    0.59960    0.72660    1.000
    N52      N        0.25700    0.49350    0.78580    1.000
    N53      N        0.40160    0.45400    0.81310    1.000
    H54      H        0.54017    0.97905    0.20395    1.000
    Zn55     Zn       0.95148    0.24452    0.12646    1.000
    H56      H        0.55600    0.35400    0.16700    1.000
    C57      C        0.62080    0.37270    0.21070    1.000
    C58      C        0.71830    0.51020    0.31690    1.000
    C59      C        0.71820    0.59480    0.39750    1.000
    C60      C        0.83520    0.45440    0.26620    1.000
    C61      C        0.00160    0.46190    0.26750    1.000
    N62      N        0.77320    0.36710    0.19980    1.000
    N63      N        0.58320    0.45990    0.27940    1.000
    N64      N        0.59480    0.60740    0.44750    1.000
    N65      N        0.64800    0.68960    0.51350    1.000
    N66      N        0.79350    0.72410    0.50460    1.000
    N67      N        0.84140    0.66550    0.42980    1.000
    N68      N        0.07900    0.37130    0.21400    1.000
    N69      N        0.23070    0.40040    0.22660    1.000
    N70      N        0.24300    0.50650    0.28580    1.000
    N71      N        0.09840    0.54600    0.31310    1.000
    H72      H        0.95983    0.02095    0.70395    1.000
