data_functionalizedCrystal
_audit_creation_method	'EQeq! by Chris Wilmer'
_symmetry_space_group_name_H-M	'P1'
_symmetry_Int_Tables_number	1
_symmetry_cell_setting	triclinic
loop_
_symmetry_equiv_pos_as_xyz
  x,y,z
_cell_length_a	13.045
_cell_length_b	17.192
_cell_length_c	10.3905
_cell_angle_alpha	90
_cell_angle_beta	96.914
_cell_angle_gamma	90
loop_
_atom_site_label
_atom_site_type_symbol
_atom_site_fract_x
_atom_site_fract_y
_atom_site_fract_z
_atom_site_charge
Mof_Zn	Zn	0.38067	0.83461	0.18706	1.232
Mof_Zn	Zn	0.54611	0.66803	0.3863	1.23
Mof_P 	P 	0.32315	0.72881	0.41721	0.46
Mof_O 	O 	0.3569	0.80501	0.3604	-0.45
Mof_O 	O 	0.396	0.66155	0.3918	-0.49
Mof_O 	O 	0.3201	0.7402	0.5625	-0.451
Mof_C 	C 	0.1975	0.7048	0.3423	-0.303
Mof_H 	H 	0.1991	0.7017	0.2474	0.118
Mof_H 	H 	0.1788	0.6527	0.3725	0.121
Mof_C 	C 	0.1131	0.7626	0.3694	0.013
Mof_H 	H 	0.1048	0.7613	0.4628	0.024
Mof_H 	H 	0.1345	0.8159	0.348	0.026
Mof_C 	C 	0.0103	0.7435	0.2901	-0.115
Mof_H 	H 	0.0183	0.7488	0.197	0.054
Mof_H 	H 	0.9931	0.6885	0.3059	0.056
Mof_C 	C 	0.9212	0.794	0.3197	-0.136
Mof_H 	H 	0.9367	0.849	0.3014	0.063
Mof_H 	H 	0.9133	0.7897	0.413	0.061
Mof_C 	C 	0.8198	0.7706	0.2393	0.035
Mof_H 	H 	0.8284	0.7744	0.1461	0.019
Mof_H 	H 	0.8046	0.7156	0.2581	0.012
Mof_C 	C 	0.7288	0.8205	0.2658	-0.311
Mof_H 	H 	0.7426	0.8751	0.2435	0.135
Mof_H 	H 	0.7219	0.8184	0.3596	0.119
Mof_P 	P 	0.60946	0.79007	0.17604	0.468
Mof_O 	O 	0.6249	0.78475	0.0333	-0.46
Mof_O 	O 	0.5803	0.70972	0.2241	-0.462
Mof_O 	O 	0.5281	0.85137	0.1993	-0.466
Mof_P 	P 	0.67217	0.50789	0.42641	0.531
Mof_O 	O 	0.5796	0.55763	0.3763	-0.445
Mof_O 	O 	0.6668	0.48331	0.5704	-0.447
Mof_H 	H 	0.6299	0.4434	0.5721	0.258
Mof_O 	O 	0.6815	0.43733	0.3413	-0.446
Mof_C 	C 	0.786	0.5654	0.4324	-0.502
Mof_H 	H 	0.7974	0.5791	0.3426	0.174
Mof_H 	H 	0.7746	0.6145	0.4784	0.167
Mof_C 	C 	0.8834	0.5271	0.4985	0.532
Mof_H 	H 	0.8716	0.5129	0.5879	-0.048
Mof_H 	H 	0.8951	0.4783	0.4518	-0.406
Mof_C 	C 	0.9762	0.5739	0.5051	0.317
Mof_H 	H 	0.9631	0.6234	0.5491	-0.019
Mof_H 	H 	0.9884	0.587	0.4154	-0.078
Mof_C 	C 	0.9248	0.4614	0.426	0.384
Mof_H 	H 	0.9377	0.5673	0.5144	-0.387
Mof_H 	H 	0.8689	0.5074	0.584	-0.052
Mof_H 	H 	0.9384	0.4804	0.3397	-0.09
Mof_H 	H 	0.8715	0.4203	0.4123	-0.031
Mof_Zn	Zn	0.61933	0.33461	0.31294	1.231
Mof_Zn	Zn	0.45389	0.16803	0.1137	1.228
Mof_P 	P 	0.67685	0.22881	0.08279	0.457
Mof_O 	O 	0.6431	0.30501	0.1396	-0.452
Mof_O 	O 	0.604	0.16155	0.1082	-0.491
Mof_O 	O 	0.6799	0.2402	0.9375	-0.451
Mof_C 	C 	0.8025	0.2048	0.1577	-0.3
Mof_H 	H 	0.8009	0.2017	0.2526	0.116
Mof_H 	H 	0.8212	0.1527	0.1275	0.12
Mof_C 	C 	0.8869	0.2626	0.1306	0.006
Mof_H 	H 	0.8952	0.2613	0.0372	0.026
Mof_H 	H 	0.8655	0.3159	0.152	0.027
Mof_C 	C 	0.9897	0.2435	0.2099	-0.101
Mof_H 	H 	0.9817	0.2488	0.303	0.05
Mof_H 	H 	0.0069	0.1885	0.1941	0.05
Mof_C 	C 	0.0788	0.294	0.1803	-0.146
Mof_H 	H 	0.0633	0.349	0.1986	0.065
Mof_H 	H 	0.0867	0.2897	0.087	0.063
Mof_C 	C 	0.1802	0.2706	0.2607	0.041
Mof_H 	H 	0.1716	0.2744	0.3539	0.016
Mof_H 	H 	0.1954	0.2156	0.2419	0.01
Mof_C 	C 	0.2712	0.3205	0.2342	-0.313
Mof_H 	H 	0.2574	0.3751	0.2565	0.134
Mof_H 	H 	0.2781	0.3184	0.1404	0.119
Mof_P 	P 	0.39054	0.29007	0.32396	0.468
Mof_O 	O 	0.3751	0.28475	0.4667	-0.462
Mof_O 	O 	0.4197	0.20972	0.2759	-0.462
Mof_O 	O 	0.4719	0.35137	0.3007	-0.467
Mof_P 	P 	0.32783	0.00789	0.07359	0.525
Mof_O 	O 	0.4204	0.05763	0.1237	-0.445
Mof_O 	O 	0.3332	0.98331	0.9296	-0.446
Mof_H 	H 	0.3701	0.9434	0.9279	0.257
Mof_O 	O 	0.3185	0.93733	0.1587	-0.441
Mof_C 	C 	0.214	0.0654	0.0676	-0.494
Mof_H 	H 	0.2026	0.0791	0.1574	0.171
Mof_H 	H 	0.2254	0.1145	0.0216	0.163
Mof_C 	C 	0.1166	0.0271	0.0015	0.515
Mof_H 	H 	0.1284	0.0129	0.9121	-0.044
Mof_H 	H 	0.1049	0.9783	0.0482	-0.423
Mof_C 	C 	0.0238	0.0739	0.9949	0.342
Mof_H 	H 	0.0369	0.1234	0.9509	-0.023
Mof_H 	H 	0.0116	0.087	0.0846	-0.09
Mof_C 	C 	0.0752	0.9614	0.074	0.425
Mof_H 	H 	0.0623	0.0673	0.9856	-0.396
Mof_H 	H 	0.1311	0.0074	0.916	-0.048
Mof_H 	H 	0.0616	0.9804	0.1603	-0.1
Mof_H 	H 	0.1285	0.9203	0.0877	-0.04
Mof_Zn	Zn	0.61933	0.16539	0.81294	1.231
Mof_Zn	Zn	0.45389	0.33197	0.6137	1.229
Mof_P 	P 	0.67685	0.27119	0.58279	0.459
Mof_O 	O 	0.6431	0.19499	0.6396	-0.451
Mof_O 	O 	0.604	0.33845	0.6082	-0.491
Mof_O 	O 	0.6799	0.2598	0.4375	-0.452
Mof_C 	C 	0.8025	0.2952	0.6577	-0.304
Mof_H 	H 	0.8009	0.2983	0.7526	0.117
Mof_H 	H 	0.8212	0.3473	0.6275	0.121
Mof_C 	C 	0.8869	0.2374	0.6306	0.013
Mof_H 	H 	0.8952	0.2387	0.5372	0.024
Mof_H 	H 	0.8655	0.1841	0.652	0.026
Mof_C 	C 	0.9897	0.2565	0.7099	-0.115
Mof_H 	H 	0.9817	0.2512	0.803	0.054
Mof_H 	H 	0.0069	0.3115	0.6941	0.056
Mof_C 	C 	0.0788	0.206	0.6803	-0.136
Mof_H 	H 	0.0633	0.151	0.6986	0.063
Mof_H 	H 	0.0867	0.2103	0.587	0.061
Mof_C 	C 	0.1802	0.2294	0.7607	0.035
Mof_H 	H 	0.1716	0.2256	0.8539	0.019
Mof_H 	H 	0.1954	0.2844	0.7419	0.012
Mof_C 	C 	0.2712	0.1795	0.7342	-0.311
Mof_H 	H 	0.2574	0.1249	0.7565	0.135
Mof_H 	H 	0.2781	0.1816	0.6404	0.119
Mof_P 	P 	0.39054	0.20993	0.82396	0.468
Mof_O 	O 	0.3751	0.21525	0.9667	-0.46
Mof_O 	O 	0.4197	0.29028	0.7759	-0.462
Mof_O 	O 	0.4719	0.14863	0.8007	-0.466
Mof_P 	P 	0.32783	0.49211	0.57359	0.531
Mof_O 	O 	0.4204	0.44237	0.6237	-0.445
Mof_O 	O 	0.3332	0.51669	0.4296	-0.447
Mof_H 	H 	0.3701	0.5566	0.4279	0.258
Mof_O 	O 	0.3185	0.56267	0.6587	-0.446
Mof_C 	C 	0.214	0.4346	0.5676	-0.502
Mof_H 	H 	0.2026	0.4209	0.6574	0.174
Mof_H 	H 	0.2254	0.3855	0.5216	0.167
Mof_C 	C 	0.1166	0.4729	0.5015	0.532
Mof_H 	H 	0.1284	0.4871	0.4121	-0.048
Mof_H 	H 	0.1049	0.5217	0.5482	-0.406
Mof_C 	C 	0.0238	0.4261	0.4949	0.317
Mof_H 	H 	0.0369	0.3766	0.4509	-0.019
Mof_H 	H 	0.0116	0.413	0.5846	-0.078
Mof_C 	C 	0.0752	0.5386	0.574	0.384
Mof_H 	H 	0.0623	0.4327	0.4856	-0.387
Mof_H 	H 	0.1311	0.4926	0.416	-0.052
Mof_H 	H 	0.0616	0.5196	0.6603	-0.09
Mof_H 	H 	0.1285	0.5797	0.5877	-0.031
Mof_Zn	Zn	0.38067	0.66539	0.68706	1.231
Mof_Zn	Zn	0.54611	0.83197	0.8863	1.228
Mof_P 	P 	0.32315	0.77119	0.91721	0.457
Mof_O 	O 	0.3569	0.69499	0.8604	-0.452
Mof_O 	O 	0.396	0.83845	0.8918	-0.491
Mof_O 	O 	0.3201	0.7598	0.0625	-0.451
Mof_C 	C 	0.1975	0.7952	0.8423	-0.3
Mof_H 	H 	0.1991	0.7983	0.7474	0.116
Mof_H 	H 	0.1788	0.8473	0.8725	0.12
Mof_C 	C 	0.1131	0.7374	0.8694	0.006
Mof_H 	H 	0.1048	0.7387	0.9628	0.026
Mof_H 	H 	0.1345	0.6841	0.848	0.027
Mof_C 	C 	0.0103	0.7565	0.7901	-0.101
Mof_H 	H 	0.0183	0.7512	0.697	0.05
Mof_H 	H 	0.9931	0.8115	0.8059	0.05
Mof_C 	C 	0.9212	0.706	0.8197	-0.146
Mof_H 	H 	0.9367	0.651	0.8014	0.065
Mof_H 	H 	0.9133	0.7103	0.913	0.063
Mof_C 	C 	0.8198	0.7294	0.7393	0.041
Mof_H 	H 	0.8284	0.7256	0.6461	0.016
Mof_H 	H 	0.8046	0.7844	0.7581	0.01
Mof_C 	C 	0.7288	0.6795	0.7658	-0.313
Mof_H 	H 	0.7426	0.6249	0.7435	0.134
Mof_H 	H 	0.7219	0.6816	0.8596	0.119
Mof_P 	P 	0.60946	0.70993	0.67604	0.468
Mof_O 	O 	0.6249	0.71525	0.5333	-0.462
Mof_O 	O 	0.5803	0.79028	0.7241	-0.462
Mof_O 	O 	0.5281	0.64863	0.6993	-0.467
Mof_P 	P 	0.67217	0.99211	0.92641	0.525
Mof_O 	O 	0.5796	0.94237	0.8763	-0.445
Mof_O 	O 	0.6668	0.01669	0.0704	-0.446
Mof_H 	H 	0.6299	0.0566	0.0721	0.257
Mof_O 	O 	0.6815	0.06267	0.8413	-0.441
Mof_C 	C 	0.786	0.9346	0.9324	-0.494
Mof_H 	H 	0.7974	0.9209	0.8426	0.171
Mof_H 	H 	0.7746	0.8855	0.9784	0.163
Mof_C 	C 	0.8834	0.9729	0.9985	0.515
Mof_H 	H 	0.8716	0.9871	0.0879	-0.044
Mof_H 	H 	0.8951	0.0217	0.9518	-0.423
Mof_C 	C 	0.9762	0.9261	0.0051	0.342
Mof_H 	H 	0.9631	0.8766	0.0491	-0.023
Mof_H 	H 	0.9884	0.913	0.9154	-0.09
Mof_C 	C 	0.9248	0.0386	0.926	0.425
Mof_H 	H 	0.9377	0.9327	0.0144	-0.396
Mof_H 	H 	0.8689	0.9926	0.084	-0.048
Mof_H 	H 	0.9384	0.0196	0.8397	-0.1
Mof_H 	H 	0.8715	0.0797	0.9123	-0.04
_end
