# CIF file generated by openbabel 3.1.0, see https://openbabel.org
data_I
_chemical_name_common 'image0'
_cell_length_a 18.241
_cell_length_b 18.241
_cell_length_c 18.241
_cell_angle_alpha 90
_cell_angle_beta 90
_cell_angle_gamma 90
_space_group_name_H-M_alt 'P 1'
_space_group_name_Hall 'P 1'
loop_
    _symmetry_equiv_pos_as_xyz
    x,y,z
loop_
    _atom_site_label
    _atom_site_type_symbol
    _atom_site_fract_x
    _atom_site_fract_y
    _atom_site_fract_z
    _atom_site_occupancy
    C1       C        0.28740    0.65610    0.12470    1.000
    C2       C        0.31950    0.60010    0.08890    1.000
    H1       H        0.24450    0.67710    0.10400    1.000
    H2       H        0.29820    0.58170    0.04510    1.000
    C3       C        0.21260    0.84390    0.12470    1.000
    C4       C        0.18050    0.89990    0.08890    1.000
    H3       H        0.25550    0.82290    0.10400    1.000
    H4       H        0.20180    0.91830    0.04510    1.000
    C5       C        0.21260    0.65610    0.37530    1.000
    C6       C        0.18050    0.60010    0.41110    1.000
    H5       H        0.25550    0.67710    0.39600    1.000
    H6       H        0.20180    0.58170    0.45490    1.000
    C7       C        0.28740    0.84390    0.37530    1.000
    C8       C        0.31950    0.89990    0.41110    1.000
    H7       H        0.24450    0.82290    0.39600    1.000
    H8       H        0.29820    0.91830    0.45490    1.000
    C9       C        0.12470    0.28740    0.65610    1.000
    C10      C        0.08890    0.31950    0.60010    1.000
    H9       H        0.10400    0.24450    0.67710    1.000
    H10      H        0.04510    0.29820    0.58170    1.000
    C11      C        0.12470    0.21260    0.84390    1.000
    C12      C        0.08890    0.18050    0.89990    1.000
    H11      H        0.10400    0.25550    0.82290    1.000
    H12      H        0.04510    0.20180    0.91830    1.000
    C13      C        0.37530    0.21260    0.65610    1.000
    C14      C        0.41110    0.18050    0.60010    1.000
    H13      H        0.39600    0.25550    0.67710    1.000
    H14      H        0.45490    0.20180    0.58170    1.000
    C15      C        0.37530    0.28740    0.84390    1.000
    C16      C        0.41110    0.31950    0.89990    1.000
    H15      H        0.39600    0.24450    0.82290    1.000
    H16      H        0.45490    0.29820    0.91830    1.000
    C17      C        0.65610    0.12470    0.28740    1.000
    C18      C        0.60010    0.08890    0.31950    1.000
    H17      H        0.67710    0.10400    0.24450    1.000
    H18      H        0.58170    0.04510    0.29820    1.000
    C19      C        0.84390    0.12470    0.21260    1.000
    C20      C        0.89990    0.08890    0.18050    1.000
    H19      H        0.82290    0.10400    0.25550    1.000
    H20      H        0.91830    0.04510    0.20180    1.000
    C21      C        0.65610    0.37530    0.21260    1.000
    C22      C        0.60010    0.41110    0.18050    1.000
    H21      H        0.67710    0.39600    0.25550    1.000
    H22      H        0.58170    0.45490    0.20180    1.000
    C23      C        0.84390    0.37530    0.28740    1.000
    C24      C        0.89990    0.41110    0.31950    1.000
    H23      H        0.82290    0.39600    0.24450    1.000
    H24      H        0.91830    0.45490    0.29820    1.000
    C25      C        0.84390    0.21260    0.12470    1.000
    C26      C        0.89990    0.18050    0.08890    1.000
    H25      H        0.82290    0.25550    0.10400    1.000
    H26      H        0.91830    0.20180    0.04510    1.000
    C27      C        0.65610    0.28740    0.12470    1.000
    C28      C        0.60010    0.31950    0.08890    1.000
    H27      H        0.67710    0.24450    0.10400    1.000
    H28      H        0.58170    0.29820    0.04510    1.000
    C29      C        0.84390    0.28740    0.37530    1.000
    C30      C        0.89990    0.31950    0.41110    1.000
    H29      H        0.82290    0.24450    0.39600    1.000
    H30      H        0.91830    0.29820    0.45490    1.000
    C31      C        0.65610    0.21260    0.37530    1.000
    C32      C        0.60010    0.18050    0.41110    1.000
    H31      H        0.67710    0.25550    0.39600    1.000
    H32      H        0.58170    0.20180    0.45490    1.000
    C33      C        0.21260    0.37530    0.65610    1.000
    C34      C        0.18050    0.41110    0.60010    1.000
    H33      H        0.25550    0.39600    0.67710    1.000
    H34      H        0.20180    0.45490    0.58170    1.000
    C35      C        0.28740    0.37530    0.84390    1.000
    C36      C        0.31950    0.41110    0.89990    1.000
    H35      H        0.24450    0.39600    0.82290    1.000
    H36      H        0.29820    0.45490    0.91830    1.000
    C37      C        0.28740    0.12470    0.65610    1.000
    C38      C        0.31950    0.08890    0.60010    1.000
    H37      H        0.24450    0.10400    0.67710    1.000
    H38      H        0.29820    0.04510    0.58170    1.000
    C39      C        0.21260    0.12470    0.84390    1.000
    C40      C        0.18050    0.08890    0.89990    1.000
    H39      H        0.25550    0.10400    0.82290    1.000
    H40      H        0.20180    0.04510    0.91830    1.000
    C41      C        0.37530    0.84390    0.28740    1.000
    C42      C        0.41110    0.89990    0.31950    1.000
    H41      H        0.39600    0.82290    0.24450    1.000
    H42      H        0.45490    0.91830    0.29820    1.000
    C43      C        0.37530    0.65610    0.21260    1.000
    C44      C        0.41110    0.60010    0.18050    1.000
    H43      H        0.39600    0.67710    0.25550    1.000
    H44      H        0.45490    0.58170    0.20180    1.000
    C45      C        0.12470    0.84390    0.21260    1.000
    C46      C        0.08890    0.89990    0.18050    1.000
    H45      H        0.10400    0.82290    0.25550    1.000
    H46      H        0.04510    0.91830    0.20180    1.000
    C47      C        0.12470    0.65610    0.28740    1.000
    C48      C        0.08890    0.60010    0.31950    1.000
    H47      H        0.10400    0.67710    0.24450    1.000
    H48      H        0.04510    0.58170    0.29820    1.000
    C49      C        0.38400    0.56890    0.11600    1.000
    N1       N        0.31250    0.68390    0.18750    1.000
    C50      C        0.41880    0.50530    0.08120    1.000
    C51      C        0.11600    0.93110    0.11600    1.000
    N2       N        0.18750    0.81610    0.18750    1.000
    C52      C        0.08120    0.99470    0.08120    1.000
    C53      C        0.11600    0.56890    0.38400    1.000
    N3       N        0.18750    0.68390    0.31250    1.000
    C54      C        0.08120    0.50530    0.41880    1.000
    C55      C        0.38400    0.93110    0.38400    1.000
    N4       N        0.31250    0.81610    0.31250    1.000
    C56      C        0.41880    0.99470    0.41880    1.000
    C57      C        0.11600    0.38400    0.56890    1.000
    N5       N        0.18750    0.31250    0.68390    1.000
    C58      C        0.08120    0.41880    0.50530    1.000
    C59      C        0.11600    0.11600    0.93110    1.000
    N6       N        0.18750    0.18750    0.81610    1.000
    C60      C        0.08120    0.08120    0.99470    1.000
    C61      C        0.38400    0.11600    0.56890    1.000
    N7       N        0.31250    0.18750    0.68390    1.000
    C62      C        0.41880    0.08120    0.50530    1.000
    C63      C        0.38400    0.38400    0.93110    1.000
    N8       N        0.31250    0.31250    0.81610    1.000
    C64      C        0.41880    0.41880    0.99470    1.000
    C65      C        0.56890    0.11600    0.38400    1.000
    N9       N        0.68390    0.18750    0.31250    1.000
    C66      C        0.50530    0.08120    0.41880    1.000
    C67      C        0.93110    0.11600    0.11600    1.000
    N10      N        0.81610    0.18750    0.18750    1.000
    C68      C        0.99470    0.08120    0.08120    1.000
    C69      C        0.56890    0.38400    0.11600    1.000
    N11      N        0.68390    0.31250    0.18750    1.000
    C70      C        0.50530    0.41880    0.08120    1.000
    C71      C        0.93110    0.38400    0.38400    1.000
    N12      N        0.81610    0.31250    0.31250    1.000
    C72      C        0.99470    0.41880    0.41880    1.000
    N13      N        0.38740    0.47890    0.02110    1.000
    N14      N        0.11260    0.02110    0.02110    1.000
    N15      N        0.11260    0.47890    0.47890    1.000
    N16      N        0.38740    0.02110    0.47890    1.000
    N17      N        0.02110    0.38740    0.47890    1.000
    N18      N        0.02110    0.11260    0.02110    1.000
    N19      N        0.47890    0.11260    0.47890    1.000
    N20      N        0.47890    0.38740    0.02110    1.000
    N21      N        0.47890    0.02110    0.38740    1.000
    N22      N        0.02110    0.02110    0.11260    1.000
    N23      N        0.47890    0.47890    0.11260    1.000
    N24      N        0.02110    0.47890    0.38740    1.000
    Cu1      Cu       0.25000    0.75000    0.25000    1.000
    Cu2      Cu       0.25000    0.25000    0.75000    1.000
    Cu3      Cu       0.75000    0.25000    0.25000    1.000
    C73      C        0.15610    0.78740    0.87530    1.000
    C74      C        0.10010    0.81950    0.91110    1.000
    H49      H        0.17710    0.74450    0.89600    1.000
    H50      H        0.08170    0.79820    0.95490    1.000
    C75      C        0.34390    0.71260    0.87530    1.000
    C76      C        0.39990    0.68050    0.91110    1.000
    H51      H        0.32290    0.75550    0.89600    1.000
    H52      H        0.41830    0.70180    0.95490    1.000
    C77      C        0.15610    0.71260    0.62470    1.000
    C78      C        0.10010    0.68050    0.58890    1.000
    H53      H        0.17710    0.75550    0.60400    1.000
    H54      H        0.08170    0.70180    0.54510    1.000
    C79      C        0.34390    0.78740    0.62470    1.000
    C80      C        0.39990    0.81950    0.58890    1.000
    H55      H        0.32290    0.74450    0.60400    1.000
    H56      H        0.41830    0.79820    0.54510    1.000
    C81      C        0.78740    0.62470    0.34390    1.000
    C82      C        0.81950    0.58890    0.39990    1.000
    H57      H        0.74450    0.60400    0.32290    1.000
    H58      H        0.79820    0.54510    0.41830    1.000
    C83      C        0.71260    0.62470    0.15610    1.000
    C84      C        0.68050    0.58890    0.10010    1.000
    H59      H        0.75550    0.60400    0.17710    1.000
    H60      H        0.70180    0.54510    0.08170    1.000
    C85      C        0.71260    0.87530    0.34390    1.000
    C86      C        0.68050    0.91110    0.39990    1.000
    H61      H        0.75550    0.89600    0.32290    1.000
    H62      H        0.70180    0.95490    0.41830    1.000
    C87      C        0.78740    0.87530    0.15610    1.000
    C88      C        0.81950    0.91110    0.10010    1.000
    H63      H        0.74450    0.89600    0.17710    1.000
    H64      H        0.79820    0.95490    0.08170    1.000
    C89      C        0.62470    0.15610    0.71260    1.000
    C90      C        0.58890    0.10010    0.68050    1.000
    H65      H        0.60400    0.17710    0.75550    1.000
    H66      H        0.54510    0.08170    0.70180    1.000
    C91      C        0.62470    0.34390    0.78740    1.000
    C92      C        0.58890    0.39990    0.81950    1.000
    H67      H        0.60400    0.32290    0.74450    1.000
    H68      H        0.54510    0.41830    0.79820    1.000
    C93      C        0.87530    0.15610    0.78740    1.000
    C94      C        0.91110    0.10010    0.81950    1.000
    H69      H        0.89600    0.17710    0.74450    1.000
    H70      H        0.95490    0.08170    0.79820    1.000
    C95      C        0.87530    0.34390    0.71260    1.000
    C96      C        0.91110    0.39990    0.68050    1.000
    H71      H        0.89600    0.32290    0.75550    1.000
    H72      H        0.95490    0.41830    0.70180    1.000
    C97      C        0.71260    0.34390    0.87530    1.000
    C98      C        0.68050    0.39990    0.91110    1.000
    H73      H        0.75550    0.32290    0.89600    1.000
    H74      H        0.70180    0.41830    0.95490    1.000
    C99      C        0.78740    0.15610    0.87530    1.000
    C100     C        0.81950    0.10010    0.91110    1.000
    H75      H        0.74450    0.17710    0.89600    1.000
    H76      H        0.79820    0.08170    0.95490    1.000
    C101     C        0.78740    0.34390    0.62470    1.000
    C102     C        0.81950    0.39990    0.58890    1.000
    H77      H        0.74450    0.32290    0.60400    1.000
    H78      H        0.79820    0.41830    0.54510    1.000
    C103     C        0.71260    0.15610    0.62470    1.000
    C104     C        0.68050    0.10010    0.58890    1.000
    H79      H        0.75550    0.17710    0.60400    1.000
    H80      H        0.70180    0.08170    0.54510    1.000
    C105     C        0.87530    0.71260    0.34390    1.000
    C106     C        0.91110    0.68050    0.39990    1.000
    H81      H        0.89600    0.75550    0.32290    1.000
    H82      H        0.95490    0.70180    0.41830    1.000
    C107     C        0.87530    0.78740    0.15610    1.000
    C108     C        0.91110    0.81950    0.10010    1.000
    H83      H        0.89600    0.74450    0.17710    1.000
    H84      H        0.95490    0.79820    0.08170    1.000
    C109     C        0.62470    0.78740    0.34390    1.000
    C110     C        0.58890    0.81950    0.39990    1.000
    H85      H        0.60400    0.74450    0.32290    1.000
    H86      H        0.54510    0.79820    0.41830    1.000
    C111     C        0.62470    0.71260    0.15610    1.000
    C112     C        0.58890    0.68050    0.10010    1.000
    H87      H        0.60400    0.75550    0.17710    1.000
    H88      H        0.54510    0.70180    0.08170    1.000
    C113     C        0.34390    0.87530    0.71260    1.000
    C114     C        0.39990    0.91110    0.68050    1.000
    H89      H        0.32290    0.89600    0.75550    1.000
    H90      H        0.41830    0.95490    0.70180    1.000
    C115     C        0.15610    0.87530    0.78740    1.000
    C116     C        0.10010    0.91110    0.81950    1.000
    H91      H        0.17710    0.89600    0.74450    1.000
    H92      H        0.08170    0.95490    0.79820    1.000
    C117     C        0.34390    0.62470    0.78740    1.000
    C118     C        0.39990    0.58890    0.81950    1.000
    H93      H        0.32290    0.60400    0.74450    1.000
    H94      H        0.41830    0.54510    0.79820    1.000
    C119     C        0.15610    0.62470    0.71260    1.000
    C120     C        0.10010    0.58890    0.68050    1.000
    H95      H        0.17710    0.60400    0.75550    1.000
    H96      H        0.08170    0.54510    0.70180    1.000
    C121     C        0.06890    0.88400    0.88400    1.000
    N25      N        0.18390    0.81250    0.81250    1.000
    C122     C        0.00530    0.91880    0.91880    1.000
    C123     C        0.43110    0.61600    0.88400    1.000
    N26      N        0.31610    0.68750    0.81250    1.000
    C124     C        0.49470    0.58120    0.91880    1.000
    C125     C        0.06890    0.61600    0.61600    1.000
    N27      N        0.18390    0.68750    0.68750    1.000
    C126     C        0.00530    0.58120    0.58120    1.000
    C127     C        0.43110    0.88400    0.61600    1.000
    N28      N        0.31610    0.81250    0.68750    1.000
    C128     C        0.49470    0.91880    0.58120    1.000
    C129     C        0.88400    0.61600    0.43110    1.000
    N29      N        0.81250    0.68750    0.31610    1.000
    C130     C        0.91880    0.58120    0.49470    1.000
    C131     C        0.61600    0.61600    0.06890    1.000
    N30      N        0.68750    0.68750    0.18390    1.000
    C132     C        0.58120    0.58120    0.00530    1.000
    C133     C        0.61600    0.88400    0.43110    1.000
    N31      N        0.68750    0.81250    0.31610    1.000
    C134     C        0.58120    0.91880    0.49470    1.000
    C135     C        0.88400    0.88400    0.06890    1.000
    N32      N        0.81250    0.81250    0.18390    1.000
    C136     C        0.91880    0.91880    0.00530    1.000
    C137     C        0.61600    0.06890    0.61600    1.000
    N33      N        0.68750    0.18390    0.68750    1.000
    C138     C        0.58120    0.00530    0.58120    1.000
    C139     C        0.61600    0.43110    0.88400    1.000
    N34      N        0.68750    0.31610    0.81250    1.000
    C140     C        0.58120    0.49470    0.91880    1.000
    C141     C        0.88400    0.06890    0.88400    1.000
    N35      N        0.81250    0.18390    0.81250    1.000
    C142     C        0.91880    0.00530    0.91880    1.000
    C143     C        0.88400    0.43110    0.61600    1.000
    N36      N        0.81250    0.31610    0.68750    1.000
    C144     C        0.91880    0.49470    0.58120    1.000
    N37      N        0.97890    0.88740    0.97890    1.000
    N38      N        0.52110    0.61260    0.97890    1.000
    N39      N        0.97890    0.61260    0.52110    1.000
    N40      N        0.52110    0.88740    0.52110    1.000
    N41      N        0.88740    0.52110    0.52110    1.000
    N42      N        0.61260    0.52110    0.97890    1.000
    N43      N        0.61260    0.97890    0.52110    1.000
    N44      N        0.88740    0.97890    0.97890    1.000
    N45      N        0.52110    0.97890    0.61260    1.000
    N46      N        0.52110    0.52110    0.88740    1.000
    N47      N        0.97890    0.97890    0.88740    1.000
    N48      N        0.97890    0.52110    0.61260    1.000
    Cu4      Cu       0.25000    0.75000    0.75000    1.000
    Cu5      Cu       0.75000    0.75000    0.25000    1.000
    Cu6      Cu       0.75000    0.25000    0.75000    1.000
