# CIF file generated by openbabel 3.1.0, see https://openbabel.org
data_I
_chemical_name_common 'PEVLEJ_clean'
_cell_length_a 6.6627
_cell_length_b 9.674
_cell_length_c 10.7118
_cell_angle_alpha 116.844
_cell_angle_beta 104.874
_cell_angle_gamma 90
_space_group_name_H-M_alt 'P 1'
_space_group_name_Hall 'P 1'
loop_
    _symmetry_equiv_pos_as_xyz
    x,y,z
loop_
    _atom_site_label
    _atom_site_type_symbol
    _atom_site_fract_x
    _atom_site_fract_y
    _atom_site_fract_z
    _atom_site_occupancy
    Pr1      Pr       0.97560    0.29116    0.10326    1.000
    Pr2      Pr       0.47560    0.81210    0.10326    1.000
    H1       H        0.96320    0.52250    0.71700    1.000
    H2       H        0.78420    0.34670    0.48800    1.000
    H3       H        0.88820    0.00730    0.59380    1.000
    H4       H        0.02340    0.94970    0.76140    1.000
    H5       H        0.23590    0.02310    0.76340    1.000
    H6       H        0.46320    0.19450    0.71700    1.000
    H7       H        0.28420    0.14130    0.48800    1.000
    H8       H        0.38820    0.58650    0.59380    1.000
    H9       H        0.52340    0.81170    0.76140    1.000
    H10      H        0.73590    0.74030    0.76340    1.000
    C1       C        0.99510    0.22010    0.75900    1.000
    C2       C        0.01530    0.37270    0.79740    1.000
    C3       C        0.94230    0.41730    0.69280    1.000
    C4       C        0.84200    0.31420    0.55740    1.000
    C5       C        0.82480    0.16250    0.52180    1.000
    C6       C        0.90050    0.11330    0.62040    1.000
    C7       C        0.13940    0.03350    0.82020    1.000
    C8       C        0.24700    0.02620    0.95560    1.000
    C9       C        0.12310    0.49460    0.94480    1.000
    C10      C        0.71930    0.04370    0.37380    1.000
    C11      C        0.49510    0.53890    0.75900    1.000
    C12      C        0.51530    0.42470    0.79740    1.000
    C13      C        0.44230    0.27550    0.69280    1.000
    C14      C        0.34200    0.24320    0.55740    1.000
    C15      C        0.32480    0.35930    0.52180    1.000
    C16      C        0.40050    0.50710    0.62040    1.000
    C17      C        0.63940    0.78670    0.82020    1.000
    C18      C        0.74700    0.92940    0.95560    1.000
    C19      C        0.62310    0.45020    0.94480    1.000
    C20      C        0.21930    0.33010    0.37380    1.000
    O1       O        0.06610    0.17880    0.86200    1.000
    O2       O        0.31790    0.90930    0.94060    1.000
    O3       O        0.26030    0.14350    0.06840    1.000
    O4       O        0.13460    0.46520    0.04660    1.000
    O5       O        0.19430    0.61470    0.95840    1.000
    O6       O        0.58300    0.08220    0.29820    1.000
    O7       O        0.75730    0.91330    0.33160    1.000
    O8       O        0.56610    0.68320    0.86200    1.000
    O9       O        0.81790    0.03130    0.94060    1.000
    O10      O        0.76030    0.92490    0.06840    1.000
    O11      O        0.63460    0.58140    0.04660    1.000
    O12      O        0.69430    0.34370    0.95840    1.000
    O13      O        0.08300    0.21600    0.29820    1.000
    O14      O        0.25730    0.41830    0.33160    1.000
