# CIF file generated by openbabel 3.1.0, see https://openbabel.org
data_I
_chemical_name_common 'image0'
_cell_length_a 11.8894
_cell_length_b 5.2299
_cell_length_c 17.4663
_cell_angle_alpha 90
_cell_angle_beta 97.279
_cell_angle_gamma 90
_space_group_name_H-M_alt 'P 1'
_space_group_name_Hall 'P 1'
loop_
    _symmetry_equiv_pos_as_xyz
    x,y,z
loop_
    _atom_site_label
    _atom_site_type_symbol
    _atom_site_fract_x
    _atom_site_fract_y
    _atom_site_fract_z
    _atom_site_occupancy
    Na1      Na       0.58991    0.89880    0.03331    1.000
    Na2      Na       0.32142    0.93200    0.09161    1.000
    Na3      Na       0.10692    0.36480    0.95889    1.000
    Na4      Na       0.14741    0.97240    0.24034    1.000
    O1       O        0.46920    0.62090    0.09643    1.000
    O2       O        0.25130    0.67750    0.96075    1.000
    O3       O        0.26390    0.09950    0.96916    1.000
    O4       O        0.20750    0.66260    0.16074    1.000
    O5       O        0.48980    0.20010    0.09105    1.000
    O6       O        0.33060    0.93840    0.33557    1.000
    O7       O        0.02190    0.50010    0.06690    1.000
    H1       H        0.01540    0.36380    0.09250    1.000
    H2       H        0.08530    0.54500    0.09120    1.000
    O8       O        0.25190    0.24730    0.17204    1.000
    O9       O        0.03330    0.55210    0.84599    1.000
    O10      O        0.27310    0.30010    0.70152    1.000
    O11      O        0.01160    0.71070    0.72686    1.000
    N1       N        0.36890    0.51800    0.31861    1.000
    H3       H        0.37750    0.36560    0.33990    1.000
    N2       N        0.24050    0.72210    0.71953    1.000
    H4       H        0.24560    0.87760    0.70110    1.000
    C1       C        0.48110    0.40390    0.12739    1.000
    C2       C        0.27080    0.47750    0.18570    1.000
    C3       C        0.24830    0.89460    0.93110    1.000
    C4       C        0.26910    0.52350    0.67770    1.000
    C5       C        0.48020    0.38840    0.21520    1.000
    H5       H        0.47100    0.20840    0.23090    1.000
    H6       H        0.55280    0.45330    0.24220    1.000
    C6       C        0.34370    0.71780    0.36150    1.000
    C7       C        0.38210    0.54920    0.23700    1.000
    H7       H        0.39910    0.73300    0.22770    1.000
    C8       C        0.20120    0.68920    0.79500    1.000
    H8       H        0.24080    0.53930    0.82190    1.000
    C9       C        0.22840    0.92930    0.84370    1.000
    H9       H        0.29700    0.00910    0.82730    1.000
    H10      H        0.16510    0.05150    0.83150    1.000
    C10      C        0.33270    0.66510    0.44480    1.000
    C11      C        0.38260    0.45860    0.48610    1.000
    H11      H        0.42960    0.34400    0.46240    1.000
    C12      C        0.36360    0.41960    0.56210    1.000
    H12      H        0.39820    0.27820    0.59000    1.000
    C13      C        0.29500    0.58340    0.59790    1.000
    C14      C        0.24780    0.79740    0.55750    1.000
    H13      H        0.20280    0.91470    0.58190    1.000
    C15      C        0.26710    0.83780    0.48150    1.000
    H14      H        0.23540    0.98350    0.45420    1.000
    C16      C        0.07190    0.64510    0.78720    1.000
    C17      C        0.26950    0.45300    0.46350    1.000
    H15      H        0.23940    0.33700    0.42430    1.000
    C18      C        0.25100    0.41300    0.54000    1.000
    H16      H        0.20790    0.26880    0.55280    1.000
    C19      C        0.35800    0.79400    0.57930    1.000
    H17      H        0.38780    0.91040    0.61850    1.000
    C20      C        0.37700    0.83400    0.50280    1.000
    H18      H        0.41960    0.97780    0.49020    1.000
    Na5      Na       0.41009    0.39880    0.96669    1.000
    Na6      Na       0.67858    0.43200    0.90839    1.000
    Na7      Na       0.89308    0.86480    0.04111    1.000
    Na8      Na       0.85259    0.47240    0.75966    1.000
    O12      O        0.53080    0.12090    0.90357    1.000
    O13      O        0.74870    0.17750    0.03925    1.000
    O14      O        0.73610    0.59950    0.03084    1.000
    O15      O        0.79250    0.16260    0.83926    1.000
    O16      O        0.51020    0.70010    0.90895    1.000
    O17      O        0.66940    0.43840    0.66443    1.000
    O18      O        0.97810    0.00010    0.93310    1.000
    H19      H        0.98460    0.86380    0.90750    1.000
    H20      H        0.91470    0.04500    0.90880    1.000
    O19      O        0.74810    0.74730    0.82796    1.000
    O20      O        0.96670    0.05210    0.15401    1.000
    O21      O        0.72690    0.80010    0.29848    1.000
    O22      O        0.98840    0.21070    0.27314    1.000
    N3       N        0.63110    0.01800    0.68139    1.000
    H21      H        0.62250    0.86560    0.66010    1.000
    N4       N        0.75950    0.22210    0.28047    1.000
    H22      H        0.75440    0.37760    0.29890    1.000
    C21      C        0.51890    0.90390    0.87261    1.000
    C22      C        0.72920    0.97750    0.81430    1.000
    C23      C        0.75170    0.39460    0.06890    1.000
    C24      C        0.73090    0.02350    0.32230    1.000
    C25      C        0.51980    0.88840    0.78480    1.000
    H23      H        0.52900    0.70840    0.76910    1.000
    H24      H        0.44720    0.95330    0.75780    1.000
    C26      C        0.65630    0.21780    0.63850    1.000
    C27      C        0.61790    0.04920    0.76300    1.000
    H25      H        0.60090    0.23300    0.77230    1.000
    C28      C        0.79880    0.18920    0.20500    1.000
    H26      H        0.75920    0.03930    0.17810    1.000
    C29      C        0.77160    0.42930    0.15630    1.000
    H27      H        0.70300    0.50910    0.17270    1.000
    H28      H        0.83490    0.55150    0.16850    1.000
    C30      C        0.66730    0.16510    0.55520    1.000
    C31      C        0.61740    0.95860    0.51390    1.000
    H29      H        0.57040    0.84400    0.53760    1.000
    C32      C        0.63640    0.91960    0.43790    1.000
    H30      H        0.60180    0.77820    0.41000    1.000
    C33      C        0.70500    0.08340    0.40210    1.000
    C34      C        0.75220    0.29740    0.44250    1.000
    H31      H        0.79720    0.41470    0.41810    1.000
    C35      C        0.73290    0.33780    0.51850    1.000
    H32      H        0.76460    0.48350    0.54580    1.000
    C36      C        0.92810    0.14510    0.21280    1.000
    C37      C        0.73050    0.95300    0.53650    1.000
    H33      H        0.76060    0.83700    0.57570    1.000
    C38      C        0.74900    0.91300    0.46000    1.000
    H34      H        0.79210    0.76880    0.44720    1.000
    C39      C        0.64200    0.29400    0.42070    1.000
    H35      H        0.61220    0.41040    0.38150    1.000
    C40      C        0.62300    0.33400    0.49720    1.000
    H36      H        0.58040    0.47780    0.50980    1.000
