# CIF file generated by openbabel 3.1.0, see https://openbabel.org
data_I
_chemical_name_common 'QERZUI_clean'
_cell_length_a 5.0328
_cell_length_b 11.176
_cell_length_c 12.6797
_cell_angle_alpha 91.8477
_cell_angle_beta 101.447
_cell_angle_gamma 80.6499
_space_group_name_H-M_alt 'P 1'
_space_group_name_Hall 'P 1'
loop_
    _symmetry_equiv_pos_as_xyz
    x,y,z
loop_
    _atom_site_label
    _atom_site_type_symbol
    _atom_site_fract_x
    _atom_site_fract_y
    _atom_site_fract_z
    _atom_site_occupancy
    Cu1      Cu       0.39944    0.19775    0.22700    1.000
    Cu2      Cu       0.17244    0.69775    0.77300    1.000
    H1       H        0.58490    0.58990    0.45540    1.000
    H2       H        0.17050    0.41060    0.87300    1.000
    H3       H        0.40840    0.27300    0.00260    1.000
    H4       H        0.63380    0.51440    0.06680    1.000
    H5       H        0.89410    0.37750    0.19260    1.000
    H6       H        0.09660    0.35730    0.51100    1.000
    H7       H        0.03430    0.46730    0.66460    1.000
    H8       H        0.50630    0.69270    0.60900    1.000
    H9       H        0.12950    0.08990    0.54460    1.000
    H10      H        0.29750    0.91060    0.12700    1.000
    H11      H        0.40580    0.77300    0.99740    1.000
    H12      H        0.56700    0.01440    0.93320    1.000
    H13      H        0.70150    0.87750    0.80740    1.000
    H14      H        0.58560    0.85730    0.48900    1.000
    H15      H        0.36970    0.96730    0.33540    1.000
    H16      H        0.89730    0.19270    0.39100    1.000
    C1       C        0.34667    0.46160    0.46454    1.000
    C2       C        0.40057    0.39150    0.36494    1.000
    C3       C        0.47090    0.56360    0.49620    1.000
    C4       C        0.10830    0.40510    0.93680    1.000
    C5       C        0.25185    0.32320    0.01570    1.000
    C6       C        0.79173    0.46680    0.05206    1.000
    C7       C        0.87069    0.47890    0.95378    1.000
    C8       C        0.70780    0.56760    0.86900    1.000
    C9       C        0.94889    0.38390    0.12738    1.000
    C10      C        0.18126    0.42520    0.52892    1.000
    C11      C        0.14403    0.49230    0.62126    1.000
    C12      C        0.42262    0.62500    0.58844    1.000
    C13      C        0.88213    0.96160    0.53546    1.000
    C14      C        0.03563    0.89150    0.63506    1.000
    C15      C        0.97470    0.06360    0.50380    1.000
    C16      C        0.17150    0.90510    0.06320    1.000
    C17      C        0.23615    0.82320    0.98430    1.000
    C18      C        0.73967    0.96680    0.94794    1.000
    C19      C        0.91691    0.97890    0.04622    1.000
    C20      C        0.83880    0.06760    0.13100    1.000
    C21      C        0.82151    0.88390    0.87262    1.000
    C22      C        0.65234    0.92520    0.47108    1.000
    C23      C        0.52277    0.99230    0.37874    1.000
    C24      C        0.83418    0.12500    0.41156    1.000
    N1       N        0.17558    0.31290    0.10996    1.000
    N2       N        0.25922    0.59050    0.64964    1.000
    N3       N        0.06562    0.81290    0.89004    1.000
    N4       N        0.60958    0.09050    0.35036    1.000
    O1       O        0.26903    0.30300    0.34086    1.000
    O2       O        0.81706    0.59750    0.79712    1.000
    O3       O        0.56588    0.42010    0.31536    1.000
    O4       O        0.46036    0.60420    0.87852    1.000
    O5       O        0.92817    0.80300    0.65914    1.000
    O6       O        0.01994    0.09750    0.20288    1.000
    O7       O        0.25052    0.92010    0.68464    1.000
    O8       O        0.58184    0.10420    0.12148    1.000
