data_functionalizedCrystal
_audit_creation_method	'EQeq! by Chris Wilmer'
_symmetry_space_group_name_H-M	'P1'
_symmetry_Int_Tables_number	1
_symmetry_cell_setting	triclinic
loop_
_symmetry_equiv_pos_as_xyz
  x,y,z
_cell_length_a	15.258
_cell_length_b	21.333
_cell_length_c	29.267
_cell_angle_alpha	90
_cell_angle_beta	90
_cell_angle_gamma	90
loop_
_atom_site_label
_atom_site_type_symbol
_atom_site_fract_x
_atom_site_fract_y
_atom_site_fract_z
_atom_site_charge
Mof_Mn	Mn	0.36145	0.27305	0.23334	1.016
Mof_Mn	Mn	0.12909	0.27696	0.17966	0.993
Mof_Mn	Mn	0.17252	0.50936	0.15734	0.8
Mof_Mn	Mn	0.33289	0.50327	0.25526	0.805
Mof_C 	C 	0.1944	0.2009	0.2655	0.389
Mof_C 	C 	0.1696	0.1482	0.2981	-0.053
Mof_C 	C 	0.2349	0.1214	0.3247	-0.059
Mof_H 	H 	0.2922	0.1363	0.3238	0.062
Mof_C 	C 	0.2119	0.0721	0.3524	0.037
Mof_H 	H 	0.2551	0.0532	0.37	0.017
Mof_C 	C 	0.0663	0.0763	0.3287	0.029
Mof_H 	H 	0.0093	0.061	0.3302	0.013
Mof_C 	C 	0.0863	0.1242	0.3005	-0.055
Mof_H 	H 	0.0426	0.1414	0.2823	0.069
Mof_C 	C 	0.1099	0.9982	0.3873	-0.033
Mof_H 	H 	0.0648	0.9716	0.3741	0.034
Mof_H 	H 	0.1615	0.9727	0.3927	0.038
Mof_C 	C 	0.0789	0.0249	0.4302	-0.121
Mof_H 	H 	0.0214	0.0433	0.4257	0.065
Mof_H 	H 	0.1186	0.0578	0.44	0.067
Mof_C 	C 	0.0738	0.9732	0.4676	-0.095
Mof_H 	H 	0.0359	0.9394	0.4577	0.056
Mof_H 	H 	0.1316	0.9563	0.4736	0.06
Mof_C 	C 	0.0365	0.0045	0.5108	-0.064
Mof_H 	H 	0.0734	0.0394	0.5197	0.051
Mof_H 	H 	0.9781	0.0204	0.5047	0.05
Mof_C 	C 	0.0994	0.9523	0.5795	0.022
Mof_H 	H 	0.1485	0.9778	0.5769	0.041
Mof_C 	C 	0.0936	0.91	0.614	-0.04
Mof_H 	H 	0.137	0.909	0.6363	0.055
Mof_C 	C 	0.0259	0.8696	0.6163	-0.057
Mof_C 	C 	0.9611	0.8731	0.5835	-0.055
Mof_H 	H 	0.914	0.8454	0.5839	0.061
Mof_C 	C 	0.9677	0.9184	0.5502	0.038
Mof_H 	H 	0.9242	0.9214	0.5281	0.016
Mof_C 	C 	0.0177	0.8206	0.6544	0.384
Mof_C 	C 	0.2936	0.2025	0.1447	0.386
Mof_C 	C 	0.3282	0.1588	0.1072	-0.041
Mof_C 	C 	0.4053	0.1284	0.1135	-0.074
Mof_H 	H 	0.4398	0.136	0.1391	0.079
Mof_C 	C 	0.431	0.0859	0.0805	0.064
Mof_H 	H 	0.4808	0.0618	0.0859	0.005
Mof_C 	C 	0.3175	0.1098	0.0354	0.041
Mof_H 	H 	0.287	0.1044	0.0082	0.013
Mof_C 	C 	0.2879	0.1509	0.0677	-0.062
Mof_H 	H 	0.2377	0.1742	0.0616	0.059
Mof_C 	C 	0.4219	0.0298	0.0096	-0.027
Mof_H 	H 	0.475	0.0102	0.0209	0.035
Mof_H 	H 	0.3779	0.9974	0.0055	0.036
Mof_C 	C 	0.4389	0.0604	0.967	-0.123
Mof_H 	H 	0.4859	0.0905	0.9711	0.07
Mof_H 	H 	0.3869	0.0831	0.9575	0.065
Mof_C 	C 	0.4652	0.0122	0.9291	-0.1
Mof_H 	H 	0.4818	0.035	0.9017	0.061
Mof_H 	H 	0.516	0.9888	0.9393	0.058
Mof_C 	C 	0.3986	0.9705	0.9183	-0.048
Mof_H 	H 	0.3449	0.9935	0.9129	0.047
Mof_H 	H 	0.3889	0.9425	0.9439	0.046
Mof_C 	C 	0.4732	0.8831	0.8786	0.034
Mof_H 	H 	0.4965	0.8727	0.907	0.018
Mof_C 	C 	0.4947	0.8472	0.8418	-0.049
Mof_H 	H 	0.5304	0.8122	0.8455	0.059
Mof_C 	C 	0.4634	0.8629	0.7992	-0.066
Mof_C 	C 	0.4103	0.9152	0.796	-0.028
Mof_H 	H 	0.3886	0.927	0.7676	0.05
Mof_C 	C 	0.3886	0.9505	0.8343	0.014
Mof_H 	H 	0.3531	0.9858	0.8319	0.045
Mof_C 	C 	0.4882	0.8245	0.758	0.375
Mof_C 	C 	0.1569	0.3858	0.0996	0.368
Mof_C 	C 	0.1597	0.3597	0.0509	-0.054
Mof_C 	C 	0.1446	0.2974	0.043	-0.053
Mof_H 	H 	0.1299	0.2707	0.0669	0.064
Mof_C 	C 	0.1517	0.275	0.9987	0.029
Mof_H 	H 	0.1416	0.2327	0.993	0.019
Mof_C 	C 	0.185	0.3741	0.9705	0.025
Mof_H 	H 	0.1957	0.4004	0.9458	0.018
Mof_C 	C 	0.1816	0.3982	0.0142	-0.053
Mof_H 	H 	0.194	0.4404	0.0191	0.053
Mof_C 	C 	0.1834	0.2854	0.9184	-0.045
Mof_H 	H 	0.2185	0.2476	0.9206	0.042
Mof_H 	H 	0.2141	0.3148	0.8988	0.042
Mof_C 	C 	0.0947	0.2695	0.8973	-0.113
Mof_H 	H 	0.0617	0.3077	0.8924	0.068
Mof_H 	H 	0.0617	0.2432	0.9182	0.063
Mof_C 	C 	0.1064	0.2351	0.8515	-0.097
Mof_H 	H 	0.1337	0.2635	0.8299	0.06
Mof_H 	H 	0.1459	0.2	0.856	0.05
Mof_C 	C 	0.0222	0.2111	0.8313	-0.053
Mof_H 	H 	0.0351	0.1805	0.8078	0.039
Mof_H 	H 	0.9879	0.1906	0.8549	0.042
Mof_C 	C 	0.9922	0.2821	0.7695	0.029
Mof_H 	H 	0.0372	0.2618	0.754	0.021
Mof_C 	C 	0.9485	0.3313	0.7487	-0.055
Mof_H 	H 	0.9636	0.3441	0.7194	0.055
Mof_C 	C 	0.8817	0.3614	0.7724	-0.054
Mof_C 	C 	0.86	0.3403	0.8168	-0.059
Mof_H 	H 	0.8155	0.3593	0.8335	0.053
Mof_C 	C 	0.9068	0.291	0.8344	0.031
Mof_H 	H 	0.8932	0.2763	0.8635	0.017
Mof_C 	C 	0.8329	0.4155	0.7502	0.358
Mof_C 	C 	0.3362	0.3794	0.3143	0.374
Mof_C 	C 	0.3218	0.3537	0.3616	-0.06
Mof_C 	C 	0.3097	0.2915	0.3696	-0.048
Mof_H 	H 	0.3104	0.2636	0.3452	0.065
Mof_C 	C 	0.2966	0.2693	0.4125	0.026
Mof_H 	H 	0.2889	0.2266	0.4174	0.023
Mof_C 	C 	0.3068	0.3705	0.4408	0.031
Mof_H 	H 	0.3058	0.3975	0.4657	0.018
Mof_C 	C 	0.3204	0.395	0.3988	-0.051
Mof_H 	H 	0.3286	0.4379	0.3947	0.05
Mof_C 	C 	0.2788	0.2852	0.4964	-0.057
Mof_H 	H 	0.2459	0.3158	0.5139	0.046
Mof_H 	H 	0.2448	0.2468	0.495	0.045
Mof_C 	C 	0.3661	0.2724	0.5198	-0.102
Mof_H 	H 	0.4	0.2428	0.5019	0.06
Mof_H 	H 	0.3994	0.311	0.5223	0.065
Mof_C 	C 	0.3485	0.2461	0.5665	-0.099
Mof_H 	H 	0.3195	0.2778	0.5848	0.061
Mof_H 	H 	0.3087	0.2108	0.5636	0.051
Mof_C 	C 	0.4293	0.2249	0.591	-0.052
Mof_H 	H 	0.4641	0.1993	0.5704	0.041
Mof_H 	H 	0.4123	0.1989	0.6167	0.041
Mof_C 	C 	0.4671	0.3045	0.6484	0.027
Mof_H 	H 	0.4193	0.2904	0.6652	0.022
Mof_C 	C 	0.5176	0.3515	0.6654	-0.053
Mof_H 	H 	0.5043	0.3701	0.6933	0.052
Mof_C 	C 	0.5902	0.3712	0.6398	-0.056
Mof_C 	C 	0.6045	0.3447	0.598	-0.05
Mof_H 	H 	0.6506	0.3591	0.5802	0.05
Mof_C 	C 	0.5532	0.2979	0.5819	0.02
Mof_H 	H 	0.5644	0.2796	0.5537	0.02
Mof_C 	C 	0.6514	0.4204	0.6602	0.357
Mof_O 	O 	0.1407	0.2123	0.2341	-0.392
Mof_O 	O 	0.2654	0.2261	0.27261	-0.401
Mof_O 	O 	0.0593	0.8323	0.69062	-0.381
Mof_O 	O 	0.971	0.7754	0.6463	-0.383
Mof_O 	O 	0.2193	0.2265	0.13676	-0.383
Mof_O 	O 	0.3395	0.2099	0.1778	-0.402
Mof_O 	O 	0.5426	0.7812	0.76495	-0.382
Mof_O 	O 	0.4514	0.8389	0.72145	-0.374
Mof_O 	O 	0.1844	0.4399	0.10388	-0.384
Mof_O 	O 	0.1215	0.3523	0.12956	-0.372
Mof_O 	O 	0.8532	0.4267	0.7094	-0.4
Mof_O 	O 	0.7796	0.4444	0.7754	-0.378
Mof_O 	O 	0.3693	0.3444	0.28562	-0.383
Mof_O 	O 	0.3129	0.4356	0.3078	-0.38
Mof_O 	O 	0.7106	0.4419	0.63509	-0.373
Mof_O 	O 	0.637	0.4345	0.7014	-0.395
Mof_N 	N 	0.2459	0.3346	0.2056	-0.183
Mof_N 	N 	0.247	0.38934	0.2062	-0.041
Mof_N 	N 	0.2481	0.4446	0.2072	-0.184
Mof_N 	N 	0.1315	0.0506	0.3551	-0.12
Mof_N 	N 	0.033	0.9568	0.5491	-0.112
Mof_N 	N 	0.3898	0.078	0.0434	-0.13
Mof_N 	N 	0.4211	0.9317	0.8757	-0.112
Mof_N 	N 	0.1727	0.3129	0.9639	-0.116
Mof_N 	N 	0.9705	0.2637	0.8112	-0.116
Mof_N 	N 	0.2947	0.3099	0.4481	-0.114
Mof_N 	N 	0.4847	0.2782	0.6081	-0.112
Mof_Mn	Mn	0.63855	0.72695	0.73334	1.015
Mof_Mn	Mn	0.87091	0.72304	0.67966	0.993
Mof_Mn	Mn	0.82748	0.49064	0.65734	0.8
Mof_Mn	Mn	0.66711	0.49673	0.75526	0.805
Mof_C 	C 	0.8056	0.7991	0.7655	0.389
Mof_C 	C 	0.8304	0.8518	0.7981	-0.053
Mof_C 	C 	0.7651	0.8786	0.8247	-0.059
Mof_H 	H 	0.7078	0.8637	0.8238	0.062
Mof_C 	C 	0.7881	0.9279	0.8524	0.037
Mof_H 	H 	0.7449	0.9468	0.87	0.017
Mof_C 	C 	0.9337	0.9237	0.8287	0.029
Mof_H 	H 	0.9907	0.939	0.8302	0.013
Mof_C 	C 	0.9137	0.8758	0.8005	-0.055
Mof_H 	H 	0.9574	0.8586	0.7823	0.069
Mof_C 	C 	0.8901	0.0018	0.8873	-0.036
Mof_H 	H 	0.9352	0.0284	0.8741	0.034
Mof_H 	H 	0.8385	0.0273	0.8927	0.039
Mof_C 	C 	0.9211	0.9751	0.9302	-0.118
Mof_H 	H 	0.9786	0.9567	0.9257	0.064
Mof_H 	H 	0.8814	0.9422	0.94	0.067
Mof_C 	C 	0.9262	0.0268	0.9676	-0.097
Mof_H 	H 	0.9641	0.0606	0.9577	0.057
Mof_H 	H 	0.8684	0.0437	0.9736	0.06
Mof_C 	C 	0.9635	0.9955	0.0108	-0.064
Mof_H 	H 	0.9266	0.9606	0.0197	0.051
Mof_H 	H 	0.0219	0.9796	0.0047	0.049
Mof_C 	C 	0.9006	0.0477	0.0795	0.022
Mof_H 	H 	0.8515	0.0222	0.0769	0.041
Mof_C 	C 	0.9064	0.09	0.114	-0.04
Mof_H 	H 	0.863	0.091	0.1363	0.055
Mof_C 	C 	0.9741	0.1304	0.1163	-0.057
Mof_C 	C 	0.0389	0.1269	0.0835	-0.055
Mof_H 	H 	0.086	0.1546	0.0839	0.061
Mof_C 	C 	0.0323	0.0816	0.0502	0.038
Mof_H 	H 	0.0758	0.0786	0.0281	0.016
Mof_C 	C 	0.9823	0.1794	0.1544	0.384
Mof_C 	C 	0.7064	0.7975	0.6447	0.386
Mof_C 	C 	0.6718	0.8412	0.6072	-0.041
Mof_C 	C 	0.5947	0.8716	0.6135	-0.074
Mof_H 	H 	0.5602	0.864	0.6391	0.079
Mof_C 	C 	0.569	0.9141	0.5805	0.064
Mof_H 	H 	0.5192	0.9382	0.5859	0.005
Mof_C 	C 	0.6825	0.8902	0.5354	0.041
Mof_H 	H 	0.713	0.8956	0.5082	0.013
Mof_C 	C 	0.7121	0.8491	0.5677	-0.061
Mof_H 	H 	0.7623	0.8258	0.5616	0.059
Mof_C 	C 	0.5781	0.9702	0.5096	-0.03
Mof_H 	H 	0.525	0.9898	0.5209	0.035
Mof_H 	H 	0.6221	0.0026	0.5055	0.037
Mof_C 	C 	0.5611	0.9396	0.467	-0.122
Mof_H 	H 	0.5141	0.9095	0.4711	0.07
Mof_H 	H 	0.6131	0.9169	0.4575	0.065
Mof_C 	C 	0.5348	0.9878	0.4291	-0.098
Mof_H 	H 	0.5182	0.965	0.4017	0.06
Mof_H 	H 	0.484	0.0112	0.4393	0.057
Mof_C 	C 	0.6014	0.0295	0.4183	-0.05
Mof_H 	H 	0.6551	0.0065	0.4129	0.048
Mof_H 	H 	0.6111	0.0575	0.4439	0.046
Mof_C 	C 	0.5268	0.1169	0.3786	0.034
Mof_H 	H 	0.5035	0.1273	0.407	0.018
Mof_C 	C 	0.5053	0.1528	0.3418	-0.049
Mof_H 	H 	0.4696	0.1878	0.3455	0.059
Mof_C 	C 	0.5366	0.1371	0.2992	-0.066
Mof_C 	C 	0.5897	0.0848	0.296	-0.028
Mof_H 	H 	0.6114	0.073	0.2676	0.05
Mof_C 	C 	0.6114	0.0495	0.3343	0.014
Mof_H 	H 	0.6469	0.0142	0.3319	0.045
Mof_C 	C 	0.5118	0.1755	0.258	0.375
Mof_C 	C 	0.8431	0.6142	0.5996	0.368
Mof_C 	C 	0.8403	0.6403	0.5509	-0.053
Mof_C 	C 	0.8554	0.7026	0.543	-0.054
Mof_H 	H 	0.8701	0.7293	0.5669	0.065
Mof_C 	C 	0.8483	0.725	0.4987	0.03
Mof_H 	H 	0.8584	0.7673	0.493	0.019
Mof_C 	C 	0.815	0.6259	0.4705	0.026
Mof_H 	H 	0.8043	0.5996	0.4458	0.017
Mof_C 	C 	0.8184	0.6018	0.5142	-0.054
Mof_H 	H 	0.806	0.5596	0.5191	0.054
Mof_C 	C 	0.8166	0.7146	0.4184	-0.045
Mof_H 	H 	0.7815	0.7524	0.4206	0.042
Mof_H 	H 	0.7859	0.6852	0.3988	0.042
Mof_C 	C 	0.9053	0.7305	0.3973	-0.113
Mof_H 	H 	0.9383	0.6923	0.3924	0.068
Mof_H 	H 	0.9383	0.7568	0.4182	0.063
Mof_C 	C 	0.8936	0.7649	0.3515	-0.096
Mof_H 	H 	0.8663	0.7365	0.3299	0.06
Mof_H 	H 	0.8541	0.8	0.356	0.05
Mof_C 	C 	0.9778	0.7889	0.3313	-0.053
Mof_H 	H 	0.9649	0.8195	0.3078	0.039
Mof_H 	H 	0.0121	0.8094	0.3549	0.043
Mof_C 	C 	0.0078	0.7179	0.2695	0.029
Mof_H 	H 	0.9628	0.7382	0.254	0.021
Mof_C 	C 	0.0515	0.6687	0.2487	-0.055
Mof_H 	H 	0.0364	0.6559	0.2194	0.055
Mof_C 	C 	0.1183	0.6386	0.2724	-0.054
Mof_C 	C 	0.14	0.6597	0.3168	-0.059
Mof_H 	H 	0.1845	0.6407	0.3335	0.053
Mof_C 	C 	0.0932	0.709	0.3344	0.031
Mof_H 	H 	0.1068	0.7237	0.3635	0.017
Mof_C 	C 	0.1671	0.5845	0.2502	0.358
Mof_C 	C 	0.6638	0.6206	0.8143	0.374
Mof_C 	C 	0.6782	0.6463	0.8616	-0.06
Mof_C 	C 	0.6903	0.7085	0.8696	-0.048
Mof_H 	H 	0.6896	0.7364	0.8452	0.065
Mof_C 	C 	0.7034	0.7307	0.9125	0.026
Mof_H 	H 	0.7111	0.7734	0.9174	0.023
Mof_C 	C 	0.6932	0.6295	0.9408	0.031
Mof_H 	H 	0.6942	0.6025	0.9657	0.018
Mof_C 	C 	0.6796	0.605	0.8988	-0.052
Mof_H 	H 	0.6714	0.5621	0.8947	0.05
Mof_C 	C 	0.7212	0.7148	0.9964	-0.056
Mof_H 	H 	0.7541	0.6842	0.0139	0.045
Mof_H 	H 	0.7552	0.7532	0.995	0.045
Mof_C 	C 	0.6339	0.7276	0.0198	-0.104
Mof_H 	H 	0.6	0.7572	0.0019	0.061
Mof_H 	H 	0.6006	0.689	0.0223	0.065
Mof_C 	C 	0.6515	0.7539	0.0665	-0.098
Mof_H 	H 	0.6805	0.7222	0.0848	0.06
Mof_H 	H 	0.6913	0.7892	0.0636	0.051
Mof_C 	C 	0.5707	0.7751	0.091	-0.052
Mof_H 	H 	0.5359	0.8007	0.0704	0.041
Mof_H 	H 	0.5877	0.8011	0.1167	0.041
Mof_C 	C 	0.5329	0.6955	0.1484	0.027
Mof_H 	H 	0.5807	0.7096	0.1652	0.022
Mof_C 	C 	0.4824	0.6485	0.1654	-0.053
Mof_H 	H 	0.4957	0.6299	0.1933	0.052
Mof_C 	C 	0.4098	0.6288	0.1398	-0.056
Mof_C 	C 	0.3955	0.6553	0.098	-0.05
Mof_H 	H 	0.3494	0.6409	0.0802	0.05
Mof_C 	C 	0.4468	0.7021	0.0819	0.02
Mof_H 	H 	0.4356	0.7204	0.0537	0.02
Mof_C 	C 	0.3486	0.5796	0.1602	0.357
Mof_O 	O 	0.8593	0.7877	0.7341	-0.392
Mof_O 	O 	0.7346	0.7739	0.77261	-0.401
Mof_O 	O 	0.9407	0.1677	0.19062	-0.381
Mof_O 	O 	0.029	0.2246	0.1463	-0.383
Mof_O 	O 	0.7807	0.7735	0.63676	-0.383
Mof_O 	O 	0.6605	0.7901	0.6778	-0.402
Mof_O 	O 	0.4574	0.2188	0.26495	-0.382
Mof_O 	O 	0.5486	0.1611	0.22145	-0.374
Mof_O 	O 	0.8156	0.5601	0.60388	-0.384
Mof_O 	O 	0.8785	0.6477	0.62956	-0.372
Mof_O 	O 	0.1468	0.5733	0.2094	-0.4
Mof_O 	O 	0.2204	0.5556	0.2754	-0.378
Mof_O 	O 	0.6307	0.6556	0.78562	-0.383
Mof_O 	O 	0.6871	0.5644	0.8078	-0.38
Mof_O 	O 	0.2894	0.5581	0.13509	-0.373
Mof_O 	O 	0.363	0.5655	0.2014	-0.395
Mof_N 	N 	0.7541	0.6654	0.7056	-0.183
Mof_N 	N 	0.753	0.61066	0.7062	-0.041
Mof_N 	N 	0.7519	0.5554	0.7072	-0.184
Mof_N 	N 	0.8685	0.9494	0.8551	-0.12
Mof_N 	N 	0.967	0.0432	0.0491	-0.112
Mof_N 	N 	0.6102	0.922	0.5434	-0.13
Mof_N 	N 	0.5789	0.0683	0.3757	-0.111
Mof_N 	N 	0.8273	0.6871	0.4639	-0.116
Mof_N 	N 	0.0295	0.7363	0.3112	-0.116
Mof_N 	N 	0.7053	0.6901	0.9481	-0.114
Mof_N 	N 	0.5153	0.7218	0.1081	-0.112
Mof_Mn	Mn	0.86145	0.22695	0.23334	1.015
Mof_Mn	Mn	0.62909	0.22304	0.17966	0.993
Mof_Mn	Mn	0.67252	0.99064	0.15734	0.799
Mof_Mn	Mn	0.83289	0.99673	0.25526	0.804
Mof_C 	C 	0.6944	0.2991	0.2655	0.389
Mof_C 	C 	0.6696	0.3518	0.2981	-0.053
Mof_C 	C 	0.7349	0.3786	0.3247	-0.059
Mof_H 	H 	0.7922	0.3637	0.3238	0.062
Mof_C 	C 	0.7119	0.4279	0.3524	0.037
Mof_H 	H 	0.7551	0.4468	0.37	0.017
Mof_C 	C 	0.5663	0.4237	0.3287	0.029
Mof_H 	H 	0.5093	0.439	0.3302	0.014
Mof_C 	C 	0.5863	0.3758	0.3005	-0.055
Mof_H 	H 	0.5426	0.3586	0.2823	0.069
Mof_C 	C 	0.6099	0.5018	0.3873	-0.038
Mof_H 	H 	0.5648	0.5284	0.3741	0.035
Mof_H 	H 	0.6615	0.5273	0.3927	0.039
Mof_C 	C 	0.5789	0.4751	0.4302	-0.115
Mof_H 	H 	0.5214	0.4567	0.4257	0.063
Mof_H 	H 	0.6186	0.4422	0.44	0.065
Mof_C 	C 	0.5738	0.5268	0.4676	-0.102
Mof_H 	H 	0.5359	0.5606	0.4577	0.058
Mof_H 	H 	0.6316	0.5437	0.4736	0.062
Mof_C 	C 	0.5365	0.4955	0.5108	-0.057
Mof_H 	H 	0.5734	0.4606	0.5197	0.05
Mof_H 	H 	0.4781	0.4796	0.5047	0.047
Mof_C 	C 	0.5994	0.5477	0.5795	0.022
Mof_H 	H 	0.6485	0.5222	0.5769	0.04
Mof_C 	C 	0.5936	0.59	0.614	-0.04
Mof_H 	H 	0.637	0.591	0.6363	0.055
Mof_C 	C 	0.5259	0.6304	0.6163	-0.058
Mof_C 	C 	0.4611	0.6269	0.5835	-0.055
Mof_H 	H 	0.414	0.6546	0.5839	0.061
Mof_C 	C 	0.4677	0.5816	0.5502	0.039
Mof_H 	H 	0.4242	0.5786	0.5281	0.016
Mof_C 	C 	0.5177	0.6794	0.6544	0.383
Mof_C 	C 	0.7936	0.2975	0.1447	0.386
Mof_C 	C 	0.8282	0.3412	0.1072	-0.041
Mof_C 	C 	0.9053	0.3716	0.1135	-0.074
Mof_H 	H 	0.9398	0.364	0.1391	0.079
Mof_C 	C 	0.931	0.4141	0.0805	0.064
Mof_H 	H 	0.9808	0.4382	0.0859	0.005
Mof_C 	C 	0.8175	0.3902	0.0354	0.041
Mof_H 	H 	0.787	0.3956	0.0082	0.013
Mof_C 	C 	0.7879	0.3491	0.0677	-0.062
Mof_H 	H 	0.7377	0.3258	0.0616	0.059
Mof_C 	C 	0.9219	0.4702	0.0096	-0.028
Mof_H 	H 	0.975	0.4898	0.0209	0.035
Mof_H 	H 	0.8779	0.5026	0.0055	0.037
Mof_C 	C 	0.9389	0.4396	0.967	-0.124
Mof_H 	H 	0.9859	0.4095	0.9711	0.07
Mof_H 	H 	0.8869	0.4169	0.9575	0.066
Mof_C 	C 	0.9652	0.4878	0.9291	-0.096
Mof_H 	H 	0.9818	0.465	0.9017	0.06
Mof_H 	H 	0.016	0.5112	0.9393	0.056
Mof_C 	C 	0.8986	0.5295	0.9183	-0.052
Mof_H 	H 	0.8449	0.5065	0.9129	0.048
Mof_H 	H 	0.8889	0.5575	0.9439	0.046
Mof_C 	C 	0.9732	0.6169	0.8786	0.034
Mof_H 	H 	0.9965	0.6273	0.907	0.018
Mof_C 	C 	0.9947	0.6528	0.8418	-0.05
Mof_H 	H 	0.0304	0.6878	0.8455	0.06
Mof_C 	C 	0.9634	0.6371	0.7992	-0.066
Mof_C 	C 	0.9103	0.5848	0.796	-0.029
Mof_H 	H 	0.8886	0.573	0.7676	0.05
Mof_C 	C 	0.8886	0.5495	0.8343	0.014
Mof_H 	H 	0.8531	0.5142	0.8319	0.044
Mof_C 	C 	0.9882	0.6755	0.758	0.374
Mof_C 	C 	0.6569	0.1142	0.0996	0.368
Mof_C 	C 	0.6597	0.1403	0.0509	-0.054
Mof_C 	C 	0.6446	0.2026	0.043	-0.052
Mof_H 	H 	0.6299	0.2293	0.0669	0.064
Mof_C 	C 	0.6517	0.225	0.9987	0.029
Mof_H 	H 	0.6416	0.2673	0.993	0.019
Mof_C 	C 	0.685	0.1259	0.9705	0.024
Mof_H 	H 	0.6957	0.0996	0.9458	0.018
Mof_C 	C 	0.6816	0.1018	0.0142	-0.052
Mof_H 	H 	0.694	0.0596	0.0191	0.053
Mof_C 	C 	0.6834	0.2146	0.9184	-0.045
Mof_H 	H 	0.7185	0.2524	0.9206	0.042
Mof_H 	H 	0.7141	0.1852	0.8988	0.042
Mof_C 	C 	0.5947	0.2305	0.8973	-0.112
Mof_H 	H 	0.5617	0.1923	0.8924	0.067
Mof_H 	H 	0.5617	0.2568	0.9182	0.063
Mof_C 	C 	0.6064	0.2649	0.8515	-0.098
Mof_H 	H 	0.6337	0.2365	0.8299	0.061
Mof_H 	H 	0.6459	0.3	0.856	0.05
Mof_C 	C 	0.5222	0.2889	0.8313	-0.05
Mof_H 	H 	0.5351	0.3195	0.8078	0.038
Mof_H 	H 	0.4879	0.3094	0.8549	0.041
Mof_C 	C 	0.4922	0.2179	0.7695	0.028
Mof_H 	H 	0.5372	0.2382	0.754	0.021
Mof_C 	C 	0.4485	0.1687	0.7487	-0.054
Mof_H 	H 	0.4636	0.1559	0.7194	0.054
Mof_C 	C 	0.3817	0.1386	0.7724	-0.055
Mof_C 	C 	0.36	0.1597	0.8168	-0.059
Mof_H 	H 	0.3155	0.1407	0.8335	0.053
Mof_C 	C 	0.4068	0.209	0.8344	0.031
Mof_H 	H 	0.3932	0.2237	0.8635	0.016
Mof_C 	C 	0.3329	0.0845	0.7502	0.358
Mof_C 	C 	0.8362	0.1206	0.3143	0.374
Mof_C 	C 	0.8218	0.1463	0.3616	-0.059
Mof_C 	C 	0.8097	0.2085	0.3696	-0.048
Mof_H 	H 	0.8104	0.2364	0.3452	0.065
Mof_C 	C 	0.7966	0.2307	0.4125	0.026
Mof_H 	H 	0.7889	0.2734	0.4174	0.023
Mof_C 	C 	0.8068	0.1295	0.4408	0.031
Mof_H 	H 	0.8058	0.1025	0.4657	0.018
Mof_C 	C 	0.8204	0.105	0.3988	-0.052
Mof_H 	H 	0.8286	0.0621	0.3947	0.05
Mof_C 	C 	0.7788	0.2148	0.4964	-0.057
Mof_H 	H 	0.7459	0.1842	0.5139	0.046
Mof_H 	H 	0.7448	0.2532	0.495	0.046
Mof_C 	C 	0.8661	0.2276	0.5198	-0.102
Mof_H 	H 	0.9	0.2572	0.5019	0.06
Mof_H 	H 	0.8994	0.189	0.5223	0.065
Mof_C 	C 	0.8485	0.2539	0.5665	-0.099
Mof_H 	H 	0.8195	0.2222	0.5848	0.061
Mof_H 	H 	0.8087	0.2892	0.5636	0.051
Mof_C 	C 	0.9293	0.2751	0.591	-0.052
Mof_H 	H 	0.9641	0.3007	0.5704	0.041
Mof_H 	H 	0.9123	0.3011	0.6167	0.041
Mof_C 	C 	0.9671	0.1955	0.6484	0.029
Mof_H 	H 	0.9193	0.2096	0.6652	0.022
Mof_C 	C 	0.0176	0.1485	0.6654	-0.054
Mof_H 	H 	0.0043	0.1299	0.6933	0.052
Mof_C 	C 	0.0902	0.1288	0.6398	-0.056
Mof_C 	C 	0.1045	0.1553	0.598	-0.05
Mof_H 	H 	0.1506	0.1409	0.5802	0.05
Mof_C 	C 	0.0532	0.2021	0.5819	0.019
Mof_H 	H 	0.0644	0.2204	0.5537	0.02
Mof_C 	C 	0.1514	0.0796	0.6602	0.356
Mof_O 	O 	0.6407	0.2877	0.2341	-0.392
Mof_O 	O 	0.7654	0.2739	0.27261	-0.401
Mof_O 	O 	0.5593	0.6677	0.69062	-0.381
Mof_O 	O 	0.471	0.7246	0.6463	-0.382
Mof_O 	O 	0.7193	0.2735	0.13676	-0.383
Mof_O 	O 	0.8395	0.2901	0.1778	-0.402
Mof_O 	O 	0.0426	0.7188	0.76495	-0.381
Mof_O 	O 	0.9514	0.6611	0.72145	-0.374
Mof_O 	O 	0.6844	0.0601	0.10388	-0.383
Mof_O 	O 	0.6215	0.1477	0.12956	-0.372
Mof_O 	O 	0.3532	0.0733	0.7094	-0.4
Mof_O 	O 	0.2796	0.0556	0.7754	-0.378
Mof_O 	O 	0.8693	0.1556	0.28562	-0.383
Mof_O 	O 	0.8129	0.0644	0.3078	-0.379
Mof_O 	O 	0.2106	0.0581	0.63509	-0.373
Mof_O 	O 	0.137	0.0655	0.7014	-0.395
Mof_N 	N 	0.7459	0.1654	0.2056	-0.183
Mof_N 	N 	0.747	0.11066	0.2062	-0.041
Mof_N 	N 	0.7481	0.0554	0.2072	-0.184
Mof_N 	N 	0.6315	0.4494	0.3551	-0.119
Mof_N 	N 	0.533	0.5432	0.5491	-0.114
Mof_N 	N 	0.8898	0.422	0.0434	-0.13
Mof_N 	N 	0.9211	0.5683	0.8757	-0.111
Mof_N 	N 	0.6727	0.1871	0.9639	-0.116
Mof_N 	N 	0.4705	0.2363	0.8112	-0.116
Mof_N 	N 	0.7947	0.1901	0.4481	-0.114
Mof_N 	N 	0.9847	0.2218	0.6081	-0.112
Mof_Mn	Mn	0.13855	0.77305	0.73334	1.015
Mof_Mn	Mn	0.37091	0.77696	0.67966	0.993
Mof_Mn	Mn	0.32748	0.00936	0.65734	0.8
Mof_Mn	Mn	0.16711	0.00327	0.75526	0.804
Mof_C 	C 	0.3056	0.7009	0.7655	0.389
Mof_C 	C 	0.3304	0.6482	0.7981	-0.053
Mof_C 	C 	0.2651	0.6214	0.8247	-0.059
Mof_H 	H 	0.2078	0.6363	0.8238	0.062
Mof_C 	C 	0.2881	0.5721	0.8524	0.037
Mof_H 	H 	0.2449	0.5532	0.87	0.017
Mof_C 	C 	0.4337	0.5763	0.8287	0.029
Mof_H 	H 	0.4907	0.561	0.8302	0.014
Mof_C 	C 	0.4137	0.6242	0.8005	-0.055
Mof_H 	H 	0.4574	0.6414	0.7823	0.069
Mof_C 	C 	0.3901	0.4982	0.8873	-0.038
Mof_H 	H 	0.4352	0.4716	0.8741	0.035
Mof_H 	H 	0.3385	0.4727	0.8927	0.039
Mof_C 	C 	0.4211	0.5249	0.9302	-0.115
Mof_H 	H 	0.4786	0.5433	0.9257	0.063
Mof_H 	H 	0.3814	0.5578	0.94	0.065
Mof_C 	C 	0.4262	0.4732	0.9676	-0.102
Mof_H 	H 	0.4641	0.4394	0.9577	0.058
Mof_H 	H 	0.3684	0.4563	0.9736	0.062
Mof_C 	C 	0.4635	0.5045	0.0108	-0.057
Mof_H 	H 	0.4266	0.5394	0.0197	0.05
Mof_H 	H 	0.5219	0.5204	0.0047	0.047
Mof_C 	C 	0.4006	0.4523	0.0795	0.022
Mof_H 	H 	0.3515	0.4778	0.0769	0.04
Mof_C 	C 	0.4064	0.41	0.114	-0.04
Mof_H 	H 	0.363	0.409	0.1363	0.055
Mof_C 	C 	0.4741	0.3696	0.1163	-0.058
Mof_C 	C 	0.5389	0.3731	0.0835	-0.055
Mof_H 	H 	0.586	0.3454	0.0839	0.061
Mof_C 	C 	0.5323	0.4184	0.0502	0.039
Mof_H 	H 	0.5758	0.4214	0.0281	0.016
Mof_C 	C 	0.4823	0.3206	0.1544	0.383
Mof_C 	C 	0.2064	0.7025	0.6447	0.386
Mof_C 	C 	0.1718	0.6588	0.6072	-0.041
Mof_C 	C 	0.0947	0.6284	0.6135	-0.074
Mof_H 	H 	0.0602	0.636	0.6391	0.079
Mof_C 	C 	0.069	0.5859	0.5805	0.064
Mof_H 	H 	0.0192	0.5618	0.5859	0.005
Mof_C 	C 	0.1825	0.6098	0.5354	0.041
Mof_H 	H 	0.213	0.6044	0.5082	0.013
Mof_C 	C 	0.2121	0.6509	0.5677	-0.062
Mof_H 	H 	0.2623	0.6742	0.5616	0.059
Mof_C 	C 	0.0781	0.5298	0.5096	-0.028
Mof_H 	H 	0.025	0.5102	0.5209	0.035
Mof_H 	H 	0.1221	0.4974	0.5055	0.037
Mof_C 	C 	0.0611	0.5604	0.467	-0.124
Mof_H 	H 	0.0141	0.5905	0.4711	0.07
Mof_H 	H 	0.1131	0.5831	0.4575	0.066
Mof_C 	C 	0.0348	0.5122	0.4291	-0.096
Mof_H 	H 	0.0182	0.535	0.4017	0.06
Mof_H 	H 	0.984	0.4888	0.4393	0.056
Mof_C 	C 	0.1014	0.4705	0.4183	-0.051
Mof_H 	H 	0.1551	0.4935	0.4129	0.048
Mof_H 	H 	0.1111	0.4425	0.4439	0.046
Mof_C 	C 	0.0268	0.3831	0.3786	0.034
Mof_H 	H 	0.0035	0.3727	0.407	0.018
Mof_C 	C 	0.0053	0.3472	0.3418	-0.05
Mof_H 	H 	0.9696	0.3122	0.3455	0.06
Mof_C 	C 	0.0366	0.3629	0.2992	-0.066
Mof_C 	C 	0.0897	0.4152	0.296	-0.029
Mof_H 	H 	0.1114	0.427	0.2676	0.05
Mof_C 	C 	0.1114	0.4505	0.3343	0.014
Mof_H 	H 	0.1469	0.4858	0.3319	0.044
Mof_C 	C 	0.0118	0.3245	0.258	0.374
Mof_C 	C 	0.3431	0.8858	0.5996	0.368
Mof_C 	C 	0.3403	0.8597	0.5509	-0.053
Mof_C 	C 	0.3554	0.7974	0.543	-0.054
Mof_H 	H 	0.3701	0.7707	0.5669	0.065
Mof_C 	C 	0.3483	0.775	0.4987	0.03
Mof_H 	H 	0.3584	0.7327	0.493	0.019
Mof_C 	C 	0.315	0.8741	0.4705	0.026
Mof_H 	H 	0.3043	0.9004	0.4458	0.018
Mof_C 	C 	0.3184	0.8982	0.5142	-0.054
Mof_H 	H 	0.306	0.9404	0.5191	0.054
Mof_C 	C 	0.3166	0.7854	0.4184	-0.045
Mof_H 	H 	0.2815	0.7476	0.4206	0.042
Mof_H 	H 	0.2859	0.8148	0.3988	0.042
Mof_C 	C 	0.4053	0.7695	0.3973	-0.112
Mof_H 	H 	0.4383	0.8077	0.3924	0.068
Mof_H 	H 	0.4383	0.7432	0.4182	0.063
Mof_C 	C 	0.3936	0.7351	0.3515	-0.098
Mof_H 	H 	0.3663	0.7635	0.3299	0.061
Mof_H 	H 	0.3541	0.7	0.356	0.05
Mof_C 	C 	0.4778	0.7111	0.3313	-0.05
Mof_H 	H 	0.4649	0.6805	0.3078	0.038
Mof_H 	H 	0.5121	0.6906	0.3549	0.041
Mof_C 	C 	0.5078	0.7821	0.2695	0.028
Mof_H 	H 	0.4628	0.7618	0.254	0.021
Mof_C 	C 	0.5515	0.8313	0.2487	-0.054
Mof_H 	H 	0.5364	0.8441	0.2194	0.054
Mof_C 	C 	0.6183	0.8614	0.2724	-0.055
Mof_C 	C 	0.64	0.8403	0.3168	-0.059
Mof_H 	H 	0.6845	0.8593	0.3335	0.053
Mof_C 	C 	0.5932	0.791	0.3344	0.031
Mof_H 	H 	0.6068	0.7763	0.3635	0.017
Mof_C 	C 	0.6671	0.9155	0.2502	0.358
Mof_C 	C 	0.1638	0.8794	0.8143	0.373
Mof_C 	C 	0.1782	0.8537	0.8616	-0.059
Mof_C 	C 	0.1903	0.7915	0.8696	-0.048
Mof_H 	H 	0.1896	0.7636	0.8452	0.065
Mof_C 	C 	0.2034	0.7693	0.9125	0.027
Mof_H 	H 	0.2111	0.7266	0.9174	0.023
Mof_C 	C 	0.1932	0.8705	0.9408	0.031
Mof_H 	H 	0.1942	0.8975	0.9657	0.018
Mof_C 	C 	0.1796	0.895	0.8988	-0.052
Mof_H 	H 	0.1714	0.9379	0.8947	0.05
Mof_C 	C 	0.2212	0.7852	0.9964	-0.055
Mof_H 	H 	0.2541	0.8158	0.0139	0.045
Mof_H 	H 	0.2552	0.7468	0.995	0.045
Mof_C 	C 	0.1339	0.7724	0.0198	-0.104
Mof_H 	H 	0.1	0.7428	0.0019	0.061
Mof_H 	H 	0.1006	0.811	0.0223	0.066
Mof_C 	C 	0.1515	0.7461	0.0665	-0.097
Mof_H 	H 	0.1805	0.7778	0.0848	0.06
Mof_H 	H 	0.1913	0.7108	0.0636	0.051
Mof_C 	C 	0.0707	0.7249	0.091	-0.052
Mof_H 	H 	0.0359	0.6993	0.0704	0.042
Mof_H 	H 	0.0877	0.6989	0.1167	0.041
Mof_C 	C 	0.0329	0.8045	0.1484	0.029
Mof_H 	H 	0.0807	0.7904	0.1652	0.022
Mof_C 	C 	0.9824	0.8515	0.1654	-0.054
Mof_H 	H 	0.9957	0.8701	0.1933	0.052
Mof_C 	C 	0.9098	0.8712	0.1398	-0.056
Mof_C 	C 	0.8955	0.8447	0.098	-0.05
Mof_H 	H 	0.8494	0.8591	0.0802	0.05
Mof_C 	C 	0.9468	0.7979	0.0819	0.019
Mof_H 	H 	0.9356	0.7796	0.0537	0.02
Mof_C 	C 	0.8486	0.9204	0.1602	0.356
Mof_O 	O 	0.3593	0.7123	0.7341	-0.392
Mof_O 	O 	0.2346	0.7261	0.77261	-0.401
Mof_O 	O 	0.4407	0.3323	0.19062	-0.381
Mof_O 	O 	0.529	0.2754	0.1463	-0.382
Mof_O 	O 	0.2807	0.7265	0.63676	-0.383
Mof_O 	O 	0.1605	0.7099	0.6778	-0.402
Mof_O 	O 	0.9574	0.2812	0.26495	-0.381
Mof_O 	O 	0.0486	0.3389	0.22145	-0.374
Mof_O 	O 	0.3156	0.9399	0.60388	-0.384
Mof_O 	O 	0.3785	0.8523	0.62956	-0.372
Mof_O 	O 	0.6468	0.9267	0.2094	-0.4
Mof_O 	O 	0.7204	0.9444	0.2754	-0.378
Mof_O 	O 	0.1307	0.8444	0.78562	-0.383
Mof_O 	O 	0.1871	0.9356	0.8078	-0.379
Mof_O 	O 	0.7894	0.9419	0.13509	-0.373
Mof_O 	O 	0.863	0.9345	0.2014	-0.395
Mof_N 	N 	0.2541	0.8346	0.7056	-0.183
Mof_N 	N 	0.253	0.88934	0.7062	-0.041
Mof_N 	N 	0.2519	0.9446	0.7072	-0.184
Mof_N 	N 	0.3685	0.5506	0.8551	-0.119
Mof_N 	N 	0.467	0.4568	0.0491	-0.114
Mof_N 	N 	0.1102	0.578	0.5434	-0.13
Mof_N 	N 	0.0789	0.4317	0.3757	-0.111
Mof_N 	N 	0.3273	0.8129	0.4639	-0.116
Mof_N 	N 	0.5295	0.7637	0.3112	-0.116
Mof_N 	N 	0.2053	0.8099	0.9481	-0.114
Mof_N 	N 	0.0153	0.7782	0.1081	-0.112
_end
