data_functionalizedCrystal
_audit_creation_method	'EQeq! by Chris Wilmer'
_symmetry_space_group_name_H-M	'P1'
_symmetry_Int_Tables_number	1
_symmetry_cell_setting	triclinic
loop_
_symmetry_equiv_pos_as_xyz
  x,y,z
_cell_length_a	15.6998
_cell_length_b	15.6998
_cell_length_c	15.6998
_cell_angle_alpha	71.9993
_cell_angle_beta	71.9993
_cell_angle_gamma	71.9993
loop_
_atom_site_label
_atom_site_type_symbol
_atom_site_fract_x
_atom_site_fract_y
_atom_site_fract_z
_atom_site_charge
Mof_Cu	Cu	0.94595	0.51665	0.94445	0.908
Mof_Cu	Cu	0.51665	0.94445	0.94595	0.908
Mof_Cu	Cu	0.05405	0.48335	0.05555	0.908
Mof_Cu	Cu	0.94445	0.94595	0.51665	0.908
Mof_Cu	Cu	0.05555	0.05405	0.48335	0.908
Mof_Cu	Cu	0.48335	0.05555	0.05405	0.908
Mof_H 	H 	0.3448	0.1246	0.2282	0.023
Mof_H 	H 	0.1989	0.5939	0.3308	0.031
Mof_H 	H 	0.2282	0.3448	0.1246	0.023
Mof_H 	H 	0.8787	0.2475	0.6545	0.091
Mof_H 	H 	0.7606	0.1234	0.3374	0.097
Mof_H 	H 	0.2613	0.9686	0.2507	0.074
Mof_H 	H 	0.3374	0.7606	0.1234	0.098
Mof_H 	H 	0.6626	0.2394	0.8766	0.098
Mof_H 	H 	0.3529	0.7189	0.8853	0.035
Mof_H 	H 	0.6692	0.8011	0.4061	0.032
Mof_H 	H 	0.7387	0.0314	0.7493	0.075
Mof_H 	H 	0.6552	0.8754	0.7718	0.024
Mof_H 	H 	0.2394	0.8766	0.6626	0.098
Mof_H 	H 	0.2475	0.6545	0.8787	0.092
Mof_H 	H 	0.1147	0.6471	0.2811	0.035
Mof_H 	H 	0.8766	0.6626	0.2394	0.098
Mof_H 	H 	0.3308	0.1989	0.5939	0.032
Mof_H 	H 	0.3438	0.1837	0.3486	0.065
Mof_H 	H 	0.8162	0.9163	0.4211	0.047
Mof_H 	H 	0.1234	0.3374	0.7606	0.098
Mof_H 	H 	0.6471	0.2811	0.1147	0.035
Mof_H 	H 	0.6545	0.8787	0.2475	0.092
Mof_H 	H 	0.7493	0.7387	0.0314	0.075
Mof_H 	H 	0.6514	0.6562	0.8163	0.065
Mof_H 	H 	0.5293	0.7509	0.6766	0.05
Mof_H 	H 	0.1246	0.2282	0.3448	0.024
Mof_H 	H 	0.4061	0.6692	0.8011	0.032
Mof_H 	H 	0.2811	0.1147	0.6471	0.035
Mof_H 	H 	0.5939	0.3308	0.1989	0.032
Mof_H 	H 	0.4211	0.8162	0.9163	0.047
Mof_H 	H 	0.6766	0.5293	0.7509	0.05
Mof_H 	H 	0.4707	0.2491	0.3234	0.05
Mof_H 	H 	0.0837	0.5789	0.1838	0.047
Mof_H 	H 	0.2507	0.2613	0.9686	0.075
Mof_H 	H 	0.8754	0.7718	0.6552	0.024
Mof_H 	H 	0.1213	0.7525	0.3455	0.092
Mof_H 	H 	0.8853	0.3529	0.7189	0.035
Mof_H 	H 	0.0314	0.7493	0.7387	0.075
Mof_H 	H 	0.9686	0.2507	0.2613	0.075
Mof_H 	H 	0.7718	0.6552	0.8754	0.024
Mof_H 	H 	0.3455	0.1213	0.7525	0.092
Mof_H 	H 	0.7525	0.3455	0.1213	0.092
Mof_H 	H 	0.3486	0.3438	0.1837	0.065
Mof_H 	H 	0.3234	0.4707	0.2491	0.05
Mof_H 	H 	0.7189	0.8853	0.3529	0.035
Mof_H 	H 	0.7509	0.6766	0.5293	0.05
Mof_H 	H 	0.1838	0.0837	0.5789	0.047
Mof_H 	H 	0.8163	0.6514	0.6562	0.065
Mof_H 	H 	0.6562	0.8163	0.6514	0.065
Mof_H 	H 	0.2491	0.3234	0.4707	0.05
Mof_H 	H 	0.5789	0.1838	0.0837	0.047
Mof_H 	H 	0.9163	0.4211	0.8162	0.047
Mof_H 	H 	0.1837	0.3486	0.3438	0.065
Mof_H 	H 	0.8011	0.4061	0.6692	0.032
Mof_C 	C 	0.3914	0.1856	0.2937	-0.08
Mof_C 	C 	0.6086	0.8144	0.7063	-0.08
Mof_C 	C 	0.3796	0.9213	0.1122	0.325
Mof_C 	C 	0.3108	0.8711	0.1739	-0.027
Mof_C 	C 	0.1739	0.3108	0.8711	-0.027
Mof_C 	C 	0.7232	0.5329	0.7757	-0.031
Mof_C 	C 	0.2105	0.8289	0.7023	-0.102
Mof_C 	C 	0.3856	0.7287	0.8194	0.022
Mof_C 	C 	0.5336	0.2282	0.1998	0.01
Mof_C 	C 	0.8239	0.1268	0.692	-0.027
Mof_C 	C 	0.1289	0.8261	0.6892	-0.027
Mof_C 	C 	0.7757	0.7232	0.5329	-0.031
Mof_C 	C 	0.0761	0.6221	0.8866	0.339
Mof_C 	C 	0.8866	0.0761	0.6221	0.339
Mof_C 	C 	0.692	0.8239	0.1268	-0.027
Mof_C 	C 	0.1134	0.9239	0.3779	0.339
Mof_C 	C 	0.8261	0.6892	0.1289	-0.027
Mof_C 	C 	0.7467	0.2335	0.2304	0.169
Mof_C 	C 	0.0787	0.8878	0.6204	0.325
Mof_C 	C 	0.1504	0.2206	0.3947	0.05
Mof_C 	C 	0.1122	0.3796	0.9213	0.325
Mof_C 	C 	0.7794	0.6053	0.8496	0.05
Mof_C 	C 	0.0859	0.7556	0.7478	-0.025
Mof_C 	C 	0.3947	0.1504	0.2206	0.05
Mof_C 	C 	0.7063	0.6086	0.8144	-0.08
Mof_C 	C 	0.7696	0.2533	0.7665	0.169
Mof_C 	C 	0.4671	0.2243	0.2768	-0.031
Mof_C 	C 	0.9213	0.1122	0.3796	0.325
Mof_C 	C 	0.8289	0.7023	0.2105	-0.102
Mof_C 	C 	0.7718	0.8002	0.4664	0.01
Mof_C 	C 	0.8878	0.6204	0.0787	0.325
Mof_C 	C 	0.1761	0.8732	0.308	-0.027
Mof_C 	C 	0.7895	0.1711	0.2977	-0.102
Mof_C 	C 	0.8144	0.7063	0.6086	-0.08
Mof_C 	C 	0.8636	0.4712	0.8134	0.002
Mof_C 	C 	0.8328	0.2174	0.6966	-0.114
Mof_C 	C 	0.4712	0.8134	0.8636	0.002
Mof_C 	C 	0.7556	0.7478	0.0859	-0.025
Mof_C 	C 	0.6966	0.8328	0.2174	-0.114
Mof_C 	C 	0.2522	0.9141	0.2444	-0.025
Mof_C 	C 	0.308	0.1761	0.8732	-0.027
Mof_C 	C 	0.6053	0.8496	0.7794	0.05
Mof_C 	C 	0.9239	0.3779	0.1134	0.339
Mof_C 	C 	0.1856	0.2937	0.3914	-0.08
Mof_C 	C 	0.2174	0.6966	0.8328	-0.114
Mof_C 	C 	0.1998	0.5336	0.2282	0.01
Mof_C 	C 	0.2937	0.3914	0.1856	-0.08
Mof_C 	C 	0.9141	0.2444	0.2522	-0.025
Mof_C 	C 	0.3034	0.1672	0.7826	-0.114
Mof_C 	C 	0.6204	0.0787	0.8878	0.325
Mof_C 	C 	0.7826	0.3034	0.1672	-0.114
Mof_C 	C 	0.6144	0.2713	0.1806	0.022
Mof_C 	C 	0.1672	0.7826	0.3034	-0.114
Mof_C 	C 	0.8496	0.7794	0.6053	0.05
Mof_C 	C 	0.2335	0.2304	0.7467	0.169
Mof_C 	C 	0.5288	0.1866	0.1364	0.002
Mof_C 	C 	0.8732	0.308	0.1761	-0.027
Mof_C 	C 	0.1806	0.6144	0.2713	0.022
Mof_C 	C 	0.5329	0.7757	0.7232	-0.031
Mof_C 	C 	0.1866	0.1364	0.5288	0.002
Mof_C 	C 	0.6892	0.1289	0.8261	-0.027
Mof_C 	C 	0.6221	0.8866	0.0761	0.339
Mof_C 	C 	0.1268	0.692	0.8239	-0.027
Mof_C 	C 	0.7478	0.0859	0.7556	-0.025
Mof_C 	C 	0.2977	0.7895	0.1711	-0.102
Mof_C 	C 	0.8002	0.4664	0.7718	0.01
Mof_C 	C 	0.7287	0.8194	0.3856	0.022
Mof_C 	C 	0.7665	0.7696	0.2533	0.169
Mof_C 	C 	0.2444	0.2522	0.9141	-0.025
Mof_C 	C 	0.2206	0.3947	0.1504	0.05
Mof_C 	C 	0.8194	0.3856	0.7287	0.022
Mof_C 	C 	0.2713	0.1806	0.6144	0.022
Mof_C 	C 	0.1364	0.5288	0.1866	0.002
Mof_C 	C 	0.2304	0.7467	0.2335	0.169
Mof_C 	C 	0.2282	0.1998	0.5336	0.01
Mof_C 	C 	0.8711	0.1739	0.3108	-0.027
Mof_C 	C 	0.8134	0.8636	0.4712	0.002
Mof_C 	C 	0.4664	0.7718	0.8002	0.01
Mof_C 	C 	0.7023	0.2105	0.8289	-0.102
Mof_C 	C 	0.2533	0.7665	0.7696	0.169
Mof_C 	C 	0.1711	0.2977	0.7895	-0.102
Mof_C 	C 	0.2768	0.4671	0.2243	-0.031
Mof_C 	C 	0.2243	0.2768	0.4671	-0.031
Mof_C 	C 	0.3779	0.1134	0.9239	0.339
Mof_N 	N 	0.4584	0.1485	0.142	-0.17
Mof_N 	N 	0.1485	0.142	0.4584	-0.17
Mof_N 	N 	0.8515	0.858	0.5416	-0.17
Mof_N 	N 	0.5416	0.8515	0.858	-0.17
Mof_N 	N 	0.142	0.4584	0.1485	-0.17
Mof_N 	N 	0.858	0.5416	0.8515	-0.17
Mof_O 	O 	0.9868	0.3895	0.1337	-0.402
Mof_O 	O 	0.8653	0.603	0.019	-0.397
Mof_O 	O 	0.8663	0.0132	0.6105	-0.402
Mof_O 	O 	0.6105	0.8663	0.0132	-0.402
Mof_O 	O 	0.1107	0.5803	0.9577	-0.372
Mof_O 	O 	0.4218	0.8888	0.0389	-0.38
Mof_O 	O 	0.9577	0.1107	0.5803	-0.372
Mof_O 	O 	0.9611	0.5782	0.1112	-0.38
Mof_O 	O 	0.8893	0.4197	0.0423	-0.372
Mof_O 	O 	0.7929	0.766	0.3322	-0.215
Mof_O 	O 	0.5782	0.1112	0.9611	-0.38
Mof_O 	O 	0.019	0.8653	0.603	-0.397
Mof_O 	O 	0.397	0.981	0.1347	-0.397
Mof_O 	O 	0.3322	0.7929	0.766	-0.215
Mof_O 	O 	0.8888	0.0389	0.4218	-0.38
Mof_O 	O 	0.1337	0.9868	0.3895	-0.402
Mof_O 	O 	0.0423	0.8893	0.4197	-0.372
Mof_O 	O 	0.4197	0.0423	0.8893	-0.372
Mof_O 	O 	0.234	0.6678	0.2071	-0.215
Mof_O 	O 	0.1347	0.397	0.981	-0.397
Mof_O 	O 	0.603	0.019	0.8653	-0.397
Mof_O 	O 	0.5803	0.9577	0.1107	-0.372
Mof_O 	O 	0.0132	0.6105	0.8663	-0.402
Mof_O 	O 	0.3895	0.1337	0.9868	-0.402
Mof_O 	O 	0.981	0.1347	0.397	-0.397
Mof_O 	O 	0.766	0.3322	0.7929	-0.215
Mof_O 	O 	0.6678	0.2071	0.234	-0.215
Mof_O 	O 	0.0389	0.4218	0.8888	-0.38
Mof_O 	O 	0.2071	0.234	0.6678	-0.215
Mof_O 	O 	0.1112	0.9611	0.5782	-0.38
_end
