# CIF file generated by openbabel 3.1.0, see https://openbabel.org
data_I
_chemical_name_common 'image0'
_cell_length_a 15.1431
_cell_length_b 15.2322
_cell_length_c 16.0597
_cell_angle_alpha 98.484
_cell_angle_beta 102.682
_cell_angle_gamma 104.206
_space_group_name_H-M_alt 'P 1'
_space_group_name_Hall 'P 1'
loop_
    _symmetry_equiv_pos_as_xyz
    x,y,z
loop_
    _atom_site_label
    _atom_site_type_symbol
    _atom_site_fract_x
    _atom_site_fract_y
    _atom_site_fract_z
    _atom_site_occupancy
    C1       C        0.37610    0.98100    0.31210    1.000
    C2       C        0.37390    0.07860    0.31000    1.000
    C3       C        0.37600    0.13860    0.38410    1.000
    H1       H        0.38110    0.11860    0.43780    1.000
    C4       C        0.37070    0.22800    0.38120    1.000
    H2       H        0.37080    0.26780    0.43260    1.000
    C5       C        0.36540    0.26030    0.30360    1.000
    C6       C        0.36750    0.20040    0.23020    1.000
    H3       H        0.36690    0.22140    0.17730    1.000
    C7       C        0.37040    0.11040    0.23310    1.000
    H4       H        0.36990    0.07020    0.18170    1.000
    C8       C        0.18340    0.78850    0.27570    1.000
    C9       C        0.08810    0.79640    0.28120    1.000
    C10      C        0.02070    0.79730    0.20850    1.000
    H5       H        0.03340    0.79000    0.15290    1.000
    C11      C        0.93480    0.80860    0.21540    1.000
    H6       H        0.88990    0.80970    0.16420    1.000
    C12      C        0.91200    0.81840    0.29410    1.000
    C13      C        0.98110    0.81780    0.36730    1.000
    H7       H        0.96830    0.82490    0.42290    1.000
    C14      C        0.06630    0.80720    0.36140    1.000
    H8       H        0.11170    0.80720    0.41270    1.000
    C15      C        0.34760    0.63510    0.29320    1.000
    C16      C        0.34990    0.53710    0.29560    1.000
    C17      C        0.31790    0.46850    0.21990    1.000
    H9       H        0.29280    0.48300    0.16570    1.000
    C18      C        0.32220    0.37870    0.22250    1.000
    H10      H        0.29930    0.33250    0.17010    1.000
    C19      C        0.35930    0.35560    0.30080    1.000
    C20      C        0.39710    0.42660    0.37670    1.000
    H11      H        0.42600    0.41320    0.43020    1.000
    C21      C        0.39230    0.51610    0.37390    1.000
    H12      H        0.41800    0.56340    0.42550    1.000
    C22      C        0.53940    0.83180    0.31840    1.000
    C23      C        0.63890    0.83640    0.31340    1.000
    C24      C        0.65700    0.81850    0.23400    1.000
    H13      H        0.60820    0.80930    0.18230    1.000
    C25      C        0.74560    0.81370    0.22770    1.000
    H14      H        0.75620    0.80050    0.17160    1.000
    C26      C        0.81830    0.82770    0.30110    1.000
    C27      C        0.79950    0.84760    0.38090    1.000
    H15      H        0.84820    0.85700    0.43290    1.000
    C28      C        0.71180    0.85420    0.38710    1.000
    H16      H        0.70190    0.87130    0.44290    1.000
    C29      C        0.38030    0.76440    0.56080    1.000
    H17      H        0.37770    0.70700    0.52640    1.000
    C30      C        0.37650    0.76820    0.64690    1.000
    H18      H        0.36910    0.71380    0.67010    1.000
    C31      C        0.38360    0.85150    0.69770    1.000
    C32      C        0.39240    0.92830    0.66040    1.000
    H19      H        0.39740    0.98700    0.69390    1.000
    C33      C        0.39370    0.91890    0.57450    1.000
    H20      H        0.39930    0.97210    0.54940    1.000
    C34      C        0.38950    0.86930    0.79510    1.000
    C35      C        0.40580    0.85110    0.06480    1.000
    H21      H        0.45050    0.89460    0.11340    1.000
    C36      C        0.41220    0.85870    0.98150    1.000
    H22      H        0.45990    0.90750    0.97300    1.000
    C37      C        0.34750    0.79350    0.90990    1.000
    C38      C        0.28060    0.72550    0.92510    1.000
    H23      H        0.23640    0.67950    0.87800    1.000
    C39      C        0.27760    0.72420    0.00990    1.000
    H24      H        0.22890    0.67730    0.01960    1.000
    N1       N        0.38750    0.83810    0.52480    1.000
    N2       N        0.34930    0.79440    0.82300    1.000
    H25      H        0.32220    0.74210    0.78410    1.000
    N3       N        0.33850    0.78440    0.07890    1.000
    O1       O        0.36170    0.92730    0.24000    1.000
    O2       O        0.39040    0.95980    0.38580    1.000
    O3       O        0.24260    0.79440    0.34610    1.000
    O4       O        0.19750    0.77660    0.20100    1.000
    O5       O        0.31700    0.65290    0.21980    1.000
    O6       O        0.37760    0.69170    0.36570    1.000
    O7       O        0.52640    0.85410    0.39290    1.000
    O8       O        0.47670    0.80520    0.24750    1.000
    O9       O        0.42520    0.94900    0.84190    1.000
    Zn1      Zn       0.38853    0.82902    0.39747    1.000
    Zn2      Zn       0.33348    0.78512    0.20377    1.000
    C40      C        0.62390    0.01900    0.68790    1.000
    C41      C        0.62610    0.92140    0.69000    1.000
    C42      C        0.62400    0.86140    0.61590    1.000
    H26      H        0.61890    0.88140    0.56220    1.000
    C43      C        0.62930    0.77200    0.61880    1.000
    H27      H        0.62920    0.73220    0.56740    1.000
    C44      C        0.63460    0.73970    0.69640    1.000
    C45      C        0.63250    0.79960    0.76980    1.000
    H28      H        0.63310    0.77860    0.82270    1.000
    C46      C        0.62960    0.88960    0.76690    1.000
    H29      H        0.63010    0.92980    0.81830    1.000
    C47      C        0.81660    0.21150    0.72430    1.000
    C48      C        0.91190    0.20360    0.71880    1.000
    C49      C        0.97930    0.20270    0.79150    1.000
    H30      H        0.96660    0.21000    0.84710    1.000
    C50      C        0.06520    0.19140    0.78460    1.000
    H31      H        0.11010    0.19030    0.83580    1.000
    C51      C        0.08800    0.18160    0.70590    1.000
    C52      C        0.01890    0.18220    0.63270    1.000
    H32      H        0.03170    0.17510    0.57710    1.000
    C53      C        0.93370    0.19280    0.63860    1.000
    H33      H        0.88830    0.19280    0.58730    1.000
    C54      C        0.65240    0.36490    0.70680    1.000
    C55      C        0.65010    0.46290    0.70440    1.000
    C56      C        0.68210    0.53150    0.78010    1.000
    H34      H        0.70720    0.51700    0.83430    1.000
    C57      C        0.67780    0.62130    0.77750    1.000
    H35      H        0.70070    0.66750    0.82990    1.000
    C58      C        0.64070    0.64440    0.69920    1.000
    C59      C        0.60290    0.57340    0.62330    1.000
    H36      H        0.57400    0.58680    0.56980    1.000
    C60      C        0.60770    0.48390    0.62610    1.000
    H37      H        0.58200    0.43660    0.57450    1.000
    C61      C        0.46060    0.16820    0.68160    1.000
    C62      C        0.36110    0.16360    0.68660    1.000
    C63      C        0.34300    0.18150    0.76600    1.000
    H38      H        0.39180    0.19070    0.81770    1.000
    C64      C        0.25440    0.18630    0.77230    1.000
    H39      H        0.24380    0.19950    0.82840    1.000
    C65      C        0.18170    0.17230    0.69890    1.000
    C66      C        0.20050    0.15240    0.61910    1.000
    H40      H        0.15180    0.14300    0.56710    1.000
    C67      C        0.28820    0.14580    0.61290    1.000
    H41      H        0.29810    0.12870    0.55710    1.000
    C68      C        0.61970    0.23560    0.43920    1.000
    H42      H        0.62230    0.29300    0.47360    1.000
    C69      C        0.62350    0.23180    0.35310    1.000
    H43      H        0.63090    0.28620    0.32990    1.000
    C70      C        0.61640    0.14850    0.30230    1.000
    C71      C        0.60760    0.07170    0.33960    1.000
    H44      H        0.60260    0.01300    0.30610    1.000
    C72      C        0.60630    0.08110    0.42550    1.000
    H45      H        0.60070    0.02790    0.45060    1.000
    C73      C        0.61050    0.13070    0.20490    1.000
    C74      C        0.59420    0.14890    0.93520    1.000
    H46      H        0.54950    0.10540    0.88660    1.000
    C75      C        0.58780    0.14130    0.01850    1.000
    H47      H        0.54010    0.09250    0.02700    1.000
    C76      C        0.65250    0.20650    0.09010    1.000
    C77      C        0.71940    0.27450    0.07490    1.000
    H48      H        0.76360    0.32050    0.12200    1.000
    C78      C        0.72240    0.27580    0.99010    1.000
    H49      H        0.77110    0.32270    0.98040    1.000
    N4       N        0.61250    0.16190    0.47520    1.000
    N5       N        0.65070    0.20560    0.17700    1.000
    H50      H        0.67780    0.25790    0.21590    1.000
    N6       N        0.66150    0.21560    0.92110    1.000
    O10      O        0.63830    0.07270    0.76000    1.000
    O11      O        0.60960    0.04020    0.61420    1.000
    O12      O        0.75740    0.20560    0.65390    1.000
    O13      O        0.80250    0.22340    0.79900    1.000
    O14      O        0.68300    0.34710    0.78020    1.000
    O15      O        0.62240    0.30830    0.63430    1.000
    O16      O        0.47360    0.14590    0.60710    1.000
    O17      O        0.52330    0.19480    0.75250    1.000
    O18      O        0.57480    0.05100    0.15810    1.000
    Zn3      Zn       0.61147    0.17098    0.60253    1.000
    Zn4      Zn       0.66652    0.21488    0.79623    1.000
