data_functionalizedCrystal
_audit_creation_method	'EQeq! by Chris Wilmer'
_symmetry_space_group_name_H-M	'P1'
_symmetry_Int_Tables_number	1
_symmetry_cell_setting	triclinic
loop_
_symmetry_equiv_pos_as_xyz
  x,y,z
_cell_length_a	11.722
_cell_length_b	11.722
_cell_length_c	23.74
_cell_angle_alpha	90
_cell_angle_beta	90
_cell_angle_gamma	90
loop_
_atom_site_label
_atom_site_type_symbol
_atom_site_fract_x
_atom_site_fract_y
_atom_site_fract_z
_atom_site_charge
Mof_O 	O 	0.4065	0.1193	0.0597	-0.312
Mof_C 	C 	0.3986	0.3588	0.1884	-0.152
Mof_C 	C 	0.3991	0.2735	0.1439	0.064
Mof_H 	H 	0.3286	0.3879	0.2025	0.081
Mof_H 	H 	0.3299	0.2432	0.1294	0.018
Mof_O 	O 	0.5935	0.8807	0.0597	-0.322
Mof_C 	C 	0.6014	0.6412	0.1884	-0.155
Mof_C 	C 	0.6009	0.7265	0.1439	0.065
Mof_H 	H 	0.6714	0.6121	0.2025	0.078
Mof_H 	H 	0.6701	0.7568	0.1294	0.011
Mof_O 	O 	0.8807	0.4065	0.5597	-0.328
Mof_C 	C 	0.6412	0.3986	0.6884	-0.153
Mof_C 	C 	0.7265	0.3991	0.6439	0.068
Mof_H 	H 	0.6121	0.3286	0.7025	0.082
Mof_H 	H 	0.7568	0.3299	0.6294	0.015
Mof_O 	O 	0.1193	0.5935	0.5597	-0.319
Mof_C 	C 	0.3588	0.6014	0.6884	-0.151
Mof_C 	C 	0.2735	0.6009	0.6439	0.067
Mof_H 	H 	0.3879	0.6714	0.7025	0.079
Mof_H 	H 	0.2432	0.6701	0.6294	0.016
Mof_O 	O 	0.5935	0.1193	0.9403	-0.29
Mof_C 	C 	0.6014	0.3588	0.8116	-0.145
Mof_C 	C 	0.6009	0.2735	0.8561	0.06
Mof_H 	H 	0.6714	0.3879	0.7975	0.078
Mof_H 	H 	0.6701	0.2432	0.8706	0.022
Mof_O 	O 	0.4065	0.8807	0.9403	-0.297
Mof_C 	C 	0.3986	0.6412	0.8116	-0.147
Mof_C 	C 	0.3991	0.7265	0.8561	0.061
Mof_H 	H 	0.3286	0.6121	0.7975	0.082
Mof_H 	H 	0.3299	0.7568	0.8706	0.023
Mof_O 	O 	0.1193	0.4065	0.4403	-0.317
Mof_C 	C 	0.3588	0.3986	0.3116	-0.152
Mof_C 	C 	0.2735	0.3991	0.3561	0.068
Mof_H 	H 	0.3879	0.3286	0.2975	0.082
Mof_H 	H 	0.2432	0.3299	0.3706	0.018
Mof_O 	O 	0.8807	0.5935	0.4403	-0.33
Mof_C 	C 	0.6412	0.6014	0.3116	-0.155
Mof_C 	C 	0.7265	0.6009	0.3561	0.068
Mof_H 	H 	0.6121	0.6714	0.2975	0.079
Mof_H 	H 	0.7568	0.6701	0.3706	0.011
Mof_O 	O 	0.5935	0.8807	0.9403	-0.299
Mof_C 	C 	0.6014	0.6412	0.8116	-0.147
Mof_C 	C 	0.6009	0.7265	0.8561	0.06
Mof_H 	H 	0.6714	0.6121	0.7975	0.078
Mof_H 	H 	0.6701	0.7568	0.8706	0.019
Mof_O 	O 	0.4065	0.1193	0.9403	-0.288
Mof_C 	C 	0.3986	0.3588	0.8116	-0.144
Mof_C 	C 	0.3991	0.2735	0.8561	0.06
Mof_H 	H 	0.3286	0.3879	0.7975	0.082
Mof_H 	H 	0.3299	0.2432	0.8706	0.026
Mof_O 	O 	0.1193	0.5935	0.4403	-0.319
Mof_C 	C 	0.3588	0.6014	0.3116	-0.152
Mof_C 	C 	0.2735	0.6009	0.3561	0.067
Mof_H 	H 	0.3879	0.6714	0.2975	0.079
Mof_H 	H 	0.2432	0.6701	0.3706	0.015
Mof_O 	O 	0.8807	0.4065	0.4403	-0.328
Mof_C 	C 	0.6412	0.3986	0.3116	-0.155
Mof_C 	C 	0.7265	0.3991	0.3561	0.068
Mof_H 	H 	0.6121	0.3286	0.2975	0.082
Mof_H 	H 	0.7568	0.3299	0.3706	0.014
Mof_O 	O 	0.4065	0.8807	0.0597	-0.32
Mof_C 	C 	0.3986	0.6412	0.1884	-0.154
Mof_C 	C 	0.3991	0.7265	0.1439	0.066
Mof_H 	H 	0.3286	0.6121	0.2025	0.081
Mof_H 	H 	0.3299	0.7568	0.1294	0.014
Mof_O 	O 	0.5935	0.1193	0.0597	-0.313
Mof_C 	C 	0.6014	0.3588	0.1884	-0.152
Mof_C 	C 	0.6009	0.2735	0.1439	0.064
Mof_H 	H 	0.6714	0.3879	0.2025	0.078
Mof_H 	H 	0.6701	0.2432	0.1294	0.014
Mof_O 	O 	0.8807	0.5935	0.5597	-0.33
Mof_C 	C 	0.6412	0.6014	0.6884	-0.154
Mof_C 	C 	0.7265	0.6009	0.6439	0.067
Mof_H 	H 	0.6121	0.6714	0.7025	0.079
Mof_H 	H 	0.7568	0.6701	0.6294	0.012
Mof_O 	O 	0.1193	0.4065	0.5597	-0.317
Mof_C 	C 	0.3588	0.3986	0.6884	-0.15
Mof_C 	C 	0.2735	0.3991	0.6439	0.068
Mof_H 	H 	0.3879	0.3286	0.7025	0.082
Mof_H 	H 	0.2432	0.3299	0.6294	0.019
Mof_Zn	Zn	0.3743	0	-0	1.356
Mof_O 	O 	0.214	0	-0	-1.333
Mof_Zn	Zn	0.6257	0	-0	1.357
Mof_O 	O 	0.786	0	-0	-1.274
Mof_Zn	Zn	-3.94193e-33	0.3743	0.5	1.355
Mof_O 	O 	-1.16806e-32	0.214	0.5	-1.352
Mof_Zn	Zn	-1.94193e-32	0.6257	0.5	1.356
Mof_O 	O 	-3.94193e-33	0.786	0.5	-1.298
Mof_C 	C 	0.5	0.5	0.25	-0.14
Mof_C 	C 	0.5	0.5	0.75	-0.137
Mof_C 	C 	0.5	0.3964	0.2097	0.118
Mof_C 	C 	0.5	0.2392	0.1241	-0.13
Mof_C 	C 	0.5	0.1502	0.0774	0.37
Mof_C 	C 	0.5	0.6036	0.2097	0.118
Mof_C 	C 	0.5	0.7608	0.1241	-0.134
Mof_C 	C 	0.5	0.8498	0.0774	0.369
Mof_C 	C 	0.6036	0.5	0.7097	0.118
Mof_C 	C 	0.7608	0.5	0.6241	-0.136
Mof_C 	C 	0.8498	0.5	0.5774	0.378
Mof_C 	C 	0.3964	0.5	0.7097	0.117
Mof_C 	C 	0.2392	0.5	0.6241	-0.131
Mof_C 	C 	0.1502	0.5	0.5774	0.378
Mof_C 	C 	0.5	0.3964	0.7903	0.114
Mof_C 	C 	0.5	0.2392	0.8759	-0.117
Mof_C 	C 	0.5	0.1502	0.9226	0.363
Mof_C 	C 	0.5	0.6036	0.7903	0.114
Mof_C 	C 	0.5	0.7608	0.8759	-0.121
Mof_C 	C 	0.5	0.8498	0.9226	0.362
Mof_C 	C 	0.3964	0.5	0.2903	0.118
Mof_C 	C 	0.2392	0.5	0.3759	-0.132
Mof_C 	C 	0.1502	0.5	0.4226	0.378
Mof_C 	C 	0.6036	0.5	0.2903	0.119
Mof_C 	C 	0.7608	0.5	0.3759	-0.137
Mof_C 	C 	0.8498	0.5	0.4226	0.378
Mof_C 	C 	0.382	0.12	-0	-0.372
Mof_C 	C 	0.248	0.066	-0	0.586
Mof_H 	H 	0.1431	0.0533	-0	0.212
Mof_C 	C 	0.618	0.88	-0	-0.367
Mof_C 	C 	0.752	0.934	-0	0.516
Mof_H 	H 	0.8569	0.9467	-0	0.185
Mof_C 	C 	0.88	0.382	0.5	-0.35
Mof_C 	C 	0.934	0.248	0.5	0.571
Mof_H 	H 	0.9467	0.1431	0.5	0.205
Mof_C 	C 	0.12	0.618	0.5	-0.341
Mof_C 	C 	0.066	0.752	0.5	0.568
Mof_H 	H 	0.0533	0.8569	0.5	0.205
Mof_C 	C 	0.618	0.12	-0	-0.365
Mof_C 	C 	0.752	0.066	-0	0.546
Mof_H 	H 	0.8569	0.0533	-0	0.198
Mof_C 	C 	0.382	0.88	-0	-0.375
Mof_C 	C 	0.248	0.934	-0	0.555
Mof_H 	H 	0.1431	0.9467	-0	0.199
Mof_C 	C 	0.12	0.382	0.5	-0.348
Mof_C 	C 	0.066	0.248	0.5	0.604
Mof_H 	H 	0.0533	0.1431	0.5	0.218
Mof_C 	C 	0.88	0.618	0.5	-0.343
Mof_C 	C 	0.934	0.752	0.5	0.535
Mof_H 	H 	0.9467	0.8569	0.5	0.192
Mof_C 	C 	0.5	0	-0	-0.655
Mof_C 	C 	-1.16806e-32	0.5	0.5	-0.637
Mof_C 	C 	0.5	0	0.069	0.037
Mof_C 	C 	-1.11566e-32	0.5	0.569	0.034
Mof_C 	C 	0.5	0	0.931	0.046
Mof_C 	C 	3.27279e-33	0.5	0.431	0.034
_end
