data_functionalizedCrystal
_audit_creation_method	'EQeq! by Chris Wilmer'
_symmetry_space_group_name_H-M	'P1'
_symmetry_Int_Tables_number	1
_symmetry_cell_setting	triclinic
loop_
_symmetry_equiv_pos_as_xyz
  x,y,z
_cell_length_a	18.12
_cell_length_b	18.12
_cell_length_c	12.905
_cell_angle_alpha	90
_cell_angle_beta	90
_cell_angle_gamma	90
loop_
_atom_site_label
_atom_site_type_symbol
_atom_site_fract_x
_atom_site_fract_y
_atom_site_fract_z
_atom_site_charge
Mof_N 	N 	0.5144	0.01	0.3457	-0.258
Mof_C 	C 	0.491	0.0065	0.1748	-0.138
Mof_H 	H 	0.4683	0.998	0.1113	0.099
Mof_N 	N 	0.5577	0.0424	0.1905	-0.129
Mof_C 	C 	0.4651	0.9861	0.2692	0.122
Mof_H 	H 	0.4216	0.9604	0.2812	-0.008
Mof_N 	N 	0.798	0.107	0.04	-0.133
Mof_C 	C 	0.6023	0.0768	0.1123	0.168
Mof_C 	C 	0.6082	0.1502	0.9562	0.074
Mof_N 	N 	0.9132	0.0668	0.0248	-0.22
Mof_C 	C 	0.8421	0.0473	0.0297	0.037
Mof_H 	H 	0.8251	0.9989	0.0266	0.03
Mof_C 	C 	0.6846	0.1456	0.959	-0.114
Mof_H 	H 	0.7126	0.1677	0.9072	0.099
Mof_C 	C 	0.8439	0.1667	0.047	0.011
Mof_H 	H 	0.8294	0.2155	0.0563	0.033
Mof_C 	C 	0.6785	0.0717	0.1146	-0.214
Mof_H 	H 	0.7023	0.0446	0.1658	0.129
Mof_C 	C 	0.7188	0.1084	0.0381	0.122
Mof_C 	C 	0.5686	0.0434	0.2953	0.089
Mof_H 	H 	0.6092	0.065	0.3273	0.002
Mof_C 	C 	0.5668	0.1159	0.0358	-0.215
Mof_H 	H 	0.5156	0.1199	0.0364	0.103
Mof_O 	O 	0.6021	0.2171	0.8005	-0.236
Mof_C 	C 	0.5696	0.1923	0.8727	0.251
Mof_O 	O 	0.4989	0.2025	0.8865	-0.211
Mof_C 	C 	0.9137	0.1423	0.0382	-0.004
Mof_H 	H 	0.9558	0.1717	0.0407	0.021
Mof_N 	N 	0.9856	0.49	0.3457	-0.202
Mof_C 	C 	0.009	0.4935	0.1748	-0.015
Mof_H 	H 	0.0317	0.502	0.1113	0.023
Mof_N 	N 	0.9423	0.4576	0.1905	-0.135
Mof_C 	C 	0.0349	0.5139	0.2692	-0.034
Mof_H 	H 	0.0784	0.5396	0.2812	0.037
Mof_N 	N 	0.702	0.393	0.04	-0.143
Mof_C 	C 	0.8977	0.4232	0.1123	0.182
Mof_C 	C 	0.8918	0.3498	0.9562	0.069
Mof_N 	N 	0.5868	0.4332	0.0248	-0.233
Mof_C 	C 	0.6579	0.4527	0.0297	0.094
Mof_H 	H 	0.6749	0.5011	0.0266	-0.018
Mof_C 	C 	0.8154	0.3544	0.959	-0.114
Mof_H 	H 	0.7874	0.3323	0.9072	0.1
Mof_C 	C 	0.6561	0.3333	0.047	0.009
Mof_H 	H 	0.6706	0.2845	0.0563	0.032
Mof_C 	C 	0.8215	0.4283	0.1146	-0.219
Mof_H 	H 	0.7977	0.4554	0.1658	0.138
Mof_C 	C 	0.7812	0.3916	0.0381	0.131
Mof_C 	C 	0.9314	0.4566	0.2953	0.1
Mof_H 	H 	0.8908	0.435	0.3273	0.003
Mof_C 	C 	0.9332	0.3841	0.0358	-0.214
Mof_H 	H 	0.9844	0.3801	0.0364	0.119
Mof_O 	O 	0.8979	0.2829	0.8005	-0.242
Mof_C 	C 	0.9304	0.3077	0.8727	0.286
Mof_O 	O 	0.0011	0.2975	0.8865	-0.246
Mof_C 	C 	0.5863	0.3577	0.0382	-0.005
Mof_H 	H 	0.5442	0.3283	0.0407	0.014
Mof_N 	N 	0.99	0.0144	0.8457	-0.196
Mof_C 	C 	0.9935	0.991	0.6748	0.174
Mof_H 	H 	0.002	0.9683	0.6113	-0.035
Mof_N 	N 	0.9576	0.0577	0.6905	-0.18
Mof_C 	C 	0.0139	0.9651	0.7692	-0.104
Mof_H 	H 	0.0396	0.9216	0.7812	0.07
Mof_N 	N 	0.893	0.298	0.54	-0.159
Mof_C 	C 	0.9232	0.1023	0.6123	0.195
Mof_C 	C 	0.8498	0.1082	0.4562	0.063
Mof_N 	N 	0.9332	0.4132	0.5248	-0.23
Mof_C 	C 	0.9527	0.3421	0.5297	0.163
Mof_H 	H 	0.0011	0.3251	0.5266	-0.062
Mof_C 	C 	0.8544	0.1846	0.459	-0.191
Mof_H 	H 	0.8323	0.2126	0.4072	0.116
Mof_C 	C 	0.8333	0.3439	0.547	0.021
Mof_H 	H 	0.7845	0.3294	0.5563	0.039
Mof_C 	C 	0.9283	0.1785	0.6146	-0.246
Mof_H 	H 	0.9554	0.2023	0.6658	0.153
Mof_C 	C 	0.8916	0.2188	0.5381	0.198
Mof_C 	C 	0.9566	0.0686	0.7953	0.099
Mof_H 	H 	0.935	0.1092	0.8273	0.014
Mof_C 	C 	0.8841	0.0668	0.5358	-0.189
Mof_H 	H 	0.8801	0.0156	0.5364	0.107
Mof_O 	O 	0.7829	0.1021	0.3005	-0.231
Mof_C 	C 	0.8077	0.0696	0.3727	0.216
Mof_O 	O 	0.7975	0.9989	0.3865	-0.179
Mof_C 	C 	0.8577	0.4137	0.5382	-0.001
Mof_H 	H 	0.8283	0.4558	0.5407	0.029
Mof_N 	N 	0.51	0.4856	0.8457	-0.214
Mof_C 	C 	0.5065	0.509	0.6748	0.014
Mof_H 	H 	0.498	0.5317	0.6113	0.035
Mof_N 	N 	0.5424	0.4423	0.6905	-0.148
Mof_C 	C 	0.4861	0.5349	0.7692	-0.004
Mof_H 	H 	0.4604	0.5784	0.7812	0.036
Mof_N 	N 	0.607	0.202	0.54	-0.148
Mof_C 	C 	0.5768	0.3977	0.6123	0.181
Mof_C 	C 	0.6502	0.3918	0.4562	0.046
Mof_N 	N 	0.5668	0.0868	0.5248	-0.23
Mof_C 	C 	0.5473	0.1579	0.5297	0.102
Mof_H 	H 	0.4989	0.1749	0.5266	-0.018
Mof_C 	C 	0.6456	0.3154	0.459	-0.177
Mof_H 	H 	0.6677	0.2874	0.4072	0.11
Mof_C 	C 	0.6667	0.1561	0.547	0.018
Mof_H 	H 	0.7155	0.1706	0.5563	0.039
Mof_C 	C 	0.5717	0.3215	0.6146	-0.234
Mof_H 	H 	0.5446	0.2977	0.6658	0.143
Mof_C 	C 	0.6084	0.2812	0.5381	0.183
Mof_C 	C 	0.5434	0.4314	0.7953	0.099
Mof_H 	H 	0.565	0.3908	0.8273	0.012
Mof_C 	C 	0.6159	0.4332	0.5358	-0.172
Mof_H 	H 	0.6199	0.4844	0.5364	0.109
Mof_O 	O 	0.7171	0.3979	0.3005	-0.24
Mof_C 	C 	0.6923	0.4304	0.3727	0.253
Mof_O 	O 	0.7025	0.5011	0.3865	-0.22
Mof_C 	C 	0.6423	0.0863	0.5382	-0.001
Mof_H 	H 	0.6717	0.0442	0.5407	0.021
Mof_N 	N 	0.4856	0.99	0.6543	-0.191
Mof_C 	C 	0.509	0.9935	0.8252	0.149
Mof_H 	H 	0.5317	0.002	0.8887	-0.023
Mof_N 	N 	0.4423	0.9576	0.8095	-0.165
Mof_C 	C 	0.5349	0.0139	0.7308	-0.125
Mof_H 	H 	0.5784	0.0396	0.7188	0.073
Mof_N 	N 	0.202	0.893	0.96	-0.161
Mof_C 	C 	0.3977	0.9232	0.8877	0.19
Mof_C 	C 	0.3918	0.8498	0.0438	0.018
Mof_N 	N 	0.0868	0.9332	0.9752	-0.22
Mof_C 	C 	0.1579	0.9527	0.9703	0.165
Mof_H 	H 	0.1749	0.0011	0.9734	-0.051
Mof_C 	C 	0.3154	0.8544	0.041	-0.238
Mof_H 	H 	0.2874	0.8323	0.0928	0.122
Mof_C 	C 	0.1561	0.8333	0.953	0.028
Mof_H 	H 	0.1706	0.7845	0.9437	0.044
Mof_C 	C 	0.3215	0.9283	0.8854	-0.253
Mof_H 	H 	0.2977	0.9554	0.8342	0.156
Mof_C 	C 	0.2812	0.8916	0.9619	0.245
Mof_C 	C 	0.4314	0.9566	0.7047	0.102
Mof_H 	H 	0.3908	0.935	0.6727	0.005
Mof_C 	C 	0.4332	0.8841	0.9642	-0.129
Mof_H 	H 	0.4844	0.8801	0.9636	0.11
Mof_O 	O 	0.3979	0.7829	0.1995	-0.244
Mof_C 	C 	0.4304	0.8077	0.1273	0.257
Mof_O 	O 	0.5011	0.7975	0.1135	-0.232
Mof_C 	C 	0.0863	0.8577	0.9618	0.003
Mof_H 	H 	0.0442	0.8283	0.9593	0.032
Mof_N 	N 	0.0144	0.51	0.6543	-0.242
Mof_C 	C 	0.991	0.5065	0.8252	0.036
Mof_H 	H 	0.9683	0.498	0.8887	0.045
Mof_N 	N 	0.0577	0.5424	0.8095	-0.159
Mof_C 	C 	0.9651	0.4861	0.7308	0.021
Mof_H 	H 	0.9216	0.4604	0.7188	0.03
Mof_N 	N 	0.298	0.607	0.96	-0.153
Mof_C 	C 	0.1023	0.5768	0.8877	0.176
Mof_C 	C 	0.1082	0.6502	0.0438	0.019
Mof_N 	N 	0.4132	0.5668	0.9752	-0.216
Mof_C 	C 	0.3421	0.5473	0.9703	0.112
Mof_H 	H 	0.3251	0.4989	0.9734	-0.009
Mof_C 	C 	0.1846	0.6456	0.041	-0.241
Mof_H 	H 	0.2126	0.6677	0.0928	0.121
Mof_C 	C 	0.3439	0.6667	0.953	0.029
Mof_H 	H 	0.3294	0.7155	0.9437	0.045
Mof_C 	C 	0.1785	0.5717	0.8854	-0.247
Mof_H 	H 	0.2023	0.5446	0.8342	0.147
Mof_C 	C 	0.2188	0.6084	0.9619	0.238
Mof_C 	C 	0.0686	0.5434	0.7047	0.091
Mof_H 	H 	0.1092	0.565	0.6727	0.004
Mof_C 	C 	0.0668	0.6159	0.9642	-0.125
Mof_H 	H 	0.0156	0.6199	0.9636	0.095
Mof_O 	O 	0.1021	0.7171	0.1995	-0.238
Mof_C 	C 	0.0696	0.6923	0.1273	0.22
Mof_O 	O 	0.9989	0.7025	0.1135	-0.194
Mof_C 	C 	0.4137	0.6423	0.9618	0.004
Mof_H 	H 	0.4558	0.6717	0.9593	0.037
Mof_N 	N 	0.01	0.9856	0.1543	-0.242
Mof_C 	C 	0.0065	0.009	0.3252	-0.172
Mof_H 	H 	0.998	0.0317	0.3887	0.114
Mof_N 	N 	0.0424	0.9423	0.3095	-0.111
Mof_C 	C 	0.9861	0.0349	0.2308	0.108
Mof_H 	H 	0.9604	0.0784	0.2188	-0.005
Mof_N 	N 	0.107	0.702	0.46	-0.137
Mof_C 	C 	0.0768	0.8977	0.3877	0.163
Mof_C 	C 	0.1502	0.8918	0.5438	0.026
Mof_N 	N 	0.0668	0.5868	0.4752	-0.221
Mof_C 	C 	0.0473	0.6579	0.4703	0.043
Mof_H 	H 	0.9989	0.6749	0.4734	0.033
Mof_C 	C 	0.1456	0.8154	0.541	-0.161
Mof_H 	H 	0.1677	0.7874	0.5928	0.105
Mof_C 	C 	0.1667	0.6561	0.453	0.017
Mof_H 	H 	0.2155	0.6706	0.4437	0.038
Mof_C 	C 	0.0717	0.8215	0.3854	-0.22
Mof_H 	H 	0.0446	0.7977	0.3342	0.132
Mof_C 	C 	0.1084	0.7812	0.4619	0.169
Mof_C 	C 	0.0434	0.9314	0.2047	0.092
Mof_H 	H 	0.065	0.8908	0.1727	-0.006
Mof_C 	C 	0.1159	0.9332	0.4642	-0.152
Mof_H 	H 	0.1199	0.9844	0.4636	0.107
Mof_O 	O 	0.2171	0.8979	0.6995	-0.25
Mof_C 	C 	0.1923	0.9304	0.6273	0.293
Mof_O 	O 	0.2025	0.0011	0.6135	-0.266
Mof_C 	C 	0.1423	0.5863	0.4618	-0
Mof_H 	H 	0.1717	0.5442	0.4593	0.021
Mof_N 	N 	0.49	0.5144	0.1543	-0.23
Mof_C 	C 	0.4935	0.491	0.3252	0.011
Mof_H 	H 	0.502	0.4683	0.3887	0.034
Mof_N 	N 	0.4576	0.5577	0.3095	-0.148
Mof_C 	C 	0.5139	0.4651	0.2308	-0.009
Mof_H 	H 	0.5396	0.4216	0.2188	0.032
Mof_N 	N 	0.393	0.798	0.46	-0.148
Mof_C 	C 	0.4232	0.6023	0.3877	0.177
Mof_C 	C 	0.3498	0.6082	0.5438	0.044
Mof_N 	N 	0.4332	0.9132	0.4752	-0.221
Mof_C 	C 	0.4527	0.8421	0.4703	0.104
Mof_H 	H 	0.5011	0.8251	0.4734	-0.01
Mof_C 	C 	0.3544	0.6846	0.541	-0.176
Mof_H 	H 	0.3323	0.7126	0.5928	0.111
Mof_C 	C 	0.3333	0.8439	0.453	0.02
Mof_H 	H 	0.2845	0.8294	0.4437	0.038
Mof_C 	C 	0.4283	0.6785	0.3854	-0.233
Mof_H 	H 	0.4554	0.7023	0.3342	0.142
Mof_C 	C 	0.3916	0.7188	0.4619	0.184
Mof_C 	C 	0.4566	0.5686	0.2047	0.092
Mof_H 	H 	0.435	0.6092	0.1727	-0.005
Mof_C 	C 	0.3841	0.5668	0.4642	-0.17
Mof_H 	H 	0.3801	0.5156	0.4636	0.104
Mof_O 	O 	0.2829	0.6021	0.6995	-0.241
Mof_C 	C 	0.3077	0.5696	0.6273	0.255
Mof_O 	O 	0.2975	0.4989	0.6135	-0.225
Mof_C 	C 	0.3577	0.9137	0.4618	0
Mof_H 	H 	0.3283	0.9558	0.4593	0.03
Mof_Cu	Cu	0.5	0	0.5	0.843
Mof_Cu	Cu	4.31399e-33	0.5	0.5	0.842
Mof_Cu	Cu	-0	0	-0	0.809
Mof_Cu	Cu	0.5	0.5	-0	0.837
_end
