data_functionalizedCrystal
_audit_creation_method	'EQeq! by Chris Wilmer'
_symmetry_space_group_name_H-M	'P1'
_symmetry_Int_Tables_number	1
_symmetry_cell_setting	triclinic
loop_
_symmetry_equiv_pos_as_xyz
  x,y,z
_cell_length_a	8.3989
_cell_length_b	8.535
_cell_length_c	11.4883
_cell_angle_alpha	89.325
_cell_angle_beta	69.014
_cell_angle_gamma	67.269
loop_
_atom_site_label
_atom_site_type_symbol
_atom_site_fract_x
_atom_site_fract_y
_atom_site_fract_z
_atom_site_charge
Mof_Cd	Cd	0.23633	0.80077	0.88986	0.486
Mof_Cd	Cd	0.14802	0.43842	0.59229	0.438
Mof_Cd	Cd	0.76367	0.19923	0.11014	0.486
Mof_Cd	Cd	0.85198	0.56158	0.40771	0.438
Mof_H 	H 	0.2856	0.1671	0.14	0.061
Mof_H 	H 	0.7144	0.8329	0.86	0.061
Mof_C 	C 	0.2829	0.703	0.1518	0.271
Mof_C 	C 	0.2798	0.5437	0.0962	0.037
Mof_C 	C 	0.2886	0.4008	0.1579	-0.079
Mof_C 	C 	0.3113	0.3844	0.2827	0.33
Mof_C 	C 	0.2763	0.2653	0.102	0.021
Mof_C 	C 	0.25	0.2764	0.9889	-0.057
Mof_C 	C 	0.2337	0.1245	0.9357	0.323
Mof_C 	C 	0.2409	0.4233	0.9337	0.029
Mof_C 	C 	0.1998	0.4549	0.817	0.284
Mof_C 	C 	0.7171	0.297	0.8482	0.271
Mof_C 	C 	0.7202	0.4563	0.9038	0.037
Mof_C 	C 	0.7114	0.5992	0.8421	-0.079
Mof_C 	C 	0.6887	0.6156	0.7173	0.33
Mof_C 	C 	0.7237	0.7347	0.898	0.021
Mof_C 	C 	0.75	0.7236	0.0111	-0.057
Mof_C 	C 	0.7663	0.8755	0.0643	0.323
Mof_C 	C 	0.7591	0.5767	0.0663	0.029
Mof_C 	C 	0.8002	0.5451	0.183	0.284
Mof_N 	N 	0.2603	0.5521	0.9857	-0.118
Mof_N 	N 	0.7397	0.4479	0.0143	-0.118
Mof_O 	O 	0.2716	0.8251	0.0883	-0.23
Mof_O 	O 	0.2916	0.7016	0.2578	-0.21
Mof_O 	O 	0.1615	0.4248	0.3812	-0.294
Mof_O 	O 	0.4713	0.3241	0.2825	-0.26
Mof_O 	O 	0.0806	0.1128	0.9819	-0.269
Mof_O 	O 	0.3778	0.0083	0.8575	-0.239
Mof_O 	O 	0.1618	0.346	0.773	-0.26
Mof_O 	O 	0.1988	0.5882	0.7714	-0.264
Mof_O 	O 	0.7284	0.1749	0.9117	-0.23
Mof_O 	O 	0.7084	0.2984	0.7422	-0.21
Mof_O 	O 	0.8385	0.5752	0.6188	-0.294
Mof_O 	O 	0.5287	0.6759	0.7175	-0.26
Mof_O 	O 	0.9194	0.8872	0.0181	-0.269
Mof_O 	O 	0.6222	0.9917	0.1425	-0.239
Mof_O 	O 	0.8382	0.654	0.227	-0.26
Mof_O 	O 	0.8012	0.4118	0.2286	-0.264
_end
