# CIF file generated by openbabel 3.1.0, see https://openbabel.org
data_I
_chemical_name_common 'image0'
_cell_length_a 11.201
_cell_length_b 14.943
_cell_length_c 21.483
_cell_angle_alpha 90
_cell_angle_beta 92.096
_cell_angle_gamma 90
_space_group_name_H-M_alt 'P 1'
_space_group_name_Hall 'P 1'
loop_
    _symmetry_equiv_pos_as_xyz
    x,y,z
loop_
    _atom_site_label
    _atom_site_type_symbol
    _atom_site_fract_x
    _atom_site_fract_y
    _atom_site_fract_z
    _atom_site_occupancy
    Ni1      Ni       0.90170    0.23740    0.69967    1.000
    N1       N        0.07550    0.15490    0.54710    1.000
    N2       N        0.01800    0.21370    0.63260    1.000
    N3       N        0.77300    0.25750    0.76120    1.000
    N4       N        0.64300    0.07780    0.61490    1.000
    N5       N        0.61940    0.22660    0.81760    1.000
    N6       N        0.48750    0.82580    0.76120    1.000
    N7       N        0.79140    0.14930    0.65820    1.000
    N8       N        0.40800    0.92700    0.69390    1.000
    N9       N        0.38100    0.94920    0.75290    1.000
    N10      N        0.63100    0.32020    0.81580    1.000
    N11      N        0.71700    0.01240    0.63580    1.000
    N12      N        0.16200    0.14010    0.58790    1.000
    C1       C        0.98900    0.19830    0.57210    1.000
    H1       H        0.91850    0.21590    0.55150    1.000
    C2       C        0.70850    0.19520    0.78630    1.000
    H2       H        0.72450    0.13440    0.78240    1.000
    C3       C        0.42800    0.88500    0.79180    1.000
    H3       H        0.41820    0.88320    0.83460    1.000
    C4       C        0.48700    0.10000    0.83210    1.000
    H4       H        0.45090    0.06740    0.86540    1.000
    H5       H        0.55230    0.06420    0.81720    1.000
    C5       C        0.53800    0.18600    0.85850    1.000
    H6       H        0.47380    0.22750    0.86600    1.000
    H7       H        0.57950    0.17380    0.89810    1.000
    C6       C        0.80500    0.05930    0.66230    1.000
    H8       H        0.87100    0.03280    0.68220    1.000
    C7       C        0.68700    0.15330    0.62780    1.000
    H9       H        0.64900    0.20690    0.61690    1.000
    C8       C        0.53300    0.05500    0.57770    1.000
    H10      H        0.48300    0.10740    0.57370    1.000
    H11      H        0.48910    0.00960    0.60000    1.000
    C9       C        0.07800    0.11800    0.48290    1.000
    H12      H        0.15530    0.13090    0.46530    1.000
    H13      H        0.01680    0.14650    0.45660    1.000
    C10      C        0.47300    0.85400    0.69870    1.000
    H14      H        0.50490    0.82430    0.66510    1.000
    C11      C        0.05700    0.01400    0.48580    1.000
    H15      H        0.05780    0.99000    0.44380    1.000
    H16      H        0.12300    0.98670    0.50940    1.000
    C12      C        0.72500    0.33400    0.78040    1.000
    H17      H        0.75360    0.39080    0.77040    1.000
    C13      C        0.55700    0.01980    0.51360    1.000
    H18      H        0.61940    0.97450    0.51610    1.000
    H19      H        0.58420    0.06820    0.48740    1.000
    C14      C        0.39600    0.11240    0.77960    1.000
    H20      H        0.43570    0.12310    0.74100    1.000
    H21      H        0.34630    0.16410    0.78790    1.000
    C15      C        0.13100    0.17380    0.63900    1.000
    H22      H        0.17640    0.17210    0.67590    1.000
    C16      C        0.31500    0.02760    0.77260    1.000
    H23      H        0.28010    0.01500    0.81230    1.000
    H24      H        0.25090    0.03970    0.74240    1.000
    Ni2      Ni       0.59830    0.73740    0.80033    1.000
    N13      N        0.42450    0.65490    0.95290    1.000
    N14      N        0.48200    0.71370    0.86740    1.000
    N15      N        0.72700    0.75750    0.73880    1.000
    N16      N        0.85700    0.57780    0.88510    1.000
    N17      N        0.88060    0.72660    0.68240    1.000
    N18      N        0.01250    0.32580    0.73880    1.000
    N19      N        0.70860    0.64930    0.84180    1.000
    N20      N        0.09200    0.42700    0.80610    1.000
    N21      N        0.11900    0.44920    0.74710    1.000
    N22      N        0.86900    0.82020    0.68420    1.000
    N23      N        0.78300    0.51240    0.86420    1.000
    N24      N        0.33800    0.64010    0.91210    1.000
    C17      C        0.51100    0.69830    0.92790    1.000
    H25      H        0.58150    0.71590    0.94850    1.000
    C18      C        0.79150    0.69520    0.71370    1.000
    H26      H        0.77550    0.63440    0.71760    1.000
    C19      C        0.07200    0.38500    0.70820    1.000
    H27      H        0.08180    0.38320    0.66540    1.000
    C20      C        0.01300    0.60000    0.66790    1.000
    H28      H        0.04910    0.56740    0.63460    1.000
    H29      H        0.94770    0.56420    0.68280    1.000
    C21      C        0.96200    0.68600    0.64150    1.000
    H30      H        0.02620    0.72750    0.63400    1.000
    H31      H        0.92050    0.67380    0.60190    1.000
    C22      C        0.69500    0.55930    0.83770    1.000
    H32      H        0.62900    0.53280    0.81780    1.000
    C23      C        0.81300    0.65330    0.87220    1.000
    H33      H        0.85100    0.70690    0.88310    1.000
    C24      C        0.96700    0.55500    0.92230    1.000
    H34      H        0.01700    0.60740    0.92630    1.000
    H35      H        0.01090    0.50960    0.90000    1.000
    C25      C        0.42200    0.61800    0.01710    1.000
    H36      H        0.34470    0.63090    0.03470    1.000
    H37      H        0.48320    0.64650    0.04340    1.000
    C26      C        0.02700    0.35400    0.80130    1.000
    H38      H        0.99510    0.32430    0.83490    1.000
    C27      C        0.44300    0.51400    0.01420    1.000
    H39      H        0.44220    0.49000    0.05620    1.000
    H40      H        0.37700    0.48670    0.99060    1.000
    C28      C        0.77500    0.83400    0.71960    1.000
    H41      H        0.74640    0.89080    0.72960    1.000
    C29      C        0.94300    0.51980    0.98640    1.000
    H42      H        0.88060    0.47450    0.98390    1.000
    H43      H        0.91580    0.56820    0.01260    1.000
    C30      C        0.10400    0.61240    0.72040    1.000
    H44      H        0.06430    0.62310    0.75900    1.000
    H45      H        0.15370    0.66410    0.71210    1.000
    C31      C        0.36900    0.67380    0.86100    1.000
    H46      H        0.32360    0.67210    0.82410    1.000
    C32      C        0.18500    0.52760    0.72740    1.000
    H47      H        0.21990    0.51500    0.68770    1.000
    H48      H        0.24910    0.53970    0.75760    1.000
    Ni3      Ni       0.09830    0.76260    0.30033    1.000
    N25      N        0.92450    0.84510    0.45290    1.000
    N26      N        0.98200    0.78630    0.36740    1.000
    N27      N        0.22700    0.74250    0.23880    1.000
    N28      N        0.35700    0.92220    0.38510    1.000
    N29      N        0.38060    0.77340    0.18240    1.000
    N30      N        0.51250    0.17420    0.23880    1.000
    N31      N        0.20860    0.85070    0.34180    1.000
    N32      N        0.59200    0.07300    0.30610    1.000
    N33      N        0.61900    0.05080    0.24710    1.000
    N34      N        0.36900    0.67980    0.18420    1.000
    N35      N        0.28300    0.98760    0.36420    1.000
    N36      N        0.83800    0.85990    0.41210    1.000
    C33      C        0.01100    0.80170    0.42790    1.000
    H49      H        0.08150    0.78410    0.44850    1.000
    C34      C        0.29150    0.80480    0.21370    1.000
    H50      H        0.27550    0.86560    0.21760    1.000
    C35      C        0.57200    0.11500    0.20820    1.000
    H51      H        0.58180    0.11680    0.16540    1.000
    C36      C        0.51300    0.90000    0.16790    1.000
    H52      H        0.54910    0.93260    0.13460    1.000
    H53      H        0.44770    0.93580    0.18280    1.000
    C37      C        0.46200    0.81400    0.14150    1.000
    H54      H        0.52620    0.77250    0.13400    1.000
    H55      H        0.42050    0.82620    0.10190    1.000
    C38      C        0.19500    0.94070    0.33770    1.000
    H56      H        0.12900    0.96720    0.31780    1.000
    C39      C        0.31300    0.84670    0.37220    1.000
    H57      H        0.35100    0.79310    0.38310    1.000
    C40      C        0.46700    0.94500    0.42230    1.000
    H58      H        0.51700    0.89260    0.42630    1.000
    H59      H        0.51090    0.99040    0.40000    1.000
    C41      C        0.92200    0.88200    0.51710    1.000
    H60      H        0.84470    0.86910    0.53470    1.000
    H61      H        0.98320    0.85350    0.54340    1.000
    C42      C        0.52700    0.14600    0.30130    1.000
    H62      H        0.49510    0.17570    0.33490    1.000
    C43      C        0.94300    0.98600    0.51420    1.000
    H63      H        0.94220    0.01000    0.55620    1.000
    H64      H        0.87700    0.01330    0.49060    1.000
    C44      C        0.27500    0.66600    0.21960    1.000
    H65      H        0.24640    0.60920    0.22960    1.000
    C45      C        0.44300    0.98020    0.48640    1.000
    H66      H        0.38060    0.02550    0.48390    1.000
    H67      H        0.41580    0.93180    0.51260    1.000
    C46      C        0.60400    0.88760    0.22040    1.000
    H68      H        0.56430    0.87690    0.25900    1.000
    H69      H        0.65370    0.83590    0.21210    1.000
    C47      C        0.86900    0.82620    0.36100    1.000
    H70      H        0.82360    0.82790    0.32410    1.000
    C48      C        0.68500    0.97240    0.22740    1.000
    H71      H        0.71990    0.98500    0.18770    1.000
    H72      H        0.74910    0.96030    0.25760    1.000
    Ni4      Ni       0.40170    0.26260    0.19967    1.000
    N37      N        0.57550    0.34510    0.04710    1.000
    N38      N        0.51800    0.28630    0.13260    1.000
    N39      N        0.27300    0.24250    0.26120    1.000
    N40      N        0.14300    0.42220    0.11490    1.000
    N41      N        0.11940    0.27340    0.31760    1.000
    N42      N        0.98750    0.67420    0.26120    1.000
    N43      N        0.29140    0.35070    0.15820    1.000
    N44      N        0.90800    0.57300    0.19390    1.000
    N45      N        0.88100    0.55080    0.25290    1.000
    N46      N        0.13100    0.17980    0.31580    1.000
    N47      N        0.21700    0.48760    0.13580    1.000
    N48      N        0.66200    0.35990    0.08790    1.000
    C49      C        0.48900    0.30170    0.07210    1.000
    H73      H        0.41850    0.28410    0.05150    1.000
    C50      C        0.20850    0.30480    0.28630    1.000
    H74      H        0.22450    0.36560    0.28240    1.000
    C51      C        0.92800    0.61500    0.29180    1.000
    H75      H        0.91820    0.61680    0.33460    1.000
    C52      C        0.98700    0.40000    0.33210    1.000
    H76      H        0.95090    0.43260    0.36540    1.000
    H77      H        0.05230    0.43580    0.31720    1.000
    C53      C        0.03800    0.31400    0.35850    1.000
    H78      H        0.97380    0.27250    0.36600    1.000
    H79      H        0.07950    0.32620    0.39810    1.000
    C54      C        0.30500    0.44070    0.16230    1.000
    H80      H        0.37100    0.46720    0.18220    1.000
    C55      C        0.18700    0.34670    0.12780    1.000
    H81      H        0.14900    0.29310    0.11690    1.000
    C56      C        0.03300    0.44500    0.07770    1.000
    H82      H        0.98300    0.39260    0.07370    1.000
    H83      H        0.98910    0.49040    0.10000    1.000
    C57      C        0.57800    0.38200    0.98290    1.000
    H84      H        0.65530    0.36910    0.96530    1.000
    H85      H        0.51680    0.35350    0.95660    1.000
    C58      C        0.97300    0.64600    0.19870    1.000
    H86      H        0.00490    0.67570    0.16510    1.000
    C59      C        0.55700    0.48600    0.98580    1.000
    H87      H        0.55780    0.51000    0.94380    1.000
    H88      H        0.62300    0.51330    0.00940    1.000
    C60      C        0.22500    0.16600    0.28040    1.000
    H89      H        0.25360    0.10920    0.27040    1.000
    C61      C        0.05700    0.48020    0.01360    1.000
    H90      H        0.11940    0.52550    0.01610    1.000
    H91      H        0.08420    0.43180    0.98740    1.000
    C62      C        0.89600    0.38760    0.27960    1.000
    H92      H        0.93570    0.37690    0.24100    1.000
    H93      H        0.84630    0.33590    0.28790    1.000
    C63      C        0.63100    0.32620    0.13900    1.000
    H94      H        0.67640    0.32790    0.17590    1.000
    C64      C        0.81500    0.47240    0.27260    1.000
    H95      H        0.78010    0.48500    0.31230    1.000
    H96      H        0.75090    0.46030    0.24240    1.000
