data_functionalizedCrystal
_audit_creation_method	'EQeq! by Chris Wilmer'
_symmetry_space_group_name_H-M	'P1'
_symmetry_Int_Tables_number	1
_symmetry_cell_setting	triclinic
loop_
_symmetry_equiv_pos_as_xyz
  x,y,z
_cell_length_a	24.62
_cell_length_b	24.62
_cell_length_c	83.68
_cell_angle_alpha	90
_cell_angle_beta	90
_cell_angle_gamma	90
loop_
_atom_site_label
_atom_site_type_symbol
_atom_site_fract_x
_atom_site_fract_y
_atom_site_fract_z
_atom_site_charge
Mof_Cr	Cr	0.78735	0.2912	0.0182	2.515
Mof_Cr	Cr	0.8441	0.27463	0.05395	2.072
Mof_Cr	Cr	0.7138	0.2965	0.0503	2.824
Mof_Ag	Ag	0.79051	0.51751	0.13078	0.453
Mof_Ag	Ag	0.06967	0.51908	0.01079	0.462
Mof_O 	O 	0.7742	0.2886	0.04	-1.343
Mof_O 	O 	0.7447	0.3592	0.01856	-0.772
Mof_O 	O 	0.6902	0.3604	0.03852	-0.847
Mof_C 	C 	0.7055	0.3795	0.0258	0.724
Mof_C 	C 	0.6793	0.4302	0.01985	-0.244
Mof_C 	C 	0.6403	0.4569	0.02904	0.047
Mof_H 	H 	0.6294	0.4424	0.0391	0.003
Mof_C 	C 	0.6175	0.505	0.0235	-0.028
Mof_H 	H 	0.5901	0.5221	0.0296	0.004
Mof_N 	N 	0.6327	0.5279	0.0097	-0.183
Mof_C 	C 	0.671	0.503	0.00103	-0.031
Mof_H 	H 	0.6826	0.5193	0.9913	0.001
Mof_C 	C 	0.6947	0.4542	0.00566	0.05
Mof_H 	H 	0.7213	0.4375	0.9991	-0.003
Mof_O 	O 	0.7413	0.3343	0.0676	-0.944
Mof_O 	O 	0.8291	0.3301	0.07075	-0.706
Mof_C 	C 	0.7828	0.3495	0.07345	0.757
Mof_C 	C 	0.7837	0.3952	0.08484	-0.251
Mof_C 	C 	0.7382	0.4271	0.08813	0.057
Mof_H 	H 	0.7062	0.4234	0.0819	-0.003
Mof_C 	C 	0.7401	0.4644	0.1006	-0.031
Mof_H 	H 	0.7094	0.4868	0.1025	0.009
Mof_N 	N 	0.7837	0.4699	0.11	-0.174
Mof_C 	C 	0.8268	0.4385	0.10709	-0.034
Mof_H 	H 	0.8577	0.4416	0.1138	0.001
Mof_C 	C 	0.8284	0.4013	0.0946	0.055
Mof_H 	H 	0.8601	0.3801	0.0928	0.008
Mof_O 	O 	0.8891	0.3261	0.04399	-0.758
Mof_O 	O 	0.8486	0.3331	0.02013	-0.834
Mof_C 	C 	0.8853	0.3452	0.0305	0.655
Mof_C 	C 	0.9263	0.3866	0.025	-0.191
Mof_C 	C 	0.9705	0.4001	0.03462	0.021
Mof_H 	H 	0.9751	0.3832	0.0448	0.016
Mof_C 	C 	0.0079	0.4383	0.0293	-0.021
Mof_H 	H 	0.0372	0.448	0.0361	-0.005
Mof_N 	N 	0.0041	0.4617	0.0149	-0.177
Mof_C 	C 	0.9624	0.4479	0.00553	-0.012
Mof_H 	H 	0.9598	0.4639	0.9952	0.004
Mof_C 	C 	0.9227	0.411	0.01022	0.023
Mof_H 	H 	0.8933	0.4028	0.0033	0.011
Mof_O 	O 	0.7187	0.2341	0.06426	-0.879
Mof_O 	O 	0.8029	0.2208	0.0652	-0.792
Mof_C 	C 	0.7565	0.2097	0.06902	0.844
Mof_C 	C 	0.7504	0.1613	0.07903	-0.299
Mof_C 	C 	0.6995	0.1461	0.0848	0.086
Mof_H 	H 	0.6681	0.1663	0.082	-0.008
Mof_C 	C 	0.695	0.1012	0.0948	-0.054
Mof_H 	H 	0.6603	0.092	0.099	0.004
Mof_N 	N 	0.7378	0.0706	0.09876	-0.156
Mof_C 	C 	0.7864	0.0844	0.0929	-0.046
Mof_H 	H 	0.8169	0.0624	0.0955	0.017
Mof_C 	C 	0.7942	0.1295	0.0832	0.089
Mof_H 	H 	0.8296	0.1383	0.0794	-0.008
Mof_O 	O 	0.7245	0.248	0.014	-0.834
Mof_O 	O 	0.6812	0.2463	0.0361	-0.877
Mof_C 	C 	0.686	0.232	0.0221	0.791
Mof_C 	C 	0.6446	0.1955	0.01528	-0.277
Mof_C 	C 	0.6505	0.1748	0.99986	0.069
Mof_H 	H 	0.6817	0.1838	0.9937	-0.004
Mof_C 	C 	0.6107	0.141	0.99358	-0.044
Mof_H 	H 	0.6146	0.1282	0.9829	0.002
Mof_N 	N 	0.567	0.1259	0.002	-0.171
Mof_C 	C 	0.5619	0.1447	0.0169	-0.038
Mof_H 	H 	0.5314	0.1336	0.023	0.011
Mof_C 	C 	0.5994	0.1797	0.02384	0.073
Mof_H 	H 	0.594	0.1926	0.0344	-0.005
Mof_O 	O 	0.8272	0.2241	0.01615	-0.768
Mof_O 	O 	0.8662	0.2129	0.03943	-0.678
Mof_C 	C 	0.859	0.2002	0.0254	0.641
Mof_C 	C 	0.8909	0.1535	0.01888	-0.194
Mof_C 	C 	0.932	0.1299	0.02801	0.018
Mof_H 	H 	0.9391	0.1426	0.0385	0.013
Mof_C 	C 	0.9625	0.0877	0.0216	-0.015
Mof_H 	H 	0.9912	0.0727	0.0278	-0.004
Mof_N 	N 	0.9529	0.0673	0.0071	-0.184
Mof_C 	C 	0.9127	0.089	0.99847	-0.012
Mof_H 	H 	0.9052	0.0743	0.9882	-0
Mof_C 	C 	0.8813	0.1322	0.0039	0.02
Mof_H 	H 	0.8535	0.1469	0.9973	0.015
Mof_Cr	Cr	0.21265	0.7088	0.5182	2.514
Mof_Cr	Cr	0.1559	0.72537	0.55395	2.071
Mof_Cr	Cr	0.2862	0.7035	0.5503	2.823
Mof_Ag	Ag	0.20949	0.48249	0.63078	0.452
Mof_Ag	Ag	0.93033	0.48092	0.51079	0.461
Mof_O 	O 	0.2258	0.7114	0.54	-1.344
Mof_O 	O 	0.2553	0.6408	0.51856	-0.772
Mof_O 	O 	0.3098	0.6396	0.53852	-0.847
Mof_C 	C 	0.2945	0.6205	0.5258	0.724
Mof_C 	C 	0.3207	0.5698	0.51985	-0.244
Mof_C 	C 	0.3597	0.5431	0.52904	0.047
Mof_H 	H 	0.3706	0.5576	0.5391	0.003
Mof_C 	C 	0.3825	0.495	0.5235	-0.028
Mof_H 	H 	0.4099	0.4779	0.5296	0.004
Mof_N 	N 	0.3673	0.4721	0.5097	-0.183
Mof_C 	C 	0.329	0.497	0.50103	-0.031
Mof_H 	H 	0.3174	0.4807	0.4913	0.001
Mof_C 	C 	0.3053	0.5458	0.50566	0.05
Mof_H 	H 	0.2787	0.5625	0.4991	-0.003
Mof_O 	O 	0.2587	0.6657	0.5676	-0.944
Mof_O 	O 	0.1709	0.6699	0.57075	-0.706
Mof_C 	C 	0.2172	0.6505	0.57345	0.757
Mof_C 	C 	0.2163	0.6048	0.58484	-0.251
Mof_C 	C 	0.2618	0.5729	0.58813	0.057
Mof_H 	H 	0.2938	0.5766	0.5819	-0.003
Mof_C 	C 	0.2599	0.5356	0.6006	-0.031
Mof_H 	H 	0.2906	0.5132	0.6025	0.009
Mof_N 	N 	0.2163	0.5301	0.61	-0.174
Mof_C 	C 	0.1732	0.5615	0.60709	-0.034
Mof_H 	H 	0.1423	0.5584	0.6138	0.001
Mof_C 	C 	0.1716	0.5987	0.5946	0.055
Mof_H 	H 	0.1399	0.6199	0.5928	0.008
Mof_O 	O 	0.1109	0.6739	0.54399	-0.758
Mof_O 	O 	0.1514	0.6669	0.52013	-0.834
Mof_C 	C 	0.1147	0.6548	0.5305	0.655
Mof_C 	C 	0.0737	0.6134	0.525	-0.191
Mof_C 	C 	0.0295	0.5999	0.53462	0.021
Mof_H 	H 	0.0249	0.6168	0.5448	0.016
Mof_C 	C 	0.9921	0.5617	0.5293	-0.021
Mof_H 	H 	0.9628	0.552	0.5361	-0.005
Mof_N 	N 	0.9959	0.5383	0.5149	-0.177
Mof_C 	C 	0.0376	0.5521	0.50553	-0.012
Mof_H 	H 	0.0402	0.5361	0.4952	0.004
Mof_C 	C 	0.0773	0.589	0.51022	0.023
Mof_H 	H 	0.1067	0.5972	0.5033	0.011
Mof_O 	O 	0.2813	0.7659	0.56426	-0.879
Mof_O 	O 	0.1971	0.7792	0.5652	-0.792
Mof_C 	C 	0.2435	0.7903	0.56902	0.844
Mof_C 	C 	0.2496	0.8387	0.57903	-0.299
Mof_C 	C 	0.3005	0.8539	0.5848	0.086
Mof_H 	H 	0.3319	0.8337	0.582	-0.008
Mof_C 	C 	0.305	0.8988	0.5948	-0.054
Mof_H 	H 	0.3397	0.908	0.599	0.004
Mof_N 	N 	0.2622	0.9294	0.59876	-0.156
Mof_C 	C 	0.2136	0.9156	0.5929	-0.046
Mof_H 	H 	0.1831	0.9376	0.5955	0.017
Mof_C 	C 	0.2058	0.8705	0.5832	0.089
Mof_H 	H 	0.1704	0.8617	0.5794	-0.008
Mof_O 	O 	0.2755	0.752	0.514	-0.834
Mof_O 	O 	0.3188	0.7537	0.5361	-0.877
Mof_C 	C 	0.314	0.768	0.5221	0.791
Mof_C 	C 	0.3554	0.8045	0.51528	-0.277
Mof_C 	C 	0.3495	0.8252	0.49986	0.069
Mof_H 	H 	0.3183	0.8162	0.4937	-0.004
Mof_C 	C 	0.3893	0.859	0.49358	-0.044
Mof_H 	H 	0.3854	0.8718	0.4829	0.002
Mof_N 	N 	0.433	0.8741	0.502	-0.171
Mof_C 	C 	0.4381	0.8553	0.5169	-0.038
Mof_H 	H 	0.4686	0.8664	0.523	0.011
Mof_C 	C 	0.4006	0.8203	0.52384	0.073
Mof_H 	H 	0.406	0.8074	0.5344	-0.005
Mof_O 	O 	0.1728	0.7759	0.51615	-0.768
Mof_O 	O 	0.1338	0.7871	0.53943	-0.678
Mof_C 	C 	0.141	0.7998	0.5254	0.641
Mof_C 	C 	0.1091	0.8465	0.51888	-0.194
Mof_C 	C 	0.068	0.8701	0.52801	0.018
Mof_H 	H 	0.0609	0.8574	0.5385	0.013
Mof_C 	C 	0.0375	0.9123	0.5216	-0.015
Mof_H 	H 	0.0088	0.9273	0.5278	-0.004
Mof_N 	N 	0.0471	0.9327	0.5071	-0.184
Mof_C 	C 	0.0873	0.911	0.49847	-0.012
Mof_H 	H 	0.0948	0.9257	0.4882	-0
Mof_C 	C 	0.1187	0.8678	0.5039	0.02
Mof_H 	H 	0.1465	0.8531	0.4973	0.015
Mof_Cr	Cr	0.2088	0.28735	0.2682	2.514
Mof_Cr	Cr	0.22537	0.3441	0.30395	2.071
Mof_Cr	Cr	0.2035	0.2138	0.3003	2.823
Mof_Ag	Ag	0.98249	0.29051	0.38078	0.449
Mof_Ag	Ag	0.98092	0.56967	0.26079	0.459
Mof_O 	O 	0.2114	0.2742	0.29	-1.344
Mof_O 	O 	0.1408	0.2447	0.26856	-0.772
Mof_O 	O 	0.1396	0.1902	0.28852	-0.847
Mof_C 	C 	0.1205	0.2055	0.2758	0.725
Mof_C 	C 	0.0698	0.1793	0.26985	-0.247
Mof_C 	C 	0.0431	0.1403	0.27904	0.052
Mof_H 	H 	0.0576	0.1294	0.2891	0.002
Mof_C 	C 	0.995	0.1175	0.2735	-0.032
Mof_H 	H 	0.9779	0.0901	0.2796	0.005
Mof_N 	N 	0.9721	0.1327	0.2597	-0.182
Mof_C 	C 	0.997	0.171	0.25103	-0.035
Mof_H 	H 	0.9807	0.1826	0.2413	0.002
Mof_C 	C 	0.0458	0.1947	0.25566	0.055
Mof_H 	H 	0.0625	0.2213	0.2491	-0.005
Mof_O 	O 	0.1657	0.2413	0.3176	-0.944
Mof_O 	O 	0.1699	0.3291	0.32075	-0.706
Mof_C 	C 	0.1505	0.2828	0.32345	0.757
Mof_C 	C 	0.1048	0.2837	0.33484	-0.251
Mof_C 	C 	0.0729	0.2382	0.33813	0.057
Mof_H 	H 	0.0766	0.2062	0.3319	-0.003
Mof_C 	C 	0.0356	0.2401	0.3506	-0.031
Mof_H 	H 	0.0132	0.2094	0.3525	0.009
Mof_N 	N 	0.0301	0.2837	0.36	-0.173
Mof_C 	C 	0.0615	0.3268	0.35709	-0.034
Mof_H 	H 	0.0584	0.3577	0.3638	0.002
Mof_C 	C 	0.0987	0.3284	0.3446	0.055
Mof_H 	H 	0.1199	0.3601	0.3428	0.008
Mof_O 	O 	0.1739	0.3891	0.29399	-0.758
Mof_O 	O 	0.1669	0.3486	0.27013	-0.834
Mof_C 	C 	0.1548	0.3853	0.2805	0.655
Mof_C 	C 	0.1134	0.4263	0.275	-0.19
Mof_C 	C 	0.0999	0.4705	0.28462	0.018
Mof_H 	H 	0.1168	0.4751	0.2948	0.017
Mof_C 	C 	0.0617	0.5079	0.2793	-0.018
Mof_H 	H 	0.052	0.5372	0.2861	-0.005
Mof_N 	N 	0.0383	0.5041	0.2649	-0.176
Mof_C 	C 	0.0521	0.4624	0.25553	-0.013
Mof_H 	H 	0.0361	0.4598	0.2452	0.004
Mof_C 	C 	0.089	0.4227	0.26022	0.023
Mof_H 	H 	0.0972	0.3933	0.2533	0.011
Mof_O 	O 	0.2659	0.2187	0.31426	-0.879
Mof_O 	O 	0.2792	0.3029	0.3152	-0.792
Mof_C 	C 	0.2903	0.2565	0.31902	0.844
Mof_C 	C 	0.3387	0.2504	0.32903	-0.299
Mof_C 	C 	0.3539	0.1995	0.3348	0.086
Mof_H 	H 	0.3337	0.1681	0.332	-0.007
Mof_C 	C 	0.3988	0.195	0.3448	-0.054
Mof_H 	H 	0.408	0.1603	0.349	0.004
Mof_N 	N 	0.4294	0.2378	0.34876	-0.156
Mof_C 	C 	0.4156	0.2864	0.3429	-0.046
Mof_H 	H 	0.4376	0.3169	0.3455	0.018
Mof_C 	C 	0.3705	0.2942	0.3332	0.089
Mof_H 	H 	0.3617	0.3296	0.3294	-0.007
Mof_O 	O 	0.252	0.2245	0.264	-0.834
Mof_O 	O 	0.2537	0.1812	0.2861	-0.877
Mof_C 	C 	0.268	0.186	0.2721	0.791
Mof_C 	C 	0.3045	0.1446	0.26528	-0.277
Mof_C 	C 	0.3252	0.1505	0.24986	0.069
Mof_H 	H 	0.3162	0.1817	0.2437	-0.004
Mof_C 	C 	0.359	0.1107	0.24358	-0.044
Mof_H 	H 	0.3718	0.1146	0.2329	0.002
Mof_N 	N 	0.3741	0.067	0.252	-0.171
Mof_C 	C 	0.3553	0.0619	0.2669	-0.038
Mof_H 	H 	0.3664	0.0314	0.273	0.011
Mof_C 	C 	0.3203	0.0994	0.27384	0.073
Mof_H 	H 	0.3074	0.094	0.2844	-0.005
Mof_O 	O 	0.2759	0.3272	0.26615	-0.768
Mof_O 	O 	0.2871	0.3662	0.28943	-0.678
Mof_C 	C 	0.2998	0.359	0.2754	0.641
Mof_C 	C 	0.3465	0.3909	0.26888	-0.194
Mof_C 	C 	0.3701	0.432	0.27801	0.018
Mof_H 	H 	0.3574	0.4391	0.2885	0.013
Mof_C 	C 	0.4123	0.4625	0.2716	-0.015
Mof_H 	H 	0.4273	0.4912	0.2778	-0.004
Mof_N 	N 	0.4327	0.4529	0.2571	-0.185
Mof_C 	C 	0.411	0.4127	0.24847	-0.012
Mof_H 	H 	0.4257	0.4052	0.2382	-0.001
Mof_C 	C 	0.3678	0.3813	0.2539	0.02
Mof_H 	H 	0.3531	0.3535	0.2473	0.015
Mof_Cr	Cr	0.7912	0.71265	0.7682	2.514
Mof_Cr	Cr	0.77463	0.6559	0.80395	2.071
Mof_Cr	Cr	0.7965	0.7862	0.8003	2.823
Mof_Ag	Ag	0.01751	0.70949	0.88078	0.449
Mof_Ag	Ag	0.01908	0.43033	0.76079	0.459
Mof_O 	O 	0.7886	0.7258	0.79	-1.344
Mof_O 	O 	0.8592	0.7553	0.76856	-0.772
Mof_O 	O 	0.8604	0.8098	0.78852	-0.847
Mof_C 	C 	0.8795	0.7945	0.7758	0.725
Mof_C 	C 	0.9302	0.8207	0.76985	-0.247
Mof_C 	C 	0.9569	0.8597	0.77904	0.052
Mof_H 	H 	0.9424	0.8706	0.7891	0.002
Mof_C 	C 	0.005	0.8825	0.7735	-0.032
Mof_H 	H 	0.0221	0.9099	0.7796	0.005
Mof_N 	N 	0.0279	0.8673	0.7597	-0.182
Mof_C 	C 	0.003	0.829	0.75103	-0.035
Mof_H 	H 	0.0193	0.8174	0.7413	0.002
Mof_C 	C 	0.9542	0.8053	0.75566	0.055
Mof_H 	H 	0.9375	0.7787	0.7491	-0.005
Mof_O 	O 	0.8343	0.7587	0.8176	-0.944
Mof_O 	O 	0.8301	0.6709	0.82075	-0.706
Mof_C 	C 	0.8495	0.7172	0.82345	0.757
Mof_C 	C 	0.8952	0.7163	0.83484	-0.251
Mof_C 	C 	0.9271	0.7618	0.83813	0.057
Mof_H 	H 	0.9234	0.7938	0.8319	-0.003
Mof_C 	C 	0.9644	0.7599	0.8506	-0.031
Mof_H 	H 	0.9868	0.7906	0.8525	0.009
Mof_N 	N 	0.9699	0.7163	0.86	-0.173
Mof_C 	C 	0.9385	0.6732	0.85709	-0.034
Mof_H 	H 	0.9416	0.6423	0.8638	0.002
Mof_C 	C 	0.9013	0.6716	0.8446	0.055
Mof_H 	H 	0.8801	0.6399	0.8428	0.008
Mof_O 	O 	0.8261	0.6109	0.79399	-0.758
Mof_O 	O 	0.8331	0.6514	0.77013	-0.834
Mof_C 	C 	0.8452	0.6147	0.7805	0.655
Mof_C 	C 	0.8866	0.5737	0.775	-0.19
Mof_C 	C 	0.9001	0.5295	0.78462	0.018
Mof_H 	H 	0.8832	0.5249	0.7948	0.017
Mof_C 	C 	0.9383	0.4921	0.7793	-0.018
Mof_H 	H 	0.948	0.4628	0.7861	-0.005
Mof_N 	N 	0.9617	0.4959	0.7649	-0.176
Mof_C 	C 	0.9479	0.5376	0.75553	-0.013
Mof_H 	H 	0.9639	0.5402	0.7452	0.004
Mof_C 	C 	0.911	0.5773	0.76022	0.023
Mof_H 	H 	0.9028	0.6067	0.7533	0.011
Mof_O 	O 	0.7341	0.7813	0.81426	-0.879
Mof_O 	O 	0.7208	0.6971	0.8152	-0.792
Mof_C 	C 	0.7097	0.7435	0.81902	0.844
Mof_C 	C 	0.6613	0.7496	0.82903	-0.299
Mof_C 	C 	0.6461	0.8005	0.8348	0.086
Mof_H 	H 	0.6663	0.8319	0.832	-0.007
Mof_C 	C 	0.6012	0.805	0.8448	-0.054
Mof_H 	H 	0.592	0.8397	0.849	0.004
Mof_N 	N 	0.5706	0.7622	0.84876	-0.156
Mof_C 	C 	0.5844	0.7136	0.8429	-0.046
Mof_H 	H 	0.5624	0.6831	0.8455	0.018
Mof_C 	C 	0.6295	0.7058	0.8332	0.089
Mof_H 	H 	0.6383	0.6704	0.8294	-0.007
Mof_O 	O 	0.748	0.7755	0.764	-0.834
Mof_O 	O 	0.7463	0.8188	0.7861	-0.877
Mof_C 	C 	0.732	0.814	0.7721	0.791
Mof_C 	C 	0.6955	0.8554	0.76528	-0.277
Mof_C 	C 	0.6748	0.8495	0.74986	0.069
Mof_H 	H 	0.6838	0.8183	0.7437	-0.004
Mof_C 	C 	0.641	0.8893	0.74358	-0.044
Mof_H 	H 	0.6282	0.8854	0.7329	0.002
Mof_N 	N 	0.6259	0.933	0.752	-0.171
Mof_C 	C 	0.6447	0.9381	0.7669	-0.038
Mof_H 	H 	0.6336	0.9686	0.773	0.011
Mof_C 	C 	0.6797	0.9006	0.77384	0.073
Mof_H 	H 	0.6926	0.906	0.7844	-0.005
Mof_O 	O 	0.7241	0.6728	0.76615	-0.768
Mof_O 	O 	0.7129	0.6338	0.78943	-0.678
Mof_C 	C 	0.7002	0.641	0.7754	0.641
Mof_C 	C 	0.6535	0.6091	0.76888	-0.194
Mof_C 	C 	0.6299	0.568	0.77801	0.018
Mof_H 	H 	0.6426	0.5609	0.7885	0.013
Mof_C 	C 	0.5877	0.5375	0.7716	-0.015
Mof_H 	H 	0.5727	0.5088	0.7778	-0.004
Mof_N 	N 	0.5673	0.5471	0.7571	-0.185
Mof_C 	C 	0.589	0.5873	0.74847	-0.012
Mof_H 	H 	0.5743	0.5948	0.7382	-0.001
Mof_C 	C 	0.6322	0.6187	0.7539	0.02
Mof_H 	H 	0.6469	0.6465	0.7473	0.015
Mof_Cr	Cr	0.71265	0.7912	0.2318	2.514
Mof_Cr	Cr	0.6559	0.77463	0.19605	2.071
Mof_Cr	Cr	0.7862	0.7965	0.1997	2.823
Mof_Ag	Ag	0.70949	0.01751	0.11922	0.449
Mof_Ag	Ag	0.43033	0.01908	0.23921	0.459
Mof_O 	O 	0.7258	0.7886	0.21	-1.344
Mof_O 	O 	0.7553	0.8592	0.23144	-0.772
Mof_O 	O 	0.8098	0.8604	0.21148	-0.847
Mof_C 	C 	0.7945	0.8795	0.2242	0.725
Mof_C 	C 	0.8207	0.9302	0.23015	-0.247
Mof_C 	C 	0.8597	0.9569	0.22096	0.052
Mof_H 	H 	0.8706	0.9424	0.2109	0.002
Mof_C 	C 	0.8825	0.005	0.2265	-0.032
Mof_H 	H 	0.9099	0.0221	0.2204	0.005
Mof_N 	N 	0.8673	0.0279	0.2403	-0.182
Mof_C 	C 	0.829	0.003	0.24897	-0.035
Mof_H 	H 	0.8174	0.0193	0.2587	0.002
Mof_C 	C 	0.8053	0.9542	0.24434	0.055
Mof_H 	H 	0.7787	0.9375	0.2509	-0.005
Mof_O 	O 	0.7587	0.8343	0.1824	-0.944
Mof_O 	O 	0.6709	0.8301	0.17925	-0.706
Mof_C 	C 	0.7172	0.8495	0.17655	0.757
Mof_C 	C 	0.7163	0.8952	0.16516	-0.251
Mof_C 	C 	0.7618	0.9271	0.16187	0.057
Mof_H 	H 	0.7938	0.9234	0.1681	-0.003
Mof_C 	C 	0.7599	0.9644	0.1494	-0.031
Mof_H 	H 	0.7906	0.9868	0.1475	0.009
Mof_N 	N 	0.7163	0.9699	0.14	-0.173
Mof_C 	C 	0.6732	0.9385	0.14291	-0.034
Mof_H 	H 	0.6423	0.9416	0.1362	0.002
Mof_C 	C 	0.6716	0.9013	0.1554	0.055
Mof_H 	H 	0.6399	0.8801	0.1572	0.008
Mof_O 	O 	0.6109	0.8261	0.20601	-0.758
Mof_O 	O 	0.6514	0.8331	0.22987	-0.834
Mof_C 	C 	0.6147	0.8452	0.2195	0.655
Mof_C 	C 	0.5737	0.8866	0.225	-0.19
Mof_C 	C 	0.5295	0.9001	0.21538	0.018
Mof_H 	H 	0.5249	0.8832	0.2052	0.017
Mof_C 	C 	0.4921	0.9383	0.2207	-0.018
Mof_H 	H 	0.4628	0.948	0.2139	-0.005
Mof_N 	N 	0.4959	0.9617	0.2351	-0.176
Mof_C 	C 	0.5376	0.9479	0.24447	-0.013
Mof_H 	H 	0.5402	0.9639	0.2548	0.004
Mof_C 	C 	0.5773	0.911	0.23978	0.023
Mof_H 	H 	0.6067	0.9028	0.2467	0.011
Mof_O 	O 	0.7813	0.7341	0.18574	-0.879
Mof_O 	O 	0.6971	0.7208	0.1848	-0.792
Mof_C 	C 	0.7435	0.7097	0.18098	0.844
Mof_C 	C 	0.7496	0.6613	0.17097	-0.299
Mof_C 	C 	0.8005	0.6461	0.1652	0.086
Mof_H 	H 	0.8319	0.6663	0.168	-0.007
Mof_C 	C 	0.805	0.6012	0.1552	-0.054
Mof_H 	H 	0.8397	0.592	0.151	0.004
Mof_N 	N 	0.7622	0.5706	0.15124	-0.156
Mof_C 	C 	0.7136	0.5844	0.1571	-0.046
Mof_H 	H 	0.6831	0.5624	0.1545	0.018
Mof_C 	C 	0.7058	0.6295	0.1668	0.089
Mof_H 	H 	0.6704	0.6383	0.1706	-0.007
Mof_O 	O 	0.7755	0.748	0.236	-0.834
Mof_O 	O 	0.8188	0.7463	0.2139	-0.877
Mof_C 	C 	0.814	0.732	0.2279	0.791
Mof_C 	C 	0.8554	0.6955	0.23472	-0.277
Mof_C 	C 	0.8495	0.6748	0.25014	0.069
Mof_H 	H 	0.8183	0.6838	0.2563	-0.004
Mof_C 	C 	0.8893	0.641	0.25642	-0.044
Mof_H 	H 	0.8854	0.6282	0.2671	0.002
Mof_N 	N 	0.933	0.6259	0.248	-0.171
Mof_C 	C 	0.9381	0.6447	0.2331	-0.038
Mof_H 	H 	0.9686	0.6336	0.227	0.011
Mof_C 	C 	0.9006	0.6797	0.22616	0.073
Mof_H 	H 	0.906	0.6926	0.2156	-0.005
Mof_O 	O 	0.6728	0.7241	0.23385	-0.768
Mof_O 	O 	0.6338	0.7129	0.21057	-0.678
Mof_C 	C 	0.641	0.7002	0.2246	0.641
Mof_C 	C 	0.6091	0.6535	0.23112	-0.194
Mof_C 	C 	0.568	0.6299	0.22199	0.018
Mof_H 	H 	0.5609	0.6426	0.2115	0.013
Mof_C 	C 	0.5375	0.5877	0.2284	-0.015
Mof_H 	H 	0.5088	0.5727	0.2222	-0.004
Mof_N 	N 	0.5471	0.5673	0.2429	-0.185
Mof_C 	C 	0.5873	0.589	0.25153	-0.012
Mof_H 	H 	0.5948	0.5743	0.2618	-0.001
Mof_C 	C 	0.6187	0.6322	0.2461	0.02
Mof_H 	H 	0.6465	0.6469	0.2527	0.015
Mof_Cr	Cr	0.28735	0.2088	0.7318	2.514
Mof_Cr	Cr	0.3441	0.22537	0.69605	2.071
Mof_Cr	Cr	0.2138	0.2035	0.6997	2.823
Mof_Ag	Ag	0.29051	0.98249	0.61922	0.449
Mof_Ag	Ag	0.56967	0.98092	0.73921	0.459
Mof_O 	O 	0.2742	0.2114	0.71	-1.344
Mof_O 	O 	0.2447	0.1408	0.73144	-0.772
Mof_O 	O 	0.1902	0.1396	0.71148	-0.847
Mof_C 	C 	0.2055	0.1205	0.7242	0.725
Mof_C 	C 	0.1793	0.0698	0.73015	-0.247
Mof_C 	C 	0.1403	0.0431	0.72096	0.052
Mof_H 	H 	0.1294	0.0576	0.7109	0.002
Mof_C 	C 	0.1175	0.995	0.7265	-0.032
Mof_H 	H 	0.0901	0.9779	0.7204	0.005
Mof_N 	N 	0.1327	0.9721	0.7403	-0.182
Mof_C 	C 	0.171	0.997	0.74897	-0.035
Mof_H 	H 	0.1826	0.9807	0.7587	0.002
Mof_C 	C 	0.1947	0.0458	0.74434	0.055
Mof_H 	H 	0.2213	0.0625	0.7509	-0.005
Mof_O 	O 	0.2413	0.1657	0.6824	-0.944
Mof_O 	O 	0.3291	0.1699	0.67925	-0.706
Mof_C 	C 	0.2828	0.1505	0.67655	0.757
Mof_C 	C 	0.2837	0.1048	0.66516	-0.251
Mof_C 	C 	0.2382	0.0729	0.66187	0.057
Mof_H 	H 	0.2062	0.0766	0.6681	-0.003
Mof_C 	C 	0.2401	0.0356	0.6494	-0.031
Mof_H 	H 	0.2094	0.0132	0.6475	0.009
Mof_N 	N 	0.2837	0.0301	0.64	-0.173
Mof_C 	C 	0.3268	0.0615	0.64291	-0.034
Mof_H 	H 	0.3577	0.0584	0.6362	0.002
Mof_C 	C 	0.3284	0.0987	0.6554	0.055
Mof_H 	H 	0.3601	0.1199	0.6572	0.008
Mof_O 	O 	0.3891	0.1739	0.70601	-0.758
Mof_O 	O 	0.3486	0.1669	0.72987	-0.834
Mof_C 	C 	0.3853	0.1548	0.7195	0.655
Mof_C 	C 	0.4263	0.1134	0.725	-0.19
Mof_C 	C 	0.4705	0.0999	0.71538	0.018
Mof_H 	H 	0.4751	0.1168	0.7052	0.017
Mof_C 	C 	0.5079	0.0617	0.7207	-0.018
Mof_H 	H 	0.5372	0.052	0.7139	-0.005
Mof_N 	N 	0.5041	0.0383	0.7351	-0.176
Mof_C 	C 	0.4624	0.0521	0.74447	-0.013
Mof_H 	H 	0.4598	0.0361	0.7548	0.004
Mof_C 	C 	0.4227	0.089	0.73978	0.023
Mof_H 	H 	0.3933	0.0972	0.7467	0.011
Mof_O 	O 	0.2187	0.2659	0.68574	-0.879
Mof_O 	O 	0.3029	0.2792	0.6848	-0.792
Mof_C 	C 	0.2565	0.2903	0.68098	0.844
Mof_C 	C 	0.2504	0.3387	0.67097	-0.299
Mof_C 	C 	0.1995	0.3539	0.6652	0.086
Mof_H 	H 	0.1681	0.3337	0.668	-0.007
Mof_C 	C 	0.195	0.3988	0.6552	-0.054
Mof_H 	H 	0.1603	0.408	0.651	0.004
Mof_N 	N 	0.2378	0.4294	0.65124	-0.156
Mof_C 	C 	0.2864	0.4156	0.6571	-0.046
Mof_H 	H 	0.3169	0.4376	0.6545	0.018
Mof_C 	C 	0.2942	0.3705	0.6668	0.089
Mof_H 	H 	0.3296	0.3617	0.6706	-0.007
Mof_O 	O 	0.2245	0.252	0.736	-0.834
Mof_O 	O 	0.1812	0.2537	0.7139	-0.877
Mof_C 	C 	0.186	0.268	0.7279	0.791
Mof_C 	C 	0.1446	0.3045	0.73472	-0.277
Mof_C 	C 	0.1505	0.3252	0.75014	0.069
Mof_H 	H 	0.1817	0.3162	0.7563	-0.004
Mof_C 	C 	0.1107	0.359	0.75642	-0.044
Mof_H 	H 	0.1146	0.3718	0.7671	0.002
Mof_N 	N 	0.067	0.3741	0.748	-0.171
Mof_C 	C 	0.0619	0.3553	0.7331	-0.038
Mof_H 	H 	0.0314	0.3664	0.727	0.011
Mof_C 	C 	0.0994	0.3203	0.72616	0.073
Mof_H 	H 	0.094	0.3074	0.7156	-0.005
Mof_O 	O 	0.3272	0.2759	0.73385	-0.768
Mof_O 	O 	0.3662	0.2871	0.71057	-0.678
Mof_C 	C 	0.359	0.2998	0.7246	0.641
Mof_C 	C 	0.3909	0.3465	0.73112	-0.194
Mof_C 	C 	0.432	0.3701	0.72199	0.018
Mof_H 	H 	0.4391	0.3574	0.7115	0.013
Mof_C 	C 	0.4625	0.4123	0.7284	-0.015
Mof_H 	H 	0.4912	0.4273	0.7222	-0.004
Mof_N 	N 	0.4529	0.4327	0.7429	-0.185
Mof_C 	C 	0.4127	0.411	0.75153	-0.012
Mof_H 	H 	0.4052	0.4257	0.7618	-0.001
Mof_C 	C 	0.3813	0.3678	0.7461	0.02
Mof_H 	H 	0.3535	0.3531	0.7527	0.015
Mof_Cr	Cr	0.2912	0.78735	0.9818	2.514
Mof_Cr	Cr	0.27463	0.8441	0.94605	2.071
Mof_Cr	Cr	0.2965	0.7138	0.9497	2.823
Mof_Ag	Ag	0.51751	0.79051	0.86922	0.452
Mof_Ag	Ag	0.51908	0.06967	0.98921	0.461
Mof_O 	O 	0.2886	0.7742	0.96	-1.344
Mof_O 	O 	0.3592	0.7447	0.98144	-0.772
Mof_O 	O 	0.3604	0.6902	0.96148	-0.847
Mof_C 	C 	0.3795	0.7055	0.9742	0.724
Mof_C 	C 	0.4302	0.6793	0.98015	-0.244
Mof_C 	C 	0.4569	0.6403	0.97096	0.047
Mof_H 	H 	0.4424	0.6294	0.9609	0.003
Mof_C 	C 	0.505	0.6175	0.9765	-0.028
Mof_H 	H 	0.5221	0.5901	0.9704	0.004
Mof_N 	N 	0.5279	0.6327	0.9903	-0.183
Mof_C 	C 	0.503	0.671	0.99897	-0.031
Mof_H 	H 	0.5193	0.6826	0.0087	0.001
Mof_C 	C 	0.4542	0.6947	0.99434	0.05
Mof_H 	H 	0.4375	0.7213	0.0009	-0.003
Mof_O 	O 	0.3343	0.7413	0.9324	-0.944
Mof_O 	O 	0.3301	0.8291	0.92925	-0.706
Mof_C 	C 	0.3495	0.7828	0.92655	0.757
Mof_C 	C 	0.3952	0.7837	0.91516	-0.251
Mof_C 	C 	0.4271	0.7382	0.91187	0.057
Mof_H 	H 	0.4234	0.7062	0.9181	-0.003
Mof_C 	C 	0.4644	0.7401	0.8994	-0.031
Mof_H 	H 	0.4868	0.7094	0.8975	0.009
Mof_N 	N 	0.4699	0.7837	0.89	-0.174
Mof_C 	C 	0.4385	0.8268	0.89291	-0.034
Mof_H 	H 	0.4416	0.8577	0.8862	0.001
Mof_C 	C 	0.4013	0.8284	0.9054	0.055
Mof_H 	H 	0.3801	0.8601	0.9072	0.008
Mof_O 	O 	0.3261	0.8891	0.95601	-0.758
Mof_O 	O 	0.3331	0.8486	0.97987	-0.834
Mof_C 	C 	0.3452	0.8853	0.9695	0.655
Mof_C 	C 	0.3866	0.9263	0.975	-0.191
Mof_C 	C 	0.4001	0.9705	0.96538	0.021
Mof_H 	H 	0.3832	0.9751	0.9552	0.016
Mof_C 	C 	0.4383	0.0079	0.9707	-0.021
Mof_H 	H 	0.448	0.0372	0.9639	-0.005
Mof_N 	N 	0.4617	0.0041	0.9851	-0.177
Mof_C 	C 	0.4479	0.9624	0.99447	-0.012
Mof_H 	H 	0.4639	0.9598	0.0048	0.004
Mof_C 	C 	0.411	0.9227	0.98978	0.023
Mof_H 	H 	0.4028	0.8933	0.9967	0.011
Mof_O 	O 	0.2341	0.7187	0.93574	-0.879
Mof_O 	O 	0.2208	0.8029	0.9348	-0.792
Mof_C 	C 	0.2097	0.7565	0.93098	0.844
Mof_C 	C 	0.1613	0.7504	0.92097	-0.299
Mof_C 	C 	0.1461	0.6995	0.9152	0.086
Mof_H 	H 	0.1663	0.6681	0.918	-0.008
Mof_C 	C 	0.1012	0.695	0.9052	-0.054
Mof_H 	H 	0.092	0.6603	0.901	0.004
Mof_N 	N 	0.0706	0.7378	0.90124	-0.156
Mof_C 	C 	0.0844	0.7864	0.9071	-0.046
Mof_H 	H 	0.0624	0.8169	0.9045	0.017
Mof_C 	C 	0.1295	0.7942	0.9168	0.089
Mof_H 	H 	0.1383	0.8296	0.9206	-0.008
Mof_O 	O 	0.248	0.7245	0.986	-0.834
Mof_O 	O 	0.2463	0.6812	0.9639	-0.877
Mof_C 	C 	0.232	0.686	0.9779	0.791
Mof_C 	C 	0.1955	0.6446	0.98472	-0.277
Mof_C 	C 	0.1748	0.6505	0.00014	0.069
Mof_H 	H 	0.1838	0.6817	0.0063	-0.004
Mof_C 	C 	0.141	0.6107	0.00642	-0.044
Mof_H 	H 	0.1282	0.6146	0.0171	0.002
Mof_N 	N 	0.1259	0.567	0.998	-0.171
Mof_C 	C 	0.1447	0.5619	0.9831	-0.038
Mof_H 	H 	0.1336	0.5314	0.977	0.011
Mof_C 	C 	0.1797	0.5994	0.97616	0.073
Mof_H 	H 	0.1926	0.594	0.9656	-0.005
Mof_O 	O 	0.2241	0.8272	0.98385	-0.768
Mof_O 	O 	0.2129	0.8662	0.96057	-0.678
Mof_C 	C 	0.2002	0.859	0.9746	0.641
Mof_C 	C 	0.1535	0.8909	0.98112	-0.194
Mof_C 	C 	0.1299	0.932	0.97199	0.018
Mof_H 	H 	0.1426	0.9391	0.9615	0.013
Mof_C 	C 	0.0877	0.9625	0.9784	-0.015
Mof_H 	H 	0.0727	0.9912	0.9722	-0.004
Mof_N 	N 	0.0673	0.9529	0.9929	-0.184
Mof_C 	C 	0.089	0.9127	0.00153	-0.012
Mof_H 	H 	0.0743	0.9052	0.0118	-0
Mof_C 	C 	0.1322	0.8813	0.9961	0.02
Mof_H 	H 	0.1469	0.8535	0.0027	0.015
Mof_Cr	Cr	0.7088	0.21265	0.4818	2.514
Mof_Cr	Cr	0.72537	0.1559	0.44605	2.071
Mof_Cr	Cr	0.7035	0.2862	0.4497	2.823
Mof_Ag	Ag	0.48249	0.20949	0.36922	0.452
Mof_Ag	Ag	0.48092	0.93033	0.48921	0.461
Mof_O 	O 	0.7114	0.2258	0.46	-1.344
Mof_O 	O 	0.6408	0.2553	0.48144	-0.772
Mof_O 	O 	0.6396	0.3098	0.46148	-0.847
Mof_C 	C 	0.6205	0.2945	0.4742	0.724
Mof_C 	C 	0.5698	0.3207	0.48015	-0.244
Mof_C 	C 	0.5431	0.3597	0.47096	0.047
Mof_H 	H 	0.5576	0.3706	0.4609	0.003
Mof_C 	C 	0.495	0.3825	0.4765	-0.028
Mof_H 	H 	0.4779	0.4099	0.4704	0.004
Mof_N 	N 	0.4721	0.3673	0.4903	-0.183
Mof_C 	C 	0.497	0.329	0.49897	-0.031
Mof_H 	H 	0.4807	0.3174	0.5087	0.001
Mof_C 	C 	0.5458	0.3053	0.49434	0.05
Mof_H 	H 	0.5625	0.2787	0.5009	-0.003
Mof_O 	O 	0.6657	0.2587	0.4324	-0.944
Mof_O 	O 	0.6699	0.1709	0.42925	-0.706
Mof_C 	C 	0.6505	0.2172	0.42655	0.757
Mof_C 	C 	0.6048	0.2163	0.41516	-0.251
Mof_C 	C 	0.5729	0.2618	0.41187	0.057
Mof_H 	H 	0.5766	0.2938	0.4181	-0.003
Mof_C 	C 	0.5356	0.2599	0.3994	-0.031
Mof_H 	H 	0.5132	0.2906	0.3975	0.009
Mof_N 	N 	0.5301	0.2163	0.39	-0.174
Mof_C 	C 	0.5615	0.1732	0.39291	-0.034
Mof_H 	H 	0.5584	0.1423	0.3862	0.001
Mof_C 	C 	0.5987	0.1716	0.4054	0.055
Mof_H 	H 	0.6199	0.1399	0.4072	0.008
Mof_O 	O 	0.6739	0.1109	0.45601	-0.758
Mof_O 	O 	0.6669	0.1514	0.47987	-0.834
Mof_C 	C 	0.6548	0.1147	0.4695	0.655
Mof_C 	C 	0.6134	0.0737	0.475	-0.191
Mof_C 	C 	0.5999	0.0295	0.46538	0.021
Mof_H 	H 	0.6168	0.0249	0.4552	0.016
Mof_C 	C 	0.5617	0.9921	0.4707	-0.021
Mof_H 	H 	0.552	0.9628	0.4639	-0.005
Mof_N 	N 	0.5383	0.9959	0.4851	-0.177
Mof_C 	C 	0.5521	0.0376	0.49447	-0.012
Mof_H 	H 	0.5361	0.0402	0.5048	0.004
Mof_C 	C 	0.589	0.0773	0.48978	0.023
Mof_H 	H 	0.5972	0.1067	0.4967	0.011
Mof_O 	O 	0.7659	0.2813	0.43574	-0.879
Mof_O 	O 	0.7792	0.1971	0.4348	-0.792
Mof_C 	C 	0.7903	0.2435	0.43098	0.844
Mof_C 	C 	0.8387	0.2496	0.42097	-0.299
Mof_C 	C 	0.8539	0.3005	0.4152	0.086
Mof_H 	H 	0.8337	0.3319	0.418	-0.008
Mof_C 	C 	0.8988	0.305	0.4052	-0.054
Mof_H 	H 	0.908	0.3397	0.401	0.004
Mof_N 	N 	0.9294	0.2622	0.40124	-0.156
Mof_C 	C 	0.9156	0.2136	0.4071	-0.046
Mof_H 	H 	0.9376	0.1831	0.4045	0.017
Mof_C 	C 	0.8705	0.2058	0.4168	0.089
Mof_H 	H 	0.8617	0.1704	0.4206	-0.008
Mof_O 	O 	0.752	0.2755	0.486	-0.834
Mof_O 	O 	0.7537	0.3188	0.4639	-0.877
Mof_C 	C 	0.768	0.314	0.4779	0.791
Mof_C 	C 	0.8045	0.3554	0.48472	-0.277
Mof_C 	C 	0.8252	0.3495	0.50014	0.069
Mof_H 	H 	0.8162	0.3183	0.5063	-0.004
Mof_C 	C 	0.859	0.3893	0.50642	-0.044
Mof_H 	H 	0.8718	0.3854	0.5171	0.002
Mof_N 	N 	0.8741	0.433	0.498	-0.171
Mof_C 	C 	0.8553	0.4381	0.4831	-0.038
Mof_H 	H 	0.8664	0.4686	0.477	0.011
Mof_C 	C 	0.8203	0.4006	0.47616	0.073
Mof_H 	H 	0.8074	0.406	0.4656	-0.005
Mof_O 	O 	0.7759	0.1728	0.48385	-0.768
Mof_O 	O 	0.7871	0.1338	0.46057	-0.678
Mof_C 	C 	0.7998	0.141	0.4746	0.641
Mof_C 	C 	0.8465	0.1091	0.48112	-0.194
Mof_C 	C 	0.8701	0.068	0.47199	0.018
Mof_H 	H 	0.8574	0.0609	0.4615	0.013
Mof_C 	C 	0.9123	0.0375	0.4784	-0.015
Mof_H 	H 	0.9273	0.0088	0.4722	-0.004
Mof_N 	N 	0.9327	0.0471	0.4929	-0.184
Mof_C 	C 	0.911	0.0873	0.50153	-0.012
Mof_H 	H 	0.9257	0.0948	0.5118	-0
Mof_C 	C 	0.8678	0.1187	0.4961	0.02
Mof_H 	H 	0.8531	0.1465	0.5027	0.015
Mof_Ag	Ag	0.00456	0.00456	-0	0.472
Mof_Ag	Ag	0.99544	0.99544	0.5	0.472
Mof_Ag	Ag	0.49544	0.50456	0.25	0.477
Mof_Ag	Ag	0.50456	0.49544	0.75	0.477
Mof_Ag	Ag	0.59376	0.59376	-0	0.485
Mof_Ag	Ag	0.40624	0.40624	0.5	0.485
Mof_Ag	Ag	0.90624	0.09376	0.25	0.483
Mof_Ag	Ag	0.09376	0.90624	0.75	0.483
_end
