# CIF file generated by openbabel 3.1.0, see https://openbabel.org
data_I
_chemical_name_common 'SOTXAC_clean'
_cell_length_a 12.9406
_cell_length_b 12.9406
_cell_length_c 14.639
_cell_angle_alpha 83.932
_cell_angle_beta 83.932
_cell_angle_gamma 61.6245
_space_group_name_H-M_alt 'P 1'
_space_group_name_Hall 'P 1'
loop_
    _symmetry_equiv_pos_as_xyz
    x,y,z
loop_
    _atom_site_label
    _atom_site_type_symbol
    _atom_site_fract_x
    _atom_site_fract_y
    _atom_site_fract_z
    _atom_site_occupancy
    Er1      Er       0.34832    0.98972    0.02755    1.000
    Er2      Er       0.65168    0.01028    0.97245    1.000
    Er3      Er       0.01028    0.65168    0.47245    1.000
    Er4      Er       0.98972    0.34832    0.52755    1.000
    H1       H        0.21710    0.26770    0.76460    1.000
    H2       H        0.69830    0.52230    0.64090    1.000
    H3       H        0.47320    0.71400    0.84190    1.000
    H4       H        0.73230    0.78290    0.73540    1.000
    H5       H        0.52230    0.69830    0.14090    1.000
    H6       H        0.30170    0.47770    0.35910    1.000
    H7       H        0.52680    0.28600    0.15810    1.000
    H8       H        0.28600    0.52680    0.65810    1.000
    H9       H        0.47770    0.30170    0.85910    1.000
    H10      H        0.71400    0.47320    0.34190    1.000
    H11      H        0.78290    0.73230    0.23540    1.000
    H12      H        0.26770    0.21710    0.26460    1.000
    C1       C        0.35020    0.26900    0.82350    1.000
    C2       C        0.73810    0.69330    0.23700    1.000
    C3       C        0.59980    0.76020    0.79870    1.000
    C4       C        0.30340    0.46120    0.69860    1.000
    C5       C        0.67290    0.58290    0.68030    1.000
    C6       C        0.73100    0.64980    0.67650    1.000
    C7       C        0.23980    0.40020    0.70130    1.000
    C8       C        0.64980    0.73100    0.17650    1.000
    C9       C        0.69330    0.73810    0.73700    1.000
    C10      C        0.48450    0.46030    0.25370    1.000
    C11      C        0.32710    0.41710    0.31970    1.000
    C12      C        0.26190    0.30670    0.76300    1.000
    C13      C        0.39460    0.42220    0.75820    1.000
    C14      C        0.85710    0.56050    0.36460    1.000
    C15      C        0.37080    0.16940    0.89320    1.000
    C16      C        0.14290    0.43950    0.63540    1.000
    C17      C        0.76020    0.59980    0.29870    1.000
    C18      C        0.56050    0.85710    0.86460    1.000
    C19      C        0.26900    0.35020    0.32350    1.000
    C20      C        0.57780    0.60540    0.74180    1.000
    C21      C        0.69660    0.53880    0.30140    1.000
    C22      C        0.51550    0.53970    0.74630    1.000
    C23      C        0.42220    0.39460    0.25820    1.000
    C24      C        0.41710    0.32710    0.81970    1.000
    C25      C        0.30670    0.26190    0.26300    1.000
    C26      C        0.62920    0.83060    0.10680    1.000
    C27      C        0.40020    0.23980    0.20130    1.000
    C28      C        0.16940    0.37080    0.39320    1.000
    C29      C        0.83060    0.62920    0.60680    1.000
    C30      C        0.46030    0.48450    0.75370    1.000
    C31      C        0.53880    0.69660    0.80140    1.000
    C32      C        0.43950    0.14290    0.13540    1.000
    C33      C        0.53970    0.51550    0.24630    1.000
    C34      C        0.60540    0.57780    0.24180    1.000
    C35      C        0.46120    0.30340    0.19860    1.000
    C36      C        0.58290    0.67290    0.18030    1.000
    N1       N        0.16410    0.72810    0.53320    1.000
    N2       N        0.72810    0.16410    0.03320    1.000
    N3       N        0.83590    0.27190    0.46680    1.000
    N4       N        0.27190    0.83590    0.96680    1.000
    O1       O        0.89970    0.45630    0.39680    1.000
    O2       O        0.10030    0.54370    0.60320    1.000
    O3       O        0.21990    0.94610    0.95110    1.000
    O4       O        0.46390    0.11810    0.93170    1.000
    O5       O        0.53610    0.88190    0.06830    1.000
    O6       O        0.11560    0.36380    0.61770    1.000
    O7       O        0.74550    0.23150    0.07280    1.000
    O8       O        0.28760    0.14520    0.91380    1.000
    O9       O        0.85480    0.71240    0.58620    1.000
    O10      O        0.11810    0.46390    0.43170    1.000
    O11      O        0.64780    0.20200    0.97870    1.000
    O12      O        0.14520    0.28760    0.41380    1.000
    O13      O        0.45630    0.89970    0.89680    1.000
    O14      O        0.88440    0.63620    0.38230    1.000
    O15      O        0.25450    0.76850    0.92720    1.000
    O16      O        0.78010    0.05390    0.04890    1.000
    O17      O        0.05390    0.78010    0.54890    1.000
    O18      O        0.35220    0.79800    0.02130    1.000
    O19      O        0.20200    0.64780    0.47870    1.000
    O20      O        0.79800    0.35220    0.52130    1.000
    O21      O        0.94610    0.21990    0.45110    1.000
    O22      O        0.63620    0.88440    0.88230    1.000
    O23      O        0.54370    0.10030    0.10320    1.000
    O24      O        0.71240    0.85480    0.08620    1.000
    O25      O        0.23150    0.74550    0.57280    1.000
    O26      O        0.36380    0.11560    0.11770    1.000
    O27      O        0.76850    0.25450    0.42720    1.000
    O28      O        0.88190    0.53610    0.56830    1.000
