# CIF file generated by openbabel 3.1.0, see https://openbabel.org
data_I
_chemical_name_common 'YAXBOP_clean'
_cell_length_a 19.2341
_cell_length_b 11.073
_cell_length_c 6.889
_cell_angle_alpha 90
_cell_angle_beta 71.69
_cell_angle_gamma 90
_space_group_name_H-M_alt 'P 1'
_space_group_name_Hall 'P 1'
loop_
    _symmetry_equiv_pos_as_xyz
    x,y,z
loop_
    _atom_site_label
    _atom_site_type_symbol
    _atom_site_fract_x
    _atom_site_fract_y
    _atom_site_fract_z
    _atom_site_occupancy
    H1       H        0.20880    0.19190    0.33740    1.000
    H2       H        0.18070    0.21510    0.78760    1.000
    C3       C        0.18150    0.19460    0.07810    1.000
    C4       C        0.22520    0.21570    0.20100    1.000
    C5       C        0.10850    0.13400    0.15650    1.000
    C6       C        0.20850    0.22950    0.87400    1.000
    O7       O        0.07120    0.12600    0.03910    1.000
    O8       O        0.08880    0.10060    0.34370    1.000
    H9       H        0.50000    0.67211    0.75000    1.000
    H10      H        0.70880    0.69190    0.33740    1.000
    H11      H        0.68070    0.71510    0.78760    1.000
    C12      C        0.68150    0.69460    0.07810    1.000
    C13      C        0.72520    0.71570    0.20100    1.000
    C14      C        0.60850    0.63400    0.15650    1.000
    C15      C        0.70850    0.72950    0.87400    1.000
    O16      O        0.57120    0.62600    0.03910    1.000
    O17      O        0.58880    0.60060    0.34370    1.000
    H18      H        0.00000    0.17211    0.75000    1.000
    H19      H        0.79120    0.19190    0.16260    1.000
    H20      H        0.81930    0.21510    0.71240    1.000
    C21      C        0.81850    0.19460    0.42190    1.000
    C22      C        0.77480    0.21570    0.29900    1.000
    C23      C        0.89150    0.13400    0.34350    1.000
    C24      C        0.79150    0.22950    0.62600    1.000
    O25      O        0.92880    0.12600    0.46090    1.000
    O26      O        0.91120    0.10060    0.15630    1.000
    H28      H        0.29120    0.69190    0.16260    1.000
    H29      H        0.31930    0.71510    0.71240    1.000
    C30      C        0.31850    0.69460    0.42190    1.000
    C31      C        0.27480    0.71570    0.29900    1.000
    C32      C        0.39150    0.63400    0.34350    1.000
    C33      C        0.29150    0.72950    0.62600    1.000
    O34      O        0.42880    0.62600    0.46090    1.000
    O35      O        0.41120    0.60060    0.15630    1.000
    H37      H        0.79120    0.80810    0.66260    1.000
    H38      H        0.81930    0.78490    0.21240    1.000
    C39      C        0.81850    0.80540    0.92190    1.000
    C40      C        0.77480    0.78430    0.79900    1.000
    C41      C        0.89150    0.86600    0.84350    1.000
    C42      C        0.79150    0.77050    0.12600    1.000
    O43      O        0.92880    0.87400    0.96090    1.000
    O44      O        0.91120    0.89940    0.65630    1.000
    H45      H        0.50000    0.32789    0.25000    1.000
    H46      H        0.29120    0.30810    0.66260    1.000
    H47      H        0.31930    0.28490    0.21240    1.000
    C48      C        0.31850    0.30540    0.92190    1.000
    C49      C        0.27480    0.28430    0.79900    1.000
    C50      C        0.39150    0.36600    0.84350    1.000
    C51      C        0.29150    0.27050    0.12600    1.000
    O52      O        0.42880    0.37400    0.96090    1.000
    O53      O        0.41120    0.39940    0.65630    1.000
    H54      H        0.00000    0.82789    0.25000    1.000
    H55      H        0.20880    0.80810    0.83740    1.000
    H56      H        0.18070    0.78490    0.28760    1.000
    C57      C        0.18150    0.80540    0.57810    1.000
    C58      C        0.22520    0.78430    0.70100    1.000
    C59      C        0.10850    0.86600    0.65650    1.000
    C60      C        0.20850    0.77050    0.37400    1.000
    O61      O        0.07120    0.87400    0.53910    1.000
    O62      O        0.08880    0.89940    0.84370    1.000
    H64      H        0.70880    0.30810    0.83740    1.000
    H65      H        0.68070    0.28490    0.28760    1.000
    C66      C        0.68150    0.30540    0.57810    1.000
    C67      C        0.72520    0.28430    0.70100    1.000
    C68      C        0.60850    0.36600    0.65650    1.000
    C69      C        0.70850    0.27050    0.37400    1.000
    O70      O        0.57120    0.37400    0.53910    1.000
    O71      O        0.58880    0.39940    0.84370    1.000
    Fe73     Fe       0.00000    0.00000    0.00000    1.000
    Fe74     Fe       0.50000    0.50000    0.00000    1.000
    Fe75     Fe       0.00000    0.00000    0.50000    1.000
    Fe76     Fe       0.50000    0.50000    0.50000    1.000
    O77      O        0.00000    0.08180    0.75000    1.000
    O78      O        0.50000    0.58180    0.75000    1.000
    O79      O        0.00000    0.91820    0.25000    1.000
    O80      O        0.50000    0.41820    0.25000    1.000
