# CIF file generated by openbabel 3.1.0, see https://openbabel.org
data_I
_chemical_name_common 'image0'
_cell_length_a 18.079
_cell_length_b 16.435
_cell_length_c 11.603
_cell_angle_alpha 90
_cell_angle_beta 90
_cell_angle_gamma 90
_space_group_name_H-M_alt 'P 1'
_space_group_name_Hall 'P 1'
loop_
    _symmetry_equiv_pos_as_xyz
    x,y,z
loop_
    _atom_site_label
    _atom_site_type_symbol
    _atom_site_fract_x
    _atom_site_fract_y
    _atom_site_fract_z
    _atom_site_occupancy
    V1       V        0.30264    0.08712    0.62800    1.000
    Li1      Li       0.22620    0.10260    0.86060    1.000
    O1       O        0.30380    0.08590    0.42090    1.000
    O2       O        0.30015    0.97937    0.53260    1.000
    O3       O        0.30007    0.04415    0.75160    1.000
    O4       O        0.20176    0.70537    0.16650    1.000
    O5       O        0.40865    0.10413    0.59850    1.000
    O6       O        0.22140    0.07370    0.01940    1.000
    O7       O        0.19120    0.95570    0.94020    1.000
    O8       O        0.46220    0.14460    0.76170    1.000
    O9       O        0.22470    0.70990    0.35660    1.000
    O10      O        0.64580    0.36800    0.75450    1.000
    O11      O        0.69638    0.39930    0.58560    1.000
    O12      O        0.53210    0.36210    0.24090    1.000
    O13      O        0.46810    0.24860    0.23150    1.000
    C1       C        0.29280    0.01210    0.43380    1.000
    C2       C        0.26720    0.95990    0.33400    1.000
    C3       C        0.25130    0.99950    0.23050    1.000
    H1       H        0.25890    0.05530    0.22410    1.000
    C4       C        0.22400    0.95570    0.13640    1.000
    C5       C        0.21310    0.87270    0.14770    1.000
    H2       H        0.19510    0.84320    0.08530    1.000
    C6       C        0.22840    0.83240    0.25050    1.000
    C7       C        0.25660    0.87700    0.34280    1.000
    H3       H        0.26830    0.85050    0.41120    1.000
    C8       C        0.21140    0.99810    0.02180    1.000
    C9       C        0.48050    0.22560    0.47260    1.000
    H4       H        0.44470    0.19480    0.43510    1.000
    C10      C        0.64720    0.36550    0.64750    1.000
    C11      C        0.54810    0.25940    0.64510    1.000
    H5       H        0.55650    0.25160    0.72340    1.000
    C12      C        0.45180    0.15060    0.65780    1.000
    C13      C        0.21750    0.74250    0.26080    1.000
    C14      C        0.51960    0.28530    0.41220    1.000
    C15      C        0.49510    0.21230    0.58870    1.000
    C16      C        0.50510    0.29960    0.28360    1.000
    C17      C        0.58820    0.31740    0.58610    1.000
    C18      C        0.57410    0.32990    0.46870    1.000
    H6       H        0.60140    0.36840    0.42810    1.000
    V2       V        0.69736    0.91288    0.12800    1.000
    Li2      Li       0.77380    0.89740    0.36060    1.000
    O14      O        0.69620    0.91410    0.92090    1.000
    O15      O        0.69985    0.02063    0.03260    1.000
    O16      O        0.69993    0.95585    0.25160    1.000
    O17      O        0.79824    0.29463    0.66650    1.000
    O18      O        0.59135    0.89587    0.09850    1.000
    O19      O        0.77860    0.92630    0.51940    1.000
    O20      O        0.80880    0.04430    0.44020    1.000
    O21      O        0.53780    0.85540    0.26170    1.000
    O22      O        0.77530    0.29010    0.85660    1.000
    O23      O        0.35420    0.63200    0.25450    1.000
    O24      O        0.30362    0.60070    0.08560    1.000
    O25      O        0.46790    0.63790    0.74090    1.000
    O26      O        0.53190    0.75140    0.73150    1.000
    C19      C        0.70720    0.98790    0.93380    1.000
    C20      C        0.73280    0.04010    0.83400    1.000
    C21      C        0.74870    0.00050    0.73050    1.000
    H7       H        0.74110    0.94470    0.72410    1.000
    C22      C        0.77600    0.04430    0.63640    1.000
    C23      C        0.78690    0.12730    0.64770    1.000
    H8       H        0.80490    0.15680    0.58530    1.000
    C24      C        0.77160    0.16760    0.75050    1.000
    C25      C        0.74340    0.12300    0.84280    1.000
    H9       H        0.73170    0.14950    0.91120    1.000
    C26      C        0.78860    0.00190    0.52180    1.000
    C27      C        0.51950    0.77440    0.97260    1.000
    H10      H        0.55530    0.80520    0.93510    1.000
    C28      C        0.35280    0.63450    0.14750    1.000
    C29      C        0.45190    0.74060    0.14510    1.000
    H11      H        0.44350    0.74840    0.22340    1.000
    C30      C        0.54820    0.84940    0.15780    1.000
    C31      C        0.78250    0.25750    0.76080    1.000
    C32      C        0.48040    0.71470    0.91220    1.000
    C33      C        0.50490    0.78770    0.08870    1.000
    C34      C        0.49490    0.70040    0.78360    1.000
    C35      C        0.41180    0.68260    0.08610    1.000
    C36      C        0.42590    0.67010    0.96870    1.000
    H12      H        0.39860    0.63160    0.92810    1.000
    V3       V        0.80264    0.41288    0.62800    1.000
    Li3      Li       0.72620    0.39740    0.86060    1.000
    O27      O        0.80380    0.41410    0.42090    1.000
    O28      O        0.80015    0.52063    0.53260    1.000
    O29      O        0.80007    0.45585    0.75160    1.000
    O30      O        0.70176    0.79463    0.16650    1.000
    O31      O        0.90865    0.39587    0.59850    1.000
    O32      O        0.72140    0.42630    0.01940    1.000
    O33      O        0.69120    0.54430    0.94020    1.000
    O34      O        0.96220    0.35540    0.76170    1.000
    O35      O        0.72470    0.79010    0.35660    1.000
    O36      O        0.14580    0.13200    0.75450    1.000
    O37      O        0.19638    0.10070    0.58560    1.000
    O38      O        0.03210    0.13790    0.24090    1.000
    O39      O        0.96810    0.25140    0.23150    1.000
    C37      C        0.79280    0.48790    0.43380    1.000
    C38      C        0.76720    0.54010    0.33400    1.000
    C39      C        0.75130    0.50050    0.23050    1.000
    H13      H        0.75890    0.44470    0.22410    1.000
    C40      C        0.72400    0.54430    0.13640    1.000
    C41      C        0.71310    0.62730    0.14770    1.000
    H14      H        0.69510    0.65680    0.08530    1.000
    C42      C        0.72840    0.66760    0.25050    1.000
    C43      C        0.75660    0.62300    0.34280    1.000
    H15      H        0.76830    0.64950    0.41120    1.000
    C44      C        0.71140    0.50190    0.02180    1.000
    C45      C        0.98050    0.27440    0.47260    1.000
    H16      H        0.94470    0.30520    0.43510    1.000
    C46      C        0.14720    0.13450    0.64750    1.000
    C47      C        0.04810    0.24060    0.64510    1.000
    H17      H        0.05650    0.24840    0.72340    1.000
    C48      C        0.95180    0.34940    0.65780    1.000
    C49      C        0.71750    0.75750    0.26080    1.000
    C50      C        0.01960    0.21470    0.41220    1.000
    C51      C        0.99510    0.28770    0.58870    1.000
    C52      C        0.00510    0.20040    0.28360    1.000
    C53      C        0.08820    0.18260    0.58610    1.000
    C54      C        0.07410    0.17010    0.46870    1.000
    H18      H        0.10140    0.13160    0.42810    1.000
    V4       V        0.19736    0.58712    0.12800    1.000
    Li4      Li       0.27380    0.60260    0.36060    1.000
    O40      O        0.19620    0.58590    0.92090    1.000
    O41      O        0.19985    0.47937    0.03260    1.000
    O42      O        0.19993    0.54415    0.25160    1.000
    O43      O        0.29824    0.20537    0.66650    1.000
    O44      O        0.09135    0.60413    0.09850    1.000
    O45      O        0.27860    0.57370    0.51940    1.000
    O46      O        0.30880    0.45570    0.44020    1.000
    O47      O        0.03780    0.64460    0.26170    1.000
    O48      O        0.27530    0.20990    0.85660    1.000
    O49      O        0.85420    0.86800    0.25450    1.000
    O50      O        0.80362    0.89930    0.08560    1.000
    O51      O        0.96790    0.86210    0.74090    1.000
    O52      O        0.03190    0.74860    0.73150    1.000
    C55      C        0.20720    0.51210    0.93380    1.000
    C56      C        0.23280    0.45990    0.83400    1.000
    C57      C        0.24870    0.49950    0.73050    1.000
    H19      H        0.24110    0.55530    0.72410    1.000
    C58      C        0.27600    0.45570    0.63640    1.000
    C59      C        0.28690    0.37270    0.64770    1.000
    H20      H        0.30490    0.34320    0.58530    1.000
    C60      C        0.27160    0.33240    0.75050    1.000
    C61      C        0.24340    0.37700    0.84280    1.000
    H21      H        0.23170    0.35050    0.91120    1.000
    C62      C        0.28860    0.49810    0.52180    1.000
    C63      C        0.01950    0.72560    0.97260    1.000
    H22      H        0.05530    0.69480    0.93510    1.000
    C64      C        0.85280    0.86550    0.14750    1.000
    C65      C        0.95190    0.75940    0.14510    1.000
    H23      H        0.94350    0.75160    0.22340    1.000
    C66      C        0.04820    0.65060    0.15780    1.000
    C67      C        0.28250    0.24250    0.76080    1.000
    C68      C        0.98040    0.78530    0.91220    1.000
    C69      C        0.00490    0.71230    0.08870    1.000
    C70      C        0.99490    0.79960    0.78360    1.000
    C71      C        0.91180    0.81740    0.08610    1.000
    C72      C        0.92590    0.82990    0.96870    1.000
    H24      H        0.89860    0.86840    0.92810    1.000
