# CIF file generated by openbabel 3.1.0, see https://openbabel.org
data_I
_chemical_name_common 'image0'
_cell_length_a 19.5995
_cell_length_b 28.7424
_cell_length_c 20.4414
_cell_angle_alpha 90
_cell_angle_beta 91.627
_cell_angle_gamma 90
_space_group_name_H-M_alt 'P 1'
_space_group_name_Hall 'P 1'
loop_
    _symmetry_equiv_pos_as_xyz
    x,y,z
loop_
    _atom_site_label
    _atom_site_type_symbol
    _atom_site_fract_x
    _atom_site_fract_y
    _atom_site_fract_z
    _atom_site_occupancy
    Cd1      Cd       0.86022    0.17935    0.76594    1.000
    Cd2      Cd       0.34748    0.89819    0.75043    1.000
    Cd3      Cd       0.27285    0.64592    0.34697    1.000
    Cd4      Cd       0.21578    0.93083    0.86079    1.000
    O1       O        0.24750    0.25900    0.89420    1.000
    H1       H        0.26060    0.23960    0.92250    1.000
    O2       O        0.34160    0.24490    0.80020    1.000
    O3       O        0.37410    0.17040    0.89780    1.000
    H2       H        0.36630    0.18940    0.86720    1.000
    O4       O        0.30180    0.19210    0.00250    1.000
    O5       O        0.96280    0.21560    0.75330    1.000
    O6       O        0.94030    0.19390    0.85990    1.000
    O7       O        0.32580    0.95920    0.82460    1.000
    O8       O        0.40380    0.97620    0.75260    1.000
    O9       O        0.73560    0.82000    0.63670    1.000
    H3       H        0.74890    0.83780    0.60700    1.000
    O10      O        0.83210    0.83610    0.74090    1.000
    O11      O        0.86240    0.90340    0.64320    1.000
    H4       H        0.84600    0.88670    0.67260    1.000
    O12      O        0.78280    0.88330    0.52900    1.000
    O13      O        0.42910    0.88640    0.66480    1.000
    O14      O        0.45240    0.86180    0.76690    1.000
    O15      O        0.83710    0.11770    0.69710    1.000
    O16      O        0.91150    0.10020    0.77170    1.000
    O17      O        0.34440    0.57200    0.73470    1.000
    H5       H        0.30960    0.57600    0.75710    1.000
    O18      O        0.22760    0.58620    0.81080    1.000
    O19      O        0.33020    0.65200    0.85620    1.000
    H6       H        0.36790    0.64850    0.83820    1.000
    O20      O        0.45070    0.62820    0.80360    1.000
    O21      O        0.35510    0.62780    0.43560    1.000
    O22      O        0.24440    0.61660    0.44630    1.000
    O23      O        0.29340    0.86880    0.84310    1.000
    O24      O        0.20280    0.84920    0.89800    1.000
    O25      O        0.14010    0.00640    0.24420    1.000
    H7       H        0.17510    0.00070    0.26740    1.000
    O26      O        0.25000    0.99140    0.32610    1.000
    O27      O        0.15020    0.92320    0.37030    1.000
    H8       H        0.11360    0.92850    0.34930    1.000
    O28      O        0.03120    0.94770    0.30480    1.000
    O29      O        0.24090    0.95780    0.95920    1.000
    O30      O        0.13150    0.94210    0.94440    1.000
    O31      O        0.19520    0.70710    0.33100    1.000
    O32      O        0.28660    0.72660    0.38750    1.000
    N1       N        0.78410    0.15140    0.84310    1.000
    N2       N        0.80490    0.24180    0.81910    1.000
    N3       N        0.29240    0.84030    0.68910    1.000
    N4       N        0.27210    0.92760    0.67500    1.000
    N5       N        0.34260    0.67030    0.26480    1.000
    N6       N        0.31740    0.58320    0.29450    1.000
    N7       N        0.14890    0.90970    0.77070    1.000
    N8       N        0.17020    0.99490    0.80630    1.000
    C1       C        0.24550    0.23290    0.72740    1.000
    C2       C        0.20950    0.27460    0.75520    1.000
    H9       H        0.18200    0.29060    0.72060    1.000
    H10      H        0.24300    0.29700    0.77410    1.000
    C3       C        0.16200    0.25530    0.80990    1.000
    C4       C        0.09540    0.24390    0.78830    1.000
    H11      H        0.08080    0.24910    0.74420    1.000
    C5       C        0.05150    0.22480    0.83300    1.000
    C6       C        0.07100    0.22370    0.90040    1.000
    H12      H        0.03800    0.21660    0.93210    1.000
    C7       C        0.13800    0.23300    0.92050    1.000
    C8       C        0.15940    0.22360    0.98960    1.000
    H13      H        0.12100    0.22980    0.01870    1.000
    H14      H        0.19780    0.24420    0.00270    1.000
    C9       C        0.18150    0.17280    0.99590    1.000
    C10      C        0.13090    0.13840    0.99440    1.000
    H15      H        0.08450    0.14810    0.99440    1.000
    C11      C        0.14430    0.09050    0.99300    1.000
    H16      H        0.10990    0.06720    0.99270    1.000
    C12      C        0.21380    0.08090    0.99210    1.000
    H17      H        0.22520    0.04880    0.99010    1.000
    C13      C        0.26960    0.11130    0.99380    1.000
    C14      C        0.33970    0.09690    0.98350    1.000
    H18      H        0.37080    0.12130    0.00110    1.000
    H19      H        0.34890    0.06810    0.00880    1.000
    C15      C        0.35470    0.08880    0.91840    1.000
    C16      C        0.35200    0.04400    0.89150    1.000
    H20      H        0.33870    0.01860    0.91810    1.000
    C17      C        0.36880    0.03570    0.82540    1.000
    C18      C        0.38770    0.07280    0.78610    1.000
    H21      H        0.40150    0.06710    0.74270    1.000
    C19      C        0.38660    0.11950    0.81000    1.000
    C20      C        0.40410    0.15790    0.76380    1.000
    H22      H        0.43300    0.14540    0.72890    1.000
    H23      H        0.43040    0.18220    0.78770    1.000
    C21      C        0.33870    0.17960    0.73250    1.000
    C22      C        0.30450    0.15580    0.67880    1.000
    H24      H        0.32510    0.12840    0.66220    1.000
    C23      C        0.24400    0.17040    0.65030    1.000
    H25      H        0.22190    0.15450    0.61500    1.000
    C24      C        0.21810    0.21090    0.67780    1.000
    H26      H        0.17720    0.22330    0.65890    1.000
    C25      C        0.18380    0.24890    0.87410    1.000
    C26      C        0.30600    0.21930    0.75120    1.000
    C27      C        0.36960    0.12590    0.87400    1.000
    C28      C        0.24790    0.15760    0.99790    1.000
    C29      C        0.97630    0.20930    0.81740    1.000
    C30      C        0.37270    0.98810    0.79670    1.000
    C31      C        0.37690    0.28240    0.77540    1.000
    H27      H        0.34720    0.30040    0.74470    1.000
    H28      H        0.41740    0.27170    0.75190    1.000
    C32      C        0.39890    0.31290    0.83530    1.000
    H29      H        0.35840    0.32050    0.86100    1.000
    H30      H        0.43120    0.29520    0.86380    1.000
    C33      C        0.43310    0.35840    0.81350    1.000
    H31      H        0.39880    0.38020    0.79470    1.000
    H32      H        0.46780    0.35200    0.78040    1.000
    C34      C        0.46730    0.37910    0.87700    1.000
    H33      H        0.49040    0.40830    0.86640    1.000
    H34      H        0.50070    0.35690    0.89510    1.000
    H35      H        0.43230    0.38510    0.90920    1.000
    C35      C        0.31830    0.19980    0.06810    1.000
    H36      H        0.32950    0.17010    0.09050    1.000
    H37      H        0.27980    0.21470    0.09040    1.000
    C36      C        0.38030    0.23190    0.06850    1.000
    H38      H        0.41830    0.21670    0.04580    1.000
    H39      H        0.39560    0.23840    0.11420    1.000
    C37      C        0.36100    0.27730    0.03380    1.000
    H40      H        0.32270    0.29240    0.05620    1.000
    H41      H        0.34620    0.27080    0.98800    1.000
    C38      C        0.42480    0.31030    0.03520    1.000
    H42      H        0.41270    0.33980    0.01380    1.000
    H43      H        0.46200    0.29550    0.01190    1.000
    H44      H        0.43950    0.31620    0.08070    1.000
    C39      C        0.73860    0.84820    0.80500    1.000
    C40      C        0.70340    0.81110    0.77480    1.000
    H45      H        0.67690    0.79470    0.80820    1.000
    H46      H        0.73720    0.78880    0.75790    1.000
    C41      C        0.65230    0.82590    0.71550    1.000
    C42      C        0.58770    0.83610    0.73620    1.000
    H47      H        0.57600    0.83120    0.78040    1.000
    C43      C        0.53900    0.85410    0.69030    1.000
    C44      C        0.55760    0.85690    0.62650    1.000
    H48      H        0.52400    0.86400    0.59360    1.000
    C45      C        0.62440    0.84950    0.60890    1.000
    C46      C        0.64600    0.85490    0.53740    1.000
    H49      H        0.68270    0.83250    0.52770    1.000
    H50      H        0.60670    0.84890    0.50710    1.000
    C47      C        0.67090    0.90360    0.52910    1.000
    C48      C        0.62600    0.94120    0.52800    1.000
    H51      H        0.57830    0.93540    0.52910    1.000
    C49      C        0.64970    0.98910    0.52520    1.000
    H52      H        0.61880    0.01440    0.52020    1.000
    C50      C        0.72080    0.99610    0.53040    1.000
    H53      H        0.73640    0.02730    0.53120    1.000
    C51      C        0.76980    0.96170    0.53430    1.000
    C52      C        0.83700    0.97250    0.53420    1.000
    H54      H        0.84540    0.00090    0.50830    1.000
    H55      H        0.86440    0.94660    0.51690    1.000
    C53      C        0.85540    0.98190    0.62000    1.000
    C54      C        0.85600    0.03010    0.63700    1.000
    H56      H        0.84440    0.05410    0.60670    1.000
    C55      C        0.87500    0.03860    0.70160    1.000
    C56      C        0.89250    0.00300    0.74440    1.000
    H57      H        0.90980    0.01090    0.78690    1.000
    C57      C        0.88610    0.95620    0.72810    1.000
    C58      C        0.90540    0.91820    0.77100    1.000
    H58      H        0.93010    0.89400    0.74670    1.000
    H59      H        0.93530    0.92940    0.80750    1.000
    C59      C        0.84390    0.90010    0.79520    1.000
    C60      C        0.81000    0.92420    0.84180    1.000
    H60      H        0.83210    0.95190    0.85670    1.000
    C61      C        0.74850    0.91480    0.87090    1.000
    H61      H        0.73310    0.93470    0.90450    1.000
    C62      C        0.70900    0.87700    0.85190    1.000
    H62      H        0.66540    0.87100    0.86920    1.000
    C63      C        0.67250    0.83200    0.65330    1.000
    C64      C        0.80120    0.86150    0.78040    1.000
    C65      C        0.86710    0.94620    0.66360    1.000
    C66      C        0.73890    0.91700    0.52950    1.000
    C67      C        0.47190    0.86940    0.70890    1.000
    C68      C        0.87340    0.08630    0.72370    1.000
    C69      C        0.88000    0.74930    0.68000    1.000
    H63      H        0.87660    0.76840    0.63970    1.000
    H64      H        0.83280    0.74450    0.69560    1.000
    C70      C        0.91200    0.70180    0.66400    1.000
    H65      H        0.87990    0.68330    0.63770    1.000
    H66      H        0.92290    0.68530    0.70540    1.000
    H67      H        0.95400    0.70670    0.64040    1.000
    C71      C        0.80970    0.86660    0.46500    1.000
    H68      H        0.82120    0.89390    0.43770    1.000
    H69      H        0.77370    0.84870    0.44130    1.000
    C72      C        0.87350    0.83600    0.47460    1.000
    H70      H        0.91250    0.85110    0.45340    1.000
    H71      H        0.88490    0.83340    0.52190    1.000
    C73      C        0.28680    0.02400    0.36750    1.000
    H72      H        0.32300    0.03970    0.34300    1.000
    H73      H        0.30810    0.00790    0.40570    1.000
    C74      C        0.16710    0.60820    0.71410    1.000
    C75      C        0.20240    0.56620    0.67900    1.000
    H74      H        0.16830    0.55170    0.64870    1.000
    H75      H        0.21480    0.54270    0.71270    1.000
    C76      C        0.26850    0.57740    0.63900    1.000
    C77      C        0.25790    0.58810    0.57330    1.000
    H76      H        0.21450    0.58480    0.55190    1.000
    C78      C        0.31240    0.60350    0.54220    1.000
    C79      C        0.37720    0.60890    0.57090    1.000
    H77      H        0.41460    0.61960    0.54650    1.000
    C80      C        0.38470    0.59750    0.63780    1.000
    C81      C        0.45640    0.60350    0.66850    1.000
    H78      H        0.46320    0.58070    0.70440    1.000
    H79      H        0.49080    0.59720    0.63510    1.000
    C82      C        0.46650    0.65160    0.69470    1.000
    C83      C        0.47760    0.68840    0.65090    1.000
    H80      H        0.48520    0.68230    0.60600    1.000
    C84      C        0.47720    0.73430    0.67430    1.000
    H81      H        0.48290    0.75960    0.64520    1.000
    C85      C        0.46840    0.74210    0.74010    1.000
    H82      H        0.47030    0.77320    0.75570    1.000
    C86      C        0.45750    0.70860    0.78200    1.000
    C87      C        0.44200    0.71840    0.85330    1.000
    H83      H        0.47220    0.74350    0.87030    1.000
    H84      H        0.45060    0.69010    0.87990    1.000
    C88      C        0.36700    0.73320    0.85850    1.000
    C89      C        0.34730    0.78000    0.86240    1.000
    H85      H        0.37980    0.80440    0.86010    1.000
    C90      C        0.27840    0.78920    0.86970    1.000
    C91      C        0.22860    0.75560    0.87520    1.000
    H86      H        0.18260    0.76390    0.88280    1.000
    C92      C        0.24750    0.70950    0.86950    1.000
    C93      C        0.19720    0.66830    0.87340    1.000
    H87      H        0.22140    0.64050    0.89070    1.000
    H88      H        0.16030    0.67610    0.90370    1.000
    C94      C        0.16860    0.65860    0.81030    1.000
    C95      C        0.12300    0.68620    0.77230    1.000
    H89      H        0.10540    0.71270    0.79390    1.000
    C96      C        0.10070    0.68040    0.70920    1.000
    H90      H        0.07100    0.70130    0.68640    1.000
    C97      C        0.12570    0.64160    0.68340    1.000
    H91      H        0.11380    0.63610    0.63870    1.000
    C98      C        0.33030    0.58370    0.67300    1.000
    C99      C        0.18790    0.61740    0.77800    1.000
    C100     C        0.31590    0.69940    0.86130    1.000
    C101     C        0.46130    0.66360    0.75880    1.000
    C102     C        0.29980    0.61830    0.47050    1.000
    C103     C        0.26120    0.84140    0.86890    1.000
    C104     C        0.31200    0.97180    0.23140    1.000
    C105     C        0.27840    0.01320    0.19330    1.000
    H92      H        0.26620    0.03780    0.22480    1.000
    H93      H        0.31180    0.02640    0.16310    1.000
    C106     C        0.21600    0.99890    0.15520    1.000
    C107     C        0.22660    0.98380    0.09000    1.000
    H94      H        0.27120    0.98170    0.07310    1.000
    C108     C        0.16920    0.97210    0.05180    1.000
    C109     C        0.10610    0.97180    0.07710    1.000
    H95      H        0.06790    0.96330    0.05010    1.000
    C110     C        0.09650    0.98360    0.14170    1.000
    C111     C        0.02390    0.97450    0.17090    1.000
    H96      H        0.01660    0.99640    0.20740    1.000
    H97      H        0.98820    0.98050    0.13670    1.000
    C112     C        0.01700    0.92730    0.19450    1.000
    C113     C        0.00260    0.89240    0.14690    1.000
    H98      H        0.99390    0.90010    0.10230    1.000
    C114     C        0.00150    0.84620    0.16860    1.000
    H99      H        0.99230    0.82210    0.13780    1.000
    C115     C        0.01380    0.83450    0.23480    1.000
    H100     H        0.01460    0.80270    0.24750    1.000
    C116     C        0.02420    0.86780    0.28020    1.000
    C117     C        0.03900    0.85330    0.34810    1.000
    H101     H        0.01180    0.82530    0.35810    1.000
    H102     H        0.02570    0.87840    0.37830    1.000
    C118     C        0.11650    0.84230    0.35880    1.000
    C119     C        0.13710    0.79700    0.35550    1.000
    H103     H        0.10470    0.77290    0.34740    1.000
    C120     C        0.20520    0.78640    0.36380    1.000
    C121     C        0.25370    0.82090    0.37770    1.000
    H104     H        0.29990    0.81260    0.38650    1.000
    C122     C        0.23440    0.86800    0.37860    1.000
    C123     C        0.28590    0.90310    0.39090    1.000
    H105     H        0.32360    0.88970    0.41800    1.000
    H106     H        0.26590    0.92920    0.41560    1.000
    C124     C        0.31380    0.92140    0.32700    1.000
    C125     C        0.35750    0.89220    0.29200    1.000
    H107     H        0.37400    0.86460    0.31260    1.000
    C126     C        0.37750    0.90180    0.22910    1.000
    H108     H        0.40520    0.88030    0.20660    1.000
    C127     C        0.35640    0.94450    0.19760    1.000
    H109     H        0.37230    0.95320    0.15590    1.000
    C128     C        0.15300    0.99610    0.17810    1.000
    C129     C        0.29480    0.96150    0.29350    1.000
    C130     C        0.16440    0.87660    0.36850    1.000
    C131     C        0.02440    0.91280    0.25840    1.000
    C132     C        0.18420    0.95600    0.98190    1.000
    C133     C        0.23320    0.73680    0.36190    1.000
    C134     C        0.77050    0.10510    0.85490    1.000
    H110     H        0.79000    0.08270    0.82680    1.000
    C135     C        0.73280    0.09000    0.90200    1.000
    C136     C        0.70380    0.12390    0.94780    1.000
    C137     C        0.71600    0.17090    0.93420    1.000
    C138     C        0.68610    0.20740    0.97550    1.000
    H111     H        0.65890    0.20000    0.01180    1.000
    C139     C        0.69920    0.25060    0.95960    1.000
    H112     H        0.67750    0.27440    0.98390    1.000
    C140     C        0.74090    0.26430    0.91150    1.000
    C141     C        0.75270    0.31090    0.89530    1.000
    C142     C        0.79160    0.32260    0.84360    1.000
    C143     C        0.81750    0.28660    0.80830    1.000
    H113     H        0.84670    0.29410    0.77350    1.000
    C144     C        0.76860    0.23380    0.87110    1.000
    C145     C        0.75200    0.18250    0.88220    1.000
    C146     C        0.72950    0.03740    0.90650    1.000
    H114     H        0.70020    0.02850    0.94250    1.000
    H115     H        0.77550    0.02500    0.91470    1.000
    H116     H        0.71070    0.02470    0.86530    1.000
    C147     C        0.64780    0.11200    0.99600    1.000
    H117     H        0.64500    0.07820    0.00110    1.000
    H118     H        0.60390    0.12390    0.97910    1.000
    H119     H        0.65870    0.12630    0.03860    1.000
    C148     C        0.72600    0.34900    0.93690    1.000
    H120     H        0.69950    0.33550    0.97220    1.000
    H121     H        0.69670    0.36950    0.91010    1.000
    H122     H        0.76430    0.36690    0.95580    1.000
    C149     C        0.81150    0.37430    0.81900    1.000
    H123     H        0.83980    0.37200    0.78040    1.000
    H124     H        0.83700    0.39060    0.85410    1.000
    H125     H        0.76980    0.39170    0.80780    1.000
    C150     C        0.30390    0.79230    0.69760    1.000
    H126     H        0.33040    0.78230    0.73470    1.000
    C151     C        0.27860    0.75880    0.65450    1.000
    C152     C        0.23880    0.77350    0.59870    1.000
    C153     C        0.22660    0.82070    0.58940    1.000
    C154     C        0.18910    0.84420    0.53820    1.000
    H127     H        0.16940    0.82500    0.50490    1.000
    C155     C        0.17900    0.88780    0.53170    1.000
    H128     H        0.15220    0.89850    0.49530    1.000
    C156     C        0.20500    0.91960    0.57510    1.000
    C157     C        0.19430    0.96970    0.56860    1.000
    C158     C        0.22350    0.99460    0.61600    1.000
    C159     C        0.25900    0.97650    0.66460    1.000
    H129     H        0.27810    0.99740    0.69610    1.000
    C160     C        0.24380    0.90310    0.62980    1.000
    C161     C        0.25420    0.85300    0.63590    1.000
    C162     C        0.28920    0.70870    0.67110    1.000
    H130     H        0.28970    0.70490    0.71880    1.000
    H131     H        0.33280    0.69820    0.65410    1.000
    H132     H        0.25200    0.69020    0.65140    1.000
    C163     C        0.21450    0.73540    0.55090    1.000
    H133     H        0.20050    0.70790    0.57550    1.000
    H134     H        0.25180    0.72700    0.52220    1.000
    H135     H        0.17570    0.74690    0.52430    1.000
    C164     C        0.15260    0.98650    0.51090    1.000
    H136     H        0.10410    0.98570    0.52120    1.000
    H137     H        0.16060    0.96640    0.47320    1.000
    H138     H        0.16580    0.01850    0.50040    1.000
    C165     C        0.21560    0.04860    0.61360    1.000
    H139     H        0.22390    0.06150    0.65740    1.000
    H140     H        0.16920    0.05650    0.59820    1.000
    H141     H        0.24860    0.06160    0.58350    1.000
    C166     C        0.35850    0.71900    0.24790    1.000
    H142     H        0.33930    0.74370    0.27230    1.000
    C167     C        0.39920    0.72870    0.19930    1.000
    C168     C        0.42780    0.70120    0.16200    1.000
    C169     C        0.41410    0.65090    0.17610    1.000
    C170     C        0.45180    0.61200    0.14410    1.000
    H143     H        0.48310    0.61870    0.11080    1.000
    C171     C        0.44130    0.56790    0.16230    1.000
    H144     H        0.46420    0.54370    0.14030    1.000
    C172     C        0.39830    0.55650    0.21200    1.000
    C173     C        0.38620    0.51120    0.22830    1.000
    C174     C        0.33680    0.50130    0.27880    1.000
    C175     C        0.30610    0.53820    0.30770    1.000
    H145     H        0.27380    0.53140    0.34010    1.000
    C176     C        0.36570    0.58890    0.24440    1.000
    C177     C        0.37450    0.64050    0.23040    1.000
    C178     C        0.40040    0.78060    0.19080    1.000
    H146     H        0.43570    0.79400    0.22000    1.000
    H147     H        0.35580    0.79360    0.20150    1.000
    H148     H        0.41050    0.78810    0.14530    1.000
    C179     C        0.46930    0.71290    0.10150    1.000
    H149     H        0.44820    0.73930    0.07830    1.000
    H150     H        0.46990    0.68580    0.07230    1.000
    H151     H        0.51610    0.72090    0.11520    1.000
    C180     C        0.42250    0.47030    0.19910    1.000
    H152     H        0.46260    0.46240    0.22660    1.000
    H153     H        0.43690    0.47830    0.15500    1.000
    H154     H        0.39150    0.44360    0.19670    1.000
    C181     C        0.32130    0.45390    0.30080    1.000
    H155     H        0.30790    0.43470    0.26300    1.000
    H156     H        0.28370    0.45500    0.33150    1.000
    H157     H        0.36180    0.44050    0.32280    1.000
    C182     C        0.13610    0.86340    0.74990    1.000
    H158     H        0.15890    0.83910    0.77320    1.000
    C183     C        0.09560    0.85180    0.70130    1.000
    C184     C        0.06300    0.88420    0.66700    1.000
    C185     C        0.07260    0.93560    0.68540    1.000
    C186     C        0.03930    0.97320    0.65150    1.000
    H159     H        0.00930    0.96690    0.61540    1.000
    C187     C        0.05050    0.01870    0.67090    1.000
    H160     H        0.02740    0.04280    0.64750    1.000
    C188     C        0.09690    0.03160    0.72650    1.000
    C189     C        0.11020    0.07360    0.74690    1.000
    C190     C        0.15460    0.07720    0.79850    1.000
    C191     C        0.18200    0.03700    0.82570    1.000
    H161     H        0.21260    0.04070    0.86230    1.000
    C192     C        0.12980    0.99090    0.75910    1.000
    C193     C        0.11420    0.94120    0.73450    1.000
    C194     C        0.08800    0.79980    0.68290    1.000
    H162     H        0.13200    0.78780    0.66880    1.000
    H163     H        0.05390    0.79640    0.64720    1.000
    H164     H        0.07340    0.78220    0.72110    1.000
    C195     C        0.01480    0.87440    0.60490    1.000
    H165     H        0.98850    0.84590    0.61200    1.000
    H166     H        0.04260    0.87070    0.56620    1.000
    H167     H        0.98340    0.90070    0.59820    1.000
    C196     C        0.07720    0.11360    0.71550    1.000
    H168     H        0.11070    0.13090    0.69030    1.000
    H169     H        0.05850    0.13400    0.74890    1.000
    H170     H        0.04010    0.10290    0.68600    1.000
    C197     C        0.17650    0.12640    0.82380    1.000
    H171     H        0.21430    0.12320    0.85600    1.000
    H172     H        0.13780    0.14150    0.84440    1.000
    H173     H        0.19140    0.14530    0.78700    1.000
    C198     C        0.87800    0.80260    0.77890    1.000
    H174     H        0.90800    0.82030    0.81010    1.000
    H175     H        0.85030    0.78090    0.80440    1.000
    C199     C        0.92260    0.77520    0.73280    1.000
    H176     H        0.95010    0.75230    0.75840    1.000
    H177     H        0.95440    0.79670    0.71130    1.000
    C200     C        0.51690    0.61100    0.83110    1.000
    H178     H        0.54790    0.63720    0.84230    1.000
    H179     H        0.53950    0.59020    0.79980    1.000
    C201     C        0.49670    0.58490    0.89190    1.000
    H180     H        0.47590    0.60700    0.92260    1.000
    H181     H        0.53840    0.57210    0.91370    1.000
    C202     C        0.44690    0.54530    0.87850    1.000
    H182     H        0.40320    0.55830    0.86140    1.000
    H183     H        0.43790    0.52910    0.92010    1.000
    C203     C        0.47400    0.50960    0.82890    1.000
    H184     H        0.43960    0.48510    0.82170    1.000
    H185     H        0.51630    0.49580    0.84610    1.000
    H186     H        0.48220    0.52530    0.78730    1.000
    C204     C        0.98090    0.99660    0.39010    1.000
    H187     H        0.01230    0.98220    0.42300    1.000
    H188     H        0.93820    0.00510    0.41190    1.000
    C205     C        0.96530    0.96210    0.33440    1.000
    H189     H        0.94160    0.93440    0.35170    1.000
    H190     H        0.93510    0.97680    0.30080    1.000
    C206     C        0.23300    0.05930    0.38970    1.000
    H191     H        0.21500    0.07730    0.35170    1.000
    H192     H        0.19460    0.04290    0.40990    1.000
    C207     C        0.26780    0.09200    0.43940    1.000
    H193     H        0.28240    0.07380    0.47840    1.000
    H194     H        0.30910    0.10530    0.42000    1.000
    C208     C        0.22270    0.13100    0.46050    1.000
    H195     H        0.24760    0.15050    0.49230    1.000
    H196     H        0.18200    0.11810    0.48070    1.000
    H197     H        0.20890    0.14970    0.42230    1.000
    C209     C        0.19300    0.54890    0.84580    1.000
    H198     H        0.15770    0.53530    0.81590    1.000
    H199     H        0.16920    0.56290    0.88300    1.000
    C210     C        0.01430    0.04080    0.36130    1.000
    H200     H        0.03420    0.05460    0.40190    1.000
    H201     H        0.05370    0.02640    0.33980    1.000
    C211     C        0.26300    0.47710    0.81800    1.000
    H202     H        0.22250    0.46220    0.79620    1.000
    H203     H        0.28560    0.49610    0.78440    1.000
    C212     C        0.23900    0.50910    0.87230    1.000
    H204     H        0.27890    0.52260    0.89580    1.000
    H205     H        0.21280    0.49060    0.90410    1.000
    C213     C        0.00600    0.08480    0.31970    1.000
    H206     H        0.04930    0.10230    0.32110    1.000
    H207     H        0.96980    0.10420    0.33700    1.000
    H208     H        0.99480    0.07620    0.27430    1.000
    C214     C        0.31200    0.43940    0.84200    1.000
    H209     H        0.32150    0.41800    0.80630    1.000
    H210     H        0.29110    0.42220    0.87790    1.000
    H211     H        0.35440    0.45380    0.85820    1.000
    C215     C        0.86390    0.78710    0.44600    1.000
    H212     H        0.84300    0.78930    0.40160    1.000
    H213     H        0.83250    0.76920    0.47370    1.000
    C216     C        0.93310    0.76150    0.44300    1.000
    H214     H        0.92780    0.73350    0.41620    1.000
    H215     H        0.94840    0.75270    0.48760    1.000
    H216     H        0.96700    0.78210    0.42400    1.000
    C217     C        0.22200    0.46550    0.81400    1.000
    H217     H        0.22100    0.45350    0.85890    1.000
    H218     H        0.26910    0.47670    0.80590    1.000
    C218     C        0.20400    0.42550    0.76500    1.000
    H219     H        0.23890    0.40100    0.76920    1.000
    H220     H        0.20380    0.43770    0.72000    1.000
    H221     H        0.15950    0.41280    0.77450    1.000
    C219     C        0.17210    0.50610    0.80600    1.000
    H222     H        0.16840    0.51490    0.75890    1.000
    H223     H        0.12640    0.49580    0.81920    1.000
    H224     H        0.15150    0.56210    0.86510    1.000
    H225     H        0.22350    0.53860    0.88240    1.000
    Cd5      Cd       0.13978    0.67935    0.23406    1.000
    Cd6      Cd       0.65252    0.39819    0.24957    1.000
    Cd7      Cd       0.72715    0.14592    0.65303    1.000
    Cd8      Cd       0.78422    0.43083    0.13921    1.000
    O33      O        0.75250    0.75900    0.10580    1.000
    H226     H        0.73940    0.73960    0.07750    1.000
    O34      O        0.65840    0.74490    0.19980    1.000
    O35      O        0.62590    0.67040    0.10220    1.000
    H227     H        0.63370    0.68940    0.13280    1.000
    O36      O        0.69820    0.69210    0.99750    1.000
    O37      O        0.03720    0.71560    0.24670    1.000
    O38      O        0.05970    0.69390    0.14010    1.000
    O39      O        0.67420    0.45920    0.17540    1.000
    O40      O        0.59620    0.47620    0.24740    1.000
    O41      O        0.26440    0.32000    0.36330    1.000
    H228     H        0.25110    0.33780    0.39300    1.000
    O42      O        0.16790    0.33610    0.25910    1.000
    O43      O        0.13760    0.40340    0.35680    1.000
    H229     H        0.15400    0.38670    0.32740    1.000
    O44      O        0.21720    0.38330    0.47100    1.000
    O45      O        0.57090    0.38640    0.33520    1.000
    O46      O        0.54760    0.36180    0.23310    1.000
    O47      O        0.16290    0.61770    0.30290    1.000
    O48      O        0.08850    0.60020    0.22830    1.000
    O49      O        0.65560    0.07200    0.26530    1.000
    H230     H        0.69040    0.07600    0.24290    1.000
    O50      O        0.77240    0.08620    0.18920    1.000
    O51      O        0.66980    0.15200    0.14380    1.000
    H231     H        0.63210    0.14850    0.16180    1.000
    O52      O        0.54930    0.12820    0.19640    1.000
    O53      O        0.64490    0.12780    0.56440    1.000
    O54      O        0.75560    0.11660    0.55370    1.000
    O55      O        0.70660    0.36880    0.15690    1.000
    O56      O        0.79720    0.34920    0.10200    1.000
    O57      O        0.85990    0.50640    0.75580    1.000
    H232     H        0.82490    0.50070    0.73260    1.000
    O58      O        0.75000    0.49140    0.67390    1.000
    O59      O        0.84980    0.42320    0.62970    1.000
    H233     H        0.88640    0.42850    0.65070    1.000
    O60      O        0.96880    0.44770    0.69520    1.000
    O61      O        0.75910    0.45780    0.04080    1.000
    O62      O        0.86850    0.44210    0.05560    1.000
    O63      O        0.80480    0.20710    0.66900    1.000
    O64      O        0.71340    0.22660    0.61250    1.000
    N9       N        0.21590    0.65140    0.15690    1.000
    N10      N        0.19510    0.74180    0.18090    1.000
    N11      N        0.70760    0.34030    0.31090    1.000
    N12      N        0.72790    0.42760    0.32500    1.000
    N13      N        0.65740    0.17030    0.73520    1.000
    N14      N        0.68260    0.08320    0.70550    1.000
    N15      N        0.85110    0.40970    0.22930    1.000
    N16      N        0.82980    0.49490    0.19370    1.000
    C220     C        0.75450    0.73290    0.27260    1.000
    C221     C        0.79050    0.77460    0.24480    1.000
    H234     H        0.81800    0.79060    0.27940    1.000
    H235     H        0.75700    0.79700    0.22590    1.000
    C222     C        0.83800    0.75530    0.19010    1.000
    C223     C        0.90460    0.74390    0.21170    1.000
    H236     H        0.91920    0.74910    0.25580    1.000
    C224     C        0.94850    0.72480    0.16700    1.000
    C225     C        0.92900    0.72370    0.09960    1.000
    H237     H        0.96200    0.71660    0.06790    1.000
    C226     C        0.86200    0.73300    0.07950    1.000
    C227     C        0.84060    0.72360    0.01040    1.000
    H238     H        0.87900    0.72980    0.98130    1.000
    H239     H        0.80220    0.74420    0.99730    1.000
    C228     C        0.81850    0.67280    0.00410    1.000
    C229     C        0.86910    0.63840    0.00560    1.000
    H240     H        0.91550    0.64810    0.00560    1.000
    C230     C        0.85570    0.59050    0.00700    1.000
    H241     H        0.89010    0.56720    0.00730    1.000
    C231     C        0.78620    0.58090    0.00790    1.000
    H242     H        0.77480    0.54880    0.00990    1.000
    C232     C        0.73040    0.61130    0.00620    1.000
    C233     C        0.66030    0.59690    0.01650    1.000
    H243     H        0.62920    0.62130    0.99890    1.000
    H244     H        0.65110    0.56810    0.99120    1.000
    C234     C        0.64530    0.58880    0.08160    1.000
    C235     C        0.64800    0.54400    0.10850    1.000
    H245     H        0.66130    0.51860    0.08190    1.000
    C236     C        0.63120    0.53570    0.17460    1.000
    C237     C        0.61230    0.57280    0.21390    1.000
    H246     H        0.59850    0.56710    0.25730    1.000
    C238     C        0.61340    0.61950    0.19000    1.000
    C239     C        0.59590    0.65790    0.23620    1.000
    H247     H        0.56700    0.64540    0.27110    1.000
    H248     H        0.56960    0.68220    0.21230    1.000
    C240     C        0.66130    0.67960    0.26750    1.000
    C241     C        0.69550    0.65580    0.32120    1.000
    H249     H        0.67490    0.62840    0.33780    1.000
    C242     C        0.75600    0.67040    0.34970    1.000
    H250     H        0.77810    0.65450    0.38500    1.000
    C243     C        0.78190    0.71090    0.32220    1.000
    H251     H        0.82280    0.72330    0.34110    1.000
    C244     C        0.81620    0.74890    0.12590    1.000
    C245     C        0.69400    0.71930    0.24880    1.000
    C246     C        0.63040    0.62590    0.12600    1.000
    C247     C        0.75210    0.65760    0.00210    1.000
    C248     C        0.02370    0.70930    0.18260    1.000
    C249     C        0.62730    0.48810    0.20330    1.000
    C250     C        0.62310    0.78240    0.22460    1.000
    H252     H        0.65280    0.80040    0.25530    1.000
    H253     H        0.58260    0.77170    0.24810    1.000
    C251     C        0.60110    0.81290    0.16470    1.000
    H254     H        0.64160    0.82050    0.13900    1.000
    H255     H        0.56880    0.79520    0.13620    1.000
    C252     C        0.56690    0.85840    0.18650    1.000
    H256     H        0.60120    0.88020    0.20530    1.000
    H257     H        0.53220    0.85200    0.21960    1.000
    C253     C        0.53270    0.87910    0.12300    1.000
    H258     H        0.50960    0.90830    0.13360    1.000
    H259     H        0.49930    0.85690    0.10490    1.000
    H260     H        0.56770    0.88510    0.09080    1.000
    C254     C        0.68170    0.69980    0.93190    1.000
    H261     H        0.67050    0.67010    0.90950    1.000
    H262     H        0.72020    0.71470    0.90960    1.000
    C255     C        0.61970    0.73190    0.93150    1.000
    H263     H        0.58170    0.71670    0.95420    1.000
    H264     H        0.60440    0.73840    0.88580    1.000
    C256     C        0.63900    0.77730    0.96620    1.000
    H265     H        0.67730    0.79240    0.94380    1.000
    H266     H        0.65380    0.77080    0.01200    1.000
    C257     C        0.57520    0.81030    0.96480    1.000
    H267     H        0.58730    0.83980    0.98620    1.000
    H268     H        0.53800    0.79550    0.98810    1.000
    H269     H        0.56050    0.81620    0.91930    1.000
    C258     C        0.26140    0.34820    0.19500    1.000
    C259     C        0.29660    0.31110    0.22520    1.000
    H270     H        0.32310    0.29470    0.19180    1.000
    H271     H        0.26280    0.28880    0.24210    1.000
    C260     C        0.34770    0.32590    0.28450    1.000
    C261     C        0.41230    0.33610    0.26380    1.000
    H272     H        0.42400    0.33120    0.21960    1.000
    C262     C        0.46100    0.35410    0.30970    1.000
    C263     C        0.44240    0.35690    0.37350    1.000
    H273     H        0.47600    0.36400    0.40640    1.000
    C264     C        0.37560    0.34950    0.39110    1.000
    C265     C        0.35400    0.35490    0.46260    1.000
    H274     H        0.31730    0.33250    0.47230    1.000
    H275     H        0.39330    0.34890    0.49290    1.000
    C266     C        0.32910    0.40360    0.47090    1.000
    C267     C        0.37400    0.44120    0.47200    1.000
    H276     H        0.42170    0.43540    0.47090    1.000
    C268     C        0.35030    0.48910    0.47480    1.000
    H277     H        0.38120    0.51440    0.47980    1.000
    C269     C        0.27920    0.49610    0.46960    1.000
    H278     H        0.26360    0.52730    0.46880    1.000
    C270     C        0.23020    0.46170    0.46570    1.000
    C271     C        0.16300    0.47250    0.46580    1.000
    H279     H        0.15460    0.50090    0.49170    1.000
    H280     H        0.13560    0.44660    0.48310    1.000
    C272     C        0.14460    0.48190    0.38000    1.000
    C273     C        0.14400    0.53010    0.36300    1.000
    H281     H        0.15560    0.55410    0.39330    1.000
    C274     C        0.12500    0.53860    0.29840    1.000
    C275     C        0.10750    0.50300    0.25560    1.000
    H282     H        0.09020    0.51090    0.21310    1.000
    C276     C        0.11390    0.45620    0.27190    1.000
    C277     C        0.09460    0.41820    0.22900    1.000
    H283     H        0.06990    0.39400    0.25330    1.000
    H284     H        0.06470    0.42940    0.19250    1.000
    C278     C        0.15610    0.40010    0.20480    1.000
    C279     C        0.19000    0.42420    0.15820    1.000
    H285     H        0.16790    0.45190    0.14330    1.000
    C280     C        0.25150    0.41480    0.12910    1.000
    H286     H        0.26690    0.43470    0.09550    1.000
    C281     C        0.29100    0.37700    0.14810    1.000
    H287     H        0.33460    0.37100    0.13080    1.000
    C282     C        0.32750    0.33200    0.34670    1.000
    C283     C        0.19880    0.36150    0.21960    1.000
    C284     C        0.13290    0.44620    0.33640    1.000
    C285     C        0.26110    0.41700    0.47050    1.000
    C286     C        0.52810    0.36940    0.29110    1.000
    C287     C        0.12660    0.58630    0.27630    1.000
    C288     C        0.12000    0.24930    0.32000    1.000
    H288     H        0.12340    0.26840    0.36030    1.000
    H289     H        0.16720    0.24450    0.30440    1.000
    C289     C        0.08800    0.20180    0.33600    1.000
    H290     H        0.12010    0.18330    0.36230    1.000
    H291     H        0.07710    0.18530    0.29460    1.000
    H292     H        0.04600    0.20670    0.35960    1.000
    C290     C        0.19030    0.36660    0.53500    1.000
    H293     H        0.17880    0.39390    0.56230    1.000
    H294     H        0.22630    0.34870    0.55870    1.000
    C291     C        0.12650    0.33600    0.52540    1.000
    H295     H        0.08750    0.35110    0.54660    1.000
    H296     H        0.11510    0.33340    0.47810    1.000
    C292     C        0.71320    0.52400    0.63250    1.000
    H297     H        0.67700    0.53970    0.65700    1.000
    H298     H        0.69190    0.50790    0.59430    1.000
    C293     C        0.83290    0.10820    0.28590    1.000
    C294     C        0.79760    0.06620    0.32100    1.000
    H299     H        0.83170    0.05170    0.35130    1.000
    H300     H        0.78520    0.04270    0.28730    1.000
    C295     C        0.73150    0.07740    0.36100    1.000
    C296     C        0.74210    0.08810    0.42670    1.000
    H301     H        0.78550    0.08480    0.44810    1.000
    C297     C        0.68760    0.10350    0.45780    1.000
    C298     C        0.62280    0.10890    0.42910    1.000
    H302     H        0.58540    0.11960    0.45350    1.000
    C299     C        0.61530    0.09750    0.36220    1.000
    C300     C        0.54360    0.10350    0.33150    1.000
    H303     H        0.53680    0.08070    0.29560    1.000
    H304     H        0.50920    0.09720    0.36490    1.000
    C301     C        0.53350    0.15160    0.30530    1.000
    C302     C        0.52240    0.18840    0.34910    1.000
    H305     H        0.51480    0.18230    0.39400    1.000
    C303     C        0.52280    0.23430    0.32570    1.000
    H306     H        0.51710    0.25960    0.35480    1.000
    C304     C        0.53160    0.24210    0.25990    1.000
    H307     H        0.52970    0.27320    0.24430    1.000
    C305     C        0.54250    0.20860    0.21800    1.000
    C306     C        0.55800    0.21840    0.14670    1.000
    H308     H        0.52780    0.24350    0.12970    1.000
    H309     H        0.54940    0.19010    0.12010    1.000
    C307     C        0.63300    0.23320    0.14150    1.000
    C308     C        0.65270    0.28000    0.13760    1.000
    H310     H        0.62020    0.30440    0.13990    1.000
    C309     C        0.72160    0.28920    0.13030    1.000
    C310     C        0.77140    0.25560    0.12480    1.000
    H311     H        0.81740    0.26390    0.11720    1.000
    C311     C        0.75250    0.20950    0.13050    1.000
    C312     C        0.80280    0.16830    0.12660    1.000
    H312     H        0.77860    0.14050    0.10930    1.000
    H313     H        0.83970    0.17610    0.09630    1.000
    C313     C        0.83140    0.15860    0.18970    1.000
    C314     C        0.87700    0.18620    0.22770    1.000
    H314     H        0.89460    0.21270    0.20610    1.000
    C315     C        0.89930    0.18040    0.29080    1.000
    H315     H        0.92900    0.20130    0.31360    1.000
    C316     C        0.87430    0.14160    0.31660    1.000
    H316     H        0.88620    0.13610    0.36130    1.000
    C317     C        0.66970    0.08370    0.32700    1.000
    C318     C        0.81210    0.11740    0.22200    1.000
    C319     C        0.68410    0.19940    0.13870    1.000
    C320     C        0.53870    0.16360    0.24120    1.000
    C321     C        0.70020    0.11830    0.52950    1.000
    C322     C        0.73880    0.34140    0.13110    1.000
    C323     C        0.68800    0.47180    0.76860    1.000
    C324     C        0.72160    0.51320    0.80670    1.000
    H317     H        0.73380    0.53780    0.77520    1.000
    H318     H        0.68820    0.52640    0.83690    1.000
    C325     C        0.78400    0.49890    0.84480    1.000
    C326     C        0.77340    0.48380    0.91000    1.000
    H319     H        0.72880    0.48170    0.92690    1.000
    C327     C        0.83080    0.47210    0.94820    1.000
    C328     C        0.89390    0.47180    0.92290    1.000
    H320     H        0.93210    0.46330    0.94990    1.000
    C329     C        0.90350    0.48360    0.85830    1.000
    C330     C        0.97610    0.47450    0.82910    1.000
    H321     H        0.98340    0.49640    0.79260    1.000
    H322     H        0.01180    0.48050    0.86330    1.000
    C331     C        0.98300    0.42730    0.80550    1.000
    C332     C        0.99740    0.39240    0.85310    1.000
    H323     H        0.00610    0.40010    0.89770    1.000
    C333     C        0.99850    0.34620    0.83140    1.000
    H324     H        0.00770    0.32210    0.86220    1.000
    C334     C        0.98620    0.33450    0.76520    1.000
    H325     H        0.98540    0.30270    0.75250    1.000
    C335     C        0.97580    0.36780    0.71980    1.000
    C336     C        0.96100    0.35330    0.65190    1.000
    H326     H        0.98820    0.32530    0.64190    1.000
    H327     H        0.97430    0.37840    0.62170    1.000
    C337     C        0.88350    0.34230    0.64120    1.000
    C338     C        0.86290    0.29700    0.64450    1.000
    H328     H        0.89530    0.27290    0.65260    1.000
    C339     C        0.79480    0.28640    0.63620    1.000
    C340     C        0.74630    0.32090    0.62230    1.000
    H329     H        0.70010    0.31260    0.61350    1.000
    C341     C        0.76560    0.36800    0.62140    1.000
    C342     C        0.71410    0.40310    0.60910    1.000
    H330     H        0.67640    0.38970    0.58200    1.000
    H331     H        0.73410    0.42920    0.58440    1.000
    C343     C        0.68620    0.42140    0.67300    1.000
    C344     C        0.64250    0.39220    0.70800    1.000
    H332     H        0.62600    0.36460    0.68740    1.000
    C345     C        0.62250    0.40180    0.77090    1.000
    H333     H        0.59480    0.38030    0.79340    1.000
    C346     C        0.64360    0.44450    0.80240    1.000
    H334     H        0.62770    0.45320    0.84410    1.000
    C347     C        0.84700    0.49610    0.82190    1.000
    C348     C        0.70520    0.46150    0.70650    1.000
    C349     C        0.83560    0.37660    0.63150    1.000
    C350     C        0.97560    0.41280    0.74160    1.000
    C351     C        0.81580    0.45600    0.01810    1.000
    C352     C        0.76680    0.23680    0.63810    1.000
    C353     C        0.22950    0.60510    0.14510    1.000
    H335     H        0.21000    0.58270    0.17320    1.000
    C354     C        0.26720    0.59000    0.09800    1.000
    C355     C        0.29620    0.62390    0.05220    1.000
    C356     C        0.28400    0.67090    0.06580    1.000
    C357     C        0.31390    0.70740    0.02450    1.000
    H336     H        0.34110    0.70000    0.98820    1.000
    C358     C        0.30080    0.75060    0.04040    1.000
    H337     H        0.32250    0.77440    0.01610    1.000
    C359     C        0.25910    0.76430    0.08850    1.000
    C360     C        0.24730    0.81090    0.10470    1.000
    C361     C        0.20840    0.82260    0.15640    1.000
    C362     C        0.18250    0.78660    0.19170    1.000
    H338     H        0.15330    0.79410    0.22650    1.000
    C363     C        0.23140    0.73380    0.12890    1.000
    C364     C        0.24800    0.68250    0.11780    1.000
    C365     C        0.27050    0.53740    0.09350    1.000
    H339     H        0.29980    0.52850    0.05750    1.000
    H340     H        0.22450    0.52500    0.08530    1.000
    H341     H        0.28930    0.52470    0.13470    1.000
    C366     C        0.35220    0.61200    0.00400    1.000
    H342     H        0.35500    0.57820    0.99890    1.000
    H343     H        0.39610    0.62390    0.02090    1.000
    H344     H        0.34130    0.62630    0.96140    1.000
    C367     C        0.27400    0.84900    0.06310    1.000
    H345     H        0.30050    0.83550    0.02780    1.000
    H346     H        0.30330    0.86950    0.08990    1.000
    H347     H        0.23570    0.86690    0.04420    1.000
    C368     C        0.18850    0.87430    0.18100    1.000
    H348     H        0.16020    0.87200    0.21960    1.000
    H349     H        0.16300    0.89060    0.14590    1.000
    H350     H        0.23020    0.89170    0.19220    1.000
    C369     C        0.69610    0.29230    0.30240    1.000
    H351     H        0.66960    0.28230    0.26530    1.000
    C370     C        0.72140    0.25880    0.34550    1.000
    C371     C        0.76120    0.27350    0.40130    1.000
    C372     C        0.77340    0.32070    0.41060    1.000
    C373     C        0.81090    0.34420    0.46180    1.000
    H352     H        0.83060    0.32500    0.49510    1.000
    C374     C        0.82100    0.38780    0.46830    1.000
    H353     H        0.84780    0.39850    0.50470    1.000
    C375     C        0.79500    0.41960    0.42490    1.000
    C376     C        0.80570    0.46970    0.43140    1.000
    C377     C        0.77650    0.49460    0.38400    1.000
    C378     C        0.74100    0.47650    0.33540    1.000
    H354     H        0.72190    0.49740    0.30390    1.000
    C379     C        0.75620    0.40310    0.37020    1.000
    C380     C        0.74580    0.35300    0.36410    1.000
    C381     C        0.71080    0.20870    0.32890    1.000
    H355     H        0.71030    0.20490    0.28120    1.000
    H356     H        0.66720    0.19820    0.34590    1.000
    H357     H        0.74800    0.19020    0.34860    1.000
    C382     C        0.78550    0.23540    0.44910    1.000
    H358     H        0.79950    0.20790    0.42450    1.000
    H359     H        0.74820    0.22700    0.47780    1.000
    H360     H        0.82430    0.24690    0.47570    1.000
    C383     C        0.84740    0.48650    0.48910    1.000
    H361     H        0.89590    0.48570    0.47880    1.000
    H362     H        0.83940    0.46640    0.52680    1.000
    H363     H        0.83420    0.51850    0.49960    1.000
    C384     C        0.78440    0.54860    0.38640    1.000
    H364     H        0.77610    0.56150    0.34260    1.000
    H365     H        0.83080    0.55650    0.40180    1.000
    H366     H        0.75140    0.56160    0.41650    1.000
    C385     C        0.64150    0.21900    0.75210    1.000
    H367     H        0.66070    0.24370    0.72770    1.000
    C386     C        0.60080    0.22870    0.80070    1.000
    C387     C        0.57220    0.20120    0.83800    1.000
    C388     C        0.58590    0.15090    0.82390    1.000
    C389     C        0.54820    0.11200    0.85590    1.000
    H368     H        0.51690    0.11870    0.88920    1.000
    C390     C        0.55870    0.06790    0.83770    1.000
    H369     H        0.53580    0.04370    0.85970    1.000
    C391     C        0.60170    0.05650    0.78800    1.000
    C392     C        0.61380    0.01120    0.77170    1.000
    C393     C        0.66320    0.00130    0.72120    1.000
    C394     C        0.69390    0.03820    0.69230    1.000
    H370     H        0.72620    0.03140    0.65990    1.000
    C395     C        0.63430    0.08890    0.75560    1.000
    C396     C        0.62550    0.14050    0.76960    1.000
    C397     C        0.59960    0.28060    0.80920    1.000
    H371     H        0.56430    0.29400    0.78000    1.000
    H372     H        0.64420    0.29360    0.79850    1.000
    H373     H        0.58950    0.28810    0.85470    1.000
    C398     C        0.53070    0.21290    0.89850    1.000
    H374     H        0.55180    0.23930    0.92170    1.000
    H375     H        0.53010    0.18580    0.92770    1.000
    H376     H        0.48390    0.22090    0.88480    1.000
    C399     C        0.57750    0.97030    0.80090    1.000
    H377     H        0.53740    0.96240    0.77340    1.000
    H378     H        0.56310    0.97830    0.84500    1.000
    H379     H        0.60850    0.94360    0.80330    1.000
    C400     C        0.67870    0.95390    0.69920    1.000
    H380     H        0.69210    0.93470    0.73700    1.000
    H381     H        0.71630    0.95500    0.66850    1.000
    H382     H        0.63820    0.94050    0.67720    1.000
    C401     C        0.86390    0.36340    0.25010    1.000
    H383     H        0.84110    0.33910    0.22680    1.000
    C402     C        0.90440    0.35180    0.29870    1.000
    C403     C        0.93700    0.38420    0.33300    1.000
    C404     C        0.92740    0.43560    0.31460    1.000
    C405     C        0.96070    0.47320    0.34850    1.000
    H384     H        0.99070    0.46690    0.38460    1.000
    C406     C        0.94950    0.51870    0.32910    1.000
    H385     H        0.97260    0.54280    0.35250    1.000
    C407     C        0.90310    0.53160    0.27350    1.000
    C408     C        0.88980    0.57360    0.25310    1.000
    C409     C        0.84540    0.57720    0.20150    1.000
    C410     C        0.81800    0.53700    0.17430    1.000
    H386     H        0.78740    0.54070    0.13770    1.000
    C411     C        0.87020    0.49090    0.24090    1.000
    C412     C        0.88580    0.44120    0.26550    1.000
    C413     C        0.91200    0.29980    0.31710    1.000
    H387     H        0.86800    0.28780    0.33120    1.000
    H388     H        0.94610    0.29640    0.35280    1.000
    H389     H        0.92660    0.28220    0.27890    1.000
    C414     C        0.98520    0.37440    0.39510    1.000
    H390     H        0.01150    0.34590    0.38800    1.000
    H391     H        0.95740    0.37070    0.43380    1.000
    H392     H        0.01660    0.40070    0.40180    1.000
    C415     C        0.92280    0.61360    0.28450    1.000
    H393     H        0.88930    0.63090    0.30970    1.000
    H394     H        0.94150    0.63400    0.25110    1.000
    H395     H        0.95990    0.60290    0.31400    1.000
    C416     C        0.82350    0.62640    0.17620    1.000
    H396     H        0.78570    0.62320    0.14400    1.000
    H397     H        0.86220    0.64150    0.15560    1.000
    H398     H        0.80860    0.64530    0.21300    1.000
    C417     C        0.12200    0.30260    0.22110    1.000
    H399     H        0.09200    0.32030    0.18990    1.000
    H400     H        0.14970    0.28090    0.19560    1.000
    C418     C        0.07740    0.27520    0.26720    1.000
    H401     H        0.04990    0.25230    0.24160    1.000
    H402     H        0.04560    0.29670    0.28870    1.000
    C419     C        0.48310    0.11100    0.16890    1.000
    H403     H        0.45210    0.13720    0.15770    1.000
    H404     H        0.46050    0.09020    0.20020    1.000
    C420     C        0.50330    0.08490    0.10810    1.000
    H405     H        0.52410    0.10700    0.07740    1.000
    H406     H        0.46160    0.07210    0.08630    1.000
    C421     C        0.55310    0.04530    0.12150    1.000
    H407     H        0.59680    0.05830    0.13860    1.000
    H408     H        0.56210    0.02910    0.07990    1.000
    C422     C        0.52600    0.00960    0.17110    1.000
    H409     H        0.56040    0.98510    0.17830    1.000
    H410     H        0.48370    0.99580    0.15390    1.000
    H411     H        0.51780    0.02530    0.21270    1.000
    C423     C        0.01910    0.49660    0.60990    1.000
    H412     H        0.98770    0.48220    0.57700    1.000
    H413     H        0.06180    0.50510    0.58810    1.000
    C424     C        0.03470    0.46210    0.66560    1.000
    H414     H        0.05840    0.43440    0.64830    1.000
    H415     H        0.06490    0.47680    0.69920    1.000
    C425     C        0.76700    0.55930    0.61030    1.000
    H416     H        0.78500    0.57730    0.64830    1.000
    H417     H        0.80540    0.54290    0.59010    1.000
    C426     C        0.73220    0.59200    0.56060    1.000
    H418     H        0.71760    0.57380    0.52160    1.000
    H419     H        0.69090    0.60530    0.58000    1.000
    C427     C        0.77730    0.63100    0.53950    1.000
    H420     H        0.75240    0.65050    0.50770    1.000
    H421     H        0.81800    0.61810    0.51930    1.000
    H422     H        0.79110    0.64970    0.57770    1.000
    C428     C        0.80700    0.04890    0.15420    1.000
    H423     H        0.84230    0.03530    0.18410    1.000
    H424     H        0.83080    0.06290    0.11700    1.000
    C429     C        0.98570    0.54080    0.63870    1.000
    H425     H        0.96580    0.55460    0.59810    1.000
    H426     H        0.94630    0.52640    0.66020    1.000
    C430     C        0.73700    0.97710    0.18200    1.000
    H427     H        0.77750    0.96220    0.20380    1.000
    H428     H        0.71440    0.99610    0.21560    1.000
    C431     C        0.76100    0.00910    0.12770    1.000
    H429     H        0.72110    0.02260    0.10420    1.000
    H430     H        0.78720    0.99060    0.09590    1.000
    C432     C        0.99400    0.58480    0.68030    1.000
    H431     H        0.95070    0.60230    0.67890    1.000
    H432     H        0.03020    0.60420    0.66300    1.000
    H433     H        0.00520    0.57620    0.72570    1.000
    C433     C        0.68800    0.93940    0.15800    1.000
    H434     H        0.67850    0.91800    0.19370    1.000
    H435     H        0.70890    0.92220    0.12210    1.000
    H436     H        0.64560    0.95380    0.14180    1.000
    C434     C        0.13610    0.28710    0.55400    1.000
    H437     H        0.15700    0.28930    0.59840    1.000
    H438     H        0.16750    0.26920    0.52630    1.000
    C435     C        0.06690    0.26150    0.55700    1.000
    H439     H        0.07220    0.23350    0.58380    1.000
    H440     H        0.05160    0.25270    0.51240    1.000
    H441     H        0.03300    0.28210    0.57600    1.000
    C436     C        0.77800    0.96550    0.18600    1.000
    H442     H        0.77900    0.95350    0.14110    1.000
    H443     H        0.73090    0.97670    0.19410    1.000
    C437     C        0.79600    0.92550    0.23500    1.000
    H444     H        0.76110    0.90100    0.23080    1.000
    H445     H        0.79620    0.93770    0.28000    1.000
    H446     H        0.84050    0.91280    0.22550    1.000
    C438     C        0.82790    0.00610    0.19400    1.000
    H447     H        0.83160    0.01490    0.24110    1.000
    H448     H        0.87360    0.99580    0.18080    1.000
    H449     H        0.84850    0.06210    0.13490    1.000
    H450     H        0.77650    0.03860    0.11760    1.000
