data_functionalizedCrystal
_audit_creation_method	'EQeq! by Chris Wilmer'
_symmetry_space_group_name_H-M	'P1'
_symmetry_Int_Tables_number	1
_symmetry_cell_setting	triclinic
loop_
_symmetry_equiv_pos_as_xyz
  x,y,z
_cell_length_a	18.443
_cell_length_b	18.443
_cell_length_c	15.166
_cell_angle_alpha	90
_cell_angle_beta	90
_cell_angle_gamma	90
loop_
_atom_site_label
_atom_site_type_symbol
_atom_site_fract_x
_atom_site_fract_y
_atom_site_fract_z
_atom_site_charge
Mof_C 	C 	0.6859	0.947	0.3626	0.037
Mof_C 	C 	0.6958	0.9606	0.2738	-0.025
Mof_H 	H 	0.7321	0.9366	0.2428	0.039
Mof_C 	C 	0.6512	0.0102	0.2312	-0.107
Mof_H 	H 	0.658	0.0182	0.1712	0.059
Mof_C 	C 	0.5983	0.0475	0.2735	0.055
Mof_C 	C 	0.5886	0.0336	0.3645	-0.107
Mof_H 	H 	0.5523	0.058	0.395	0.062
Mof_C 	C 	0.6313	0.9854	0.4086	-0.019
Mof_H 	H 	0.6245	0.9777	0.4687	0.048
Mof_C 	C 	0.732	0.8909	0.4087	-0.11
Mof_H 	H 	0.7017	0.8621	0.4475	0.073
Mof_H 	H 	0.7531	0.8587	0.3651	0.064
Mof_C 	C 	0.8478	0.9644	0.5687	0.103
Mof_H 	H 	0.8597	0.9784	0.6258	-0.008
Mof_C 	C 	0.8564	0.9414	0.4346	0.097
Mof_H 	H 	0.8737	0.9349	0.3775	-0.013
Mof_N 	N 	0.7908	0.925	0.4608	-0.084
Mof_N 	N 	0.7844	0.9394	0.5471	-0.094
Mof_N 	N 	0.8946	0.9684	0.5007	-0.233
Mof_C 	C 	0.3141	0.053	0.3626	0.144
Mof_C 	C 	0.3042	0.0394	0.2738	-0.196
Mof_H 	H 	0.2679	0.0634	0.2428	0.086
Mof_C 	C 	0.3488	0.9898	0.2312	0.07
Mof_H 	H 	0.342	0.9818	0.1712	0.008
Mof_C 	C 	0.4017	0.9525	0.2735	-0.064
Mof_C 	C 	0.4114	0.9664	0.3645	0.069
Mof_H 	H 	0.4477	0.942	0.395	0.012
Mof_C 	C 	0.3687	0.0146	0.4086	-0.191
Mof_H 	H 	0.3755	0.0223	0.4687	0.096
Mof_C 	C 	0.268	0.1091	0.4087	-0.173
Mof_H 	H 	0.2983	0.1379	0.4475	0.087
Mof_H 	H 	0.2469	0.1413	0.3651	0.077
Mof_C 	C 	0.1522	0.0356	0.5687	0.096
Mof_H 	H 	0.1403	0.0216	0.6258	-0.022
Mof_C 	C 	0.1436	0.0586	0.4346	0.087
Mof_H 	H 	0.1263	0.0651	0.3775	-0.024
Mof_N 	N 	0.2092	0.075	0.4608	-0.078
Mof_N 	N 	0.2156	0.0606	0.5471	-0.101
Mof_N 	N 	0.1054	0.0316	0.5007	-0.248
Mof_C 	C 	0.947	0.3141	0.6374	0.03
Mof_C 	C 	0.9606	0.3042	0.7262	-0.017
Mof_H 	H 	0.9366	0.2679	0.7572	0.038
Mof_C 	C 	0.0102	0.3488	0.7688	-0.115
Mof_H 	H 	0.0182	0.342	0.8288	0.066
Mof_C 	C 	0.0475	0.4017	0.7265	0.063
Mof_C 	C 	0.0336	0.4114	0.6355	-0.115
Mof_H 	H 	0.058	0.4477	0.605	0.064
Mof_C 	C 	0.9854	0.3687	0.5914	-0.012
Mof_H 	H 	0.9777	0.3755	0.5313	0.044
Mof_C 	C 	0.8909	0.268	0.5913	-0.106
Mof_H 	H 	0.8621	0.2983	0.5525	0.07
Mof_H 	H 	0.8587	0.2469	0.6349	0.062
Mof_C 	C 	0.9644	0.1522	0.4313	0.1
Mof_H 	H 	0.9784	0.1403	0.3742	-0.016
Mof_C 	C 	0.9414	0.1436	0.5654	0.094
Mof_H 	H 	0.9349	0.1263	0.6225	-0.016
Mof_N 	N 	0.925	0.2092	0.5392	-0.085
Mof_N 	N 	0.9394	0.2156	0.4529	-0.098
Mof_N 	N 	0.9684	0.1054	0.4993	-0.24
Mof_C 	C 	0.053	0.6859	0.6374	0.144
Mof_C 	C 	0.0394	0.6958	0.7262	-0.191
Mof_H 	H 	0.0634	0.7321	0.7572	0.092
Mof_C 	C 	0.9898	0.6512	0.7688	0.066
Mof_H 	H 	0.9818	0.658	0.8288	0.016
Mof_C 	C 	0.9525	0.5983	0.7265	-0.058
Mof_C 	C 	0.9664	0.5886	0.6355	0.065
Mof_H 	H 	0.942	0.5523	0.605	0.012
Mof_C 	C 	0.0146	0.6313	0.5914	-0.188
Mof_H 	H 	0.0223	0.6245	0.5313	0.094
Mof_C 	C 	0.1091	0.732	0.5913	-0.173
Mof_H 	H 	0.1379	0.7017	0.5525	0.089
Mof_H 	H 	0.1413	0.7531	0.6349	0.083
Mof_C 	C 	0.0356	0.8478	0.4313	0.099
Mof_H 	H 	0.0216	0.8597	0.3742	-0.02
Mof_C 	C 	0.0586	0.8564	0.5654	0.09
Mof_H 	H 	0.0651	0.8737	0.6225	-0.014
Mof_N 	N 	0.075	0.7908	0.5392	-0.077
Mof_N 	N 	0.0606	0.7844	0.4529	-0.102
Mof_N 	N 	0.0316	0.8946	0.4993	-0.24
Mof_C 	C 	0.1859	0.553	0.8626	0.107
Mof_C 	C 	0.1958	0.5394	0.7738	-0.131
Mof_H 	H 	0.2321	0.5634	0.7428	0.072
Mof_C 	C 	0.1512	0.4898	0.7312	0.008
Mof_H 	H 	0.158	0.4818	0.6712	0.024
Mof_C 	C 	0.0983	0.4525	0.7735	-0.041
Mof_C 	C 	0.0886	0.4664	0.8645	0.005
Mof_H 	H 	0.0523	0.442	0.895	0.025
Mof_C 	C 	0.1313	0.5146	0.9086	-0.126
Mof_H 	H 	0.1245	0.5223	0.9687	0.081
Mof_C 	C 	0.232	0.6091	0.9087	-0.151
Mof_H 	H 	0.2017	0.6379	0.9475	0.087
Mof_H 	H 	0.2531	0.6413	0.8651	0.077
Mof_C 	C 	0.3478	0.5356	0.0687	0.094
Mof_H 	H 	0.3597	0.5216	0.1258	-0.019
Mof_C 	C 	0.3564	0.5586	0.9346	0.121
Mof_H 	H 	0.3737	0.5651	0.8775	-0.024
Mof_N 	N 	0.2908	0.575	0.9608	-0.074
Mof_N 	N 	0.2844	0.5606	0.0471	-0.114
Mof_N 	N 	0.3946	0.5316	0.0007	-0.262
Mof_C 	C 	0.8141	0.447	0.8626	0.082
Mof_C 	C 	0.8042	0.4606	0.7738	-0.09
Mof_H 	H 	0.7679	0.4366	0.7428	0.059
Mof_C 	C 	0.8488	0.5102	0.7312	-0.044
Mof_H 	H 	0.842	0.5182	0.6712	0.047
Mof_C 	C 	0.9017	0.5475	0.7735	0.034
Mof_C 	C 	0.9114	0.5336	0.8645	-0.041
Mof_H 	H 	0.9477	0.558	0.895	0.053
Mof_C 	C 	0.8687	0.4854	0.9086	-0.085
Mof_H 	H 	0.8755	0.4777	0.9687	0.073
Mof_C 	C 	0.768	0.3909	0.9087	-0.136
Mof_H 	H 	0.7983	0.3621	0.9475	0.085
Mof_H 	H 	0.7469	0.3587	0.8651	0.072
Mof_C 	C 	0.6522	0.4644	0.0687	0.094
Mof_H 	H 	0.6403	0.4784	0.1258	-0.018
Mof_C 	C 	0.6436	0.4414	0.9346	0.122
Mof_H 	H 	0.6263	0.4349	0.8775	-0.024
Mof_N 	N 	0.7092	0.425	0.9608	-0.075
Mof_N 	N 	0.7156	0.4394	0.0471	-0.111
Mof_N 	N 	0.6054	0.4684	0.0007	-0.262
Mof_C 	C 	0.447	0.1859	0.1374	0.093
Mof_C 	C 	0.4606	0.1958	0.2262	-0.121
Mof_H 	H 	0.4366	0.2321	0.2572	0.067
Mof_C 	C 	0.5102	0.1512	0.2688	-0.002
Mof_H 	H 	0.5182	0.158	0.3288	0.028
Mof_C 	C 	0.5475	0.0983	0.2265	-0.034
Mof_C 	C 	0.5336	0.0886	0.1355	-0.005
Mof_H 	H 	0.558	0.0523	0.105	0.024
Mof_C 	C 	0.4854	0.1313	0.0914	-0.118
Mof_H 	H 	0.4777	0.1245	0.0313	0.067
Mof_C 	C 	0.3909	0.232	0.0913	-0.142
Mof_H 	H 	0.3621	0.2017	0.0525	0.071
Mof_H 	H 	0.3587	0.2531	0.1349	0.068
Mof_C 	C 	0.4644	0.3478	0.9313	0.104
Mof_H 	H 	0.4784	0.3597	0.8742	-0.016
Mof_C 	C 	0.4414	0.3564	0.0654	0.062
Mof_H 	H 	0.4349	0.3737	0.1225	-0.01
Mof_N 	N 	0.425	0.2908	0.0392	-0.087
Mof_N 	N 	0.4394	0.2844	0.9529	-0.087
Mof_N 	N 	0.4684	0.3946	0.9993	-0.221
Mof_C 	C 	0.553	0.8141	0.1374	0.073
Mof_C 	C 	0.5394	0.8042	0.2262	-0.086
Mof_H 	H 	0.5634	0.7679	0.2572	0.057
Mof_C 	C 	0.4898	0.8488	0.2688	-0.05
Mof_H 	H 	0.4818	0.842	0.3288	0.049
Mof_C 	C 	0.4525	0.9017	0.2265	0.037
Mof_C 	C 	0.4664	0.9114	0.1355	-0.048
Mof_H 	H 	0.442	0.9477	0.105	0.049
Mof_C 	C 	0.5146	0.8687	0.0914	-0.082
Mof_H 	H 	0.5223	0.8755	0.0313	0.061
Mof_C 	C 	0.6091	0.768	0.0913	-0.133
Mof_H 	H 	0.6379	0.7983	0.0525	0.075
Mof_H 	H 	0.6413	0.7469	0.1349	0.069
Mof_C 	C 	0.5356	0.6522	0.9313	0.105
Mof_H 	H 	0.5216	0.6403	0.8742	-0.014
Mof_C 	C 	0.5586	0.6436	0.0654	0.063
Mof_H 	H 	0.5651	0.6263	0.1225	-0.009
Mof_N 	N 	0.575	0.7092	0.0392	-0.088
Mof_N 	N 	0.5606	0.7156	0.9529	-0.084
Mof_N 	N 	0.5316	0.6054	0.9993	-0.221
Mof_Cu	Cu	1.5416e-33	0	0.5	0.833
Mof_Cu	Cu	0.5	0.5	-0	0.839
_end
