data_functionalizedCrystal
_audit_creation_method	'EQeq! by Chris Wilmer'
_symmetry_space_group_name_H-M	'P1'
_symmetry_Int_Tables_number	1
_symmetry_cell_setting	triclinic
loop_
_symmetry_equiv_pos_as_xyz
  x,y,z
_cell_length_a	25.444
_cell_length_b	25.444
_cell_length_c	53.616
_cell_angle_alpha	90
_cell_angle_beta	90
_cell_angle_gamma	90
loop_
_atom_site_label
_atom_site_type_symbol
_atom_site_fract_x
_atom_site_fract_y
_atom_site_fract_z
_atom_site_charge
Mof_Zn	Zn	0.22329	0.4446	0.1268	1.193
Mof_O 	O 	0.2773	0.41182	0.14975	-0.473
Mof_C 	C 	0.3129	0.4387	0.16016	0.373
Mof_O 	O 	0.444	0.50263	0.22583	-0.499
Mof_O 	O 	0.32897	0.48403	0.15272	-0.475
Mof_C 	C 	0.1891	0.6767	0.03065	0.399
Mof_O 	O 	0.16653	0.69525	0.01205	-0.484
Mof_N 	N 	0.0422	0.55683	0.04645	-0.127
Mof_O 	O 	0.25417	0.54599	0.09491	-0.48
Mof_C 	C 	0.2075	0.5321	0.09201	0.395
Mof_O 	O 	0.23206	0.69538	0.03973	-0.483
Mof_C 	C 	0.3717	0.44697	0.19756	0.041
Mof_H 	H 	0.3785	0.4824	0.193	0.036
Mof_N 	N 	0.3401	0.2914	0.21826	-0.134
Mof_C 	C 	0.3827	0.37508	0.22577	-0.032
Mof_H 	H 	0.3977	0.3606	0.2405	0.055
Mof_C 	C 	0.1251	0.54398	0.06778	-0.035
Mof_H 	H 	0.1113	0.5132	0.0753	0.051
Mof_C 	C 	0.11566	0.61477	0.03818	-0.033
Mof_H 	H 	0.0952	0.6322	0.0259	0.05
Mof_C 	C 	0.4302	0.4603	0.23359	0.424
Mof_C 	C 	0.3277	0.36447	0.18936	-0.039
Mof_H 	H 	0.3058	0.3427	0.1793	0.057
Mof_C 	C 	0.16665	0.63151	0.04368	-0.109
Mof_C 	C 	0.3382	0.41568	0.18218	-0.095
Mof_O 	O 	0.44673	0.43919	0.25394	-0.483
Mof_C 	C 	0.19668	0.60365	0.0619	0.047
Mof_H 	H 	0.2313	0.6148	0.0659	0.034
Mof_C 	C 	0.3491	0.34525	0.21111	0.063
Mof_C 	C 	0.17573	0.5613	0.07354	-0.107
Mof_C 	C 	0.09582	0.5721	0.05113	0.057
Mof_C 	C 	0.3234	0.2771	0.24354	-0.005
Mof_H 	H 	0.3146	0.3	0.2569	0.032
Mof_C 	C 	0.0302	0.5077	0.03989	-0.059
Mof_H 	H 	0.0534	0.4796	0.0361	0.04
Mof_C 	C 	0.3942	0.4271	0.21865	-0.111
Mof_O 	O 	0.18501	0.49495	0.10366	-0.478
Mof_Zn	Zn	0.72329	0.9446	0.6268	1.195
Mof_O 	O 	0.7773	0.91182	0.64975	-0.469
Mof_C 	C 	0.8129	0.9387	0.66016	0.373
Mof_O 	O 	0.944	0.00263	0.72583	-0.478
Mof_O 	O 	0.82897	0.98403	0.65272	-0.469
Mof_C 	C 	0.6891	0.1767	0.53065	0.397
Mof_O 	O 	0.66653	0.19525	0.51205	-0.478
Mof_N 	N 	0.5422	0.05683	0.54645	-0.144
Mof_O 	O 	0.75417	0.04599	0.59491	-0.477
Mof_C 	C 	0.7075	0.0321	0.59201	0.393
Mof_O 	O 	0.73206	0.19538	0.53973	-0.479
Mof_C 	C 	0.8717	0.94697	0.69756	0.038
Mof_H 	H 	0.8785	0.9824	0.693	0.042
Mof_N 	N 	0.8401	0.7914	0.71826	-0.134
Mof_C 	C 	0.8827	0.87508	0.72577	-0.035
Mof_H 	H 	0.8977	0.8606	0.7405	0.063
Mof_C 	C 	0.6251	0.04398	0.56778	-0.042
Mof_H 	H 	0.6113	0.0132	0.5753	0.058
Mof_C 	C 	0.61566	0.11477	0.53818	-0.039
Mof_H 	H 	0.5952	0.1322	0.5259	0.058
Mof_C 	C 	0.9302	0.9603	0.73359	0.419
Mof_C 	C 	0.8277	0.86447	0.68936	-0.042
Mof_H 	H 	0.8058	0.8427	0.6793	0.06
Mof_C 	C 	0.66665	0.13151	0.54368	-0.102
Mof_C 	C 	0.8382	0.91568	0.68218	-0.088
Mof_O 	O 	0.94673	0.93919	0.75394	-0.461
Mof_C 	C 	0.69668	0.10365	0.5619	0.042
Mof_H 	H 	0.7313	0.1148	0.5659	0.037
Mof_C 	C 	0.8491	0.84525	0.71111	0.069
Mof_C 	C 	0.67573	0.0613	0.57354	-0.099
Mof_C 	C 	0.59582	0.0721	0.55113	0.069
Mof_C 	C 	0.8234	0.7771	0.74354	-0.003
Mof_H 	H 	0.8146	0.8	0.7569	0.034
Mof_C 	C 	0.5302	0.0077	0.53989	0.006
Mof_H 	H 	0.5534	0.9796	0.5361	0.027
Mof_C 	C 	0.8942	0.9271	0.71865	-0.101
Mof_O 	O 	0.68501	0.99495	0.60366	-0.473
Mof_Zn	Zn	0.27671	0.5554	0.6268	1.195
Mof_O 	O 	0.2227	0.58818	0.64975	-0.471
Mof_C 	C 	0.1871	0.5613	0.66016	0.374
Mof_O 	O 	0.056	0.49737	0.72583	-0.512
Mof_O 	O 	0.17103	0.51597	0.65272	-0.478
Mof_C 	C 	0.3109	0.3233	0.53065	0.398
Mof_O 	O 	0.33347	0.30475	0.51205	-0.478
Mof_N 	N 	0.4578	0.44317	0.54645	-0.144
Mof_O 	O 	0.24583	0.45401	0.59491	-0.48
Mof_C 	C 	0.2925	0.4679	0.59201	0.395
Mof_O 	O 	0.26794	0.30462	0.53973	-0.482
Mof_C 	C 	0.1283	0.55303	0.69756	0.044
Mof_H 	H 	0.1215	0.5176	0.693	0.032
Mof_N 	N 	0.1599	0.7086	0.71826	-0.134
Mof_C 	C 	0.1173	0.62492	0.72577	-0.03
Mof_H 	H 	0.1023	0.6394	0.7405	0.049
Mof_C 	C 	0.3749	0.45602	0.56778	-0.041
Mof_H 	H 	0.3887	0.4868	0.5753	0.057
Mof_C 	C 	0.38434	0.38523	0.53818	-0.038
Mof_H 	H 	0.4048	0.3678	0.5259	0.057
Mof_C 	C 	0.0698	0.5397	0.73359	0.425
Mof_C 	C 	0.1723	0.63553	0.68936	-0.038
Mof_H 	H 	0.1942	0.6573	0.6793	0.056
Mof_C 	C 	0.33335	0.36849	0.54368	-0.104
Mof_C 	C 	0.1618	0.58432	0.68218	-0.1
Mof_O 	O 	0.05327	0.56081	0.75394	-0.497
Mof_C 	C 	0.30332	0.39635	0.5619	0.043
Mof_H 	H 	0.2687	0.3852	0.5659	0.034
Mof_C 	C 	0.1509	0.65475	0.71111	0.059
Mof_C 	C 	0.32427	0.4387	0.57354	-0.101
Mof_C 	C 	0.40418	0.4279	0.55113	0.068
Mof_C 	C 	0.1766	0.7229	0.74354	-0.007
Mof_H 	H 	0.1854	0.7	0.7569	0.031
Mof_C 	C 	0.4698	0.4923	0.53989	0.006
Mof_H 	H 	0.4466	0.5204	0.5361	0.027
Mof_C 	C 	0.1058	0.5729	0.71865	-0.119
Mof_O 	O 	0.31499	0.50505	0.60366	-0.474
Mof_Zn	Zn	0.77671	0.0554	0.1268	1.196
Mof_O 	O 	0.7227	0.08818	0.14975	-0.469
Mof_C 	C 	0.6871	0.0613	0.16016	0.373
Mof_O 	O 	0.556	0.99737	0.22583	-0.499
Mof_O 	O 	0.67103	0.01597	0.15272	-0.474
Mof_C 	C 	0.8109	0.8233	0.03065	0.397
Mof_O 	O 	0.83347	0.80475	0.01205	-0.473
Mof_N 	N 	0.9578	0.94317	0.04645	-0.121
Mof_O 	O 	0.74583	0.95401	0.09491	-0.478
Mof_C 	C 	0.7925	0.9679	0.09201	0.393
Mof_O 	O 	0.76794	0.80462	0.03973	-0.479
Mof_C 	C 	0.6283	0.05303	0.19756	0.041
Mof_H 	H 	0.6215	0.0176	0.193	0.037
Mof_N 	N 	0.6599	0.2086	0.21826	-0.134
Mof_C 	C 	0.6173	0.12492	0.22577	-0.032
Mof_H 	H 	0.6023	0.1394	0.2405	0.056
Mof_C 	C 	0.8749	0.95602	0.06778	-0.043
Mof_H 	H 	0.8887	0.9868	0.0753	0.064
Mof_C 	C 	0.88434	0.88523	0.03818	-0.039
Mof_H 	H 	0.9048	0.8678	0.0259	0.068
Mof_C 	C 	0.5698	0.0397	0.23359	0.424
Mof_C 	C 	0.6723	0.13553	0.18936	-0.04
Mof_H 	H 	0.6942	0.1573	0.1793	0.059
Mof_C 	C 	0.83335	0.86849	0.04368	-0.098
Mof_C 	C 	0.6618	0.08432	0.18218	-0.094
Mof_O 	O 	0.55327	0.06081	0.25394	-0.483
Mof_C 	C 	0.80332	0.89635	0.0619	0.041
Mof_H 	H 	0.7687	0.8852	0.0659	0.037
Mof_C 	C 	0.6509	0.15475	0.21111	0.064
Mof_C 	C 	0.82427	0.9387	0.07354	-0.096
Mof_C 	C 	0.90418	0.9279	0.05113	0.077
Mof_C 	C 	0.6766	0.2229	0.24354	-0.004
Mof_H 	H 	0.6854	0.2	0.2569	0.032
Mof_C 	C 	0.9698	0.9923	0.03989	0.071
Mof_H 	H 	0.9466	0.0204	0.0361	0.016
Mof_C 	C 	0.6058	0.0729	0.21865	-0.111
Mof_O 	O 	0.81499	0.00505	0.10366	-0.469
Mof_Zn	Zn	0.8054	0.97329	0.3768	1.196
Mof_O 	O 	0.83818	0.0273	0.39975	-0.464
Mof_C 	C 	0.8113	0.0629	0.41016	0.373
Mof_O 	O 	0.74737	0.194	0.47583	-0.497
Mof_O 	O 	0.76597	0.07897	0.40272	-0.472
Mof_C 	C 	0.5733	0.9391	0.28065	0.398
Mof_O 	O 	0.55475	0.91653	0.26205	-0.478
Mof_N 	N 	0.69317	0.7922	0.29645	-0.144
Mof_O 	O 	0.70401	0.00417	0.34491	-0.478
Mof_C 	C 	0.7179	0.9575	0.34201	0.393
Mof_O 	O 	0.55462	0.98206	0.28973	-0.481
Mof_C 	C 	0.80303	0.1217	0.44756	0.04
Mof_H 	H 	0.7676	0.1285	0.443	0.038
Mof_N 	N 	0.9586	0.0901	0.46826	-0.112
Mof_C 	C 	0.87492	0.1327	0.47577	-0.033
Mof_H 	H 	0.8894	0.1477	0.4905	0.061
Mof_C 	C 	0.70602	0.8751	0.31778	-0.042
Mof_H 	H 	0.7368	0.8613	0.3253	0.06
Mof_C 	C 	0.63523	0.86566	0.28818	-0.039
Mof_H 	H 	0.6178	0.8452	0.2759	0.058
Mof_C 	C 	0.7897	0.1802	0.48359	0.422
Mof_C 	C 	0.88553	0.0777	0.43936	-0.04
Mof_H 	H 	0.9073	0.0558	0.4293	0.068
Mof_C 	C 	0.61849	0.91665	0.29368	-0.103
Mof_C 	C 	0.83432	0.0882	0.43218	-0.089
Mof_O 	O 	0.81081	0.19673	0.50394	-0.479
Mof_C 	C 	0.64635	0.94668	0.3119	0.042
Mof_H 	H 	0.6352	0.9813	0.3159	0.036
Mof_C 	C 	0.90475	0.0991	0.46111	0.072
Mof_C 	C 	0.6887	0.92573	0.32354	-0.099
Mof_C 	C 	0.6779	0.84582	0.30113	0.07
Mof_C 	C 	0.9729	0.0734	0.49354	0.082
Mof_H 	H 	0.95	0.0646	0.5069	0.013
Mof_C 	C 	0.7423	0.7802	0.28989	0.007
Mof_H 	H 	0.7704	0.8034	0.2861	0.029
Mof_C 	C 	0.8229	0.1442	0.46865	-0.107
Mof_O 	O 	0.75505	0.93501	0.35366	-0.471
Mof_Zn	Zn	0.3054	0.47329	0.8768	1.195
Mof_O 	O 	0.33818	0.5273	0.89975	-0.47
Mof_C 	C 	0.3113	0.5629	0.91016	0.374
Mof_O 	O 	0.24737	0.694	0.97583	-0.5
Mof_O 	O 	0.26597	0.57897	0.90272	-0.475
Mof_C 	C 	0.0733	0.4391	0.78065	0.4
Mof_O 	O 	0.05475	0.41653	0.76205	-0.493
Mof_N 	N 	0.19317	0.2922	0.79645	-0.144
Mof_O 	O 	0.20401	0.50417	0.84491	-0.481
Mof_C 	C 	0.2179	0.4575	0.84201	0.395
Mof_O 	O 	0.05462	0.48206	0.78973	-0.495
Mof_C 	C 	0.30303	0.6217	0.94756	0.042
Mof_H 	H 	0.2676	0.6285	0.943	0.035
Mof_N 	N 	0.4586	0.5901	0.96826	-0.134
Mof_C 	C 	0.37492	0.6327	0.97577	-0.031
Mof_H 	H 	0.3894	0.6477	0.9905	0.055
Mof_C 	C 	0.20602	0.3751	0.81778	-0.039
Mof_H 	H 	0.2368	0.3613	0.8253	0.056
Mof_C 	C 	0.13523	0.36566	0.78818	-0.037
Mof_H 	H 	0.1178	0.3452	0.7759	0.052
Mof_C 	C 	0.2897	0.6802	0.98359	0.424
Mof_C 	C 	0.38553	0.5777	0.93936	-0.039
Mof_H 	H 	0.4073	0.5558	0.9293	0.057
Mof_C 	C 	0.11849	0.41665	0.79368	-0.11
Mof_C 	C 	0.33432	0.5882	0.93218	-0.095
Mof_O 	O 	0.31081	0.69673	0.00394	-0.483
Mof_C 	C 	0.14635	0.44668	0.8119	0.045
Mof_H 	H 	0.1352	0.4813	0.8159	0.032
Mof_C 	C 	0.40475	0.5991	0.96111	0.063
Mof_C 	C 	0.1887	0.42573	0.82354	-0.104
Mof_C 	C 	0.1779	0.34582	0.80113	0.065
Mof_C 	C 	0.4729	0.5734	0.99354	-0.005
Mof_H 	H 	0.45	0.5646	0.0069	0.032
Mof_C 	C 	0.2423	0.2802	0.78989	0.006
Mof_H 	H 	0.2704	0.3034	0.7861	0.027
Mof_C 	C 	0.3229	0.6442	0.96865	-0.112
Mof_O 	O 	0.25505	0.43501	0.85366	-0.475
Mof_Zn	Zn	0.6946	0.02671	0.8768	1.195
Mof_O 	O 	0.66182	0.9727	0.89975	-0.47
Mof_C 	C 	0.6887	0.9371	0.91016	0.373
Mof_O 	O 	0.75263	0.806	0.97583	-0.496
Mof_O 	O 	0.73403	0.92103	0.90272	-0.472
Mof_C 	C 	0.9267	0.0609	0.78065	0.393
Mof_O 	O 	0.94525	0.08347	0.76205	-0.456
Mof_N 	N 	0.80683	0.2078	0.79645	-0.144
Mof_O 	O 	0.79599	0.99583	0.84491	-0.475
Mof_C 	C 	0.7821	0.0425	0.84201	0.393
Mof_O 	O 	0.94538	0.01794	0.78973	-0.459
Mof_C 	C 	0.69697	0.8783	0.94756	0.04
Mof_H 	H 	0.7324	0.8715	0.943	0.038
Mof_N 	N 	0.5414	0.9099	0.96826	-0.134
Mof_C 	C 	0.62508	0.8673	0.97577	-0.033
Mof_H 	H 	0.6106	0.8523	0.9905	0.056
Mof_C 	C 	0.79398	0.1249	0.81778	-0.044
Mof_H 	H 	0.7632	0.1387	0.8253	0.059
Mof_C 	C 	0.86477	0.13434	0.78818	-0.042
Mof_H 	H 	0.8822	0.1548	0.7759	0.064
Mof_C 	C 	0.7103	0.8198	0.98359	0.423
Mof_C 	C 	0.61447	0.9223	0.93936	-0.04
Mof_H 	H 	0.5927	0.9442	0.9293	0.058
Mof_C 	C 	0.88151	0.08335	0.79368	-0.094
Mof_C 	C 	0.66568	0.9118	0.93218	-0.093
Mof_O 	O 	0.68919	0.80327	0.00394	-0.483
Mof_C 	C 	0.85365	0.05332	0.8119	0.039
Mof_H 	H 	0.8648	0.0187	0.8159	0.04
Mof_C 	C 	0.59525	0.9009	0.96111	0.064
Mof_C 	C 	0.8113	0.07427	0.82354	-0.095
Mof_C 	C 	0.8221	0.15418	0.80113	0.074
Mof_C 	C 	0.5271	0.9266	0.99354	-0.005
Mof_H 	H 	0.55	0.9354	0.0069	0.032
Mof_C 	C 	0.7577	0.2198	0.78989	0.007
Mof_H 	H 	0.7296	0.1966	0.7861	0.027
Mof_C 	C 	0.6771	0.8558	0.96865	-0.11
Mof_O 	O 	0.74495	0.06499	0.85366	-0.473
Mof_Zn	Zn	0.1946	0.52671	0.3768	1.194
Mof_O 	O 	0.16182	0.4727	0.39975	-0.475
Mof_C 	C 	0.1887	0.4371	0.41016	0.375
Mof_O 	O 	0.25263	0.306	0.47583	-0.499
Mof_O 	O 	0.23403	0.42103	0.40272	-0.475
Mof_C 	C 	0.4267	0.5609	0.28065	0.398
Mof_O 	O 	0.44525	0.58347	0.26205	-0.478
Mof_N 	N 	0.30683	0.7078	0.29645	-0.144
Mof_O 	O 	0.29599	0.49583	0.34491	-0.479
Mof_C 	C 	0.2821	0.5425	0.34201	0.395
Mof_O 	O 	0.44538	0.51794	0.28973	-0.481
Mof_C 	C 	0.19697	0.3783	0.44756	0.045
Mof_H 	H 	0.2324	0.3715	0.443	0.035
Mof_N 	N 	0.0414	0.4099	0.46826	-0.118
Mof_C 	C 	0.12508	0.3673	0.47577	-0.027
Mof_H 	H 	0.1106	0.3523	0.4905	0.05
Mof_C 	C 	0.29398	0.6249	0.31778	-0.04
Mof_H 	H 	0.2632	0.6387	0.3253	0.056
Mof_C 	C 	0.36477	0.63434	0.28818	-0.038
Mof_H 	H 	0.3822	0.6548	0.2759	0.057
Mof_C 	C 	0.2103	0.3198	0.48359	0.425
Mof_C 	C 	0.11447	0.4223	0.43936	-0.034
Mof_H 	H 	0.0927	0.4442	0.4293	0.05
Mof_C 	C 	0.38151	0.58335	0.29368	-0.104
Mof_C 	C 	0.16568	0.4118	0.43218	-0.1
Mof_O 	O 	0.18919	0.30327	0.50394	-0.486
Mof_C 	C 	0.35365	0.55332	0.3119	0.043
Mof_H 	H 	0.3648	0.5187	0.3159	0.035
Mof_C 	C 	0.09525	0.4009	0.46111	0.053
Mof_C 	C 	0.3113	0.57427	0.32354	-0.101
Mof_C 	C 	0.3221	0.65418	0.30113	0.068
Mof_C 	C 	0.0271	0.4266	0.49354	-0.092
Mof_H 	H 	0.05	0.4354	0.5069	0.053
Mof_C 	C 	0.2577	0.7198	0.28989	0.005
Mof_H 	H 	0.2296	0.6966	0.2861	0.025
Mof_C 	C 	0.1771	0.3558	0.46865	-0.116
Mof_O 	O 	0.24495	0.56499	0.35366	-0.476
Mof_Zn	Zn	0.27671	0.4446	0.3732	1.195
Mof_O 	O 	0.2227	0.41182	0.35025	-0.471
Mof_C 	C 	0.1871	0.4387	0.33984	0.374
Mof_O 	O 	0.056	0.50263	0.27417	-0.512
Mof_O 	O 	0.17103	0.48403	0.34728	-0.478
Mof_C 	C 	0.3109	0.6767	0.46935	0.398
Mof_O 	O 	0.33347	0.69525	0.48795	-0.478
Mof_N 	N 	0.4578	0.55683	0.45355	-0.144
Mof_O 	O 	0.24583	0.54599	0.40509	-0.48
Mof_C 	C 	0.2925	0.5321	0.40799	0.395
Mof_O 	O 	0.26794	0.69538	0.46027	-0.482
Mof_C 	C 	0.1283	0.44697	0.30244	0.044
Mof_H 	H 	0.1215	0.4824	0.307	0.032
Mof_N 	N 	0.1599	0.2914	0.28174	-0.134
Mof_C 	C 	0.1173	0.37508	0.27423	-0.03
Mof_H 	H 	0.1023	0.3606	0.2595	0.049
Mof_C 	C 	0.3749	0.54398	0.43222	-0.041
Mof_H 	H 	0.3887	0.5132	0.4247	0.057
Mof_C 	C 	0.38434	0.61477	0.46182	-0.038
Mof_H 	H 	0.4048	0.6322	0.4741	0.057
Mof_C 	C 	0.0698	0.4603	0.26641	0.425
Mof_C 	C 	0.1723	0.36447	0.31064	-0.038
Mof_H 	H 	0.1942	0.3427	0.3207	0.056
Mof_C 	C 	0.33335	0.63151	0.45632	-0.104
Mof_C 	C 	0.1618	0.41568	0.31782	-0.1
Mof_O 	O 	0.05327	0.43919	0.24606	-0.497
Mof_C 	C 	0.30332	0.60365	0.4381	0.043
Mof_H 	H 	0.2687	0.6148	0.4341	0.034
Mof_C 	C 	0.1509	0.34525	0.28889	0.059
Mof_C 	C 	0.32427	0.5613	0.42646	-0.101
Mof_C 	C 	0.40418	0.5721	0.44887	0.068
Mof_C 	C 	0.1766	0.2771	0.25646	-0.007
Mof_H 	H 	0.1854	0.3	0.2431	0.031
Mof_C 	C 	0.4698	0.5077	0.46011	0.006
Mof_H 	H 	0.4466	0.4796	0.4639	0.027
Mof_C 	C 	0.1058	0.4271	0.28135	-0.119
Mof_O 	O 	0.31499	0.49495	0.39634	-0.474
Mof_Zn	Zn	0.77671	0.9446	0.8732	1.196
Mof_O 	O 	0.7227	0.91182	0.85025	-0.469
Mof_C 	C 	0.6871	0.9387	0.83984	0.373
Mof_O 	O 	0.556	0.00263	0.77417	-0.499
Mof_O 	O 	0.67103	0.98403	0.84728	-0.474
Mof_C 	C 	0.8109	0.1767	0.96935	0.397
Mof_O 	O 	0.83347	0.19525	0.98795	-0.473
Mof_N 	N 	0.9578	0.05683	0.95355	-0.121
Mof_O 	O 	0.74583	0.04599	0.90509	-0.478
Mof_C 	C 	0.7925	0.0321	0.90799	0.393
Mof_O 	O 	0.76794	0.19538	0.96027	-0.479
Mof_C 	C 	0.6283	0.94697	0.80244	0.041
Mof_H 	H 	0.6215	0.9824	0.807	0.037
Mof_N 	N 	0.6599	0.7914	0.78174	-0.134
Mof_C 	C 	0.6173	0.87508	0.77423	-0.032
Mof_H 	H 	0.6023	0.8606	0.7595	0.056
Mof_C 	C 	0.8749	0.04398	0.93222	-0.043
Mof_H 	H 	0.8887	0.0132	0.9247	0.064
Mof_C 	C 	0.88434	0.11477	0.96182	-0.039
Mof_H 	H 	0.9048	0.1322	0.9741	0.068
Mof_C 	C 	0.5698	0.9603	0.76641	0.424
Mof_C 	C 	0.6723	0.86447	0.81064	-0.04
Mof_H 	H 	0.6942	0.8427	0.8207	0.059
Mof_C 	C 	0.83335	0.13151	0.95632	-0.098
Mof_C 	C 	0.6618	0.91568	0.81782	-0.094
Mof_O 	O 	0.55327	0.93919	0.74606	-0.483
Mof_C 	C 	0.80332	0.10365	0.9381	0.041
Mof_H 	H 	0.7687	0.1148	0.9341	0.037
Mof_C 	C 	0.6509	0.84525	0.78889	0.064
Mof_C 	C 	0.82427	0.0613	0.92646	-0.096
Mof_C 	C 	0.90418	0.0721	0.94887	0.077
Mof_C 	C 	0.6766	0.7771	0.75646	-0.004
Mof_H 	H 	0.6854	0.8	0.7431	0.032
Mof_C 	C 	0.9698	0.0077	0.96011	0.071
Mof_H 	H 	0.9466	0.9796	0.9639	0.016
Mof_C 	C 	0.6058	0.9271	0.78135	-0.111
Mof_O 	O 	0.81499	0.99495	0.89634	-0.469
Mof_Zn	Zn	0.22329	0.5554	0.8732	1.194
Mof_O 	O 	0.2773	0.58818	0.85025	-0.472
Mof_C 	C 	0.3129	0.5613	0.83984	0.374
Mof_O 	O 	0.444	0.49737	0.77417	-0.498
Mof_O 	O 	0.32897	0.51597	0.84728	-0.474
Mof_C 	C 	0.1891	0.3233	0.96935	0.4
Mof_O 	O 	0.16653	0.30475	0.98795	-0.483
Mof_N 	N 	0.0422	0.44317	0.95355	-0.126
Mof_O 	O 	0.25417	0.45401	0.90509	-0.479
Mof_C 	C 	0.2075	0.4679	0.90799	0.396
Mof_O 	O 	0.23206	0.30462	0.96027	-0.482
Mof_C 	C 	0.3717	0.55303	0.80244	0.042
Mof_H 	H 	0.3785	0.5176	0.807	0.036
Mof_N 	N 	0.3401	0.7086	0.78174	-0.134
Mof_C 	C 	0.3827	0.62492	0.77423	-0.032
Mof_H 	H 	0.3977	0.6394	0.7595	0.055
Mof_C 	C 	0.1251	0.45602	0.93222	-0.035
Mof_H 	H 	0.1113	0.4868	0.9247	0.051
Mof_C 	C 	0.11566	0.38523	0.96182	-0.033
Mof_H 	H 	0.0952	0.3678	0.9741	0.05
Mof_C 	C 	0.4302	0.5397	0.76641	0.424
Mof_C 	C 	0.3277	0.63553	0.81064	-0.039
Mof_H 	H 	0.3058	0.6573	0.8207	0.057
Mof_C 	C 	0.16665	0.36849	0.95632	-0.109
Mof_C 	C 	0.3382	0.58432	0.81782	-0.095
Mof_O 	O 	0.44673	0.56081	0.74606	-0.483
Mof_C 	C 	0.19668	0.39635	0.9381	0.047
Mof_H 	H 	0.2313	0.3852	0.9341	0.034
Mof_C 	C 	0.3491	0.65475	0.78889	0.063
Mof_C 	C 	0.17573	0.4387	0.92646	-0.107
Mof_C 	C 	0.09582	0.4279	0.94887	0.057
Mof_C 	C 	0.3234	0.7229	0.75646	-0.005
Mof_H 	H 	0.3146	0.7	0.7431	0.032
Mof_C 	C 	0.0302	0.4923	0.96011	-0.059
Mof_H 	H 	0.0534	0.5204	0.9639	0.04
Mof_C 	C 	0.3942	0.5729	0.78135	-0.111
Mof_O 	O 	0.18501	0.50505	0.89634	-0.478
Mof_Zn	Zn	0.72329	0.0554	0.3732	1.195
Mof_O 	O 	0.7773	0.08818	0.35025	-0.469
Mof_C 	C 	0.8129	0.0613	0.33984	0.373
Mof_O 	O 	0.944	0.99737	0.27417	-0.478
Mof_O 	O 	0.82897	0.01597	0.34728	-0.469
Mof_C 	C 	0.6891	0.8233	0.46935	0.397
Mof_O 	O 	0.66653	0.80475	0.48795	-0.478
Mof_N 	N 	0.5422	0.94317	0.45355	-0.144
Mof_O 	O 	0.75417	0.95401	0.40509	-0.477
Mof_C 	C 	0.7075	0.9679	0.40799	0.393
Mof_O 	O 	0.73206	0.80462	0.46027	-0.479
Mof_C 	C 	0.8717	0.05303	0.30244	0.038
Mof_H 	H 	0.8785	0.0176	0.307	0.042
Mof_N 	N 	0.8401	0.2086	0.28174	-0.134
Mof_C 	C 	0.8827	0.12492	0.27423	-0.035
Mof_H 	H 	0.8977	0.1394	0.2595	0.063
Mof_C 	C 	0.6251	0.95602	0.43222	-0.042
Mof_H 	H 	0.6113	0.9868	0.4247	0.058
Mof_C 	C 	0.61566	0.88523	0.46182	-0.039
Mof_H 	H 	0.5952	0.8678	0.4741	0.058
Mof_C 	C 	0.9302	0.0397	0.26641	0.419
Mof_C 	C 	0.8277	0.13553	0.31064	-0.042
Mof_H 	H 	0.8058	0.1573	0.3207	0.06
Mof_C 	C 	0.66665	0.86849	0.45632	-0.102
Mof_C 	C 	0.8382	0.08432	0.31782	-0.088
Mof_O 	O 	0.94673	0.06081	0.24606	-0.461
Mof_C 	C 	0.69668	0.89635	0.4381	0.042
Mof_H 	H 	0.7313	0.8852	0.4341	0.037
Mof_C 	C 	0.8491	0.15475	0.28889	0.069
Mof_C 	C 	0.67573	0.9387	0.42646	-0.099
Mof_C 	C 	0.59582	0.9279	0.44887	0.069
Mof_C 	C 	0.8234	0.2229	0.25646	-0.003
Mof_H 	H 	0.8146	0.2	0.2431	0.034
Mof_C 	C 	0.5302	0.9923	0.46011	0.006
Mof_H 	H 	0.5534	0.0204	0.4639	0.027
Mof_C 	C 	0.8942	0.0729	0.28135	-0.101
Mof_O 	O 	0.68501	0.00505	0.39634	-0.473
Mof_Zn	Zn	0.6946	0.97329	0.1232	1.195
Mof_O 	O 	0.66182	0.0273	0.10025	-0.47
Mof_C 	C 	0.6887	0.0629	0.08984	0.373
Mof_O 	O 	0.75263	0.194	0.02417	-0.496
Mof_O 	O 	0.73403	0.07897	0.09728	-0.472
Mof_C 	C 	0.9267	0.9391	0.21935	0.393
Mof_O 	O 	0.94525	0.91653	0.23795	-0.456
Mof_N 	N 	0.80683	0.7922	0.20355	-0.144
Mof_O 	O 	0.79599	0.00417	0.15509	-0.475
Mof_C 	C 	0.7821	0.9575	0.15799	0.393
Mof_O 	O 	0.94538	0.98206	0.21027	-0.459
Mof_C 	C 	0.69697	0.1217	0.05244	0.04
Mof_H 	H 	0.7324	0.1285	0.057	0.038
Mof_N 	N 	0.5414	0.0901	0.03174	-0.134
Mof_C 	C 	0.62508	0.1327	0.02423	-0.033
Mof_H 	H 	0.6106	0.1477	0.0095	0.056
Mof_C 	C 	0.79398	0.8751	0.18222	-0.044
Mof_H 	H 	0.7632	0.8613	0.1747	0.059
Mof_C 	C 	0.86477	0.86566	0.21182	-0.042
Mof_H 	H 	0.8822	0.8452	0.2241	0.064
Mof_C 	C 	0.7103	0.1802	0.01641	0.423
Mof_C 	C 	0.61447	0.0777	0.06064	-0.04
Mof_H 	H 	0.5927	0.0558	0.0707	0.058
Mof_C 	C 	0.88151	0.91665	0.20632	-0.094
Mof_C 	C 	0.66568	0.0882	0.06782	-0.093
Mof_O 	O 	0.68919	0.19673	0.99606	-0.483
Mof_C 	C 	0.85365	0.94668	0.1881	0.039
Mof_H 	H 	0.8648	0.9813	0.1841	0.04
Mof_C 	C 	0.59525	0.0991	0.03889	0.064
Mof_C 	C 	0.8113	0.92573	0.17646	-0.095
Mof_C 	C 	0.8221	0.84582	0.19887	0.074
Mof_C 	C 	0.5271	0.0734	0.00646	-0.005
Mof_H 	H 	0.55	0.0646	0.9931	0.032
Mof_C 	C 	0.7577	0.7802	0.21011	0.007
Mof_H 	H 	0.7296	0.8034	0.2139	0.027
Mof_C 	C 	0.6771	0.1442	0.03135	-0.11
Mof_O 	O 	0.74495	0.93501	0.14634	-0.473
Mof_Zn	Zn	0.1946	0.47329	0.6232	1.194
Mof_O 	O 	0.16182	0.5273	0.60025	-0.475
Mof_C 	C 	0.1887	0.5629	0.58984	0.375
Mof_O 	O 	0.25263	0.694	0.52417	-0.499
Mof_O 	O 	0.23403	0.57897	0.59728	-0.475
Mof_C 	C 	0.4267	0.4391	0.71935	0.398
Mof_O 	O 	0.44525	0.41653	0.73795	-0.478
Mof_N 	N 	0.30683	0.2922	0.70355	-0.144
Mof_O 	O 	0.29599	0.50417	0.65509	-0.479
Mof_C 	C 	0.2821	0.4575	0.65799	0.395
Mof_O 	O 	0.44538	0.48206	0.71027	-0.481
Mof_C 	C 	0.19697	0.6217	0.55244	0.045
Mof_H 	H 	0.2324	0.6285	0.557	0.035
Mof_N 	N 	0.0414	0.5901	0.53174	-0.118
Mof_C 	C 	0.12508	0.6327	0.52423	-0.027
Mof_H 	H 	0.1106	0.6477	0.5095	0.05
Mof_C 	C 	0.29398	0.3751	0.68222	-0.04
Mof_H 	H 	0.2632	0.3613	0.6747	0.056
Mof_C 	C 	0.36477	0.36566	0.71182	-0.038
Mof_H 	H 	0.3822	0.3452	0.7241	0.057
Mof_C 	C 	0.2103	0.6802	0.51641	0.425
Mof_C 	C 	0.11447	0.5777	0.56064	-0.034
Mof_H 	H 	0.0927	0.5558	0.5707	0.05
Mof_C 	C 	0.38151	0.41665	0.70632	-0.104
Mof_C 	C 	0.16568	0.5882	0.56782	-0.1
Mof_O 	O 	0.18919	0.69673	0.49606	-0.486
Mof_C 	C 	0.35365	0.44668	0.6881	0.043
Mof_H 	H 	0.3648	0.4813	0.6841	0.035
Mof_C 	C 	0.09525	0.5991	0.53889	0.053
Mof_C 	C 	0.3113	0.42573	0.67646	-0.101
Mof_C 	C 	0.3221	0.34582	0.69887	0.068
Mof_C 	C 	0.0271	0.5734	0.50646	-0.092
Mof_H 	H 	0.05	0.5646	0.4931	0.053
Mof_C 	C 	0.2577	0.2802	0.71011	0.005
Mof_H 	H 	0.2296	0.3034	0.7139	0.025
Mof_C 	C 	0.1771	0.6442	0.53135	-0.116
Mof_O 	O 	0.24495	0.43501	0.64634	-0.476
Mof_Zn	Zn	0.8054	0.02671	0.6232	1.196
Mof_O 	O 	0.83818	0.9727	0.60025	-0.464
Mof_C 	C 	0.8113	0.9371	0.58984	0.373
Mof_O 	O 	0.74737	0.806	0.52417	-0.497
Mof_O 	O 	0.76597	0.92103	0.59728	-0.472
Mof_C 	C 	0.5733	0.0609	0.71935	0.398
Mof_O 	O 	0.55475	0.08347	0.73795	-0.478
Mof_N 	N 	0.69317	0.2078	0.70355	-0.144
Mof_O 	O 	0.70401	0.99583	0.65509	-0.478
Mof_C 	C 	0.7179	0.0425	0.65799	0.393
Mof_O 	O 	0.55462	0.01794	0.71027	-0.481
Mof_C 	C 	0.80303	0.8783	0.55244	0.04
Mof_H 	H 	0.7676	0.8715	0.557	0.038
Mof_N 	N 	0.9586	0.9099	0.53174	-0.112
Mof_C 	C 	0.87492	0.8673	0.52423	-0.033
Mof_H 	H 	0.8894	0.8523	0.5095	0.061
Mof_C 	C 	0.70602	0.1249	0.68222	-0.042
Mof_H 	H 	0.7368	0.1387	0.6747	0.06
Mof_C 	C 	0.63523	0.13434	0.71182	-0.039
Mof_H 	H 	0.6178	0.1548	0.7241	0.058
Mof_C 	C 	0.7897	0.8198	0.51641	0.422
Mof_C 	C 	0.88553	0.9223	0.56064	-0.04
Mof_H 	H 	0.9073	0.9442	0.5707	0.068
Mof_C 	C 	0.61849	0.08335	0.70632	-0.103
Mof_C 	C 	0.83432	0.9118	0.56782	-0.089
Mof_O 	O 	0.81081	0.80327	0.49606	-0.479
Mof_C 	C 	0.64635	0.05332	0.6881	0.042
Mof_H 	H 	0.6352	0.0187	0.6841	0.036
Mof_C 	C 	0.90475	0.9009	0.53889	0.072
Mof_C 	C 	0.6887	0.07427	0.67646	-0.099
Mof_C 	C 	0.6779	0.15418	0.69887	0.07
Mof_C 	C 	0.9729	0.9266	0.50646	0.082
Mof_H 	H 	0.95	0.9354	0.4931	0.013
Mof_C 	C 	0.7423	0.2198	0.71011	0.007
Mof_H 	H 	0.7704	0.1966	0.7139	0.029
Mof_C 	C 	0.8229	0.8558	0.53135	-0.107
Mof_O 	O 	0.75505	0.06499	0.64634	-0.471
Mof_Zn	Zn	0.3054	0.52671	0.1232	1.195
Mof_O 	O 	0.33818	0.4727	0.10025	-0.47
Mof_C 	C 	0.3113	0.4371	0.08984	0.374
Mof_O 	O 	0.24737	0.306	0.02417	-0.5
Mof_O 	O 	0.26597	0.42103	0.09728	-0.475
Mof_C 	C 	0.0733	0.5609	0.21935	0.4
Mof_O 	O 	0.05475	0.58347	0.23795	-0.493
Mof_N 	N 	0.19317	0.7078	0.20355	-0.144
Mof_O 	O 	0.20401	0.49583	0.15509	-0.481
Mof_C 	C 	0.2179	0.5425	0.15799	0.395
Mof_O 	O 	0.05462	0.51794	0.21027	-0.495
Mof_C 	C 	0.30303	0.3783	0.05244	0.042
Mof_H 	H 	0.2676	0.3715	0.057	0.035
Mof_N 	N 	0.4586	0.4099	0.03174	-0.134
Mof_C 	C 	0.37492	0.3673	0.02423	-0.031
Mof_H 	H 	0.3894	0.3523	0.0095	0.055
Mof_C 	C 	0.20602	0.6249	0.18222	-0.039
Mof_H 	H 	0.2368	0.6387	0.1747	0.056
Mof_C 	C 	0.13523	0.63434	0.21182	-0.037
Mof_H 	H 	0.1178	0.6548	0.2241	0.052
Mof_C 	C 	0.2897	0.3198	0.01641	0.424
Mof_C 	C 	0.38553	0.4223	0.06064	-0.039
Mof_H 	H 	0.4073	0.4442	0.0707	0.057
Mof_C 	C 	0.11849	0.58335	0.20632	-0.11
Mof_C 	C 	0.33432	0.4118	0.06782	-0.095
Mof_O 	O 	0.31081	0.30327	0.99606	-0.483
Mof_C 	C 	0.14635	0.55332	0.1881	0.045
Mof_H 	H 	0.1352	0.5187	0.1841	0.032
Mof_C 	C 	0.40475	0.4009	0.03889	0.063
Mof_C 	C 	0.1887	0.57427	0.17646	-0.104
Mof_C 	C 	0.1779	0.65418	0.19887	0.065
Mof_C 	C 	0.4729	0.4266	0.00646	-0.005
Mof_H 	H 	0.45	0.4354	0.9931	0.032
Mof_C 	C 	0.2423	0.7198	0.21011	0.006
Mof_H 	H 	0.2704	0.6966	0.2139	0.027
Mof_C 	C 	0.3229	0.3558	0.03135	-0.112
Mof_O 	O 	0.25505	0.56499	0.14634	-0.475
Mof_Zn	Zn	0.77671	0.5554	0.8732	1.196
Mof_O 	O 	0.7227	0.58818	0.85025	-0.468
Mof_C 	C 	0.6871	0.5613	0.83984	0.373
Mof_O 	O 	0.556	0.49737	0.77417	-0.498
Mof_O 	O 	0.67103	0.51597	0.84728	-0.474
Mof_C 	C 	0.8109	0.3233	0.96935	0.397
Mof_O 	O 	0.83347	0.30475	0.98795	-0.473
Mof_N 	N 	0.9578	0.44317	0.95355	-0.121
Mof_O 	O 	0.74583	0.45401	0.90509	-0.478
Mof_C 	C 	0.7925	0.4679	0.90799	0.393
Mof_O 	O 	0.76794	0.30462	0.96027	-0.479
Mof_C 	C 	0.6283	0.55303	0.80244	0.041
Mof_H 	H 	0.6215	0.5176	0.807	0.037
Mof_N 	N 	0.6599	0.7086	0.78174	-0.134
Mof_C 	C 	0.6173	0.62492	0.77423	-0.032
Mof_H 	H 	0.6023	0.6394	0.7595	0.056
Mof_C 	C 	0.8749	0.45602	0.93222	-0.043
Mof_H 	H 	0.8887	0.4868	0.9247	0.064
Mof_C 	C 	0.88434	0.38523	0.96182	-0.039
Mof_H 	H 	0.9048	0.3678	0.9741	0.068
Mof_C 	C 	0.5698	0.5397	0.76641	0.423
Mof_C 	C 	0.6723	0.63553	0.81064	-0.04
Mof_H 	H 	0.6942	0.6573	0.8207	0.059
Mof_C 	C 	0.83335	0.36849	0.95632	-0.098
Mof_C 	C 	0.6618	0.58432	0.81782	-0.094
Mof_O 	O 	0.55327	0.56081	0.74606	-0.483
Mof_C 	C 	0.80332	0.39635	0.9381	0.041
Mof_H 	H 	0.7687	0.3852	0.9341	0.037
Mof_C 	C 	0.6509	0.65475	0.78889	0.064
Mof_C 	C 	0.82427	0.4387	0.92646	-0.096
Mof_C 	C 	0.90418	0.4279	0.94887	0.077
Mof_C 	C 	0.6766	0.7229	0.75646	-0.004
Mof_H 	H 	0.6854	0.7	0.7431	0.032
Mof_C 	C 	0.9698	0.4923	0.96011	0.072
Mof_H 	H 	0.9466	0.5204	0.9639	0.016
Mof_C 	C 	0.6058	0.5729	0.78135	-0.111
Mof_O 	O 	0.81499	0.50505	0.89634	-0.469
Mof_Zn	Zn	0.27671	0.0554	0.3732	1.195
Mof_O 	O 	0.2227	0.08818	0.35025	-0.471
Mof_C 	C 	0.1871	0.0613	0.33984	0.374
Mof_O 	O 	0.056	0.99737	0.27417	-0.512
Mof_O 	O 	0.17103	0.01597	0.34728	-0.478
Mof_C 	C 	0.3109	0.8233	0.46935	0.398
Mof_O 	O 	0.33347	0.80475	0.48795	-0.478
Mof_N 	N 	0.4578	0.94317	0.45355	-0.144
Mof_O 	O 	0.24583	0.95401	0.40509	-0.48
Mof_C 	C 	0.2925	0.9679	0.40799	0.395
Mof_O 	O 	0.26794	0.80462	0.46027	-0.482
Mof_C 	C 	0.1283	0.05303	0.30244	0.044
Mof_H 	H 	0.1215	0.0176	0.307	0.032
Mof_N 	N 	0.1599	0.2086	0.28174	-0.134
Mof_C 	C 	0.1173	0.12492	0.27423	-0.03
Mof_H 	H 	0.1023	0.1394	0.2595	0.049
Mof_C 	C 	0.3749	0.95602	0.43222	-0.041
Mof_H 	H 	0.3887	0.9868	0.4247	0.057
Mof_C 	C 	0.38434	0.88523	0.46182	-0.038
Mof_H 	H 	0.4048	0.8678	0.4741	0.057
Mof_C 	C 	0.0698	0.0397	0.26641	0.426
Mof_C 	C 	0.1723	0.13553	0.31064	-0.038
Mof_H 	H 	0.1942	0.1573	0.3207	0.056
Mof_C 	C 	0.33335	0.86849	0.45632	-0.104
Mof_C 	C 	0.1618	0.08432	0.31782	-0.1
Mof_O 	O 	0.05327	0.06081	0.24606	-0.497
Mof_C 	C 	0.30332	0.89635	0.4381	0.043
Mof_H 	H 	0.2687	0.8852	0.4341	0.034
Mof_C 	C 	0.1509	0.15475	0.28889	0.059
Mof_C 	C 	0.32427	0.9387	0.42646	-0.101
Mof_C 	C 	0.40418	0.9279	0.44887	0.068
Mof_C 	C 	0.1766	0.2229	0.25646	-0.007
Mof_H 	H 	0.1854	0.2	0.2431	0.031
Mof_C 	C 	0.4698	0.9923	0.46011	0.006
Mof_H 	H 	0.4466	0.0204	0.4639	0.027
Mof_C 	C 	0.1058	0.0729	0.28135	-0.119
Mof_O 	O 	0.31499	0.00505	0.39634	-0.474
Mof_Zn	Zn	0.72329	0.4446	0.3732	1.195
Mof_O 	O 	0.7773	0.41182	0.35025	-0.469
Mof_C 	C 	0.8129	0.4387	0.33984	0.372
Mof_O 	O 	0.944	0.50263	0.27417	-0.476
Mof_O 	O 	0.82897	0.48403	0.34728	-0.469
Mof_C 	C 	0.6891	0.6767	0.46935	0.397
Mof_O 	O 	0.66653	0.69525	0.48795	-0.478
Mof_N 	N 	0.5422	0.55683	0.45355	-0.144
Mof_O 	O 	0.75417	0.54599	0.40509	-0.477
Mof_C 	C 	0.7075	0.5321	0.40799	0.393
Mof_O 	O 	0.73206	0.69538	0.46027	-0.479
Mof_C 	C 	0.8717	0.44697	0.30244	0.038
Mof_H 	H 	0.8785	0.4824	0.307	0.042
Mof_N 	N 	0.8401	0.2914	0.28174	-0.134
Mof_C 	C 	0.8827	0.37508	0.27423	-0.035
Mof_H 	H 	0.8977	0.3606	0.2595	0.063
Mof_C 	C 	0.6251	0.54398	0.43222	-0.042
Mof_H 	H 	0.6113	0.5132	0.4247	0.058
Mof_C 	C 	0.61566	0.61477	0.46182	-0.039
Mof_H 	H 	0.5952	0.6322	0.4741	0.058
Mof_C 	C 	0.9302	0.4603	0.26641	0.418
Mof_C 	C 	0.8277	0.36447	0.31064	-0.042
Mof_H 	H 	0.8058	0.3427	0.3207	0.06
Mof_C 	C 	0.66665	0.63151	0.45632	-0.102
Mof_C 	C 	0.8382	0.41568	0.31782	-0.088
Mof_O 	O 	0.94673	0.43919	0.24606	-0.46
Mof_C 	C 	0.69668	0.60365	0.4381	0.042
Mof_H 	H 	0.7313	0.6148	0.4341	0.037
Mof_C 	C 	0.8491	0.34525	0.28889	0.07
Mof_C 	C 	0.67573	0.5613	0.42646	-0.099
Mof_C 	C 	0.59582	0.5721	0.44887	0.069
Mof_C 	C 	0.8234	0.2771	0.25646	-0.003
Mof_H 	H 	0.8146	0.3	0.2431	0.034
Mof_C 	C 	0.5302	0.5077	0.46011	0.006
Mof_H 	H 	0.5534	0.4796	0.4639	0.027
Mof_C 	C 	0.8942	0.4271	0.28135	-0.1
Mof_O 	O 	0.68501	0.49495	0.39634	-0.473
Mof_Zn	Zn	0.22329	0.9446	0.8732	1.194
Mof_O 	O 	0.2773	0.91182	0.85025	-0.472
Mof_C 	C 	0.3129	0.9387	0.83984	0.374
Mof_O 	O 	0.444	0.00263	0.77417	-0.499
Mof_O 	O 	0.32897	0.98403	0.84728	-0.474
Mof_C 	C 	0.1891	0.1767	0.96935	0.4
Mof_O 	O 	0.16653	0.19525	0.98795	-0.483
Mof_N 	N 	0.0422	0.05683	0.95355	-0.126
Mof_O 	O 	0.25417	0.04599	0.90509	-0.479
Mof_C 	C 	0.2075	0.0321	0.90799	0.396
Mof_O 	O 	0.23206	0.19538	0.96027	-0.482
Mof_C 	C 	0.3717	0.94697	0.80244	0.042
Mof_H 	H 	0.3785	0.9824	0.807	0.036
Mof_N 	N 	0.3401	0.7914	0.78174	-0.134
Mof_C 	C 	0.3827	0.87508	0.77423	-0.031
Mof_H 	H 	0.3977	0.8606	0.7595	0.055
Mof_C 	C 	0.1251	0.04398	0.93222	-0.035
Mof_H 	H 	0.1113	0.0132	0.9247	0.051
Mof_C 	C 	0.11566	0.11477	0.96182	-0.033
Mof_H 	H 	0.0952	0.1322	0.9741	0.05
Mof_C 	C 	0.4302	0.9603	0.76641	0.424
Mof_C 	C 	0.3277	0.86447	0.81064	-0.039
Mof_H 	H 	0.3058	0.8427	0.8207	0.057
Mof_C 	C 	0.16665	0.13151	0.95632	-0.109
Mof_C 	C 	0.3382	0.91568	0.81782	-0.095
Mof_O 	O 	0.44673	0.93919	0.74606	-0.483
Mof_C 	C 	0.19668	0.10365	0.9381	0.047
Mof_H 	H 	0.2313	0.1148	0.9341	0.034
Mof_C 	C 	0.3491	0.84525	0.78889	0.063
Mof_C 	C 	0.17573	0.0613	0.92646	-0.106
Mof_C 	C 	0.09582	0.0721	0.94887	0.057
Mof_C 	C 	0.3234	0.7771	0.75646	-0.005
Mof_H 	H 	0.3146	0.8	0.7431	0.032
Mof_C 	C 	0.0302	0.0077	0.96011	-0.058
Mof_H 	H 	0.0534	0.9796	0.9639	0.04
Mof_C 	C 	0.3942	0.9271	0.78135	-0.111
Mof_O 	O 	0.18501	0.99495	0.89634	-0.477
Mof_Zn	Zn	0.1946	0.02671	0.6232	1.193
Mof_O 	O 	0.16182	0.9727	0.60025	-0.475
Mof_C 	C 	0.1887	0.9371	0.58984	0.375
Mof_O 	O 	0.25263	0.806	0.52417	-0.499
Mof_O 	O 	0.23403	0.92103	0.59728	-0.475
Mof_C 	C 	0.4267	0.0609	0.71935	0.398
Mof_O 	O 	0.44525	0.08347	0.73795	-0.478
Mof_N 	N 	0.30683	0.2078	0.70355	-0.144
Mof_O 	O 	0.29599	0.99583	0.65509	-0.478
Mof_C 	C 	0.2821	0.0425	0.65799	0.394
Mof_O 	O 	0.44538	0.01794	0.71027	-0.481
Mof_C 	C 	0.19697	0.8783	0.55244	0.045
Mof_H 	H 	0.2324	0.8715	0.557	0.035
Mof_N 	N 	0.0414	0.9099	0.53174	-0.118
Mof_C 	C 	0.12508	0.8673	0.52423	-0.027
Mof_H 	H 	0.1106	0.8523	0.5095	0.05
Mof_C 	C 	0.29398	0.1249	0.68222	-0.04
Mof_H 	H 	0.2632	0.1387	0.6747	0.056
Mof_C 	C 	0.36477	0.13434	0.71182	-0.038
Mof_H 	H 	0.3822	0.1548	0.7241	0.057
Mof_C 	C 	0.2103	0.8198	0.51641	0.425
Mof_C 	C 	0.11447	0.9223	0.56064	-0.034
Mof_H 	H 	0.0927	0.9442	0.5707	0.05
Mof_C 	C 	0.38151	0.08335	0.70632	-0.104
Mof_C 	C 	0.16568	0.9118	0.56782	-0.1
Mof_O 	O 	0.18919	0.80327	0.49606	-0.486
Mof_C 	C 	0.35365	0.05332	0.6881	0.043
Mof_H 	H 	0.3648	0.0187	0.6841	0.035
Mof_C 	C 	0.09525	0.9009	0.53889	0.053
Mof_C 	C 	0.3113	0.07427	0.67646	-0.101
Mof_C 	C 	0.3221	0.15418	0.69887	0.068
Mof_C 	C 	0.0271	0.9266	0.50646	-0.091
Mof_H 	H 	0.05	0.9354	0.4931	0.052
Mof_C 	C 	0.2577	0.2198	0.71011	0.005
Mof_H 	H 	0.2296	0.1966	0.7139	0.025
Mof_C 	C 	0.1771	0.8558	0.53135	-0.116
Mof_O 	O 	0.24495	0.06499	0.64634	-0.476
Mof_Zn	Zn	0.6946	0.52671	0.1232	1.195
Mof_O 	O 	0.66182	0.4727	0.10025	-0.47
Mof_C 	C 	0.6887	0.4371	0.08984	0.373
Mof_O 	O 	0.75263	0.306	0.02417	-0.496
Mof_O 	O 	0.73403	0.42103	0.09728	-0.472
Mof_C 	C 	0.9267	0.5609	0.21935	0.393
Mof_O 	O 	0.94525	0.58347	0.23795	-0.456
Mof_N 	N 	0.80683	0.7078	0.20355	-0.144
Mof_O 	O 	0.79599	0.49583	0.15509	-0.475
Mof_C 	C 	0.7821	0.5425	0.15799	0.393
Mof_O 	O 	0.94538	0.51794	0.21027	-0.458
Mof_C 	C 	0.69697	0.3783	0.05244	0.04
Mof_H 	H 	0.7324	0.3715	0.057	0.038
Mof_N 	N 	0.5414	0.4099	0.03174	-0.134
Mof_C 	C 	0.62508	0.3673	0.02423	-0.033
Mof_H 	H 	0.6106	0.3523	0.0095	0.056
Mof_C 	C 	0.79398	0.6249	0.18222	-0.044
Mof_H 	H 	0.7632	0.6387	0.1747	0.059
Mof_C 	C 	0.86477	0.63434	0.21182	-0.042
Mof_H 	H 	0.8822	0.6548	0.2241	0.064
Mof_C 	C 	0.7103	0.3198	0.01641	0.423
Mof_C 	C 	0.61447	0.4223	0.06064	-0.04
Mof_H 	H 	0.5927	0.4442	0.0707	0.058
Mof_C 	C 	0.88151	0.58335	0.20632	-0.093
Mof_C 	C 	0.66568	0.4118	0.06782	-0.093
Mof_O 	O 	0.68919	0.30327	0.99606	-0.483
Mof_C 	C 	0.85365	0.55332	0.1881	0.039
Mof_H 	H 	0.8648	0.5187	0.1841	0.041
Mof_C 	C 	0.59525	0.4009	0.03889	0.064
Mof_C 	C 	0.8113	0.57427	0.17646	-0.095
Mof_C 	C 	0.8221	0.65418	0.19887	0.074
Mof_C 	C 	0.5271	0.4266	0.00646	-0.005
Mof_H 	H 	0.55	0.4354	0.9931	0.032
Mof_C 	C 	0.7577	0.7198	0.21011	0.007
Mof_H 	H 	0.7296	0.6966	0.2139	0.027
Mof_C 	C 	0.6771	0.3558	0.03135	-0.11
Mof_O 	O 	0.74495	0.56499	0.14634	-0.473
Mof_Zn	Zn	0.3054	0.97329	0.1232	1.195
Mof_O 	O 	0.33818	0.0273	0.10025	-0.47
Mof_C 	C 	0.3113	0.0629	0.08984	0.374
Mof_O 	O 	0.24737	0.194	0.02417	-0.5
Mof_O 	O 	0.26597	0.07897	0.09728	-0.475
Mof_C 	C 	0.0733	0.9391	0.21935	0.4
Mof_O 	O 	0.05475	0.91653	0.23795	-0.493
Mof_N 	N 	0.19317	0.7922	0.20355	-0.144
Mof_O 	O 	0.20401	0.00417	0.15509	-0.481
Mof_C 	C 	0.2179	0.9575	0.15799	0.395
Mof_O 	O 	0.05462	0.98206	0.21027	-0.495
Mof_C 	C 	0.30303	0.1217	0.05244	0.042
Mof_H 	H 	0.2676	0.1285	0.057	0.035
Mof_N 	N 	0.4586	0.0901	0.03174	-0.134
Mof_C 	C 	0.37492	0.1327	0.02423	-0.031
Mof_H 	H 	0.3894	0.1477	0.0095	0.055
Mof_C 	C 	0.20602	0.8751	0.18222	-0.039
Mof_H 	H 	0.2368	0.8613	0.1747	0.056
Mof_C 	C 	0.13523	0.86566	0.21182	-0.037
Mof_H 	H 	0.1178	0.8452	0.2241	0.052
Mof_C 	C 	0.2897	0.1802	0.01641	0.424
Mof_C 	C 	0.38553	0.0777	0.06064	-0.039
Mof_H 	H 	0.4073	0.0558	0.0707	0.057
Mof_C 	C 	0.11849	0.91665	0.20632	-0.11
Mof_C 	C 	0.33432	0.0882	0.06782	-0.095
Mof_O 	O 	0.31081	0.19673	0.99606	-0.483
Mof_C 	C 	0.14635	0.94668	0.1881	0.045
Mof_H 	H 	0.1352	0.9813	0.1841	0.031
Mof_C 	C 	0.40475	0.0991	0.03889	0.063
Mof_C 	C 	0.1887	0.92573	0.17646	-0.104
Mof_C 	C 	0.1779	0.84582	0.19887	0.065
Mof_C 	C 	0.4729	0.0734	0.00646	-0.005
Mof_H 	H 	0.45	0.0646	0.9931	0.032
Mof_C 	C 	0.2423	0.7802	0.21011	0.006
Mof_H 	H 	0.2704	0.8034	0.2139	0.027
Mof_C 	C 	0.3229	0.1442	0.03135	-0.112
Mof_O 	O 	0.25505	0.93501	0.14634	-0.474
Mof_Zn	Zn	0.8054	0.47329	0.6232	1.196
Mof_O 	O 	0.83818	0.5273	0.60025	-0.464
Mof_C 	C 	0.8113	0.5629	0.58984	0.373
Mof_O 	O 	0.74737	0.694	0.52417	-0.497
Mof_O 	O 	0.76597	0.57897	0.59728	-0.472
Mof_C 	C 	0.5733	0.4391	0.71935	0.398
Mof_O 	O 	0.55475	0.41653	0.73795	-0.478
Mof_N 	N 	0.69317	0.2922	0.70355	-0.144
Mof_O 	O 	0.70401	0.50417	0.65509	-0.478
Mof_C 	C 	0.7179	0.4575	0.65799	0.393
Mof_O 	O 	0.55462	0.48206	0.71027	-0.481
Mof_C 	C 	0.80303	0.6217	0.55244	0.04
Mof_H 	H 	0.7676	0.6285	0.557	0.038
Mof_N 	N 	0.9586	0.5901	0.53174	-0.112
Mof_C 	C 	0.87492	0.6327	0.52423	-0.033
Mof_H 	H 	0.8894	0.6477	0.5095	0.061
Mof_C 	C 	0.70602	0.3751	0.68222	-0.042
Mof_H 	H 	0.7368	0.3613	0.6747	0.06
Mof_C 	C 	0.63523	0.36566	0.71182	-0.039
Mof_H 	H 	0.6178	0.3452	0.7241	0.058
Mof_C 	C 	0.7897	0.6802	0.51641	0.422
Mof_C 	C 	0.88553	0.5777	0.56064	-0.04
Mof_H 	H 	0.9073	0.5558	0.5707	0.068
Mof_C 	C 	0.61849	0.41665	0.70632	-0.103
Mof_C 	C 	0.83432	0.5882	0.56782	-0.089
Mof_O 	O 	0.81081	0.69673	0.49606	-0.479
Mof_C 	C 	0.64635	0.44668	0.6881	0.042
Mof_H 	H 	0.6352	0.4813	0.6841	0.036
Mof_C 	C 	0.90475	0.5991	0.53889	0.072
Mof_C 	C 	0.6887	0.42573	0.67646	-0.099
Mof_C 	C 	0.6779	0.34582	0.69887	0.07
Mof_C 	C 	0.9729	0.5734	0.50646	0.083
Mof_H 	H 	0.95	0.5646	0.4931	0.013
Mof_C 	C 	0.7423	0.2802	0.71011	0.007
Mof_H 	H 	0.7704	0.3034	0.7139	0.029
Mof_C 	C 	0.8229	0.6442	0.53135	-0.107
Mof_O 	O 	0.75505	0.43501	0.64634	-0.471
Mof_Zn	Zn	0.72329	0.5554	0.6268	1.195
Mof_O 	O 	0.7773	0.58818	0.64975	-0.469
Mof_C 	C 	0.8129	0.5613	0.66016	0.372
Mof_O 	O 	0.944	0.49737	0.72583	-0.476
Mof_O 	O 	0.82897	0.51597	0.65272	-0.469
Mof_C 	C 	0.6891	0.3233	0.53065	0.397
Mof_O 	O 	0.66653	0.30475	0.51205	-0.478
Mof_N 	N 	0.5422	0.44317	0.54645	-0.144
Mof_O 	O 	0.75417	0.45401	0.59491	-0.477
Mof_C 	C 	0.7075	0.4679	0.59201	0.393
Mof_O 	O 	0.73206	0.30462	0.53973	-0.479
Mof_C 	C 	0.8717	0.55303	0.69756	0.038
Mof_H 	H 	0.8785	0.5176	0.693	0.042
Mof_N 	N 	0.8401	0.7086	0.71826	-0.134
Mof_C 	C 	0.8827	0.62492	0.72577	-0.035
Mof_H 	H 	0.8977	0.6394	0.7405	0.063
Mof_C 	C 	0.6251	0.45602	0.56778	-0.042
Mof_H 	H 	0.6113	0.4868	0.5753	0.058
Mof_C 	C 	0.61566	0.38523	0.53818	-0.039
Mof_H 	H 	0.5952	0.3678	0.5259	0.058
Mof_C 	C 	0.9302	0.5397	0.73359	0.418
Mof_C 	C 	0.8277	0.63553	0.68936	-0.042
Mof_H 	H 	0.8058	0.6573	0.6793	0.06
Mof_C 	C 	0.66665	0.36849	0.54368	-0.102
Mof_C 	C 	0.8382	0.58432	0.68218	-0.088
Mof_O 	O 	0.94673	0.56081	0.75394	-0.46
Mof_C 	C 	0.69668	0.39635	0.5619	0.042
Mof_H 	H 	0.7313	0.3852	0.5659	0.037
Mof_C 	C 	0.8491	0.65475	0.71111	0.07
Mof_C 	C 	0.67573	0.4387	0.57354	-0.099
Mof_C 	C 	0.59582	0.4279	0.55113	0.069
Mof_C 	C 	0.8234	0.7229	0.74354	-0.003
Mof_H 	H 	0.8146	0.7	0.7569	0.034
Mof_C 	C 	0.5302	0.4923	0.53989	0.006
Mof_H 	H 	0.5534	0.5204	0.5361	0.027
Mof_C 	C 	0.8942	0.5729	0.71865	-0.1
Mof_O 	O 	0.68501	0.50505	0.60366	-0.473
Mof_Zn	Zn	0.22329	0.0554	0.1268	1.194
Mof_O 	O 	0.2773	0.08818	0.14975	-0.472
Mof_C 	C 	0.3129	0.0613	0.16016	0.374
Mof_O 	O 	0.444	0.99737	0.22583	-0.499
Mof_O 	O 	0.32897	0.01597	0.15272	-0.474
Mof_C 	C 	0.1891	0.8233	0.03065	0.4
Mof_O 	O 	0.16653	0.80475	0.01205	-0.483
Mof_N 	N 	0.0422	0.94317	0.04645	-0.126
Mof_O 	O 	0.25417	0.95401	0.09491	-0.479
Mof_C 	C 	0.2075	0.9679	0.09201	0.396
Mof_O 	O 	0.23206	0.80462	0.03973	-0.482
Mof_C 	C 	0.3717	0.05303	0.19756	0.042
Mof_H 	H 	0.3785	0.0176	0.193	0.036
Mof_N 	N 	0.3401	0.2086	0.21826	-0.134
Mof_C 	C 	0.3827	0.12492	0.22577	-0.031
Mof_H 	H 	0.3977	0.1394	0.2405	0.055
Mof_C 	C 	0.1251	0.95602	0.06778	-0.035
Mof_H 	H 	0.1113	0.9868	0.0753	0.051
Mof_C 	C 	0.11566	0.88523	0.03818	-0.033
Mof_H 	H 	0.0952	0.8678	0.0259	0.05
Mof_C 	C 	0.4302	0.0397	0.23359	0.424
Mof_C 	C 	0.3277	0.13553	0.18936	-0.039
Mof_H 	H 	0.3058	0.1573	0.1793	0.057
Mof_C 	C 	0.16665	0.86849	0.04368	-0.109
Mof_C 	C 	0.3382	0.08432	0.18218	-0.095
Mof_O 	O 	0.44673	0.06081	0.25394	-0.483
Mof_C 	C 	0.19668	0.89635	0.0619	0.047
Mof_H 	H 	0.2313	0.8852	0.0659	0.034
Mof_C 	C 	0.3491	0.15475	0.21111	0.063
Mof_C 	C 	0.17573	0.9387	0.07354	-0.106
Mof_C 	C 	0.09582	0.9279	0.05113	0.057
Mof_C 	C 	0.3234	0.2229	0.24354	-0.005
Mof_H 	H 	0.3146	0.2	0.2569	0.032
Mof_C 	C 	0.0302	0.9923	0.03989	-0.058
Mof_H 	H 	0.0534	0.0204	0.0361	0.04
Mof_C 	C 	0.3942	0.0729	0.21865	-0.111
Mof_O 	O 	0.18501	0.00505	0.10366	-0.477
Mof_Zn	Zn	0.77671	0.4446	0.1268	1.196
Mof_O 	O 	0.7227	0.41182	0.14975	-0.468
Mof_C 	C 	0.6871	0.4387	0.16016	0.373
Mof_O 	O 	0.556	0.50263	0.22583	-0.498
Mof_O 	O 	0.67103	0.48403	0.15272	-0.474
Mof_C 	C 	0.8109	0.6767	0.03065	0.397
Mof_O 	O 	0.83347	0.69525	0.01205	-0.473
Mof_N 	N 	0.9578	0.55683	0.04645	-0.121
Mof_O 	O 	0.74583	0.54599	0.09491	-0.478
Mof_C 	C 	0.7925	0.5321	0.09201	0.393
Mof_O 	O 	0.76794	0.69538	0.03973	-0.479
Mof_C 	C 	0.6283	0.44697	0.19756	0.041
Mof_H 	H 	0.6215	0.4824	0.193	0.037
Mof_N 	N 	0.6599	0.2914	0.21826	-0.134
Mof_C 	C 	0.6173	0.37508	0.22577	-0.032
Mof_H 	H 	0.6023	0.3606	0.2405	0.056
Mof_C 	C 	0.8749	0.54398	0.06778	-0.043
Mof_H 	H 	0.8887	0.5132	0.0753	0.064
Mof_C 	C 	0.88434	0.61477	0.03818	-0.039
Mof_H 	H 	0.9048	0.6322	0.0259	0.068
Mof_C 	C 	0.5698	0.4603	0.23359	0.423
Mof_C 	C 	0.6723	0.36447	0.18936	-0.04
Mof_H 	H 	0.6942	0.3427	0.1793	0.059
Mof_C 	C 	0.83335	0.63151	0.04368	-0.098
Mof_C 	C 	0.6618	0.41568	0.18218	-0.094
Mof_O 	O 	0.55327	0.43919	0.25394	-0.483
Mof_C 	C 	0.80332	0.60365	0.0619	0.041
Mof_H 	H 	0.7687	0.6148	0.0659	0.037
Mof_C 	C 	0.6509	0.34525	0.21111	0.064
Mof_C 	C 	0.82427	0.5613	0.07354	-0.096
Mof_C 	C 	0.90418	0.5721	0.05113	0.077
Mof_C 	C 	0.6766	0.2771	0.24354	-0.004
Mof_H 	H 	0.6854	0.3	0.2569	0.032
Mof_C 	C 	0.9698	0.5077	0.03989	0.072
Mof_H 	H 	0.9466	0.4796	0.0361	0.016
Mof_C 	C 	0.6058	0.4271	0.21865	-0.111
Mof_O 	O 	0.81499	0.49495	0.10366	-0.469
Mof_Zn	Zn	0.27671	0.9446	0.6268	1.195
Mof_O 	O 	0.2227	0.91182	0.64975	-0.471
Mof_C 	C 	0.1871	0.9387	0.66016	0.374
Mof_O 	O 	0.056	0.00263	0.72583	-0.512
Mof_O 	O 	0.17103	0.98403	0.65272	-0.478
Mof_C 	C 	0.3109	0.1767	0.53065	0.398
Mof_O 	O 	0.33347	0.19525	0.51205	-0.478
Mof_N 	N 	0.4578	0.05683	0.54645	-0.144
Mof_O 	O 	0.24583	0.04599	0.59491	-0.48
Mof_C 	C 	0.2925	0.0321	0.59201	0.395
Mof_O 	O 	0.26794	0.19538	0.53973	-0.482
Mof_C 	C 	0.1283	0.94697	0.69756	0.044
Mof_H 	H 	0.1215	0.9824	0.693	0.032
Mof_N 	N 	0.1599	0.7914	0.71826	-0.134
Mof_C 	C 	0.1173	0.87508	0.72577	-0.03
Mof_H 	H 	0.1023	0.8606	0.7405	0.049
Mof_C 	C 	0.3749	0.04398	0.56778	-0.041
Mof_H 	H 	0.3887	0.0132	0.5753	0.057
Mof_C 	C 	0.38434	0.11477	0.53818	-0.038
Mof_H 	H 	0.4048	0.1322	0.5259	0.057
Mof_C 	C 	0.0698	0.9603	0.73359	0.426
Mof_C 	C 	0.1723	0.86447	0.68936	-0.038
Mof_H 	H 	0.1942	0.8427	0.6793	0.056
Mof_C 	C 	0.33335	0.13151	0.54368	-0.104
Mof_C 	C 	0.1618	0.91568	0.68218	-0.1
Mof_O 	O 	0.05327	0.93919	0.75394	-0.497
Mof_C 	C 	0.30332	0.10365	0.5619	0.043
Mof_H 	H 	0.2687	0.1148	0.5659	0.034
Mof_C 	C 	0.1509	0.84525	0.71111	0.059
Mof_C 	C 	0.32427	0.0613	0.57354	-0.101
Mof_C 	C 	0.40418	0.0721	0.55113	0.068
Mof_C 	C 	0.1766	0.7771	0.74354	-0.007
Mof_H 	H 	0.1854	0.8	0.7569	0.031
Mof_C 	C 	0.4698	0.0077	0.53989	0.006
Mof_H 	H 	0.4466	0.9796	0.5361	0.027
Mof_C 	C 	0.1058	0.9271	0.71865	-0.119
Mof_O 	O 	0.31499	0.99495	0.60366	-0.474
Mof_Zn	Zn	0.3054	0.02671	0.8768	1.195
Mof_O 	O 	0.33818	0.9727	0.89975	-0.47
Mof_C 	C 	0.3113	0.9371	0.91016	0.374
Mof_O 	O 	0.24737	0.806	0.97583	-0.5
Mof_O 	O 	0.26597	0.92103	0.90272	-0.475
Mof_C 	C 	0.0733	0.0609	0.78065	0.4
Mof_O 	O 	0.05475	0.08347	0.76205	-0.493
Mof_N 	N 	0.19317	0.2078	0.79645	-0.144
Mof_O 	O 	0.20401	0.99583	0.84491	-0.481
Mof_C 	C 	0.2179	0.0425	0.84201	0.395
Mof_O 	O 	0.05462	0.01794	0.78973	-0.495
Mof_C 	C 	0.30303	0.8783	0.94756	0.042
Mof_H 	H 	0.2676	0.8715	0.943	0.035
Mof_N 	N 	0.4586	0.9099	0.96826	-0.134
Mof_C 	C 	0.37492	0.8673	0.97577	-0.031
Mof_H 	H 	0.3894	0.8523	0.9905	0.055
Mof_C 	C 	0.20602	0.1249	0.81778	-0.039
Mof_H 	H 	0.2368	0.1387	0.8253	0.056
Mof_C 	C 	0.13523	0.13434	0.78818	-0.037
Mof_H 	H 	0.1178	0.1548	0.7759	0.052
Mof_C 	C 	0.2897	0.8198	0.98359	0.424
Mof_C 	C 	0.38553	0.9223	0.93936	-0.039
Mof_H 	H 	0.4073	0.9442	0.9293	0.057
Mof_C 	C 	0.11849	0.08335	0.79368	-0.11
Mof_C 	C 	0.33432	0.9118	0.93218	-0.095
Mof_O 	O 	0.31081	0.80327	0.00394	-0.483
Mof_C 	C 	0.14635	0.05332	0.8119	0.045
Mof_H 	H 	0.1352	0.0187	0.8159	0.031
Mof_C 	C 	0.40475	0.9009	0.96111	0.063
Mof_C 	C 	0.1887	0.07427	0.82354	-0.104
Mof_C 	C 	0.1779	0.15418	0.80113	0.065
Mof_C 	C 	0.4729	0.9266	0.99354	-0.005
Mof_H 	H 	0.45	0.9354	0.0069	0.032
Mof_C 	C 	0.2423	0.2198	0.78989	0.006
Mof_H 	H 	0.2704	0.1966	0.7861	0.027
Mof_C 	C 	0.3229	0.8558	0.96865	-0.112
Mof_O 	O 	0.25505	0.06499	0.85366	-0.474
Mof_Zn	Zn	0.8054	0.52671	0.3768	1.196
Mof_O 	O 	0.83818	0.4727	0.39975	-0.464
Mof_C 	C 	0.8113	0.4371	0.41016	0.373
Mof_O 	O 	0.74737	0.306	0.47583	-0.497
Mof_O 	O 	0.76597	0.42103	0.40272	-0.472
Mof_C 	C 	0.5733	0.5609	0.28065	0.398
Mof_O 	O 	0.55475	0.58347	0.26205	-0.478
Mof_N 	N 	0.69317	0.7078	0.29645	-0.144
Mof_O 	O 	0.70401	0.49583	0.34491	-0.478
Mof_C 	C 	0.7179	0.5425	0.34201	0.393
Mof_O 	O 	0.55462	0.51794	0.28973	-0.481
Mof_C 	C 	0.80303	0.3783	0.44756	0.04
Mof_H 	H 	0.7676	0.3715	0.443	0.038
Mof_N 	N 	0.9586	0.4099	0.46826	-0.112
Mof_C 	C 	0.87492	0.3673	0.47577	-0.033
Mof_H 	H 	0.8894	0.3523	0.4905	0.061
Mof_C 	C 	0.70602	0.6249	0.31778	-0.042
Mof_H 	H 	0.7368	0.6387	0.3253	0.06
Mof_C 	C 	0.63523	0.63434	0.28818	-0.039
Mof_H 	H 	0.6178	0.6548	0.2759	0.058
Mof_C 	C 	0.7897	0.3198	0.48359	0.422
Mof_C 	C 	0.88553	0.4223	0.43936	-0.04
Mof_H 	H 	0.9073	0.4442	0.4293	0.068
Mof_C 	C 	0.61849	0.58335	0.29368	-0.103
Mof_C 	C 	0.83432	0.4118	0.43218	-0.089
Mof_O 	O 	0.81081	0.30327	0.50394	-0.479
Mof_C 	C 	0.64635	0.55332	0.3119	0.042
Mof_H 	H 	0.6352	0.5187	0.3159	0.036
Mof_C 	C 	0.90475	0.4009	0.46111	0.072
Mof_C 	C 	0.6887	0.57427	0.32354	-0.099
Mof_C 	C 	0.6779	0.65418	0.30113	0.07
Mof_C 	C 	0.9729	0.4266	0.49354	0.083
Mof_H 	H 	0.95	0.4354	0.5069	0.013
Mof_C 	C 	0.7423	0.7198	0.28989	0.007
Mof_H 	H 	0.7704	0.6966	0.2861	0.029
Mof_C 	C 	0.8229	0.3558	0.46865	-0.107
Mof_O 	O 	0.75505	0.56499	0.35366	-0.471
Mof_Zn	Zn	0.1946	0.97329	0.3768	1.193
Mof_O 	O 	0.16182	0.0273	0.39975	-0.475
Mof_C 	C 	0.1887	0.0629	0.41016	0.375
Mof_O 	O 	0.25263	0.194	0.47583	-0.499
Mof_O 	O 	0.23403	0.07897	0.40272	-0.475
Mof_C 	C 	0.4267	0.9391	0.28065	0.398
Mof_O 	O 	0.44525	0.91653	0.26205	-0.478
Mof_N 	N 	0.30683	0.7922	0.29645	-0.144
Mof_O 	O 	0.29599	0.00417	0.34491	-0.478
Mof_C 	C 	0.2821	0.9575	0.34201	0.394
Mof_O 	O 	0.44538	0.98206	0.28973	-0.481
Mof_C 	C 	0.19697	0.1217	0.44756	0.045
Mof_H 	H 	0.2324	0.1285	0.443	0.035
Mof_N 	N 	0.0414	0.0901	0.46826	-0.118
Mof_C 	C 	0.12508	0.1327	0.47577	-0.027
Mof_H 	H 	0.1106	0.1477	0.4905	0.05
Mof_C 	C 	0.29398	0.8751	0.31778	-0.04
Mof_H 	H 	0.2632	0.8613	0.3253	0.056
Mof_C 	C 	0.36477	0.86566	0.28818	-0.038
Mof_H 	H 	0.3822	0.8452	0.2759	0.057
Mof_C 	C 	0.2103	0.1802	0.48359	0.425
Mof_C 	C 	0.11447	0.0777	0.43936	-0.034
Mof_H 	H 	0.0927	0.0558	0.4293	0.05
Mof_C 	C 	0.38151	0.91665	0.29368	-0.104
Mof_C 	C 	0.16568	0.0882	0.43218	-0.1
Mof_O 	O 	0.18919	0.19673	0.50394	-0.486
Mof_C 	C 	0.35365	0.94668	0.3119	0.043
Mof_H 	H 	0.3648	0.9813	0.3159	0.035
Mof_C 	C 	0.09525	0.0991	0.46111	0.053
Mof_C 	C 	0.3113	0.92573	0.32354	-0.101
Mof_C 	C 	0.3221	0.84582	0.30113	0.068
Mof_C 	C 	0.0271	0.0734	0.49354	-0.091
Mof_H 	H 	0.05	0.0646	0.5069	0.052
Mof_C 	C 	0.2577	0.7802	0.28989	0.005
Mof_H 	H 	0.2296	0.8034	0.2861	0.025
Mof_C 	C 	0.1771	0.1442	0.46865	-0.116
Mof_O 	O 	0.24495	0.93501	0.35366	-0.476
Mof_Zn	Zn	0.6946	0.47329	0.8768	1.195
Mof_O 	O 	0.66182	0.5273	0.89975	-0.47
Mof_C 	C 	0.6887	0.5629	0.91016	0.373
Mof_O 	O 	0.75263	0.694	0.97583	-0.496
Mof_O 	O 	0.73403	0.57897	0.90272	-0.472
Mof_C 	C 	0.9267	0.4391	0.78065	0.393
Mof_O 	O 	0.94525	0.41653	0.76205	-0.456
Mof_N 	N 	0.80683	0.2922	0.79645	-0.144
Mof_O 	O 	0.79599	0.50417	0.84491	-0.475
Mof_C 	C 	0.7821	0.4575	0.84201	0.393
Mof_O 	O 	0.94538	0.48206	0.78973	-0.458
Mof_C 	C 	0.69697	0.6217	0.94756	0.04
Mof_H 	H 	0.7324	0.6285	0.943	0.038
Mof_N 	N 	0.5414	0.5901	0.96826	-0.134
Mof_C 	C 	0.62508	0.6327	0.97577	-0.033
Mof_H 	H 	0.6106	0.6477	0.9905	0.056
Mof_C 	C 	0.79398	0.3751	0.81778	-0.044
Mof_H 	H 	0.7632	0.3613	0.8253	0.059
Mof_C 	C 	0.86477	0.36566	0.78818	-0.042
Mof_H 	H 	0.8822	0.3452	0.7759	0.064
Mof_C 	C 	0.7103	0.6802	0.98359	0.423
Mof_C 	C 	0.61447	0.5777	0.93936	-0.04
Mof_H 	H 	0.5927	0.5558	0.9293	0.058
Mof_C 	C 	0.88151	0.41665	0.79368	-0.093
Mof_C 	C 	0.66568	0.5882	0.93218	-0.093
Mof_O 	O 	0.68919	0.69673	0.00394	-0.483
Mof_C 	C 	0.85365	0.44668	0.8119	0.039
Mof_H 	H 	0.8648	0.4813	0.8159	0.041
Mof_C 	C 	0.59525	0.5991	0.96111	0.064
Mof_C 	C 	0.8113	0.42573	0.82354	-0.095
Mof_C 	C 	0.8221	0.34582	0.80113	0.074
Mof_C 	C 	0.5271	0.5734	0.99354	-0.005
Mof_H 	H 	0.55	0.5646	0.0069	0.032
Mof_C 	C 	0.7577	0.2802	0.78989	0.007
Mof_H 	H 	0.7296	0.3034	0.7861	0.027
Mof_C 	C 	0.6771	0.6442	0.96865	-0.11
Mof_O 	O 	0.74495	0.43501	0.85366	-0.473
Mof_Zn	Zn	0.28215	0.75	0.02747	1.204
Mof_Zn	Zn	0.1968	0.75	0.98908	1.199
Mof_Zn	Zn	0.21785	0.25	0.52747	1.203
Mof_Zn	Zn	0.3032	0.25	0.48908	1.2
Mof_Zn	Zn	0.5	0.03215	0.27747	1.204
Mof_Zn	Zn	0.5	0.9468	0.23908	1.2
Mof_Zn	Zn	6.14263e-33	0.53215	0.77747	1.188
Mof_Zn	Zn	5.83932e-33	0.4468	0.73908	1.185
Mof_Zn	Zn	-5.49341e-33	0.96785	0.77747	1.189
Mof_Zn	Zn	5.83932e-33	0.0532	0.73908	1.185
Mof_Zn	Zn	0.5	0.46785	0.27747	1.204
Mof_Zn	Zn	0.5	0.5532	0.23908	1.2
Mof_Zn	Zn	0.21785	0.75	0.47253	1.203
Mof_Zn	Zn	0.3032	0.75	0.51092	1.2
Mof_Zn	Zn	0.28215	0.25	0.97253	1.204
Mof_Zn	Zn	0.1968	0.25	0.01092	1.199
Mof_Zn	Zn	1.75816e-33	0.03215	0.22253	1.189
Mof_Zn	Zn	2.06148e-33	0.9468	0.26092	1.185
Mof_Zn	Zn	0.5	0.53215	0.72253	1.204
Mof_Zn	Zn	0.5	0.4468	0.76092	1.2
Mof_Zn	Zn	0.5	0.96785	0.72253	1.204
Mof_Zn	Zn	0.5	0.0532	0.76092	1.2
Mof_Zn	Zn	1.75816e-33	0.46785	0.22253	1.188
Mof_Zn	Zn	2.06148e-33	0.5532	0.26092	1.185
Mof_Zn	Zn	0.71785	0.25	0.97253	1.204
Mof_Zn	Zn	0.8032	0.25	0.01092	1.202
Mof_Zn	Zn	0.78215	0.75	0.47253	1.205
Mof_Zn	Zn	0.6968	0.75	0.51092	1.2
Mof_Zn	Zn	0.78215	0.25	0.52747	1.205
Mof_Zn	Zn	0.6968	0.25	0.48908	1.2
Mof_Zn	Zn	0.71785	0.75	0.02747	1.204
Mof_Zn	Zn	0.8032	0.75	0.98908	1.202
Mof_C 	C 	0.3491	0.25	0.20462	0.103
Mof_H 	H 	0.3603	0.25	0.1877	0.002
Mof_C 	C 	0.1509	0.75	0.70462	0.1
Mof_H 	H 	0.1397	0.75	0.6877	-0.001
Mof_C 	C 	3.59186e-33	0.0991	0.45462	0.043
Mof_H 	H 	3.45818e-33	0.1103	0.4377	0.007
Mof_C 	C 	0.5	0.5991	0.95462	0.104
Mof_H 	H 	0.5	0.6103	0.9377	0.003
Mof_C 	C 	0.5	0.9009	0.95462	0.104
Mof_H 	H 	0.5	0.8897	0.9377	0.003
Mof_C 	C 	-8.04418e-33	0.4009	0.45462	0.043
Mof_H 	H 	3.45818e-33	0.3897	0.4377	0.007
Mof_C 	C 	0.1509	0.25	0.29538	0.1
Mof_H 	H 	0.1397	0.25	0.3123	-0.001
Mof_C 	C 	0.3491	0.75	0.79538	0.103
Mof_H 	H 	0.3603	0.75	0.8123	0.002
Mof_C 	C 	0.8491	0.25	0.29538	0.107
Mof_H 	H 	0.8603	0.25	0.3123	0.007
Mof_C 	C 	0.5	0.0991	0.04538	0.104
Mof_H 	H 	0.5	0.1103	0.0623	0.003
Mof_C 	C 	-7.32711e-33	0.5991	0.54538	0.043
Mof_H 	H 	1.60787e-32	0.6103	0.5623	0.007
Mof_C 	C 	-7.32711e-33	0.9009	0.54538	0.043
Mof_H 	H 	4.44262e-33	0.8897	0.5623	0.007
Mof_C 	C 	0.5	0.4009	0.04538	0.104
Mof_H 	H 	0.5	0.3897	0.0623	0.003
Mof_C 	C 	0.6509	0.75	0.79538	0.104
Mof_H 	H 	0.6397	0.75	0.8123	0.003
Mof_C 	C 	0.8491	0.75	0.70462	0.107
Mof_H 	H 	0.8603	0.75	0.6877	0.007
Mof_C 	C 	0.6509	0.25	0.20462	0.104
Mof_H 	H 	0.6397	0.25	0.1877	0.003
Mof_C 	C 	1.11889e-33	0.5835	0.04957	0.053
Mof_H 	H 	4.25063e-34	0.6198	0.0538	0.005
Mof_C 	C 	0.5	0.0835	0.54957	0.117
Mof_H 	H 	0.5	0.1198	0.5538	-0.001
Mof_C 	C 	0.5	0.4165	0.54957	0.117
Mof_H 	H 	0.5	0.3802	0.5538	-0.001
Mof_C 	C 	-1.05171e-32	0.9165	0.04957	0.053
Mof_H 	H 	6.24308e-33	0.8802	0.0538	0.004
Mof_C 	C 	0.6665	0.75	0.29957	0.117
Mof_H 	H 	0.6302	0.75	0.3038	-0.001
Mof_C 	C 	0.8335	0.25	0.79957	0.118
Mof_H 	H 	0.8698	0.25	0.8038	0.005
Mof_C 	C 	0.5	0.5835	0.45043	0.117
Mof_H 	H 	0.5	0.6198	0.4462	-0.001
Mof_C 	C 	-1.57629e-32	0.0835	0.95043	0.053
Mof_H 	H 	-1.57963e-32	0.1198	0.9462	0.004
Mof_C 	C 	-1.57629e-32	0.4165	0.95043	0.053
Mof_H 	H 	-1.57963e-32	0.3802	0.9462	0.005
Mof_C 	C 	0.5	0.9165	0.45043	0.117
Mof_H 	H 	0.5	0.8802	0.4462	-0.001
Mof_C 	C 	0.8335	0.75	0.20043	0.118
Mof_H 	H 	0.8698	0.75	0.1962	0.005
Mof_C 	C 	0.6665	0.25	0.70043	0.117
Mof_H 	H 	0.6302	0.25	0.6962	-0.001
Mof_C 	C 	0.3335	0.25	0.70043	0.116
Mof_H 	H 	0.3698	0.25	0.6962	-0
Mof_C 	C 	0.1665	0.75	0.20043	0.115
Mof_H 	H 	0.1302	0.75	0.1962	-0.006
Mof_C 	C 	0.1665	0.25	0.79957	0.115
Mof_H 	H 	0.1302	0.25	0.8038	-0.006
Mof_C 	C 	0.3335	0.75	0.29957	0.116
Mof_H 	H 	0.3698	0.75	0.3038	-0
_end
