data_functionalizedCrystal
_audit_creation_method	'EQeq! by Chris Wilmer'
_symmetry_space_group_name_H-M	'P1'
_symmetry_Int_Tables_number	1
_symmetry_cell_setting	triclinic
loop_
_symmetry_equiv_pos_as_xyz
  x,y,z
_cell_length_a	21.9362
_cell_length_b	16.7329
_cell_length_c	25.5715
_cell_angle_alpha	90
_cell_angle_beta	115.324
_cell_angle_gamma	90
loop_
_atom_site_label
_atom_site_type_symbol
_atom_site_fract_x
_atom_site_fract_y
_atom_site_fract_z
_atom_site_charge
Mof_Ag	Ag	0.34428	0.95836	0.36767	0.523
Mof_Ag	Ag	0.32166	0.25405	0.86719	0.534
Mof_C 	C 	0.5974	0.4705	-0	0.095
Mof_C 	C 	0.1235	0.2563	0.501	0.095
Mof_C 	C 	0.0329	0.3109	0.4101	-0.155
Mof_H 	H 	0.0541	0.2897	0.3886	0.084
Mof_C 	C 	0.7201	0.6503	0.8917	0.073
Mof_H 	H 	0.7006	0.654	0.8515	-0.03
Mof_C 	C 	0.0602	0.3014	0.4687	0.067
Mof_C 	C 	0.5027	0.3844	0.9953	-0.139
Mof_H 	H 	0.5222	0.3837	0.0355	0.085
Mof_C 	C 	0.5327	0.4261	0.9659	0.074
Mof_C 	C 	0.2978	0.0839	0.505	-0.136
Mof_H 	H 	0.3199	0.0875	0.5451	0.084
Mof_C 	C 	0.4435	0.3438	0.9642	0.091
Mof_H 	H 	0.4236	0.3163	0.9845	-0.015
Mof_C 	C 	0.6813	0.5515	0.0058	0.087
Mof_C 	C 	0.2097	0.2253	0.5866	0.098
Mof_C 	C 	0.7767	0.6376	0.0088	-0.151
Mof_H 	H 	0.7975	0.6348	0.0489	0.077
Mof_C 	C 	0.2361	0.0658	0.3888	0.088
Mof_H 	H 	0.2145	0.0591	0.3489	-0.012
Mof_C 	C 	0.7113	0.4929	0.1511	0.064
Mof_C 	C 	0.2426	0.2359	0.6502	0.065
Mof_C 	C 	0.0256	0.3347	0.4982	-0.155
Mof_H 	H 	0.0423	0.3295	0.5381	0.078
Mof_C 	C 	0.9672	0.3745	0.4679	0.083
Mof_H 	H 	0.9453	0.397	0.4884	-0.025
Mof_C 	C 	0.6792	0.5017	0.0868	0.095
Mof_C 	C 	0.7144	0.6006	0.9767	0.065
Mof_C 	C 	0.2054	0.1725	0.5045	0.103
Mof_C 	C 	0.6782	0.4572	0.1798	-0.147
Mof_H 	H 	0.6342	0.4392	0.1596	0.085
Mof_C 	C 	0.2356	0.1219	0.4741	0.069
Mof_C 	C 	0.3254	0.041	0.4743	0.091
Mof_H 	H 	0.3675	0.0177	0.4948	-0.015
Mof_C 	C 	0.6866	0.6084	0.9177	-0.146
Mof_H 	H 	0.645	0.5854	0.8952	0.082
Mof_C 	C 	0.9732	0.3524	0.3834	0.082
Mof_H 	H 	0.9554	0.3592	0.3435	-0.023
Mof_C 	C 	0.2044	0.1112	0.4145	-0.137
Mof_H 	H 	0.1626	0.1344	0.3925	0.085
Mof_C 	C 	0.5016	0.4254	0.9066	-0.148
Mof_H 	H 	0.5197	0.4539	0.8854	0.083
Mof_C 	C 	0.8052	0.5062	0.2417	0.087
Mof_H 	H 	0.8492	0.5238	0.2629	-0.029
Mof_C 	C 	0.8065	0.679	0.9781	0.089
Mof_H 	H 	0.8481	0.7032	0.9991	-0.017
Mof_C 	C 	0.7109	0.4482	0.2392	0.085
Mof_H 	H 	0.6878	0.4244	0.2583	-0.017
Mof_C 	C 	0.7771	0.5176	0.1826	-0.155
Mof_H 	H 	0.8016	0.5411	0.1647	0.077
Mof_C 	C 	0.4435	0.3819	0.8789	0.091
Mof_H 	H 	0.424	0.3801	0.8387	-0.01
Mof_C 	C 	0.215	0.2868	0.6767	-0.138
Mof_H 	H 	0.1764	0.3161	0.6548	0.071
Mof_C 	C 	0.3011	0.1965	0.6843	-0.152
Mof_H 	H 	0.3229	0.1643	0.6679	0.087
Mof_C 	C 	0.3267	0.2057	0.7431	0.097
Mof_H 	H 	0.3659	0.1779	0.7656	-0.025
Mof_C 	C 	0.2453	0.2935	0.7361	0.07
Mof_H 	H 	0.2271	0.3291	0.7536	-0.017
Mof_N 	N 	0.2958	0.0308	0.4173	-0.195
Mof_N 	N 	0.9394	0.3834	0.4109	-0.218
Mof_N 	N 	0.3002	0.2509	0.7702	-0.201
Mof_N 	N 	0.148	0.211	0.4717	-0.138
Mof_N 	N 	0.1527	0.2669	0.5582	-0.142
Mof_N 	N 	0.2377	0.1771	0.5621	-0.138
Mof_N 	N 	0.7794	0.6857	0.9216	-0.213
Mof_N 	N 	0.4134	0.342	0.9068	-0.191
Mof_N 	N 	0.7746	0.4725	0.2704	-0.202
Mof_N 	N 	0.6252	0.5116	0.9723	-0.139
Mof_N 	N 	0.6224	0.4626	0.0578	-0.137
Mof_N 	N 	0.7104	0.5492	0.0637	-0.148
Mof_Ag	Ag	0.84428	0.45836	0.36767	0.524
Mof_Ag	Ag	0.82166	0.75405	0.86719	0.535
Mof_C 	C 	0.0974	0.9705	-0	0.095
Mof_C 	C 	0.6235	0.7563	0.501	0.097
Mof_C 	C 	0.5329	0.8109	0.4101	-0.153
Mof_H 	H 	0.5541	0.7897	0.3886	0.085
Mof_C 	C 	0.2201	0.1503	0.8917	0.076
Mof_H 	H 	0.2006	0.154	0.8515	-0.03
Mof_C 	C 	0.5602	0.8014	0.4687	0.068
Mof_C 	C 	0.0027	0.8844	0.9953	-0.132
Mof_H 	H 	0.0222	0.8837	0.0355	0.083
Mof_C 	C 	0.0327	0.9261	0.9659	0.073
Mof_C 	C 	0.7978	0.5839	0.505	-0.135
Mof_H 	H 	0.8199	0.5875	0.5451	0.085
Mof_C 	C 	0.9435	0.8438	0.9642	0.087
Mof_H 	H 	0.9236	0.8163	0.9845	-0.013
Mof_C 	C 	0.1813	0.0515	0.0058	0.085
Mof_C 	C 	0.7097	0.7253	0.5866	0.099
Mof_C 	C 	0.2767	0.1376	0.0088	-0.156
Mof_H 	H 	0.2975	0.1348	0.0489	0.08
Mof_C 	C 	0.7361	0.5658	0.3888	0.088
Mof_H 	H 	0.7145	0.5591	0.3489	-0.012
Mof_C 	C 	0.2113	0.9929	0.1511	0.064
Mof_C 	C 	0.7426	0.7359	0.6502	0.065
Mof_C 	C 	0.5256	0.8347	0.4982	-0.155
Mof_H 	H 	0.5423	0.8295	0.5381	0.078
Mof_C 	C 	0.4672	0.8745	0.4679	0.083
Mof_H 	H 	0.4453	0.897	0.4884	-0.025
Mof_C 	C 	0.1792	0.0017	0.0868	0.095
Mof_C 	C 	0.2144	0.1006	0.9767	0.071
Mof_C 	C 	0.7054	0.6725	0.5045	0.103
Mof_C 	C 	0.1782	0.9572	0.1798	-0.147
Mof_H 	H 	0.1342	0.9392	0.1596	0.085
Mof_C 	C 	0.7356	0.6219	0.4741	0.069
Mof_C 	C 	0.8254	0.541	0.4743	0.091
Mof_H 	H 	0.8675	0.5177	0.4948	-0.015
Mof_C 	C 	0.1866	0.1084	0.9177	-0.149
Mof_H 	H 	0.145	0.0854	0.8952	0.083
Mof_C 	C 	0.4732	0.8524	0.3834	0.081
Mof_H 	H 	0.4554	0.8592	0.3435	-0.023
Mof_C 	C 	0.7044	0.6112	0.4145	-0.137
Mof_H 	H 	0.6626	0.6344	0.3925	0.085
Mof_C 	C 	0.0016	0.9254	0.9066	-0.145
Mof_H 	H 	0.0197	0.9539	0.8854	0.083
Mof_C 	C 	0.3052	0.0062	0.2417	0.087
Mof_H 	H 	0.3492	0.0238	0.2629	-0.029
Mof_C 	C 	0.3065	0.179	0.9781	0.093
Mof_H 	H 	0.3481	0.2032	0.9991	-0.018
Mof_C 	C 	0.2109	0.9482	0.2392	0.085
Mof_H 	H 	0.1878	0.9244	0.2583	-0.017
Mof_C 	C 	0.2771	0.0176	0.1826	-0.155
Mof_H 	H 	0.3016	0.0411	0.1647	0.077
Mof_C 	C 	0.9435	0.8819	0.8789	0.088
Mof_H 	H 	0.924	0.8801	0.8387	-0.009
Mof_C 	C 	0.715	0.7868	0.6767	-0.138
Mof_H 	H 	0.6764	0.8161	0.6548	0.071
Mof_C 	C 	0.8011	0.6965	0.6843	-0.152
Mof_H 	H 	0.8229	0.6643	0.6679	0.087
Mof_C 	C 	0.8267	0.7057	0.7431	0.097
Mof_H 	H 	0.8659	0.6779	0.7656	-0.025
Mof_C 	C 	0.7453	0.7935	0.7361	0.07
Mof_H 	H 	0.7271	0.8291	0.7536	-0.017
Mof_N 	N 	0.7958	0.5308	0.4173	-0.195
Mof_N 	N 	0.4394	0.8834	0.4109	-0.217
Mof_N 	N 	0.8002	0.7509	0.7702	-0.201
Mof_N 	N 	0.648	0.711	0.4717	-0.138
Mof_N 	N 	0.6527	0.7669	0.5582	-0.142
Mof_N 	N 	0.7377	0.6771	0.5621	-0.138
Mof_N 	N 	0.2794	0.1857	0.9216	-0.214
Mof_N 	N 	0.9134	0.842	0.9068	-0.19
Mof_N 	N 	0.2746	0.9725	0.2704	-0.202
Mof_N 	N 	0.1252	0.0116	0.9723	-0.137
Mof_N 	N 	0.1224	0.9626	0.0578	-0.137
Mof_N 	N 	0.2104	0.0492	0.0637	-0.148
Mof_Ag	Ag	0.65572	0.95836	0.13233	0.524
Mof_Ag	Ag	0.67834	0.25405	0.63281	0.535
Mof_C 	C 	0.4026	0.4705	0.5	0.099
Mof_C 	C 	0.8765	0.2563	0.999	0.099
Mof_C 	C 	0.9671	0.3109	0.0899	-0.15
Mof_H 	H 	0.9459	0.2897	0.1114	0.084
Mof_C 	C 	0.2799	0.6503	0.6083	0.072
Mof_H 	H 	0.2994	0.654	0.6485	-0.028
Mof_C 	C 	0.9398	0.3014	0.0313	0.065
Mof_C 	C 	0.4973	0.3844	0.5047	-0.143
Mof_H 	H 	0.4778	0.3837	0.4645	0.089
Mof_C 	C 	0.4673	0.4261	0.5341	0.074
Mof_C 	C 	0.7022	0.0839	0.995	-0.128
Mof_H 	H 	0.6801	0.0875	0.9549	0.083
Mof_C 	C 	0.5565	0.3438	0.5358	0.094
Mof_H 	H 	0.5764	0.3163	0.5155	-0.016
Mof_C 	C 	0.3187	0.5515	0.4942	0.093
Mof_C 	C 	0.7903	0.2253	0.9134	0.1
Mof_C 	C 	0.2233	0.6376	0.4912	-0.142
Mof_H 	H 	0.2025	0.6348	0.4511	0.076
Mof_C 	C 	0.7639	0.0658	0.1112	0.086
Mof_H 	H 	0.7855	0.0591	0.1511	-0.011
Mof_C 	C 	0.2887	0.4929	0.3489	0.064
Mof_C 	C 	0.7574	0.2359	0.8498	0.065
Mof_C 	C 	0.9744	0.3347	0.0018	-0.154
Mof_H 	H 	0.9577	0.3295	0.9619	0.078
Mof_C 	C 	0.0328	0.3745	0.0321	0.081
Mof_H 	H 	0.0547	0.397	0.0116	-0.025
Mof_C 	C 	0.3208	0.5017	0.4132	0.095
Mof_C 	C 	0.2856	0.6006	0.5233	0.058
Mof_C 	C 	0.7946	0.1725	0.9955	0.106
Mof_C 	C 	0.3218	0.4572	0.3202	-0.147
Mof_H 	H 	0.3658	0.4392	0.3404	0.085
Mof_C 	C 	0.7644	0.1219	0.0259	0.063
Mof_C 	C 	0.6746	0.041	0.0257	0.086
Mof_H 	H 	0.6325	0.0177	0.0052	-0.014
Mof_C 	C 	0.3134	0.6084	0.5823	-0.142
Mof_H 	H 	0.355	0.5854	0.6048	0.08
Mof_C 	C 	0.0268	0.3524	0.1166	0.078
Mof_H 	H 	0.0446	0.3592	0.1565	-0.022
Mof_C 	C 	0.7956	0.1112	0.0855	-0.133
Mof_H 	H 	0.8374	0.1344	0.1075	0.084
Mof_C 	C 	0.4984	0.4254	0.5934	-0.147
Mof_H 	H 	0.4803	0.4539	0.6146	0.083
Mof_C 	C 	0.1948	0.5062	0.2583	0.087
Mof_H 	H 	0.1508	0.5238	0.2371	-0.029
Mof_C 	C 	0.1935	0.679	0.5219	0.084
Mof_H 	H 	0.1519	0.7032	0.5009	-0.016
Mof_C 	C 	0.2891	0.4482	0.2608	0.085
Mof_H 	H 	0.3122	0.4244	0.2417	-0.017
Mof_C 	C 	0.2229	0.5176	0.3174	-0.155
Mof_H 	H 	0.1984	0.5411	0.3353	0.077
Mof_C 	C 	0.5565	0.3819	0.6211	0.091
Mof_H 	H 	0.576	0.3801	0.6613	-0.01
Mof_C 	C 	0.785	0.2868	0.8233	-0.138
Mof_H 	H 	0.8236	0.3161	0.8452	0.071
Mof_C 	C 	0.6989	0.1965	0.8157	-0.152
Mof_H 	H 	0.6771	0.1643	0.8321	0.087
Mof_C 	C 	0.6733	0.2057	0.7569	0.097
Mof_H 	H 	0.6341	0.1779	0.7344	-0.025
Mof_C 	C 	0.7547	0.2935	0.7639	0.07
Mof_H 	H 	0.7729	0.3291	0.7464	-0.017
Mof_N 	N 	0.7042	0.0308	0.0827	-0.193
Mof_N 	N 	0.0606	0.3834	0.0891	-0.217
Mof_N 	N 	0.6998	0.2509	0.7298	-0.201
Mof_N 	N 	0.852	0.211	0.0283	-0.139
Mof_N 	N 	0.8473	0.2669	0.9418	-0.142
Mof_N 	N 	0.7623	0.1771	0.9379	-0.138
Mof_N 	N 	0.2206	0.6857	0.5784	-0.212
Mof_N 	N 	0.5866	0.342	0.5932	-0.191
Mof_N 	N 	0.2254	0.4725	0.2296	-0.202
Mof_N 	N 	0.3748	0.5116	0.5277	-0.142
Mof_N 	N 	0.3776	0.4626	0.4422	-0.138
Mof_N 	N 	0.2896	0.5492	0.4363	-0.149
Mof_Ag	Ag	0.15572	0.45836	0.13233	0.523
Mof_Ag	Ag	0.17834	0.75405	0.63281	0.535
Mof_C 	C 	0.9026	0.9705	0.5	0.099
Mof_C 	C 	0.3765	0.7563	0.999	0.101
Mof_C 	C 	0.4671	0.8109	0.0899	-0.153
Mof_H 	H 	0.4459	0.7897	0.1114	0.085
Mof_C 	C 	0.7799	0.1503	0.6083	0.072
Mof_H 	H 	0.7994	0.154	0.6485	-0.028
Mof_C 	C 	0.4398	0.8014	0.0313	0.066
Mof_C 	C 	0.9973	0.8844	0.5047	-0.143
Mof_H 	H 	0.9778	0.8837	0.4645	0.089
Mof_C 	C 	0.9673	0.9261	0.5341	0.074
Mof_C 	C 	0.2022	0.5839	0.995	-0.121
Mof_H 	H 	0.1801	0.5875	0.9549	0.08
Mof_C 	C 	0.0565	0.8438	0.5358	0.094
Mof_H 	H 	0.0764	0.8163	0.5155	-0.016
Mof_C 	C 	0.8187	0.0515	0.4942	0.093
Mof_C 	C 	0.2903	0.7253	0.9134	0.1
Mof_C 	C 	0.7233	0.1376	0.4912	-0.142
Mof_H 	H 	0.7025	0.1348	0.4511	0.076
Mof_C 	C 	0.2639	0.5658	0.1112	0.083
Mof_H 	H 	0.2855	0.5591	0.1511	-0.01
Mof_C 	C 	0.7887	0.9929	0.3489	0.064
Mof_C 	C 	0.2574	0.7359	0.8498	0.065
Mof_C 	C 	0.4744	0.8347	0.0018	-0.16
Mof_H 	H 	0.4577	0.8295	0.9619	0.081
Mof_C 	C 	0.5328	0.8745	0.0321	0.086
Mof_H 	H 	0.5547	0.897	0.0116	-0.026
Mof_C 	C 	0.8208	0.0017	0.4132	0.095
Mof_C 	C 	0.7856	0.1006	0.5233	0.058
Mof_C 	C 	0.2946	0.6725	0.9955	0.11
Mof_C 	C 	0.8218	0.9572	0.3202	-0.147
Mof_H 	H 	0.8658	0.9392	0.3404	0.085
Mof_C 	C 	0.2644	0.6219	0.0259	0.057
Mof_C 	C 	0.1746	0.541	0.0257	0.081
Mof_H 	H 	0.1325	0.5177	0.0052	-0.012
Mof_C 	C 	0.8134	0.1084	0.5823	-0.142
Mof_H 	H 	0.855	0.0854	0.6048	0.08
Mof_C 	C 	0.5268	0.8524	0.1166	0.081
Mof_H 	H 	0.5446	0.8592	0.1565	-0.023
Mof_C 	C 	0.2956	0.6112	0.0855	-0.129
Mof_H 	H 	0.3374	0.6344	0.1075	0.082
Mof_C 	C 	0.9984	0.9254	0.5934	-0.148
Mof_H 	H 	0.9803	0.9539	0.6146	0.083
Mof_C 	C 	0.6948	0.0062	0.2583	0.087
Mof_H 	H 	0.6508	0.0238	0.2371	-0.029
Mof_C 	C 	0.6935	0.179	0.5219	0.084
Mof_H 	H 	0.6519	0.2032	0.5009	-0.015
Mof_C 	C 	0.7891	0.9482	0.2608	0.085
Mof_H 	H 	0.8122	0.9244	0.2417	-0.017
Mof_C 	C 	0.7229	0.0176	0.3174	-0.155
Mof_H 	H 	0.6984	0.0411	0.3353	0.077
Mof_C 	C 	0.0565	0.8819	0.6211	0.092
Mof_H 	H 	0.076	0.8801	0.6613	-0.01
Mof_C 	C 	0.285	0.7868	0.8233	-0.138
Mof_H 	H 	0.3236	0.8161	0.8452	0.071
Mof_C 	C 	0.1989	0.6965	0.8157	-0.152
Mof_H 	H 	0.1771	0.6643	0.8321	0.087
Mof_C 	C 	0.1733	0.7057	0.7569	0.097
Mof_H 	H 	0.1341	0.6779	0.7344	-0.025
Mof_C 	C 	0.2547	0.7935	0.7639	0.07
Mof_H 	H 	0.2729	0.8291	0.7464	-0.017
Mof_N 	N 	0.2042	0.5308	0.0827	-0.192
Mof_N 	N 	0.5606	0.8834	0.0891	-0.218
Mof_N 	N 	0.1998	0.7509	0.7298	-0.201
Mof_N 	N 	0.352	0.711	0.0283	-0.141
Mof_N 	N 	0.3473	0.7669	0.9418	-0.142
Mof_N 	N 	0.2623	0.6771	0.9379	-0.139
Mof_N 	N 	0.7206	0.1857	0.5784	-0.212
Mof_N 	N 	0.0866	0.842	0.5932	-0.191
Mof_N 	N 	0.7254	0.9725	0.2296	-0.202
Mof_N 	N 	0.8748	0.0116	0.5277	-0.142
Mof_N 	N 	0.8776	0.9626	0.4422	-0.138
Mof_N 	N 	0.7896	0.0492	0.4363	-0.149
Mof_Ag	Ag	0.65572	0.04164	0.63233	0.524
Mof_Ag	Ag	0.67834	0.74595	0.13281	0.535
Mof_C 	C 	0.4026	0.5295	-0	0.096
Mof_C 	C 	0.8765	0.7437	0.499	0.096
Mof_C 	C 	0.9671	0.6891	0.5899	-0.154
Mof_H 	H 	0.9459	0.7103	0.6114	0.085
Mof_C 	C 	0.2799	0.3497	0.1083	0.067
Mof_H 	H 	0.2994	0.346	0.1485	-0.027
Mof_C 	C 	0.9398	0.6986	0.5313	0.068
Mof_C 	C 	0.4973	0.6156	0.0047	-0.151
Mof_H 	H 	0.4778	0.6163	0.9645	0.093
Mof_C 	C 	0.4673	0.5739	0.0341	0.077
Mof_C 	C 	0.7022	0.9161	0.495	-0.135
Mof_H 	H 	0.6801	0.9125	0.4549	0.085
Mof_C 	C 	0.5565	0.6562	0.0358	0.098
Mof_H 	H 	0.5764	0.6837	0.0155	-0.018
Mof_C 	C 	0.3187	0.4485	0.9942	0.099
Mof_C 	C 	0.7903	0.7747	0.4134	0.099
Mof_C 	C 	0.2233	0.3624	0.9912	-0.128
Mof_H 	H 	0.2025	0.3652	0.9511	0.072
Mof_C 	C 	0.7639	0.9342	0.6112	0.088
Mof_H 	H 	0.7855	0.9409	0.6511	-0.012
Mof_C 	C 	0.2887	0.5071	0.8489	0.064
Mof_C 	C 	0.7574	0.7641	0.3498	0.065
Mof_C 	C 	0.9744	0.6653	0.5018	-0.155
Mof_H 	H 	0.9577	0.6705	0.4619	0.078
Mof_C 	C 	0.0328	0.6255	0.5321	0.083
Mof_H 	H 	0.0547	0.603	0.5116	-0.025
Mof_C 	C 	0.3208	0.4983	0.9132	0.095
Mof_C 	C 	0.2856	0.3994	0.0233	0.046
Mof_C 	C 	0.7946	0.8275	0.4955	0.103
Mof_C 	C 	0.3218	0.5428	0.8202	-0.147
Mof_H 	H 	0.3658	0.5608	0.8404	0.085
Mof_C 	C 	0.7644	0.8781	0.5259	0.069
Mof_C 	C 	0.6746	0.959	0.5257	0.091
Mof_H 	H 	0.6325	0.9823	0.5052	-0.015
Mof_C 	C 	0.3134	0.3916	0.0823	-0.134
Mof_H 	H 	0.355	0.4146	0.1048	0.077
Mof_C 	C 	0.0268	0.6476	0.6166	0.082
Mof_H 	H 	0.0446	0.6408	0.6565	-0.023
Mof_C 	C 	0.7956	0.8888	0.5855	-0.137
Mof_H 	H 	0.8374	0.8656	0.6075	0.085
Mof_C 	C 	0.4984	0.5746	0.0934	-0.15
Mof_H 	H 	0.4803	0.5461	0.1146	0.084
Mof_C 	C 	0.1948	0.4938	0.7583	0.087
Mof_H 	H 	0.1508	0.4762	0.7371	-0.029
Mof_C 	C 	0.1935	0.321	0.0219	0.075
Mof_H 	H 	0.1519	0.2968	0.0009	-0.013
Mof_C 	C 	0.2891	0.5518	0.7608	0.085
Mof_H 	H 	0.3122	0.5756	0.7417	-0.017
Mof_C 	C 	0.2229	0.4824	0.8174	-0.155
Mof_H 	H 	0.1984	0.4589	0.8353	0.077
Mof_C 	C 	0.5565	0.6181	0.1211	0.093
Mof_H 	H 	0.576	0.6199	0.1613	-0.011
Mof_C 	C 	0.785	0.7132	0.3233	-0.138
Mof_H 	H 	0.8236	0.6839	0.3452	0.071
Mof_C 	C 	0.6989	0.8035	0.3157	-0.152
Mof_H 	H 	0.6771	0.8357	0.3321	0.087
Mof_C 	C 	0.6733	0.7943	0.2569	0.097
Mof_H 	H 	0.6341	0.8221	0.2344	-0.025
Mof_C 	C 	0.7547	0.7065	0.2639	0.07
Mof_H 	H 	0.7729	0.6709	0.2464	-0.017
Mof_N 	N 	0.7042	0.9692	0.5827	-0.195
Mof_N 	N 	0.0606	0.6166	0.5891	-0.218
Mof_N 	N 	0.6998	0.7491	0.2298	-0.201
Mof_N 	N 	0.852	0.789	0.5283	-0.138
Mof_N 	N 	0.8473	0.7331	0.4418	-0.142
Mof_N 	N 	0.7623	0.8229	0.4379	-0.138
Mof_N 	N 	0.2206	0.3143	0.0784	-0.209
Mof_N 	N 	0.5866	0.658	0.0932	-0.192
Mof_N 	N 	0.2254	0.5275	0.7296	-0.202
Mof_N 	N 	0.3748	0.4884	0.0277	-0.143
Mof_N 	N 	0.3776	0.5374	0.9422	-0.137
Mof_N 	N 	0.2896	0.4508	0.9363	-0.15
Mof_Ag	Ag	0.15572	0.54164	0.63233	0.524
Mof_Ag	Ag	0.17834	0.24595	0.13281	0.534
Mof_C 	C 	0.9026	0.0295	-0	0.098
Mof_C 	C 	0.3765	0.2437	0.499	0.097
Mof_C 	C 	0.4671	0.1891	0.5899	-0.153
Mof_H 	H 	0.4459	0.2103	0.6114	0.085
Mof_C 	C 	0.7799	0.8497	0.1083	0.069
Mof_H 	H 	0.7994	0.846	0.1485	-0.027
Mof_C 	C 	0.4398	0.1986	0.5313	0.068
Mof_C 	C 	0.9973	0.1156	0.0047	-0.143
Mof_H 	H 	0.9778	0.1163	0.9645	0.089
Mof_C 	C 	0.9673	0.0739	0.0341	0.073
Mof_C 	C 	0.2022	0.4161	0.495	-0.135
Mof_H 	H 	0.1801	0.4125	0.4549	0.085
Mof_C 	C 	0.0565	0.1562	0.0358	0.092
Mof_H 	H 	0.0764	0.1837	0.0155	-0.016
Mof_C 	C 	0.8187	0.9485	0.9942	0.096
Mof_C 	C 	0.2903	0.2747	0.4134	0.099
Mof_C 	C 	0.7233	0.8624	0.9912	-0.134
Mof_H 	H 	0.7025	0.8652	0.9511	0.073
Mof_C 	C 	0.2639	0.4342	0.6112	0.088
Mof_H 	H 	0.2855	0.4409	0.6511	-0.012
Mof_C 	C 	0.7887	0.0071	0.8489	0.064
Mof_C 	C 	0.2574	0.2641	0.3498	0.065
Mof_C 	C 	0.4744	0.1653	0.5018	-0.155
Mof_H 	H 	0.4577	0.1705	0.4619	0.078
Mof_C 	C 	0.5328	0.1255	0.5321	0.083
Mof_H 	H 	0.5547	0.103	0.5116	-0.025
Mof_C 	C 	0.8208	0.9983	0.9132	0.095
Mof_C 	C 	0.7856	0.8994	0.0233	0.052
Mof_C 	C 	0.2946	0.3275	0.4955	0.103
Mof_C 	C 	0.8218	0.0428	0.8202	-0.147
Mof_H 	H 	0.8658	0.0608	0.8404	0.085
Mof_C 	C 	0.2644	0.3781	0.5259	0.069
Mof_C 	C 	0.1746	0.459	0.5257	0.091
Mof_H 	H 	0.1325	0.4823	0.5052	-0.015
Mof_C 	C 	0.8134	0.8916	0.0823	-0.137
Mof_H 	H 	0.855	0.9146	0.1048	0.078
Mof_C 	C 	0.5268	0.1476	0.6166	0.081
Mof_H 	H 	0.5446	0.1408	0.6565	-0.023
Mof_C 	C 	0.2956	0.3888	0.5855	-0.137
Mof_H 	H 	0.3374	0.3656	0.6075	0.085
Mof_C 	C 	0.9984	0.0746	0.0934	-0.145
Mof_H 	H 	0.9803	0.0461	0.1146	0.083
Mof_C 	C 	0.6948	0.9938	0.7583	0.087
Mof_H 	H 	0.6508	0.9762	0.7371	-0.029
Mof_C 	C 	0.6935	0.821	0.0219	0.079
Mof_H 	H 	0.6519	0.7968	0.0009	-0.014
Mof_C 	C 	0.7891	0.0518	0.7608	0.085
Mof_H 	H 	0.8122	0.0756	0.7417	-0.017
Mof_C 	C 	0.7229	0.9824	0.8174	-0.155
Mof_H 	H 	0.6984	0.9589	0.8353	0.077
Mof_C 	C 	0.0565	0.1181	0.1211	0.089
Mof_H 	H 	0.076	0.1199	0.1613	-0.01
Mof_C 	C 	0.285	0.2132	0.3233	-0.138
Mof_H 	H 	0.3236	0.1839	0.3452	0.071
Mof_C 	C 	0.1989	0.3035	0.3157	-0.152
Mof_H 	H 	0.1771	0.3357	0.3321	0.087
Mof_C 	C 	0.1733	0.2943	0.2569	0.097
Mof_H 	H 	0.1341	0.3221	0.2344	-0.025
Mof_C 	C 	0.2547	0.2065	0.2639	0.07
Mof_H 	H 	0.2729	0.1709	0.2464	-0.017
Mof_N 	N 	0.2042	0.4692	0.5827	-0.195
Mof_N 	N 	0.5606	0.1166	0.5891	-0.217
Mof_N 	N 	0.1998	0.2491	0.2298	-0.201
Mof_N 	N 	0.352	0.289	0.5283	-0.138
Mof_N 	N 	0.3473	0.2331	0.4418	-0.142
Mof_N 	N 	0.2623	0.3229	0.4379	-0.138
Mof_N 	N 	0.7206	0.8143	0.0784	-0.21
Mof_N 	N 	0.0866	0.158	0.0932	-0.191
Mof_N 	N 	0.7254	0.0275	0.7296	-0.202
Mof_N 	N 	0.8748	0.9884	0.0277	-0.143
Mof_N 	N 	0.8776	0.0374	0.9422	-0.138
Mof_N 	N 	0.7896	0.9508	0.9363	-0.15
Mof_Ag	Ag	0.34428	0.04164	0.86767	0.524
Mof_Ag	Ag	0.32166	0.74595	0.36719	0.535
Mof_C 	C 	0.5974	0.5295	0.5	0.099
Mof_C 	C 	0.1235	0.7437	0.001	0.092
Mof_C 	C 	0.0329	0.6891	0.9101	-0.15
Mof_H 	H 	0.0541	0.7103	0.8886	0.084
Mof_C 	C 	0.7201	0.3497	0.3917	0.072
Mof_H 	H 	0.7006	0.346	0.3515	-0.028
Mof_C 	C 	0.0602	0.6986	0.9687	0.067
Mof_C 	C 	0.5027	0.6156	0.4953	-0.143
Mof_H 	H 	0.5222	0.6163	0.5355	0.089
Mof_C 	C 	0.5327	0.5739	0.4659	0.074
Mof_C 	C 	0.2978	0.9161	0.005	-0.151
Mof_H 	H 	0.3199	0.9125	0.0451	0.09
Mof_C 	C 	0.4435	0.6562	0.4642	0.094
Mof_H 	H 	0.4236	0.6837	0.4845	-0.016
Mof_C 	C 	0.6813	0.4485	0.5058	0.093
Mof_C 	C 	0.2097	0.7747	0.0866	0.099
Mof_C 	C 	0.7767	0.3624	0.5088	-0.142
Mof_H 	H 	0.7975	0.3652	0.5489	0.076
Mof_C 	C 	0.2361	0.9342	0.8888	0.093
Mof_H 	H 	0.2145	0.9409	0.8489	-0.013
Mof_C 	C 	0.7113	0.5071	0.6511	0.064
Mof_C 	C 	0.2426	0.7641	0.1502	0.065
Mof_C 	C 	0.0256	0.6653	0.9982	-0.144
Mof_H 	H 	0.0423	0.6705	0.0381	0.073
Mof_C 	C 	0.9672	0.6255	0.9679	0.077
Mof_H 	H 	0.9453	0.603	0.9884	-0.022
Mof_C 	C 	0.6792	0.4983	0.5868	0.095
Mof_C 	C 	0.7144	0.3994	0.4767	0.058
Mof_C 	C 	0.2054	0.8275	0.0045	0.095
Mof_C 	C 	0.6782	0.5428	0.6798	-0.147
Mof_H 	H 	0.6342	0.5608	0.6596	0.085
Mof_C 	C 	0.2356	0.8781	0.9741	0.081
Mof_C 	C 	0.3254	0.959	0.9743	0.101
Mof_H 	H 	0.3675	0.9823	0.9948	-0.017
Mof_C 	C 	0.6866	0.3916	0.4177	-0.142
Mof_H 	H 	0.645	0.4146	0.3952	0.08
Mof_C 	C 	0.9732	0.6476	0.8834	0.078
Mof_H 	H 	0.9554	0.6408	0.8435	-0.022
Mof_C 	C 	0.2044	0.8888	0.9145	-0.144
Mof_H 	H 	0.1626	0.8656	0.8925	0.088
Mof_C 	C 	0.5016	0.5746	0.4066	-0.147
Mof_H 	H 	0.5197	0.5461	0.3854	0.083
Mof_C 	C 	0.8052	0.4938	0.7417	0.087
Mof_H 	H 	0.8492	0.4762	0.7629	-0.029
Mof_C 	C 	0.8065	0.321	0.4781	0.084
Mof_H 	H 	0.8481	0.2968	0.4991	-0.016
Mof_C 	C 	0.7109	0.5518	0.7392	0.085
Mof_H 	H 	0.6878	0.5756	0.7583	-0.017
Mof_C 	C 	0.7771	0.4824	0.6826	-0.155
Mof_H 	H 	0.8016	0.4589	0.6647	0.077
Mof_C 	C 	0.4435	0.6181	0.3789	0.091
Mof_H 	H 	0.424	0.6199	0.3387	-0.01
Mof_C 	C 	0.215	0.7132	0.1767	-0.138
Mof_H 	H 	0.1764	0.6839	0.1548	0.071
Mof_C 	C 	0.3011	0.8035	0.1843	-0.152
Mof_H 	H 	0.3229	0.8357	0.1679	0.087
Mof_C 	C 	0.3267	0.7943	0.2431	0.097
Mof_H 	H 	0.3659	0.8221	0.2656	-0.025
Mof_C 	C 	0.2453	0.7065	0.2361	0.07
Mof_H 	H 	0.2271	0.6709	0.2536	-0.017
Mof_N 	N 	0.2958	0.9692	0.9173	-0.197
Mof_N 	N 	0.9394	0.6166	0.9109	-0.216
Mof_N 	N 	0.3002	0.7491	0.2702	-0.201
Mof_N 	N 	0.148	0.789	0.9717	-0.134
Mof_N 	N 	0.1527	0.7331	0.0582	-0.141
Mof_N 	N 	0.2377	0.8229	0.0621	-0.137
Mof_N 	N 	0.7794	0.3143	0.4216	-0.212
Mof_N 	N 	0.4134	0.658	0.4068	-0.191
Mof_N 	N 	0.7746	0.5275	0.7704	-0.202
Mof_N 	N 	0.6252	0.4884	0.4723	-0.142
Mof_N 	N 	0.6224	0.5374	0.5578	-0.138
Mof_N 	N 	0.7104	0.4508	0.5637	-0.149
Mof_Ag	Ag	0.84428	0.54164	0.86767	0.524
Mof_Ag	Ag	0.82166	0.24595	0.36719	0.535
Mof_C 	C 	0.0974	0.0295	0.5	0.099
Mof_C 	C 	0.6235	0.2437	0.001	0.093
Mof_C 	C 	0.5329	0.1891	0.9101	-0.154
Mof_H 	H 	0.5541	0.2103	0.8886	0.085
Mof_C 	C 	0.2201	0.8497	0.3917	0.072
Mof_H 	H 	0.2006	0.846	0.3515	-0.028
Mof_C 	C 	0.5602	0.1986	0.9687	0.069
Mof_C 	C 	0.0027	0.1156	0.4953	-0.143
Mof_H 	H 	0.0222	0.1163	0.5355	0.089
Mof_C 	C 	0.0327	0.0739	0.4659	0.074
Mof_C 	C 	0.7978	0.4161	0.005	-0.144
Mof_H 	H 	0.8199	0.4125	0.0451	0.087
Mof_C 	C 	0.9435	0.1562	0.4642	0.094
Mof_H 	H 	0.9236	0.1837	0.4845	-0.016
Mof_C 	C 	0.1813	0.9485	0.5058	0.093
Mof_C 	C 	0.7097	0.2747	0.0866	0.099
Mof_C 	C 	0.2767	0.8624	0.5088	-0.142
Mof_H 	H 	0.2975	0.8652	0.5489	0.076
Mof_C 	C 	0.7361	0.4342	0.8888	0.09
Mof_H 	H 	0.7145	0.4409	0.8489	-0.012
Mof_C 	C 	0.2113	0.0071	0.6511	0.064
Mof_C 	C 	0.7426	0.2641	0.1502	0.065
Mof_C 	C 	0.5256	0.1653	0.9982	-0.151
Mof_H 	H 	0.5423	0.1705	0.0381	0.076
Mof_C 	C 	0.4672	0.1255	0.9679	0.081
Mof_H 	H 	0.4453	0.103	0.9884	-0.023
Mof_C 	C 	0.1792	0.9983	0.5868	0.095
Mof_C 	C 	0.2144	0.8994	0.4767	0.058
Mof_C 	C 	0.7054	0.3275	0.0045	0.098
Mof_C 	C 	0.1782	0.0428	0.6798	-0.147
Mof_H 	H 	0.1342	0.0608	0.6596	0.085
Mof_C 	C 	0.7356	0.3781	0.9741	0.076
Mof_C 	C 	0.8254	0.459	0.9743	0.096
Mof_H 	H 	0.8675	0.4823	0.9948	-0.016
Mof_C 	C 	0.1866	0.8916	0.4177	-0.142
Mof_H 	H 	0.145	0.9146	0.3952	0.08
Mof_C 	C 	0.4732	0.1476	0.8834	0.081
Mof_H 	H 	0.4554	0.1408	0.8435	-0.023
Mof_C 	C 	0.7044	0.3888	0.9145	-0.141
Mof_H 	H 	0.6626	0.3656	0.8925	0.086
Mof_C 	C 	0.0016	0.0746	0.4066	-0.148
Mof_H 	H 	0.0197	0.0461	0.3854	0.083
Mof_C 	C 	0.3052	0.9938	0.7417	0.087
Mof_H 	H 	0.3492	0.9762	0.7629	-0.029
Mof_C 	C 	0.3065	0.821	0.4781	0.084
Mof_H 	H 	0.3481	0.7968	0.4991	-0.015
Mof_C 	C 	0.2109	0.0518	0.7392	0.085
Mof_H 	H 	0.1878	0.0756	0.7583	-0.017
Mof_C 	C 	0.2771	0.9824	0.6826	-0.155
Mof_H 	H 	0.3016	0.9589	0.6647	0.077
Mof_C 	C 	0.9435	0.1181	0.3789	0.092
Mof_H 	H 	0.924	0.1199	0.3387	-0.01
Mof_C 	C 	0.715	0.2132	0.1767	-0.138
Mof_H 	H 	0.6764	0.1839	0.1548	0.071
Mof_C 	C 	0.8011	0.3035	0.1843	-0.152
Mof_H 	H 	0.8229	0.3357	0.1679	0.087
Mof_C 	C 	0.8267	0.2943	0.2431	0.097
Mof_H 	H 	0.8659	0.3221	0.2656	-0.025
Mof_C 	C 	0.7453	0.2065	0.2361	0.07
Mof_H 	H 	0.7271	0.1709	0.2536	-0.017
Mof_N 	N 	0.7958	0.4692	0.9173	-0.196
Mof_N 	N 	0.4394	0.1166	0.9109	-0.217
Mof_N 	N 	0.8002	0.2491	0.2702	-0.201
Mof_N 	N 	0.648	0.289	0.9717	-0.135
Mof_N 	N 	0.6527	0.2331	0.0582	-0.141
Mof_N 	N 	0.7377	0.3229	0.0621	-0.137
Mof_N 	N 	0.2794	0.8143	0.4216	-0.212
Mof_N 	N 	0.9134	0.158	0.4068	-0.191
Mof_N 	N 	0.2746	0.0275	0.7704	-0.202
Mof_N 	N 	0.1252	0.9884	0.4723	-0.142
Mof_N 	N 	0.1224	0.0374	0.5578	-0.138
Mof_N 	N 	0.2104	0.9508	0.5637	-0.149
_end
