# CIF file generated by openbabel 3.1.0, see https://openbabel.org
data_I
_chemical_name_common 'image0'
_cell_length_a 32.9201
_cell_length_b 32.9201
_cell_length_c 9.992
_cell_angle_alpha 90
_cell_angle_beta 90
_cell_angle_gamma 120
_space_group_name_H-M_alt 'P 1'
_space_group_name_Hall 'P 1'
loop_
    _symmetry_equiv_pos_as_xyz
    x,y,z
loop_
    _atom_site_label
    _atom_site_type_symbol
    _atom_site_fract_x
    _atom_site_fract_y
    _atom_site_fract_z
    _atom_site_occupancy
    Ag1      Ag       0.23929    0.08810    0.91290    1.000
    N1       N        0.26872    0.04872    0.01280    1.000
    H1       H        0.25180    0.03740    0.09180    1.000
    N2       N        0.20660    0.10390    0.73810    1.000
    H2       H        0.20770    0.13180    0.76090    1.000
    C1       C        0.32638    0.12427    0.11420    1.000
    C2       C        0.31790    0.12780    0.24790    1.000
    H3       H        0.30720    0.10120    0.30470    1.000
    C3       C        0.34172    0.16350    0.03380    1.000
    H4       H        0.34750    0.16150    0.94150    1.000
    C4       C        0.31840    0.07860    0.05460    1.000
    H5       H        0.33910    0.08530    0.97610    1.000
    H6       H        0.32650    0.06160    0.12150    1.000
    C5       C        0.26310    0.00670    0.94040    1.000
    H7       H        0.27210    0.98850    0.00050    1.000
    H8       H        0.28450    0.01690    0.86230    1.000
    C6       C        0.21350    0.97580    0.89370    1.000
    C7       C        0.18000    0.94130    0.97500    1.000
    H9       H        0.18930    0.93760    0.06210    1.000
    N3       N        0.22273    0.13536    0.06090    1.000
    C8       C        0.20430    0.12230    0.18210    1.000
    H10      H        0.19230    0.09060    0.20810    1.000
    C9       C        0.20200    0.15290    0.27200    1.000
    H11      H        0.18920    0.14230    0.35870    1.000
    C10      C        0.19910    0.98060    0.76490    1.000
    H12      H        0.22050    0.00370    0.70470    1.000
    C11      C        0.28500    0.14200    0.64240    1.000
    C12      C        0.30850    0.19000    0.66670    1.000
    H13      H        0.29140    0.20620    0.66780    1.000
    C13      C        0.30980    0.11830    0.64360    1.000
    H14      H        0.29410    0.08540    0.62900    1.000
    C14      C        0.23270    0.11420    0.61560    1.000
    H15      H        0.22380    0.13240    0.55590    1.000
    H16      H        0.22500    0.08460    0.56960    1.000
    C15      C        0.15670    0.06990    0.72400    1.000
    H17      H        0.15270    0.03880    0.70890    1.000
    H18      H        0.14410    0.07710    0.64750    1.000
    C16      C        0.13050    0.06780    0.84030    1.000
    C17      C        0.11160    0.09550    0.86100    1.000
    H19      H        0.11570    0.11990    0.79520    1.000
    N4       N        0.08550    0.08930    0.97500    1.000
    C18      C        0.08040    0.05630    0.05800    1.000
    H20      H        0.06060    0.05160    0.13610    1.000
    C19      C        0.07340    0.10030    0.95500    1.000
    H21      H        0.09260    0.09670    0.88670    1.000
    C20      C        0.12380    0.03240    0.93710    1.000
    H22      H        0.13730    0.01260    0.92030    1.000
    H23      H        0.14230    0.07160    0.80550    1.000
    H24      H        0.15480    0.03930    0.72720    1.000
    C21      C        0.12370    0.06430    0.61970    1.000
    C22      C        0.12530    0.04540    0.49450    1.000
    H25      H        0.14710    0.03410    0.48120    1.000
    N5       N        0.09790    0.04250    0.39090    1.000
    C23      C        0.06850    0.05860    0.41800    1.000
    H26      H        0.04860    0.05720    0.34540    1.000
    C24      C        0.06400    0.07640    0.53800    1.000
    H27      H        0.04070    0.08600    0.54960    1.000
    C25      C        0.09340    0.08080    0.63800    1.000
    H28      H        0.09300    0.09560    0.72260    1.000
    Ag2      Ag       0.90595    0.42144    0.24623    1.000
    N6       N        0.93539    0.38205    0.34613    1.000
    H29      H        0.91847    0.37073    0.42513    1.000
    N7       N        0.87327    0.43723    0.07143    1.000
    H30      H        0.87437    0.46513    0.09423    1.000
    C26      C        0.99305    0.45760    0.44753    1.000
    C27      C        0.98457    0.46113    0.58123    1.000
    H31      H        0.97387    0.43453    0.63803    1.000
    C28      C        0.00839    0.49683    0.36713    1.000
    H32      H        0.01417    0.49483    0.27483    1.000
    C29      C        0.98507    0.41193    0.38793    1.000
    H33      H        0.00577    0.41863    0.30943    1.000
    H34      H        0.99317    0.39493    0.45483    1.000
    C30      C        0.92977    0.34003    0.27373    1.000
    H35      H        0.93877    0.32183    0.33383    1.000
    H36      H        0.95117    0.35023    0.19563    1.000
    C31      C        0.88017    0.30913    0.22703    1.000
    C32      C        0.84667    0.27463    0.30833    1.000
    H37      H        0.85597    0.27093    0.39543    1.000
    N8       N        0.88940    0.46869    0.39423    1.000
    C33      C        0.87097    0.45563    0.51543    1.000
    H38      H        0.85897    0.42393    0.54143    1.000
    C34      C        0.86867    0.48623    0.60533    1.000
    H39      H        0.85587    0.47563    0.69203    1.000
    C35      C        0.86577    0.31393    0.09823    1.000
    H40      H        0.88717    0.33703    0.03803    1.000
    C36      C        0.95167    0.47533    0.97573    1.000
    C37      C        0.97517    0.52333    0.00003    1.000
    H41      H        0.95807    0.53953    0.00113    1.000
    C38      C        0.97647    0.45163    0.97693    1.000
    H42      H        0.96077    0.41873    0.96233    1.000
    C39      C        0.89937    0.44753    0.94893    1.000
    H43      H        0.89047    0.46573    0.88923    1.000
    H44      H        0.89167    0.41793    0.90293    1.000
    C40      C        0.82337    0.40323    0.05733    1.000
    H45      H        0.81937    0.37213    0.04223    1.000
    H46      H        0.81077    0.41043    0.98083    1.000
    C41      C        0.79717    0.40113    0.17363    1.000
    C42      C        0.77827    0.42883    0.19433    1.000
    H47      H        0.78237    0.45323    0.12853    1.000
    N9       N        0.75217    0.42263    0.30833    1.000
    C43      C        0.74707    0.38963    0.39133    1.000
    H48      H        0.72727    0.38493    0.46943    1.000
    C44      C        0.74007    0.43363    0.28833    1.000
    H49      H        0.75927    0.43003    0.22003    1.000
    C45      C        0.79047    0.36573    0.27043    1.000
    H50      H        0.80397    0.34593    0.25363    1.000
    H51      H        0.80897    0.40493    0.13883    1.000
    H52      H        0.82147    0.37263    0.06053    1.000
    C46      C        0.79037    0.39763    0.95303    1.000
    C47      C        0.79197    0.37873    0.82783    1.000
    H53      H        0.81377    0.36743    0.81453    1.000
    N10      N        0.76457    0.37583    0.72423    1.000
    C48      C        0.73517    0.39193    0.75133    1.000
    H54      H        0.71527    0.39053    0.67873    1.000
    C49      C        0.73067    0.40973    0.87133    1.000
    H55      H        0.70737    0.41933    0.88293    1.000
    C50      C        0.76007    0.41413    0.97133    1.000
    H56      H        0.75967    0.42893    0.05593    1.000
    Ag3      Ag       0.57262    0.75477    0.57957    1.000
    N11      N        0.60205    0.71539    0.67947    1.000
    H57      H        0.58513    0.70407    0.75847    1.000
    N12      N        0.53993    0.77057    0.40477    1.000
    H58      H        0.54103    0.79847    0.42757    1.000
    C51      C        0.65971    0.79094    0.78087    1.000
    C52      C        0.65123    0.79447    0.91457    1.000
    H59      H        0.64053    0.76787    0.97137    1.000
    C53      C        0.67505    0.83017    0.70047    1.000
    H60      H        0.68083    0.82817    0.60817    1.000
    C54      C        0.65173    0.74527    0.72127    1.000
    H61      H        0.67243    0.75197    0.64277    1.000
    H62      H        0.65983    0.72827    0.78817    1.000
    C55      C        0.59643    0.67337    0.60707    1.000
    H63      H        0.60543    0.65517    0.66717    1.000
    H64      H        0.61783    0.68357    0.52897    1.000
    C56      C        0.54683    0.64247    0.56037    1.000
    C57      C        0.51333    0.60797    0.64167    1.000
    H65      H        0.52263    0.60427    0.72877    1.000
    N13      N        0.55606    0.80203    0.72757    1.000
    C58      C        0.53763    0.78897    0.84877    1.000
    H66      H        0.52563    0.75727    0.87477    1.000
    C59      C        0.53533    0.81957    0.93867    1.000
    H67      H        0.52253    0.80897    0.02537    1.000
    C60      C        0.53243    0.64727    0.43157    1.000
    H68      H        0.55383    0.67037    0.37137    1.000
    C61      C        0.61833    0.80867    0.30907    1.000
    C62      C        0.64183    0.85667    0.33337    1.000
    H69      H        0.62473    0.87287    0.33447    1.000
    C63      C        0.64313    0.78497    0.31027    1.000
    H70      H        0.62743    0.75207    0.29567    1.000
    C64      C        0.56603    0.78087    0.28227    1.000
    H71      H        0.55713    0.79907    0.22257    1.000
    H72      H        0.55833    0.75127    0.23627    1.000
    C65      C        0.49003    0.73657    0.39067    1.000
    H73      H        0.48603    0.70547    0.37557    1.000
    H74      H        0.47743    0.74377    0.31417    1.000
    C66      C        0.46383    0.73447    0.50697    1.000
    C67      C        0.44493    0.76217    0.52767    1.000
    H75      H        0.44903    0.78657    0.46187    1.000
    N14      N        0.41883    0.75597    0.64167    1.000
    C68      C        0.41373    0.72297    0.72467    1.000
    H76      H        0.39393    0.71827    0.80277    1.000
    C69      C        0.40673    0.76697    0.62167    1.000
    H77      H        0.42593    0.76337    0.55337    1.000
    C70      C        0.45713    0.69907    0.60377    1.000
    H78      H        0.47063    0.67927    0.58697    1.000
    H79      H        0.47563    0.73827    0.47217    1.000
    H80      H        0.48813    0.70597    0.39387    1.000
    C71      C        0.45703    0.73097    0.28637    1.000
    C72      C        0.45863    0.71207    0.16117    1.000
    H81      H        0.48043    0.70077    0.14787    1.000
    N15      N        0.43123    0.70917    0.05757    1.000
    C73      C        0.40183    0.72527    0.08467    1.000
    H82      H        0.38193    0.72387    0.01207    1.000
    C74      C        0.39733    0.74307    0.20467    1.000
    H83      H        0.37403    0.75267    0.21627    1.000
    C75      C        0.42673    0.74747    0.30467    1.000
    H84      H        0.42633    0.76227    0.38927    1.000
    Ag4      Ag       0.91190    0.15119    0.91290    1.000
    N16      N        0.95128    0.22000    0.01280    1.000
    H85      H        0.96260    0.21440    0.09180    1.000
    N17      N        0.89610    0.10270    0.73810    1.000
    H86      H        0.86820    0.07590    0.76090    1.000
    C76      C        0.87573    0.20211    0.11420    1.000
    C77      C        0.87220    0.19010    0.24790    1.000
    H87      H        0.89880    0.20600    0.30470    1.000
    C78      C        0.83650    0.17822    0.03380    1.000
    H88      H        0.83850    0.18600    0.94150    1.000
    C79      C        0.92140    0.23980    0.05460    1.000
    H89      H        0.91470    0.25380    0.97610    1.000
    H90      H        0.93840    0.26490    0.12150    1.000
    C80      C        0.99330    0.25640    0.94040    1.000
    H91      H        0.01150    0.28360    0.00050    1.000
    H92      H        0.98310    0.26760    0.86230    1.000
    C81      C        0.02420    0.23770    0.89370    1.000
    C82      C        0.05870    0.23870    0.97500    1.000
    H93      H        0.06240    0.25170    0.06210    1.000
    N18      N        0.86464    0.08737    0.06090    1.000
    C83      C        0.87770    0.08200    0.18210    1.000
    H94      H        0.90940    0.10170    0.20810    1.000
    C84      C        0.84710    0.04910    0.27200    1.000
    H95      H        0.85770    0.04690    0.35870    1.000
    C85      C        0.01940    0.21850    0.76490    1.000
    H96      H        0.99630    0.21680    0.70470    1.000
    C86      C        0.85800    0.14300    0.64240    1.000
    C87      C        0.81000    0.11850    0.66670    1.000
    H97      H        0.79380    0.08520    0.66780    1.000
    C88      C        0.88170    0.19150    0.64360    1.000
    H98      H        0.91460    0.20870    0.62900    1.000
    C89      C        0.88580    0.11850    0.61560    1.000
    H99      H        0.86760    0.09140    0.55590    1.000
    H100     H        0.91540    0.14040    0.56960    1.000
    C90      C        0.93010    0.08680    0.72400    1.000
    H101     H        0.96120    0.11390    0.70890    1.000
    H102     H        0.92290    0.06700    0.64750    1.000
    C91      C        0.93220    0.06270    0.84030    1.000
    C92      C        0.90450    0.01610    0.86100    1.000
    H103     H        0.88010    0.99580    0.79520    1.000
    N19      N        0.91070    0.99620    0.97500    1.000
    C93      C        0.94370    0.02410    0.05800    1.000
    H104     H        0.94840    0.00900    0.13610    1.000
    C94      C        0.89970    0.97310    0.95500    1.000
    H105     H        0.90330    0.99590    0.88670    1.000
    C95      C        0.96760    0.09140    0.93710    1.000
    H106     H        0.98740    0.12470    0.92030    1.000
    H107     H        0.92840    0.07070    0.80550    1.000
    H108     H        0.96070    0.11550    0.72720    1.000
    C96      C        0.93570    0.05940    0.61970    1.000
    C97      C        0.95460    0.07990    0.49450    1.000
    H109     H        0.96590    0.11300    0.48120    1.000
    N20      N        0.95750    0.05540    0.39090    1.000
    C98      C        0.94140    0.00990    0.41800    1.000
    H110     H        0.94280    0.99140    0.34540    1.000
    C99      C        0.92360    0.98760    0.53800    1.000
    H111     H        0.91400    0.95470    0.54960    1.000
    C100     C        0.91920    0.01260    0.63800    1.000
    H112     H        0.90440    0.99740    0.72260    1.000
    Ag5      Ag       0.57856    0.48452    0.24623    1.000
    N21      N        0.61795    0.55333    0.34613    1.000
    H113     H        0.62927    0.54773    0.42513    1.000
    N22      N        0.56277    0.43603    0.07143    1.000
    H114     H        0.53487    0.40923    0.09423    1.000
    C101     C        0.54240    0.53544    0.44753    1.000
    C102     C        0.53887    0.52343    0.58123    1.000
    H115     H        0.56547    0.53933    0.63803    1.000
    C103     C        0.50317    0.51155    0.36713    1.000
    H116     H        0.50517    0.51933    0.27483    1.000
    C104     C        0.58807    0.57313    0.38793    1.000
    H117     H        0.58137    0.58713    0.30943    1.000
    H118     H        0.60507    0.59823    0.45483    1.000
    C105     C        0.65997    0.58973    0.27373    1.000
    H119     H        0.67817    0.61693    0.33383    1.000
    H120     H        0.64977    0.60093    0.19563    1.000
    C106     C        0.69087    0.57103    0.22703    1.000
    C107     C        0.72537    0.57203    0.30833    1.000
    H121     H        0.72907    0.58503    0.39543    1.000
    N23      N        0.53131    0.42070    0.39423    1.000
    C108     C        0.54437    0.41533    0.51543    1.000
    H122     H        0.57607    0.43503    0.54143    1.000
    C109     C        0.51377    0.38243    0.60533    1.000
    H123     H        0.52437    0.38023    0.69203    1.000
    C110     C        0.68607    0.55183    0.09823    1.000
    H124     H        0.66297    0.55013    0.03803    1.000
    C111     C        0.52467    0.47633    0.97573    1.000
    C112     C        0.47667    0.45183    0.00003    1.000
    H125     H        0.46047    0.41853    0.00113    1.000
    C113     C        0.54837    0.52483    0.97693    1.000
    H126     H        0.58127    0.54203    0.96233    1.000
    C114     C        0.55247    0.45183    0.94893    1.000
    H127     H        0.53427    0.42473    0.88923    1.000
    H128     H        0.58207    0.47373    0.90293    1.000
    C115     C        0.59677    0.42013    0.05733    1.000
    H129     H        0.62787    0.44723    0.04223    1.000
    H130     H        0.58957    0.40033    0.98083    1.000
    C116     C        0.59887    0.39603    0.17363    1.000
    C117     C        0.57117    0.34943    0.19433    1.000
    H131     H        0.54677    0.32913    0.12853    1.000
    N24      N        0.57737    0.32953    0.30833    1.000
    C118     C        0.61037    0.35743    0.39133    1.000
    H132     H        0.61507    0.34233    0.46943    1.000
    C119     C        0.56637    0.30643    0.28833    1.000
    H133     H        0.56997    0.32923    0.22003    1.000
    C120     C        0.63427    0.42473    0.27043    1.000
    H134     H        0.65407    0.45803    0.25363    1.000
    H135     H        0.59507    0.40403    0.13883    1.000
    H136     H        0.62737    0.44883    0.06053    1.000
    C121     C        0.60237    0.39273    0.95303    1.000
    C122     C        0.62127    0.41323    0.82783    1.000
    H137     H        0.63257    0.44633    0.81453    1.000
    N25      N        0.62417    0.38873    0.72423    1.000
    C123     C        0.60807    0.34323    0.75133    1.000
    H138     H        0.60947    0.32473    0.67873    1.000
    C124     C        0.59027    0.32093    0.87133    1.000
    H139     H        0.58067    0.28803    0.88293    1.000
    C125     C        0.58587    0.34593    0.97133    1.000
    H140     H        0.57107    0.33073    0.05593    1.000
    Ag6      Ag       0.24523    0.81785    0.57957    1.000
    N26      N        0.28461    0.88667    0.67947    1.000
    H141     H        0.29593    0.88107    0.75847    1.000
    N27      N        0.22943    0.76937    0.40477    1.000
    H142     H        0.20153    0.74257    0.42757    1.000
    C126     C        0.20906    0.86878    0.78087    1.000
    C127     C        0.20553    0.85677    0.91457    1.000
    H143     H        0.23213    0.87267    0.97137    1.000
    C128     C        0.16983    0.84489    0.70047    1.000
    H144     H        0.17183    0.85267    0.60817    1.000
    C129     C        0.25473    0.90647    0.72127    1.000
    H145     H        0.24803    0.92047    0.64277    1.000
    H146     H        0.27173    0.93157    0.78817    1.000
    C130     C        0.32663    0.92307    0.60707    1.000
    H147     H        0.34483    0.95027    0.66717    1.000
    H148     H        0.31643    0.93427    0.52897    1.000
    C131     C        0.35753    0.90437    0.56037    1.000
    C132     C        0.39203    0.90537    0.64167    1.000
    H149     H        0.39573    0.91837    0.72877    1.000
    N28      N        0.19797    0.75404    0.72757    1.000
    C133     C        0.21103    0.74867    0.84877    1.000
    H150     H        0.24273    0.76837    0.87477    1.000
    C134     C        0.18043    0.71577    0.93867    1.000
    H151     H        0.19103    0.71357    0.02537    1.000
    C135     C        0.35273    0.88517    0.43157    1.000
    H152     H        0.32963    0.88347    0.37137    1.000
    C136     C        0.19133    0.80967    0.30907    1.000
    C137     C        0.14333    0.78517    0.33337    1.000
    H153     H        0.12713    0.75187    0.33447    1.000
    C138     C        0.21503    0.85817    0.31027    1.000
    H154     H        0.24793    0.87537    0.29567    1.000
    C139     C        0.21913    0.78517    0.28227    1.000
    H155     H        0.20093    0.75807    0.22257    1.000
    H156     H        0.24873    0.80707    0.23627    1.000
    C140     C        0.26343    0.75347    0.39067    1.000
    H157     H        0.29453    0.78057    0.37557    1.000
    H158     H        0.25623    0.73367    0.31417    1.000
    C141     C        0.26553    0.72937    0.50697    1.000
    C142     C        0.23783    0.68277    0.52767    1.000
    H159     H        0.21343    0.66247    0.46187    1.000
    N29      N        0.24403    0.66287    0.64167    1.000
    C143     C        0.27703    0.69077    0.72467    1.000
    H160     H        0.28173    0.67567    0.80277    1.000
    C144     C        0.23303    0.63977    0.62167    1.000
    H161     H        0.23663    0.66257    0.55337    1.000
    C145     C        0.30093    0.75807    0.60377    1.000
    H162     H        0.32073    0.79137    0.58697    1.000
    H163     H        0.26173    0.73737    0.47217    1.000
    H164     H        0.29403    0.78217    0.39387    1.000
    C146     C        0.26903    0.72607    0.28637    1.000
    C147     C        0.28793    0.74657    0.16117    1.000
    H165     H        0.29923    0.77967    0.14787    1.000
    N30      N        0.29083    0.72207    0.05757    1.000
    C148     C        0.27473    0.67657    0.08467    1.000
    H166     H        0.27613    0.65807    0.01207    1.000
    C149     C        0.25693    0.65427    0.20467    1.000
    H167     H        0.24733    0.62137    0.21627    1.000
    C150     C        0.25253    0.67927    0.30467    1.000
    H168     H        0.23773    0.66407    0.38927    1.000
    Ag7      Ag       0.84881    0.76071    0.91290    1.000
    N31      N        0.78000    0.73128    0.01280    1.000
    H169     H        0.78560    0.74820    0.09180    1.000
    N32      N        0.89730    0.79340    0.73810    1.000
    H170     H        0.92410    0.79230    0.76090    1.000
    C151     C        0.79789    0.67362    0.11420    1.000
    C152     C        0.80990    0.68210    0.24790    1.000
    H171     H        0.79400    0.69280    0.30470    1.000
    C153     C        0.82178    0.65828    0.03380    1.000
    H172     H        0.81400    0.65250    0.94150    1.000
    C154     C        0.76020    0.68160    0.05460    1.000
    H173     H        0.74620    0.66090    0.97610    1.000
    H174     H        0.73510    0.67350    0.12150    1.000
    C155     C        0.74360    0.73690    0.94040    1.000
    H175     H        0.71640    0.72790    0.00050    1.000
    H176     H        0.73240    0.71550    0.86230    1.000
    C156     C        0.76230    0.78650    0.89370    1.000
    C157     C        0.76130    0.82000    0.97500    1.000
    H177     H        0.74830    0.81070    0.06210    1.000
    N33      N        0.91263    0.77727    0.06090    1.000
    C158     C        0.91800    0.79570    0.18210    1.000
    H178     H        0.89830    0.80770    0.20810    1.000
    C159     C        0.95090    0.79800    0.27200    1.000
    H179     H        0.95310    0.81080    0.35870    1.000
    C160     C        0.78150    0.80090    0.76490    1.000
    H180     H        0.78320    0.77950    0.70470    1.000
    C161     C        0.85700    0.71500    0.64240    1.000
    C162     C        0.88150    0.69150    0.66670    1.000
    H181     H        0.91480    0.70860    0.66780    1.000
    C163     C        0.80850    0.69020    0.64360    1.000
    H182     H        0.79130    0.70590    0.62900    1.000
    C164     C        0.88150    0.76730    0.61560    1.000
    H183     H        0.90860    0.77620    0.55590    1.000
    H184     H        0.85960    0.77500    0.56960    1.000
    C165     C        0.91320    0.84330    0.72400    1.000
    H185     H        0.88610    0.84730    0.70890    1.000
    H186     H        0.93300    0.85590    0.64750    1.000
    C166     C        0.93730    0.86950    0.84030    1.000
    C167     C        0.98390    0.88840    0.86100    1.000
    H187     H        0.00420    0.88430    0.79520    1.000
    N34      N        0.00380    0.91450    0.97500    1.000
    C168     C        0.97590    0.91960    0.05800    1.000
    H188     H        0.99100    0.93940    0.13610    1.000
    C169     C        0.02690    0.92660    0.95500    1.000
    H189     H        0.00410    0.90740    0.88670    1.000
    C170     C        0.90860    0.87620    0.93710    1.000
    H190     H        0.87530    0.86270    0.92030    1.000
    H191     H        0.92930    0.85770    0.80550    1.000
    H192     H        0.88450    0.84520    0.72720    1.000
    C171     C        0.94060    0.87630    0.61970    1.000
    C172     C        0.92010    0.87470    0.49450    1.000
    H193     H        0.88700    0.85290    0.48120    1.000
    N35      N        0.94460    0.90210    0.39090    1.000
    C173     C        0.99010    0.93150    0.41800    1.000
    H194     H        0.00860    0.95140    0.34540    1.000
    C174     C        0.01240    0.93600    0.53800    1.000
    H195     H        0.04530    0.95930    0.54960    1.000
    C175     C        0.98740    0.90660    0.63800    1.000
    H196     H        0.00260    0.90700    0.72260    1.000
    Ag8      Ag       0.51548    0.09405    0.24623    1.000
    N36      N        0.44667    0.06461    0.34613    1.000
    H197     H        0.45227    0.08153    0.42513    1.000
    N37      N        0.56397    0.12673    0.07143    1.000
    H198     H        0.59077    0.12563    0.09423    1.000
    C176     C        0.46456    0.00695    0.44753    1.000
    C177     C        0.47657    0.01543    0.58123    1.000
    H199     H        0.46067    0.02613    0.63803    1.000
    C178     C        0.48845    0.99161    0.36713    1.000
    H200     H        0.48067    0.98583    0.27483    1.000
    C179     C        0.42687    0.01493    0.38793    1.000
    H201     H        0.41287    0.99423    0.30943    1.000
    H202     H        0.40177    0.00683    0.45483    1.000
    C180     C        0.41027    0.07023    0.27373    1.000
    H203     H        0.38307    0.06123    0.33383    1.000
    H204     H        0.39907    0.04883    0.19563    1.000
    C181     C        0.42897    0.11983    0.22703    1.000
    C182     C        0.42797    0.15333    0.30833    1.000
    H205     H        0.41497    0.14403    0.39543    1.000
    N38      N        0.57930    0.11060    0.39423    1.000
    C183     C        0.58467    0.12903    0.51543    1.000
    H206     H        0.56497    0.14103    0.54143    1.000
    C184     C        0.61757    0.13133    0.60533    1.000
    H207     H        0.61977    0.14413    0.69203    1.000
    C185     C        0.44817    0.13423    0.09823    1.000
    H208     H        0.44987    0.11283    0.03803    1.000
    C186     C        0.52367    0.04833    0.97573    1.000
    C187     C        0.54817    0.02483    0.00003    1.000
    H209     H        0.58147    0.04193    0.00113    1.000
    C188     C        0.47517    0.02353    0.97693    1.000
    H210     H        0.45797    0.03923    0.96233    1.000
    C189     C        0.54817    0.10063    0.94893    1.000
    H211     H        0.57527    0.10953    0.88923    1.000
    H212     H        0.52627    0.10833    0.90293    1.000
    C190     C        0.57987    0.17663    0.05733    1.000
    H213     H        0.55277    0.18063    0.04223    1.000
    H214     H        0.59967    0.18923    0.98083    1.000
    C191     C        0.60397    0.20283    0.17363    1.000
    C192     C        0.65057    0.22173    0.19433    1.000
    H215     H        0.67087    0.21763    0.12853    1.000
    N39      N        0.67047    0.24783    0.30833    1.000
    C193     C        0.64257    0.25293    0.39133    1.000
    H216     H        0.65767    0.27273    0.46943    1.000
    C194     C        0.69357    0.25993    0.28833    1.000
    H217     H        0.67077    0.24073    0.22003    1.000
    C195     C        0.57527    0.20953    0.27043    1.000
    H218     H        0.54197    0.19603    0.25363    1.000
    H219     H        0.59597    0.19103    0.13883    1.000
    H220     H        0.55117    0.17853    0.06053    1.000
    C196     C        0.60727    0.20963    0.95303    1.000
    C197     C        0.58677    0.20803    0.82783    1.000
    H221     H        0.55367    0.18623    0.81453    1.000
    N40      N        0.61127    0.23543    0.72423    1.000
    C198     C        0.65677    0.26483    0.75133    1.000
    H222     H        0.67527    0.28473    0.67873    1.000
    C199     C        0.67907    0.26933    0.87133    1.000
    H223     H        0.71197    0.29263    0.88293    1.000
    C200     C        0.65407    0.23993    0.97133    1.000
    H224     H        0.66927    0.24033    0.05593    1.000
    Ag9      Ag       0.18215    0.42738    0.57957    1.000
    N41      N        0.11333    0.39795    0.67947    1.000
    H225     H        0.11893    0.41487    0.75847    1.000
    N42      N        0.23063    0.46007    0.40477    1.000
    H226     H        0.25743    0.45897    0.42757    1.000
    C201     C        0.13122    0.34029    0.78087    1.000
    C202     C        0.14323    0.34877    0.91457    1.000
    H227     H        0.12733    0.35947    0.97137    1.000
    C203     C        0.15511    0.32495    0.70047    1.000
    H228     H        0.14733    0.31917    0.60817    1.000
    C204     C        0.09353    0.34827    0.72127    1.000
    H229     H        0.07953    0.32757    0.64277    1.000
    H230     H        0.06843    0.34017    0.78817    1.000
    C205     C        0.07693    0.40357    0.60707    1.000
    H231     H        0.04973    0.39457    0.66717    1.000
    H232     H        0.06573    0.38217    0.52897    1.000
    C206     C        0.09563    0.45317    0.56037    1.000
    C207     C        0.09463    0.48667    0.64167    1.000
    H233     H        0.08163    0.47737    0.72877    1.000
    N43      N        0.24596    0.44394    0.72757    1.000
    C208     C        0.25133    0.46237    0.84877    1.000
    H234     H        0.23163    0.47437    0.87477    1.000
    C209     C        0.28423    0.46467    0.93867    1.000
    H235     H        0.28643    0.47747    0.02537    1.000
    C210     C        0.11483    0.46757    0.43157    1.000
    H236     H        0.11653    0.44617    0.37137    1.000
    C211     C        0.19033    0.38167    0.30907    1.000
    C212     C        0.21483    0.35817    0.33337    1.000
    H237     H        0.24813    0.37527    0.33447    1.000
    C213     C        0.14183    0.35687    0.31027    1.000
    H238     H        0.12463    0.37257    0.29567    1.000
    C214     C        0.21483    0.43397    0.28227    1.000
    H239     H        0.24193    0.44287    0.22257    1.000
    H240     H        0.19293    0.44167    0.23627    1.000
    C215     C        0.24653    0.50997    0.39067    1.000
    H241     H        0.21943    0.51397    0.37557    1.000
    H242     H        0.26633    0.52257    0.31417    1.000
    C216     C        0.27063    0.53617    0.50697    1.000
    C217     C        0.31723    0.55507    0.52767    1.000
    H243     H        0.33753    0.55097    0.46187    1.000
    N44      N        0.33713    0.58117    0.64167    1.000
    C218     C        0.30923    0.58627    0.72467    1.000
    H244     H        0.32433    0.60607    0.80277    1.000
    C219     C        0.36023    0.59327    0.62167    1.000
    H245     H        0.33743    0.57407    0.55337    1.000
    C220     C        0.24193    0.54287    0.60377    1.000
    H246     H        0.20863    0.52937    0.58697    1.000
    H247     H        0.26263    0.52437    0.47217    1.000
    H248     H        0.21783    0.51187    0.39387    1.000
    C221     C        0.27393    0.54297    0.28637    1.000
    C222     C        0.25343    0.54137    0.16117    1.000
    H249     H        0.22033    0.51957    0.14787    1.000
    N45      N        0.27793    0.56877    0.05757    1.000
    C223     C        0.32343    0.59817    0.08467    1.000
    H250     H        0.34193    0.61807    0.01207    1.000
    C224     C        0.34573    0.60267    0.20467    1.000
    H251     H        0.37863    0.62597    0.21627    1.000
    C225     C        0.32073    0.57327    0.30467    1.000
    H252     H        0.33593    0.57367    0.38927    1.000
    Ag10     Ag       0.76071    0.91190    0.08710    1.000
    N46      N        0.73128    0.95128    0.98720    1.000
    H253     H        0.74820    0.96260    0.90820    1.000
    N47      N        0.79340    0.89610    0.26190    1.000
    H254     H        0.79230    0.86820    0.23910    1.000
    C226     C        0.67362    0.87573    0.88580    1.000
    C227     C        0.68210    0.87220    0.75210    1.000
    H255     H        0.69280    0.89880    0.69530    1.000
    C228     C        0.65828    0.83650    0.96620    1.000
    H256     H        0.65250    0.83850    0.05850    1.000
    C229     C        0.68160    0.92140    0.94540    1.000
    H257     H        0.66090    0.91470    0.02390    1.000
    H258     H        0.67350    0.93840    0.87850    1.000
    C230     C        0.73690    0.99330    0.05960    1.000
    H259     H        0.72790    0.01150    0.99950    1.000
    H260     H        0.71550    0.98310    0.13770    1.000
    C231     C        0.78650    0.02420    0.10630    1.000
    C232     C        0.82000    0.05870    0.02500    1.000
    H261     H        0.81070    0.06240    0.93790    1.000
    N48      N        0.77727    0.86464    0.93910    1.000
    C233     C        0.79570    0.87770    0.81790    1.000
    H262     H        0.80770    0.90940    0.79190    1.000
    C234     C        0.79800    0.84710    0.72800    1.000
    H263     H        0.81080    0.85770    0.64130    1.000
    C235     C        0.80090    0.01940    0.23510    1.000
    H264     H        0.77950    0.99630    0.29530    1.000
    C236     C        0.71500    0.85800    0.35760    1.000
    C237     C        0.69150    0.81000    0.33330    1.000
    H265     H        0.70860    0.79380    0.33220    1.000
    C238     C        0.69020    0.88170    0.35640    1.000
    H266     H        0.70590    0.91460    0.37100    1.000
    C239     C        0.76730    0.88580    0.38440    1.000
    H267     H        0.77620    0.86760    0.44410    1.000
    H268     H        0.77500    0.91540    0.43040    1.000
    C240     C        0.84330    0.93010    0.27600    1.000
    H269     H        0.84730    0.96120    0.29110    1.000
    H270     H        0.85590    0.92290    0.35250    1.000
    C241     C        0.86950    0.93220    0.15970    1.000
    C242     C        0.88840    0.90450    0.13900    1.000
    H271     H        0.88430    0.88010    0.20480    1.000
    N49      N        0.91450    0.91070    0.02500    1.000
    C243     C        0.91960    0.94370    0.94200    1.000
    H272     H        0.93940    0.94840    0.86390    1.000
    C244     C        0.92660    0.89970    0.04500    1.000
    H273     H        0.90740    0.90330    0.11330    1.000
    C245     C        0.87620    0.96760    0.06290    1.000
    H274     H        0.86270    0.98740    0.07970    1.000
    H275     H        0.85770    0.92840    0.19450    1.000
    H276     H        0.84520    0.96070    0.27280    1.000
    C246     C        0.87630    0.93570    0.38030    1.000
    C247     C        0.87470    0.95460    0.50550    1.000
    H277     H        0.85290    0.96590    0.51880    1.000
    N50      N        0.90210    0.95750    0.60910    1.000
    C248     C        0.93150    0.94140    0.58200    1.000
    H278     H        0.95140    0.94280    0.65460    1.000
    C249     C        0.93600    0.92360    0.46200    1.000
    H279     H        0.95930    0.91400    0.45040    1.000
    C250     C        0.90660    0.91920    0.36200    1.000
    H280     H        0.90700    0.90440    0.27740    1.000
    Ag11     Ag       0.42738    0.24523    0.42043    1.000
    N51      N        0.39795    0.28461    0.32053    1.000
    H281     H        0.41487    0.29593    0.24153    1.000
    N52      N        0.46007    0.22943    0.59523    1.000
    H282     H        0.45897    0.20153    0.57243    1.000
    C251     C        0.34029    0.20906    0.21913    1.000
    C252     C        0.34877    0.20553    0.08543    1.000
    H283     H        0.35947    0.23213    0.02863    1.000
    C253     C        0.32495    0.16983    0.29953    1.000
    H284     H        0.31917    0.17183    0.39183    1.000
    C254     C        0.34827    0.25473    0.27873    1.000
    H285     H        0.32757    0.24803    0.35723    1.000
    H286     H        0.34017    0.27173    0.21183    1.000
    C255     C        0.40357    0.32663    0.39293    1.000
    H287     H        0.39457    0.34483    0.33283    1.000
    H288     H        0.38217    0.31643    0.47103    1.000
    C256     C        0.45317    0.35753    0.43963    1.000
    C257     C        0.48667    0.39203    0.35833    1.000
    H289     H        0.47737    0.39573    0.27123    1.000
    N53      N        0.44394    0.19797    0.27243    1.000
    C258     C        0.46237    0.21103    0.15123    1.000
    H290     H        0.47437    0.24273    0.12523    1.000
    C259     C        0.46467    0.18043    0.06133    1.000
    H291     H        0.47747    0.19103    0.97463    1.000
    C260     C        0.46757    0.35273    0.56843    1.000
    H292     H        0.44617    0.32963    0.62863    1.000
    C261     C        0.38167    0.19133    0.69093    1.000
    C262     C        0.35817    0.14333    0.66663    1.000
    H293     H        0.37527    0.12713    0.66553    1.000
    C263     C        0.35687    0.21503    0.68973    1.000
    H294     H        0.37257    0.24793    0.70433    1.000
    C264     C        0.43397    0.21913    0.71773    1.000
    H295     H        0.44287    0.20093    0.77743    1.000
    H296     H        0.44167    0.24873    0.76373    1.000
    C265     C        0.50997    0.26343    0.60933    1.000
    H297     H        0.51397    0.29453    0.62443    1.000
    H298     H        0.52257    0.25623    0.68583    1.000
    C266     C        0.53617    0.26553    0.49303    1.000
    C267     C        0.55507    0.23783    0.47233    1.000
    H299     H        0.55097    0.21343    0.53813    1.000
    N54      N        0.58117    0.24403    0.35833    1.000
    C268     C        0.58627    0.27703    0.27533    1.000
    H300     H        0.60607    0.28173    0.19723    1.000
    C269     C        0.59327    0.23303    0.37833    1.000
    H301     H        0.57407    0.23663    0.44663    1.000
    C270     C        0.54287    0.30093    0.39623    1.000
    H302     H        0.52937    0.32073    0.41303    1.000
    H303     H        0.52437    0.26173    0.52783    1.000
    H304     H        0.51187    0.29403    0.60613    1.000
    C271     C        0.54297    0.26903    0.71363    1.000
    C272     C        0.54137    0.28793    0.83883    1.000
    H305     H        0.51957    0.29923    0.85213    1.000
    N55      N        0.56877    0.29083    0.94243    1.000
    C273     C        0.59817    0.27473    0.91533    1.000
    H306     H        0.61807    0.27613    0.98793    1.000
    C274     C        0.60267    0.25693    0.79533    1.000
    H307     H        0.62597    0.24733    0.78373    1.000
    C275     C        0.57327    0.25253    0.69533    1.000
    H308     H        0.57367    0.23773    0.61073    1.000
    Ag12     Ag       0.09405    0.57856    0.75377    1.000
    N56      N        0.06461    0.61795    0.65387    1.000
    H309     H        0.08153    0.62927    0.57487    1.000
    N57      N        0.12673    0.56277    0.92857    1.000
    H310     H        0.12563    0.53487    0.90577    1.000
    C276     C        0.00695    0.54240    0.55247    1.000
    C277     C        0.01543    0.53887    0.41877    1.000
    H311     H        0.02613    0.56547    0.36197    1.000
    C278     C        0.99161    0.50317    0.63287    1.000
    H312     H        0.98583    0.50517    0.72517    1.000
    C279     C        0.01493    0.58807    0.61207    1.000
    H313     H        0.99423    0.58137    0.69057    1.000
    H314     H        0.00683    0.60507    0.54517    1.000
    C280     C        0.07023    0.65997    0.72627    1.000
    H315     H        0.06123    0.67817    0.66617    1.000
    H316     H        0.04883    0.64977    0.80437    1.000
    C281     C        0.11983    0.69087    0.77297    1.000
    C282     C        0.15333    0.72537    0.69167    1.000
    H317     H        0.14403    0.72907    0.60457    1.000
    N58      N        0.11060    0.53131    0.60577    1.000
    C283     C        0.12903    0.54437    0.48457    1.000
    H318     H        0.14103    0.57607    0.45857    1.000
    C284     C        0.13133    0.51377    0.39467    1.000
    H319     H        0.14413    0.52437    0.30797    1.000
    C285     C        0.13423    0.68607    0.90177    1.000
    H320     H        0.11283    0.66297    0.96197    1.000
    C286     C        0.04833    0.52467    0.02427    1.000
    C287     C        0.02483    0.47667    0.99997    1.000
    H321     H        0.04193    0.46047    0.99887    1.000
    C288     C        0.02353    0.54837    0.02307    1.000
    H322     H        0.03923    0.58127    0.03767    1.000
    C289     C        0.10063    0.55247    0.05107    1.000
    H323     H        0.10953    0.53427    0.11077    1.000
    H324     H        0.10833    0.58207    0.09707    1.000
    C290     C        0.17663    0.59677    0.94267    1.000
    H325     H        0.18063    0.62787    0.95777    1.000
    H326     H        0.18923    0.58957    0.01917    1.000
    C291     C        0.20283    0.59887    0.82637    1.000
    C292     C        0.22173    0.57117    0.80567    1.000
    H327     H        0.21763    0.54677    0.87147    1.000
    N59      N        0.24783    0.57737    0.69167    1.000
    C293     C        0.25293    0.61037    0.60867    1.000
    H328     H        0.27273    0.61507    0.53057    1.000
    C294     C        0.25993    0.56637    0.71167    1.000
    H329     H        0.24073    0.56997    0.77997    1.000
    C295     C        0.20953    0.63427    0.72957    1.000
    H330     H        0.19603    0.65407    0.74637    1.000
    H331     H        0.19103    0.59507    0.86117    1.000
    H332     H        0.17853    0.62737    0.93947    1.000
    C296     C        0.20963    0.60237    0.04697    1.000
    C297     C        0.20803    0.62127    0.17217    1.000
    H333     H        0.18623    0.63257    0.18547    1.000
    N60      N        0.23543    0.62417    0.27577    1.000
    C298     C        0.26483    0.60807    0.24867    1.000
    H334     H        0.28473    0.60947    0.32127    1.000
    C299     C        0.26933    0.59027    0.12867    1.000
    H335     H        0.29263    0.58067    0.11707    1.000
    C300     C        0.23993    0.58587    0.02867    1.000
    H336     H        0.24033    0.57107    0.94407    1.000
    Ag13     Ag       0.08810    0.84881    0.08710    1.000
    N61      N        0.04872    0.78000    0.98720    1.000
    H337     H        0.03740    0.78560    0.90820    1.000
    N62      N        0.10390    0.89730    0.26190    1.000
    H338     H        0.13180    0.92410    0.23910    1.000
    C301     C        0.12427    0.79789    0.88580    1.000
    C302     C        0.12780    0.80990    0.75210    1.000
    H339     H        0.10120    0.79400    0.69530    1.000
    C303     C        0.16350    0.82178    0.96620    1.000
    H340     H        0.16150    0.81400    0.05850    1.000
    C304     C        0.07860    0.76020    0.94540    1.000
    H341     H        0.08530    0.74620    0.02390    1.000
    H342     H        0.06160    0.73510    0.87850    1.000
    C305     C        0.00670    0.74360    0.05960    1.000
    H343     H        0.98850    0.71640    0.99950    1.000
    H344     H        0.01690    0.73240    0.13770    1.000
    C306     C        0.97580    0.76230    0.10630    1.000
    C307     C        0.94130    0.76130    0.02500    1.000
    H345     H        0.93760    0.74830    0.93790    1.000
    N63      N        0.13536    0.91263    0.93910    1.000
    C308     C        0.12230    0.91800    0.81790    1.000
    H346     H        0.09060    0.89830    0.79190    1.000
    C309     C        0.15290    0.95090    0.72800    1.000
    H347     H        0.14230    0.95310    0.64130    1.000
    C310     C        0.98060    0.78150    0.23510    1.000
    H348     H        0.00370    0.78320    0.29530    1.000
    C311     C        0.14200    0.85700    0.35760    1.000
    C312     C        0.19000    0.88150    0.33330    1.000
    H349     H        0.20620    0.91480    0.33220    1.000
    C313     C        0.11830    0.80850    0.35640    1.000
    H350     H        0.08540    0.79130    0.37100    1.000
    C314     C        0.11420    0.88150    0.38440    1.000
    H351     H        0.13240    0.90860    0.44410    1.000
    H352     H        0.08460    0.85960    0.43040    1.000
    C315     C        0.06990    0.91320    0.27600    1.000
    H353     H        0.03880    0.88610    0.29110    1.000
    H354     H        0.07710    0.93300    0.35250    1.000
    C316     C        0.06780    0.93730    0.15970    1.000
    C317     C        0.09550    0.98390    0.13900    1.000
    H355     H        0.11990    0.00420    0.20480    1.000
    N64      N        0.08930    0.00380    0.02500    1.000
    C318     C        0.05630    0.97590    0.94200    1.000
    H356     H        0.05160    0.99100    0.86390    1.000
    C319     C        0.10030    0.02690    0.04500    1.000
    H357     H        0.09670    0.00410    0.11330    1.000
    C320     C        0.03240    0.90860    0.06290    1.000
    H358     H        0.01260    0.87530    0.07970    1.000
    H359     H        0.07160    0.92930    0.19450    1.000
    H360     H        0.03930    0.88450    0.27280    1.000
    C321     C        0.06430    0.94060    0.38030    1.000
    C322     C        0.04540    0.92010    0.50550    1.000
    H361     H        0.03410    0.88700    0.51880    1.000
    N65      N        0.04250    0.94460    0.60910    1.000
    C323     C        0.05860    0.99010    0.58200    1.000
    H362     H        0.05720    0.00860    0.65460    1.000
    C324     C        0.07640    0.01240    0.46200    1.000
    H363     H        0.08600    0.04530    0.45040    1.000
    C325     C        0.08080    0.98740    0.36200    1.000
    H364     H        0.09560    0.00260    0.27740    1.000
    Ag14     Ag       0.75477    0.18215    0.42043    1.000
    N66      N        0.71539    0.11333    0.32053    1.000
    H365     H        0.70407    0.11893    0.24153    1.000
    N67      N        0.77057    0.23063    0.59523    1.000
    H366     H        0.79847    0.25743    0.57243    1.000
    C326     C        0.79094    0.13122    0.21913    1.000
    C327     C        0.79447    0.14323    0.08543    1.000
    H367     H        0.76787    0.12733    0.02863    1.000
    C328     C        0.83017    0.15511    0.29953    1.000
    H368     H        0.82817    0.14733    0.39183    1.000
    C329     C        0.74527    0.09353    0.27873    1.000
    H369     H        0.75197    0.07953    0.35723    1.000
    H370     H        0.72827    0.06843    0.21183    1.000
    C330     C        0.67337    0.07693    0.39293    1.000
    H371     H        0.65517    0.04973    0.33283    1.000
    H372     H        0.68357    0.06573    0.47103    1.000
    C331     C        0.64247    0.09563    0.43963    1.000
    C332     C        0.60797    0.09463    0.35833    1.000
    H373     H        0.60427    0.08163    0.27123    1.000
    N68      N        0.80203    0.24596    0.27243    1.000
    C333     C        0.78897    0.25133    0.15123    1.000
    H374     H        0.75727    0.23163    0.12523    1.000
    C334     C        0.81957    0.28423    0.06133    1.000
    H375     H        0.80897    0.28643    0.97463    1.000
    C335     C        0.64727    0.11483    0.56843    1.000
    H376     H        0.67037    0.11653    0.62863    1.000
    C336     C        0.80867    0.19033    0.69093    1.000
    C337     C        0.85667    0.21483    0.66663    1.000
    H377     H        0.87287    0.24813    0.66553    1.000
    C338     C        0.78497    0.14183    0.68973    1.000
    H378     H        0.75207    0.12463    0.70433    1.000
    C339     C        0.78087    0.21483    0.71773    1.000
    H379     H        0.79907    0.24193    0.77743    1.000
    H380     H        0.75127    0.19293    0.76373    1.000
    C340     C        0.73657    0.24653    0.60933    1.000
    H381     H        0.70547    0.21943    0.62443    1.000
    H382     H        0.74377    0.26633    0.68583    1.000
    C341     C        0.73447    0.27063    0.49303    1.000
    C342     C        0.76217    0.31723    0.47233    1.000
    H383     H        0.78657    0.33753    0.53813    1.000
    N69      N        0.75597    0.33713    0.35833    1.000
    C343     C        0.72297    0.30923    0.27533    1.000
    H384     H        0.71827    0.32433    0.19723    1.000
    C344     C        0.76697    0.36023    0.37833    1.000
    H385     H        0.76337    0.33743    0.44663    1.000
    C345     C        0.69907    0.24193    0.39623    1.000
    H386     H        0.67927    0.20863    0.41303    1.000
    H387     H        0.73827    0.26263    0.52783    1.000
    H388     H        0.70597    0.21783    0.60613    1.000
    C346     C        0.73097    0.27393    0.71363    1.000
    C347     C        0.71207    0.25343    0.83883    1.000
    H389     H        0.70077    0.22033    0.85213    1.000
    N70      N        0.70917    0.27793    0.94243    1.000
    C348     C        0.72527    0.32343    0.91533    1.000
    H390     H        0.72387    0.34193    0.98793    1.000
    C349     C        0.74307    0.34573    0.79533    1.000
    H391     H        0.75267    0.37863    0.78373    1.000
    C350     C        0.74747    0.32073    0.69533    1.000
    H392     H        0.76227    0.33593    0.61073    1.000
    Ag15     Ag       0.42144    0.51548    0.75377    1.000
    N71      N        0.38205    0.44667    0.65387    1.000
    H393     H        0.37073    0.45227    0.57487    1.000
    N72      N        0.43723    0.56397    0.92857    1.000
    H394     H        0.46513    0.59077    0.90577    1.000
    C351     C        0.45760    0.46456    0.55247    1.000
    C352     C        0.46113    0.47657    0.41877    1.000
    H395     H        0.43453    0.46067    0.36197    1.000
    C353     C        0.49683    0.48845    0.63287    1.000
    H396     H        0.49483    0.48067    0.72517    1.000
    C354     C        0.41193    0.42687    0.61207    1.000
    H397     H        0.41863    0.41287    0.69057    1.000
    H398     H        0.39493    0.40177    0.54517    1.000
    C355     C        0.34003    0.41027    0.72627    1.000
    H399     H        0.32183    0.38307    0.66617    1.000
    H400     H        0.35023    0.39907    0.80437    1.000
    C356     C        0.30913    0.42897    0.77297    1.000
    C357     C        0.27463    0.42797    0.69167    1.000
    H401     H        0.27093    0.41497    0.60457    1.000
    N73      N        0.46869    0.57930    0.60577    1.000
    C358     C        0.45563    0.58467    0.48457    1.000
    H402     H        0.42393    0.56497    0.45857    1.000
    C359     C        0.48623    0.61757    0.39467    1.000
    H403     H        0.47563    0.61977    0.30797    1.000
    C360     C        0.31393    0.44817    0.90177    1.000
    H404     H        0.33703    0.44987    0.96197    1.000
    C361     C        0.47533    0.52367    0.02427    1.000
    C362     C        0.52333    0.54817    0.99997    1.000
    H405     H        0.53953    0.58147    0.99887    1.000
    C363     C        0.45163    0.47517    0.02307    1.000
    H406     H        0.41873    0.45797    0.03767    1.000
    C364     C        0.44753    0.54817    0.05107    1.000
    H407     H        0.46573    0.57527    0.11077    1.000
    H408     H        0.41793    0.52627    0.09707    1.000
    C365     C        0.40323    0.57987    0.94267    1.000
    H409     H        0.37213    0.55277    0.95777    1.000
    H410     H        0.41043    0.59967    0.01917    1.000
    C366     C        0.40113    0.60397    0.82637    1.000
    C367     C        0.42883    0.65057    0.80567    1.000
    H411     H        0.45323    0.67087    0.87147    1.000
    N74      N        0.42263    0.67047    0.69167    1.000
    C368     C        0.38963    0.64257    0.60867    1.000
    H412     H        0.38493    0.65767    0.53057    1.000
    C369     C        0.43363    0.69357    0.71167    1.000
    H413     H        0.43003    0.67077    0.77997    1.000
    C370     C        0.36573    0.57527    0.72957    1.000
    H414     H        0.34593    0.54197    0.74637    1.000
    H415     H        0.40493    0.59597    0.86117    1.000
    H416     H        0.37263    0.55117    0.93947    1.000
    C371     C        0.39763    0.60727    0.04697    1.000
    C372     C        0.37873    0.58677    0.17217    1.000
    H417     H        0.36743    0.55367    0.18547    1.000
    N75      N        0.37583    0.61127    0.27577    1.000
    C373     C        0.39193    0.65677    0.24867    1.000
    H418     H        0.39053    0.67527    0.32127    1.000
    C374     C        0.40973    0.67907    0.12867    1.000
    H419     H        0.41933    0.71197    0.11707    1.000
    C375     C        0.41413    0.65407    0.02867    1.000
    H420     H        0.42893    0.66927    0.94407    1.000
    Ag16     Ag       0.15119    0.23929    0.08710    1.000
    N76      N        0.22000    0.26872    0.98720    1.000
    H421     H        0.21440    0.25180    0.90820    1.000
    N77      N        0.10270    0.20660    0.26190    1.000
    H422     H        0.07590    0.20770    0.23910    1.000
    C376     C        0.20211    0.32638    0.88580    1.000
    C377     C        0.19010    0.31790    0.75210    1.000
    H423     H        0.20600    0.30720    0.69530    1.000
    C378     C        0.17822    0.34172    0.96620    1.000
    H424     H        0.18600    0.34750    0.05850    1.000
    C379     C        0.23980    0.31840    0.94540    1.000
    H425     H        0.25380    0.33910    0.02390    1.000
    H426     H        0.26490    0.32650    0.87850    1.000
    C380     C        0.25640    0.26310    0.05960    1.000
    H427     H        0.28360    0.27210    0.99950    1.000
    H428     H        0.26760    0.28450    0.13770    1.000
    C381     C        0.23770    0.21350    0.10630    1.000
    C382     C        0.23870    0.18000    0.02500    1.000
    H429     H        0.25170    0.18930    0.93790    1.000
    N78      N        0.08737    0.22273    0.93910    1.000
    C383     C        0.08200    0.20430    0.81790    1.000
    H430     H        0.10170    0.19230    0.79190    1.000
    C384     C        0.04910    0.20200    0.72800    1.000
    H431     H        0.04690    0.18920    0.64130    1.000
    C385     C        0.21850    0.19910    0.23510    1.000
    H432     H        0.21680    0.22050    0.29530    1.000
    C386     C        0.14300    0.28500    0.35760    1.000
    C387     C        0.11850    0.30850    0.33330    1.000
    H433     H        0.08520    0.29140    0.33220    1.000
    C388     C        0.19150    0.30980    0.35640    1.000
    H434     H        0.20870    0.29410    0.37100    1.000
    C389     C        0.11850    0.23270    0.38440    1.000
    H435     H        0.09140    0.22380    0.44410    1.000
    H436     H        0.14040    0.22500    0.43040    1.000
    C390     C        0.08680    0.15670    0.27600    1.000
    H437     H        0.11390    0.15270    0.29110    1.000
    H438     H        0.06700    0.14410    0.35250    1.000
    C391     C        0.06270    0.13050    0.15970    1.000
    C392     C        0.01610    0.11160    0.13900    1.000
    H439     H        0.99580    0.11570    0.20480    1.000
    N79      N        0.99620    0.08550    0.02500    1.000
    C393     C        0.02410    0.08040    0.94200    1.000
    H440     H        0.00900    0.06060    0.86390    1.000
    C394     C        0.97310    0.07340    0.04500    1.000
    H441     H        0.99590    0.09260    0.11330    1.000
    C395     C        0.09140    0.12380    0.06290    1.000
    H442     H        0.12470    0.13730    0.07970    1.000
    H443     H        0.07070    0.14230    0.19450    1.000
    H444     H        0.11550    0.15480    0.27280    1.000
    C396     C        0.05940    0.12370    0.38030    1.000
    C397     C        0.07990    0.12530    0.50550    1.000
    H445     H        0.11300    0.14710    0.51880    1.000
    N80      N        0.05540    0.09790    0.60910    1.000
    C398     C        0.00990    0.06850    0.58200    1.000
    H446     H        0.99140    0.04860    0.65460    1.000
    C399     C        0.98760    0.06400    0.46200    1.000
    H447     H        0.95470    0.04070    0.45040    1.000
    C400     C        0.01260    0.09340    0.36200    1.000
    H448     H        0.99740    0.09300    0.27740    1.000
    Ag17     Ag       0.81785    0.57262    0.42043    1.000
    N81      N        0.88667    0.60205    0.32053    1.000
    H449     H        0.88107    0.58513    0.24153    1.000
    N82      N        0.76937    0.53993    0.59523    1.000
    H450     H        0.74257    0.54103    0.57243    1.000
    C401     C        0.86878    0.65971    0.21913    1.000
    C402     C        0.85677    0.65123    0.08543    1.000
    H451     H        0.87267    0.64053    0.02863    1.000
    C403     C        0.84489    0.67505    0.29953    1.000
    H452     H        0.85267    0.68083    0.39183    1.000
    C404     C        0.90647    0.65173    0.27873    1.000
    H453     H        0.92047    0.67243    0.35723    1.000
    H454     H        0.93157    0.65983    0.21183    1.000
    C405     C        0.92307    0.59643    0.39293    1.000
    H455     H        0.95027    0.60543    0.33283    1.000
    H456     H        0.93427    0.61783    0.47103    1.000
    C406     C        0.90437    0.54683    0.43963    1.000
    C407     C        0.90537    0.51333    0.35833    1.000
    H457     H        0.91837    0.52263    0.27123    1.000
    N83      N        0.75404    0.55606    0.27243    1.000
    C408     C        0.74867    0.53763    0.15123    1.000
    H458     H        0.76837    0.52563    0.12523    1.000
    C409     C        0.71577    0.53533    0.06133    1.000
    H459     H        0.71357    0.52253    0.97463    1.000
    C410     C        0.88517    0.53243    0.56843    1.000
    H460     H        0.88347    0.55383    0.62863    1.000
    C411     C        0.80967    0.61833    0.69093    1.000
    C412     C        0.78517    0.64183    0.66663    1.000
    H461     H        0.75187    0.62473    0.66553    1.000
    C413     C        0.85817    0.64313    0.68973    1.000
    H462     H        0.87537    0.62743    0.70433    1.000
    C414     C        0.78517    0.56603    0.71773    1.000
    H463     H        0.75807    0.55713    0.77743    1.000
    H464     H        0.80707    0.55833    0.76373    1.000
    C415     C        0.75347    0.49003    0.60933    1.000
    H465     H        0.78057    0.48603    0.62443    1.000
    H466     H        0.73367    0.47743    0.68583    1.000
    C416     C        0.72937    0.46383    0.49303    1.000
    C417     C        0.68277    0.44493    0.47233    1.000
    H467     H        0.66247    0.44903    0.53813    1.000
    N84      N        0.66287    0.41883    0.35833    1.000
    C418     C        0.69077    0.41373    0.27533    1.000
    H468     H        0.67567    0.39393    0.19723    1.000
    C419     C        0.63977    0.40673    0.37833    1.000
    H469     H        0.66257    0.42593    0.44663    1.000
    C420     C        0.75807    0.45713    0.39623    1.000
    H470     H        0.79137    0.47063    0.41303    1.000
    H471     H        0.73737    0.47563    0.52783    1.000
    H472     H        0.78217    0.48813    0.60613    1.000
    C421     C        0.72607    0.45703    0.71363    1.000
    C422     C        0.74657    0.45863    0.83883    1.000
    H473     H        0.77967    0.48043    0.85213    1.000
    N85      N        0.72207    0.43123    0.94243    1.000
    C423     C        0.67657    0.40183    0.91533    1.000
    H474     H        0.65807    0.38193    0.98793    1.000
    C424     C        0.65427    0.39733    0.79533    1.000
    H475     H        0.62137    0.37403    0.78373    1.000
    C425     C        0.67927    0.42673    0.69533    1.000
    H476     H        0.66407    0.42633    0.61073    1.000
    Ag18     Ag       0.48452    0.90595    0.75377    1.000
    N86      N        0.55333    0.93539    0.65387    1.000
    H477     H        0.54773    0.91847    0.57487    1.000
    N87      N        0.43603    0.87327    0.92857    1.000
    H478     H        0.40923    0.87437    0.90577    1.000
    C426     C        0.53544    0.99305    0.55247    1.000
    C427     C        0.52343    0.98457    0.41877    1.000
    H479     H        0.53933    0.97387    0.36197    1.000
    C428     C        0.51155    0.00839    0.63287    1.000
    H480     H        0.51933    0.01417    0.72517    1.000
    C429     C        0.57313    0.98507    0.61207    1.000
    H481     H        0.58713    0.00577    0.69057    1.000
    H482     H        0.59823    0.99317    0.54517    1.000
    C430     C        0.58973    0.92977    0.72627    1.000
    H483     H        0.61693    0.93877    0.66617    1.000
    H484     H        0.60093    0.95117    0.80437    1.000
    C431     C        0.57103    0.88017    0.77297    1.000
    C432     C        0.57203    0.84667    0.69167    1.000
    H485     H        0.58503    0.85597    0.60457    1.000
    N88      N        0.42070    0.88940    0.60577    1.000
    C433     C        0.41533    0.87097    0.48457    1.000
    H486     H        0.43503    0.85897    0.45857    1.000
    C434     C        0.38243    0.86867    0.39467    1.000
    H487     H        0.38023    0.85587    0.30797    1.000
    C435     C        0.55183    0.86577    0.90177    1.000
    H488     H        0.55013    0.88717    0.96197    1.000
    C436     C        0.47633    0.95167    0.02427    1.000
    C437     C        0.45183    0.97517    0.99997    1.000
    H489     H        0.41853    0.95807    0.99887    1.000
    C438     C        0.52483    0.97647    0.02307    1.000
    H490     H        0.54203    0.96077    0.03767    1.000
    C439     C        0.45183    0.89937    0.05107    1.000
    H491     H        0.42473    0.89047    0.11077    1.000
    H492     H        0.47373    0.89167    0.09707    1.000
    C440     C        0.42013    0.82337    0.94267    1.000
    H493     H        0.44723    0.81937    0.95777    1.000
    H494     H        0.40033    0.81077    0.01917    1.000
    C441     C        0.39603    0.79717    0.82637    1.000
    C442     C        0.34943    0.77827    0.80567    1.000
    H495     H        0.32913    0.78237    0.87147    1.000
    N89      N        0.32953    0.75217    0.69167    1.000
    C443     C        0.35743    0.74707    0.60867    1.000
    H496     H        0.34233    0.72727    0.53057    1.000
    C444     C        0.30643    0.74007    0.71167    1.000
    H497     H        0.32923    0.75927    0.77997    1.000
    C445     C        0.42473    0.79047    0.72957    1.000
    H498     H        0.45803    0.80397    0.74637    1.000
    H499     H        0.40403    0.80897    0.86117    1.000
    H500     H        0.44883    0.82147    0.93947    1.000
    C446     C        0.39273    0.79037    0.04697    1.000
    C447     C        0.41323    0.79197    0.17217    1.000
    H501     H        0.44633    0.81377    0.18547    1.000
    N90      N        0.38873    0.76457    0.27577    1.000
    C448     C        0.34323    0.73517    0.24867    1.000
    H502     H        0.32473    0.71527    0.32127    1.000
    C449     C        0.32093    0.73067    0.12867    1.000
    H503     H        0.28803    0.70737    0.11707    1.000
    C450     C        0.34593    0.76007    0.02867    1.000
    H504     H        0.33073    0.75967    0.94407    1.000
