# CIF file generated by openbabel 3.1.0, see https://openbabel.org
data_I
_chemical_name_common 'image0'
_cell_length_a 19.086
_cell_length_b 19.06
_cell_length_c 25.9042
_cell_angle_alpha 90
_cell_angle_beta 90
_cell_angle_gamma 90
_space_group_name_H-M_alt 'P 1'
_space_group_name_Hall 'P 1'
loop_
    _symmetry_equiv_pos_as_xyz
    x,y,z
loop_
    _atom_site_label
    _atom_site_type_symbol
    _atom_site_fract_x
    _atom_site_fract_y
    _atom_site_fract_z
    _atom_site_occupancy
    Ag1      Ag       0.60262    0.38474    0.38379    1.000
    Ag2      Ag       0.63477    0.14741    0.36625    1.000
    S1       S        0.70342    0.41530    0.44736    1.000
    S2       S        0.67671    0.27078    0.38979    1.000
    S3       S        0.69986    0.12554    0.45319    1.000
    S4       S        0.33469    0.45356    0.30260    1.000
    S5       S        0.47923    0.42679    0.36030    1.000
    S6       S        0.62450    0.44987    0.29680    1.000
    C1       C        0.73100    0.33530    0.47650    1.000
    C2       C        0.71570    0.27100    0.45240    1.000
    C3       C        0.73250    0.20710    0.47580    1.000
    C4       C        0.65660    0.46040    0.49690    1.000
    C5       C        0.66100    0.53360    0.49650    1.000
    C6       C        0.62130    0.56980    0.53110    1.000
    C7       C        0.58220    0.53820    0.56670    1.000
    C8       C        0.57560    0.46490    0.56800    1.000
    C9       C        0.61480    0.42630    0.53170    1.000
    C10      C        0.74810    0.29560    0.34840    1.000
    C11      C        0.81360    0.31140    0.36570    1.000
    C12      C        0.86310    0.33330    0.32820    1.000
    C13      C        0.84330    0.33530    0.27700    1.000
    C14      C        0.77970    0.31740    0.26130    1.000
    C15      C        0.72920    0.29660    0.29590    1.000
    C16      C        0.77290    0.08150    0.42620    1.000
    C17      C        0.82740    0.11500    0.40160    1.000
    C18      C        0.88020    0.07520    0.37810    1.000
    C19      C        0.87440    0.00210    0.37840    1.000
    C20      C        0.82050    0.97030    0.40300    1.000
    C21      C        0.76850    0.00860    0.42670    1.000
    C22      C        0.41500    0.48130    0.27370    1.000
    C23      C        0.47860    0.46550    0.29720    1.000
    C24      C        0.28930    0.59390    0.24670    1.000
    C25      C        0.21670    0.58930    0.24670    1.000
    C26      C        0.18040    0.62800    0.28160    1.000
    C27      C        0.21110    0.66770    0.31590    1.000
    C28      C        0.28520    0.67450    0.31710    1.000
    C29      C        0.32380    0.63580    0.28150    1.000
    C30      C        0.45450    0.49770    0.40180    1.000
    C31      C        0.45300    0.47930    0.45400    1.000
    C32      C        0.43180    0.53110    0.48810    1.000
    C33      C        0.41540    0.59450    0.47300    1.000
    C34      C        0.41790    0.61180    0.41980    1.000
    C35      C        0.43930    0.56390    0.38450    1.000
    C36      C        0.54320    0.48270    0.27450    1.000
    C37      C        0.66850    0.52230    0.32320    1.000
    C38      C        0.74110    0.51920    0.32390    1.000
    C39      C        0.78070    0.57060    0.34740    1.000
    C40      C        0.74820    0.62490    0.37150    1.000
    C41      C        0.67610    0.62960    0.37280    1.000
    C42      C        0.63520    0.57710    0.34810    1.000
    H1       H        0.69130    0.55740    0.47270    1.000
    H2       H        0.62160    0.61980    0.52950    1.000
    H3       H        0.55770    0.56590    0.59130    1.000
    H4       H        0.54610    0.44140    0.59250    1.000
    H5       H        0.61090    0.37640    0.53100    1.000
    H6       H        0.82620    0.30690    0.40210    1.000
    H7       H        0.90900    0.34660    0.33800    1.000
    H8       H        0.87650    0.34980    0.25190    1.000
    H9       H        0.76800    0.31990    0.22530    1.000
    H10      H        0.68350    0.28350    0.28490    1.000
    H11      H        0.82890    0.16560    0.40140    1.000
    H12      H        0.91990    0.09930    0.36120    1.000
    H13      H        0.91050    0.97540    0.36090    1.000
    H14      H        0.81910    0.92010    0.40400    1.000
    H15      H        0.72900    0.98530    0.44340    1.000
    H16      H        0.19280    0.55880    0.22290    1.000
    H17      H        0.13080    0.62710    0.28100    1.000
    H18      H        0.18310    0.69250    0.33990    1.000
    H19      H        0.30840    0.70420    0.34170    1.000
    H20      H        0.37380    0.63860    0.28120    1.000
    H21      H        0.46640    0.43340    0.46540    1.000
    H22      H        0.42770    0.51920    0.52410    1.000
    H23      H        0.40220    0.62890    0.49780    1.000
    H24      H        0.40570    0.65790    0.40850    1.000
    H25      H        0.44450    0.57630    0.34820    1.000
    H26      H        0.76480    0.47970    0.30740    1.000
    H27      H        0.83060    0.56760    0.34640    1.000
    H28      H        0.77530    0.66190    0.38780    1.000
    H29      H        0.65300    0.66850    0.39120    1.000
    H30      H        0.58490    0.57990    0.34790    1.000
    Ag3      Ag       0.10262    0.88474    0.88379    1.000
    Ag4      Ag       0.13477    0.64741    0.86625    1.000
    S7       S        0.20342    0.91530    0.94736    1.000
    S8       S        0.17671    0.77078    0.88979    1.000
    S9       S        0.19986    0.62554    0.95319    1.000
    S10      S        0.83469    0.95356    0.80260    1.000
    S11      S        0.97923    0.92679    0.86030    1.000
    S12      S        0.12450    0.94987    0.79680    1.000
    C43      C        0.23100    0.83530    0.97650    1.000
    C44      C        0.21570    0.77100    0.95240    1.000
    C45      C        0.23250    0.70710    0.97580    1.000
    C46      C        0.15660    0.96040    0.99690    1.000
    C47      C        0.16100    0.03360    0.99650    1.000
    C48      C        0.12130    0.06980    0.03110    1.000
    C49      C        0.08220    0.03820    0.06670    1.000
    C50      C        0.07560    0.96490    0.06800    1.000
    C51      C        0.11480    0.92630    0.03170    1.000
    C52      C        0.24810    0.79560    0.84840    1.000
    C53      C        0.31360    0.81140    0.86570    1.000
    C54      C        0.36310    0.83330    0.82820    1.000
    C55      C        0.34330    0.83530    0.77700    1.000
    C56      C        0.27970    0.81740    0.76130    1.000
    C57      C        0.22920    0.79660    0.79590    1.000
    C58      C        0.27290    0.58150    0.92620    1.000
    C59      C        0.32740    0.61500    0.90160    1.000
    C60      C        0.38020    0.57520    0.87810    1.000
    C61      C        0.37440    0.50210    0.87840    1.000
    C62      C        0.32050    0.47030    0.90300    1.000
    C63      C        0.26850    0.50860    0.92670    1.000
    C64      C        0.91500    0.98130    0.77370    1.000
    C65      C        0.97860    0.96550    0.79720    1.000
    C66      C        0.78930    0.09390    0.74670    1.000
    C67      C        0.71670    0.08930    0.74670    1.000
    C68      C        0.68040    0.12800    0.78160    1.000
    C69      C        0.71110    0.16770    0.81590    1.000
    C70      C        0.78520    0.17450    0.81710    1.000
    C71      C        0.82380    0.13580    0.78150    1.000
    C72      C        0.95450    0.99770    0.90180    1.000
    C73      C        0.95300    0.97930    0.95400    1.000
    C74      C        0.93180    0.03110    0.98810    1.000
    C75      C        0.91540    0.09450    0.97300    1.000
    C76      C        0.91790    0.11180    0.91980    1.000
    C77      C        0.93930    0.06390    0.88450    1.000
    C78      C        0.04320    0.98270    0.77450    1.000
    C79      C        0.16850    0.02230    0.82320    1.000
    C80      C        0.24110    0.01920    0.82390    1.000
    C81      C        0.28070    0.07060    0.84740    1.000
    C82      C        0.24820    0.12490    0.87150    1.000
    C83      C        0.17610    0.12960    0.87280    1.000
    C84      C        0.13520    0.07710    0.84810    1.000
    H31      H        0.19130    0.05740    0.97270    1.000
    H32      H        0.12160    0.11980    0.02950    1.000
    H33      H        0.05770    0.06590    0.09130    1.000
    H34      H        0.04610    0.94140    0.09250    1.000
    H35      H        0.11090    0.87640    0.03100    1.000
    H36      H        0.32620    0.80690    0.90210    1.000
    H37      H        0.40900    0.84660    0.83800    1.000
    H38      H        0.37650    0.84980    0.75190    1.000
    H39      H        0.26800    0.81990    0.72530    1.000
    H40      H        0.18350    0.78350    0.78490    1.000
    H41      H        0.32890    0.66560    0.90140    1.000
    H42      H        0.41990    0.59930    0.86120    1.000
    H43      H        0.41050    0.47540    0.86090    1.000
    H44      H        0.31910    0.42010    0.90400    1.000
    H45      H        0.22900    0.48530    0.94340    1.000
    H46      H        0.69280    0.05880    0.72290    1.000
    H47      H        0.63080    0.12710    0.78100    1.000
    H48      H        0.68310    0.19250    0.83990    1.000
    H49      H        0.80840    0.20420    0.84170    1.000
    H50      H        0.87380    0.13860    0.78120    1.000
    H51      H        0.96640    0.93340    0.96540    1.000
    H52      H        0.92770    0.01920    0.02410    1.000
    H53      H        0.90220    0.12890    0.99780    1.000
    H54      H        0.90570    0.15790    0.90850    1.000
    H55      H        0.94450    0.07630    0.84820    1.000
    H56      H        0.26480    0.97970    0.80740    1.000
    H57      H        0.33060    0.06760    0.84640    1.000
    H58      H        0.27530    0.16190    0.88780    1.000
    H59      H        0.15300    0.16850    0.89120    1.000
    H60      H        0.08490    0.07990    0.84790    1.000
    Ag5      Ag       0.89738    0.61526    0.88379    1.000
    Ag6      Ag       0.86523    0.85259    0.86625    1.000
    S13      S        0.79658    0.58470    0.94736    1.000
    S14      S        0.82329    0.72922    0.88979    1.000
    S15      S        0.80014    0.87446    0.95319    1.000
    S16      S        0.16531    0.54644    0.80260    1.000
    S17      S        0.02077    0.57321    0.86030    1.000
    S18      S        0.87550    0.55013    0.79680    1.000
    C85      C        0.76900    0.66470    0.97650    1.000
    C86      C        0.78430    0.72900    0.95240    1.000
    C87      C        0.76750    0.79290    0.97580    1.000
    C88      C        0.84340    0.53960    0.99690    1.000
    C89      C        0.83900    0.46640    0.99650    1.000
    C90      C        0.87870    0.43020    0.03110    1.000
    C91      C        0.91780    0.46180    0.06670    1.000
    C92      C        0.92440    0.53510    0.06800    1.000
    C93      C        0.88520    0.57370    0.03170    1.000
    C94      C        0.75190    0.70440    0.84840    1.000
    C95      C        0.68640    0.68860    0.86570    1.000
    C96      C        0.63690    0.66670    0.82820    1.000
    C97      C        0.65670    0.66470    0.77700    1.000
    C98      C        0.72030    0.68260    0.76130    1.000
    C99      C        0.77080    0.70340    0.79590    1.000
    C100     C        0.72710    0.91850    0.92620    1.000
    C101     C        0.67260    0.88500    0.90160    1.000
    C102     C        0.61980    0.92480    0.87810    1.000
    C103     C        0.62560    0.99790    0.87840    1.000
    C104     C        0.67950    0.02970    0.90300    1.000
    C105     C        0.73150    0.99140    0.92670    1.000
    C106     C        0.08500    0.51870    0.77370    1.000
    C107     C        0.02140    0.53450    0.79720    1.000
    C108     C        0.21070    0.40610    0.74670    1.000
    C109     C        0.28330    0.41070    0.74670    1.000
    C110     C        0.31960    0.37200    0.78160    1.000
    C111     C        0.28890    0.33230    0.81590    1.000
    C112     C        0.21480    0.32550    0.81710    1.000
    C113     C        0.17620    0.36420    0.78150    1.000
    C114     C        0.04550    0.50230    0.90180    1.000
    C115     C        0.04700    0.52070    0.95400    1.000
    C116     C        0.06820    0.46890    0.98810    1.000
    C117     C        0.08460    0.40550    0.97300    1.000
    C118     C        0.08210    0.38820    0.91980    1.000
    C119     C        0.06070    0.43610    0.88450    1.000
    C120     C        0.95680    0.51730    0.77450    1.000
    C121     C        0.83150    0.47770    0.82320    1.000
    C122     C        0.75890    0.48080    0.82390    1.000
    C123     C        0.71930    0.42940    0.84740    1.000
    C124     C        0.75180    0.37510    0.87150    1.000
    C125     C        0.82390    0.37040    0.87280    1.000
    C126     C        0.86480    0.42290    0.84810    1.000
    H61      H        0.80870    0.44260    0.97270    1.000
    H62      H        0.87840    0.38020    0.02950    1.000
    H63      H        0.94230    0.43410    0.09130    1.000
    H64      H        0.95390    0.55860    0.09250    1.000
    H65      H        0.88910    0.62360    0.03100    1.000
    H66      H        0.67380    0.69310    0.90210    1.000
    H67      H        0.59100    0.65340    0.83800    1.000
    H68      H        0.62350    0.65020    0.75190    1.000
    H69      H        0.73200    0.68010    0.72530    1.000
    H70      H        0.81650    0.71650    0.78490    1.000
    H71      H        0.67110    0.83440    0.90140    1.000
    H72      H        0.58010    0.90070    0.86120    1.000
    H73      H        0.58950    0.02460    0.86090    1.000
    H74      H        0.68090    0.07990    0.90400    1.000
    H75      H        0.77100    0.01470    0.94340    1.000
    H76      H        0.30720    0.44120    0.72290    1.000
    H77      H        0.36920    0.37290    0.78100    1.000
    H78      H        0.31690    0.30750    0.83990    1.000
    H79      H        0.19160    0.29580    0.84170    1.000
    H80      H        0.12620    0.36140    0.78120    1.000
    H81      H        0.03360    0.56660    0.96540    1.000
    H82      H        0.07230    0.48080    0.02410    1.000
    H83      H        0.09780    0.37110    0.99780    1.000
    H84      H        0.09430    0.34210    0.90850    1.000
    H85      H        0.05550    0.42370    0.84820    1.000
    H86      H        0.73520    0.52030    0.80740    1.000
    H87      H        0.66940    0.43240    0.84640    1.000
    H88      H        0.72470    0.33810    0.88780    1.000
    H89      H        0.84700    0.33150    0.89120    1.000
    H90      H        0.91510    0.42010    0.84790    1.000
    Ag7      Ag       0.39738    0.11526    0.38379    1.000
    Ag8      Ag       0.36523    0.35259    0.36625    1.000
    S19      S        0.29658    0.08470    0.44736    1.000
    S20      S        0.32329    0.22922    0.38979    1.000
    S21      S        0.30014    0.37446    0.45319    1.000
    S22      S        0.66531    0.04644    0.30260    1.000
    S23      S        0.52077    0.07321    0.36030    1.000
    S24      S        0.37550    0.05013    0.29680    1.000
    C127     C        0.26900    0.16470    0.47650    1.000
    C128     C        0.28430    0.22900    0.45240    1.000
    C129     C        0.26750    0.29290    0.47580    1.000
    C130     C        0.34340    0.03960    0.49690    1.000
    C131     C        0.33900    0.96640    0.49650    1.000
    C132     C        0.37870    0.93020    0.53110    1.000
    C133     C        0.41780    0.96180    0.56670    1.000
    C134     C        0.42440    0.03510    0.56800    1.000
    C135     C        0.38520    0.07370    0.53170    1.000
    C136     C        0.25190    0.20440    0.34840    1.000
    C137     C        0.18640    0.18860    0.36570    1.000
    C138     C        0.13690    0.16670    0.32820    1.000
    C139     C        0.15670    0.16470    0.27700    1.000
    C140     C        0.22030    0.18260    0.26130    1.000
    C141     C        0.27080    0.20340    0.29590    1.000
    C142     C        0.22710    0.41850    0.42620    1.000
    C143     C        0.17260    0.38500    0.40160    1.000
    C144     C        0.11980    0.42480    0.37810    1.000
    C145     C        0.12560    0.49790    0.37840    1.000
    C146     C        0.17950    0.52970    0.40300    1.000
    C147     C        0.23150    0.49140    0.42670    1.000
    C148     C        0.58500    0.01870    0.27370    1.000
    C149     C        0.52140    0.03450    0.29720    1.000
    C150     C        0.71070    0.90610    0.24670    1.000
    C151     C        0.78330    0.91070    0.24670    1.000
    C152     C        0.81960    0.87200    0.28160    1.000
    C153     C        0.78890    0.83230    0.31590    1.000
    C154     C        0.71480    0.82550    0.31710    1.000
    C155     C        0.67620    0.86420    0.28150    1.000
    C156     C        0.54550    0.00230    0.40180    1.000
    C157     C        0.54700    0.02070    0.45400    1.000
    C158     C        0.56820    0.96890    0.48810    1.000
    C159     C        0.58460    0.90550    0.47300    1.000
    C160     C        0.58210    0.88820    0.41980    1.000
    C161     C        0.56070    0.93610    0.38450    1.000
    C162     C        0.45680    0.01730    0.27450    1.000
    C163     C        0.33150    0.97770    0.32320    1.000
    C164     C        0.25890    0.98080    0.32390    1.000
    C165     C        0.21930    0.92940    0.34740    1.000
    C166     C        0.25180    0.87510    0.37150    1.000
    C167     C        0.32390    0.87040    0.37280    1.000
    C168     C        0.36480    0.92290    0.34810    1.000
    H91      H        0.30870    0.94260    0.47270    1.000
    H92      H        0.37840    0.88020    0.52950    1.000
    H93      H        0.44230    0.93410    0.59130    1.000
    H94      H        0.45390    0.05860    0.59250    1.000
    H95      H        0.38910    0.12360    0.53100    1.000
    H96      H        0.17380    0.19310    0.40210    1.000
    H97      H        0.09100    0.15340    0.33800    1.000
    H98      H        0.12350    0.15020    0.25190    1.000
    H99      H        0.23200    0.18010    0.22530    1.000
    H100     H        0.31650    0.21650    0.28490    1.000
    H101     H        0.17110    0.33440    0.40140    1.000
    H102     H        0.08010    0.40070    0.36120    1.000
    H103     H        0.08950    0.52460    0.36090    1.000
    H104     H        0.18090    0.57990    0.40400    1.000
    H105     H        0.27100    0.51470    0.44340    1.000
    H106     H        0.80720    0.94120    0.22290    1.000
    H107     H        0.86920    0.87290    0.28100    1.000
    H108     H        0.81690    0.80750    0.33990    1.000
    H109     H        0.69160    0.79580    0.34170    1.000
    H110     H        0.62620    0.86140    0.28120    1.000
    H111     H        0.53360    0.06660    0.46540    1.000
    H112     H        0.57230    0.98080    0.52410    1.000
    H113     H        0.59780    0.87110    0.49780    1.000
    H114     H        0.59430    0.84210    0.40850    1.000
    H115     H        0.55550    0.92370    0.34820    1.000
    H116     H        0.23520    0.02030    0.30740    1.000
    H117     H        0.16940    0.93240    0.34640    1.000
    H118     H        0.22470    0.83810    0.38780    1.000
    H119     H        0.34700    0.83150    0.39120    1.000
    H120     H        0.41510    0.92010    0.34790    1.000
    Ag9      Ag       0.39738    0.88474    0.11621    1.000
    Ag10     Ag       0.36523    0.64741    0.13375    1.000
    S25      S        0.29658    0.91530    0.05264    1.000
    S26      S        0.32329    0.77078    0.11021    1.000
    S27      S        0.30014    0.62554    0.04681    1.000
    S28      S        0.66531    0.95356    0.19740    1.000
    S29      S        0.52077    0.92679    0.13970    1.000
    S30      S        0.37550    0.94987    0.20320    1.000
    C169     C        0.26900    0.83530    0.02350    1.000
    C170     C        0.28430    0.77100    0.04760    1.000
    C171     C        0.26750    0.70710    0.02420    1.000
    C172     C        0.34340    0.96040    0.00310    1.000
    C173     C        0.33900    0.03360    0.00350    1.000
    C174     C        0.37870    0.06980    0.96890    1.000
    C175     C        0.41780    0.03820    0.93330    1.000
    C176     C        0.42440    0.96490    0.93200    1.000
    C177     C        0.38520    0.92630    0.96830    1.000
    C178     C        0.25190    0.79560    0.15160    1.000
    C179     C        0.18640    0.81140    0.13430    1.000
    C180     C        0.13690    0.83330    0.17180    1.000
    C181     C        0.15670    0.83530    0.22300    1.000
    C182     C        0.22030    0.81740    0.23870    1.000
    C183     C        0.27080    0.79660    0.20410    1.000
    C184     C        0.22710    0.58150    0.07380    1.000
    C185     C        0.17260    0.61500    0.09840    1.000
    C186     C        0.11980    0.57520    0.12190    1.000
    C187     C        0.12560    0.50210    0.12160    1.000
    C188     C        0.17950    0.47030    0.09700    1.000
    C189     C        0.23150    0.50860    0.07330    1.000
    C190     C        0.58500    0.98130    0.22630    1.000
    C191     C        0.52140    0.96550    0.20280    1.000
    C192     C        0.71070    0.09390    0.25330    1.000
    C193     C        0.78330    0.08930    0.25330    1.000
    C194     C        0.81960    0.12800    0.21840    1.000
    C195     C        0.78890    0.16770    0.18410    1.000
    C196     C        0.71480    0.17450    0.18290    1.000
    C197     C        0.67620    0.13580    0.21850    1.000
    C198     C        0.54550    0.99770    0.09820    1.000
    C199     C        0.54700    0.97930    0.04600    1.000
    C200     C        0.56820    0.03110    0.01190    1.000
    C201     C        0.58460    0.09450    0.02700    1.000
    C202     C        0.58210    0.11180    0.08020    1.000
    C203     C        0.56070    0.06390    0.11550    1.000
    C204     C        0.45680    0.98270    0.22550    1.000
    C205     C        0.33150    0.02230    0.17680    1.000
    C206     C        0.25890    0.01920    0.17610    1.000
    C207     C        0.21930    0.07060    0.15260    1.000
    C208     C        0.25180    0.12490    0.12850    1.000
    C209     C        0.32390    0.12960    0.12720    1.000
    C210     C        0.36480    0.07710    0.15190    1.000
    H121     H        0.30870    0.05740    0.02730    1.000
    H122     H        0.37840    0.11980    0.97050    1.000
    H123     H        0.44230    0.06590    0.90870    1.000
    H124     H        0.45390    0.94140    0.90750    1.000
    H125     H        0.38910    0.87640    0.96900    1.000
    H126     H        0.17380    0.80690    0.09790    1.000
    H127     H        0.09100    0.84660    0.16200    1.000
    H128     H        0.12350    0.84980    0.24810    1.000
    H129     H        0.23200    0.81990    0.27470    1.000
    H130     H        0.31650    0.78350    0.21510    1.000
    H131     H        0.17110    0.66560    0.09860    1.000
    H132     H        0.08010    0.59930    0.13880    1.000
    H133     H        0.08950    0.47540    0.13910    1.000
    H134     H        0.18090    0.42010    0.09600    1.000
    H135     H        0.27100    0.48530    0.05660    1.000
    H136     H        0.80720    0.05880    0.27710    1.000
    H137     H        0.86920    0.12710    0.21900    1.000
    H138     H        0.81690    0.19250    0.16010    1.000
    H139     H        0.69160    0.20420    0.15830    1.000
    H140     H        0.62620    0.13860    0.21880    1.000
    H141     H        0.53360    0.93340    0.03460    1.000
    H142     H        0.57230    0.01920    0.97590    1.000
    H143     H        0.59780    0.12890    0.00220    1.000
    H144     H        0.59430    0.15790    0.09150    1.000
    H145     H        0.55550    0.07630    0.15180    1.000
    H146     H        0.23520    0.97970    0.19260    1.000
    H147     H        0.16940    0.06760    0.15360    1.000
    H148     H        0.22470    0.16190    0.11220    1.000
    H149     H        0.34700    0.16850    0.10880    1.000
    H150     H        0.41510    0.07990    0.15210    1.000
    Ag11     Ag       0.89738    0.38474    0.61621    1.000
    Ag12     Ag       0.86523    0.14741    0.63375    1.000
    S31      S        0.79658    0.41530    0.55264    1.000
    S32      S        0.82329    0.27078    0.61021    1.000
    S33      S        0.80014    0.12554    0.54681    1.000
    S34      S        0.16531    0.45356    0.69740    1.000
    S35      S        0.02077    0.42679    0.63970    1.000
    S36      S        0.87550    0.44987    0.70320    1.000
    C211     C        0.76900    0.33530    0.52350    1.000
    C212     C        0.78430    0.27100    0.54760    1.000
    C213     C        0.76750    0.20710    0.52420    1.000
    C214     C        0.84340    0.46040    0.50310    1.000
    C215     C        0.83900    0.53360    0.50350    1.000
    C216     C        0.87870    0.56980    0.46890    1.000
    C217     C        0.91780    0.53820    0.43330    1.000
    C218     C        0.92440    0.46490    0.43200    1.000
    C219     C        0.88520    0.42630    0.46830    1.000
    C220     C        0.75190    0.29560    0.65160    1.000
    C221     C        0.68640    0.31140    0.63430    1.000
    C222     C        0.63690    0.33330    0.67180    1.000
    C223     C        0.65670    0.33530    0.72300    1.000
    C224     C        0.72030    0.31740    0.73870    1.000
    C225     C        0.77080    0.29660    0.70410    1.000
    C226     C        0.72710    0.08150    0.57380    1.000
    C227     C        0.67260    0.11500    0.59840    1.000
    C228     C        0.61980    0.07520    0.62190    1.000
    C229     C        0.62560    0.00210    0.62160    1.000
    C230     C        0.67950    0.97030    0.59700    1.000
    C231     C        0.73150    0.00860    0.57330    1.000
    C232     C        0.08500    0.48130    0.72630    1.000
    C233     C        0.02140    0.46550    0.70280    1.000
    C234     C        0.21070    0.59390    0.75330    1.000
    C235     C        0.28330    0.58930    0.75330    1.000
    C236     C        0.31960    0.62800    0.71840    1.000
    C237     C        0.28890    0.66770    0.68410    1.000
    C238     C        0.21480    0.67450    0.68290    1.000
    C239     C        0.17620    0.63580    0.71850    1.000
    C240     C        0.04550    0.49770    0.59820    1.000
    C241     C        0.04700    0.47930    0.54600    1.000
    C242     C        0.06820    0.53110    0.51190    1.000
    C243     C        0.08460    0.59450    0.52700    1.000
    C244     C        0.08210    0.61180    0.58020    1.000
    C245     C        0.06070    0.56390    0.61550    1.000
    C246     C        0.95680    0.48270    0.72550    1.000
    C247     C        0.83150    0.52230    0.67680    1.000
    C248     C        0.75890    0.51920    0.67610    1.000
    C249     C        0.71930    0.57060    0.65260    1.000
    C250     C        0.75180    0.62490    0.62850    1.000
    C251     C        0.82390    0.62960    0.62720    1.000
    C252     C        0.86480    0.57710    0.65190    1.000
    H151     H        0.80870    0.55740    0.52730    1.000
    H152     H        0.87840    0.61980    0.47050    1.000
    H153     H        0.94230    0.56590    0.40870    1.000
    H154     H        0.95390    0.44140    0.40750    1.000
    H155     H        0.88910    0.37640    0.46900    1.000
    H156     H        0.67380    0.30690    0.59790    1.000
    H157     H        0.59100    0.34660    0.66200    1.000
    H158     H        0.62350    0.34980    0.74810    1.000
    H159     H        0.73200    0.31990    0.77470    1.000
    H160     H        0.81650    0.28350    0.71510    1.000
    H161     H        0.67110    0.16560    0.59860    1.000
    H162     H        0.58010    0.09930    0.63880    1.000
    H163     H        0.58950    0.97540    0.63910    1.000
    H164     H        0.68090    0.92010    0.59600    1.000
    H165     H        0.77100    0.98530    0.55660    1.000
    H166     H        0.30720    0.55880    0.77710    1.000
    H167     H        0.36920    0.62710    0.71900    1.000
    H168     H        0.31690    0.69250    0.66010    1.000
    H169     H        0.19160    0.70420    0.65830    1.000
    H170     H        0.12620    0.63860    0.71880    1.000
    H171     H        0.03360    0.43340    0.53460    1.000
    H172     H        0.07230    0.51920    0.47590    1.000
    H173     H        0.09780    0.62890    0.50220    1.000
    H174     H        0.09430    0.65790    0.59150    1.000
    H175     H        0.05550    0.57630    0.65180    1.000
    H176     H        0.73520    0.47970    0.69260    1.000
    H177     H        0.66940    0.56760    0.65360    1.000
    H178     H        0.72470    0.66190    0.61220    1.000
    H179     H        0.84700    0.66850    0.60880    1.000
    H180     H        0.91510    0.57990    0.65210    1.000
    Ag13     Ag       0.10262    0.11526    0.61621    1.000
    Ag14     Ag       0.13477    0.35259    0.63375    1.000
    S37      S        0.20342    0.08470    0.55264    1.000
    S38      S        0.17671    0.22922    0.61021    1.000
    S39      S        0.19986    0.37446    0.54681    1.000
    S40      S        0.83469    0.04644    0.69740    1.000
    S41      S        0.97923    0.07321    0.63970    1.000
    S42      S        0.12450    0.05013    0.70320    1.000
    C253     C        0.23100    0.16470    0.52350    1.000
    C254     C        0.21570    0.22900    0.54760    1.000
    C255     C        0.23250    0.29290    0.52420    1.000
    C256     C        0.15660    0.03960    0.50310    1.000
    C257     C        0.16100    0.96640    0.50350    1.000
    C258     C        0.12130    0.93020    0.46890    1.000
    C259     C        0.08220    0.96180    0.43330    1.000
    C260     C        0.07560    0.03510    0.43200    1.000
    C261     C        0.11480    0.07370    0.46830    1.000
    C262     C        0.24810    0.20440    0.65160    1.000
    C263     C        0.31360    0.18860    0.63430    1.000
    C264     C        0.36310    0.16670    0.67180    1.000
    C265     C        0.34330    0.16470    0.72300    1.000
    C266     C        0.27970    0.18260    0.73870    1.000
    C267     C        0.22920    0.20340    0.70410    1.000
    C268     C        0.27290    0.41850    0.57380    1.000
    C269     C        0.32740    0.38500    0.59840    1.000
    C270     C        0.38020    0.42480    0.62190    1.000
    C271     C        0.37440    0.49790    0.62160    1.000
    C272     C        0.32050    0.52970    0.59700    1.000
    C273     C        0.26850    0.49140    0.57330    1.000
    C274     C        0.91500    0.01870    0.72630    1.000
    C275     C        0.97860    0.03450    0.70280    1.000
    C276     C        0.78930    0.90610    0.75330    1.000
    C277     C        0.71670    0.91070    0.75330    1.000
    C278     C        0.68040    0.87200    0.71840    1.000
    C279     C        0.71110    0.83230    0.68410    1.000
    C280     C        0.78520    0.82550    0.68290    1.000
    C281     C        0.82380    0.86420    0.71850    1.000
    C282     C        0.95450    0.00230    0.59820    1.000
    C283     C        0.95300    0.02070    0.54600    1.000
    C284     C        0.93180    0.96890    0.51190    1.000
    C285     C        0.91540    0.90550    0.52700    1.000
    C286     C        0.91790    0.88820    0.58020    1.000
    C287     C        0.93930    0.93610    0.61550    1.000
    C288     C        0.04320    0.01730    0.72550    1.000
    C289     C        0.16850    0.97770    0.67680    1.000
    C290     C        0.24110    0.98080    0.67610    1.000
    C291     C        0.28070    0.92940    0.65260    1.000
    C292     C        0.24820    0.87510    0.62850    1.000
    C293     C        0.17610    0.87040    0.62720    1.000
    C294     C        0.13520    0.92290    0.65190    1.000
    H181     H        0.19130    0.94260    0.52730    1.000
    H182     H        0.12160    0.88020    0.47050    1.000
    H183     H        0.05770    0.93410    0.40870    1.000
    H184     H        0.04610    0.05860    0.40750    1.000
    H185     H        0.11090    0.12360    0.46900    1.000
    H186     H        0.32620    0.19310    0.59790    1.000
    H187     H        0.40900    0.15340    0.66200    1.000
    H188     H        0.37650    0.15020    0.74810    1.000
    H189     H        0.26800    0.18010    0.77470    1.000
    H190     H        0.18350    0.21650    0.71510    1.000
    H191     H        0.32890    0.33440    0.59860    1.000
    H192     H        0.41990    0.40070    0.63880    1.000
    H193     H        0.41050    0.52460    0.63910    1.000
    H194     H        0.31910    0.57990    0.59600    1.000
    H195     H        0.22900    0.51470    0.55660    1.000
    H196     H        0.69280    0.94120    0.77710    1.000
    H197     H        0.63080    0.87290    0.71900    1.000
    H198     H        0.68310    0.80750    0.66010    1.000
    H199     H        0.80840    0.79580    0.65830    1.000
    H200     H        0.87380    0.86140    0.71880    1.000
    H201     H        0.96640    0.06660    0.53460    1.000
    H202     H        0.92770    0.98080    0.47590    1.000
    H203     H        0.90220    0.87110    0.50220    1.000
    H204     H        0.90570    0.84210    0.59150    1.000
    H205     H        0.94450    0.92370    0.65180    1.000
    H206     H        0.26480    0.02030    0.69260    1.000
    H207     H        0.33060    0.93240    0.65360    1.000
    H208     H        0.27530    0.83810    0.61220    1.000
    H209     H        0.15300    0.83150    0.60880    1.000
    H210     H        0.08490    0.92010    0.65210    1.000
    Ag15     Ag       0.60262    0.61526    0.11621    1.000
    Ag16     Ag       0.63477    0.85259    0.13375    1.000
    S43      S        0.70342    0.58470    0.05264    1.000
    S44      S        0.67671    0.72922    0.11021    1.000
    S45      S        0.69986    0.87446    0.04681    1.000
    S46      S        0.33469    0.54644    0.19740    1.000
    S47      S        0.47923    0.57321    0.13970    1.000
    S48      S        0.62450    0.55013    0.20320    1.000
    C295     C        0.73100    0.66470    0.02350    1.000
    C296     C        0.71570    0.72900    0.04760    1.000
    C297     C        0.73250    0.79290    0.02420    1.000
    C298     C        0.65660    0.53960    0.00310    1.000
    C299     C        0.66100    0.46640    0.00350    1.000
    C300     C        0.62130    0.43020    0.96890    1.000
    C301     C        0.58220    0.46180    0.93330    1.000
    C302     C        0.57560    0.53510    0.93200    1.000
    C303     C        0.61480    0.57370    0.96830    1.000
    C304     C        0.74810    0.70440    0.15160    1.000
    C305     C        0.81360    0.68860    0.13430    1.000
    C306     C        0.86310    0.66670    0.17180    1.000
    C307     C        0.84330    0.66470    0.22300    1.000
    C308     C        0.77970    0.68260    0.23870    1.000
    C309     C        0.72920    0.70340    0.20410    1.000
    C310     C        0.77290    0.91850    0.07380    1.000
    C311     C        0.82740    0.88500    0.09840    1.000
    C312     C        0.88020    0.92480    0.12190    1.000
    C313     C        0.87440    0.99790    0.12160    1.000
    C314     C        0.82050    0.02970    0.09700    1.000
    C315     C        0.76850    0.99140    0.07330    1.000
    C316     C        0.41500    0.51870    0.22630    1.000
    C317     C        0.47860    0.53450    0.20280    1.000
    C318     C        0.28930    0.40610    0.25330    1.000
    C319     C        0.21670    0.41070    0.25330    1.000
    C320     C        0.18040    0.37200    0.21840    1.000
    C321     C        0.21110    0.33230    0.18410    1.000
    C322     C        0.28520    0.32550    0.18290    1.000
    C323     C        0.32380    0.36420    0.21850    1.000
    C324     C        0.45450    0.50230    0.09820    1.000
    C325     C        0.45300    0.52070    0.04600    1.000
    C326     C        0.43180    0.46890    0.01190    1.000
    C327     C        0.41540    0.40550    0.02700    1.000
    C328     C        0.41790    0.38820    0.08020    1.000
    C329     C        0.43930    0.43610    0.11550    1.000
    C330     C        0.54320    0.51730    0.22550    1.000
    C331     C        0.66850    0.47770    0.17680    1.000
    C332     C        0.74110    0.48080    0.17610    1.000
    C333     C        0.78070    0.42940    0.15260    1.000
    C334     C        0.74820    0.37510    0.12850    1.000
    C335     C        0.67610    0.37040    0.12720    1.000
    C336     C        0.63520    0.42290    0.15190    1.000
    H211     H        0.69130    0.44260    0.02730    1.000
    H212     H        0.62160    0.38020    0.97050    1.000
    H213     H        0.55770    0.43410    0.90870    1.000
    H214     H        0.54610    0.55860    0.90750    1.000
    H215     H        0.61090    0.62360    0.96900    1.000
    H216     H        0.82620    0.69310    0.09790    1.000
    H217     H        0.90900    0.65340    0.16200    1.000
    H218     H        0.87650    0.65020    0.24810    1.000
    H219     H        0.76800    0.68010    0.27470    1.000
    H220     H        0.68350    0.71650    0.21510    1.000
    H221     H        0.82890    0.83440    0.09860    1.000
    H222     H        0.91990    0.90070    0.13880    1.000
    H223     H        0.91050    0.02460    0.13910    1.000
    H224     H        0.81910    0.07990    0.09600    1.000
    H225     H        0.72900    0.01470    0.05660    1.000
    H226     H        0.19280    0.44120    0.27710    1.000
    H227     H        0.13080    0.37290    0.21900    1.000
    H228     H        0.18310    0.30750    0.16010    1.000
    H229     H        0.30840    0.29580    0.15830    1.000
    H230     H        0.37380    0.36140    0.21880    1.000
    H231     H        0.46640    0.56660    0.03460    1.000
    H232     H        0.42770    0.48080    0.97590    1.000
    H233     H        0.40220    0.37110    0.00220    1.000
    H234     H        0.40570    0.34210    0.09150    1.000
    H235     H        0.44450    0.42370    0.15180    1.000
    H236     H        0.76480    0.52030    0.19260    1.000
    H237     H        0.83060    0.43240    0.15360    1.000
    H238     H        0.77530    0.33810    0.11220    1.000
    H239     H        0.65300    0.33150    0.10880    1.000
    H240     H        0.58490    0.42010    0.15210    1.000
