data_functionalizedCrystal
_audit_creation_method	'EQeq! by Chris Wilmer'
_symmetry_space_group_name_H-M	'P1'
_symmetry_Int_Tables_number	1
_symmetry_cell_setting	triclinic
loop_
_symmetry_equiv_pos_as_xyz
  x,y,z
_cell_length_a	12.78
_cell_length_b	10.494
_cell_length_c	15.87
_cell_angle_alpha	90
_cell_angle_beta	109.31
_cell_angle_gamma	90
loop_
_atom_site_label
_atom_site_type_symbol
_atom_site_fract_x
_atom_site_fract_y
_atom_site_fract_z
_atom_site_charge
Mof_Cd	Cd	0.6388	0.53251	0.88754	0.427
Mof_N 	N 	0.7363	0.4321	0.0313	-0.129
Mof_N 	N 	0.815	0.4697	0.8936	-0.148
Mof_N 	N 	0.9686	0.3528	0.9509	-0.112
Mof_C 	C 	0.567	0.4582	0.6921	0.296
Mof_C 	C 	0.5286	0.4777	0.5923	-0.038
Mof_C 	C 	0.5621	0.588	0.5591	-0.015
Mof_H 	H 	0.6033	0.648	0.5996	0.054
Mof_C 	C 	0.4631	0.3877	0.5313	-0.04
Mof_C 	C 	0.4195	0.2668	0.5596	0.302
Mof_C 	C 	0.0823	0.9156	0.0421	-0.064
Mof_H 	H 	0.1385	0.8586	0.0708	0.068
Mof_C 	C 	0.1058	0.0436	0.0438	-0.085
Mof_H 	H 	0.1775	0.072	0.0735	0.076
Mof_C 	C 	0.024	0.1302	0.0019	0.063
Mof_C 	C 	0.0521	0.2702	0.0097	-0.126
Mof_H 	H 	0.0647	0.2966	0.0708	0.077
Mof_H 	H 	0.121	0.2822	0.9975	0.08
Mof_C 	C 	0.9719	0.4008	0.8703	0.049
Mof_C 	C 	0.0494	0.3878	0.8267	-0.075
Mof_H 	H 	0.1124	0.3375	0.8497	0.063
Mof_C 	C 	0.028	0.4531	0.748	-0.035
Mof_H 	H 	0.0783	0.4477	0.7172	0.048
Mof_C 	C 	0.9327	0.5276	0.7126	-0.01
Mof_H 	H 	0.9208	0.5699	0.6587	0.039
Mof_C 	C 	0.8562	0.5395	0.7562	-0.104
Mof_H 	H 	0.7932	0.5896	0.7327	0.079
Mof_C 	C 	0.8755	0.475	0.8355	0.074
Mof_C 	C 	0.8736	0.3957	0.9616	0.084
Mof_C 	C 	0.8319	0.3692	0.0351	0.057
Mof_C 	C 	0.8713	0.2875	0.1053	-0.101
Mof_H 	H 	0.9354	0.2388	0.1171	0.072
Mof_C 	C 	0.7047	0.3965	0.0978	0.008
Mof_H 	H 	0.6411	0.4289	0.1062	0.057
Mof_O 	O 	0.5787	0.5555	0.7402	-0.271
Mof_O 	O 	0.5873	0.347	0.7193	-0.238
Mof_O 	O 	0.4495	0.163	0.5352	-0.268
Mof_O 	O 	0.3519	0.2688	0.6001	-0.264
Mof_S 	S 	0.7868	0.2874	0.16827	0.044
Mof_Cd	Cd	0.3612	0.03251	0.61246	0.428
Mof_N 	N 	0.2637	0.9321	0.4687	-0.128
Mof_N 	N 	0.185	0.9697	0.6064	-0.147
Mof_N 	N 	0.0314	0.8528	0.5491	-0.111
Mof_C 	C 	0.433	0.9582	0.8079	0.297
Mof_C 	C 	0.4714	0.9777	0.9077	-0.037
Mof_C 	C 	0.4379	0.088	0.9409	-0.014
Mof_H 	H 	0.3967	0.148	0.9004	0.055
Mof_C 	C 	0.5369	0.8877	0.9687	-0.04
Mof_C 	C 	0.5805	0.7668	0.9404	0.302
Mof_C 	C 	0.9177	0.4156	0.4579	-0.066
Mof_H 	H 	0.8615	0.3586	0.4292	0.068
Mof_C 	C 	0.8942	0.5436	0.4562	-0.084
Mof_H 	H 	0.8225	0.572	0.4265	0.076
Mof_C 	C 	0.976	0.6302	0.4981	0.063
Mof_C 	C 	0.9479	0.7702	0.4903	-0.127
Mof_H 	H 	0.9353	0.7966	0.4292	0.078
Mof_H 	H 	0.879	0.7822	0.5025	0.081
Mof_C 	C 	0.0281	0.9008	0.6297	0.048
Mof_C 	C 	0.9506	0.8878	0.6733	-0.075
Mof_H 	H 	0.8876	0.8375	0.6503	0.063
Mof_C 	C 	0.972	0.9531	0.752	-0.034
Mof_H 	H 	0.9217	0.9477	0.7828	0.047
Mof_C 	C 	0.0673	0.0276	0.7874	-0.011
Mof_H 	H 	0.0792	0.0699	0.8413	0.039
Mof_C 	C 	0.1438	0.0395	0.7438	-0.104
Mof_H 	H 	0.2068	0.0896	0.7673	0.079
Mof_C 	C 	0.1245	0.975	0.6645	0.075
Mof_C 	C 	0.1264	0.8957	0.5384	0.083
Mof_C 	C 	0.1681	0.8692	0.4649	0.058
Mof_C 	C 	0.1287	0.7875	0.3947	-0.101
Mof_H 	H 	0.0646	0.7388	0.3829	0.073
Mof_C 	C 	0.2953	0.8965	0.4022	0.008
Mof_H 	H 	0.3589	0.9289	0.3938	0.057
Mof_O 	O 	0.4213	0.0555	0.7598	-0.271
Mof_O 	O 	0.4127	0.847	0.7807	-0.238
Mof_O 	O 	0.5505	0.663	0.9648	-0.268
Mof_O 	O 	0.6481	0.7688	0.8999	-0.264
Mof_S 	S 	0.2132	0.7874	0.33173	0.044
Mof_Cd	Cd	0.3612	0.46749	0.11246	0.428
Mof_N 	N 	0.2637	0.5679	0.9687	-0.128
Mof_N 	N 	0.185	0.5303	0.1064	-0.147
Mof_N 	N 	0.0314	0.6472	0.0491	-0.111
Mof_C 	C 	0.433	0.5418	0.3079	0.297
Mof_C 	C 	0.4714	0.5223	0.4077	-0.037
Mof_C 	C 	0.4379	0.412	0.4409	-0.014
Mof_H 	H 	0.3967	0.352	0.4004	0.055
Mof_C 	C 	0.5369	0.6123	0.4687	-0.04
Mof_C 	C 	0.5805	0.7332	0.4404	0.302
Mof_C 	C 	0.9177	0.0844	0.9579	-0.064
Mof_H 	H 	0.8615	0.1414	0.9292	0.068
Mof_C 	C 	0.8942	0.9564	0.9562	-0.085
Mof_H 	H 	0.8225	0.928	0.9265	0.076
Mof_C 	C 	0.976	0.8698	0.9981	0.063
Mof_C 	C 	0.9479	0.7298	0.9903	-0.126
Mof_H 	H 	0.9353	0.7034	0.9292	0.077
Mof_H 	H 	0.879	0.7178	0.0025	0.08
Mof_C 	C 	0.0281	0.5992	0.1297	0.049
Mof_C 	C 	0.9506	0.6122	0.1733	-0.075
Mof_H 	H 	0.8876	0.6625	0.1503	0.063
Mof_C 	C 	0.972	0.5469	0.252	-0.035
Mof_H 	H 	0.9217	0.5523	0.2828	0.048
Mof_C 	C 	0.0673	0.4724	0.2874	-0.01
Mof_H 	H 	0.0792	0.4301	0.3413	0.039
Mof_C 	C 	0.1438	0.4605	0.2438	-0.104
Mof_H 	H 	0.2068	0.4104	0.2673	0.079
Mof_C 	C 	0.1245	0.525	0.1645	0.074
Mof_C 	C 	0.1264	0.6043	0.0384	0.084
Mof_C 	C 	0.1681	0.6308	0.9649	0.057
Mof_C 	C 	0.1287	0.7125	0.8947	-0.101
Mof_H 	H 	0.0646	0.7612	0.8829	0.072
Mof_C 	C 	0.2953	0.6035	0.9022	0.008
Mof_H 	H 	0.3589	0.5711	0.8938	0.057
Mof_O 	O 	0.4213	0.4445	0.2598	-0.271
Mof_O 	O 	0.4127	0.653	0.2807	-0.238
Mof_O 	O 	0.5505	0.837	0.4648	-0.268
Mof_O 	O 	0.6481	0.7312	0.3999	-0.264
Mof_S 	S 	0.2132	0.7126	0.83173	0.044
Mof_Cd	Cd	0.6388	0.96749	0.38754	0.428
Mof_N 	N 	0.7363	0.0679	0.5313	-0.128
Mof_N 	N 	0.815	0.0303	0.3936	-0.147
Mof_N 	N 	0.9686	0.1472	0.4509	-0.111
Mof_C 	C 	0.567	0.0418	0.1921	0.297
Mof_C 	C 	0.5286	0.0223	0.0923	-0.037
Mof_C 	C 	0.5621	0.912	0.0591	-0.014
Mof_H 	H 	0.6033	0.852	0.0996	0.055
Mof_C 	C 	0.4631	0.1123	0.0313	-0.04
Mof_C 	C 	0.4195	0.2332	0.0596	0.302
Mof_C 	C 	0.0823	0.5844	0.5421	-0.066
Mof_H 	H 	0.1385	0.6414	0.5708	0.068
Mof_C 	C 	0.1058	0.4564	0.5438	-0.084
Mof_H 	H 	0.1775	0.428	0.5735	0.076
Mof_C 	C 	0.024	0.3698	0.5019	0.063
Mof_C 	C 	0.0521	0.2298	0.5097	-0.127
Mof_H 	H 	0.0647	0.2034	0.5708	0.078
Mof_H 	H 	0.121	0.2178	0.4975	0.081
Mof_C 	C 	0.9719	0.0992	0.3703	0.048
Mof_C 	C 	0.0494	0.1122	0.3267	-0.075
Mof_H 	H 	0.1124	0.1625	0.3497	0.063
Mof_C 	C 	0.028	0.0469	0.248	-0.034
Mof_H 	H 	0.0783	0.0523	0.2172	0.047
Mof_C 	C 	0.9327	0.9724	0.2126	-0.011
Mof_H 	H 	0.9208	0.9301	0.1587	0.039
Mof_C 	C 	0.8562	0.9605	0.2562	-0.104
Mof_H 	H 	0.7932	0.9104	0.2327	0.079
Mof_C 	C 	0.8755	0.025	0.3355	0.075
Mof_C 	C 	0.8736	0.1043	0.4616	0.083
Mof_C 	C 	0.8319	0.1308	0.5351	0.058
Mof_C 	C 	0.8713	0.2125	0.6053	-0.101
Mof_H 	H 	0.9354	0.2612	0.6171	0.073
Mof_C 	C 	0.7047	0.1035	0.5978	0.008
Mof_H 	H 	0.6411	0.0711	0.6062	0.057
Mof_O 	O 	0.5787	0.9445	0.2402	-0.271
Mof_O 	O 	0.5873	0.153	0.2193	-0.238
Mof_O 	O 	0.4495	0.337	0.0352	-0.268
Mof_O 	O 	0.3519	0.2312	0.1001	-0.264
Mof_S 	S 	0.7868	0.2126	0.66827	0.044
_end
