# CIF file generated by openbabel 3.1.0, see https://openbabel.org
data_I
_chemical_name_common 'image0'
_cell_length_a 7.4407
_cell_length_b 9.766
_cell_length_c 9.85
_cell_angle_alpha 118.297
_cell_angle_beta 102.247
_cell_angle_gamma 91.434
_space_group_name_H-M_alt 'P 1'
_space_group_name_Hall 'P 1'
loop_
    _symmetry_equiv_pos_as_xyz
    x,y,z
loop_
    _atom_site_label
    _atom_site_type_symbol
    _atom_site_fract_x
    _atom_site_fract_y
    _atom_site_fract_z
    _atom_site_occupancy
    Cd1      Cd       0.73790    0.97328    0.48397    1.000
    O1       O        0.73280    0.87000    0.67180    1.000
    O2       O        0.57060    0.05640    0.67030    1.000
    O3       O        0.02250    0.10600    0.67310    1.000
    O4       O        0.26050    0.27210    0.71350    1.000
    C1       C        0.62740    0.96750    0.72920    1.000
    C2       C        0.56310    0.98460    0.87020    1.000
    C3       C        0.46030    0.10470    0.94350    1.000
    H1       H        0.43450    0.17530    0.90620    1.000
    C4       C        0.39670    0.11900    0.07150    1.000
    H2       H        0.32690    0.19820    0.11850    1.000
    C5       C        0.11500    0.24260    0.74630    1.000
    C6       C        0.05430    0.37400    0.87820    1.000
    C7       C        0.86530    0.38290    0.87200    1.000
    H3       H        0.77550    0.30450    0.78680    1.000
    C8       C        0.18730    0.49150    0.00730    1.000
    H4       H        0.31290    0.48550    0.01230    1.000
    Cd2      Cd       0.26210    0.02672    0.51603    1.000
    O5       O        0.26720    0.13000    0.32820    1.000
    O6       O        0.42940    0.94360    0.32970    1.000
    O7       O        0.97750    0.89400    0.32690    1.000
    O8       O        0.73950    0.72790    0.28650    1.000
    C9       C        0.37260    0.03250    0.27080    1.000
    C10      C        0.43690    0.01540    0.12980    1.000
    C11      C        0.53970    0.89530    0.05650    1.000
    H5       H        0.56550    0.82470    0.09380    1.000
    C12      C        0.60330    0.88100    0.92850    1.000
    H6       H        0.67310    0.80180    0.88150    1.000
    C13      C        0.88500    0.75740    0.25370    1.000
    C14      C        0.94570    0.62600    0.12180    1.000
    C15      C        0.13470    0.61710    0.12800    1.000
    H7       H        0.22450    0.69550    0.21320    1.000
    C16      C        0.81270    0.50850    0.99270    1.000
    H8       H        0.68710    0.51450    0.98770    1.000
