data_functionalizedCrystal
_audit_creation_method	'EQeq! by Chris Wilmer'
_symmetry_space_group_name_H-M	'P1'
_symmetry_Int_Tables_number	1
_symmetry_cell_setting	triclinic
loop_
_symmetry_equiv_pos_as_xyz
  x,y,z
_cell_length_a	18.4732
_cell_length_b	18.4732
_cell_length_c	18.4732
_cell_angle_alpha	60
_cell_angle_beta	60
_cell_angle_gamma	60
loop_
_atom_site_label
_atom_site_type_symbol
_atom_site_fract_x
_atom_site_fract_y
_atom_site_fract_z
_atom_site_charge
Mof_La	La	0.75	0.75	0.25	2.407
Mof_La	La	0.25	0.25	0.25	2.33
Mof_La	La	0.75	0.25	0.25	2.371
Mof_La	La	0.75	0.25	0.75	2.408
Mof_La	La	0.25	0.25	0.75	2.367
Mof_La	La	0.75	0.75	0.75	2.44
Mof_La	La	0.25	0.75	0.75	2.404
Mof_La	La	0.25	0.75	0.25	2.368
Mof_Mg	Mg	-0	0	-0	1.422
Mof_Mg	Mg	0.5	0.5	-0	1.463
Mof_Mg	Mg	0.5	0	0.5	1.463
Mof_Mg	Mg	0.5	0	-0	1.443
Mof_Mg	Mg	-0	0	0.5	1.442
Mof_Mg	Mg	0.5	0.5	0.5	1.483
Mof_Mg	Mg	-0	0.5	-0	1.442
Mof_Mg	Mg	-0	0.5	0.5	1.462
Mof_H 	H 	0.9932	0.7794	0.1542	0.186
Mof_H 	H 	0.9325	0.8459	0.2077	0.204
Mof_H 	H 	0.2794	0.4932	0.0732	0.038
Mof_H 	H 	0.3459	0.4325	0.0139	0.013
Mof_H 	H 	0.6542	0.0732	0.4932	0.05
Mof_H 	H 	0.7077	0.0139	0.4325	0.025
Mof_H 	H 	0.5732	0.1542	0.7794	0.084
Mof_H 	H 	0.5139	0.2077	0.8459	0.134
Mof_H 	H 	0.9932	0.1542	0.0732	0.123
Mof_H 	H 	0.9325	0.2077	0.0139	0.088
Mof_H 	H 	0.2794	0.0732	0.1542	0.005
Mof_H 	H 	0.3459	0.0139	0.2077	0.011
Mof_H 	H 	0.6542	0.4932	0.7794	0.113
Mof_H 	H 	0.7077	0.4325	0.8459	0.141
Mof_H 	H 	0.5732	0.7794	0.4932	0.112
Mof_H 	H 	0.5139	0.8459	0.4325	0.134
Mof_H 	H 	0.9932	0.0732	0.7794	0.15
Mof_H 	H 	0.9325	0.0139	0.8459	0.111
Mof_H 	H 	0.2794	0.1542	0.4932	0.075
Mof_H 	H 	0.3459	0.2077	0.4325	0.109
Mof_H 	H 	0.6542	0.7794	0.0732	0.05
Mof_H 	H 	0.7077	0.8459	0.0139	0.05
Mof_H 	H 	0.5732	0.4932	0.1542	0.084
Mof_H 	H 	0.5139	0.4325	0.2077	0.11
Mof_H 	H 	0.2206	0.0068	0.3458	0.007
Mof_H 	H 	0.1541	0.0675	0.2923	0.008
Mof_H 	H 	0.5068	0.7206	0.4268	0.119
Mof_H 	H 	0.5675	0.6541	0.4861	0.114
Mof_H 	H 	0.9268	0.3458	0.0068	0.079
Mof_H 	H 	0.9861	0.2923	0.0675	0.137
Mof_H 	H 	0.8458	0.4268	0.7206	0.149
Mof_H 	H 	0.7923	0.4861	0.6541	0.115
Mof_H 	H 	0.8458	0.0068	0.4268	0.043
Mof_H 	H 	0.7923	0.0675	0.4861	0.047
Mof_H 	H 	0.9268	0.7206	0.3458	0.185
Mof_H 	H 	0.9861	0.6541	0.2923	0.206
Mof_H 	H 	0.5068	0.3458	0.7206	0.117
Mof_H 	H 	0.5675	0.2923	0.6541	0.107
Mof_H 	H 	0.2206	0.4268	0.0068	0.009
Mof_H 	H 	0.1541	0.4861	0.0675	0.018
Mof_H 	H 	0.9268	0.0068	0.7206	0.089
Mof_H 	H 	0.9861	0.0675	0.6541	0.145
Mof_H 	H 	0.8458	0.7206	0.0068	0.051
Mof_H 	H 	0.7923	0.6541	0.0675	0.048
Mof_H 	H 	0.2206	0.3458	0.4268	0.111
Mof_H 	H 	0.1541	0.2923	0.4861	0.081
Mof_H 	H 	0.5068	0.4268	0.3458	0.11
Mof_H 	H 	0.5675	0.4861	0.2923	0.106
Mof_H 	H 	0.0068	0.2206	0.8458	0.038
Mof_H 	H 	0.0675	0.1541	0.7923	0.019
Mof_H 	H 	0.7206	0.5068	0.9268	0.183
Mof_H 	H 	0.6541	0.5675	0.9861	0.209
Mof_H 	H 	0.3458	0.9268	0.5068	0.177
Mof_H 	H 	0.2923	0.9861	0.5675	0.203
Mof_H 	H 	0.4268	0.8458	0.2206	0.142
Mof_H 	H 	0.4861	0.7923	0.1541	0.093
Mof_H 	H 	0.0068	0.8458	0.9268	0.103
Mof_H 	H 	0.0675	0.7923	0.9861	0.139
Mof_H 	H 	0.7206	0.9268	0.8458	0.206
Mof_H 	H 	0.6541	0.9861	0.7923	0.205
Mof_H 	H 	0.3458	0.5068	0.2206	0.11
Mof_H 	H 	0.2923	0.5675	0.1541	0.083
Mof_H 	H 	0.4268	0.2206	0.5068	0.112
Mof_H 	H 	0.4861	0.1541	0.5675	0.092
Mof_H 	H 	0.0068	0.9268	0.2206	0.075
Mof_H 	H 	0.0675	0.9861	0.1541	0.117
Mof_H 	H 	0.7206	0.8458	0.5068	0.147
Mof_H 	H 	0.6541	0.7923	0.5675	0.115
Mof_H 	H 	0.3458	0.2206	0.9268	0.178
Mof_H 	H 	0.2923	0.1541	0.9861	0.182
Mof_H 	H 	0.4268	0.5068	0.8458	0.141
Mof_H 	H 	0.4861	0.5675	0.7923	0.114
Mof_H 	H 	0.7794	0.9932	0.6542	0.208
Mof_H 	H 	0.8459	0.9325	0.7077	0.205
Mof_H 	H 	0.4932	0.2794	0.5732	0.105
Mof_H 	H 	0.4325	0.3459	0.5139	0.11
Mof_H 	H 	0.0732	0.6542	0.9932	0.148
Mof_H 	H 	0.0139	0.7077	0.9325	0.092
Mof_H 	H 	0.1542	0.5732	0.2794	0.074
Mof_H 	H 	0.2077	0.5139	0.3459	0.109
Mof_H 	H 	0.1542	0.9932	0.5732	0.185
Mof_H 	H 	0.2077	0.9325	0.5139	0.183
Mof_H 	H 	0.0732	0.2794	0.6542	0.037
Mof_H 	H 	0.0139	0.3459	0.7077	0.02
Mof_H 	H 	0.4932	0.6542	0.2794	0.107
Mof_H 	H 	0.4325	0.7077	0.3459	0.118
Mof_H 	H 	0.7794	0.5732	0.9932	0.208
Mof_H 	H 	0.8459	0.5139	0.9325	0.201
Mof_H 	H 	0.0732	0.9932	0.2794	0.14
Mof_H 	H 	0.0139	0.9325	0.3459	0.083
Mof_H 	H 	0.1542	0.2794	0.9932	0.178
Mof_H 	H 	0.2077	0.3459	0.9325	0.182
Mof_H 	H 	0.7794	0.6542	0.5732	0.113
Mof_H 	H 	0.8459	0.7077	0.5139	0.142
Mof_H 	H 	0.4932	0.5732	0.6542	0.114
Mof_H 	H 	0.4325	0.5139	0.7077	0.119
Mof_C 	C 	0.9321	0.8113	0.1821	-0.334
Mof_C 	C 	0.88711	0.87229	0.11351	0.526
Mof_C 	C 	0.3113	0.4321	0.0745	-0.179
Mof_C 	C 	0.37229	0.38711	0.12709	0.438
Mof_C 	C 	0.6821	0.0745	0.4321	-0.192
Mof_C 	C 	0.61351	0.12709	0.38711	0.447
Mof_C 	C 	0.5745	0.1821	0.8113	-0.258
Mof_C 	C 	0.62709	0.11351	0.87229	0.483
Mof_C 	C 	0.9321	0.1821	0.0745	-0.265
Mof_C 	C 	0.88711	0.11351	0.12709	0.487
Mof_C 	C 	0.3113	0.0745	0.1821	-0.178
Mof_C 	C 	0.37229	0.12709	0.11351	0.437
Mof_C 	C 	0.6821	0.4321	0.8113	-0.261
Mof_C 	C 	0.61351	0.38711	0.87229	0.485
Mof_C 	C 	0.5745	0.8113	0.4321	-0.257
Mof_C 	C 	0.62709	0.87229	0.38711	0.482
Mof_C 	C 	0.9321	0.0745	0.8113	-0.258
Mof_C 	C 	0.88711	0.12709	0.87229	0.484
Mof_C 	C 	0.3113	0.1821	0.4321	-0.258
Mof_C 	C 	0.37229	0.11351	0.38711	0.481
Mof_C 	C 	0.6821	0.8113	0.0745	-0.187
Mof_C 	C 	0.61351	0.87229	0.12709	0.444
Mof_C 	C 	0.5745	0.4321	0.1821	-0.263
Mof_C 	C 	0.62709	0.38711	0.11351	0.486
Mof_C 	C 	0.1887	0.0679	0.3179	-0.179
Mof_C 	C 	0.12771	0.11289	0.38649	0.437
Mof_C 	C 	0.5679	0.6887	0.4255	-0.265
Mof_C 	C 	0.61289	0.62771	0.37291	0.49
Mof_C 	C 	0.9255	0.3179	0.0679	-0.257
Mof_C 	C 	0.87291	0.38649	0.11289	0.481
Mof_C 	C 	0.8179	0.4255	0.6887	-0.262
Mof_C 	C 	0.88649	0.37291	0.62771	0.487
Mof_C 	C 	0.8179	0.0679	0.4255	-0.182
Mof_C 	C 	0.88649	0.11289	0.37291	0.439
Mof_C 	C 	0.9255	0.6887	0.3179	-0.337
Mof_C 	C 	0.87291	0.62771	0.38649	0.528
Mof_C 	C 	0.5679	0.3179	0.6887	-0.26
Mof_C 	C 	0.61289	0.38649	0.62771	0.487
Mof_C 	C 	0.1887	0.4255	0.0679	-0.186
Mof_C 	C 	0.12771	0.37291	0.11289	0.441
Mof_C 	C 	0.9255	0.0679	0.6887	-0.267
Mof_C 	C 	0.87291	0.11289	0.62771	0.488
Mof_C 	C 	0.8179	0.6887	0.0679	-0.187
Mof_C 	C 	0.88649	0.62771	0.11289	0.443
Mof_C 	C 	0.1887	0.3179	0.4255	-0.259
Mof_C 	C 	0.12771	0.38649	0.37291	0.483
Mof_C 	C 	0.5679	0.4255	0.3179	-0.255
Mof_C 	C 	0.61289	0.37291	0.38649	0.483
Mof_C 	C 	0.0679	0.1887	0.8179	-0.18
Mof_C 	C 	0.11289	0.12771	0.88649	0.438
Mof_C 	C 	0.6887	0.5679	0.9255	-0.338
Mof_C 	C 	0.62771	0.61289	0.87291	0.53
Mof_C 	C 	0.3179	0.9255	0.5679	-0.331
Mof_C 	C 	0.38649	0.87291	0.61289	0.525
Mof_C 	C 	0.4255	0.8179	0.1887	-0.261
Mof_C 	C 	0.37291	0.88649	0.12771	0.486
Mof_C 	C 	0.0679	0.8179	0.9255	-0.253
Mof_C 	C 	0.11289	0.88649	0.87291	0.479
Mof_C 	C 	0.6887	0.9255	0.8179	-0.331
Mof_C 	C 	0.62771	0.87291	0.88649	0.525
Mof_C 	C 	0.3179	0.5679	0.1887	-0.257
Mof_C 	C 	0.38649	0.61289	0.12771	0.484
Mof_C 	C 	0.4255	0.1887	0.5679	-0.264
Mof_C 	C 	0.37291	0.12771	0.61289	0.488
Mof_C 	C 	0.0679	0.9255	0.1887	-0.26
Mof_C 	C 	0.11289	0.87291	0.12771	0.482
Mof_C 	C 	0.6887	0.8179	0.5679	-0.261
Mof_C 	C 	0.62771	0.88649	0.61289	0.488
Mof_C 	C 	0.3179	0.1887	0.9255	-0.335
Mof_C 	C 	0.38649	0.12771	0.87291	0.525
Mof_C 	C 	0.4255	0.5679	0.8179	-0.257
Mof_C 	C 	0.37291	0.61289	0.88649	0.485
Mof_C 	C 	0.8113	0.9321	0.6821	-0.33
Mof_C 	C 	0.87229	0.88711	0.61351	0.525
Mof_C 	C 	0.4321	0.3113	0.5745	-0.257
Mof_C 	C 	0.38711	0.37229	0.62709	0.482
Mof_C 	C 	0.0745	0.6821	0.9321	-0.263
Mof_C 	C 	0.12709	0.61351	0.88711	0.489
Mof_C 	C 	0.1821	0.5745	0.3113	-0.257
Mof_C 	C 	0.11351	0.62709	0.37229	0.482
Mof_C 	C 	0.1821	0.9321	0.5745	-0.339
Mof_C 	C 	0.11351	0.88711	0.62709	0.529
Mof_C 	C 	0.0745	0.3113	0.6821	-0.182
Mof_C 	C 	0.12709	0.37229	0.61351	0.442
Mof_C 	C 	0.4321	0.6821	0.3113	-0.262
Mof_C 	C 	0.38711	0.61351	0.37229	0.486
Mof_C 	C 	0.8113	0.5745	0.9321	-0.329
Mof_C 	C 	0.87229	0.62709	0.88711	0.524
Mof_C 	C 	0.0745	0.9321	0.3113	-0.254
Mof_C 	C 	0.12709	0.88711	0.37229	0.483
Mof_C 	C 	0.1821	0.3113	0.9321	-0.335
Mof_C 	C 	0.11351	0.37229	0.88711	0.525
Mof_C 	C 	0.8113	0.6821	0.5745	-0.26
Mof_C 	C 	0.87229	0.61351	0.62709	0.486
Mof_C 	C 	0.4321	0.5745	0.6821	-0.266
Mof_C 	C 	0.38711	0.62709	0.61351	0.489
Mof_O 	O 	0.91895	0.92869	0.04841	-0.429
Mof_O 	O 	0.82048	0.86222	0.12304	-0.479
Mof_O 	O 	0.42869	0.41895	0.10395	-0.527
Mof_O 	O 	0.36222	0.32048	0.19426	-0.481
Mof_O 	O 	0.54841	0.10395	0.41895	-0.528
Mof_O 	O 	0.62304	0.19426	0.32048	-0.485
Mof_O 	O 	0.60395	0.04841	0.92869	-0.492
Mof_O 	O 	0.69426	0.12304	0.86222	-0.483
Mof_O 	O 	0.91895	0.04841	0.10395	-0.557
Mof_O 	O 	0.82048	0.12304	0.19426	-0.516
Mof_O 	O 	0.42869	0.10395	0.04841	-0.631
Mof_O 	O 	0.36222	0.19426	0.12304	-0.518
Mof_O 	O 	0.54841	0.41895	0.92869	-0.397
Mof_O 	O 	0.62304	0.32048	0.86222	-0.449
Mof_O 	O 	0.60395	0.92869	0.41895	-0.396
Mof_O 	O 	0.69426	0.86222	0.32048	-0.447
Mof_O 	O 	0.91895	0.10395	0.92869	-0.366
Mof_O 	O 	0.82048	0.19426	0.86222	-0.438
Mof_O 	O 	0.42869	0.04841	0.41895	-0.592
Mof_O 	O 	0.36222	0.12304	0.32048	-0.524
Mof_O 	O 	0.54841	0.92869	0.10395	-0.431
Mof_O 	O 	0.62304	0.86222	0.19426	-0.443
Mof_O 	O 	0.60395	0.41895	0.04841	-0.589
Mof_O 	O 	0.69426	0.32048	0.12304	-0.525
Mof_O 	O 	0.07131	0.08105	0.45159	-0.634
Mof_O 	O 	0.13778	0.17952	0.37696	-0.522
Mof_O 	O 	0.58105	0.57131	0.39605	-0.485
Mof_O 	O 	0.67952	0.63778	0.30574	-0.481
Mof_O 	O 	0.89605	0.45159	0.08105	-0.494
Mof_O 	O 	0.80574	0.37696	0.17952	-0.485
Mof_O 	O 	0.95159	0.39605	0.57131	-0.372
Mof_O 	O 	0.87696	0.30574	0.63778	-0.441
Mof_O 	O 	0.95159	0.08105	0.39605	-0.429
Mof_O 	O 	0.87696	0.17952	0.30574	-0.442
Mof_O 	O 	0.89605	0.57131	0.45159	-0.438
Mof_O 	O 	0.80574	0.63778	0.37696	-0.484
Mof_O 	O 	0.58105	0.45159	0.57131	-0.483
Mof_O 	O 	0.67952	0.37696	0.63778	-0.479
Mof_O 	O 	0.07131	0.39605	0.08105	-0.638
Mof_O 	O 	0.13778	0.30574	0.17952	-0.526
Mof_O 	O 	0.89605	0.08105	0.57131	-0.495
Mof_O 	O 	0.80574	0.17952	0.63778	-0.489
Mof_O 	O 	0.95159	0.57131	0.08105	-0.428
Mof_O 	O 	0.87696	0.63778	0.17952	-0.444
Mof_O 	O 	0.07131	0.45159	0.39605	-0.574
Mof_O 	O 	0.13778	0.37696	0.30574	-0.519
Mof_O 	O 	0.58105	0.39605	0.45159	-0.484
Mof_O 	O 	0.67952	0.30574	0.37696	-0.477
Mof_O 	O 	0.08105	0.07131	0.95159	-0.517
Mof_O 	O 	0.17952	0.13778	0.87696	-0.48
Mof_O 	O 	0.57131	0.58105	0.89605	-0.438
Mof_O 	O 	0.63778	0.67952	0.80574	-0.482
Mof_O 	O 	0.45159	0.89605	0.58105	-0.436
Mof_O 	O 	0.37696	0.80574	0.67952	-0.478
Mof_O 	O 	0.39605	0.95159	0.07131	-0.456
Mof_O 	O 	0.30574	0.87696	0.13778	-0.476
Mof_O 	O 	0.08105	0.95159	0.89605	-0.391
Mof_O 	O 	0.17952	0.87696	0.80574	-0.446
Mof_O 	O 	0.57131	0.89605	0.95159	-0.337
Mof_O 	O 	0.63778	0.80574	0.87696	-0.445
Mof_O 	O 	0.45159	0.58105	0.07131	-0.565
Mof_O 	O 	0.37696	0.67952	0.13778	-0.512
Mof_O 	O 	0.39605	0.07131	0.58105	-0.568
Mof_O 	O 	0.30574	0.13778	0.67952	-0.516
Mof_O 	O 	0.08105	0.89605	0.07131	-0.583
Mof_O 	O 	0.17952	0.80574	0.13778	-0.523
Mof_O 	O 	0.57131	0.95159	0.58105	-0.374
Mof_O 	O 	0.63778	0.87696	0.67952	-0.44
Mof_O 	O 	0.45159	0.07131	0.89605	-0.519
Mof_O 	O 	0.37696	0.13778	0.80574	-0.517
Mof_O 	O 	0.39605	0.58105	0.95159	-0.373
Mof_O 	O 	0.30574	0.67952	0.87696	-0.437
Mof_O 	O 	0.92869	0.91895	0.54841	-0.333
Mof_O 	O 	0.86222	0.82048	0.62304	-0.441
Mof_O 	O 	0.41895	0.42869	0.60395	-0.486
Mof_O 	O 	0.32048	0.36222	0.69426	-0.482
Mof_O 	O 	0.10395	0.54841	0.91895	-0.456
Mof_O 	O 	0.19426	0.62304	0.82048	-0.476
Mof_O 	O 	0.04841	0.60395	0.42869	-0.589
Mof_O 	O 	0.12304	0.69426	0.36222	-0.52
Mof_O 	O 	0.04841	0.91895	0.60395	-0.52
Mof_O 	O 	0.12304	0.82048	0.69426	-0.517
Mof_O 	O 	0.10395	0.42869	0.54841	-0.525
Mof_O 	O 	0.19426	0.36222	0.62304	-0.478
Mof_O 	O 	0.41895	0.54841	0.42869	-0.488
Mof_O 	O 	0.32048	0.62304	0.36222	-0.484
Mof_O 	O 	0.92869	0.60395	0.91895	-0.333
Mof_O 	O 	0.86222	0.69426	0.82048	-0.441
Mof_O 	O 	0.10395	0.91895	0.42869	-0.455
Mof_O 	O 	0.19426	0.82048	0.36222	-0.472
Mof_O 	O 	0.04841	0.42869	0.91895	-0.521
Mof_O 	O 	0.12304	0.36222	0.82048	-0.516
Mof_O 	O 	0.92869	0.54841	0.60395	-0.391
Mof_O 	O 	0.86222	0.62304	0.69426	-0.444
Mof_O 	O 	0.41895	0.60395	0.54841	-0.487
Mof_O 	O 	0.32048	0.69426	0.62304	-0.486
Mof_O 	O 	0.8875	0.75	0.25	-0.213
Mof_O 	O 	0.25	0.3875	0.1125	-0.305
Mof_O 	O 	0.75	0.1125	0.3875	-0.293
Mof_O 	O 	0.6125	0.25	0.75	-0.26
Mof_O 	O 	0.8875	0.25	0.1125	-0.26
Mof_O 	O 	0.25	0.1125	0.25	-0.313
Mof_O 	O 	0.75	0.3875	0.75	-0.246
Mof_O 	O 	0.6125	0.75	0.3875	-0.253
Mof_O 	O 	0.8875	0.1125	0.75	-0.251
Mof_O 	O 	0.25	0.25	0.3875	-0.265
Mof_O 	O 	0.75	0.75	0.1125	-0.291
Mof_O 	O 	0.6125	0.3875	0.25	-0.262
Mof_O 	O 	0.1125	0.25	0.75	-0.301
Mof_O 	O 	0.75	0.6125	0.8875	-0.211
Mof_O 	O 	0.25	0.8875	0.6125	-0.218
Mof_O 	O 	0.3875	0.75	0.25	-0.253
Mof_O 	O 	0.1125	0.75	0.8875	-0.252
Mof_O 	O 	0.75	0.8875	0.75	-0.206
Mof_O 	O 	0.25	0.6125	0.25	-0.267
Mof_O 	O 	0.3875	0.25	0.6125	-0.26
Mof_O 	O 	0.1125	0.8875	0.25	-0.261
Mof_O 	O 	0.75	0.75	0.6125	-0.249
Mof_O 	O 	0.25	0.25	0.8875	-0.22
Mof_O 	O 	0.3875	0.6125	0.75	-0.25
_end
