# CIF file generated by openbabel 3.1.0, see https://openbabel.org
data_I
_chemical_name_common 'image0'
_cell_length_a 17.998
_cell_length_b 17.998
_cell_length_c 25.9577
_cell_angle_alpha 90
_cell_angle_beta 90
_cell_angle_gamma 90
_space_group_name_H-M_alt 'P 1'
_space_group_name_Hall 'P 1'
loop_
    _symmetry_equiv_pos_as_xyz
    x,y,z
loop_
    _atom_site_label
    _atom_site_type_symbol
    _atom_site_fract_x
    _atom_site_fract_y
    _atom_site_fract_z
    _atom_site_occupancy
    C1       C        0.33360    0.60990    0.94880    1.000
    C2       C        0.22690    0.81260    0.14080    1.000
    C3       C        0.38780    0.57000    0.92341    1.000
    C4       C        0.36880    0.52290    0.88358    1.000
    C5       C        0.29410    0.51500    0.86910    1.000
    C6       C        0.24010    0.55670    0.89400    1.000
    H1       H        0.18970    0.55320    0.88350    1.000
    C7       C        0.25940    0.60310    0.93390    1.000
    H2       H        0.22210    0.63060    0.95130    1.000
    C8       C        0.35490    0.66100    0.99171    1.000
    C9       C        0.27400    0.46560    0.82510    1.000
    C10      C        0.46840    0.30410    0.65517    1.000
    C11      C        0.39540    0.28010    0.65300    1.000
    C12      C        0.34420    0.30840    0.68690    1.000
    C13      C        0.36360    0.35970    0.72450    1.000
    C14      C        0.43700    0.38290    0.72760    1.000
    H3       H        0.45150    0.41710    0.75360    1.000
    C15      C        0.48930    0.35630    0.69280    1.000
    H4       H        0.53920    0.37340    0.69440    1.000
    C16      C        0.52170    0.27670    0.61580    1.000
    C17      C        0.30590    0.39180    0.75810    1.000
    C18      C        0.95730    0.38710    0.73940    1.000
    C19      C        0.97760    0.42120    0.78570    1.000
    C20      C        0.05060    0.42760    0.79790    1.000
    H5       H        0.06450    0.45080    0.82940    1.000
    C21      C        0.10600    0.40050    0.76470    1.000
    C22      C        0.08360    0.36660    0.71910    1.000
    H6       H        0.12020    0.34820    0.69600    1.000
    C23      C        0.01050    0.35930    0.70680    1.000
    H7       H        0.99630    0.33500    0.67580    1.000
    C24      C        0.87510    0.38420    0.72644    1.000
    C25      C        0.18560    0.41200    0.77660    1.000
    N1       N        0.23560    0.37840    0.74690    1.000
    N2       N        0.20190    0.45480    0.81646    1.000
    N3       N        0.32890    0.43590    0.79758    1.000
    O1       O        0.42265    0.66643    0.00216    1.000
    O2       O        0.30332    0.69392    0.01581    1.000
    O3       O        0.59067    0.29020    0.62349    1.000
    O4       O        0.49712    0.24045    0.57924    1.000
    O5       O        0.85763    0.34640    0.68619    1.000
    O6       O        0.83134    0.41616    0.75494    1.000
    O7       O        0.18600    0.82340    0.17770    1.000
    Zn1      Zn       0.33706    0.75018    0.07541    1.000
    H8       H        0.44300    0.57700    0.93360    1.000
    H9       H        0.37600    0.24700    0.61960    1.000
    H10      H        0.42400    0.49900    0.86800    1.000
    H11      H        0.94000    0.44000    0.81300    1.000
    H12      H        0.30700    0.29400    0.68200    1.000
    C26      C        0.66640    0.39010    0.44880    1.000
    C27      C        0.77310    0.18740    0.64080    1.000
    C28      C        0.61220    0.43000    0.42341    1.000
    C29      C        0.63120    0.47710    0.38358    1.000
    C30      C        0.70590    0.48500    0.36910    1.000
    C31      C        0.75990    0.44330    0.39400    1.000
    H13      H        0.81030    0.44680    0.38350    1.000
    C32      C        0.74060    0.39690    0.43390    1.000
    H14      H        0.77790    0.36940    0.45130    1.000
    C33      C        0.64510    0.33900    0.49171    1.000
    C34      C        0.72600    0.53440    0.32510    1.000
    C35      C        0.53160    0.69590    0.15517    1.000
    C36      C        0.60460    0.71990    0.15300    1.000
    C37      C        0.65580    0.69160    0.18690    1.000
    C38      C        0.63640    0.64030    0.22450    1.000
    C39      C        0.56300    0.61710    0.22760    1.000
    H15      H        0.54850    0.58290    0.25360    1.000
    C40      C        0.51070    0.64370    0.19280    1.000
    H16      H        0.46080    0.62660    0.19440    1.000
    C41      C        0.47830    0.72330    0.11580    1.000
    C42      C        0.69410    0.60820    0.25810    1.000
    C43      C        0.04270    0.61290    0.23940    1.000
    C44      C        0.02240    0.57880    0.28570    1.000
    C45      C        0.94940    0.57240    0.29790    1.000
    H17      H        0.93550    0.54920    0.32940    1.000
    C46      C        0.89400    0.59950    0.26470    1.000
    C47      C        0.91640    0.63340    0.21910    1.000
    H18      H        0.87980    0.65180    0.19600    1.000
    C48      C        0.98950    0.64070    0.20680    1.000
    H19      H        0.00370    0.66500    0.17580    1.000
    C49      C        0.12490    0.61580    0.22644    1.000
    C50      C        0.81440    0.58800    0.27660    1.000
    N4       N        0.76440    0.62160    0.24690    1.000
    N5       N        0.79810    0.54520    0.31646    1.000
    N6       N        0.67110    0.56410    0.29758    1.000
    O8       O        0.57735    0.33357    0.50216    1.000
    O9       O        0.69668    0.30608    0.51581    1.000
    O10      O        0.40933    0.70980    0.12349    1.000
    O11      O        0.50288    0.75955    0.07924    1.000
    O12      O        0.14237    0.65360    0.18619    1.000
    O13      O        0.16866    0.58384    0.25494    1.000
    O14      O        0.81400    0.17660    0.67770    1.000
    Zn2      Zn       0.66294    0.24982    0.57541    1.000
    H20      H        0.55700    0.42300    0.43360    1.000
    H21      H        0.62400    0.75300    0.11960    1.000
    H22      H        0.57600    0.50100    0.36800    1.000
    H23      H        0.06000    0.56000    0.31300    1.000
    H24      H        0.69300    0.70600    0.18200    1.000
    C51      C        0.39010    0.33360    0.19880    1.000
    C52      C        0.18740    0.22690    0.39080    1.000
    C53      C        0.43000    0.38780    0.17341    1.000
    C54      C        0.47710    0.36880    0.13358    1.000
    C55      C        0.48500    0.29410    0.11910    1.000
    C56      C        0.44330    0.24010    0.14400    1.000
    H25      H        0.44680    0.18970    0.13350    1.000
    C57      C        0.39690    0.25940    0.18390    1.000
    H26      H        0.36940    0.22210    0.20130    1.000
    C58      C        0.33900    0.35490    0.24171    1.000
    C59      C        0.53440    0.27400    0.07510    1.000
    C60      C        0.69590    0.46840    0.90517    1.000
    C61      C        0.71990    0.39540    0.90300    1.000
    C62      C        0.69160    0.34420    0.93690    1.000
    C63      C        0.64030    0.36360    0.97450    1.000
    C64      C        0.61710    0.43700    0.97760    1.000
    H27      H        0.58290    0.45150    0.00360    1.000
    C65      C        0.64370    0.48930    0.94280    1.000
    H28      H        0.62660    0.53920    0.94440    1.000
    C66      C        0.72330    0.52170    0.86580    1.000
    C67      C        0.60820    0.30590    0.00810    1.000
    C68      C        0.61290    0.95730    0.98940    1.000
    C69      C        0.57880    0.97760    0.03570    1.000
    C70      C        0.57240    0.05060    0.04790    1.000
    H29      H        0.54920    0.06450    0.07940    1.000
    C71      C        0.59950    0.10600    0.01470    1.000
    C72      C        0.63340    0.08360    0.96910    1.000
    H30      H        0.65180    0.12020    0.94600    1.000
    C73      C        0.64070    0.01050    0.95680    1.000
    H31      H        0.66500    0.99630    0.92580    1.000
    C74      C        0.61580    0.87510    0.97644    1.000
    C75      C        0.58800    0.18560    0.02660    1.000
    N7       N        0.62160    0.23560    0.99690    1.000
    N8       N        0.54520    0.20190    0.06646    1.000
    N9       N        0.56410    0.32890    0.04758    1.000
    O15      O        0.33357    0.42265    0.25216    1.000
    O16      O        0.30608    0.30332    0.26581    1.000
    O17      O        0.70980    0.59067    0.87349    1.000
    O18      O        0.75955    0.49712    0.82924    1.000
    O19      O        0.65360    0.85763    0.93619    1.000
    O20      O        0.58384    0.83134    0.00494    1.000
    O21      O        0.17660    0.18600    0.42770    1.000
    Zn3      Zn       0.24982    0.33706    0.32541    1.000
    H32      H        0.42300    0.44300    0.18360    1.000
    H33      H        0.75300    0.37600    0.86960    1.000
    H34      H        0.50100    0.42400    0.11800    1.000
    H35      H        0.56000    0.94000    0.06300    1.000
    H36      H        0.70600    0.30700    0.93200    1.000
    C76      C        0.60990    0.66640    0.69880    1.000
    C77      C        0.81260    0.77310    0.89080    1.000
    C78      C        0.57000    0.61220    0.67341    1.000
    C79      C        0.52290    0.63120    0.63358    1.000
    C80      C        0.51500    0.70590    0.61910    1.000
    C81      C        0.55670    0.75990    0.64400    1.000
    H37      H        0.55320    0.81030    0.63350    1.000
    C82      C        0.60310    0.74060    0.68390    1.000
    H38      H        0.63060    0.77790    0.70130    1.000
    C83      C        0.66100    0.64510    0.74171    1.000
    C84      C        0.46560    0.72600    0.57510    1.000
    C85      C        0.30410    0.53160    0.40517    1.000
    C86      C        0.28010    0.60460    0.40300    1.000
    C87      C        0.30840    0.65580    0.43690    1.000
    C88      C        0.35970    0.63640    0.47450    1.000
    C89      C        0.38290    0.56300    0.47760    1.000
    H39      H        0.41710    0.54850    0.50360    1.000
    C90      C        0.35630    0.51070    0.44280    1.000
    H40      H        0.37340    0.46080    0.44440    1.000
    C91      C        0.27670    0.47830    0.36580    1.000
    C92      C        0.39180    0.69410    0.50810    1.000
    C93      C        0.38710    0.04270    0.48940    1.000
    C94      C        0.42120    0.02240    0.53570    1.000
    C95      C        0.42760    0.94940    0.54790    1.000
    H41      H        0.45080    0.93550    0.57940    1.000
    C96      C        0.40050    0.89400    0.51470    1.000
    C97      C        0.36660    0.91640    0.46910    1.000
    H42      H        0.34820    0.87980    0.44600    1.000
    C98      C        0.35930    0.98950    0.45680    1.000
    H43      H        0.33500    0.00370    0.42580    1.000
    C99      C        0.38420    0.12490    0.47644    1.000
    C100     C        0.41200    0.81440    0.52660    1.000
    N10      N        0.37840    0.76440    0.49690    1.000
    N11      N        0.45480    0.79810    0.56646    1.000
    N12      N        0.43590    0.67110    0.54758    1.000
    O22      O        0.66643    0.57735    0.75216    1.000
    O23      O        0.69392    0.69668    0.76581    1.000
    O24      O        0.29020    0.40933    0.37349    1.000
    O25      O        0.24045    0.50288    0.32924    1.000
    O26      O        0.34640    0.14237    0.43619    1.000
    O27      O        0.41616    0.16866    0.50494    1.000
    O28      O        0.82340    0.81400    0.92770    1.000
    Zn4      Zn       0.75018    0.66294    0.82541    1.000
    H44      H        0.57700    0.55700    0.68360    1.000
    H45      H        0.24700    0.62400    0.36960    1.000
    H46      H        0.49900    0.57600    0.61800    1.000
    H47      H        0.44000    0.06000    0.56300    1.000
    H48      H        0.29400    0.69300    0.43200    1.000
    C101     C        0.66640    0.60990    0.05120    1.000
    C102     C        0.77310    0.81260    0.85920    1.000
    C103     C        0.61220    0.57000    0.07659    1.000
    C104     C        0.63120    0.52290    0.11642    1.000
    C105     C        0.70590    0.51500    0.13090    1.000
    C106     C        0.75990    0.55670    0.10600    1.000
    H49      H        0.81030    0.55320    0.11650    1.000
    C107     C        0.74060    0.60310    0.06610    1.000
    H50      H        0.77790    0.63060    0.04870    1.000
    C108     C        0.64510    0.66100    0.00829    1.000
    C109     C        0.72600    0.46560    0.17490    1.000
    C110     C        0.53160    0.30410    0.34483    1.000
    C111     C        0.60460    0.28010    0.34700    1.000
    C112     C        0.65580    0.30840    0.31310    1.000
    C113     C        0.63640    0.35970    0.27550    1.000
    C114     C        0.56300    0.38290    0.27240    1.000
    H51      H        0.54850    0.41710    0.24640    1.000
    C115     C        0.51070    0.35630    0.30720    1.000
    H52      H        0.46080    0.37340    0.30560    1.000
    C116     C        0.47830    0.27670    0.38420    1.000
    C117     C        0.69410    0.39180    0.24190    1.000
    C118     C        0.04270    0.38710    0.26060    1.000
    C119     C        0.02240    0.42120    0.21430    1.000
    C120     C        0.94940    0.42760    0.20210    1.000
    H53      H        0.93550    0.45080    0.17060    1.000
    C121     C        0.89400    0.40050    0.23530    1.000
    C122     C        0.91640    0.36660    0.28090    1.000
    H54      H        0.87980    0.34820    0.30400    1.000
    C123     C        0.98950    0.35930    0.29320    1.000
    H55      H        0.00370    0.33500    0.32420    1.000
    C124     C        0.12490    0.38420    0.27356    1.000
    C125     C        0.81440    0.41200    0.22340    1.000
    N13      N        0.76440    0.37840    0.25310    1.000
    N14      N        0.79810    0.45480    0.18354    1.000
    N15      N        0.67110    0.43590    0.20242    1.000
    O29      O        0.57735    0.66643    0.99784    1.000
    O30      O        0.69668    0.69392    0.98419    1.000
    O31      O        0.40933    0.29020    0.37651    1.000
    O32      O        0.50288    0.24045    0.42076    1.000
    O33      O        0.14237    0.34640    0.31381    1.000
    O34      O        0.16866    0.41616    0.24506    1.000
    O35      O        0.81400    0.82340    0.82230    1.000
    Zn5      Zn       0.66294    0.75018    0.92459    1.000
    H56      H        0.55700    0.57700    0.06640    1.000
    H57      H        0.62400    0.24700    0.38040    1.000
    H58      H        0.57600    0.49900    0.13200    1.000
    H59      H        0.06000    0.44000    0.18700    1.000
    H60      H        0.69300    0.29400    0.31800    1.000
    C126     C        0.33360    0.39010    0.55120    1.000
    C127     C        0.22690    0.18740    0.35920    1.000
    C128     C        0.38780    0.43000    0.57659    1.000
    C129     C        0.36880    0.47710    0.61642    1.000
    C130     C        0.29410    0.48500    0.63090    1.000
    C131     C        0.24010    0.44330    0.60600    1.000
    H61      H        0.18970    0.44680    0.61650    1.000
    C132     C        0.25940    0.39690    0.56610    1.000
    H62      H        0.22210    0.36940    0.54870    1.000
    C133     C        0.35490    0.33900    0.50829    1.000
    C134     C        0.27400    0.53440    0.67490    1.000
    C135     C        0.46840    0.69590    0.84483    1.000
    C136     C        0.39540    0.71990    0.84700    1.000
    C137     C        0.34420    0.69160    0.81310    1.000
    C138     C        0.36360    0.64030    0.77550    1.000
    C139     C        0.43700    0.61710    0.77240    1.000
    H63      H        0.45150    0.58290    0.74640    1.000
    C140     C        0.48930    0.64370    0.80720    1.000
    H64      H        0.53920    0.62660    0.80560    1.000
    C141     C        0.52170    0.72330    0.88420    1.000
    C142     C        0.30590    0.60820    0.74190    1.000
    C143     C        0.95730    0.61290    0.76060    1.000
    C144     C        0.97760    0.57880    0.71430    1.000
    C145     C        0.05060    0.57240    0.70210    1.000
    H65      H        0.06450    0.54920    0.67060    1.000
    C146     C        0.10600    0.59950    0.73530    1.000
    C147     C        0.08360    0.63340    0.78090    1.000
    H66      H        0.12020    0.65180    0.80400    1.000
    C148     C        0.01050    0.64070    0.79320    1.000
    H67      H        0.99630    0.66500    0.82420    1.000
    C149     C        0.87510    0.61580    0.77356    1.000
    C150     C        0.18560    0.58800    0.72340    1.000
    N16      N        0.23560    0.62160    0.75310    1.000
    N17      N        0.20190    0.54520    0.68354    1.000
    N18      N        0.32890    0.56410    0.70242    1.000
    O36      O        0.42265    0.33357    0.49784    1.000
    O37      O        0.30332    0.30608    0.48419    1.000
    O38      O        0.59067    0.70980    0.87651    1.000
    O39      O        0.49712    0.75955    0.92076    1.000
    O40      O        0.85763    0.65360    0.81381    1.000
    O41      O        0.83134    0.58384    0.74506    1.000
    O42      O        0.18600    0.17660    0.32230    1.000
    Zn6      Zn       0.33706    0.24982    0.42459    1.000
    H68      H        0.44300    0.42300    0.56640    1.000
    H69      H        0.37600    0.75300    0.88040    1.000
    H70      H        0.42400    0.50100    0.63200    1.000
    H71      H        0.94000    0.56000    0.68700    1.000
    H72      H        0.30700    0.70600    0.81800    1.000
    C151     C        0.60990    0.33360    0.80120    1.000
    C152     C        0.81260    0.22690    0.60920    1.000
    C153     C        0.57000    0.38780    0.82659    1.000
    C154     C        0.52290    0.36880    0.86642    1.000
    C155     C        0.51500    0.29410    0.88090    1.000
    C156     C        0.55670    0.24010    0.85600    1.000
    H73      H        0.55320    0.18970    0.86650    1.000
    C157     C        0.60310    0.25940    0.81610    1.000
    H74      H        0.63060    0.22210    0.79870    1.000
    C158     C        0.66100    0.35490    0.75829    1.000
    C159     C        0.46560    0.27400    0.92490    1.000
    C160     C        0.30410    0.46840    0.09483    1.000
    C161     C        0.28010    0.39540    0.09700    1.000
    C162     C        0.30840    0.34420    0.06310    1.000
    C163     C        0.35970    0.36360    0.02550    1.000
    C164     C        0.38290    0.43700    0.02240    1.000
    H75      H        0.41710    0.45150    0.99640    1.000
    C165     C        0.35630    0.48930    0.05720    1.000
    H76      H        0.37340    0.53920    0.05560    1.000
    C166     C        0.27670    0.52170    0.13420    1.000
    C167     C        0.39180    0.30590    0.99190    1.000
    C168     C        0.38710    0.95730    0.01060    1.000
    C169     C        0.42120    0.97760    0.96430    1.000
    C170     C        0.42760    0.05060    0.95210    1.000
    H77      H        0.45080    0.06450    0.92060    1.000
    C171     C        0.40050    0.10600    0.98530    1.000
    C172     C        0.36660    0.08360    0.03090    1.000
    H78      H        0.34820    0.12020    0.05400    1.000
    C173     C        0.35930    0.01050    0.04320    1.000
    H79      H        0.33500    0.99630    0.07420    1.000
    C174     C        0.38420    0.87510    0.02356    1.000
    C175     C        0.41200    0.18560    0.97340    1.000
    N19      N        0.37840    0.23560    0.00310    1.000
    N20      N        0.45480    0.20190    0.93354    1.000
    N21      N        0.43590    0.32890    0.95242    1.000
    O43      O        0.66643    0.42265    0.74784    1.000
    O44      O        0.69392    0.30332    0.73419    1.000
    O45      O        0.29020    0.59067    0.12651    1.000
    O46      O        0.24045    0.49712    0.17076    1.000
    O47      O        0.34640    0.85763    0.06381    1.000
    O48      O        0.41616    0.83134    0.99506    1.000
    O49      O        0.82340    0.18600    0.57230    1.000
    Zn7      Zn       0.75018    0.33706    0.67459    1.000
    H80      H        0.57700    0.44300    0.81640    1.000
    H81      H        0.24700    0.37600    0.13040    1.000
    H82      H        0.49900    0.42400    0.88200    1.000
    H83      H        0.44000    0.94000    0.93700    1.000
    H84      H        0.29400    0.30700    0.06800    1.000
    C176     C        0.39010    0.66640    0.30120    1.000
    C177     C        0.18740    0.77310    0.10920    1.000
    C178     C        0.43000    0.61220    0.32659    1.000
    C179     C        0.47710    0.63120    0.36642    1.000
    C180     C        0.48500    0.70590    0.38090    1.000
    C181     C        0.44330    0.75990    0.35600    1.000
    H85      H        0.44680    0.81030    0.36650    1.000
    C182     C        0.39690    0.74060    0.31610    1.000
    H86      H        0.36940    0.77790    0.29870    1.000
    C183     C        0.33900    0.64510    0.25829    1.000
    C184     C        0.53440    0.72600    0.42490    1.000
    C185     C        0.69590    0.53160    0.59483    1.000
    C186     C        0.71990    0.60460    0.59700    1.000
    C187     C        0.69160    0.65580    0.56310    1.000
    C188     C        0.64030    0.63640    0.52550    1.000
    C189     C        0.61710    0.56300    0.52240    1.000
    H87      H        0.58290    0.54850    0.49640    1.000
    C190     C        0.64370    0.51070    0.55720    1.000
    H88      H        0.62660    0.46080    0.55560    1.000
    C191     C        0.72330    0.47830    0.63420    1.000
    C192     C        0.60820    0.69410    0.49190    1.000
    C193     C        0.61290    0.04270    0.51060    1.000
    C194     C        0.57880    0.02240    0.46430    1.000
    C195     C        0.57240    0.94940    0.45210    1.000
    H89      H        0.54920    0.93550    0.42060    1.000
    C196     C        0.59950    0.89400    0.48530    1.000
    C197     C        0.63340    0.91640    0.53090    1.000
    H90      H        0.65180    0.87980    0.55400    1.000
    C198     C        0.64070    0.98950    0.54320    1.000
    H91      H        0.66500    0.00370    0.57420    1.000
    C199     C        0.61580    0.12490    0.52356    1.000
    C200     C        0.58800    0.81440    0.47340    1.000
    N22      N        0.62160    0.76440    0.50310    1.000
    N23      N        0.54520    0.79810    0.43354    1.000
    N24      N        0.56410    0.67110    0.45242    1.000
    O50      O        0.33357    0.57735    0.24784    1.000
    O51      O        0.30608    0.69668    0.23419    1.000
    O52      O        0.70980    0.40933    0.62651    1.000
    O53      O        0.75955    0.50288    0.67076    1.000
    O54      O        0.65360    0.14237    0.56381    1.000
    O55      O        0.58384    0.16866    0.49506    1.000
    O56      O        0.17660    0.81400    0.07230    1.000
    Zn8      Zn       0.24982    0.66294    0.17459    1.000
    H92      H        0.42300    0.55700    0.31640    1.000
    H93      H        0.75300    0.62400    0.63040    1.000
    H94      H        0.50100    0.57600    0.38200    1.000
    H95      H        0.56000    0.06000    0.43700    1.000
    H96      H        0.70600    0.69300    0.56800    1.000
    O57      O        0.25149    0.74851    0.12500    1.000
    O58      O        0.74851    0.25149    0.62500    1.000
    O59      O        0.25149    0.25149    0.37500    1.000
    O60      O        0.74851    0.74851    0.87500    1.000
    Zn9      Zn       0.50000    0.75194    0.00000    1.000
    Zn10     Zn       0.50000    0.24806    0.50000    1.000
    Zn11     Zn       0.24806    0.50000    0.25000    1.000
    Zn12     Zn       0.75194    0.50000    0.75000    1.000
