data_functionalizedCrystal
_audit_creation_method	'EQeq! by Chris Wilmer'
_symmetry_space_group_name_H-M	'P1'
_symmetry_Int_Tables_number	1
_symmetry_cell_setting	triclinic
loop_
_symmetry_equiv_pos_as_xyz
  x,y,z
_cell_length_a	13.343
_cell_length_b	13.343
_cell_length_c	14.515
_cell_angle_alpha	90
_cell_angle_beta	90
_cell_angle_gamma	120
loop_
_atom_site_label
_atom_site_type_symbol
_atom_site_fract_x
_atom_site_fract_y
_atom_site_fract_z
_atom_site_charge
Mof_Gd	Gd	0.66667	0.33334	0.668	1.879
Mof_Gd	Gd	0.33333	0.66666	0.832	1.879
Mof_Gd	Gd	0.33333	0.66666	0.332	1.874
Mof_Gd	Gd	0.66667	0.33334	0.168	1.875
Mof_Cu	Cu	0.5	0.5	-0	0.901
Mof_Cu	Cu	-5.0799e-17	0.5	-0	0.872
Mof_Cu	Cu	0.5	0	-0	0.87
Mof_Cu	Cu	-1.58117e-17	0.5	0.5	0.899
Mof_Cu	Cu	0.5	0.5	0.5	0.928
Mof_Cu	Cu	0.5	-1.12797e-32	0.5	0.897
Mof_H 	H 	0.326	0.3501	0.9221	0.094
Mof_H 	H 	0.4578	0.2667	0.8709	0.169
Mof_H 	H 	0.3974	0.316	0.8075	0.145
Mof_H 	H 	0.2927	0.2539	0.0499	0.161
Mof_H 	H 	0.3175	0.1796	0.9794	0.212
Mof_H 	H 	0.0241	0.674	0.9221	0.044
Mof_H 	H 	0.8089	0.5422	0.8709	0.178
Mof_H 	H 	0.9186	0.6026	0.8075	0.176
Mof_H 	H 	0.9612	0.7073	0.0499	0.208
Mof_H 	H 	0.8621	0.6825	0.9794	0.242
Mof_H 	H 	0.6499	0.9759	0.9221	0.159
Mof_H 	H 	0.7333	0.1911	0.8709	0.173
Mof_H 	H 	0.684	0.0814	0.8075	0.132
Mof_H 	H 	0.7461	0.0388	0.0499	0.149
Mof_H 	H 	0.8204	0.1379	0.9794	0.225
Mof_H 	H 	0.9759	0.6499	0.5779	0.156
Mof_H 	H 	0.1911	0.7333	0.6291	0.161
Mof_H 	H 	0.0814	0.684	0.6925	0.131
Mof_H 	H 	0.0388	0.7461	0.4501	0.103
Mof_H 	H 	0.1379	0.8204	0.5206	0.126
Mof_H 	H 	0.3501	0.326	0.5779	0.092
Mof_H 	H 	0.2667	0.4578	0.6291	0.157
Mof_H 	H 	0.316	0.3974	0.6925	0.142
Mof_H 	H 	0.2539	0.2927	0.4501	0.111
Mof_H 	H 	0.1796	0.3175	0.5206	0.108
Mof_H 	H 	0.674	0.0241	0.5779	0.036
Mof_H 	H 	0.5422	0.8089	0.6291	0.167
Mof_H 	H 	0.6026	0.9186	0.6925	0.175
Mof_H 	H 	0.7073	0.9612	0.4501	0.163
Mof_H 	H 	0.6825	0.8621	0.5206	0.145
Mof_H 	H 	0.674	0.6499	0.0779	0.098
Mof_H 	H 	0.5422	0.7333	0.1291	0.154
Mof_H 	H 	0.6026	0.684	0.1925	0.152
Mof_H 	H 	0.7073	0.7461	0.9501	0.092
Mof_H 	H 	0.6825	0.8204	0.0206	0.045
Mof_H 	H 	0.9759	0.326	0.0779	0.153
Mof_H 	H 	0.1911	0.4578	0.1291	0.142
Mof_H 	H 	0.0814	0.3974	0.1925	0.119
Mof_H 	H 	0.0388	0.2927	0.9501	0.04
Mof_H 	H 	0.1379	0.3175	0.0206	0.001
Mof_H 	H 	0.3501	0.0241	0.0779	0.031
Mof_H 	H 	0.2667	0.8089	0.1291	0.148
Mof_H 	H 	0.316	0.9186	0.1925	0.164
Mof_H 	H 	0.2539	0.9612	0.9501	0.101
Mof_H 	H 	0.1796	0.8621	0.0206	0.026
Mof_H 	H 	0.0241	0.3501	0.4221	0.036
Mof_H 	H 	0.8089	0.2667	0.3709	0.161
Mof_H 	H 	0.9186	0.316	0.3075	0.166
Mof_H 	H 	0.9612	0.2539	0.5499	0.148
Mof_H 	H 	0.8621	0.1796	0.4794	0.125
Mof_H 	H 	0.6499	0.674	0.4221	0.099
Mof_H 	H 	0.7333	0.5422	0.3709	0.167
Mof_H 	H 	0.684	0.6026	0.3075	0.156
Mof_H 	H 	0.7461	0.7073	0.5499	0.14
Mof_H 	H 	0.8204	0.6825	0.4794	0.145
Mof_H 	H 	0.326	0.9759	0.4221	0.156
Mof_H 	H 	0.4578	0.1911	0.3709	0.155
Mof_H 	H 	0.3974	0.0814	0.3075	0.122
Mof_H 	H 	0.2927	0.0388	0.5499	0.089
Mof_H 	H 	0.3175	0.1379	0.4794	0.106
Mof_C 	C 	0.562	0.4366	0.8408	0.48
Mof_C 	C 	0.4471	0.3327	0.8608	-0.385
Mof_C 	C 	0.3514	0.2538	0.0106	-0.499
Mof_C 	C 	0.4529	0.2701	0.069	0.433
Mof_C 	C 	0.8746	0.438	0.8408	0.488
Mof_C 	C 	0.8856	0.5529	0.8608	-0.397
Mof_C 	C 	0.9024	0.6486	0.0106	-0.519
Mof_C 	C 	0.8172	0.5471	0.069	0.447
Mof_C 	C 	0.5634	0.1254	0.8408	0.474
Mof_C 	C 	0.6673	0.1144	0.8608	-0.379
Mof_C 	C 	0.7462	0.0976	0.0106	-0.491
Mof_C 	C 	0.7299	0.1828	0.069	0.427
Mof_C 	C 	0.1254	0.5634	0.6592	0.468
Mof_C 	C 	0.1144	0.6673	0.6392	-0.373
Mof_C 	C 	0.0976	0.7462	0.4894	-0.293
Mof_C 	C 	0.1828	0.7299	0.431	0.379
Mof_C 	C 	0.4366	0.562	0.6592	0.473
Mof_C 	C 	0.3327	0.4471	0.6392	-0.378
Mof_C 	C 	0.2538	0.3514	0.4894	-0.292
Mof_C 	C 	0.2701	0.4529	0.431	0.382
Mof_C 	C 	0.438	0.8746	0.6592	0.482
Mof_C 	C 	0.5529	0.8856	0.6392	-0.391
Mof_C 	C 	0.6486	0.9024	0.4894	-0.326
Mof_C 	C 	0.5471	0.8172	0.431	0.401
Mof_C 	C 	0.438	0.5634	0.1592	0.469
Mof_C 	C 	0.5529	0.6673	0.1392	-0.375
Mof_C 	C 	0.6486	0.7462	0.9894	-0.116
Mof_C 	C 	0.5471	0.7299	0.931	0.345
Mof_C 	C 	0.1254	0.562	0.1592	0.457
Mof_C 	C 	0.1144	0.4471	0.1392	-0.356
Mof_C 	C 	0.0976	0.3514	0.9894	-0.069
Mof_C 	C 	0.1828	0.4529	0.931	0.324
Mof_C 	C 	0.4366	0.8746	0.1592	0.472
Mof_C 	C 	0.3327	0.8856	0.1392	-0.375
Mof_C 	C 	0.2538	0.9024	0.9894	-0.113
Mof_C 	C 	0.2701	0.8172	0.931	0.348
Mof_C 	C 	0.8746	0.4366	0.3408	0.48
Mof_C 	C 	0.8856	0.3327	0.3608	-0.386
Mof_C 	C 	0.9024	0.2538	0.5106	-0.313
Mof_C 	C 	0.8172	0.2701	0.569	0.396
Mof_C 	C 	0.5634	0.438	0.3408	0.477
Mof_C 	C 	0.6673	0.5529	0.3608	-0.386
Mof_C 	C 	0.7462	0.6486	0.5106	-0.317
Mof_C 	C 	0.7299	0.5471	0.569	0.393
Mof_C 	C 	0.562	0.1254	0.3408	0.465
Mof_C 	C 	0.4471	0.1144	0.3608	-0.367
Mof_C 	C 	0.3514	0.0976	0.5106	-0.28
Mof_C 	C 	0.4529	0.1828	0.569	0.374
Mof_N 	N 	0.3892	0.3472	0.9418	-0.1
Mof_N 	N 	0.958	0.6108	0.9418	-0.042
Mof_N 	N 	0.6528	0.042	0.9418	-0.152
Mof_N 	N 	0.042	0.6528	0.5582	-0.205
Mof_N 	N 	0.3472	0.3892	0.5582	-0.156
Mof_N 	N 	0.6108	0.958	0.5582	-0.09
Mof_N 	N 	0.6108	0.6528	0.0582	-0.199
Mof_N 	N 	0.042	0.3892	0.0582	-0.259
Mof_N 	N 	0.3472	0.958	0.0582	-0.141
Mof_N 	N 	0.958	0.3472	0.4418	-0.096
Mof_N 	N 	0.6528	0.6108	0.4418	-0.151
Mof_N 	N 	0.3892	0.042	0.4418	-0.211
Mof_O 	O 	0.5988	0.5241	0.8924	-0.403
Mof_O 	O 	0.6179	0.4352	0.7717	-0.481
Mof_O 	O 	0.5493	0.3621	0.0584	-0.512
Mof_O 	O 	0.4391	0.1952	0.1269	-0.408
Mof_O 	O 	0.9253	0.4012	0.8924	-0.377
Mof_O 	O 	0.8173	0.3821	0.7717	-0.477
Mof_O 	O 	0.8128	0.4507	0.0584	-0.504
Mof_O 	O 	0.7561	0.5609	0.1269	-0.395
Mof_O 	O 	0.4759	0.0747	0.8924	-0.428
Mof_O 	O 	0.5648	0.1827	0.7717	-0.49
Mof_O 	O 	0.6379	0.1872	0.0584	-0.515
Mof_O 	O 	0.8048	0.2439	0.1269	-0.393
Mof_O 	O 	0.0747	0.4759	0.6076	-0.445
Mof_O 	O 	0.1827	0.5648	0.7283	-0.491
Mof_O 	O 	0.1872	0.6379	0.4416	-0.487
Mof_O 	O 	0.2439	0.8048	0.3731	-0.372
Mof_O 	O 	0.5241	0.5988	0.6076	-0.422
Mof_O 	O 	0.4352	0.6179	0.7283	-0.482
Mof_O 	O 	0.3621	0.5493	0.4416	-0.484
Mof_O 	O 	0.1952	0.4391	0.3731	-0.386
Mof_O 	O 	0.4012	0.9253	0.6076	-0.392
Mof_O 	O 	0.3821	0.8173	0.7283	-0.477
Mof_O 	O 	0.4507	0.8128	0.4416	-0.476
Mof_O 	O 	0.5609	0.7561	0.3731	-0.375
Mof_O 	O 	0.4012	0.4759	0.1076	-0.435
Mof_O 	O 	0.3821	0.5648	0.2283	-0.484
Mof_O 	O 	0.4507	0.6379	0.9416	-0.452
Mof_O 	O 	0.5609	0.8048	0.8731	-0.347
Mof_O 	O 	0.0747	0.5988	0.1076	-0.452
Mof_O 	O 	0.1827	0.6179	0.2283	-0.488
Mof_O 	O 	0.1872	0.5493	0.9416	-0.452
Mof_O 	O 	0.2439	0.4391	0.8731	-0.358
Mof_O 	O 	0.5241	0.9253	0.1076	-0.398
Mof_O 	O 	0.4352	0.8173	0.2283	-0.474
Mof_O 	O 	0.3621	0.8128	0.9416	-0.443
Mof_O 	O 	0.1952	0.7561	0.8731	-0.36
Mof_O 	O 	0.9253	0.5241	0.3924	-0.392
Mof_O 	O 	0.8173	0.4352	0.2717	-0.474
Mof_O 	O 	0.8128	0.3621	0.5584	-0.477
Mof_O 	O 	0.7561	0.1952	0.6269	-0.383
Mof_O 	O 	0.4759	0.4012	0.3924	-0.426
Mof_O 	O 	0.5648	0.3821	0.2717	-0.484
Mof_O 	O 	0.6379	0.4507	0.5584	-0.486
Mof_O 	O 	0.8048	0.5609	0.6269	-0.369
Mof_O 	O 	0.5988	0.0747	0.3924	-0.445
Mof_O 	O 	0.6179	0.1827	0.2717	-0.488
Mof_O 	O 	0.5493	0.1872	0.5584	-0.487
Mof_O 	O 	0.4391	0.2439	0.6269	-0.381
_end
