# CIF file generated by openbabel 3.1.0, see https://openbabel.org
data_I
_chemical_name_common 'SETFUT_clean'
_cell_length_a 6.8711
_cell_length_b 14.01
_cell_length_c 14.915
_cell_angle_alpha 90
_cell_angle_beta 90
_cell_angle_gamma 90
_space_group_name_H-M_alt 'P 1'
_space_group_name_Hall 'P 1'
loop_
    _symmetry_equiv_pos_as_xyz
    x,y,z
loop_
    _atom_site_label
    _atom_site_type_symbol
    _atom_site_fract_x
    _atom_site_fract_y
    _atom_site_fract_z
    _atom_site_occupancy
    Cd1      Cd       0.60896    0.29978    0.96060    1.000
    Cd2      Cd       0.89104    0.70022    0.46060    1.000
    Cd3      Cd       0.39104    0.79978    0.53940    1.000
    Cd4      Cd       0.10896    0.20022    0.03940    1.000
    H1       H        0.85190    0.24460    0.71450    1.000
    H2       H        0.85110    0.29050    0.56690    1.000
    H3       H        0.86210    0.17770    0.45300    1.000
    H4       H        0.86660    0.01890    0.48590    1.000
    H5       H        0.85490    0.83890    0.74670    1.000
    H6       H        0.88160    0.95010    0.86160    1.000
    H7       H        0.64810    0.75540    0.21450    1.000
    H8       H        0.64890    0.70950    0.06690    1.000
    H9       H        0.63790    0.82230    0.95300    1.000
    H10      H        0.63340    0.98110    0.98590    1.000
    H11      H        0.64510    0.16110    0.24670    1.000
    H12      H        0.61840    0.04990    0.36160    1.000
    H13      H        0.14810    0.74460    0.78550    1.000
    H14      H        0.14890    0.79050    0.93310    1.000
    H15      H        0.13790    0.67770    0.04700    1.000
    H16      H        0.13340    0.51890    0.01410    1.000
    H17      H        0.14510    0.33890    0.75330    1.000
    H18      H        0.11840    0.45010    0.63840    1.000
    H19      H        0.35190    0.25540    0.28550    1.000
    H20      H        0.35110    0.20950    0.43310    1.000
    H21      H        0.36210    0.32230    0.54700    1.000
    H22      H        0.36660    0.48110    0.51410    1.000
    H23      H        0.35490    0.66110    0.25330    1.000
    H24      H        0.38160    0.54990    0.13840    1.000
    C1       C        0.87680    0.13460    0.86500    1.000
    C2       C        0.87110    0.06770    0.78530    1.000
    C3       C        0.86180    0.09970    0.69390    1.000
    C4       C        0.85570    0.19840    0.66980    1.000
    C5       C        0.85520    0.22590    0.58130    1.000
    C6       C        0.86100    0.15790    0.51250    1.000
    C7       C        0.86500    0.06330    0.53220    1.000
    C8       C        0.86690    0.03080    0.62310    1.000
    C9       C        0.86500    0.93170    0.64460    1.000
    C10      C        0.87290    0.85460    0.57450    1.000
    C11      C        0.86300    0.90350    0.73290    1.000
    C12      C        0.87330    0.97110    0.80260    1.000
    C13      C        0.62320    0.86540    0.36500    1.000
    C14      C        0.62890    0.93230    0.28530    1.000
    C15      C        0.63820    0.90030    0.19390    1.000
    C16      C        0.64430    0.80160    0.16980    1.000
    C17      C        0.64480    0.77410    0.08130    1.000
    C18      C        0.63900    0.84210    0.01250    1.000
    C19      C        0.63500    0.93670    0.03220    1.000
    C20      C        0.63310    0.96920    0.12310    1.000
    C21      C        0.63500    0.06830    0.14460    1.000
    C22      C        0.62710    0.14540    0.07450    1.000
    C23      C        0.63700    0.09650    0.23290    1.000
    C24      C        0.62670    0.02890    0.30260    1.000
    C25      C        0.12320    0.63460    0.63500    1.000
    C26      C        0.12890    0.56770    0.71470    1.000
    C27      C        0.13820    0.59970    0.80610    1.000
    C28      C        0.14430    0.69840    0.83020    1.000
    C29      C        0.14480    0.72590    0.91870    1.000
    C30      C        0.13900    0.65790    0.98750    1.000
    C31      C        0.13500    0.56330    0.96780    1.000
    C32      C        0.13310    0.53080    0.87690    1.000
    C33      C        0.13500    0.43170    0.85540    1.000
    C34      C        0.12710    0.35460    0.92550    1.000
    C35      C        0.13700    0.40350    0.76710    1.000
    C36      C        0.12670    0.47110    0.69740    1.000
    C37      C        0.37680    0.36540    0.13500    1.000
    C38      C        0.37110    0.43230    0.21470    1.000
    C39      C        0.36180    0.40030    0.30610    1.000
    C40      C        0.35570    0.30160    0.33020    1.000
    C41      C        0.35520    0.27410    0.41870    1.000
    C42      C        0.36100    0.34210    0.48750    1.000
    C43      C        0.36500    0.43670    0.46780    1.000
    C44      C        0.36690    0.46920    0.37690    1.000
    C45      C        0.36500    0.56830    0.35540    1.000
    C46      C        0.37290    0.64540    0.42550    1.000
    C47      C        0.36300    0.59650    0.26710    1.000
    C48      C        0.37330    0.52890    0.19740    1.000
    O1       O        0.77690    0.20910    0.86122    1.000
    O2       O        0.98350    0.10789    0.92950    1.000
    O3       O        0.00560    0.85484    0.51661    1.000
    O4       O        0.74620    0.78860    0.57882    1.000
    O5       O        0.72310    0.79090    0.36122    1.000
    O6       O        0.51650    0.89211    0.42950    1.000
    O7       O        0.49440    0.14516    0.01661    1.000
    O8       O        0.75380    0.21140    0.07882    1.000
    O9       O        0.22310    0.70910    0.63878    1.000
    O10      O        0.01650    0.60789    0.57050    1.000
    O11      O        0.99440    0.35484    0.98339    1.000
    O12      O        0.25380    0.28860    0.92118    1.000
    O13      O        0.27690    0.29090    0.13878    1.000
    O14      O        0.48350    0.39211    0.07050    1.000
    O15      O        0.50560    0.64516    0.48339    1.000
    O16      O        0.24620    0.71140    0.42118    1.000
