# CIF file generated by openbabel 3.1.0, see https://openbabel.org
data_I
_chemical_name_common 'OPURIB01_clean'
_cell_length_a 4.88
_cell_length_b 13.11
_cell_length_c 13.2899
_cell_angle_alpha 90
_cell_angle_beta 100.579
_cell_angle_gamma 90
_space_group_name_H-M_alt 'P 1'
_space_group_name_Hall 'P 1'
loop_
    _symmetry_equiv_pos_as_xyz
    x,y,z
loop_
    _atom_site_label
    _atom_site_type_symbol
    _atom_site_fract_x
    _atom_site_fract_y
    _atom_site_fract_z
    _atom_site_occupancy
    Ce1      Ce       0.97778    0.75880    0.21230    1.000
    Ce2      Ce       0.02222    0.25880    0.78770    1.000
    H1       H        0.93870    0.49630    0.66060    1.000
    H2       H        0.09950    0.79430    0.86970    1.000
    H3       H        0.69260    0.57880    0.94940    1.000
    H4       H        0.47430    0.66130    0.65510    1.000
    H5       H        0.96900    0.84340    0.69130    1.000
    H6       H        0.00280    0.75320    0.61630    1.000
    H7       H        0.40550    0.97240    0.72820    1.000
    H8       H        0.27800    0.78530    0.48640    1.000
    H9       H        0.82240    0.01780    0.49760    1.000
    H10      H        0.06130    0.99630    0.33940    1.000
    H11      H        0.90050    0.29430    0.13030    1.000
    H12      H        0.30740    0.07880    0.05060    1.000
    H13      H        0.52570    0.16130    0.34490    1.000
    H14      H        0.03100    0.34340    0.30870    1.000
    H15      H        0.99720    0.25320    0.38370    1.000
    H16      H        0.59450    0.47240    0.27180    1.000
    H17      H        0.72200    0.28530    0.51360    1.000
    H18      H        0.17760    0.51780    0.50240    1.000
    C1       C        0.23560    0.74870    0.85080    1.000
    C2       C        0.39740    0.68680    0.92630    1.000
    C3       C        0.58450    0.61850    0.89930    1.000
    C4       C        0.61350    0.60840    0.79790    1.000
    C5       C        0.45800    0.67000    0.72320    1.000
    C6       C        0.27390    0.74630    0.74890    1.000
    C7       C        0.10320    0.80070    0.66560    1.000
    C8       C        0.30990    0.86930    0.61330    1.000
    C9       C        0.44430    0.95320    0.66490    1.000
    C10      C        0.63270    0.00700    0.62220    1.000
    C11      C        0.36430    0.84190    0.52060    1.000
    C12      C        0.55520    0.90110    0.47650    1.000
    C13      C        0.69260    0.98110    0.52610    1.000
    C14      C        0.61190    0.86440    0.37740    1.000
    C15      C        0.78210    0.09480    0.68320    1.000
    C16      C        0.80200    0.53550    0.76660    1.000
    C17      C        0.38090    0.69940    0.03530    1.000
    C18      C        0.76440    0.24870    0.14920    1.000
    C19      C        0.60260    0.18680    0.07370    1.000
    C20      C        0.41550    0.11850    0.10070    1.000
    C21      C        0.38650    0.10840    0.20210    1.000
    C22      C        0.54200    0.17000    0.27680    1.000
    C23      C        0.72610    0.24630    0.25110    1.000
    C24      C        0.89680    0.30070    0.33440    1.000
    C25      C        0.69010    0.36930    0.38670    1.000
    C26      C        0.55570    0.45320    0.33510    1.000
    C27      C        0.36730    0.50700    0.37780    1.000
    C28      C        0.63570    0.34190    0.47940    1.000
    C29      C        0.44480    0.40110    0.52350    1.000
    C30      C        0.30740    0.48110    0.47390    1.000
    C31      C        0.38810    0.36440    0.62260    1.000
    C32      C        0.21790    0.59480    0.31680    1.000
    C33      C        0.19800    0.03550    0.23340    1.000
    C34      C        0.61910    0.19940    0.96470    1.000
    O1       O        0.60270    0.66870    0.10840    1.000
    O2       O        0.16090    0.75390    0.05470    1.000
    O3       O        0.84790    0.54520    0.67470    1.000
    O4       O        0.91300    0.46060    0.82400    1.000
    O5       O        0.73970    0.11480    0.77030    1.000
    O6       O        0.94440    0.14850    0.64220    1.000
    O7       O        0.44340    0.80810    0.32050    1.000
    O8       O        0.86950    0.88700    0.35330    1.000
    O9       O        0.39730    0.16870    0.89160    1.000
    O10      O        0.83910    0.25390    0.94530    1.000
    O11      O        0.15210    0.04520    0.32530    1.000
    O12      O        0.08700    0.96060    0.17600    1.000
    O13      O        0.26030    0.61480    0.22970    1.000
    O14      O        0.05560    0.64850    0.35780    1.000
    O15      O        0.55660    0.30810    0.67950    1.000
    O16      O        0.13050    0.38700    0.64670    1.000
