data_functionalizedCrystal
_audit_creation_method	'EQeq! by Chris Wilmer'
_symmetry_space_group_name_H-M	'P1'
_symmetry_Int_Tables_number	1
_symmetry_cell_setting	triclinic
loop_
_symmetry_equiv_pos_as_xyz
  x,y,z
_cell_length_a	35.743
_cell_length_b	35.743
_cell_length_c	15.129
_cell_angle_alpha	90
_cell_angle_beta	90
_cell_angle_gamma	120
loop_
_atom_site_label
_atom_site_type_symbol
_atom_site_fract_x
_atom_site_fract_y
_atom_site_fract_z
_atom_site_charge
Mof_O 	O 	0.22364	0.37064	0.4155	-0.423
Mof_O 	O 	0.23116	0.38519	0.2717	-0.409
Mof_C 	C 	0.2455	0.3902	0.3498	0.393
Mof_C 	C 	0.29116	0.42202	0.3629	-0.155
Mof_C 	C 	0.317	0.4489	0.2959	0.095
Mof_H 	H 	0.3049	0.4486	0.2413	0.014
Mof_C 	C 	0.3604	0.4761	0.3098	-0.165
Mof_H 	H 	0.3786	0.4925	0.2639	0.104
Mof_C 	C 	0.3766	0.47839	0.3965	0.123
Mof_C 	C 	0.3501	0.4548	0.466	-0.173
Mof_H 	H 	0.3613	0.4581	0.5228	0.094
Mof_C 	C 	0.3076	0.4269	0.4506	0.09
Mof_H 	H 	0.2894	0.4111	0.4968	0.016
Mof_C 	C 	0.4258	0.5075	0.4093	-0.073
Mof_C 	C 	0.44622	0.48814	0.4564	-0.049
Mof_H 	H 	0.4302	0.4592	0.4728	0.047
Mof_C 	C 	0.4051	0.5848	0.3861	0.049
Mof_C 	C 	0.374	0.5878	0.319	-0.004
Mof_O 	O 	0.89031	0.70397	0.74883	-0.423
Mof_O 	O 	0.89783	0.71852	0.60503	-0.409
Mof_C 	C 	0.91217	0.72353	0.68313	0.392
Mof_C 	C 	0.95783	0.75535	0.69623	-0.155
Mof_C 	C 	0.98367	0.78223	0.62923	0.095
Mof_H 	H 	0.97157	0.78193	0.57463	0.015
Mof_C 	C 	0.02707	0.80943	0.64313	-0.163
Mof_H 	H 	0.04527	0.82583	0.59723	0.105
Mof_C 	C 	0.04327	0.81172	0.72983	0.124
Mof_C 	C 	0.01677	0.78813	0.79933	-0.171
Mof_H 	H 	0.02797	0.79143	0.85613	0.095
Mof_C 	C 	0.97427	0.76023	0.78393	0.09
Mof_H 	H 	0.95607	0.74443	0.83013	0.017
Mof_C 	C 	0.09247	0.84083	0.74263	-0.071
Mof_C 	C 	0.11289	0.82147	0.78973	-0.048
Mof_H 	H 	0.09687	0.79253	0.80613	0.048
Mof_C 	C 	0.07177	0.91813	0.71943	0.05
Mof_C 	C 	0.04067	0.92113	0.65233	-0.003
Mof_O 	O 	0.55697	0.03731	0.08217	-0.422
Mof_O 	O 	0.56449	0.05186	0.93837	-0.409
Mof_C 	C 	0.57883	0.05687	0.01647	0.394
Mof_C 	C 	0.62449	0.08869	0.02957	-0.154
Mof_C 	C 	0.65033	0.11557	0.96257	0.096
Mof_H 	H 	0.63823	0.11527	0.90797	0.015
Mof_C 	C 	0.69373	0.14277	0.97647	-0.164
Mof_H 	H 	0.71193	0.15917	0.93057	0.105
Mof_C 	C 	0.70993	0.14506	0.06317	0.124
Mof_C 	C 	0.68343	0.12147	0.13267	-0.172
Mof_H 	H 	0.69463	0.12477	0.18947	0.095
Mof_C 	C 	0.64093	0.09357	0.11727	0.091
Mof_H 	H 	0.62273	0.07777	0.16347	0.017
Mof_C 	C 	0.75913	0.17417	0.07597	-0.072
Mof_C 	C 	0.77955	0.15481	0.12307	-0.048
Mof_H 	H 	0.76353	0.12587	0.13947	0.048
Mof_C 	C 	0.73843	0.25147	0.05277	0.05
Mof_C 	C 	0.70733	0.25447	0.98567	-0.003
Mof_O 	O 	0.62936	0.853	0.4155	-0.422
Mof_O 	O 	0.61481	0.84597	0.2717	-0.408
Mof_C 	C 	0.6098	0.8553	0.3498	0.394
Mof_C 	C 	0.57798	0.86914	0.3629	-0.154
Mof_C 	C 	0.5511	0.8681	0.2959	0.096
Mof_H 	H 	0.5514	0.8563	0.2413	0.015
Mof_C 	C 	0.5239	0.8843	0.3098	-0.164
Mof_H 	H 	0.5075	0.8861	0.2639	0.105
Mof_C 	C 	0.52161	0.89821	0.3965	0.124
Mof_C 	C 	0.5452	0.8953	0.466	-0.172
Mof_H 	H 	0.5419	0.9032	0.5228	0.095
Mof_C 	C 	0.5731	0.8807	0.4506	0.091
Mof_H 	H 	0.5889	0.8783	0.4968	0.017
Mof_C 	C 	0.4925	0.9183	0.4093	-0.072
Mof_C 	C 	0.51186	0.95808	0.4564	-0.048
Mof_H 	H 	0.5408	0.971	0.4728	0.048
Mof_C 	C 	0.4152	0.8203	0.3861	0.05
Mof_C 	C 	0.4122	0.7862	0.319	-0.003
Mof_O 	O 	0.29603	0.18633	0.74883	-0.422
Mof_O 	O 	0.28148	0.1793	0.60503	-0.408
Mof_C 	C 	0.27647	0.18863	0.68313	0.394
Mof_C 	C 	0.24465	0.20247	0.69623	-0.154
Mof_C 	C 	0.21777	0.20143	0.62923	0.096
Mof_H 	H 	0.21807	0.18963	0.57463	0.015
Mof_C 	C 	0.19057	0.21763	0.64313	-0.164
Mof_H 	H 	0.17417	0.21943	0.59723	0.105
Mof_C 	C 	0.18828	0.23154	0.72983	0.124
Mof_C 	C 	0.21187	0.22863	0.79933	-0.172
Mof_H 	H 	0.20857	0.23653	0.85613	0.095
Mof_C 	C 	0.23977	0.21403	0.78393	0.091
Mof_H 	H 	0.25557	0.21163	0.83013	0.017
Mof_C 	C 	0.15917	0.25163	0.74263	-0.072
Mof_C 	C 	0.17853	0.29141	0.78973	-0.048
Mof_H 	H 	0.20747	0.30433	0.80613	0.048
Mof_C 	C 	0.08187	0.15363	0.71943	0.05
Mof_C 	C 	0.07887	0.11953	0.65233	-0.003
Mof_O 	O 	0.96269	0.51967	0.08217	-0.421
Mof_O 	O 	0.94814	0.51264	0.93837	-0.408
Mof_C 	C 	0.94313	0.52197	0.01647	0.394
Mof_C 	C 	0.91131	0.53581	0.02957	-0.154
Mof_C 	C 	0.88443	0.53477	0.96257	0.096
Mof_H 	H 	0.88473	0.52297	0.90797	0.015
Mof_C 	C 	0.85723	0.55097	0.97647	-0.164
Mof_H 	H 	0.84083	0.55277	0.93057	0.105
Mof_C 	C 	0.85494	0.56488	0.06317	0.124
Mof_C 	C 	0.87853	0.56197	0.13267	-0.172
Mof_H 	H 	0.87523	0.56987	0.18947	0.095
Mof_C 	C 	0.90643	0.54737	0.11727	0.091
Mof_H 	H 	0.92223	0.54497	0.16347	0.017
Mof_C 	C 	0.82583	0.58497	0.07597	-0.072
Mof_C 	C 	0.84519	0.62475	0.12307	-0.048
Mof_H 	H 	0.87413	0.63767	0.13947	0.048
Mof_C 	C 	0.74853	0.48697	0.05277	0.05
Mof_C 	C 	0.74553	0.45287	0.98567	-0.003
Mof_O 	O 	0.147	0.77636	0.4155	-0.422
Mof_O 	O 	0.15403	0.76884	0.2717	-0.408
Mof_C 	C 	0.1447	0.7545	0.3498	0.394
Mof_C 	C 	0.13086	0.70884	0.3629	-0.154
Mof_C 	C 	0.1319	0.683	0.2959	0.096
Mof_H 	H 	0.1437	0.6951	0.2413	0.015
Mof_C 	C 	0.1157	0.6396	0.3098	-0.164
Mof_H 	H 	0.1139	0.6214	0.2639	0.105
Mof_C 	C 	0.10179	0.6234	0.3965	0.124
Mof_C 	C 	0.1047	0.6499	0.466	-0.172
Mof_H 	H 	0.0968	0.6387	0.5228	0.095
Mof_C 	C 	0.1193	0.6924	0.4506	0.091
Mof_H 	H 	0.1217	0.7106	0.4968	0.017
Mof_C 	C 	0.0817	0.5742	0.4093	-0.072
Mof_C 	C 	0.04192	0.55378	0.4564	-0.048
Mof_H 	H 	0.029	0.5698	0.4728	0.048
Mof_C 	C 	0.1797	0.5949	0.3861	0.05
Mof_C 	C 	0.2138	0.626	0.319	-0.003
Mof_O 	O 	0.81367	0.10969	0.74883	-0.422
Mof_O 	O 	0.8207	0.10217	0.60503	-0.408
Mof_C 	C 	0.81137	0.08783	0.68313	0.394
Mof_C 	C 	0.79753	0.04217	0.69623	-0.154
Mof_C 	C 	0.79857	0.01633	0.62923	0.096
Mof_H 	H 	0.81037	0.02843	0.57463	0.015
Mof_C 	C 	0.78237	0.97293	0.64313	-0.164
Mof_H 	H 	0.78057	0.95473	0.59723	0.105
Mof_C 	C 	0.76846	0.95673	0.72983	0.124
Mof_C 	C 	0.77137	0.98323	0.79933	-0.171
Mof_H 	H 	0.76347	0.97203	0.85613	0.095
Mof_C 	C 	0.78597	0.02573	0.78393	0.09
Mof_H 	H 	0.78837	0.04393	0.83013	0.017
Mof_C 	C 	0.74837	0.90753	0.74263	-0.071
Mof_C 	C 	0.70859	0.88711	0.78973	-0.048
Mof_H 	H 	0.69567	0.90313	0.80613	0.048
Mof_C 	C 	0.84637	0.92823	0.71943	0.05
Mof_C 	C 	0.88047	0.95933	0.65233	-0.003
Mof_O 	O 	0.48033	0.44303	0.08217	-0.422
Mof_O 	O 	0.48736	0.43551	0.93837	-0.408
Mof_C 	C 	0.47803	0.42117	0.01647	0.394
Mof_C 	C 	0.46419	0.37551	0.02957	-0.154
Mof_C 	C 	0.46523	0.34967	0.96257	0.096
Mof_H 	H 	0.47703	0.36177	0.90797	0.015
Mof_C 	C 	0.44903	0.30627	0.97647	-0.164
Mof_H 	H 	0.44723	0.28807	0.93057	0.105
Mof_C 	C 	0.43512	0.29007	0.06317	0.124
Mof_C 	C 	0.43803	0.31657	0.13267	-0.172
Mof_H 	H 	0.43013	0.30537	0.18947	0.095
Mof_C 	C 	0.45263	0.35907	0.11727	0.091
Mof_H 	H 	0.45503	0.37727	0.16347	0.017
Mof_C 	C 	0.41503	0.24087	0.07597	-0.072
Mof_C 	C 	0.37525	0.22045	0.12307	-0.048
Mof_H 	H 	0.36233	0.23647	0.13947	0.048
Mof_C 	C 	0.51303	0.26157	0.05277	0.05
Mof_C 	C 	0.54713	0.29267	0.98567	-0.003
Mof_O 	O 	0.37064	0.22364	0.5845	-0.422
Mof_O 	O 	0.38519	0.23116	0.7283	-0.408
Mof_C 	C 	0.3902	0.2455	0.6502	0.394
Mof_C 	C 	0.42202	0.29116	0.6371	-0.154
Mof_C 	C 	0.4489	0.317	0.7041	0.096
Mof_H 	H 	0.4486	0.3049	0.7587	0.015
Mof_C 	C 	0.4761	0.3604	0.6902	-0.164
Mof_H 	H 	0.4925	0.3786	0.7361	0.105
Mof_C 	C 	0.47839	0.3766	0.6035	0.124
Mof_C 	C 	0.4548	0.3501	0.534	-0.172
Mof_H 	H 	0.4581	0.3613	0.4772	0.095
Mof_C 	C 	0.4269	0.3076	0.5494	0.091
Mof_H 	H 	0.4111	0.2894	0.5032	0.017
Mof_C 	C 	0.5075	0.4258	0.5907	-0.072
Mof_C 	C 	0.48814	0.44622	0.5436	-0.048
Mof_H 	H 	0.4592	0.4302	0.5272	0.048
Mof_C 	C 	0.5848	0.4051	0.6139	0.05
Mof_C 	C 	0.5878	0.374	0.681	-0.003
Mof_O 	O 	0.03731	0.55697	0.91783	-0.422
Mof_O 	O 	0.05186	0.56449	0.06163	-0.409
Mof_C 	C 	0.05687	0.57883	0.98353	0.394
Mof_C 	C 	0.08869	0.62449	0.97043	-0.154
Mof_C 	C 	0.11557	0.65033	0.03743	0.096
Mof_H 	H 	0.11527	0.63823	0.09203	0.015
Mof_C 	C 	0.14277	0.69373	0.02353	-0.164
Mof_H 	H 	0.15917	0.71193	0.06943	0.105
Mof_C 	C 	0.14506	0.70993	0.93683	0.124
Mof_C 	C 	0.12147	0.68343	0.86733	-0.172
Mof_H 	H 	0.12477	0.69463	0.81053	0.095
Mof_C 	C 	0.09357	0.64093	0.88273	0.091
Mof_H 	H 	0.07777	0.62273	0.83653	0.017
Mof_C 	C 	0.17417	0.75913	0.92403	-0.072
Mof_C 	C 	0.15481	0.77955	0.87693	-0.048
Mof_H 	H 	0.12587	0.76353	0.86053	0.048
Mof_C 	C 	0.25147	0.73843	0.94723	0.05
Mof_C 	C 	0.25447	0.70733	0.01433	-0.003
Mof_O 	O 	0.70397	0.89031	0.25117	-0.422
Mof_O 	O 	0.71852	0.89783	0.39497	-0.408
Mof_C 	C 	0.72353	0.91217	0.31687	0.393
Mof_C 	C 	0.75535	0.95783	0.30377	-0.154
Mof_C 	C 	0.78223	0.98367	0.37077	0.095
Mof_H 	H 	0.78193	0.97157	0.42537	0.015
Mof_C 	C 	0.80943	0.02707	0.35687	-0.163
Mof_H 	H 	0.82583	0.04527	0.40277	0.105
Mof_C 	C 	0.81172	0.04327	0.27017	0.124
Mof_C 	C 	0.78813	0.01677	0.20067	-0.171
Mof_H 	H 	0.79143	0.02797	0.14387	0.095
Mof_C 	C 	0.76023	0.97427	0.21607	0.09
Mof_H 	H 	0.74443	0.95607	0.16987	0.017
Mof_C 	C 	0.84083	0.09247	0.25737	-0.071
Mof_C 	C 	0.82147	0.11289	0.21027	-0.048
Mof_H 	H 	0.79253	0.09687	0.19387	0.048
Mof_C 	C 	0.91813	0.07177	0.28057	0.05
Mof_C 	C 	0.92113	0.04067	0.34767	-0.003
Mof_O 	O 	0.853	0.62936	0.5845	-0.422
Mof_O 	O 	0.84597	0.61481	0.7283	-0.408
Mof_C 	C 	0.8553	0.6098	0.6502	0.394
Mof_C 	C 	0.86914	0.57798	0.6371	-0.154
Mof_C 	C 	0.8681	0.5511	0.7041	0.096
Mof_H 	H 	0.8563	0.5514	0.7587	0.015
Mof_C 	C 	0.8843	0.5239	0.6902	-0.164
Mof_H 	H 	0.8861	0.5075	0.7361	0.105
Mof_C 	C 	0.89821	0.52161	0.6035	0.124
Mof_C 	C 	0.8953	0.5452	0.534	-0.172
Mof_H 	H 	0.9032	0.5419	0.4772	0.095
Mof_C 	C 	0.8807	0.5731	0.5494	0.091
Mof_H 	H 	0.8783	0.5889	0.5032	0.017
Mof_C 	C 	0.9183	0.4925	0.5907	-0.072
Mof_C 	C 	0.95808	0.51186	0.5436	-0.048
Mof_H 	H 	0.971	0.5408	0.5272	0.048
Mof_C 	C 	0.8203	0.4152	0.6139	0.05
Mof_C 	C 	0.7862	0.4122	0.681	-0.003
Mof_O 	O 	0.51967	0.96269	0.91783	-0.421
Mof_O 	O 	0.51264	0.94814	0.06163	-0.408
Mof_C 	C 	0.52197	0.94313	0.98353	0.394
Mof_C 	C 	0.53581	0.91131	0.97043	-0.154
Mof_C 	C 	0.53477	0.88443	0.03743	0.096
Mof_H 	H 	0.52297	0.88473	0.09203	0.015
Mof_C 	C 	0.55097	0.85723	0.02353	-0.164
Mof_H 	H 	0.55277	0.84083	0.06943	0.105
Mof_C 	C 	0.56488	0.85494	0.93683	0.124
Mof_C 	C 	0.56197	0.87853	0.86733	-0.172
Mof_H 	H 	0.56987	0.87523	0.81053	0.095
Mof_C 	C 	0.54737	0.90643	0.88273	0.091
Mof_H 	H 	0.54497	0.92223	0.83653	0.017
Mof_C 	C 	0.58497	0.82583	0.92403	-0.072
Mof_C 	C 	0.62475	0.84519	0.87693	-0.048
Mof_H 	H 	0.63767	0.87413	0.86053	0.048
Mof_C 	C 	0.48697	0.74853	0.94723	0.05
Mof_C 	C 	0.45287	0.74553	0.01433	-0.003
Mof_O 	O 	0.18633	0.29603	0.25117	-0.422
Mof_O 	O 	0.1793	0.28148	0.39497	-0.408
Mof_C 	C 	0.18863	0.27647	0.31687	0.394
Mof_C 	C 	0.20247	0.24465	0.30377	-0.154
Mof_C 	C 	0.20143	0.21777	0.37077	0.096
Mof_H 	H 	0.18963	0.21807	0.42537	0.015
Mof_C 	C 	0.21763	0.19057	0.35687	-0.164
Mof_H 	H 	0.21943	0.17417	0.40277	0.105
Mof_C 	C 	0.23154	0.18828	0.27017	0.124
Mof_C 	C 	0.22863	0.21187	0.20067	-0.172
Mof_H 	H 	0.23653	0.20857	0.14387	0.095
Mof_C 	C 	0.21403	0.23977	0.21607	0.091
Mof_H 	H 	0.21163	0.25557	0.16987	0.017
Mof_C 	C 	0.25163	0.15917	0.25737	-0.072
Mof_C 	C 	0.29141	0.17853	0.21027	-0.048
Mof_H 	H 	0.30433	0.20747	0.19387	0.048
Mof_C 	C 	0.15363	0.08187	0.28057	0.05
Mof_C 	C 	0.11953	0.07887	0.34767	-0.003
Mof_O 	O 	0.77636	0.147	0.5845	-0.422
Mof_O 	O 	0.76884	0.15403	0.7283	-0.408
Mof_C 	C 	0.7545	0.1447	0.6502	0.394
Mof_C 	C 	0.70884	0.13086	0.6371	-0.154
Mof_C 	C 	0.683	0.1319	0.7041	0.096
Mof_H 	H 	0.6951	0.1437	0.7587	0.015
Mof_C 	C 	0.6396	0.1157	0.6902	-0.164
Mof_H 	H 	0.6214	0.1139	0.7361	0.105
Mof_C 	C 	0.6234	0.10179	0.6035	0.124
Mof_C 	C 	0.6499	0.1047	0.534	-0.172
Mof_H 	H 	0.6387	0.0968	0.4772	0.095
Mof_C 	C 	0.6924	0.1193	0.5494	0.091
Mof_H 	H 	0.7106	0.1217	0.5032	0.017
Mof_C 	C 	0.5742	0.0817	0.5907	-0.072
Mof_C 	C 	0.55378	0.04192	0.5436	-0.048
Mof_H 	H 	0.5698	0.029	0.5272	0.048
Mof_C 	C 	0.5949	0.1797	0.6139	0.05
Mof_C 	C 	0.626	0.2138	0.681	-0.003
Mof_O 	O 	0.44303	0.48033	0.91783	-0.422
Mof_O 	O 	0.43551	0.48736	0.06163	-0.408
Mof_C 	C 	0.42117	0.47803	0.98353	0.394
Mof_C 	C 	0.37551	0.46419	0.97043	-0.154
Mof_C 	C 	0.34967	0.46523	0.03743	0.096
Mof_H 	H 	0.36177	0.47703	0.09203	0.015
Mof_C 	C 	0.30627	0.44903	0.02353	-0.164
Mof_H 	H 	0.28807	0.44723	0.06943	0.105
Mof_C 	C 	0.29007	0.43512	0.93683	0.124
Mof_C 	C 	0.31657	0.43803	0.86733	-0.172
Mof_H 	H 	0.30537	0.43013	0.81053	0.095
Mof_C 	C 	0.35907	0.45263	0.88273	0.091
Mof_H 	H 	0.37727	0.45503	0.83653	0.017
Mof_C 	C 	0.24087	0.41503	0.92403	-0.072
Mof_C 	C 	0.22045	0.37525	0.87693	-0.048
Mof_H 	H 	0.23647	0.36233	0.86053	0.048
Mof_C 	C 	0.26157	0.51303	0.94723	0.05
Mof_C 	C 	0.29267	0.54713	0.01433	-0.003
Mof_O 	O 	0.10969	0.81367	0.25117	-0.422
Mof_O 	O 	0.10217	0.8207	0.39497	-0.408
Mof_C 	C 	0.08783	0.81137	0.31687	0.394
Mof_C 	C 	0.04217	0.79753	0.30377	-0.154
Mof_C 	C 	0.01633	0.79857	0.37077	0.096
Mof_H 	H 	0.02843	0.81037	0.42537	0.015
Mof_C 	C 	0.97293	0.78237	0.35687	-0.164
Mof_H 	H 	0.95473	0.78057	0.40277	0.105
Mof_C 	C 	0.95673	0.76846	0.27017	0.124
Mof_C 	C 	0.98323	0.77137	0.20067	-0.171
Mof_H 	H 	0.97203	0.76347	0.14387	0.095
Mof_C 	C 	0.02573	0.78597	0.21607	0.09
Mof_H 	H 	0.04393	0.78837	0.16987	0.017
Mof_C 	C 	0.90753	0.74837	0.25737	-0.071
Mof_C 	C 	0.88711	0.70859	0.21027	-0.048
Mof_H 	H 	0.90313	0.69567	0.19387	0.048
Mof_C 	C 	0.92823	0.84637	0.28057	0.05
Mof_C 	C 	0.95933	0.88047	0.34767	-0.003
Mof_O 	O 	0.77636	0.62936	0.5845	-0.422
Mof_O 	O 	0.76884	0.61481	0.7283	-0.408
Mof_C 	C 	0.7545	0.6098	0.6502	0.394
Mof_C 	C 	0.70884	0.57798	0.6371	-0.154
Mof_C 	C 	0.683	0.5511	0.7041	0.096
Mof_H 	H 	0.6951	0.5514	0.7587	0.015
Mof_C 	C 	0.6396	0.5239	0.6902	-0.164
Mof_H 	H 	0.6214	0.5075	0.7361	0.105
Mof_C 	C 	0.6234	0.52161	0.6035	0.124
Mof_C 	C 	0.6499	0.5452	0.534	-0.172
Mof_H 	H 	0.6387	0.5419	0.4772	0.095
Mof_C 	C 	0.6924	0.5731	0.5494	0.091
Mof_H 	H 	0.7106	0.5889	0.5032	0.017
Mof_C 	C 	0.5742	0.4925	0.5907	-0.072
Mof_C 	C 	0.55378	0.51186	0.5436	-0.048
Mof_H 	H 	0.5698	0.5408	0.5272	0.048
Mof_C 	C 	0.5949	0.4152	0.6139	0.05
Mof_C 	C 	0.626	0.4122	0.681	-0.003
Mof_O 	O 	0.44303	0.96269	0.91783	-0.422
Mof_O 	O 	0.43551	0.94814	0.06163	-0.409
Mof_C 	C 	0.42117	0.94313	0.98353	0.394
Mof_C 	C 	0.37551	0.91131	0.97043	-0.154
Mof_C 	C 	0.34967	0.88443	0.03743	0.096
Mof_H 	H 	0.36177	0.88473	0.09203	0.015
Mof_C 	C 	0.30627	0.85723	0.02353	-0.164
Mof_H 	H 	0.28807	0.84083	0.06943	0.105
Mof_C 	C 	0.29007	0.85494	0.93683	0.124
Mof_C 	C 	0.31657	0.87853	0.86733	-0.172
Mof_H 	H 	0.30537	0.87523	0.81053	0.095
Mof_C 	C 	0.35907	0.90643	0.88273	0.091
Mof_H 	H 	0.37727	0.92223	0.83653	0.017
Mof_C 	C 	0.24087	0.82583	0.92403	-0.072
Mof_C 	C 	0.22045	0.84519	0.87693	-0.048
Mof_H 	H 	0.23647	0.87413	0.86053	0.048
Mof_C 	C 	0.26157	0.74853	0.94723	0.05
Mof_C 	C 	0.29267	0.74553	0.01433	-0.003
Mof_O 	O 	0.10969	0.29603	0.25117	-0.422
Mof_O 	O 	0.10217	0.28148	0.39497	-0.408
Mof_C 	C 	0.08783	0.27647	0.31687	0.393
Mof_C 	C 	0.04217	0.24465	0.30377	-0.154
Mof_C 	C 	0.01633	0.21777	0.37077	0.095
Mof_H 	H 	0.02843	0.21807	0.42537	0.015
Mof_C 	C 	0.97293	0.19057	0.35687	-0.163
Mof_H 	H 	0.95473	0.17417	0.40277	0.105
Mof_C 	C 	0.95673	0.18828	0.27017	0.124
Mof_C 	C 	0.98323	0.21187	0.20067	-0.171
Mof_H 	H 	0.97203	0.20857	0.14387	0.095
Mof_C 	C 	0.02573	0.23977	0.21607	0.09
Mof_H 	H 	0.04393	0.25557	0.16987	0.017
Mof_C 	C 	0.90753	0.15917	0.25737	-0.071
Mof_C 	C 	0.88711	0.17853	0.21027	-0.048
Mof_H 	H 	0.90313	0.20747	0.19387	0.048
Mof_C 	C 	0.92823	0.08187	0.28057	0.05
Mof_C 	C 	0.95933	0.07887	0.34767	-0.003
Mof_O 	O 	0.37064	0.147	0.5845	-0.422
Mof_O 	O 	0.38519	0.15403	0.7283	-0.408
Mof_C 	C 	0.3902	0.1447	0.6502	0.394
Mof_C 	C 	0.42202	0.13086	0.6371	-0.154
Mof_C 	C 	0.4489	0.1319	0.7041	0.096
Mof_H 	H 	0.4486	0.1437	0.7587	0.015
Mof_C 	C 	0.4761	0.1157	0.6902	-0.164
Mof_H 	H 	0.4925	0.1139	0.7361	0.105
Mof_C 	C 	0.47839	0.10179	0.6035	0.124
Mof_C 	C 	0.4548	0.1047	0.534	-0.172
Mof_H 	H 	0.4581	0.0968	0.4772	0.095
Mof_C 	C 	0.4269	0.1193	0.5494	0.091
Mof_H 	H 	0.4111	0.1217	0.5032	0.017
Mof_C 	C 	0.5075	0.0817	0.5907	-0.072
Mof_C 	C 	0.48814	0.04192	0.5436	-0.048
Mof_H 	H 	0.4592	0.029	0.5272	0.048
Mof_C 	C 	0.5848	0.1797	0.6139	0.05
Mof_C 	C 	0.5878	0.2138	0.681	-0.003
Mof_O 	O 	0.03731	0.48033	0.91783	-0.421
Mof_O 	O 	0.05186	0.48736	0.06163	-0.408
Mof_C 	C 	0.05687	0.47803	0.98353	0.394
Mof_C 	C 	0.08869	0.46419	0.97043	-0.154
Mof_C 	C 	0.11557	0.46523	0.03743	0.096
Mof_H 	H 	0.11527	0.47703	0.09203	0.015
Mof_C 	C 	0.14277	0.44903	0.02353	-0.164
Mof_H 	H 	0.15917	0.44723	0.06943	0.105
Mof_C 	C 	0.14506	0.43512	0.93683	0.124
Mof_C 	C 	0.12147	0.43803	0.86733	-0.172
Mof_H 	H 	0.12477	0.43013	0.81053	0.095
Mof_C 	C 	0.09357	0.45263	0.88273	0.091
Mof_H 	H 	0.07777	0.45503	0.83653	0.017
Mof_C 	C 	0.17417	0.41503	0.92403	-0.072
Mof_C 	C 	0.15481	0.37525	0.87693	-0.048
Mof_H 	H 	0.12587	0.36233	0.86053	0.048
Mof_C 	C 	0.25147	0.51303	0.94723	0.05
Mof_C 	C 	0.25447	0.54713	0.01433	-0.003
Mof_O 	O 	0.70397	0.81367	0.25117	-0.422
Mof_O 	O 	0.71852	0.8207	0.39497	-0.408
Mof_C 	C 	0.72353	0.81137	0.31687	0.394
Mof_C 	C 	0.75535	0.79753	0.30377	-0.154
Mof_C 	C 	0.78223	0.79857	0.37077	0.096
Mof_H 	H 	0.78193	0.81037	0.42537	0.015
Mof_C 	C 	0.80943	0.78237	0.35687	-0.164
Mof_H 	H 	0.82583	0.78057	0.40277	0.105
Mof_C 	C 	0.81172	0.76846	0.27017	0.124
Mof_C 	C 	0.78813	0.77137	0.20067	-0.172
Mof_H 	H 	0.79143	0.76347	0.14387	0.095
Mof_C 	C 	0.76023	0.78597	0.21607	0.091
Mof_H 	H 	0.74443	0.78837	0.16987	0.017
Mof_C 	C 	0.84083	0.74837	0.25737	-0.072
Mof_C 	C 	0.82147	0.70859	0.21027	-0.048
Mof_H 	H 	0.79253	0.69567	0.19387	0.048
Mof_C 	C 	0.91813	0.84637	0.28057	0.05
Mof_C 	C 	0.92113	0.88047	0.34767	-0.003
Mof_O 	O 	0.853	0.22364	0.5845	-0.422
Mof_O 	O 	0.84597	0.23116	0.7283	-0.408
Mof_C 	C 	0.8553	0.2455	0.6502	0.394
Mof_C 	C 	0.86914	0.29116	0.6371	-0.154
Mof_C 	C 	0.8681	0.317	0.7041	0.096
Mof_H 	H 	0.8563	0.3049	0.7587	0.015
Mof_C 	C 	0.8843	0.3604	0.6902	-0.164
Mof_H 	H 	0.8861	0.3786	0.7361	0.105
Mof_C 	C 	0.89821	0.3766	0.6035	0.124
Mof_C 	C 	0.8953	0.3501	0.534	-0.172
Mof_H 	H 	0.9032	0.3613	0.4772	0.095
Mof_C 	C 	0.8807	0.3076	0.5494	0.091
Mof_H 	H 	0.8783	0.2894	0.5032	0.017
Mof_C 	C 	0.9183	0.4258	0.5907	-0.072
Mof_C 	C 	0.95808	0.44622	0.5436	-0.048
Mof_H 	H 	0.971	0.4302	0.5272	0.048
Mof_C 	C 	0.8203	0.4051	0.6139	0.05
Mof_C 	C 	0.7862	0.374	0.681	-0.003
Mof_O 	O 	0.51967	0.55697	0.91783	-0.422
Mof_O 	O 	0.51264	0.56449	0.06163	-0.408
Mof_C 	C 	0.52197	0.57883	0.98353	0.394
Mof_C 	C 	0.53581	0.62449	0.97043	-0.154
Mof_C 	C 	0.53477	0.65033	0.03743	0.096
Mof_H 	H 	0.52297	0.63823	0.09203	0.015
Mof_C 	C 	0.55097	0.69373	0.02353	-0.164
Mof_H 	H 	0.55277	0.71193	0.06943	0.105
Mof_C 	C 	0.56488	0.70993	0.93683	0.124
Mof_C 	C 	0.56197	0.68343	0.86733	-0.172
Mof_H 	H 	0.56987	0.69463	0.81053	0.095
Mof_C 	C 	0.54737	0.64093	0.88273	0.091
Mof_H 	H 	0.54497	0.62273	0.83653	0.017
Mof_C 	C 	0.58497	0.75913	0.92403	-0.072
Mof_C 	C 	0.62475	0.77955	0.87693	-0.048
Mof_H 	H 	0.63767	0.76353	0.86053	0.048
Mof_C 	C 	0.48697	0.73843	0.94723	0.05
Mof_C 	C 	0.45287	0.70733	0.01433	-0.003
Mof_O 	O 	0.18633	0.89031	0.25117	-0.422
Mof_O 	O 	0.1793	0.89783	0.39497	-0.408
Mof_C 	C 	0.18863	0.91217	0.31687	0.394
Mof_C 	C 	0.20247	0.95783	0.30377	-0.154
Mof_C 	C 	0.20143	0.98367	0.37077	0.096
Mof_H 	H 	0.18963	0.97157	0.42537	0.015
Mof_C 	C 	0.21763	0.02707	0.35687	-0.164
Mof_H 	H 	0.21943	0.04527	0.40277	0.105
Mof_C 	C 	0.23154	0.04327	0.27017	0.124
Mof_C 	C 	0.22863	0.01677	0.20067	-0.171
Mof_H 	H 	0.23653	0.02797	0.14387	0.095
Mof_C 	C 	0.21403	0.97427	0.21607	0.09
Mof_H 	H 	0.21163	0.95607	0.16987	0.017
Mof_C 	C 	0.25163	0.09247	0.25737	-0.071
Mof_C 	C 	0.29141	0.11289	0.21027	-0.048
Mof_H 	H 	0.30433	0.09687	0.19387	0.048
Mof_C 	C 	0.15363	0.07177	0.28057	0.05
Mof_C 	C 	0.11953	0.04067	0.34767	-0.003
Mof_O 	O 	0.62936	0.77636	0.4155	-0.422
Mof_O 	O 	0.61481	0.76884	0.2717	-0.408
Mof_C 	C 	0.6098	0.7545	0.3498	0.394
Mof_C 	C 	0.57798	0.70884	0.3629	-0.154
Mof_C 	C 	0.5511	0.683	0.2959	0.096
Mof_H 	H 	0.5514	0.6951	0.2413	0.015
Mof_C 	C 	0.5239	0.6396	0.3098	-0.164
Mof_H 	H 	0.5075	0.6214	0.2639	0.105
Mof_C 	C 	0.52161	0.6234	0.3965	0.124
Mof_C 	C 	0.5452	0.6499	0.466	-0.172
Mof_H 	H 	0.5419	0.6387	0.5228	0.095
Mof_C 	C 	0.5731	0.6924	0.4506	0.091
Mof_H 	H 	0.5889	0.7106	0.4968	0.017
Mof_C 	C 	0.4925	0.5742	0.4093	-0.072
Mof_C 	C 	0.51186	0.55378	0.4564	-0.048
Mof_H 	H 	0.5408	0.5698	0.4728	0.048
Mof_C 	C 	0.4152	0.5949	0.3861	0.05
Mof_C 	C 	0.4122	0.626	0.319	-0.003
Mof_O 	O 	0.29603	0.10969	0.74883	-0.422
Mof_O 	O 	0.28148	0.10217	0.60503	-0.408
Mof_C 	C 	0.27647	0.08783	0.68313	0.393
Mof_C 	C 	0.24465	0.04217	0.69623	-0.154
Mof_C 	C 	0.21777	0.01633	0.62923	0.095
Mof_H 	H 	0.21807	0.02843	0.57463	0.015
Mof_C 	C 	0.19057	0.97293	0.64313	-0.163
Mof_H 	H 	0.17417	0.95473	0.59723	0.105
Mof_C 	C 	0.18828	0.95673	0.72983	0.124
Mof_C 	C 	0.21187	0.98323	0.79933	-0.171
Mof_H 	H 	0.20857	0.97203	0.85613	0.095
Mof_C 	C 	0.23977	0.02573	0.78393	0.09
Mof_H 	H 	0.25557	0.04393	0.83013	0.017
Mof_C 	C 	0.15917	0.90753	0.74263	-0.071
Mof_C 	C 	0.17853	0.88711	0.78973	-0.048
Mof_H 	H 	0.20747	0.90313	0.80613	0.048
Mof_C 	C 	0.08187	0.92823	0.71943	0.05
Mof_C 	C 	0.07887	0.95933	0.65233	-0.003
Mof_O 	O 	0.96269	0.44303	0.08217	-0.422
Mof_O 	O 	0.94814	0.43551	0.93837	-0.409
Mof_C 	C 	0.94313	0.42117	0.01647	0.394
Mof_C 	C 	0.91131	0.37551	0.02957	-0.154
Mof_C 	C 	0.88443	0.34967	0.96257	0.096
Mof_H 	H 	0.88473	0.36177	0.90797	0.015
Mof_C 	C 	0.85723	0.30627	0.97647	-0.164
Mof_H 	H 	0.84083	0.28807	0.93057	0.105
Mof_C 	C 	0.85494	0.29007	0.06317	0.124
Mof_C 	C 	0.87853	0.31657	0.13267	-0.172
Mof_H 	H 	0.87523	0.30537	0.18947	0.095
Mof_C 	C 	0.90643	0.35907	0.11727	0.091
Mof_H 	H 	0.92223	0.37727	0.16347	0.017
Mof_C 	C 	0.82583	0.24087	0.07597	-0.072
Mof_C 	C 	0.84519	0.22045	0.12307	-0.048
Mof_H 	H 	0.87413	0.23647	0.13947	0.048
Mof_C 	C 	0.74853	0.26157	0.05277	0.05
Mof_C 	C 	0.74553	0.29267	0.98567	-0.003
Mof_O 	O 	0.147	0.37064	0.4155	-0.422
Mof_O 	O 	0.15403	0.38519	0.2717	-0.408
Mof_C 	C 	0.1447	0.3902	0.3498	0.394
Mof_C 	C 	0.13086	0.42202	0.3629	-0.154
Mof_C 	C 	0.1319	0.4489	0.2959	0.096
Mof_H 	H 	0.1437	0.4486	0.2413	0.015
Mof_C 	C 	0.1157	0.4761	0.3098	-0.164
Mof_H 	H 	0.1139	0.4925	0.2639	0.105
Mof_C 	C 	0.10179	0.47839	0.3965	0.124
Mof_C 	C 	0.1047	0.4548	0.466	-0.172
Mof_H 	H 	0.0968	0.4581	0.5228	0.095
Mof_C 	C 	0.1193	0.4269	0.4506	0.091
Mof_H 	H 	0.1217	0.4111	0.4968	0.017
Mof_C 	C 	0.0817	0.5075	0.4093	-0.072
Mof_C 	C 	0.04192	0.48814	0.4564	-0.048
Mof_H 	H 	0.029	0.4592	0.4728	0.048
Mof_C 	C 	0.1797	0.5848	0.3861	0.05
Mof_C 	C 	0.2138	0.5878	0.319	-0.003
Mof_O 	O 	0.81367	0.70397	0.74883	-0.422
Mof_O 	O 	0.8207	0.71852	0.60503	-0.408
Mof_C 	C 	0.81137	0.72353	0.68313	0.394
Mof_C 	C 	0.79753	0.75535	0.69623	-0.154
Mof_C 	C 	0.79857	0.78223	0.62923	0.096
Mof_H 	H 	0.81037	0.78193	0.57463	0.015
Mof_C 	C 	0.78237	0.80943	0.64313	-0.164
Mof_H 	H 	0.78057	0.82583	0.59723	0.105
Mof_C 	C 	0.76846	0.81172	0.72983	0.124
Mof_C 	C 	0.77137	0.78813	0.79933	-0.172
Mof_H 	H 	0.76347	0.79143	0.85613	0.095
Mof_C 	C 	0.78597	0.76023	0.78393	0.091
Mof_H 	H 	0.78837	0.74443	0.83013	0.017
Mof_C 	C 	0.74837	0.84083	0.74263	-0.072
Mof_C 	C 	0.70859	0.82147	0.78973	-0.048
Mof_H 	H 	0.69567	0.79253	0.80613	0.048
Mof_C 	C 	0.84637	0.91813	0.71943	0.05
Mof_C 	C 	0.88047	0.92113	0.65233	-0.003
Mof_O 	O 	0.48033	0.03731	0.08217	-0.421
Mof_O 	O 	0.48736	0.05186	0.93837	-0.408
Mof_C 	C 	0.47803	0.05687	0.01647	0.394
Mof_C 	C 	0.46419	0.08869	0.02957	-0.154
Mof_C 	C 	0.46523	0.11557	0.96257	0.096
Mof_H 	H 	0.47703	0.11527	0.90797	0.015
Mof_C 	C 	0.44903	0.14277	0.97647	-0.164
Mof_H 	H 	0.44723	0.15917	0.93057	0.105
Mof_C 	C 	0.43512	0.14506	0.06317	0.124
Mof_C 	C 	0.43803	0.12147	0.13267	-0.172
Mof_H 	H 	0.43013	0.12477	0.18947	0.095
Mof_C 	C 	0.45263	0.09357	0.11727	0.091
Mof_H 	H 	0.45503	0.07777	0.16347	0.017
Mof_C 	C 	0.41503	0.17417	0.07597	-0.072
Mof_C 	C 	0.37525	0.15481	0.12307	-0.048
Mof_H 	H 	0.36233	0.12587	0.13947	0.048
Mof_C 	C 	0.51303	0.25147	0.05277	0.05
Mof_C 	C 	0.54713	0.25447	0.98567	-0.003
Mof_O 	O 	0.22364	0.853	0.4155	-0.422
Mof_O 	O 	0.23116	0.84597	0.2717	-0.408
Mof_C 	C 	0.2455	0.8553	0.3498	0.394
Mof_C 	C 	0.29116	0.86914	0.3629	-0.154
Mof_C 	C 	0.317	0.8681	0.2959	0.096
Mof_H 	H 	0.3049	0.8563	0.2413	0.015
Mof_C 	C 	0.3604	0.8843	0.3098	-0.164
Mof_H 	H 	0.3786	0.8861	0.2639	0.105
Mof_C 	C 	0.3766	0.89821	0.3965	0.124
Mof_C 	C 	0.3501	0.8953	0.466	-0.172
Mof_H 	H 	0.3613	0.9032	0.5228	0.095
Mof_C 	C 	0.3076	0.8807	0.4506	0.091
Mof_H 	H 	0.2894	0.8783	0.4968	0.017
Mof_C 	C 	0.4258	0.9183	0.4093	-0.072
Mof_C 	C 	0.44622	0.95808	0.4564	-0.048
Mof_H 	H 	0.4302	0.971	0.4728	0.048
Mof_C 	C 	0.4051	0.8203	0.3861	0.05
Mof_C 	C 	0.374	0.7862	0.319	-0.003
Mof_O 	O 	0.89031	0.18633	0.74883	-0.422
Mof_O 	O 	0.89783	0.1793	0.60503	-0.408
Mof_C 	C 	0.91217	0.18863	0.68313	0.394
Mof_C 	C 	0.95783	0.20247	0.69623	-0.154
Mof_C 	C 	0.98367	0.20143	0.62923	0.096
Mof_H 	H 	0.97157	0.18963	0.57463	0.015
Mof_C 	C 	0.02707	0.21763	0.64313	-0.164
Mof_H 	H 	0.04527	0.21943	0.59723	0.105
Mof_C 	C 	0.04327	0.23154	0.72983	0.124
Mof_C 	C 	0.01677	0.22863	0.79933	-0.171
Mof_H 	H 	0.02797	0.23653	0.85613	0.095
Mof_C 	C 	0.97427	0.21403	0.78393	0.09
Mof_H 	H 	0.95607	0.21163	0.83013	0.017
Mof_C 	C 	0.09247	0.25163	0.74263	-0.071
Mof_C 	C 	0.11289	0.29141	0.78973	-0.048
Mof_H 	H 	0.09687	0.30433	0.80613	0.048
Mof_C 	C 	0.07177	0.15363	0.71943	0.05
Mof_C 	C 	0.04067	0.11953	0.65233	-0.003
Mof_O 	O 	0.55697	0.51967	0.08217	-0.422
Mof_O 	O 	0.56449	0.51264	0.93837	-0.408
Mof_C 	C 	0.57883	0.52197	0.01647	0.394
Mof_C 	C 	0.62449	0.53581	0.02957	-0.154
Mof_C 	C 	0.65033	0.53477	0.96257	0.096
Mof_H 	H 	0.63823	0.52297	0.90797	0.015
Mof_C 	C 	0.69373	0.55097	0.97647	-0.164
Mof_H 	H 	0.71193	0.55277	0.93057	0.105
Mof_C 	C 	0.70993	0.56488	0.06317	0.124
Mof_C 	C 	0.68343	0.56197	0.13267	-0.172
Mof_H 	H 	0.69463	0.56987	0.18947	0.095
Mof_C 	C 	0.64093	0.54737	0.11727	0.091
Mof_H 	H 	0.62273	0.54497	0.16347	0.017
Mof_C 	C 	0.75913	0.58497	0.07597	-0.072
Mof_C 	C 	0.77955	0.62475	0.12307	-0.048
Mof_H 	H 	0.76353	0.63767	0.13947	0.048
Mof_C 	C 	0.73843	0.48697	0.05277	0.05
Mof_C 	C 	0.70733	0.45287	0.98567	-0.003
Mof_Cu	Cu	0.17088	0.34176	0.2484	0.905
Mof_Cu	Cu	0.83755	0.67509	0.58173	0.905
Mof_Cu	Cu	0.50421	0.00843	0.91507	0.905
Mof_Cu	Cu	0.65824	0.82912	0.2484	0.905
Mof_Cu	Cu	0.32491	0.16245	0.58173	0.905
Mof_Cu	Cu	0.99157	0.49579	0.91507	0.905
Mof_Cu	Cu	0.17088	0.82912	0.2484	0.905
Mof_Cu	Cu	0.83755	0.16245	0.58173	0.905
Mof_Cu	Cu	0.50421	0.49579	0.91507	0.905
Mof_Cu	Cu	0.34176	0.17088	0.7516	0.905
Mof_Cu	Cu	0.00843	0.50421	0.08493	0.905
Mof_Cu	Cu	0.67509	0.83755	0.41827	0.905
Mof_Cu	Cu	0.82912	0.65824	0.7516	0.905
Mof_Cu	Cu	0.49579	0.99157	0.08493	0.905
Mof_Cu	Cu	0.16245	0.32491	0.41827	0.905
Mof_Cu	Cu	0.82912	0.17088	0.7516	0.905
Mof_Cu	Cu	0.49579	0.50421	0.08493	0.905
Mof_Cu	Cu	0.16245	0.83755	0.41827	0.905
Mof_O 	O 	0.42977	0.57023	0.3467	-0.227
Mof_C 	C 	0.48872	0.51128	0.4777	0.01
Mof_C 	C 	0.44927	0.55073	0.39	0.151
Mof_C 	C 	0.4083	0.5917	0.4846	-0.022
Mof_O 	O 	0.09644	0.90356	0.68003	-0.227
Mof_C 	C 	0.15539	0.84461	0.81103	0.01
Mof_C 	C 	0.11594	0.88406	0.72333	0.151
Mof_C 	C 	0.07497	0.92503	0.81793	-0.022
Mof_O 	O 	0.7631	0.2369	0.01337	-0.227
Mof_C 	C 	0.82205	0.17795	0.14437	0.01
Mof_C 	C 	0.7826	0.2174	0.05667	0.151
Mof_C 	C 	0.74163	0.25837	0.15127	-0.022
Mof_O 	O 	0.42977	0.85954	0.3467	-0.227
Mof_C 	C 	0.48872	0.97744	0.4777	0.01
Mof_C 	C 	0.44927	0.89854	0.39	0.151
Mof_C 	C 	0.4083	0.8166	0.4846	-0.022
Mof_O 	O 	0.09644	0.19287	0.68003	-0.227
Mof_C 	C 	0.15539	0.31077	0.81103	0.01
Mof_C 	C 	0.11594	0.23187	0.72333	0.151
Mof_C 	C 	0.07497	0.14993	0.81793	-0.022
Mof_O 	O 	0.7631	0.52621	0.01337	-0.227
Mof_C 	C 	0.82205	0.64411	0.14437	0.01
Mof_C 	C 	0.7826	0.56521	0.05667	0.151
Mof_C 	C 	0.74163	0.48327	0.15127	-0.022
Mof_O 	O 	0.14046	0.57023	0.3467	-0.227
Mof_C 	C 	0.02256	0.51128	0.4777	0.01
Mof_C 	C 	0.10146	0.55073	0.39	0.151
Mof_C 	C 	0.1834	0.5917	0.4846	-0.022
Mof_O 	O 	0.80713	0.90356	0.68003	-0.227
Mof_C 	C 	0.68923	0.84461	0.81103	0.01
Mof_C 	C 	0.76813	0.88406	0.72333	0.151
Mof_C 	C 	0.85007	0.92503	0.81793	-0.022
Mof_O 	O 	0.47379	0.2369	0.01337	-0.227
Mof_C 	C 	0.35589	0.17795	0.14437	0.01
Mof_C 	C 	0.43479	0.2174	0.05667	0.151
Mof_C 	C 	0.51673	0.25837	0.15127	-0.022
Mof_O 	O 	0.57023	0.42977	0.6533	-0.227
Mof_C 	C 	0.51128	0.48872	0.5223	0.01
Mof_C 	C 	0.55073	0.44927	0.61	0.151
Mof_C 	C 	0.5917	0.4083	0.5154	-0.022
Mof_O 	O 	0.2369	0.7631	0.98663	-0.227
Mof_C 	C 	0.17795	0.82205	0.85563	0.01
Mof_C 	C 	0.2174	0.7826	0.94333	0.151
Mof_C 	C 	0.25837	0.74163	0.84873	-0.022
Mof_O 	O 	0.90356	0.09644	0.31997	-0.227
Mof_C 	C 	0.84461	0.15539	0.18897	0.01
Mof_C 	C 	0.88406	0.11594	0.27667	0.151
Mof_C 	C 	0.92503	0.07497	0.18207	-0.022
Mof_O 	O 	0.85954	0.42977	0.6533	-0.227
Mof_C 	C 	0.97744	0.48872	0.5223	0.01
Mof_C 	C 	0.89854	0.44927	0.61	0.151
Mof_C 	C 	0.8166	0.4083	0.5154	-0.022
Mof_O 	O 	0.52621	0.7631	0.98663	-0.227
Mof_C 	C 	0.64411	0.82205	0.85563	0.01
Mof_C 	C 	0.56521	0.7826	0.94333	0.151
Mof_C 	C 	0.48327	0.74163	0.84873	-0.022
Mof_O 	O 	0.19287	0.09644	0.31997	-0.227
Mof_C 	C 	0.31077	0.15539	0.18897	0.01
Mof_C 	C 	0.23187	0.11594	0.27667	0.151
Mof_C 	C 	0.14993	0.07497	0.18207	-0.022
Mof_O 	O 	0.57023	0.14046	0.6533	-0.227
Mof_C 	C 	0.51128	0.02256	0.5223	0.01
Mof_C 	C 	0.55073	0.10146	0.61	0.151
Mof_C 	C 	0.5917	0.1834	0.5154	-0.022
Mof_O 	O 	0.2369	0.47379	0.98663	-0.227
Mof_C 	C 	0.17795	0.35589	0.85563	0.01
Mof_C 	C 	0.2174	0.43479	0.94333	0.151
Mof_C 	C 	0.25837	0.51673	0.84873	-0.022
Mof_O 	O 	0.90356	0.80713	0.31997	-0.227
Mof_C 	C 	0.84461	0.68923	0.18897	0.01
Mof_C 	C 	0.88406	0.76813	0.27667	0.151
Mof_C 	C 	0.92503	0.85007	0.18207	-0.022
_end
