data_functionalizedCrystal
_audit_creation_method	'EQeq! by Chris Wilmer'
_symmetry_space_group_name_H-M	'P1'
_symmetry_Int_Tables_number	1
_symmetry_cell_setting	triclinic
loop_
_symmetry_equiv_pos_as_xyz
  x,y,z
_cell_length_a	20.772
_cell_length_b	20.772
_cell_length_c	21.053
_cell_angle_alpha	90
_cell_angle_beta	90
_cell_angle_gamma	120
loop_
_atom_site_label
_atom_site_type_symbol
_atom_site_fract_x
_atom_site_fract_y
_atom_site_fract_z
_atom_site_charge
Mof_O 	O 	0.7318	0.4696	0.3181	-0.704
Mof_O 	O 	0.6077	0.4109	0.3164	-0.736
Mof_C 	C 	0.6688	0.4553	0.3384	0.641
Mof_C 	C 	0.6731	0.5015	0.3939	-0.259
Mof_C 	C 	0.6058	0.4872	0.4219	0.117
Mof_H 	H 	0.5608	0.4496	0.4036	-0.054
Mof_N 	N 	0.6012	0.5235	0.4729	-0.286
Mof_C 	C 	0.6665	0.5748	0.4993	0.08
Mof_H 	H 	0.6642	0.6025	0.5342	-0.043
Mof_C 	C 	0.7365	0.5899	0.4795	-0.186
Mof_H 	H 	0.7802	0.6228	0.5023	0.076
Mof_C 	C 	0.7394	0.5542	0.4241	0.123
Mof_H 	H 	0.7861	0.5655	0.4068	-0.017
Mof_O 	O 	0.5304	0.2622	0.3181	-0.709
Mof_O 	O 	0.5891	0.1968	0.3164	-0.739
Mof_C 	C 	0.5447	0.2135	0.3384	0.64
Mof_C 	C 	0.4985	0.1716	0.3939	-0.264
Mof_C 	C 	0.5128	0.1186	0.4219	0.114
Mof_H 	H 	0.5504	0.1112	0.4036	-0.057
Mof_N 	N 	0.4765	0.0777	0.4729	-0.291
Mof_C 	C 	0.4252	0.0917	0.4993	0.075
Mof_H 	H 	0.3975	0.0617	0.5342	-0.056
Mof_C 	C 	0.4101	0.1466	0.4795	-0.192
Mof_H 	H 	0.3772	0.1574	0.5023	0.062
Mof_C 	C 	0.4458	0.1852	0.4241	0.119
Mof_H 	H 	0.4345	0.2206	0.4068	-0.027
Mof_O 	O 	0.7378	0.2682	0.3181	-0.708
Mof_O 	O 	0.8032	0.3923	0.3164	-0.734
Mof_C 	C 	0.7865	0.3312	0.3384	0.641
Mof_C 	C 	0.8284	0.3269	0.3939	-0.259
Mof_C 	C 	0.8814	0.3942	0.4219	0.118
Mof_H 	H 	0.8888	0.4392	0.4036	-0.045
Mof_N 	N 	0.9223	0.3988	0.4729	-0.275
Mof_C 	C 	0.9083	0.3335	0.4993	0.08
Mof_H 	H 	0.9383	0.3358	0.5342	-0.038
Mof_C 	C 	0.8534	0.2635	0.4795	-0.186
Mof_H 	H 	0.8426	0.2198	0.5023	0.067
Mof_C 	C 	0.8148	0.2606	0.4241	0.121
Mof_H 	H 	0.7794	0.2139	0.4068	-0.025
Mof_O 	O 	0.2682	0.5304	0.8181	-0.707
Mof_O 	O 	0.3923	0.5891	0.8164	-0.734
Mof_C 	C 	0.3312	0.5447	0.8384	0.636
Mof_C 	C 	0.3269	0.4985	0.8939	-0.248
Mof_C 	C 	0.3942	0.5128	0.9219	0.112
Mof_H 	H 	0.4392	0.5504	0.9036	-0.045
Mof_N 	N 	0.3988	0.4765	0.9729	-0.28
Mof_C 	C 	0.3335	0.4252	0.9993	0.113
Mof_H 	H 	0.3358	0.3975	0.0342	-0.087
Mof_C 	C 	0.2635	0.4101	0.9795	-0.128
Mof_H 	H 	0.2198	0.3772	0.0023	0.011
Mof_C 	C 	0.2606	0.4458	0.9241	0.091
Mof_H 	H 	0.2139	0.4345	0.9068	-0.013
Mof_O 	O 	0.4696	0.7378	0.8181	-0.703
Mof_O 	O 	0.4109	0.8032	0.8164	-0.732
Mof_C 	C 	0.4553	0.7865	0.8384	0.638
Mof_C 	C 	0.5015	0.8284	0.8939	-0.244
Mof_C 	C 	0.4872	0.8814	0.9219	0.115
Mof_H 	H 	0.4496	0.8888	0.9036	-0.039
Mof_N 	N 	0.5235	0.9223	0.9729	-0.269
Mof_C 	C 	0.5748	0.9083	0.9993	0.118
Mof_H 	H 	0.6025	0.9383	0.0342	-0.072
Mof_C 	C 	0.5899	0.8534	0.9795	-0.123
Mof_H 	H 	0.6228	0.8426	0.0023	0.026
Mof_C 	C 	0.5542	0.8148	0.9241	0.095
Mof_H 	H 	0.5655	0.7794	0.9068	-0.004
Mof_O 	O 	0.2622	0.7318	0.8181	-0.704
Mof_O 	O 	0.1968	0.6077	0.8164	-0.736
Mof_C 	C 	0.2135	0.6688	0.8384	0.636
Mof_C 	C 	0.1716	0.6731	0.8939	-0.249
Mof_C 	C 	0.1186	0.6058	0.9219	0.111
Mof_H 	H 	0.1112	0.5608	0.9036	-0.051
Mof_N 	N 	0.0777	0.6012	0.9729	-0.284
Mof_C 	C 	0.0917	0.6665	0.9993	0.115
Mof_H 	H 	0.0617	0.6642	0.0342	-0.091
Mof_C 	C 	0.1466	0.7365	0.9795	-0.128
Mof_H 	H 	0.1574	0.7802	0.0023	0.02
Mof_C 	C 	0.1852	0.7394	0.9241	0.093
Mof_H 	H 	0.2206	0.7861	0.9068	-0.005
Mof_O 	O 	0.2682	0.5304	0.6819	-0.709
Mof_O 	O 	0.3923	0.5891	0.6836	-0.736
Mof_C 	C 	0.3312	0.5447	0.6616	0.64
Mof_C 	C 	0.3269	0.4985	0.6061	-0.262
Mof_C 	C 	0.3942	0.5128	0.5781	0.115
Mof_H 	H 	0.4392	0.5504	0.5964	-0.051
Mof_N 	N 	0.3988	0.4765	0.5271	-0.287
Mof_C 	C 	0.3335	0.4252	0.5007	0.076
Mof_H 	H 	0.3358	0.3975	0.4658	-0.052
Mof_C 	C 	0.2635	0.4101	0.5205	-0.19
Mof_H 	H 	0.2198	0.3772	0.4977	0.059
Mof_C 	C 	0.2606	0.4458	0.5759	0.119
Mof_H 	H 	0.2139	0.4345	0.5932	-0.028
Mof_O 	O 	0.4696	0.7378	0.6819	-0.705
Mof_O 	O 	0.4109	0.8032	0.6836	-0.734
Mof_C 	C 	0.4553	0.7865	0.6616	0.641
Mof_C 	C 	0.5015	0.8284	0.6061	-0.256
Mof_C 	C 	0.4872	0.8814	0.5781	0.119
Mof_H 	H 	0.4496	0.8888	0.5964	-0.045
Mof_N 	N 	0.5235	0.9223	0.5271	-0.276
Mof_C 	C 	0.5748	0.9083	0.5007	0.081
Mof_H 	H 	0.6025	0.9383	0.4658	-0.037
Mof_C 	C 	0.5899	0.8534	0.5205	-0.183
Mof_H 	H 	0.6228	0.8426	0.4977	0.073
Mof_C 	C 	0.5542	0.8148	0.5759	0.122
Mof_H 	H 	0.5655	0.7794	0.5932	-0.019
Mof_O 	O 	0.2622	0.7318	0.6819	-0.707
Mof_O 	O 	0.1968	0.6077	0.6836	-0.738
Mof_C 	C 	0.2135	0.6688	0.6616	0.64
Mof_C 	C 	0.1716	0.6731	0.6061	-0.262
Mof_C 	C 	0.1186	0.6058	0.5781	0.114
Mof_H 	H 	0.1112	0.5608	0.5964	-0.057
Mof_N 	N 	0.0777	0.6012	0.5271	-0.291
Mof_C 	C 	0.0917	0.6665	0.5007	0.076
Mof_H 	H 	0.0617	0.6642	0.4658	-0.055
Mof_C 	C 	0.1466	0.7365	0.5205	-0.19
Mof_H 	H 	0.1574	0.7802	0.4977	0.068
Mof_C 	C 	0.1852	0.7394	0.5759	0.121
Mof_H 	H 	0.2206	0.7861	0.5932	-0.02
Mof_O 	O 	0.7318	0.4696	0.1819	-0.707
Mof_O 	O 	0.6077	0.4109	0.1836	-0.739
Mof_C 	C 	0.6688	0.4553	0.1616	0.644
Mof_C 	C 	0.6731	0.5015	0.1061	-0.271
Mof_C 	C 	0.6058	0.4872	0.0781	0.12
Mof_H 	H 	0.5608	0.4496	0.0964	-0.058
Mof_N 	N 	0.6012	0.5235	0.0271	-0.287
Mof_C 	C 	0.6665	0.5748	0.0007	0.043
Mof_H 	H 	0.6642	0.6025	0.9658	-0.006
Mof_C 	C 	0.7365	0.5899	0.0205	-0.243
Mof_H 	H 	0.7802	0.6228	0.9977	0.121
Mof_C 	C 	0.7394	0.5542	0.0759	0.149
Mof_H 	H 	0.7861	0.5655	0.0932	-0.031
Mof_O 	O 	0.5304	0.2622	0.1819	-0.711
Mof_O 	O 	0.5891	0.1968	0.1836	-0.741
Mof_C 	C 	0.5447	0.2135	0.1616	0.644
Mof_C 	C 	0.4985	0.1716	0.1061	-0.277
Mof_C 	C 	0.5128	0.1186	0.0781	0.118
Mof_H 	H 	0.5504	0.1112	0.0964	-0.061
Mof_N 	N 	0.4765	0.0777	0.0271	-0.293
Mof_C 	C 	0.4252	0.0917	0.0007	0.039
Mof_H 	H 	0.3975	0.0617	0.9658	-0.02
Mof_C 	C 	0.4101	0.1466	0.0205	-0.253
Mof_H 	H 	0.3772	0.1574	0.9977	0.109
Mof_C 	C 	0.4458	0.1852	0.0759	0.147
Mof_H 	H 	0.4345	0.2206	0.0932	-0.041
Mof_O 	O 	0.7378	0.2682	0.1819	-0.71
Mof_O 	O 	0.8032	0.3923	0.1836	-0.736
Mof_C 	C 	0.7865	0.3312	0.1616	0.644
Mof_C 	C 	0.8284	0.3269	0.1061	-0.271
Mof_C 	C 	0.8814	0.3942	0.0781	0.122
Mof_H 	H 	0.8888	0.4392	0.0964	-0.049
Mof_N 	N 	0.9223	0.3988	0.0271	-0.277
Mof_C 	C 	0.9083	0.3335	0.0007	0.046
Mof_H 	H 	0.9383	0.3358	0.9658	-0.003
Mof_C 	C 	0.8534	0.2635	0.0205	-0.243
Mof_H 	H 	0.8426	0.2198	0.9977	0.111
Mof_C 	C 	0.8148	0.2606	0.0759	0.147
Mof_H 	H 	0.7794	0.2139	0.0932	-0.039
Mof_Cr	Cr	0.75976	0.42354	0.25	2.179
Mof_Cr	Cr	0.57646	0.33622	0.25	2.167
Mof_Cr	Cr	0.66378	0.24024	0.25	2.165
Mof_Cr	Cr	0.24024	0.57646	0.75	2.165
Mof_Cr	Cr	0.42354	0.66378	0.75	2.176
Mof_Cr	Cr	0.33622	0.75976	0.75	2.179
Mof_O 	O 	0.66667	0.33333	0.25	-1.182
Mof_O 	O 	0.33333	0.66667	0.75	-1.184
Mof_Cu	Cu	0.5	0.5	0.5	0.783
Mof_Cu	Cu	0.5	0	0.5	0.767
Mof_Cu	Cu	5.35503e-17	0.5	0.5	0.766
Mof_Cu	Cu	0.5	0.5	-0	0.768
Mof_Cu	Cu	0.5	0	-0	0.752
Mof_Cu	Cu	-0	0.5	-0	0.75
_end
