# CIF file generated by openbabel 3.1.0, see https://openbabel.org
data_I
_chemical_name_common 'image0'
_cell_length_a 10.3612
_cell_length_b 10.5686
_cell_length_c 6.2669
_cell_angle_alpha 90
_cell_angle_beta 114.907
_cell_angle_gamma 90
_space_group_name_H-M_alt 'P 1'
_space_group_name_Hall 'P 1'
loop_
    _symmetry_equiv_pos_as_xyz
    x,y,z
loop_
    _atom_site_label
    _atom_site_type_symbol
    _atom_site_fract_x
    _atom_site_fract_y
    _atom_site_fract_z
    _atom_site_occupancy
    C1       C        0.31670    0.21060    0.54520    1.000
    H1       H        0.39850    0.26560    0.57320    1.000
    H2       H        0.33050    0.17260    0.69590    1.000
    N1       N        0.31190    0.10990    0.38080    1.000
    H3       H        0.29680    0.14530    0.23990    1.000
    H4       H        0.23690    0.05810    0.35730    1.000
    C2       C        0.81670    0.71060    0.54520    1.000
    H5       H        0.89850    0.76560    0.57320    1.000
    H6       H        0.83050    0.67260    0.69590    1.000
    N2       N        0.81190    0.60990    0.38080    1.000
    H7       H        0.79680    0.64530    0.23990    1.000
    H8       H        0.73690    0.55810    0.35730    1.000
    C3       C        0.68330    0.21060    0.95480    1.000
    H9       H        0.60150    0.26560    0.92680    1.000
    H10      H        0.66950    0.17260    0.80410    1.000
    N3       N        0.68810    0.10990    0.11920    1.000
    H11      H        0.70320    0.14530    0.26010    1.000
    H12      H        0.76310    0.05810    0.14270    1.000
    C4       C        0.18330    0.71060    0.95480    1.000
    H13      H        0.10150    0.76560    0.92680    1.000
    H14      H        0.16950    0.67260    0.80410    1.000
    N4       N        0.18810    0.60990    0.11920    1.000
    H15      H        0.20320    0.64530    0.26010    1.000
    H16      H        0.26310    0.55810    0.14270    1.000
    C5       C        0.68330    0.78940    0.45480    1.000
    H17      H        0.60150    0.73440    0.42680    1.000
    H18      H        0.66950    0.82740    0.30410    1.000
    N5       N        0.68810    0.89010    0.61920    1.000
    H19      H        0.70320    0.85470    0.76010    1.000
    H20      H        0.76310    0.94190    0.64270    1.000
    C6       C        0.18330    0.28940    0.45480    1.000
    H21      H        0.10150    0.23440    0.42680    1.000
    H22      H        0.16950    0.32740    0.30410    1.000
    N6       N        0.18810    0.39010    0.61920    1.000
    H23      H        0.20320    0.35470    0.76010    1.000
    H24      H        0.26310    0.44190    0.64270    1.000
    C7       C        0.31670    0.78940    0.04520    1.000
    H25      H        0.39850    0.73440    0.07320    1.000
    H26      H        0.33050    0.82740    0.19590    1.000
    N7       N        0.31190    0.89010    0.88080    1.000
    H27      H        0.29680    0.85470    0.73990    1.000
    H28      H        0.23690    0.94190    0.85730    1.000
    C8       C        0.81670    0.28940    0.04520    1.000
    H29      H        0.89850    0.23440    0.07320    1.000
    H30      H        0.83050    0.32740    0.19590    1.000
    N8       N        0.81190    0.39010    0.88080    1.000
    H31      H        0.79680    0.35470    0.73990    1.000
    H32      H        0.73690    0.44190    0.85730    1.000
    Ag1      Ag       0.50000    0.00000    0.50000    1.000
    Ag2      Ag       0.00000    0.50000    0.50000    1.000
    Ag3      Ag       0.50000    0.00000    0.00000    1.000
    Ag4      Ag       0.00000    0.50000    0.00000    1.000
