data_functionalizedCrystal
_audit_creation_method	'EQeq! by Chris Wilmer'
_symmetry_space_group_name_H-M	'P1'
_symmetry_Int_Tables_number	1
_symmetry_cell_setting	triclinic
loop_
_symmetry_equiv_pos_as_xyz
  x,y,z
_cell_length_a	10.7435
_cell_length_b	10.7435
_cell_length_c	10.7435
_cell_angle_alpha	103.564
_cell_angle_beta	112.503
_cell_angle_gamma	112.503
loop_
_atom_site_label
_atom_site_type_symbol
_atom_site_fract_x
_atom_site_fract_y
_atom_site_fract_z
_atom_site_charge
Mof_Mn	Mn	0.10956	0.30316	0.8064	0.553
Mof_Mn	Mn	0.89044	0.69684	0.1936	0.653
Mof_Mn	Mn	0.50324	0.8064	0.69684	0.592
Mof_Mn	Mn	0.49676	0.1936	0.30316	0.614
Mof_Mo	Mo	-1.50048e-17	0.24813	0.24813	0.701
Mof_Mo	Mo	1.20038e-16	0.75187	0.75187	0.701
Mof_C 	C 	0.05306	0.2589	0.46776	-0.135
Mof_C 	C 	0.09612	0.30341	0.11115	-0.134
Mof_C 	C 	0.94694	0.4147	0.20584	-0.012
Mof_C 	C 	0.90388	0.01503	0.20729	-0.007
Mof_C 	C 	0.20886	0.46776	0.4147	-0.11
Mof_C 	C 	0.80774	0.11115	0.01503	-0.043
Mof_C 	C 	0.79114	0.20584	0.2589	-0.038
Mof_C 	C 	0.19226	0.20729	0.30341	-0.113
Mof_C 	C 	0.94694	0.7411	0.53224	-0.013
Mof_C 	C 	0.90388	0.69659	0.88885	-0.02
Mof_C 	C 	0.05306	0.5853	0.79416	-0.137
Mof_C 	C 	0.09612	0.98497	0.79271	-0.15
Mof_C 	C 	0.79114	0.53224	0.5853	-0.038
Mof_C 	C 	0.19226	0.88885	0.98497	-0.12
Mof_C 	C 	0.20886	0.79416	0.7411	-0.111
Mof_C 	C 	0.80774	0.79271	0.69659	-0.043
Mof_N 	N 	0.07376	0.25711	0.57993	-0.165
Mof_N 	N 	0.13946	0.33293	0.03319	-0.157
Mof_N 	N 	0.92624	0.50617	0.18335	-0.163
Mof_N 	N 	0.86054	0.89373	0.19347	-0.172
Mof_N 	N 	0.32282	0.57993	0.50617	-0.162
Mof_N 	N 	0.70026	0.03319	0.89373	-0.154
Mof_N 	N 	0.67718	0.18335	0.25711	-0.166
Mof_N 	N 	0.29974	0.19347	0.33293	-0.158
Mof_N 	N 	0.92624	0.74289	0.42007	-0.163
Mof_N 	N 	0.86054	0.66707	0.96681	-0.162
Mof_N 	N 	0.07376	0.49383	0.81665	-0.167
Mof_N 	N 	0.13946	0.10627	0.80653	-0.148
Mof_N 	N 	0.67718	0.42007	0.49383	-0.167
Mof_N 	N 	0.29974	0.96681	0.10627	-0.161
Mof_N 	N 	0.32282	0.81665	0.74289	-0.163
Mof_N 	N 	0.70026	0.80653	0.66707	-0.162
_end
