data_functionalizedCrystal
_audit_creation_method	'EQeq! by Chris Wilmer'
_symmetry_space_group_name_H-M	'P1'
_symmetry_Int_Tables_number	1
_symmetry_cell_setting	triclinic
loop_
_symmetry_equiv_pos_as_xyz
  x,y,z
_cell_length_a	9.6773
_cell_length_b	13.8676
_cell_length_c	15.4482
_cell_angle_alpha	90
_cell_angle_beta	90.039
_cell_angle_gamma	90
loop_
_atom_site_label
_atom_site_type_symbol
_atom_site_fract_x
_atom_site_fract_y
_atom_site_fract_z
_atom_site_charge
Mof_Zn	Zn	0.55746	0.39763	0.58003	1.229
Mof_Zn	Zn	0.46736	0.10724	0.58594	1.229
Mof_Zn	Zn	0.49578	0.24586	0.2253	1.237
Mof_P 	P 	0.75136	0.21772	0.59656	0.447
Mof_H 	H 	0.7631	0.2293	0.5121	-0.051
Mof_P 	P 	0.27474	0.2891	0.62287	0.454
Mof_H 	H 	0.2136	0.2742	0.5476	-0.053
Mof_P 	P 	0.51388	0.11281	0.38056	0.436
Mof_H 	H 	0.6139	0.1765	0.391	-0.059
Mof_P 	P 	0.46666	0.38585	0.38358	0.436
Mof_H 	H 	0.3789	0.3165	0.4037	-0.058
Mof_O 	O 	0.6625	0.12842	0.61099	-0.433
Mof_O 	O 	0.6868	0.30909	0.63207	-0.469
Mof_O 	O 	0.895	0.20028	0.63148	-0.433
Mof_O 	O 	0.3664	0.37758	0.61271	-0.435
Mof_O 	O 	0.3497	0.19689	0.64662	-0.457
Mof_O 	O 	0.1624	0.31528	0.68755	-0.418
Mof_O 	O 	0.4306	0.11182	0.46332	-0.472
Mof_O 	O 	0.5822	0.01593	0.36111	-0.422
Mof_O 	O 	0.4242	0.14803	0.30529	-0.409
Mof_O 	O 	0.5719	0.39228	0.45553	-0.471
Mof_O 	O 	0.3837	0.47892	0.37212	-0.423
Mof_O 	O 	0.5372	0.35762	0.29895	-0.404
Mof_Zn	Zn	0.94254	0.89763	0.91997	1.227
Mof_Zn	Zn	0.03264	0.60724	0.91406	1.229
Mof_Zn	Zn	0.00422	0.74586	0.2747	1.237
Mof_P 	P 	0.74864	0.71772	0.90344	0.446
Mof_H 	H 	0.7369	0.7293	0.9879	-0.053
Mof_P 	P 	0.22526	0.7891	0.87713	0.454
Mof_H 	H 	0.2864	0.7742	0.9524	-0.054
Mof_P 	P 	0.98612	0.61281	0.11944	0.44
Mof_H 	H 	0.8861	0.6765	0.109	-0.059
Mof_P 	P 	0.03334	0.88585	0.11642	0.434
Mof_H 	H 	0.1211	0.8165	0.0963	-0.058
Mof_O 	O 	0.8375	0.62842	0.88901	-0.434
Mof_O 	O 	0.8132	0.80909	0.86793	-0.47
Mof_O 	O 	0.605	0.70028	0.86852	-0.434
Mof_O 	O 	0.1336	0.87758	0.88729	-0.436
Mof_O 	O 	0.1503	0.69689	0.85338	-0.457
Mof_O 	O 	0.3376	0.81528	0.81245	-0.419
Mof_O 	O 	0.0694	0.61182	0.03668	-0.474
Mof_O 	O 	0.9178	0.51593	0.13889	-0.42
Mof_O 	O 	0.0758	0.64803	0.19471	-0.409
Mof_O 	O 	0.9281	0.89228	0.04447	-0.467
Mof_O 	O 	0.1163	0.97892	0.12788	-0.422
Mof_O 	O 	0.9628	0.85762	0.20105	-0.402
Mof_Zn	Zn	0.44254	0.60237	0.41997	1.229
Mof_Zn	Zn	0.53264	0.89276	0.41406	1.229
Mof_Zn	Zn	0.50422	0.75414	0.7747	1.237
Mof_P 	P 	0.24864	0.78228	0.40344	0.447
Mof_H 	H 	0.2369	0.7707	0.4879	-0.051
Mof_P 	P 	0.72526	0.7109	0.37713	0.454
Mof_H 	H 	0.7864	0.7258	0.4524	-0.053
Mof_P 	P 	0.48612	0.88719	0.61944	0.436
Mof_H 	H 	0.3861	0.8235	0.609	-0.059
Mof_P 	P 	0.53334	0.61415	0.61642	0.436
Mof_H 	H 	0.6211	0.6835	0.5963	-0.058
Mof_O 	O 	0.3375	0.87158	0.38901	-0.433
Mof_O 	O 	0.3132	0.69091	0.36793	-0.469
Mof_O 	O 	0.105	0.79972	0.36852	-0.433
Mof_O 	O 	0.6336	0.62242	0.38729	-0.435
Mof_O 	O 	0.6503	0.80311	0.35338	-0.457
Mof_O 	O 	0.8376	0.68472	0.31245	-0.418
Mof_O 	O 	0.5694	0.88818	0.53668	-0.472
Mof_O 	O 	0.4178	0.98407	0.63889	-0.422
Mof_O 	O 	0.5758	0.85197	0.69471	-0.409
Mof_O 	O 	0.4281	0.60772	0.54447	-0.471
Mof_O 	O 	0.6163	0.52108	0.62788	-0.423
Mof_O 	O 	0.4628	0.64238	0.70105	-0.404
Mof_Zn	Zn	0.05746	0.10237	0.08003	1.227
Mof_Zn	Zn	0.96736	0.39276	0.08594	1.229
Mof_Zn	Zn	0.99578	0.25414	0.7253	1.237
Mof_P 	P 	0.25136	0.28228	0.09656	0.446
Mof_H 	H 	0.2631	0.2707	0.0121	-0.053
Mof_P 	P 	0.77474	0.2109	0.12287	0.454
Mof_H 	H 	0.7136	0.2258	0.0476	-0.054
Mof_P 	P 	0.01388	0.38719	0.88056	0.44
Mof_H 	H 	0.1139	0.3235	0.891	-0.059
Mof_P 	P 	0.96666	0.11415	0.88358	0.434
Mof_H 	H 	0.8789	0.1835	0.9037	-0.058
Mof_O 	O 	0.1625	0.37158	0.11099	-0.434
Mof_O 	O 	0.1868	0.19091	0.13207	-0.47
Mof_O 	O 	0.395	0.29972	0.13148	-0.434
Mof_O 	O 	0.8664	0.12242	0.11271	-0.436
Mof_O 	O 	0.8497	0.30311	0.14662	-0.457
Mof_O 	O 	0.6624	0.18472	0.18755	-0.419
Mof_O 	O 	0.9306	0.38818	0.96332	-0.474
Mof_O 	O 	0.0822	0.48407	0.86111	-0.42
Mof_O 	O 	0.9242	0.35197	0.80529	-0.409
Mof_O 	O 	0.0719	0.10772	0.95553	-0.467
Mof_O 	O 	0.8837	0.02108	0.87212	-0.422
Mof_O 	O 	0.0372	0.14238	0.79895	-0.402
_end
