# CIF file generated by openbabel 3.1.0, see https://openbabel.org
data_I
_chemical_name_common 'image0'
_cell_length_a 25.1117
_cell_length_b 25.1117
_cell_length_c 13.2033
_cell_angle_alpha 90
_cell_angle_beta 90
_cell_angle_gamma 120
_space_group_name_H-M_alt 'P 1'
_space_group_name_Hall 'P 1'
loop_
    _symmetry_equiv_pos_as_xyz
    x,y,z
loop_
    _atom_site_label
    _atom_site_type_symbol
    _atom_site_fract_x
    _atom_site_fract_y
    _atom_site_fract_z
    _atom_site_occupancy
    Zn1      Zn       0.42879    0.33157    0.00124    1.000
    N1       N        0.41530    0.25240    0.05340    1.000
    C1       C        0.39700    0.39030    0.17660    1.000
    C2       C        0.37580    0.21610    0.13260    1.000
    N2       N        0.51750    0.39670    0.99450    1.000
    N3       N        0.31800    0.38910    0.11920    1.000
    N4       N        0.38690    0.36640    0.08670    1.000
    C3       C        0.34180    0.22750    0.20230    1.000
    H1       H        0.34330    0.26530    0.20440    1.000
    N5       N        0.33730    0.36770    0.05100    1.000
    N6       N        0.35400    0.40380    0.20160    1.000
    N7       N        0.55860    0.38740    0.03880    1.000
    C4       C        0.30490    0.18000    0.26990    1.000
    H2       H        0.27990    0.18570    0.31560    1.000
    C5       C        0.44430    0.39250    0.24790    1.000
    H3       H        0.47040    0.38080    0.21260    1.000
    H4       H        0.46870    0.43340    0.27380    1.000
    H5       H        0.42430    0.36450    0.30300    1.000
    H6       H        0.47210    0.45590    0.90440    1.000
    H7       H        0.51670    0.51740    0.96050    1.000
    H8       H        0.53460    0.50340    0.85400    1.000
    H9       H        0.48920    0.20860    0.90410    1.000
    H10      H        0.46240    0.24970    0.86710    1.000
    H11      H        0.51770    0.27630    0.94340    1.000
    Zn2      Zn       0.09546    0.66490    0.33457    1.000
    N8       N        0.08197    0.58573    0.38673    1.000
    C6       C        0.06367    0.72363    0.50993    1.000
    C7       C        0.04247    0.54943    0.46593    1.000
    N9       N        0.18417    0.73003    0.32783    1.000
    N10      N        0.98467    0.72243    0.45253    1.000
    N11      N        0.05357    0.69973    0.42003    1.000
    C8       C        0.00847    0.56083    0.53563    1.000
    H12      H        0.00997    0.59863    0.53773    1.000
    N12      N        0.00397    0.70103    0.38433    1.000
    N13      N        0.02067    0.73713    0.53493    1.000
    N14      N        0.22527    0.72073    0.37213    1.000
    C9       C        0.97157    0.51333    0.60323    1.000
    H13      H        0.94657    0.51903    0.64893    1.000
    C10      C        0.11097    0.72583    0.58123    1.000
    H14      H        0.13707    0.71413    0.54593    1.000
    H15      H        0.13537    0.76673    0.60713    1.000
    H16      H        0.09097    0.69783    0.63633    1.000
    H17      H        0.13877    0.78923    0.23773    1.000
    H18      H        0.18337    0.85073    0.29383    1.000
    H19      H        0.20127    0.83673    0.18733    1.000
    H20      H        0.15587    0.54193    0.23743    1.000
    H21      H        0.12907    0.58303    0.20043    1.000
    H22      H        0.18437    0.60963    0.27673    1.000
    Zn3      Zn       0.76212    0.99824    0.66791    1.000
    N15      N        0.74863    0.91907    0.72007    1.000
    C11      C        0.73033    0.05697    0.84327    1.000
    C12      C        0.70913    0.88277    0.79927    1.000
    N16      N        0.85083    0.06337    0.66117    1.000
    N17      N        0.65133    0.05577    0.78587    1.000
    N18      N        0.72023    0.03307    0.75337    1.000
    C13      C        0.67513    0.89417    0.86897    1.000
    H23      H        0.67663    0.93197    0.87107    1.000
    N19      N        0.67063    0.03437    0.71767    1.000
    N20      N        0.68733    0.07047    0.86827    1.000
    N21      N        0.89193    0.05407    0.70547    1.000
    C14      C        0.63823    0.84667    0.93657    1.000
    H24      H        0.61323    0.85237    0.98227    1.000
    C15      C        0.77763    0.05917    0.91457    1.000
    H25      H        0.80373    0.04747    0.87927    1.000
    H26      H        0.80203    0.10007    0.94047    1.000
    H27      H        0.75763    0.03117    0.96967    1.000
    H28      H        0.80543    0.12257    0.57107    1.000
    H29      H        0.85003    0.18407    0.62717    1.000
    H30      H        0.86793    0.17007    0.52067    1.000
    H31      H        0.82253    0.87527    0.57077    1.000
    H32      H        0.79573    0.91637    0.53377    1.000
    H33      H        0.85103    0.94297    0.61007    1.000
    Zn4      Zn       0.66843    0.09722    0.00124    1.000
    N22      N        0.74760    0.16290    0.05340    1.000
    C16      C        0.60970    0.00670    0.17660    1.000
    C17      C        0.78390    0.15970    0.13260    1.000
    N23      N        0.60330    0.12080    0.99450    1.000
    N24      N        0.61090    0.92890    0.11920    1.000
    N25      N        0.63360    0.02050    0.08670    1.000
    C18      C        0.77250    0.11430    0.20230    1.000
    H34      H        0.73470    0.07800    0.20440    1.000
    N26      N        0.63230    0.96960    0.05100    1.000
    N27      N        0.59620    0.95020    0.20160    1.000
    N28      N        0.61260    0.17120    0.03880    1.000
    C19      C        0.82000    0.12490    0.26990    1.000
    H35      H        0.81430    0.09420    0.31560    1.000
    C20      C        0.60750    0.05180    0.24790    1.000
    H36      H        0.61920    0.08960    0.21260    1.000
    H37      H        0.56660    0.03530    0.27380    1.000
    H38      H        0.63550    0.05980    0.30300    1.000
    H39      H        0.54410    0.01620    0.90440    1.000
    H40      H        0.48260    0.99930    0.96050    1.000
    H41      H        0.49660    0.03120    0.85400    1.000
    H42      H        0.79140    0.28060    0.90410    1.000
    H43      H        0.75030    0.21270    0.86710    1.000
    H44      H        0.72370    0.24140    0.94340    1.000
    Zn5      Zn       0.33510    0.43055    0.33457    1.000
    N29      N        0.41427    0.49623    0.38673    1.000
    C21      C        0.27637    0.34003    0.50993    1.000
    C22      C        0.45057    0.49303    0.46593    1.000
    N30      N        0.26997    0.45413    0.32783    1.000
    N31      N        0.27757    0.26223    0.45253    1.000
    N32      N        0.30027    0.35383    0.42003    1.000
    C23      C        0.43917    0.44763    0.53563    1.000
    H45      H        0.40137    0.41133    0.53773    1.000
    N33      N        0.29897    0.30293    0.38433    1.000
    N34      N        0.26287    0.28353    0.53493    1.000
    N35      N        0.27927    0.50453    0.37213    1.000
    C24      C        0.48667    0.45823    0.60323    1.000
    H46      H        0.48097    0.42753    0.64893    1.000
    C25      C        0.27417    0.38513    0.58123    1.000
    H47      H        0.28587    0.42293    0.54593    1.000
    H48      H        0.23327    0.36863    0.60713    1.000
    H49      H        0.30217    0.39313    0.63633    1.000
    H50      H        0.21077    0.34953    0.23773    1.000
    H51      H        0.14927    0.33263    0.29383    1.000
    H52      H        0.16327    0.36453    0.18733    1.000
    H53      H        0.45807    0.61393    0.23743    1.000
    H54      H        0.41697    0.54603    0.20043    1.000
    H55      H        0.39037    0.57473    0.27673    1.000
    Zn6      Zn       0.00176    0.76389    0.66791    1.000
    N36      N        0.08093    0.82957    0.72007    1.000
    C26      C        0.94303    0.67337    0.84327    1.000
    C27      C        0.11723    0.82637    0.79927    1.000
    N37      N        0.93663    0.78747    0.66117    1.000
    N38      N        0.94423    0.59557    0.78587    1.000
    N39      N        0.96693    0.68717    0.75337    1.000
    C28      C        0.10583    0.78097    0.86897    1.000
    H56      H        0.06803    0.74467    0.87107    1.000
    N40      N        0.96563    0.63627    0.71767    1.000
    N41      N        0.92953    0.61687    0.86827    1.000
    N42      N        0.94593    0.83787    0.70547    1.000
    C29      C        0.15333    0.79157    0.93657    1.000
    H57      H        0.14763    0.76087    0.98227    1.000
    C30      C        0.94083    0.71847    0.91457    1.000
    H58      H        0.95253    0.75627    0.87927    1.000
    H59      H        0.89993    0.70197    0.94047    1.000
    H60      H        0.96883    0.72647    0.96967    1.000
    H61      H        0.87743    0.68287    0.57107    1.000
    H62      H        0.81593    0.66597    0.62717    1.000
    H63      H        0.82993    0.69787    0.52067    1.000
    H64      H        0.12473    0.94727    0.57077    1.000
    H65      H        0.08363    0.87937    0.53377    1.000
    H66      H        0.05703    0.90807    0.61007    1.000
    Zn7      Zn       0.90278    0.57121    0.00124    1.000
    N43      N        0.83710    0.58470    0.05340    1.000
    C31      C        0.99330    0.60300    0.17660    1.000
    C32      C        0.84030    0.62420    0.13260    1.000
    N44      N        0.87920    0.48250    0.99450    1.000
    N45      N        0.07110    0.68200    0.11920    1.000
    N46      N        0.97950    0.61310    0.08670    1.000
    C33      C        0.88570    0.65820    0.20230    1.000
    H67      H        0.92200    0.65670    0.20440    1.000
    N47      N        0.03040    0.66270    0.05100    1.000
    N48      N        0.04980    0.64600    0.20160    1.000
    N49      N        0.82880    0.44140    0.03880    1.000
    C34      C        0.87510    0.69510    0.26990    1.000
    H68      H        0.90580    0.72010    0.31560    1.000
    C35      C        0.94820    0.55570    0.24790    1.000
    H69      H        0.91040    0.52960    0.21260    1.000
    H70      H        0.96470    0.53130    0.27380    1.000
    H71      H        0.94020    0.57570    0.30300    1.000
    H72      H        0.98380    0.52790    0.90440    1.000
    H73      H        0.00070    0.48330    0.96050    1.000
    H74      H        0.96880    0.46540    0.85400    1.000
    H75      H        0.71940    0.51080    0.90410    1.000
    H76      H        0.78730    0.53760    0.86710    1.000
    H77      H        0.75860    0.48230    0.94340    1.000
    Zn8      Zn       0.56945    0.90454    0.33457    1.000
    N50      N        0.50377    0.91803    0.38673    1.000
    C36      C        0.65997    0.93633    0.50993    1.000
    C37      C        0.50697    0.95753    0.46593    1.000
    N51      N        0.54587    0.81583    0.32783    1.000
    N52      N        0.73777    0.01533    0.45253    1.000
    N53      N        0.64617    0.94643    0.42003    1.000
    C38      C        0.55237    0.99153    0.53563    1.000
    H78      H        0.58867    0.99003    0.53773    1.000
    N54      N        0.69707    0.99603    0.38433    1.000
    N55      N        0.71647    0.97933    0.53493    1.000
    N56      N        0.49547    0.77473    0.37213    1.000
    C39      C        0.54177    0.02843    0.60323    1.000
    H79      H        0.57247    0.05343    0.64893    1.000
    C40      C        0.61487    0.88903    0.58123    1.000
    H80      H        0.57707    0.86293    0.54593    1.000
    H81      H        0.63137    0.86463    0.60713    1.000
    H82      H        0.60687    0.90903    0.63633    1.000
    H83      H        0.65047    0.86123    0.23773    1.000
    H84      H        0.66737    0.81663    0.29383    1.000
    H85      H        0.63547    0.79873    0.18733    1.000
    H86      H        0.38607    0.84413    0.23743    1.000
    H87      H        0.45397    0.87093    0.20043    1.000
    H88      H        0.42527    0.81563    0.27673    1.000
    Zn9      Zn       0.23611    0.23788    0.66791    1.000
    N57      N        0.17043    0.25137    0.72007    1.000
    C41      C        0.32663    0.26967    0.84327    1.000
    C42      C        0.17363    0.29087    0.79927    1.000
    N58      N        0.21253    0.14917    0.66117    1.000
    N59      N        0.40443    0.34867    0.78587    1.000
    N60      N        0.31283    0.27977    0.75337    1.000
    C43      C        0.21903    0.32487    0.86897    1.000
    H89      H        0.25533    0.32337    0.87107    1.000
    N61      N        0.36373    0.32937    0.71767    1.000
    N62      N        0.38313    0.31267    0.86827    1.000
    N63      N        0.16213    0.10807    0.70547    1.000
    C44      C        0.20843    0.36177    0.93657    1.000
    H90      H        0.23913    0.38677    0.98227    1.000
    C45      C        0.28153    0.22237    0.91457    1.000
    H91      H        0.24373    0.19627    0.87927    1.000
    H92      H        0.29803    0.19797    0.94047    1.000
    H93      H        0.27353    0.24237    0.96967    1.000
    H94      H        0.31713    0.19457    0.57107    1.000
    H95      H        0.33403    0.14997    0.62717    1.000
    H96      H        0.30213    0.13207    0.52067    1.000
    H97      H        0.05273    0.17747    0.57077    1.000
    H98      H        0.12063    0.20427    0.53377    1.000
    H99      H        0.09193    0.14897    0.61007    1.000
    Zn10     Zn       0.66843    0.57121    0.00124    1.000
    N64      N        0.74760    0.58470    0.05340    1.000
    C46      C        0.60970    0.60300    0.17660    1.000
    C47      C        0.78390    0.62420    0.13260    1.000
    N65      N        0.60330    0.48250    0.99450    1.000
    N66      N        0.61090    0.68200    0.11920    1.000
    N67      N        0.63360    0.61310    0.08670    1.000
    C48      C        0.77250    0.65820    0.20230    1.000
    H100     H        0.73470    0.65670    0.20440    1.000
    N68      N        0.63230    0.66270    0.05100    1.000
    N69      N        0.59620    0.64600    0.20160    1.000
    N70      N        0.61260    0.44140    0.03880    1.000
    C49      C        0.82000    0.69510    0.26990    1.000
    H101     H        0.81430    0.72010    0.31560    1.000
    C50      C        0.60750    0.55570    0.24790    1.000
    H102     H        0.61920    0.52960    0.21260    1.000
    H103     H        0.56660    0.53130    0.27380    1.000
    H104     H        0.63550    0.57570    0.30300    1.000
    H105     H        0.54410    0.52790    0.90440    1.000
    H106     H        0.48260    0.48330    0.96050    1.000
    H107     H        0.49660    0.46540    0.85400    1.000
    H108     H        0.79140    0.51080    0.90410    1.000
    H109     H        0.75030    0.53760    0.86710    1.000
    H110     H        0.72370    0.48230    0.94340    1.000
    Zn11     Zn       0.33510    0.90454    0.33457    1.000
    N71      N        0.41427    0.91803    0.38673    1.000
    C51      C        0.27637    0.93633    0.50993    1.000
    C52      C        0.45057    0.95753    0.46593    1.000
    N72      N        0.26997    0.81583    0.32783    1.000
    N73      N        0.27757    0.01533    0.45253    1.000
    N74      N        0.30027    0.94643    0.42003    1.000
    C53      C        0.43917    0.99153    0.53563    1.000
    H111     H        0.40137    0.99003    0.53773    1.000
    N75      N        0.29897    0.99603    0.38433    1.000
    N76      N        0.26287    0.97933    0.53493    1.000
    N77      N        0.27927    0.77473    0.37213    1.000
    C54      C        0.48667    0.02843    0.60323    1.000
    H112     H        0.48097    0.05343    0.64893    1.000
    C55      C        0.27417    0.88903    0.58123    1.000
    H113     H        0.28587    0.86293    0.54593    1.000
    H114     H        0.23327    0.86463    0.60713    1.000
    H115     H        0.30217    0.90903    0.63633    1.000
    H116     H        0.21077    0.86123    0.23773    1.000
    H117     H        0.14927    0.81663    0.29383    1.000
    H118     H        0.16327    0.79873    0.18733    1.000
    H119     H        0.45807    0.84413    0.23743    1.000
    H120     H        0.41697    0.87093    0.20043    1.000
    H121     H        0.39037    0.81563    0.27673    1.000
    Zn12     Zn       0.00176    0.23788    0.66791    1.000
    N78      N        0.08093    0.25137    0.72007    1.000
    C56      C        0.94303    0.26967    0.84327    1.000
    C57      C        0.11723    0.29087    0.79927    1.000
    N79      N        0.93663    0.14917    0.66117    1.000
    N80      N        0.94423    0.34867    0.78587    1.000
    N81      N        0.96693    0.27977    0.75337    1.000
    C58      C        0.10583    0.32487    0.86897    1.000
    H122     H        0.06803    0.32337    0.87107    1.000
    N82      N        0.96563    0.32937    0.71767    1.000
    N83      N        0.92953    0.31267    0.86827    1.000
    N84      N        0.94593    0.10807    0.70547    1.000
    C59      C        0.15333    0.36177    0.93657    1.000
    H123     H        0.14763    0.38677    0.98227    1.000
    C60      C        0.94083    0.22237    0.91457    1.000
    H124     H        0.95253    0.19627    0.87927    1.000
    H125     H        0.89993    0.19797    0.94047    1.000
    H126     H        0.96883    0.24237    0.96967    1.000
    H127     H        0.87743    0.19457    0.57107    1.000
    H128     H        0.81593    0.14997    0.62717    1.000
    H129     H        0.82993    0.13207    0.52067    1.000
    H130     H        0.12473    0.17747    0.57077    1.000
    H131     H        0.08363    0.20427    0.53377    1.000
    H132     H        0.05703    0.14897    0.61007    1.000
    Zn13     Zn       0.90278    0.33157    0.00124    1.000
    N85      N        0.83710    0.25240    0.05340    1.000
    C61      C        0.99330    0.39030    0.17660    1.000
    C62      C        0.84030    0.21610    0.13260    1.000
    N86      N        0.87920    0.39670    0.99450    1.000
    N87      N        0.07110    0.38910    0.11920    1.000
    N88      N        0.97950    0.36640    0.08670    1.000
    C63      C        0.88570    0.22750    0.20230    1.000
    H133     H        0.92200    0.26530    0.20440    1.000
    N89      N        0.03040    0.36770    0.05100    1.000
    N90      N        0.04980    0.40380    0.20160    1.000
    N91      N        0.82880    0.38740    0.03880    1.000
    C64      C        0.87510    0.18000    0.26990    1.000
    H134     H        0.90580    0.18570    0.31560    1.000
    C65      C        0.94820    0.39250    0.24790    1.000
    H135     H        0.91040    0.38080    0.21260    1.000
    H136     H        0.96470    0.43340    0.27380    1.000
    H137     H        0.94020    0.36450    0.30300    1.000
    H138     H        0.98380    0.45590    0.90440    1.000
    H139     H        0.00070    0.51740    0.96050    1.000
    H140     H        0.96880    0.50340    0.85400    1.000
    H141     H        0.71940    0.20860    0.90410    1.000
    H142     H        0.78730    0.24970    0.86710    1.000
    H143     H        0.75860    0.27630    0.94340    1.000
    Zn14     Zn       0.56945    0.66490    0.33457    1.000
    N92      N        0.50377    0.58573    0.38673    1.000
    C66      C        0.65997    0.72363    0.50993    1.000
    C67      C        0.50697    0.54943    0.46593    1.000
    N93      N        0.54587    0.73003    0.32783    1.000
    N94      N        0.73777    0.72243    0.45253    1.000
    N95      N        0.64617    0.69973    0.42003    1.000
    C68      C        0.55237    0.56083    0.53563    1.000
    H144     H        0.58867    0.59863    0.53773    1.000
    N96      N        0.69707    0.70103    0.38433    1.000
    N97      N        0.71647    0.73713    0.53493    1.000
    N98      N        0.49547    0.72073    0.37213    1.000
    C69      C        0.54177    0.51333    0.60323    1.000
    H145     H        0.57247    0.51903    0.64893    1.000
    C70      C        0.61487    0.72583    0.58123    1.000
    H146     H        0.57707    0.71413    0.54593    1.000
    H147     H        0.63137    0.76673    0.60713    1.000
    H148     H        0.60687    0.69783    0.63633    1.000
    H149     H        0.65047    0.78923    0.23773    1.000
    H150     H        0.66737    0.85073    0.29383    1.000
    H151     H        0.63547    0.83673    0.18733    1.000
    H152     H        0.38607    0.54193    0.23743    1.000
    H153     H        0.45397    0.58303    0.20043    1.000
    H154     H        0.42527    0.60963    0.27673    1.000
    Zn15     Zn       0.23611    0.99824    0.66791    1.000
    N99      N        0.17043    0.91907    0.72007    1.000
    C71      C        0.32663    0.05697    0.84327    1.000
    C72      C        0.17363    0.88277    0.79927    1.000
    N100     N        0.21253    0.06337    0.66117    1.000
    N101     N        0.40443    0.05577    0.78587    1.000
    N102     N        0.31283    0.03307    0.75337    1.000
    C73      C        0.21903    0.89417    0.86897    1.000
    H155     H        0.25533    0.93197    0.87107    1.000
    N103     N        0.36373    0.03437    0.71767    1.000
    N104     N        0.38313    0.07047    0.86827    1.000
    N105     N        0.16213    0.05407    0.70547    1.000
    C74      C        0.20843    0.84667    0.93657    1.000
    H156     H        0.23913    0.85237    0.98227    1.000
    C75      C        0.28153    0.05917    0.91457    1.000
    H157     H        0.24373    0.04747    0.87927    1.000
    H158     H        0.29803    0.10007    0.94047    1.000
    H159     H        0.27353    0.03117    0.96967    1.000
    H160     H        0.31713    0.12257    0.57107    1.000
    H161     H        0.33403    0.18407    0.62717    1.000
    H162     H        0.30213    0.17007    0.52067    1.000
    H163     H        0.05273    0.87527    0.57077    1.000
    H164     H        0.12063    0.91637    0.53377    1.000
    H165     H        0.09193    0.94297    0.61007    1.000
    Zn16     Zn       0.42879    0.09722    0.00124    1.000
    N106     N        0.41530    0.16290    0.05340    1.000
    C76      C        0.39700    0.00670    0.17660    1.000
    C77      C        0.37580    0.15970    0.13260    1.000
    N107     N        0.51750    0.12080    0.99450    1.000
    N108     N        0.31800    0.92890    0.11920    1.000
    N109     N        0.38690    0.02050    0.08670    1.000
    C78      C        0.34180    0.11430    0.20230    1.000
    H166     H        0.34330    0.07800    0.20440    1.000
    N110     N        0.33730    0.96960    0.05100    1.000
    N111     N        0.35400    0.95020    0.20160    1.000
    N112     N        0.55860    0.17120    0.03880    1.000
    C79      C        0.30490    0.12490    0.26990    1.000
    H167     H        0.27990    0.09420    0.31560    1.000
    C80      C        0.44430    0.05180    0.24790    1.000
    H168     H        0.47040    0.08960    0.21260    1.000
    H169     H        0.46870    0.03530    0.27380    1.000
    H170     H        0.42430    0.05980    0.30300    1.000
    H171     H        0.47210    0.01620    0.90440    1.000
    H172     H        0.51670    0.99930    0.96050    1.000
    H173     H        0.53460    0.03120    0.85400    1.000
    H174     H        0.48920    0.28060    0.90410    1.000
    H175     H        0.46240    0.21270    0.86710    1.000
    H176     H        0.51770    0.24140    0.94340    1.000
    Zn17     Zn       0.09546    0.43055    0.33457    1.000
    N113     N        0.08197    0.49623    0.38673    1.000
    C81      C        0.06367    0.34003    0.50993    1.000
    C82      C        0.04247    0.49303    0.46593    1.000
    N114     N        0.18417    0.45413    0.32783    1.000
    N115     N        0.98467    0.26223    0.45253    1.000
    N116     N        0.05357    0.35383    0.42003    1.000
    C83      C        0.00847    0.44763    0.53563    1.000
    H177     H        0.00997    0.41133    0.53773    1.000
    N117     N        0.00397    0.30293    0.38433    1.000
    N118     N        0.02067    0.28353    0.53493    1.000
    N119     N        0.22527    0.50453    0.37213    1.000
    C84      C        0.97157    0.45823    0.60323    1.000
    H178     H        0.94657    0.42753    0.64893    1.000
    C85      C        0.11097    0.38513    0.58123    1.000
    H179     H        0.13707    0.42293    0.54593    1.000
    H180     H        0.13537    0.36863    0.60713    1.000
    H181     H        0.09097    0.39313    0.63633    1.000
    H182     H        0.13877    0.34953    0.23773    1.000
    H183     H        0.18337    0.33263    0.29383    1.000
    H184     H        0.20127    0.36453    0.18733    1.000
    H185     H        0.15587    0.61393    0.23743    1.000
    H186     H        0.12907    0.54603    0.20043    1.000
    H187     H        0.18437    0.57473    0.27673    1.000
    Zn18     Zn       0.76212    0.76389    0.66791    1.000
    N120     N        0.74863    0.82957    0.72007    1.000
    C86      C        0.73033    0.67337    0.84327    1.000
    C87      C        0.70913    0.82637    0.79927    1.000
    N121     N        0.85083    0.78747    0.66117    1.000
    N122     N        0.65133    0.59557    0.78587    1.000
    N123     N        0.72023    0.68717    0.75337    1.000
    C88      C        0.67513    0.78097    0.86897    1.000
    H188     H        0.67663    0.74467    0.87107    1.000
    N124     N        0.67063    0.63627    0.71767    1.000
    N125     N        0.68733    0.61687    0.86827    1.000
    N126     N        0.89193    0.83787    0.70547    1.000
    C89      C        0.63823    0.79157    0.93657    1.000
    H189     H        0.61323    0.76087    0.98227    1.000
    C90      C        0.77763    0.71847    0.91457    1.000
    H190     H        0.80373    0.75627    0.87927    1.000
    H191     H        0.80203    0.70197    0.94047    1.000
    H192     H        0.75763    0.72647    0.96967    1.000
    H193     H        0.80543    0.68287    0.57107    1.000
    H194     H        0.85003    0.66597    0.62717    1.000
    H195     H        0.86793    0.69787    0.52067    1.000
    H196     H        0.82253    0.94727    0.57077    1.000
    H197     H        0.79573    0.87937    0.53377    1.000
    H198     H        0.85103    0.90807    0.61007    1.000
    C91      C        0.54610    0.45390    0.96850    1.000
    C92      C        0.51440    0.48560    0.91700    1.000
    C93      C        0.21277    0.78723    0.30183    1.000
    C94      C        0.18107    0.81893    0.25033    1.000
    C95      C        0.87943    0.12057    0.63517    1.000
    C96      C        0.84773    0.15227    0.58367    1.000
    C97      C        0.54610    0.09220    0.96850    1.000
    C98      C        0.51440    0.02880    0.91700    1.000
    C99      C        0.21277    0.42553    0.30183    1.000
    C100     C        0.18107    0.36213    0.25033    1.000
    C101     C        0.87943    0.75887    0.63517    1.000
    C102     C        0.84773    0.69547    0.58367    1.000
    C103     C        0.90780    0.45390    0.96850    1.000
    C104     C        0.97120    0.48560    0.91700    1.000
    C105     C        0.57447    0.78723    0.30183    1.000
    C106     C        0.63787    0.81893    0.25033    1.000
    C107     C        0.24113    0.12057    0.63517    1.000
    C108     C        0.30453    0.15227    0.58367    1.000
    C109     C        0.43700    0.21850    0.00850    1.000
    C110     C        0.48030    0.24015    0.92350    1.000
    C111     C        0.10367    0.55183    0.34183    1.000
    C112     C        0.14697    0.57348    0.25683    1.000
    C113     C        0.77033    0.88517    0.67517    1.000
    C114     C        0.81363    0.90682    0.59017    1.000
    C115     C        0.78150    0.21850    0.00850    1.000
    C116     C        0.75985    0.24015    0.92350    1.000
    C117     C        0.44817    0.55183    0.34183    1.000
    C118     C        0.42652    0.57348    0.25683    1.000
    C119     C        0.11483    0.88517    0.67517    1.000
    C120     C        0.09318    0.90682    0.59017    1.000
    C121     C        0.78150    0.56300    0.00850    1.000
    C122     C        0.75985    0.51970    0.92350    1.000
    C123     C        0.44817    0.89633    0.34183    1.000
    C124     C        0.42652    0.85303    0.25683    1.000
    C125     C        0.11483    0.22967    0.67517    1.000
    C126     C        0.09318    0.18637    0.59017    1.000
