# CIF file generated by openbabel 3.1.0, see https://openbabel.org
data_I
_chemical_name_common 'image0'
_cell_length_a 35.8613
_cell_length_b 14.8954
_cell_length_c 30.8845
_cell_angle_alpha 90
_cell_angle_beta 101.99
_cell_angle_gamma 90
_space_group_name_H-M_alt 'P 1'
_space_group_name_Hall 'P 1'
loop_
    _symmetry_equiv_pos_as_xyz
    x,y,z
loop_
    _atom_site_label
    _atom_site_type_symbol
    _atom_site_fract_x
    _atom_site_fract_y
    _atom_site_fract_z
    _atom_site_occupancy
    C1       C        0.55863    0.86550    0.49583    1.000
    C2       C        0.27400    0.56000    0.33437    1.000
    C3       C        0.51749    0.66500    0.43970    1.000
    C4       C        0.16757    0.54070    0.21090    1.000
    C5       C        0.55214    0.78590    0.46650    1.000
    C6       C        0.20632    0.72630    0.28038    1.000
    C7       C        0.56693    0.70710    0.41019    1.000
    C8       C        0.17665    0.45310    0.20153    1.000
    H1       H        0.19800    0.42500    0.21820    1.000
    C9       C        0.48407    0.60660    0.43928    1.000
    C10      C        0.24207    0.60450    0.30350    1.000
    C11      C        0.19178    0.59390    0.24662    1.000
    C12      C        0.59236    0.69080    0.37889    1.000
    C13      C        0.53192    0.89110    0.51996    1.000
    H2       H        0.50990    0.85760    0.51870    1.000
    C14      C        0.15328    0.40860    0.16697    1.000
    H3       H        0.15970    0.35040    0.16040    1.000
    C15      C        0.21582    0.97380    0.30590    1.000
    H4       H        0.23230    0.01230    0.32450    1.000
    C16      C        0.16170    0.95240    0.25260    1.000
    H5       H        0.14030    0.97570    0.23390    1.000
    C17      C        0.59188    0.91530    0.49990    1.000
    H6       H        0.61050    0.89930    0.48440    1.000
    C18      C        0.13440    0.57830    0.18630    1.000
    H7       H        0.12700    0.63610    0.19230    1.000
    C19      C        0.60630    0.62450    0.31390    1.000
    H8       H        0.59850    0.58940    0.28870    1.000
    C20      C        0.32560    0.55700    0.39660    1.000
    H9       H        0.34060    0.58740    0.42030    1.000
    C21      C        0.16760    0.86040    0.25270    1.000
    H10      H        0.15060    0.82330    0.23400    1.000
    C22      C        0.29610    0.60350    0.36940    1.000
    H11      H        0.29150    0.66340    0.37490    1.000
    C23      C        0.59670    0.98910    0.52770    1.000
    H12      H        0.61910    0.02220    0.53070    1.000
    C24      C        0.11290    0.52860    0.15300    1.000
    H13      H        0.09070    0.55400    0.13670    1.000
    C25      C        0.43490    0.51290    0.40080    1.000
    H14      H        0.42250    0.48710    0.37430    1.000
    C26      C        0.46570    0.56540    0.40060    1.000
    H15      H        0.47450    0.57370    0.37460    1.000
    C27      C        0.19918    0.82440    0.28091    1.000
    C28      C        0.53857    0.96730    0.54584    1.000
    H16      H        0.51990    0.98580    0.56080    1.000
    C29      C        0.46974    0.59350    0.47641    1.000
    H17      H        0.48060    0.62200    0.50280    1.000
    C30      C        0.22364    0.88310    0.30810    1.000
    H18      H        0.24510    0.86140    0.32760    1.000
    C31      C        0.43873    0.53720    0.47410    1.000
    H19      H        0.42950    0.52710    0.49970    1.000
    C32      C        0.62863    0.72890    0.38620    1.000
    H20      H        0.63700    0.76560    0.41070    1.000
    C33      C        0.28224    0.47100    0.32790    1.000
    H21      H        0.26760    0.43860    0.30460    1.000
    C34      C        0.65174    0.71170    0.35710    1.000
    H22      H        0.67610    0.73620    0.36260    1.000
    C35      C        0.58129    0.63600    0.34220    1.000
    H23      H        0.55770    0.60760    0.33660    1.000
    C36      C        0.31220    0.43100    0.35600    1.000
    H24      H        0.31800    0.37160    0.35090    1.000
    I1       I        0.02951    0.34263    0.12990    1.000
    I2       I        0.73478    0.73419    0.30082    1.000
    I3       I        0.63044    0.67165    0.19880    1.000
    I4       I        0.35818    0.41044    0.50890    1.000
    I5       I        0.39425    0.26649    0.39455    1.000
    N1       N        0.18246    0.67970    0.24954    1.000
    N2       N        0.52404    0.72960    0.47040    1.000
    N3       N        0.53790    0.65020    0.40859    1.000
    N4       N        0.22132    0.55260    0.27210    1.000
    N5       N        0.57469    0.77710    0.43724    1.000
    N6       N        0.23600    0.69250    0.30911    1.000
    N7       N        0.64051    0.66080    0.32083    1.000
    N8       N        0.33339    0.47350    0.39052    1.000
    N9       N        0.42156    0.49670    0.43685    1.000
    N10      N        0.18560    0.00920    0.27840    1.000
    N11      N        0.12207    0.44540    0.14276    1.000
    N12      N        0.57047    0.01540    0.55042    1.000
    Zn1      Zn       0.67377    0.64505    0.27422    1.000
    Zn2      Zn       0.37666    0.40937    0.43401    1.000
    Zn3      Zn       0.08375    0.37768    0.09389    1.000
    I6       I        0.11671    0.25970    0.05650    1.000
    I7       I        0.12543    0.27600    0.05660    1.000
    I8       I        0.01966    0.36400    0.13038    1.000
    I9       I        0.38762    0.26780    0.40810    1.000
    C37      C        0.05863    0.36550    0.49583    1.000
    C38      C        0.77400    0.06000    0.33437    1.000
    C39      C        0.01749    0.16500    0.43970    1.000
    C40      C        0.66757    0.04070    0.21090    1.000
    C41      C        0.05214    0.28590    0.46650    1.000
    C42      C        0.70632    0.22630    0.28038    1.000
    C43      C        0.06693    0.20710    0.41019    1.000
    C44      C        0.67665    0.95310    0.20153    1.000
    H25      H        0.69800    0.92500    0.21820    1.000
    C45      C        0.98407    0.10660    0.43928    1.000
    C46      C        0.74207    0.10450    0.30350    1.000
    C47      C        0.69178    0.09390    0.24662    1.000
    C48      C        0.09236    0.19080    0.37889    1.000
    C49      C        0.03192    0.39110    0.51996    1.000
    H26      H        0.00990    0.35760    0.51870    1.000
    C50      C        0.65328    0.90860    0.16697    1.000
    H27      H        0.65970    0.85040    0.16040    1.000
    C51      C        0.71582    0.47380    0.30590    1.000
    H28      H        0.73230    0.51230    0.32450    1.000
    C52      C        0.66170    0.45240    0.25260    1.000
    H29      H        0.64030    0.47570    0.23390    1.000
    C53      C        0.09188    0.41530    0.49990    1.000
    H30      H        0.11050    0.39930    0.48440    1.000
    C54      C        0.63440    0.07830    0.18630    1.000
    H31      H        0.62700    0.13610    0.19230    1.000
    C55      C        0.10630    0.12450    0.31390    1.000
    H32      H        0.09850    0.08940    0.28870    1.000
    C56      C        0.82560    0.05700    0.39660    1.000
    H33      H        0.84060    0.08740    0.42030    1.000
    C57      C        0.66760    0.36040    0.25270    1.000
    H34      H        0.65060    0.32330    0.23400    1.000
    C58      C        0.79610    0.10350    0.36940    1.000
    H35      H        0.79150    0.16340    0.37490    1.000
    C59      C        0.09670    0.48910    0.52770    1.000
    H36      H        0.11910    0.52220    0.53070    1.000
    C60      C        0.61290    0.02860    0.15300    1.000
    H37      H        0.59070    0.05400    0.13670    1.000
    C61      C        0.93490    0.01290    0.40080    1.000
    H38      H        0.92250    0.98710    0.37430    1.000
    C62      C        0.96570    0.06540    0.40060    1.000
    H39      H        0.97450    0.07370    0.37460    1.000
    C63      C        0.69918    0.32440    0.28091    1.000
    C64      C        0.03857    0.46730    0.54584    1.000
    H40      H        0.01990    0.48580    0.56080    1.000
    C65      C        0.96974    0.09350    0.47641    1.000
    H41      H        0.98060    0.12200    0.50280    1.000
    C66      C        0.72364    0.38310    0.30810    1.000
    H42      H        0.74510    0.36140    0.32760    1.000
    C67      C        0.93873    0.03720    0.47410    1.000
    H43      H        0.92950    0.02710    0.49970    1.000
    C68      C        0.12863    0.22890    0.38620    1.000
    H44      H        0.13700    0.26560    0.41070    1.000
    C69      C        0.78224    0.97100    0.32790    1.000
    H45      H        0.76760    0.93860    0.30460    1.000
    C70      C        0.15174    0.21170    0.35710    1.000
    H46      H        0.17610    0.23620    0.36260    1.000
    C71      C        0.08129    0.13600    0.34220    1.000
    H47      H        0.05770    0.10760    0.33660    1.000
    C72      C        0.81220    0.93100    0.35600    1.000
    H48      H        0.81800    0.87160    0.35090    1.000
    I10      I        0.52951    0.84263    0.12990    1.000
    I11      I        0.23478    0.23419    0.30082    1.000
    I12      I        0.13044    0.17165    0.19880    1.000
    I13      I        0.85818    0.91044    0.50890    1.000
    I14      I        0.89425    0.76649    0.39455    1.000
    N13      N        0.68246    0.17970    0.24954    1.000
    N14      N        0.02404    0.22960    0.47040    1.000
    N15      N        0.03790    0.15020    0.40859    1.000
    N16      N        0.72132    0.05260    0.27210    1.000
    N17      N        0.07469    0.27710    0.43724    1.000
    N18      N        0.73600    0.19250    0.30911    1.000
    N19      N        0.14051    0.16080    0.32083    1.000
    N20      N        0.83339    0.97350    0.39052    1.000
    N21      N        0.92156    0.99670    0.43685    1.000
    N22      N        0.68560    0.50920    0.27840    1.000
    N23      N        0.62207    0.94540    0.14276    1.000
    N24      N        0.07047    0.51540    0.55042    1.000
    Zn4      Zn       0.17377    0.14505    0.27422    1.000
    Zn5      Zn       0.87666    0.90937    0.43401    1.000
    Zn6      Zn       0.58375    0.87768    0.09389    1.000
    I15      I        0.61671    0.75970    0.05650    1.000
    I16      I        0.62543    0.77600    0.05660    1.000
    I17      I        0.51966    0.86400    0.13038    1.000
    I18      I        0.88762    0.76780    0.40810    1.000
    C73      C        0.55863    0.13450    0.99583    1.000
    C74      C        0.27400    0.44000    0.83437    1.000
    C75      C        0.51749    0.33500    0.93970    1.000
    C76      C        0.16757    0.45930    0.71090    1.000
    C77      C        0.55214    0.21410    0.96650    1.000
    C78      C        0.20632    0.27370    0.78038    1.000
    C79      C        0.56693    0.29290    0.91019    1.000
    C80      C        0.17665    0.54690    0.70153    1.000
    H49      H        0.19800    0.57500    0.71820    1.000
    C81      C        0.48407    0.39340    0.93928    1.000
    C82      C        0.24207    0.39550    0.80350    1.000
    C83      C        0.19178    0.40610    0.74662    1.000
    C84      C        0.59236    0.30920    0.87889    1.000
    C85      C        0.53192    0.10890    0.01996    1.000
    H50      H        0.50990    0.14240    0.01870    1.000
    C86      C        0.15328    0.59140    0.66697    1.000
    H51      H        0.15970    0.64960    0.66040    1.000
    C87      C        0.21582    0.02620    0.80590    1.000
    H52      H        0.23230    0.98770    0.82450    1.000
    C88      C        0.16170    0.04760    0.75260    1.000
    H53      H        0.14030    0.02430    0.73390    1.000
    C89      C        0.59188    0.08470    0.99990    1.000
    H54      H        0.61050    0.10070    0.98440    1.000
    C90      C        0.13440    0.42170    0.68630    1.000
    H55      H        0.12700    0.36390    0.69230    1.000
    C91      C        0.60630    0.37550    0.81390    1.000
    H56      H        0.59850    0.41060    0.78870    1.000
    C92      C        0.32560    0.44300    0.89660    1.000
    H57      H        0.34060    0.41260    0.92030    1.000
    C93      C        0.16760    0.13960    0.75270    1.000
    H58      H        0.15060    0.17670    0.73400    1.000
    C94      C        0.29610    0.39650    0.86940    1.000
    H59      H        0.29150    0.33660    0.87490    1.000
    C95      C        0.59670    0.01090    0.02770    1.000
    H60      H        0.61910    0.97780    0.03070    1.000
    C96      C        0.11290    0.47140    0.65300    1.000
    H61      H        0.09070    0.44600    0.63670    1.000
    C97      C        0.43490    0.48710    0.90080    1.000
    H62      H        0.42250    0.51290    0.87430    1.000
    C98      C        0.46570    0.43460    0.90060    1.000
    H63      H        0.47450    0.42630    0.87460    1.000
    C99      C        0.19918    0.17560    0.78091    1.000
    C100     C        0.53857    0.03270    0.04584    1.000
    H64      H        0.51990    0.01420    0.06080    1.000
    C101     C        0.46974    0.40650    0.97641    1.000
    H65      H        0.48060    0.37800    0.00280    1.000
    C102     C        0.22364    0.11690    0.80810    1.000
    H66      H        0.24510    0.13860    0.82760    1.000
    C103     C        0.43873    0.46280    0.97410    1.000
    H67      H        0.42950    0.47290    0.99970    1.000
    C104     C        0.62863    0.27110    0.88620    1.000
    H68      H        0.63700    0.23440    0.91070    1.000
    C105     C        0.28224    0.52900    0.82790    1.000
    H69      H        0.26760    0.56140    0.80460    1.000
    C106     C        0.65174    0.28830    0.85710    1.000
    H70      H        0.67610    0.26380    0.86260    1.000
    C107     C        0.58129    0.36400    0.84220    1.000
    H71      H        0.55770    0.39240    0.83660    1.000
    C108     C        0.31220    0.56900    0.85600    1.000
    H72      H        0.31800    0.62840    0.85090    1.000
    I19      I        0.02951    0.65737    0.62990    1.000
    I20      I        0.73478    0.26581    0.80082    1.000
    I21      I        0.63044    0.32835    0.69880    1.000
    I22      I        0.35818    0.58956    0.00890    1.000
    I23      I        0.39425    0.73351    0.89455    1.000
    N25      N        0.18246    0.32030    0.74954    1.000
    N26      N        0.52404    0.27040    0.97040    1.000
    N27      N        0.53790    0.34980    0.90859    1.000
    N28      N        0.22132    0.44740    0.77210    1.000
    N29      N        0.57469    0.22290    0.93724    1.000
    N30      N        0.23600    0.30750    0.80911    1.000
    N31      N        0.64051    0.33920    0.82083    1.000
    N32      N        0.33339    0.52650    0.89052    1.000
    N33      N        0.42156    0.50330    0.93685    1.000
    N34      N        0.18560    0.99080    0.77840    1.000
    N35      N        0.12207    0.55460    0.64276    1.000
    N36      N        0.57047    0.98460    0.05042    1.000
    Zn7      Zn       0.67377    0.35495    0.77422    1.000
    Zn8      Zn       0.37666    0.59063    0.93401    1.000
    Zn9      Zn       0.08375    0.62232    0.59389    1.000
    I24      I        0.11671    0.74030    0.55650    1.000
    I25      I        0.12543    0.72400    0.55660    1.000
    I26      I        0.01966    0.63600    0.63038    1.000
    I27      I        0.38762    0.73220    0.90810    1.000
    C109     C        0.05863    0.63450    0.99583    1.000
    C110     C        0.77400    0.94000    0.83437    1.000
    C111     C        0.01749    0.83500    0.93970    1.000
    C112     C        0.66757    0.95930    0.71090    1.000
    C113     C        0.05214    0.71410    0.96650    1.000
    C114     C        0.70632    0.77370    0.78038    1.000
    C115     C        0.06693    0.79290    0.91019    1.000
    C116     C        0.67665    0.04690    0.70153    1.000
    H73      H        0.69800    0.07500    0.71820    1.000
    C117     C        0.98407    0.89340    0.93928    1.000
    C118     C        0.74207    0.89550    0.80350    1.000
    C119     C        0.69178    0.90610    0.74662    1.000
    C120     C        0.09236    0.80920    0.87889    1.000
    C121     C        0.03192    0.60890    0.01996    1.000
    H74      H        0.00990    0.64240    0.01870    1.000
    C122     C        0.65328    0.09140    0.66697    1.000
    H75      H        0.65970    0.14960    0.66040    1.000
    C123     C        0.71582    0.52620    0.80590    1.000
    H76      H        0.73230    0.48770    0.82450    1.000
    C124     C        0.66170    0.54760    0.75260    1.000
    H77      H        0.64030    0.52430    0.73390    1.000
    C125     C        0.09188    0.58470    0.99990    1.000
    H78      H        0.11050    0.60070    0.98440    1.000
    C126     C        0.63440    0.92170    0.68630    1.000
    H79      H        0.62700    0.86390    0.69230    1.000
    C127     C        0.10630    0.87550    0.81390    1.000
    H80      H        0.09850    0.91060    0.78870    1.000
    C128     C        0.82560    0.94300    0.89660    1.000
    H81      H        0.84060    0.91260    0.92030    1.000
    C129     C        0.66760    0.63960    0.75270    1.000
    H82      H        0.65060    0.67670    0.73400    1.000
    C130     C        0.79610    0.89650    0.86940    1.000
    H83      H        0.79150    0.83660    0.87490    1.000
    C131     C        0.09670    0.51090    0.02770    1.000
    H84      H        0.11910    0.47780    0.03070    1.000
    C132     C        0.61290    0.97140    0.65300    1.000
    H85      H        0.59070    0.94600    0.63670    1.000
    C133     C        0.93490    0.98710    0.90080    1.000
    H86      H        0.92250    0.01290    0.87430    1.000
    C134     C        0.96570    0.93460    0.90060    1.000
    H87      H        0.97450    0.92630    0.87460    1.000
    C135     C        0.69918    0.67560    0.78091    1.000
    C136     C        0.03857    0.53270    0.04584    1.000
    H88      H        0.01990    0.51420    0.06080    1.000
    C137     C        0.96974    0.90650    0.97641    1.000
    H89      H        0.98060    0.87800    0.00280    1.000
    C138     C        0.72364    0.61690    0.80810    1.000
    H90      H        0.74510    0.63860    0.82760    1.000
    C139     C        0.93873    0.96280    0.97410    1.000
    H91      H        0.92950    0.97290    0.99970    1.000
    C140     C        0.12863    0.77110    0.88620    1.000
    H92      H        0.13700    0.73440    0.91070    1.000
    C141     C        0.78224    0.02900    0.82790    1.000
    H93      H        0.76760    0.06140    0.80460    1.000
    C142     C        0.15174    0.78830    0.85710    1.000
    H94      H        0.17610    0.76380    0.86260    1.000
    C143     C        0.08129    0.86400    0.84220    1.000
    H95      H        0.05770    0.89240    0.83660    1.000
    C144     C        0.81220    0.06900    0.85600    1.000
    H96      H        0.81800    0.12840    0.85090    1.000
    I28      I        0.52951    0.15737    0.62990    1.000
    I29      I        0.23478    0.76581    0.80082    1.000
    I30      I        0.13044    0.82835    0.69880    1.000
    I31      I        0.85818    0.08956    0.00890    1.000
    I32      I        0.89425    0.23351    0.89455    1.000
    N37      N        0.68246    0.82030    0.74954    1.000
    N38      N        0.02404    0.77040    0.97040    1.000
    N39      N        0.03790    0.84980    0.90859    1.000
    N40      N        0.72132    0.94740    0.77210    1.000
    N41      N        0.07469    0.72290    0.93724    1.000
    N42      N        0.73600    0.80750    0.80911    1.000
    N43      N        0.14051    0.83920    0.82083    1.000
    N44      N        0.83339    0.02650    0.89052    1.000
    N45      N        0.92156    0.00330    0.93685    1.000
    N46      N        0.68560    0.49080    0.77840    1.000
    N47      N        0.62207    0.05460    0.64276    1.000
    N48      N        0.07047    0.48460    0.05042    1.000
    Zn10     Zn       0.17377    0.85495    0.77422    1.000
    Zn11     Zn       0.87666    0.09063    0.93401    1.000
    Zn12     Zn       0.58375    0.12232    0.59389    1.000
    I33      I        0.61671    0.24030    0.55650    1.000
    I34      I        0.62543    0.22400    0.55660    1.000
    I35      I        0.51966    0.13600    0.63038    1.000
    I36      I        0.88762    0.23220    0.90810    1.000
    C145     C        0.44137    0.86550    0.00417    1.000
    C146     C        0.72600    0.56000    0.16563    1.000
    C147     C        0.48251    0.66500    0.06030    1.000
    C148     C        0.83243    0.54070    0.28910    1.000
    C149     C        0.44786    0.78590    0.03350    1.000
    C150     C        0.79368    0.72630    0.21962    1.000
    C151     C        0.43307    0.70710    0.08981    1.000
    C152     C        0.82335    0.45310    0.29847    1.000
    H97      H        0.80200    0.42500    0.28180    1.000
    C153     C        0.51593    0.60660    0.06072    1.000
    C154     C        0.75793    0.60450    0.19650    1.000
    C155     C        0.80822    0.59390    0.25338    1.000
    C156     C        0.40764    0.69080    0.12111    1.000
    C157     C        0.46808    0.89110    0.98004    1.000
    H98      H        0.49010    0.85760    0.98130    1.000
    C158     C        0.84672    0.40860    0.33303    1.000
    H99      H        0.84030    0.35040    0.33960    1.000
    C159     C        0.78418    0.97380    0.19410    1.000
    H100     H        0.76770    0.01230    0.17550    1.000
    C160     C        0.83830    0.95240    0.24740    1.000
    H101     H        0.85970    0.97570    0.26610    1.000
    C161     C        0.40812    0.91530    0.00010    1.000
    H102     H        0.38950    0.89930    0.01560    1.000
    C162     C        0.86560    0.57830    0.31370    1.000
    H103     H        0.87300    0.63610    0.30770    1.000
    C163     C        0.39370    0.62450    0.18610    1.000
    H104     H        0.40150    0.58940    0.21130    1.000
    C164     C        0.67440    0.55700    0.10340    1.000
    H105     H        0.65940    0.58740    0.07970    1.000
    C165     C        0.83240    0.86040    0.24730    1.000
    H106     H        0.84940    0.82330    0.26600    1.000
    C166     C        0.70390    0.60350    0.13060    1.000
    H107     H        0.70850    0.66340    0.12510    1.000
    C167     C        0.40330    0.98910    0.97230    1.000
    H108     H        0.38090    0.02220    0.96930    1.000
    C168     C        0.88710    0.52860    0.34700    1.000
    H109     H        0.90930    0.55400    0.36330    1.000
    C169     C        0.56510    0.51290    0.09920    1.000
    H110     H        0.57750    0.48710    0.12570    1.000
    C170     C        0.53430    0.56540    0.09940    1.000
    H111     H        0.52550    0.57370    0.12540    1.000
    C171     C        0.80082    0.82440    0.21909    1.000
    C172     C        0.46143    0.96730    0.95416    1.000
    H112     H        0.48010    0.98580    0.93920    1.000
    C173     C        0.53026    0.59350    0.02359    1.000
    H113     H        0.51940    0.62200    0.99720    1.000
    C174     C        0.77636    0.88310    0.19190    1.000
    H114     H        0.75490    0.86140    0.17240    1.000
    C175     C        0.56127    0.53720    0.02590    1.000
    H115     H        0.57050    0.52710    0.00030    1.000
    C176     C        0.37137    0.72890    0.11380    1.000
    H116     H        0.36300    0.76560    0.08930    1.000
    C177     C        0.71776    0.47100    0.17210    1.000
    H117     H        0.73240    0.43860    0.19540    1.000
    C178     C        0.34826    0.71170    0.14290    1.000
    H118     H        0.32390    0.73620    0.13740    1.000
    C179     C        0.41871    0.63600    0.15780    1.000
    H119     H        0.44230    0.60760    0.16340    1.000
    C180     C        0.68780    0.43100    0.14400    1.000
    H120     H        0.68200    0.37160    0.14910    1.000
    I37      I        0.97049    0.34263    0.37010    1.000
    I38      I        0.26522    0.73419    0.19918    1.000
    I39      I        0.36956    0.67165    0.30120    1.000
    I40      I        0.64182    0.41044    0.99110    1.000
    I41      I        0.60575    0.26649    0.10545    1.000
    N49      N        0.81754    0.67970    0.25046    1.000
    N50      N        0.47596    0.72960    0.02960    1.000
    N51      N        0.46210    0.65020    0.09141    1.000
    N52      N        0.77868    0.55260    0.22790    1.000
    N53      N        0.42531    0.77710    0.06276    1.000
    N54      N        0.76400    0.69250    0.19089    1.000
    N55      N        0.35949    0.66080    0.17917    1.000
    N56      N        0.66661    0.47350    0.10948    1.000
    N57      N        0.57844    0.49670    0.06315    1.000
    N58      N        0.81440    0.00920    0.22160    1.000
    N59      N        0.87793    0.44540    0.35724    1.000
    N60      N        0.42953    0.01540    0.94958    1.000
    Zn13     Zn       0.32623    0.64505    0.22578    1.000
    Zn14     Zn       0.62334    0.40937    0.06599    1.000
    Zn15     Zn       0.91625    0.37768    0.40611    1.000
    I42      I        0.88329    0.25970    0.44350    1.000
    I43      I        0.87457    0.27600    0.44340    1.000
    I44      I        0.98034    0.36400    0.36962    1.000
    I45      I        0.61238    0.26780    0.09190    1.000
    C181     C        0.94137    0.36550    0.00417    1.000
    C182     C        0.22600    0.06000    0.16563    1.000
    C183     C        0.98251    0.16500    0.06030    1.000
    C184     C        0.33243    0.04070    0.28910    1.000
    C185     C        0.94786    0.28590    0.03350    1.000
    C186     C        0.29368    0.22630    0.21962    1.000
    C187     C        0.93307    0.20710    0.08981    1.000
    C188     C        0.32335    0.95310    0.29847    1.000
    H121     H        0.30200    0.92500    0.28180    1.000
    C189     C        0.01593    0.10660    0.06072    1.000
    C190     C        0.25793    0.10450    0.19650    1.000
    C191     C        0.30822    0.09390    0.25338    1.000
    C192     C        0.90764    0.19080    0.12111    1.000
    C193     C        0.96808    0.39110    0.98004    1.000
    H122     H        0.99010    0.35760    0.98130    1.000
    C194     C        0.34672    0.90860    0.33303    1.000
    H123     H        0.34030    0.85040    0.33960    1.000
    C195     C        0.28418    0.47380    0.19410    1.000
    H124     H        0.26770    0.51230    0.17550    1.000
    C196     C        0.33830    0.45240    0.24740    1.000
    H125     H        0.35970    0.47570    0.26610    1.000
    C197     C        0.90812    0.41530    0.00010    1.000
    H126     H        0.88950    0.39930    0.01560    1.000
    C198     C        0.36560    0.07830    0.31370    1.000
    H127     H        0.37300    0.13610    0.30770    1.000
    C199     C        0.89370    0.12450    0.18610    1.000
    H128     H        0.90150    0.08940    0.21130    1.000
    C200     C        0.17440    0.05700    0.10340    1.000
    H129     H        0.15940    0.08740    0.07970    1.000
    C201     C        0.33240    0.36040    0.24730    1.000
    H130     H        0.34940    0.32330    0.26600    1.000
    C202     C        0.20390    0.10350    0.13060    1.000
    H131     H        0.20850    0.16340    0.12510    1.000
    C203     C        0.90330    0.48910    0.97230    1.000
    H132     H        0.88090    0.52220    0.96930    1.000
    C204     C        0.38710    0.02860    0.34700    1.000
    H133     H        0.40930    0.05400    0.36330    1.000
    C205     C        0.06510    0.01290    0.09920    1.000
    H134     H        0.07750    0.98710    0.12570    1.000
    C206     C        0.03430    0.06540    0.09940    1.000
    H135     H        0.02550    0.07370    0.12540    1.000
    C207     C        0.30082    0.32440    0.21909    1.000
    C208     C        0.96143    0.46730    0.95416    1.000
    H136     H        0.98010    0.48580    0.93920    1.000
    C209     C        0.03026    0.09350    0.02359    1.000
    H137     H        0.01940    0.12200    0.99720    1.000
    C210     C        0.27636    0.38310    0.19190    1.000
    H138     H        0.25490    0.36140    0.17240    1.000
    C211     C        0.06127    0.03720    0.02590    1.000
    H139     H        0.07050    0.02710    0.00030    1.000
    C212     C        0.87137    0.22890    0.11380    1.000
    H140     H        0.86300    0.26560    0.08930    1.000
    C213     C        0.21776    0.97100    0.17210    1.000
    H141     H        0.23240    0.93860    0.19540    1.000
    C214     C        0.84826    0.21170    0.14290    1.000
    H142     H        0.82390    0.23620    0.13740    1.000
    C215     C        0.91871    0.13600    0.15780    1.000
    H143     H        0.94230    0.10760    0.16340    1.000
    C216     C        0.18780    0.93100    0.14400    1.000
    H144     H        0.18200    0.87160    0.14910    1.000
    I46      I        0.47049    0.84263    0.37010    1.000
    I47      I        0.76522    0.23419    0.19918    1.000
    I48      I        0.86956    0.17165    0.30120    1.000
    I49      I        0.14182    0.91044    0.99110    1.000
    I50      I        0.10575    0.76649    0.10545    1.000
    N61      N        0.31754    0.17970    0.25046    1.000
    N62      N        0.97596    0.22960    0.02960    1.000
    N63      N        0.96210    0.15020    0.09141    1.000
    N64      N        0.27868    0.05260    0.22790    1.000
    N65      N        0.92531    0.27710    0.06276    1.000
    N66      N        0.26400    0.19250    0.19089    1.000
    N67      N        0.85949    0.16080    0.17917    1.000
    N68      N        0.16661    0.97350    0.10948    1.000
    N69      N        0.07844    0.99670    0.06315    1.000
    N70      N        0.31440    0.50920    0.22160    1.000
    N71      N        0.37793    0.94540    0.35724    1.000
    N72      N        0.92953    0.51540    0.94958    1.000
    Zn16     Zn       0.82623    0.14505    0.22578    1.000
    Zn17     Zn       0.12334    0.90937    0.06599    1.000
    Zn18     Zn       0.41625    0.87768    0.40611    1.000
    I51      I        0.38329    0.75970    0.44350    1.000
    I52      I        0.37457    0.77600    0.44340    1.000
    I53      I        0.48034    0.86400    0.36962    1.000
    I54      I        0.11238    0.76780    0.09190    1.000
    C217     C        0.44137    0.13450    0.50417    1.000
    C218     C        0.72600    0.44000    0.66563    1.000
    C219     C        0.48251    0.33500    0.56030    1.000
    C220     C        0.83243    0.45930    0.78910    1.000
    C221     C        0.44786    0.21410    0.53350    1.000
    C222     C        0.79368    0.27370    0.71962    1.000
    C223     C        0.43307    0.29290    0.58981    1.000
    C224     C        0.82335    0.54690    0.79847    1.000
    H145     H        0.80200    0.57500    0.78180    1.000
    C225     C        0.51593    0.39340    0.56072    1.000
    C226     C        0.75793    0.39550    0.69650    1.000
    C227     C        0.80822    0.40610    0.75338    1.000
    C228     C        0.40764    0.30920    0.62111    1.000
    C229     C        0.46808    0.10890    0.48004    1.000
    H146     H        0.49010    0.14240    0.48130    1.000
    C230     C        0.84672    0.59140    0.83303    1.000
    H147     H        0.84030    0.64960    0.83960    1.000
    C231     C        0.78418    0.02620    0.69410    1.000
    H148     H        0.76770    0.98770    0.67550    1.000
    C232     C        0.83830    0.04760    0.74740    1.000
    H149     H        0.85970    0.02430    0.76610    1.000
    C233     C        0.40812    0.08470    0.50010    1.000
    H150     H        0.38950    0.10070    0.51560    1.000
    C234     C        0.86560    0.42170    0.81370    1.000
    H151     H        0.87300    0.36390    0.80770    1.000
    C235     C        0.39370    0.37550    0.68610    1.000
    H152     H        0.40150    0.41060    0.71130    1.000
    C236     C        0.67440    0.44300    0.60340    1.000
    H153     H        0.65940    0.41260    0.57970    1.000
    C237     C        0.83240    0.13960    0.74730    1.000
    H154     H        0.84940    0.17670    0.76600    1.000
    C238     C        0.70390    0.39650    0.63060    1.000
    H155     H        0.70850    0.33660    0.62510    1.000
    C239     C        0.40330    0.01090    0.47230    1.000
    H156     H        0.38090    0.97780    0.46930    1.000
    C240     C        0.88710    0.47140    0.84700    1.000
    H157     H        0.90930    0.44600    0.86330    1.000
    C241     C        0.56510    0.48710    0.59920    1.000
    H158     H        0.57750    0.51290    0.62570    1.000
    C242     C        0.53430    0.43460    0.59940    1.000
    H159     H        0.52550    0.42630    0.62540    1.000
    C243     C        0.80082    0.17560    0.71909    1.000
    C244     C        0.46143    0.03270    0.45416    1.000
    H160     H        0.48010    0.01420    0.43920    1.000
    C245     C        0.53026    0.40650    0.52359    1.000
    H161     H        0.51940    0.37800    0.49720    1.000
    C246     C        0.77636    0.11690    0.69190    1.000
    H162     H        0.75490    0.13860    0.67240    1.000
    C247     C        0.56127    0.46280    0.52590    1.000
    H163     H        0.57050    0.47290    0.50030    1.000
    C248     C        0.37137    0.27110    0.61380    1.000
    H164     H        0.36300    0.23440    0.58930    1.000
    C249     C        0.71776    0.52900    0.67210    1.000
    H165     H        0.73240    0.56140    0.69540    1.000
    C250     C        0.34826    0.28830    0.64290    1.000
    H166     H        0.32390    0.26380    0.63740    1.000
    C251     C        0.41871    0.36400    0.65780    1.000
    H167     H        0.44230    0.39240    0.66340    1.000
    C252     C        0.68780    0.56900    0.64400    1.000
    H168     H        0.68200    0.62840    0.64910    1.000
    I55      I        0.97049    0.65737    0.87010    1.000
    I56      I        0.26522    0.26581    0.69918    1.000
    I57      I        0.36956    0.32835    0.80120    1.000
    I58      I        0.64182    0.58956    0.49110    1.000
    I59      I        0.60575    0.73351    0.60545    1.000
    N73      N        0.81754    0.32030    0.75046    1.000
    N74      N        0.47596    0.27040    0.52960    1.000
    N75      N        0.46210    0.34980    0.59141    1.000
    N76      N        0.77868    0.44740    0.72790    1.000
    N77      N        0.42531    0.22290    0.56276    1.000
    N78      N        0.76400    0.30750    0.69089    1.000
    N79      N        0.35949    0.33920    0.67917    1.000
    N80      N        0.66661    0.52650    0.60948    1.000
    N81      N        0.57844    0.50330    0.56315    1.000
    N82      N        0.81440    0.99080    0.72160    1.000
    N83      N        0.87793    0.55460    0.85724    1.000
    N84      N        0.42953    0.98460    0.44958    1.000
    Zn19     Zn       0.32623    0.35495    0.72578    1.000
    Zn20     Zn       0.62334    0.59063    0.56599    1.000
    Zn21     Zn       0.91625    0.62232    0.90611    1.000
    I60      I        0.88329    0.74030    0.94350    1.000
    I61      I        0.87457    0.72400    0.94340    1.000
    I62      I        0.98034    0.63600    0.86962    1.000
    I63      I        0.61238    0.73220    0.59190    1.000
    C253     C        0.94137    0.63450    0.50417    1.000
    C254     C        0.22600    0.94000    0.66563    1.000
    C255     C        0.98251    0.83500    0.56030    1.000
    C256     C        0.33243    0.95930    0.78910    1.000
    C257     C        0.94786    0.71410    0.53350    1.000
    C258     C        0.29368    0.77370    0.71962    1.000
    C259     C        0.93307    0.79290    0.58981    1.000
    C260     C        0.32335    0.04690    0.79847    1.000
    H169     H        0.30200    0.07500    0.78180    1.000
    C261     C        0.01593    0.89340    0.56072    1.000
    C262     C        0.25793    0.89550    0.69650    1.000
    C263     C        0.30822    0.90610    0.75338    1.000
    C264     C        0.90764    0.80920    0.62111    1.000
    C265     C        0.96808    0.60890    0.48004    1.000
    H170     H        0.99010    0.64240    0.48130    1.000
    C266     C        0.34672    0.09140    0.83303    1.000
    H171     H        0.34030    0.14960    0.83960    1.000
    C267     C        0.28418    0.52620    0.69410    1.000
    H172     H        0.26770    0.48770    0.67550    1.000
    C268     C        0.33830    0.54760    0.74740    1.000
    H173     H        0.35970    0.52430    0.76610    1.000
    C269     C        0.90812    0.58470    0.50010    1.000
    H174     H        0.88950    0.60070    0.51560    1.000
    C270     C        0.36560    0.92170    0.81370    1.000
    H175     H        0.37300    0.86390    0.80770    1.000
    C271     C        0.89370    0.87550    0.68610    1.000
    H176     H        0.90150    0.91060    0.71130    1.000
    C272     C        0.17440    0.94300    0.60340    1.000
    H177     H        0.15940    0.91260    0.57970    1.000
    C273     C        0.33240    0.63960    0.74730    1.000
    H178     H        0.34940    0.67670    0.76600    1.000
    C274     C        0.20390    0.89650    0.63060    1.000
    H179     H        0.20850    0.83660    0.62510    1.000
    C275     C        0.90330    0.51090    0.47230    1.000
    H180     H        0.88090    0.47780    0.46930    1.000
    C276     C        0.38710    0.97140    0.84700    1.000
    H181     H        0.40930    0.94600    0.86330    1.000
    C277     C        0.06510    0.98710    0.59920    1.000
    H182     H        0.07750    0.01290    0.62570    1.000
    C278     C        0.03430    0.93460    0.59940    1.000
    H183     H        0.02550    0.92630    0.62540    1.000
    C279     C        0.30082    0.67560    0.71909    1.000
    C280     C        0.96143    0.53270    0.45416    1.000
    H184     H        0.98010    0.51420    0.43920    1.000
    C281     C        0.03026    0.90650    0.52359    1.000
    H185     H        0.01940    0.87800    0.49720    1.000
    C282     C        0.27636    0.61690    0.69190    1.000
    H186     H        0.25490    0.63860    0.67240    1.000
    C283     C        0.06127    0.96280    0.52590    1.000
    H187     H        0.07050    0.97290    0.50030    1.000
    C284     C        0.87137    0.77110    0.61380    1.000
    H188     H        0.86300    0.73440    0.58930    1.000
    C285     C        0.21776    0.02900    0.67210    1.000
    H189     H        0.23240    0.06140    0.69540    1.000
    C286     C        0.84826    0.78830    0.64290    1.000
    H190     H        0.82390    0.76380    0.63740    1.000
    C287     C        0.91871    0.86400    0.65780    1.000
    H191     H        0.94230    0.89240    0.66340    1.000
    C288     C        0.18780    0.06900    0.64400    1.000
    H192     H        0.18200    0.12840    0.64910    1.000
    I64      I        0.47049    0.15737    0.87010    1.000
    I65      I        0.76522    0.76581    0.69918    1.000
    I66      I        0.86956    0.82835    0.80120    1.000
    I67      I        0.14182    0.08956    0.49110    1.000
    I68      I        0.10575    0.23351    0.60545    1.000
    N85      N        0.31754    0.82030    0.75046    1.000
    N86      N        0.97596    0.77040    0.52960    1.000
    N87      N        0.96210    0.84980    0.59141    1.000
    N88      N        0.27868    0.94740    0.72790    1.000
    N89      N        0.92531    0.72290    0.56276    1.000
    N90      N        0.26400    0.80750    0.69089    1.000
    N91      N        0.85949    0.83920    0.67917    1.000
    N92      N        0.16661    0.02650    0.60948    1.000
    N93      N        0.07844    0.00330    0.56315    1.000
    N94      N        0.31440    0.49080    0.72160    1.000
    N95      N        0.37793    0.05460    0.85724    1.000
    N96      N        0.92953    0.48460    0.44958    1.000
    Zn22     Zn       0.82623    0.85495    0.72578    1.000
    Zn23     Zn       0.12334    0.09063    0.56599    1.000
    Zn24     Zn       0.41625    0.12232    0.90611    1.000
    I69      I        0.38329    0.24030    0.94350    1.000
    I70      I        0.37457    0.22400    0.94340    1.000
    I71      I        0.48034    0.13600    0.86962    1.000
    I72      I        0.11238    0.23220    0.59190    1.000
