# CIF file generated by openbabel 3.1.0, see https://openbabel.org
data_I
_chemical_name_common 'CIGFEF_clean'
_cell_length_a 10.0634
_cell_length_b 13.0284
_cell_length_c 14.9227
_cell_angle_alpha 79.6622
_cell_angle_beta 70.2946
_cell_angle_gamma 67.2811
_space_group_name_H-M_alt 'P 1'
_space_group_name_Hall 'P 1'
loop_
    _symmetry_equiv_pos_as_xyz
    x,y,z
loop_
    _atom_site_label
    _atom_site_type_symbol
    _atom_site_fract_x
    _atom_site_fract_y
    _atom_site_fract_z
    _atom_site_occupancy
    Nd1      Nd       0.09183    0.29520    0.60800    1.000
    Nd2      Nd       0.35484    0.03020    0.34640    1.000
    Nd3      Nd       0.50497    0.79520    0.10800    1.000
    Nd4      Nd       0.76856    0.53020    0.84640    1.000
    H1       H        0.82410    0.61810    0.19930    1.000
    H2       H        0.00090    0.46030    0.27330    1.000
    H3       H        0.47090    0.31700    0.57740    1.000
    H4       H        0.72060    0.31300    0.57800    1.000
    H5       H        0.11600    0.85300    0.69080    1.000
    H6       H        0.02840    0.70140    0.75880    1.000
    H7       H        0.85850    0.11810    0.69930    1.000
    H8       H        0.76550    0.96030    0.77330    1.000
    H9       H        0.13470    0.81700    0.07740    1.000
    H10      H        0.88840    0.81300    0.07800    1.000
    H11      H        0.84020    0.35300    0.19080    1.000
    H12      H        0.01140    0.20140    0.25880    1.000
    C1       C        0.11400    0.63650    0.62330    1.000
    C2       C        0.45950    0.16460    0.48480    1.000
    C3       C        0.95840    0.45520    0.46600    1.000
    C4       C        0.61840    0.80030    0.31010    1.000
    C5       C        0.19880    0.79090    0.55950    1.000
    C6       C        0.89080    0.52750    0.40090    1.000
    C7       C        0.08670    0.52660    0.64200    1.000
    C8       C        0.97650    0.15980    0.49080    1.000
    C9       C        0.82270    0.61420    0.26240    1.000
    C10      C        0.25080    0.87580    0.48860    1.000
    C11      C        0.92280    0.51950    0.30690    1.000
    C12      C        0.82790    0.19290    0.48530    1.000
    C13      C        0.57990    0.19390    0.48230    1.000
    C14      C        0.56300    0.27010    0.54190    1.000
    C15      C        0.71050    0.26720    0.54180    1.000
    C16      C        0.12810    0.79610    0.65570    1.000
    C17      C        0.07810    0.71080    0.69500    1.000
    C18      C        0.73100    0.69270    0.32230    1.000
    C19      C        0.12620    0.13650    0.12330    1.000
    C20      C        0.39110    0.66460    0.98480    1.000
    C21      C        0.62040    0.95520    0.96600    1.000
    C22      C        0.77120    0.30030    0.81010    1.000
    C23      C        0.95080    0.29090    0.05950    1.000
    C24      C        0.68080    0.02750    0.90090    1.000
    C25      C        0.24470    0.02660    0.14200    1.000
    C26      C        0.87290    0.65980    0.99080    1.000
    C27      C        0.80070    0.11420    0.76240    1.000
    C28      C        0.88480    0.37580    0.98860    1.000
    C29      C        0.75080    0.01950    0.80690    1.000
    C30      C        0.99390    0.69290    0.98530    1.000
    C31      C        0.24390    0.69390    0.98230    1.000
    C32      C        0.12500    0.77010    0.04190    1.000
    C33      C        0.98050    0.76720    0.04180    1.000
    C34      C        0.92010    0.29610    0.15570    1.000
    C35      C        0.01610    0.21080    0.19500    1.000
    C36      C        0.75400    0.19270    0.82230    1.000
    S1       S        0.75290    0.65030    0.43750    1.000
    S2       S        0.20170    0.67330    0.51730    1.000
    S3       S        0.76690    0.12170    0.42850    1.000
    S4       S        0.65930    0.15030    0.93750    1.000
    S5       S        0.10770    0.17330    0.01730    1.000
    S6       S        0.18290    0.62170    0.92850    1.000
    O1       O        0.27660    0.86190    0.40330    1.000
    O2       O        0.89510    0.45360    0.55820    1.000
    O3       O        0.57090    0.86930    0.37330    1.000
    O4       O        0.17350    0.45340    0.58500    1.000
    O5       O        0.57160    0.81450    0.24150    1.000
    O6       O        0.98760    0.50680    0.71400    1.000
    O7       O        0.09880    0.37550    0.43490    1.000
    O8       O        0.34070    0.21730    0.51550    1.000
    O9       O        0.26870    0.94800    0.51460    1.000
    O10      O        0.48600    0.09810    0.41250    1.000
    O11      O        0.01870    0.20020    0.52640    1.000
    O12      O        0.08530    0.10960    0.40220    1.000
    O13      O        0.95820    0.36190    0.90330    1.000
    O14      O        0.59310    0.95360    0.05820    1.000
    O15      O        0.68650    0.36930    0.87330    1.000
    O16      O        0.28810    0.95340    0.08500    1.000
    O17      O        0.87240    0.31450    0.74150    1.000
    O18      O        0.29160    0.00680    0.21400    1.000
    O19      O        0.59080    0.87550    0.93490    1.000
    O20      O        0.42650    0.71730    0.01550    1.000
    O21      O        0.76870    0.44800    0.01460    1.000
    O22      O        0.50340    0.59810    0.91250    1.000
    O23      O        0.75470    0.70020    0.02640    1.000
    O24      O        0.90290    0.60960    0.90220    1.000
