# CIF file generated by openbabel 3.1.0, see https://openbabel.org
data_I
_chemical_name_common 'XALTIP_clean'
_cell_length_a 21.9168
_cell_length_b 21.9168
_cell_length_c 21.9168
_cell_angle_alpha 60
_cell_angle_beta 60
_cell_angle_gamma 60
_space_group_name_H-M_alt 'P 1'
_space_group_name_Hall 'P 1'
loop_
    _symmetry_equiv_pos_as_xyz
    x,y,z
loop_
    _atom_site_label
    _atom_site_type_symbol
    _atom_site_fract_x
    _atom_site_fract_y
    _atom_site_fract_z
    _atom_site_occupancy
    Zn1      Zn       0.25000    0.25000    0.25000    1.000
    Zn2      Zn       0.75000    0.75000    0.75000    1.000
    Co1      Co       0.18152    0.45546    0.18151    1.000
    Co2      Co       0.45547    0.18151    0.18151    1.000
    Co3      Co       0.18152    0.18151    0.18151    1.000
    Co4      Co       0.18152    0.18151    0.45546    1.000
    Co5      Co       0.54453    0.81849    0.81849    1.000
    Co6      Co       0.81848    0.54454    0.81849    1.000
    Co7      Co       0.81848    0.81849    0.81849    1.000
    Co8      Co       0.81848    0.81849    0.54454    1.000
    H1       H        0.07873    0.52901    0.31353    1.000
    H2       H        0.52901    0.07873    0.07873    1.000
    H3       H        0.31353    0.07873    0.07873    1.000
    H4       H        0.07873    0.31353    0.52901    1.000
    H5       H        0.07873    0.31353    0.07873    1.000
    H6       H        0.52901    0.07873    0.31353    1.000
    H7       H        0.31353    0.07873    0.52901    1.000
    H8       H        0.07873    0.52901    0.07873    1.000
    H9       H        0.07873    0.07873    0.52901    1.000
    H10      H        0.52901    0.31353    0.07873    1.000
    H11      H        0.31353    0.52901    0.07873    1.000
    H12      H        0.07873    0.07873    0.31353    1.000
    H13      H        0.47099    0.92127    0.68647    1.000
    H14      H        0.92127    0.47099    0.92127    1.000
    H15      H        0.92127    0.68647    0.92127    1.000
    H16      H        0.68647    0.92127    0.47099    1.000
    H17      H        0.68647    0.92127    0.92127    1.000
    H18      H        0.92127    0.47099    0.68647    1.000
    H19      H        0.92127    0.68647    0.47099    1.000
    H20      H        0.47099    0.92127    0.92127    1.000
    H21      H        0.92127    0.92127    0.47099    1.000
    H22      H        0.68647    0.47099    0.92127    1.000
    H23      H        0.47099    0.68647    0.92127    1.000
    H24      H        0.92127    0.92127    0.68647    1.000
    C1       C        0.11733    0.41571    0.34963    1.000
    C2       C        0.07850    0.48675    0.35625    1.000
    C3       C        0.03880    0.49496    0.42744    1.000
    C4       C        0.41571    0.11733    0.11733    1.000
    C5       C        0.48675    0.07850    0.07850    1.000
    C6       C        0.49496    0.03880    0.03880    1.000
    C7       C        0.34963    0.11733    0.11733    1.000
    C8       C        0.35625    0.07850    0.07850    1.000
    C9       C        0.42744    0.03880    0.03880    1.000
    C10      C        0.11733    0.34963    0.41571    1.000
    C11      C        0.07850    0.35625    0.48675    1.000
    C12      C        0.03880    0.42744    0.49496    1.000
    C13      C        0.11733    0.34963    0.11733    1.000
    C14      C        0.07850    0.35625    0.07850    1.000
    C15      C        0.03880    0.42744    0.03880    1.000
    C16      C        0.41571    0.11733    0.34963    1.000
    C17      C        0.48675    0.07850    0.35625    1.000
    C18      C        0.49496    0.03880    0.42744    1.000
    C19      C        0.34963    0.11733    0.41571    1.000
    C20      C        0.35625    0.07850    0.48675    1.000
    C21      C        0.42744    0.03880    0.49496    1.000
    C22      C        0.11733    0.41571    0.11733    1.000
    C23      C        0.07850    0.48675    0.07850    1.000
    C24      C        0.03880    0.49496    0.03880    1.000
    C25      C        0.11733    0.11733    0.41571    1.000
    C26      C        0.07850    0.07850    0.48675    1.000
    C27      C        0.03880    0.03880    0.49496    1.000
    C28      C        0.41571    0.34963    0.11733    1.000
    C29      C        0.48675    0.35625    0.07850    1.000
    C30      C        0.49496    0.42744    0.03880    1.000
    C31      C        0.34963    0.41571    0.11733    1.000
    C32      C        0.35625    0.48675    0.07850    1.000
    C33      C        0.42744    0.49496    0.03880    1.000
    C34      C        0.11733    0.11733    0.34963    1.000
    C35      C        0.07850    0.07850    0.35625    1.000
    C36      C        0.03880    0.03880    0.42744    1.000
    C37      C        0.58429    0.88267    0.65037    1.000
    C38      C        0.51325    0.92150    0.64375    1.000
    C39      C        0.50504    0.96120    0.57256    1.000
    C40      C        0.88267    0.58429    0.88267    1.000
    C41      C        0.92150    0.51325    0.92150    1.000
    C42      C        0.96120    0.50504    0.96120    1.000
    C43      C        0.88267    0.65037    0.88267    1.000
    C44      C        0.92150    0.64375    0.92150    1.000
    C45      C        0.96120    0.57256    0.96120    1.000
    C46      C        0.65037    0.88267    0.58429    1.000
    C47      C        0.64375    0.92150    0.51325    1.000
    C48      C        0.57256    0.96120    0.50504    1.000
    C49      C        0.65037    0.88267    0.88267    1.000
    C50      C        0.64375    0.92150    0.92150    1.000
    C51      C        0.57256    0.96120    0.96120    1.000
    C52      C        0.88267    0.58429    0.65037    1.000
    C53      C        0.92150    0.51325    0.64375    1.000
    C54      C        0.96120    0.50504    0.57256    1.000
    C55      C        0.88267    0.65037    0.58429    1.000
    C56      C        0.92150    0.64375    0.51325    1.000
    C57      C        0.96120    0.57256    0.50504    1.000
    C58      C        0.58429    0.88267    0.88267    1.000
    C59      C        0.51325    0.92150    0.92150    1.000
    C60      C        0.50504    0.96120    0.96120    1.000
    C61      C        0.88267    0.88267    0.58429    1.000
    C62      C        0.92150    0.92150    0.51325    1.000
    C63      C        0.96120    0.96120    0.50504    1.000
    C64      C        0.65037    0.58429    0.88267    1.000
    C65      C        0.64375    0.51325    0.92150    1.000
    C66      C        0.57256    0.50504    0.96120    1.000
    C67      C        0.58429    0.65037    0.88267    1.000
    C68      C        0.51325    0.64375    0.92150    1.000
    C69      C        0.50504    0.57256    0.96120    1.000
    C70      C        0.88267    0.88267    0.65037    1.000
    C71      C        0.92150    0.92150    0.64375    1.000
    C72      C        0.96120    0.96120    0.57256    1.000
    N1       N        0.16010    0.39029    0.28951    1.000
    N2       N        0.39029    0.16010    0.16010    1.000
    N3       N        0.28951    0.16010    0.16010    1.000
    N4       N        0.16010    0.28951    0.39029    1.000
    N5       N        0.16010    0.28951    0.16010    1.000
    N6       N        0.39029    0.16010    0.28951    1.000
    N7       N        0.28951    0.16010    0.39029    1.000
    N8       N        0.16010    0.39029    0.16010    1.000
    N9       N        0.16010    0.16010    0.39029    1.000
    N10      N        0.39029    0.28951    0.16010    1.000
    N11      N        0.28951    0.39029    0.16010    1.000
    N12      N        0.16010    0.16010    0.28951    1.000
    N13      N        0.60971    0.83990    0.71049    1.000
    N14      N        0.83990    0.60971    0.83990    1.000
    N15      N        0.83990    0.71049    0.83990    1.000
    N16      N        0.71049    0.83990    0.60971    1.000
    N17      N        0.71049    0.83990    0.83990    1.000
    N18      N        0.83990    0.60971    0.71049    1.000
    N19      N        0.83990    0.71049    0.60971    1.000
    N20      N        0.60971    0.83990    0.83990    1.000
    N21      N        0.83990    0.83990    0.60971    1.000
    N22      N        0.71049    0.60971    0.83990    1.000
    N23      N        0.60971    0.71049    0.83990    1.000
    N24      N        0.83990    0.83990    0.71049    1.000
    N25      N        0.18540    0.31460    0.31460    1.000
    N26      N        0.31460    0.18540    0.18540    1.000
    N27      N        0.18540    0.31460    0.18540    1.000
    N28      N        0.31460    0.18540    0.31460    1.000
    N29      N        0.18540    0.18540    0.31460    1.000
    N30      N        0.31460    0.31460    0.18540    1.000
    N31      N        0.68540    0.81460    0.68540    1.000
    N32      N        0.81460    0.68540    0.81460    1.000
    N33      N        0.68540    0.81460    0.81460    1.000
    N34      N        0.81460    0.68540    0.68540    1.000
    N35      N        0.81460    0.81460    0.68540    1.000
    N36      N        0.68540    0.68540    0.81460    1.000
    Cl1      Cl       0.14412    0.56764    0.14412    1.000
    Cl2      Cl       0.56764    0.14412    0.14412    1.000
    Cl3      Cl       0.14412    0.14412    0.14412    1.000
    Cl4      Cl       0.14412    0.14412    0.56764    1.000
    Cl5      Cl       0.43236    0.85588    0.85588    1.000
    Cl6      Cl       0.85588    0.43236    0.85588    1.000
    Cl7      Cl       0.85588    0.85588    0.85588    1.000
    Cl8      Cl       0.85588    0.85588    0.43236    1.000
    O1       O        0.00000    0.56681    0.43319    1.000
    O2       O        0.56681    0.00000    0.00000    1.000
    O3       O        0.43319    0.00000    0.00000    1.000
    O4       O        0.00000    0.43319    0.56681    1.000
    O5       O        0.00000    0.43319    0.00000    1.000
    O6       O        0.56681    0.00000    0.43319    1.000
    O7       O        0.43319    0.00000    0.56681    1.000
    O8       O        0.00000    0.56681    0.00000    1.000
    O9       O        0.00000    0.00000    0.56681    1.000
    O10      O        0.56681    0.43319    0.00000    1.000
    O11      O        0.43319    0.56681    0.00000    1.000
    O12      O        0.00000    0.00000    0.43319    1.000
