# CIF file generated by openbabel 3.1.0, see https://openbabel.org
data_I
_chemical_name_common 'cg100226u_si_004_clean'
_cell_length_a 27.2895
_cell_length_b 27.2892
_cell_length_c 27.2892
_cell_angle_alpha 109.471
_cell_angle_beta 109.471
_cell_angle_gamma 109.471
_space_group_name_H-M_alt 'P 1'
_space_group_name_Hall 'P 1'
loop_
    _symmetry_equiv_pos_as_xyz
    x,y,z
loop_
    _atom_site_label
    _atom_site_type_symbol
    _atom_site_fract_x
    _atom_site_fract_y
    _atom_site_fract_z
    _atom_site_occupancy
    Zn1      Zn       0.25000    0.37500    0.12500    1.000
    Zn2      Zn       0.37500    0.62500    0.75000    1.000
    Zn3      Zn       0.75000    0.12500    0.37500    1.000
    Zn4      Zn       0.62500    0.37500    0.25000    1.000
    Zn5      Zn       0.12500    0.87500    0.25000    1.000
    Zn6      Zn       0.87500    0.12500    0.75000    1.000
    Zn7      Zn       0.37500    0.75000    0.12500    1.000
    Zn8      Zn       0.62500    0.25000    0.87500    1.000
    Zn9      Zn       0.12500    0.25000    0.37500    1.000
    Zn10     Zn       0.25000    0.87500    0.62500    1.000
    Zn11     Zn       0.87500    0.75000    0.62500    1.000
    Zn12     Zn       0.75000    0.62500    0.87500    1.000
    H1       H        0.85620    0.81370    0.73250    1.000
    H2       H        0.22030    0.08770    0.95140    1.000
    H3       H        0.10830    0.70690    0.20580    1.000
    H4       H        0.91230    0.54860    0.27970    1.000
    H5       H        0.61440    0.59490    0.22450    1.000
    H6       H        0.18630    0.76750    0.64380    1.000
    H7       H        0.48050    0.88560    0.61010    1.000
    H8       H        0.95750    0.08120    0.81370    1.000
    H9       H        0.12960    0.51950    0.90510    1.000
    H10      H        0.26860    0.91600    0.14600    1.000
    H11      H        0.33900    0.07000    0.03840    1.000
    H12      H        0.90140    0.29310    0.49890    1.000
    H13      H        0.96320    0.21510    0.16370    1.000
    H14      H        0.18630    0.41880    0.04250    1.000
    H15      H        0.10830    0.40140    0.40250    1.000
    H16      H        0.37040    0.09490    0.48050    1.000
    H17      H        0.16370    0.44860    0.70050    1.000
    H18      H        0.72450    0.11010    0.12960    1.000
    H19      H        0.88990    0.51950    0.61440    1.000
    H20      H        0.66100    0.73100    0.19940    1.000
    H21      H        0.73100    0.69940    0.16100    1.000
    H22      H        0.76970    0.20390    0.63560    1.000
    H23      H        0.31370    0.35620    0.23250    1.000
    H24      H        0.39170    0.79420    0.29310    1.000
    H25      H        0.23100    0.07000    0.03160    1.000
    H26      H        0.33900    0.26900    0.80060    1.000
    H27      H        0.93420    0.73030    0.86590    1.000
    H28      H        0.77550    0.90510    0.38560    1.000
    H29      H        0.76900    0.93000    0.96840    1.000
    H30      H        0.20690    0.60830    0.70580    1.000
    H31      H        0.36440    0.06830    0.63410    1.000
    H32      H        0.91880    0.68630    0.54250    1.000
    H33      H        0.49890    0.70580    0.09750    1.000
    H34      H        0.70390    0.26970    0.13560    1.000
    H35      H        0.19940    0.23100    0.66100    1.000
    H36      H        0.33630    0.03680    0.28490    1.000
    H37      H        0.90510    0.01950    0.12960    1.000
    H38      H        0.63260    0.72030    0.26890    1.000
    H39      H        0.43000    0.16100    0.46160    1.000
    H40      H        0.58770    0.72030    0.45140    1.000
    H41      H        0.73250    0.31370    0.85620    1.000
    H42      H        0.40250    0.90140    0.10830    1.000
    H43      H        0.58120    0.12370    0.76750    1.000
    H44      H        0.36590    0.93420    0.23030    1.000
    H45      H        0.53680    0.83630    0.78490    1.000
    H46      H        0.20390    0.06830    0.43420    1.000
    H47      H        0.77970    0.91230    0.04860    1.000
    H48      H        0.87040    0.48050    0.09490    1.000
    H49      H        0.29310    0.29420    0.39170    1.000
    H50      H        0.86590    0.63560    0.43170    1.000
    H51      H        0.81370    0.58120    0.95750    1.000
    H52      H        0.20580    0.20690    0.10830    1.000
    H53      H        0.04860    0.41230    0.77970    1.000
    H54      H        0.37040    0.27550    0.38990    1.000
    H55      H        0.70580    0.10830    0.20690    1.000
    H56      H        0.26900    0.30060    0.83900    1.000
    H57      H        0.83630    0.55140    0.29950    1.000
    H58      H        0.58770    0.86740    0.63630    1.000
    H59      H        0.35400    0.73140    0.58400    1.000
    H60      H        0.45140    0.23110    0.36370    1.000
    H61      H        0.29950    0.24810    0.96320    1.000
    H62      H        0.73140    0.08400    0.85400    1.000
    H63      H        0.41880    0.87630    0.23250    1.000
    H64      H        0.80060    0.76900    0.33900    1.000
    H65      H        0.30060    0.33900    0.76900    1.000
    H66      H        0.62370    0.54250    0.85620    1.000
    H67      H        0.76750    0.14380    0.68630    1.000
    H68      H        0.93170    0.06580    0.29610    1.000
    H69      H        0.37740    0.14740    0.73140    1.000
    H70      H        0.71510    0.46320    0.66370    1.000
    H71      H        0.37630    0.91880    0.73250    1.000
    H72      H        0.53840    0.33900    0.57000    1.000
    H73      H        0.29420    0.89170    0.79310    1.000
    H74      H        0.23250    0.37630    0.41880    1.000
    H75      H        0.96160    0.53160    0.80060    1.000
    H76      H        0.83900    0.80060    0.26900    1.000
    H77      H        0.55140    0.75190    0.71510    1.000
    H78      H        0.90250    0.10830    0.90140    1.000
    H79      H        0.12960    0.61010    0.72450    1.000
    H80      H        0.53840    0.19940    0.46840    1.000
    H81      H        0.80060    0.03160    0.96160    1.000
    H82      H        0.40140    0.90250    0.60830    1.000
    H83      H        0.37630    0.45750    0.14380    1.000
    H84      H        0.09860    0.70690    0.50110    1.000
    H85      H        0.03680    0.78490    0.83630    1.000
    H86      H        0.40510    0.12960    0.01950    1.000
    H87      H        0.23110    0.86370    0.95140    1.000
    H88      H        0.26900    0.96840    0.93000    1.000
    H89      H        0.44860    0.24810    0.28490    1.000
    H90      H        0.03160    0.46160    0.30060    1.000
    H91      H        0.04860    0.63630    0.76890    1.000
    H92      H        0.14600    0.41600    0.26860    1.000
    H93      H        0.25190    0.05140    0.21510    1.000
    H94      H        0.62370    0.08120    0.26750    1.000
    H95      H        0.96840    0.53840    0.69940    1.000
    H96      H        0.77000    0.41600    0.14740    1.000
    H97      H        0.79420    0.00110    0.40250    1.000
    H98      H        0.46320    0.16370    0.21510    1.000
    H99      H        0.75190    0.21510    0.05140    1.000
    H100     H        0.71510    0.25190    0.55140    1.000
    H101     H        0.85400    0.27000    0.62260    1.000
    H102     H        0.40250    0.50110    0.79420    1.000
    H103     H        0.77000    0.35400    0.12260    1.000
    H104     H        0.56830    0.70390    0.93420    1.000
    H105     H        0.23250    0.85620    0.31370    1.000
    H106     H        0.73100    0.03160    0.07000    1.000
    H107     H        0.36370    0.73110    0.45140    1.000
    H108     H        0.60830    0.40250    0.40140    1.000
    H109     H        0.09750    0.20580    0.49890    1.000
    H110     H        0.76860    0.14600    0.91600    1.000
    H111     H        0.72030    0.76890    0.13260    1.000
    H112     H        0.14380    0.18630    0.26750    1.000
    H113     H        0.21510    0.66370    0.46320    1.000
    H114     H        0.23030    0.79610    0.36440    1.000
    H115     H        0.77970    0.86740    0.23110    1.000
    H116     H        0.63630    0.36740    0.58770    1.000
    H117     H        0.70390    0.43420    0.06830    1.000
    H118     H        0.74810    0.94860    0.78490    1.000
    H119     H        0.08400    0.73000    0.35260    1.000
    H120     H        0.43420    0.56830    0.20390    1.000
    H121     H        0.37740    0.23000    0.14600    1.000
    H122     H        0.41230    0.13260    0.36370    1.000
    H123     H        0.86590    0.23030    0.93420    1.000
    H124     H        0.12370    0.26750    0.08120    1.000
    H125     H        0.26750    0.68630    0.14380    1.000
    H126     H        0.78490    0.33630    0.53680    1.000
    H127     H        0.76970    0.56580    0.63410    1.000
    H128     H        0.26750    0.58120    0.62370    1.000
    H129     H        0.35620    0.62370    0.04250    1.000
    H130     H        0.94860    0.66370    0.20050    1.000
    H131     H        0.11010    0.62960    0.22450    1.000
    H132     H        0.75190    0.53680    0.20050    1.000
    H133     H        0.70690    0.00110    0.59860    1.000
    H134     H        0.76900    0.83900    0.30060    1.000
    H135     H        0.38560    0.40510    0.77550    1.000
    H136     H        0.61010    0.38560    0.48050    1.000
    H137     H        0.73000    0.85260    0.58400    1.000
    H138     H        0.20690    0.59860    0.00110    1.000
    H139     H        0.25190    0.20050    0.53680    1.000
    H140     H        0.59490    0.72450    0.11440    1.000
    H141     H        0.63260    0.91230    0.86370    1.000
    H142     H        0.38560    0.98050    0.11010    1.000
    H143     H        0.20580    0.99890    0.59750    1.000
    H144     H        0.91880    0.23250    0.87630    1.000
    H145     H        0.63410    0.06580    0.76970    1.000
    H146     H        0.14740    0.23140    0.87740    1.000
    H147     H        0.23030    0.43420    0.36590    1.000
    H148     H        0.87740    0.73140    0.14740    1.000
    H149     H        0.13630    0.58770    0.36740    1.000
    H150     H        0.83630    0.28490    0.03680    1.000
    H151     H        0.21510    0.55140    0.25190    1.000
    H152     H        0.30060    0.96160    0.03160    1.000
    H153     H        0.33630    0.29950    0.55140    1.000
    H154     H        0.99890    0.90140    0.79310    1.000
    H155     H        0.89170    0.59860    0.59750    1.000
    H156     H        0.96320    0.74810    0.29950    1.000
    H157     H        0.19940    0.96840    0.03840    1.000
    H158     H        0.26890    0.04860    0.13630    1.000
    H159     H        0.79420    0.79310    0.89170    1.000
    H160     H        0.66370    0.96320    0.71510    1.000
    H161     H        0.87630    0.73250    0.91880    1.000
    H162     H        0.66100    0.93000    0.96160    1.000
    H163     H        0.09750    0.89170    0.09860    1.000
    H164     H        0.03680    0.25190    0.70050    1.000
    H165     H        0.41230    0.27970    0.54860    1.000
    H166     H        0.68630    0.04250    0.41880    1.000
    H167     H        0.98050    0.61010    0.88560    1.000
    H168     H        0.72030    0.95140    0.08770    1.000
    H169     H        0.63560    0.70390    0.76970    1.000
    H170     H        0.78490    0.44860    0.74810    1.000
    H171     H        0.27970    0.04860    0.91230    1.000
    H172     H        0.08400    0.35400    0.23140    1.000
    H173     H        0.38990    0.61440    0.51950    1.000
    H174     H        0.89170    0.29310    0.79420    1.000
    H175     H        0.46160    0.80060    0.53160    1.000
    H176     H        0.29610    0.56580    0.93170    1.000
    H177     H        0.62960    0.90510    0.51950    1.000
    H178     H        0.03840    0.57000    0.33900    1.000
    H179     H        0.64380    0.26750    0.18630    1.000
    H180     H        0.27000    0.14740    0.41600    1.000
    H181     H        0.13630    0.54860    0.26890    1.000
    H182     H        0.86440    0.63410    0.06830    1.000
    H183     H        0.60830    0.20580    0.70690    1.000
    H184     H        0.29310    0.99890    0.40140    1.000
    H185     H        0.79950    0.83630    0.05140    1.000
    H186     H        0.23140    0.85400    0.08400    1.000
    H187     H        0.58120    0.45750    0.31370    1.000
    H188     H        0.27550    0.88990    0.87040    1.000
    H189     H        0.64600    0.37740    0.73000    1.000
    H190     H        0.35400    0.62260    0.27000    1.000
    H191     H        0.09490    0.11440    0.72450    1.000
    H192     H        0.73250    0.41880    0.37630    1.000
    H193     H        0.01950    0.38990    0.11440    1.000
    H194     H        0.79610    0.93170    0.56580    1.000
    H195     H        0.63410    0.56830    0.36440    1.000
    H196     H        0.79610    0.86440    0.73030    1.000
    H197     H        0.06580    0.26970    0.13410    1.000
    H198     H        0.87040    0.38990    0.27550    1.000
    H199     H        0.79310    0.40140    0.99890    1.000
    H200     H        0.64600    0.26860    0.41600    1.000
    H201     H        0.16100    0.96160    0.93000    1.000
    H202     H        0.53680    0.70050    0.25190    1.000
    H203     H        0.58400    0.35260    0.73000    1.000
    H204     H        0.88560    0.77550    0.40510    1.000
    H205     H        0.49890    0.79310    0.90140    1.000
    H206     H        0.86440    0.23030    0.29610    1.000
    H207     H        0.95750    0.87630    0.64380    1.000
    H208     H        0.57000    0.73100    0.53160    1.000
    H209     H        0.90140    0.60830    0.90250    1.000
    H210     H        0.50110    0.29420    0.90250    1.000
    H211     H        0.29950    0.05140    0.83630    1.000
    H212     H        0.29610    0.73030    0.86440    1.000
    H213     H        0.27000    0.12260    0.35400    1.000
    H214     H        0.54860    0.76890    0.63630    1.000
    H215     H        0.07000    0.53160    0.73100    1.000
    H216     H        0.13260    0.26890    0.72030    1.000
    H217     H        0.66370    0.70050    0.44860    1.000
    H218     H        0.73140    0.64740    0.37740    1.000
    H219     H        0.87740    0.14600    0.23000    1.000
    H220     H        0.59750    0.49890    0.20580    1.000
    H221     H        0.24810    0.46320    0.79950    1.000
    H222     H        0.28490    0.74810    0.44860    1.000
    H223     H        0.86740    0.13630    0.08770    1.000
    H224     H        0.04250    0.12370    0.35620    1.000
    H225     H        0.54250    0.18630    0.91880    1.000
    H226     H        0.73030    0.36440    0.79610    1.000
    H227     H        0.61010    0.22450    0.62960    1.000
    H228     H        0.23140    0.37740    0.64740    1.000
    H229     H        0.04250    0.91880    0.18630    1.000
    H230     H        0.56830    0.86440    0.13410    1.000
    H231     H        0.36440    0.29610    0.23030    1.000
    H232     H        0.23000    0.58400    0.85260    1.000
    H233     H        0.40510    0.27550    0.88560    1.000
    H234     H        0.64740    0.77000    0.91600    1.000
    H235     H        0.08770    0.63630    0.86740    1.000
    H236     H        0.14380    0.95750    0.37630    1.000
    H237     H        0.76890    0.13630    0.04860    1.000
    H238     H        0.59490    0.87040    0.98050    1.000
    H239     H        0.73110    0.95140    0.86370    1.000
    H240     H        0.93000    0.46160    0.16100    1.000
    H241     H        0.88560    0.11010    0.98050    1.000
    H242     H        0.09860    0.39170    0.09750    1.000
    H243     H        0.90510    0.88560    0.27550    1.000
    H244     H        0.26860    0.35260    0.62260    1.000
    H245     H        0.26890    0.22030    0.63260    1.000
    H246     H        0.41880    0.54250    0.68630    1.000
    H247     H        0.85260    0.08400    0.23000    1.000
    H248     H        0.69940    0.03840    0.96840    1.000
    H249     H        0.35260    0.12260    0.76860    1.000
    H250     H        0.53160    0.23100    0.57000    1.000
    H251     H        0.14740    0.91600    0.77000    1.000
    H252     H        0.87630    0.14380    0.45750    1.000
    H253     H        0.07000    0.53840    0.83900    1.000
    H254     H        0.14600    0.73000    0.37740    1.000
    H255     H        0.70690    0.70580    0.60830    1.000
    H256     H        0.13560    0.76970    0.70390    1.000
    H257     H        0.13260    0.86370    0.91230    1.000
    H258     H        0.00110    0.90250    0.29420    1.000
    H259     H        0.36740    0.08770    0.13630    1.000
    H260     H        0.27550    0.38560    0.90510    1.000
    H261     H        0.85620    0.04250    0.62370    1.000
    H262     H        0.22450    0.09490    0.61440    1.000
    H263     H        0.64740    0.87740    0.23140    1.000
    H264     H        0.43170    0.13560    0.86590    1.000
    H265     H        0.76860    0.62260    0.35260    1.000
    H266     H        0.77550    0.87040    0.88990    1.000
    H267     H        0.73030    0.36590    0.43420    1.000
    H268     H        0.23100    0.16100    0.69940    1.000
    H269     H        0.96160    0.43000    0.66100    1.000
    H270     H        0.46320    0.29950    0.74810    1.000
    H271     H        0.16370    0.71510    0.96320    1.000
    H272     H        0.54250    0.35620    0.12370    1.000
    H273     H        0.22450    0.12960    0.11010    1.000
    H274     H        0.23000    0.64600    0.87740    1.000
    H275     H        0.20050    0.16370    0.94860    1.000
    H276     H        0.53160    0.30060    0.46160    1.000
    H277     H        0.95140    0.58770    0.22030    1.000
    H278     H        0.45750    0.64380    0.87630    1.000
    H279     H        0.20050    0.03680    0.75190    1.000
    H280     H        0.56580    0.43170    0.79610    1.000
    H281     H        0.06830    0.93420    0.70390    1.000
    H282     H        0.57000    0.83900    0.53840    1.000
    H283     H        0.51950    0.40510    0.62960    1.000
    H284     H        0.35260    0.23000    0.08400    1.000
    H285     H        0.06830    0.13410    0.86440    1.000
    H286     H        0.46840    0.76900    0.43000    1.000
    H287     H        0.11440    0.22450    0.59490    1.000
    H288     H        0.61440    0.01950    0.88990    1.000
    H289     H        0.00110    0.09860    0.20690    1.000
    H290     H        0.86370    0.45140    0.73110    1.000
    H291     H        0.38990    0.77550    0.37040    1.000
    H292     H        0.70050    0.75190    0.03680    1.000
    H293     H        0.81370    0.23250    0.35620    1.000
    H294     H        0.36590    0.43170    0.63560    1.000
    H295     H        0.86370    0.41230    0.63260    1.000
    H296     H        0.73110    0.77970    0.36740    1.000
    H297     H        0.56580    0.13410    0.26970    1.000
    H298     H        0.22030    0.13260    0.76890    1.000
    H299     H        0.46840    0.69940    0.53840    1.000
    H300     H        0.12260    0.26860    0.85260    1.000
    H301     H        0.35620    0.73250    0.81370    1.000
    H302     H        0.62260    0.77000    0.85400    1.000
    H303     H        0.58400    0.23140    0.35400    1.000
    H304     H        0.09490    0.98050    0.87040    1.000
    H305     H        0.44860    0.20050    0.66370    1.000
    H306     H        0.91600    0.27000    0.64740    1.000
    H307     H        0.91230    0.36370    0.13260    1.000
    H308     H        0.76890    0.63260    0.22030    1.000
    H309     H        0.70580    0.59750    0.99890    1.000
    H310     H        0.13560    0.36590    0.93170    1.000
    H311     H        0.68630    0.64380    0.76750    1.000
    H312     H        0.85400    0.58400    0.73140    1.000
    H313     H        0.50110    0.20690    0.09860    1.000
    H314     H        0.64380    0.37630    0.95750    1.000
    H315     H        0.62960    0.72450    0.61010    1.000
    H316     H        0.08120    0.31370    0.45750    1.000
    H317     H        0.08120    0.76750    0.12370    1.000
    H318     H        0.59860    0.50110    0.70690    1.000
    H319     H        0.03840    0.46840    0.19940    1.000
    H320     H        0.59750    0.09860    0.89170    1.000
    H321     H        0.93000    0.46840    0.26900    1.000
    H322     H        0.40140    0.49890    0.29310    1.000
    H323     H        0.79950    0.96320    0.24810    1.000
    H324     H        0.51950    0.11440    0.38990    1.000
    H325     H        0.43420    0.86590    0.73030    1.000
    H326     H        0.31370    0.95750    0.58120    1.000
    H327     H        0.06580    0.79610    0.43170    1.000
    H328     H        0.43000    0.26900    0.46840    1.000
    H329     H        0.39170    0.59750    0.59860    1.000
    H330     H        0.48050    0.59490    0.37040    1.000
    H331     H        0.90250    0.79420    0.50110    1.000
    H332     H        0.93170    0.86590    0.13560    1.000
    H333     H        0.16100    0.19940    0.73100    1.000
    H334     H        0.08770    0.45140    0.72030    1.000
    H335     H        0.76750    0.62370    0.58120    1.000
    H336     H        0.45750    0.81370    0.08120    1.000
    H337     H        0.12370    0.85620    0.54250    1.000
    H338     H        0.23110    0.36740    0.77970    1.000
    H339     H        0.91600    0.64600    0.76860    1.000
    H340     H        0.01950    0.62960    0.40510    1.000
    H341     H        0.36370    0.63260    0.41230    1.000
    H342     H        0.29420    0.40250    0.00110    1.000
    H343     H        0.83900    0.03840    0.07000    1.000
    H344     H        0.63560    0.93170    0.36590    1.000
    H345     H        0.24810    0.78490    0.94860    1.000
    H346     H        0.54860    0.77970    0.41230    1.000
    H347     H        0.62260    0.85260    0.26860    1.000
    H348     H        0.26970    0.63560    0.20390    1.000
    H349     H        0.05140    0.71510    0.75190    1.000
    H350     H        0.05140    0.33630    0.79950    1.000
    H351     H        0.69940    0.66100    0.23100    1.000
    H352     H        0.11440    0.88990    0.01950    1.000
    H353     H        0.46160    0.66100    0.43000    1.000
    H354     H        0.99890    0.09750    0.70580    1.000
    H355     H        0.12260    0.85400    0.77000    1.000
    H356     H        0.94860    0.28490    0.24810    1.000
    H357     H        0.13410    0.76970    0.06580    1.000
    H358     H        0.96840    0.43000    0.76900    1.000
    H359     H        0.41600    0.76860    0.64600    1.000
    H360     H        0.98050    0.37040    0.59490    1.000
    H361     H        0.70050    0.94860    0.16370    1.000
    H362     H        0.43170    0.29610    0.06580    1.000
    H363     H        0.95140    0.36370    0.23110    1.000
    H364     H        0.28490    0.53680    0.33630    1.000
    H365     H        0.86740    0.73110    0.27970    1.000
    H366     H        0.41600    0.64740    0.27000    1.000
    H367     H        0.20390    0.13560    0.26970    1.000
    H368     H        0.13410    0.36440    0.56830    1.000
    H369     H        0.79310    0.39170    0.29420    1.000
    H370     H        0.11010    0.48050    0.38560    1.000
    H371     H        0.03160    0.57000    0.23100    1.000
    H372     H        0.73000    0.87740    0.64600    1.000
    H373     H        0.45140    0.22030    0.58770    1.000
    H374     H        0.63630    0.26890    0.54860    1.000
    H375     H        0.85260    0.76860    0.12260    1.000
    H376     H        0.27970    0.23110    0.86740    1.000
    H377     H        0.36740    0.27970    0.73110    1.000
    H378     H        0.93420    0.20390    0.56830    1.000
    H379     H        0.88990    0.37040    0.77550    1.000
    H380     H        0.74810    0.79950    0.46320    1.000
    H381     H        0.72450    0.61440    0.09490    1.000
    H382     H        0.59860    0.09750    0.39170    1.000
    H383     H        0.55140    0.79950    0.33630    1.000
    H384     H        0.26970    0.63410    0.56580    1.000
    C1       C        0.17295    0.97202    0.16381    1.000
    C2       C        0.62803    0.25000    0.37197    1.000
    C3       C        0.54861    0.70537    0.22404    1.000
    C4       C        0.62213    0.72363    0.19260    1.000
    C5       C        0.83979    0.82221    0.70182    1.000
    C6       C        0.13797    0.29818    0.12039    1.000
    C7       C        0.42953    0.80740    0.53103    1.000
    C8       C        0.32705    0.49086    0.79907    1.000
    C9       C        0.20677    0.32876    0.51099    1.000
    C10      C        0.63797    0.12039    0.29818    1.000
    C11      C        0.86203    0.70182    0.87961    1.000
    C12      C        0.13212    0.20837    0.52607    1.000
    C13      C        0.73389    0.12879    0.01702    1.000
    C14      C        0.53103    0.30740    0.42953    1.000
    C15      C        0.99086    0.16381    0.19179    1.000
    C16      C        0.22404    0.20537    0.54861    1.000
    C17      C        0.37787    0.10150    0.07047    1.000
    C18      C        0.89415    0.19302    0.54317    1.000
    C19      C        0.86340    0.44079    0.08301    1.000
    C20      C        0.60510    0.71687    0.23389    1.000
    C21      C        0.52798    0.20093    0.69179    1.000
    C22      C        0.67779    0.01758    0.37961    1.000
    C23      C        0.69302    0.29887    0.14985    1.000
    C24      C        0.60605    0.47393    0.68230    1.000
    C25      C        0.23389    0.21687    0.60510    1.000
    C26      C        0.79163    0.81770    0.92375    1.000
    C27      C        0.67543    0.45139    0.65676    1.000
    C28      C        0.12199    0.30422    0.29323    1.000
    C29      C        0.89395    0.31770    0.52607    1.000
    C30      C        0.35015    0.30698    0.20113    1.000
    C31      C        0.30740    0.37787    0.77637    1.000
    C32      C        0.32221    0.98242    0.62039    1.000
    C33      C        0.70113    0.35015    0.80698    1.000
    C34      C        0.19578    0.81777    0.48901    1.000
    C35      C        0.38823    0.10510    0.37121    1.000
    C36      C        0.87197    0.24394    0.62197    1.000
    C37      C        0.98242    0.86203    0.66021    1.000
    C38      C        0.51867    0.72404    0.67543    1.000
    C39      C        0.64902    0.54317    0.35015    1.000
    C40      C        0.42375    0.63212    0.60605    1.000
    C41      C        0.80821    0.33619    0.00914    1.000
    C42      C        0.97393    0.10605    0.18230    1.000
    C43      C        0.61177    0.71687    0.48298    1.000
    C44      C        0.86340    0.42261    0.28039    1.000
    C45      C        0.28039    0.92261    0.86340    1.000
    C46      C        0.01758    0.87961    0.17779    1.000
    C47      C        0.41699    0.13660    0.05921    1.000
    C48      C        0.70093    0.67295    0.00914    1.000
    C49      C        0.62803    0.37803    0.75606    1.000
    C50      C        0.62879    0.23389    0.51702    1.000
    C51      C        0.30422    0.79323    0.62199    1.000
    C52      C        0.69260    0.07047    0.96897    1.000
    C53      C        0.45139    0.15676    0.17543    1.000
    C54      C        0.07047    0.46897    0.19260    1.000
    C55      C        0.80422    0.18223    0.51099    1.000
    C56      C        0.70537    0.72404    0.04861    1.000
    C57      C        0.98901    0.19578    0.31777    1.000
    C58      C        0.20182    0.83979    0.32221    1.000
    C59      C        0.70837    0.63212    0.02607    1.000
    C60      C        0.82221    0.20182    0.33979    1.000
    C61      C        0.20537    0.04861    0.72404    1.000
    C62      C        0.79163    0.97393    0.36788    1.000
    C63      C        0.72404    0.54861    0.20537    1.000
    C64      C        0.62039    0.13797    0.79818    1.000
    C65      C        0.47393    0.29163    0.86788    1.000
    C66      C        0.05921    0.42261    0.14222    1.000
    C67      C        0.82705    0.79907    0.49086    1.000
    C68      C        0.62199    0.32876    0.81777    1.000
    C69      C        0.62197    0.87803    0.25000    1.000
    C70      C        0.42261    0.64222    0.55921    1.000
    C71      C        0.77596    0.98133    0.82457    1.000
    C72      C        0.77637    0.89850    0.96897    1.000
    C73      C        0.70093    0.02798    0.19179    1.000
    C74      C        0.80740    0.03103    0.92953    1.000
    C75      C        0.10605    0.68230    0.47393    1.000
    C76      C        0.23389    0.01702    0.12879    1.000
    C77      C        0.62213    0.89850    0.92953    1.000
    C78      C        0.75606    0.87803    0.62803    1.000
    C79      C        0.17779    0.79818    0.66021    1.000
    C80      C        0.87197    0.62803    0.75000    1.000
    C81      C        0.32457    0.54861    0.34324    1.000
    C82      C        0.87121    0.48298    0.76611    1.000
    C83      C        0.07625    0.39395    0.36788    1.000
    C84      C        0.72363    0.69260    0.12213    1.000
    C85      C        0.21687    0.10510    0.73389    1.000
    C86      C        0.80740    0.77637    0.37787    1.000
    C87      C        0.12879    0.61177    0.39490    1.000
    C88      C        0.12039    0.32221    0.48242    1.000
    C89      C        0.07739    0.63660    0.21961    1.000
    C90      C        0.01702    0.38823    0.78313    1.000
    C91      C        0.60150    0.87787    0.57047    1.000
    C92      C        0.07739    0.44079    0.35778    1.000
    C93      C        0.34324    0.29463    0.51867    1.000
    C94      C        0.92375    0.60605    0.63212    1.000
    C95      C        0.14985    0.79887    0.69302    1.000
    C96      C        0.75000    0.62197    0.37803    1.000
    C97      C        0.67295    0.16381    0.97202    1.000
    C98      C        0.21961    0.08301    0.64222    1.000
    C99      C        0.07625    0.68230    0.20837    1.000
    C100     C        0.12213    0.19260    0.72363    1.000
    C101     C        0.10585    0.29887    0.14902    1.000
    C102     C        0.37197    0.75000    0.62803    1.000
    C103     C        0.37801    0.70677    0.69578    1.000
    C104     C        0.57047    0.19260    0.46897    1.000
    C105     C        0.70677    0.19578    0.87801    1.000
    C106     C        0.72404    0.17543    0.01867    1.000
    C107     C        0.48298    0.21687    0.61177    1.000
    C108     C        0.37801    0.67124    0.18223    1.000
    C109     C        0.87803    0.75000    0.12197    1.000
    C110     C        0.68230    0.97393    0.60605    1.000
    C111     C        0.10510    0.23389    0.71687    1.000
    C112     C        0.95139    0.17543    0.15676    1.000
    C113     C        0.64985    0.95683    0.35098    1.000
    C114     C        0.98298    0.61177    0.21687    1.000
    C115     C        0.37803    0.25606    0.12803    1.000
    C116     C        0.89395    0.57625    0.86788    1.000
    C117     C        0.87961    0.67779    0.51758    1.000
    C118     C        0.32876    0.31777    0.12199    1.000
    C119     C        0.55921    0.41699    0.63660    1.000
    C120     C        0.94079    0.36340    0.58301    1.000
    C121     C        0.98133    0.32457    0.27596    1.000
    C122     C        0.63660    0.71961    0.57739    1.000
    C123     C        0.79818    0.63797    0.62039    1.000
    C124     C        0.66381    0.17295    0.47202    1.000
    C125     C        0.57739    0.35778    0.44079    1.000
    C126     C        0.29323    0.80422    0.12199    1.000
    C127     C        0.63212    0.10605    0.92375    1.000
    C128     C        0.67124    0.68223    0.87801    1.000
    C129     C        0.12197    0.25000    0.87803    1.000
    C130     C        0.44079    0.58301    0.36340    1.000
    C131     C        0.12803    0.37197    0.25000    1.000
    C132     C        0.78313    0.89490    0.26611    1.000
    C133     C        0.64902    0.10585    0.79887    1.000
    C134     C        0.46897    0.77637    0.39850    1.000
    C135     C        0.31770    0.29163    0.42375    1.000
    C136     C        0.36203    0.48242    0.16021    1.000
    C137     C        0.36788    0.47393    0.79163    1.000
    C138     C        0.37121    0.76611    0.48298    1.000
    C139     C        0.00914    0.83619    0.80821    1.000
    C140     C        0.20837    0.02607    0.63212    1.000
    C141     C        0.01758    0.13797    0.33979    1.000
    C142     C        0.62197    0.74394    0.87197    1.000
    C143     C        0.31777    0.62199    0.82876    1.000
    C144     C        0.74394    0.37197    0.12197    1.000
    C145     C        0.89850    0.42953    0.12213    1.000
    C146     C        0.16021    0.98242    0.36203    1.000
    C147     C        0.33979    0.63797    0.01758    1.000
    C148     C        0.78039    0.91699    0.35778    1.000
    C149     C        0.14902    0.79887    0.10585    1.000
    C150     C        0.28313    0.01702    0.88823    1.000
    C151     C        0.08301    0.94079    0.86340    1.000
    C152     C        0.87787    0.07047    0.10150    1.000
    C153     C        0.11177    0.48298    0.71687    1.000
    C154     C        0.82876    0.12199    0.31777    1.000
    C155     C        0.39415    0.54317    0.19302    1.000
    C156     C        0.32221    0.33979    0.20182    1.000
    C157     C        0.04317    0.89415    0.69302    1.000
    C158     C        0.02607    0.89395    0.81770    1.000
    C159     C        0.67295    0.50914    0.20093    1.000
    C160     C        0.96897    0.39850    0.77637    1.000
    C161     C        0.92953    0.39850    0.62213    1.000
    C162     C        0.27596    0.45139    0.79463    1.000
    C163     C        0.11177    0.62879    0.89490    1.000
    C164     C        0.25000    0.87197    0.12803    1.000
    C165     C        0.77596    0.79463    0.45139    1.000
    C166     C        0.20093    0.00914    0.67295    1.000
    C167     C        0.35778    0.41699    0.78039    1.000
    C168     C        0.44079    0.85778    0.57739    1.000
    C169     C        0.21961    0.13660    0.07739    1.000
    C170     C        0.29323    0.48901    0.67124    1.000
    C171     C        0.92261    0.36340    0.78039    1.000
    C172     C        0.63797    0.51758    0.83979    1.000
    C173     C        0.17543    0.65676    0.45139    1.000
    C174     C        0.79907    0.99086    0.32705    1.000
    C175     C        0.35098    0.45683    0.64985    1.000
    C176     C        0.70677    0.51099    0.32876    1.000
    C177     C        0.22363    0.12213    0.69260    1.000
    C178     C        0.39850    0.12213    0.42953    1.000
    C179     C        0.45683    0.14985    0.85098    1.000
    C180     C        0.48901    0.17124    0.79323    1.000
    C181     C        0.88823    0.51702    0.28313    1.000
    C182     C        0.63660    0.91699    0.55921    1.000
    C183     C        0.33619    0.82705    0.52798    1.000
    C184     C        0.57625    0.20837    0.68230    1.000
    C185     C        0.51702    0.73389    0.62879    1.000
    C186     C        0.62879    0.39490    0.61177    1.000
    C187     C        0.50914    0.80821    0.83619    1.000
    C188     C        0.79818    0.16021    0.67779    1.000
    C189     C        0.46897    0.69260    0.57047    1.000
    C190     C        0.70113    0.35098    0.39415    1.000
    C191     C        0.89850    0.46897    0.27637    1.000
    C192     C        0.19179    0.66381    0.99086    1.000
    C193     C        0.82705    0.02798    0.83619    1.000
    C194     C        0.18223    0.17124    0.37801    1.000
    C195     C        0.18230    0.57625    0.70837    1.000
    C196     C        0.37803    0.12197    0.75000    1.000
    C197     C        0.37961    0.86203    0.20182    1.000
    C198     C        0.92261    0.55921    0.64222    1.000
    C199     C        0.19302    0.04317    0.39415    1.000
    C200     C        0.86788    0.79163    0.47393    1.000
    C201     C        0.48242    0.82221    0.12039    1.000
    C202     C        0.84324    0.32457    0.04861    1.000
    C203     C        0.29907    0.97202    0.80821    1.000
    C204     C        0.19578    0.37801    0.20677    1.000
    C205     C        0.30422    0.51099    0.18223    1.000
    C206     C        0.04861    0.82457    0.84324    1.000
    C207     C        0.52607    0.70837    0.13212    1.000
    C208     C        0.92375    0.31770    0.79163    1.000
    C209     C        0.50914    0.70093    0.17295    1.000
    C210     C        0.47393    0.18230    0.10605    1.000
    C211     C        0.82457    0.34324    0.54861    1.000
    C212     C        0.29463    0.01867    0.84324    1.000
    C213     C        0.42375    0.79163    0.31770    1.000
    C214     C        0.60605    0.13212    0.42375    1.000
    C215     C        0.04317    0.14902    0.85015    1.000
    C216     C        0.71961    0.07739    0.13660    1.000
    C217     C        0.70182    0.32221    0.83979    1.000
    C218     C        0.61177    0.89490    0.62879    1.000
    C219     C        0.85778    0.07739    0.94079    1.000
    C220     C        0.10605    0.42375    0.13212    1.000
    C221     C        0.73389    0.60510    0.21687    1.000
    C222     C        0.51702    0.78313    0.38823    1.000
    C223     C        0.78039    0.86340    0.92261    1.000
    C224     C        0.32457    0.77596    0.48133    1.000
    C225     C        0.98133    0.65676    0.20537    1.000
    C226     C        0.79323    0.67124    0.48901    1.000
    C227     C        0.68230    0.70837    0.57625    1.000
    C228     C        0.47202    0.79907    0.30821    1.000
    C229     C        0.14222    0.92261    0.05921    1.000
    C230     C        0.12879    0.51702    0.23389    1.000
    C231     C        0.91699    0.85778    0.28039    1.000
    C232     C        0.27637    0.96897    0.89850    1.000
    C233     C        0.98242    0.12039    0.82221    1.000
    C234     C        0.82221    0.62039    0.98242    1.000
    C235     C        0.95139    0.77596    0.29463    1.000
    C236     C        0.83619    0.30821    0.50914    1.000
    C237     C        0.70537    0.98133    0.15676    1.000
    C238     C        0.25000    0.37803    0.62197    1.000
    C239     C        0.85015    0.64902    0.04317    1.000
    C240     C        0.45683    0.30698    0.10585    1.000
    C241     C        0.39415    0.85098    0.70113    1.000
    C242     C        0.17779    0.37961    0.01758    1.000
    C243     C        0.80422    0.62199    0.79323    1.000
    C244     C        0.34324    0.04861    0.32457    1.000
    C245     C        0.01099    0.80422    0.68223    1.000
    C246     C        0.19260    0.22363    0.62213    1.000
    C247     C        0.97393    0.86788    0.29163    1.000
    C248     C        0.95683    0.85098    0.14985    1.000
    C249     C        0.20677    0.87801    0.19578    1.000
    C250     C        0.48901    0.31777    0.19578    1.000
    C251     C        0.79887    0.19302    0.64985    1.000
    C252     C        0.79887    0.60585    0.64902    1.000
    C253     C        0.85778    0.78039    0.41699    1.000
    C254     C        0.65676    0.70537    0.48133    1.000
    C255     C        0.68223    0.30422    0.01099    1.000
    C256     C        0.81777    0.98901    0.69578    1.000
    C257     C        0.30821    0.29907    0.47202    1.000
    C258     C        0.48133    0.20537    0.65676    1.000
    C259     C        0.12199    0.81777    0.32876    1.000
    C260     C        0.54861    0.84324    0.82457    1.000
    C261     C        0.80821    0.47202    0.29907    1.000
    C262     C        0.51758    0.33979    0.13797    1.000
    C263     C        0.71961    0.64222    0.08301    1.000
    C264     C        0.10585    0.80698    0.45683    1.000
    C265     C        0.79463    0.95139    0.27596    1.000
    C266     C        0.72363    0.03103    0.10150    1.000
    C267     C        0.39395    0.52607    0.31770    1.000
    C268     C        0.69302    0.39415    0.04317    1.000
    C269     C        0.65676    0.95139    0.67543    1.000
    C270     C        0.20113    0.80698    0.35015    1.000
    C271     C        0.17295    0.20093    0.50914    1.000
    C272     C        0.26611    0.39490    0.78313    1.000
    C273     C        0.69179    0.99086    0.66381    1.000
    C274     C        0.81777    0.82876    0.62199    1.000
    C275     C        0.88823    0.37121    0.10510    1.000
    C276     C        0.30698    0.70113    0.85015    1.000
    C277     C        0.89490    0.76611    0.28313    1.000
    C278     C        0.49086    0.29907    0.82705    1.000
    C279     C        0.95683    0.10585    0.30698    1.000
    C280     C        0.53103    0.22363    0.60150    1.000
    C281     C        0.60510    0.88823    0.87121    1.000
    C282     C        0.83979    0.01758    0.63797    1.000
    C283     C        0.33979    0.70182    0.82221    1.000
    C284     C        0.80698    0.85015    0.70113    1.000
    C285     C        0.58301    0.71961    0.14222    1.000
    C286     C        0.17543    0.51867    0.22404    1.000
    C287     C        0.81770    0.39395    0.02607    1.000
    C288     C        0.66021    0.36203    0.98242    1.000
    C289     C        0.58301    0.86340    0.94079    1.000
    C290     C        0.20837    0.18230    0.07625    1.000
    C291     C        0.80698    0.95683    0.60585    1.000
    C292     C        0.51867    0.79463    0.34324    1.000
    C293     C        0.89490    0.12879    0.11177    1.000
    C294     C        0.14222    0.21961    0.58301    1.000
    C295     C        0.12197    0.87197    0.74394    1.000
    C296     C        0.12039    0.79818    0.13797    1.000
    C297     C        0.57047    0.37787    0.60150    1.000
    C298     C        0.36340    0.28039    0.42261    1.000
    C299     C        0.87121    0.38823    0.60510    1.000
    C300     C        0.36203    0.87961    0.70182    1.000
    C301     C        0.57625    0.36788    0.39395    1.000
    C302     C        0.14902    0.35015    0.54317    1.000
    C303     C        0.12803    0.75606    0.37803    1.000
    C304     C        0.70837    0.07625    0.18230    1.000
    C305     C        0.57739    0.21961    0.63660    1.000
    C306     C        0.18230    0.60605    0.97393    1.000
    C307     C        0.71687    0.73389    0.10510    1.000
    C308     C        0.15676    0.48133    0.70537    1.000
    C309     C        0.10510    0.87121    0.88823    1.000
    C310     C        0.37787    0.27637    0.80740    1.000
    C311     C        0.36788    0.89395    0.07625    1.000
    C312     C        0.52607    0.81770    0.89395    1.000
    C313     C        0.18223    0.01099    0.30422    1.000
    C314     C        0.01099    0.20677    0.82876    1.000
    C315     C        0.31777    0.69578    0.98901    1.000
    C316     C        0.01867    0.67543    0.72404    1.000
    C317     C        0.21687    0.11177    0.98298    1.000
    C318     C        0.29463    0.27596    0.95139    1.000
    C319     C        0.75000    0.12803    0.87197    1.000
    C320     C        0.89415    0.70113    0.85098    1.000
    C321     C        0.68223    0.37801    0.17124    1.000
    C322     C        0.98901    0.79323    0.17124    1.000
    C323     C        0.27637    0.30740    0.87787    1.000
    C324     C        0.30740    0.92953    0.03103    1.000
    C325     C        0.67543    0.22404    0.51867    1.000
    C326     C        0.97202    0.30821    0.79907    1.000
    C327     C        0.20182    0.36203    0.37961    1.000
    C328     C        0.20537    0.15676    0.98133    1.000
    C329     C        0.32705    0.83619    0.02798    1.000
    C330     C        0.36340    0.08301    0.44079    1.000
    C331     C        0.35778    0.94079    0.07739    1.000
    C332     C        0.70182    0.37961    0.36203    1.000
    C333     C        0.82876    0.70677    0.01099    1.000
    C334     C        0.27596    0.82457    0.98133    1.000
    C335     C        0.29818    0.62039    0.63797    1.000
    C336     C        0.69578    0.20677    0.37801    1.000
    C337     C        0.51099    0.68223    0.80422    1.000
    C338     C        0.05921    0.63660    0.41699    1.000
    C339     C        0.10150    0.53103    0.72363    1.000
    C340     C        0.66021    0.29818    0.17779    1.000
    C341     C        0.55921    0.14222    0.42261    1.000
    C342     C        0.16021    0.17779    0.29818    1.000
    C343     C        0.87801    0.18223    0.67124    1.000
    C344     C        0.62039    0.48242    0.32221    1.000
    C345     C        0.86203    0.16021    0.48242    1.000
    C346     C        0.63212    0.52607    0.20837    1.000
    C347     C        0.92953    0.53103    0.80740    1.000
    C348     C        0.71687    0.98298    0.11177    1.000
    C349     C        0.79463    0.84324    0.01867    1.000
    C350     C        0.22404    0.01867    0.17543    1.000
    C351     C        0.79323    0.12199    0.80422    1.000
    C352     C        0.87787    0.80740    0.27637    1.000
    C353     C        0.39490    0.11177    0.12879    1.000
    C354     C        0.84324    0.51867    0.29463    1.000
    C355     C        0.25606    0.62803    0.87803    1.000
    C356     C        0.41699    0.28039    0.85778    1.000
    C357     C        0.19260    0.96897    0.07047    1.000
    C358     C        0.54317    0.85015    0.14902    1.000
    C359     C        0.19179    0.52798    0.70093    1.000
    C360     C        0.42953    0.62213    0.39850    1.000
    C361     C        0.87801    0.69578    0.70677    1.000
    C362     C        0.39850    0.27637    0.46897    1.000
    C363     C        0.29887    0.64985    0.19302    1.000
    C364     C        0.16381    0.69179    0.49086    1.000
    C365     C        0.03103    0.42953    0.30740    1.000
    C366     C        0.79907    0.80821    0.97202    1.000
    C367     C        0.16381    0.47202    0.17295    1.000
    C368     C        0.87803    0.12803    0.25606    1.000
    C369     C        0.08301    0.14222    0.71961    1.000
    C370     C        0.13212    0.92375    0.10605    1.000
    C371     C        0.33619    0.50914    0.30821    1.000
    C372     C        0.91699    0.05921    0.13660    1.000
    C373     C        0.97202    0.66381    0.67295    1.000
    C374     C        0.32876    0.01099    0.70677    1.000
    C375     C        0.47202    0.67295    0.66381    1.000
    C376     C        0.28313    0.26611    0.89490    1.000
    C377     C        0.82457    0.48133    0.77596    1.000
    C378     C        0.85098    0.64985    0.45683    1.000
    C379     C        0.02798    0.33619    0.32705    1.000
    C380     C        0.17124    0.29323    0.98901    1.000
    C381     C        0.39395    0.86788    0.57625    1.000
    C382     C        0.10150    0.57047    0.87787    1.000
    C383     C        0.30698    0.60585    0.95683    1.000
    C384     C        0.19302    0.14985    0.29887    1.000
    C385     C        0.69578    0.48901    0.81777    1.000
    C386     C        0.14985    0.35098    0.95683    1.000
    C387     C        0.42261    0.78039    0.36340    1.000
    C388     C        0.66381    0.49086    0.69179    1.000
    C389     C        0.24394    0.12197    0.37197    1.000
    C390     C        0.07047    0.60150    0.37787    1.000
    C391     C        0.51758    0.17779    0.87961    1.000
    C392     C        0.38823    0.28313    0.51702    1.000
    C393     C        0.94079    0.57739    0.85778    1.000
    C394     C        0.15676    0.67543    0.95139    1.000
    C395     C        0.85015    0.20113    0.30698    1.000
    C396     C        0.04861    0.22404    0.70537    1.000
    C397     C        0.67124    0.98901    0.29323    1.000
    C398     C        0.76611    0.78313    0.39490    1.000
    C399     C        0.13660    0.57739    0.71961    1.000
    C400     C        0.37121    0.60510    0.38823    1.000
    C401     C        0.29163    0.92375    0.81770    1.000
    C402     C        0.02607    0.13212    0.70837    1.000
    C403     C        0.83619    0.52798    0.82705    1.000
    C404     C        0.01702    0.62879    0.73389    1.000
    C405     C        0.13660    0.55921    0.91699    1.000
    C406     C        0.48298    0.26611    0.37121    1.000
    C407     C        0.64222    0.58301    0.21961    1.000
    C408     C        0.86788    0.07625    0.89395    1.000
    C409     C        0.26611    0.87121    0.98298    1.000
    C410     C        0.20093    0.19179    0.02798    1.000
    C411     C        0.49086    0.19179    0.16381    1.000
    C412     C        0.29887    0.64902    0.60585    1.000
    C413     C        0.60585    0.45683    0.80698    1.000
    C414     C        0.45139    0.29463    0.77596    1.000
    C415     C        0.37961    0.51758    0.67779    1.000
    C416     C        0.48242    0.66021    0.86203    1.000
    C417     C        0.96897    0.57047    0.69260    1.000
    C418     C        0.85098    0.20113    0.89415    1.000
    C419     C        0.35098    0.89415    0.20113    1.000
    C420     C        0.01867    0.34324    0.79463    1.000
    C421     C        0.03103    0.60150    0.22363    1.000
    C422     C        0.13797    0.83979    0.51758    1.000
    C423     C        0.81770    0.42375    0.29163    1.000
    C424     C        0.54317    0.69302    0.89415    1.000
    C425     C        0.78313    0.88823    0.01702    1.000
    C426     C        0.31770    0.02607    0.39395    1.000
    C427     C        0.52798    0.32705    0.33619    1.000
    C428     C        0.98298    0.37121    0.26611    1.000
    C429     C        0.29907    0.32705    0.99086    1.000
    C430     C        0.76611    0.98298    0.87121    1.000
    C431     C        0.37197    0.62197    0.24394    1.000
    C432     C        0.30821    0.00914    0.33619    1.000
    C433     C        0.67779    0.66021    0.79818    1.000
    C434     C        0.29818    0.67779    0.16021    1.000
    C435     C        0.60150    0.72363    0.53103    1.000
    C436     C        0.60585    0.14902    0.29887    1.000
    C437     C        0.35015    0.04317    0.64902    1.000
    C438     C        0.39490    0.28313    0.76611    1.000
    C439     C        0.64985    0.69302    0.79887    1.000
    C440     C        0.69260    0.62213    0.22363    1.000
    C441     C        0.51099    0.82876    0.20677    1.000
    C442     C        0.22363    0.10150    0.03103    1.000
    C443     C        0.64222    0.05921    0.92261    1.000
    C444     C        0.28039    0.35778    0.91699    1.000
    C445     C        0.62199    0.29323    0.30422    1.000
    C446     C        0.20113    0.39415    0.35098    1.000
    C447     C        0.48133    0.27596    0.32457    1.000
    C448     C        0.12213    0.92953    0.89850    1.000
    C449     C        0.87961    0.20182    0.86203    1.000
    C450     C        0.69179    0.70093    0.52798    1.000
    C451     C        0.00914    0.17295    0.70093    1.000
    C452     C        0.17124    0.87801    0.68223    1.000
    C453     C        0.29163    0.36788    0.97393    1.000
    C454     C        0.99086    0.82705    0.29907    1.000
    C455     C        0.02798    0.69179    0.20093    1.000
    C456     C        0.77637    0.87787    0.30740    1.000
    N1       N        0.46834    0.80856    0.25922    1.000
    N2       N        0.29088    0.84022    0.53166    1.000
    N3       N        0.64632    0.93894    0.29594    1.000
    N4       N        0.65978    0.45066    0.19144    1.000
    N5       N        0.30799    0.34601    0.15190    1.000
    N6       N        0.35038    0.70406    0.64300    1.000
    N7       N        0.65978    0.20912    0.96834    1.000
    N8       N        0.35038    0.64632    0.20738    1.000
    N9       N        0.85038    0.64300    0.70406    1.000
    N10      N        0.75922    0.46834    0.30856    1.000
    N11      N        0.35368    0.29262    0.14962    1.000
    N12      N        0.20406    0.35368    0.56106    1.000
    N13      N        0.74084    0.48288    0.80778    1.000
    N14      N        0.64300    0.43894    0.79262    1.000
    N15      N        0.75922    0.29088    0.95066    1.000
    N16      N        0.14300    0.79262    0.43894    1.000
    N17      N        0.80799    0.15190    0.34601    1.000
    N18      N        0.06694    0.80778    0.32490    1.000
    N19      N        0.84391    0.15190    0.80589    1.000
    N20      N        0.14632    0.85038    0.70738    1.000
    N21      N        0.53166    0.19144    0.74078    1.000
    N22      N        0.54934    0.30856    0.84022    1.000
    N23      N        0.01712    0.75916    0.69222    1.000
    N24      N        0.96834    0.25922    0.80856    1.000
    N25      N        0.48288    0.30778    0.24084    1.000
    N26      N        0.65609    0.46198    0.30799    1.000
    N27      N        0.96834    0.70912    0.65978    1.000
    N28      N        0.74204    0.67510    0.48288    1.000
    N29      N        0.64962    0.35368    0.79262    1.000
    N30      N        0.25796    0.32490    0.51712    1.000
    N31      N        0.24204    0.75916    0.06694    1.000
    N32      N        0.25916    0.51712    0.19222    1.000
    N33      N        0.46834    0.65978    0.70912    1.000
    N34      N        0.85368    0.14962    0.29262    1.000
    N35      N        0.53802    0.19201    0.84391    1.000
    N36      N        0.24204    0.48288    0.67510    1.000
    N37      N        0.06694    0.25916    0.24204    1.000
    N38      N        0.85700    0.20738    0.56106    1.000
    N39      N        0.34391    0.80589    0.15190    1.000
    N40      N        0.24084    0.43306    0.25796    1.000
    N41      N        0.34810    0.65609    0.69411    1.000
    N42      N        0.74078    0.04934    0.70912    1.000
    N43      N        0.29594    0.43894    0.64632    1.000
    N44      N        0.20738    0.14632    0.35038    1.000
    N45      N        0.69201    0.03802    0.34391    1.000
    N46      N        0.04934    0.84022    0.30856    1.000
    N47      N        0.34810    0.69201    0.15399    1.000
    N48      N        0.29262    0.64962    0.85368    1.000
    N49      N        0.29594    0.85700    0.14962    1.000
    N50      N        0.56694    0.24204    0.25916    1.000
    N51      N        0.43894    0.14632    0.79594    1.000
    N52      N        0.24078    0.53166    0.69144    1.000
    N53      N        0.15190    0.30589    0.34391    1.000
    N54      N        0.84810    0.15399    0.69201    1.000
    N55      N        0.14632    0.29594    0.93894    1.000
    N56      N        0.70406    0.56106    0.35368    1.000
    N57      N        0.64632    0.70738    0.85038    1.000
    N58      N        0.80589    0.15399    0.46198    1.000
    N59      N        0.25796    0.93306    0.24084    1.000
    N60      N        0.56694    0.32490    0.80778    1.000
    N61      N        0.80856    0.75922    0.96834    1.000
    N62      N        0.84022    0.80856    0.54934    1.000
    N63      N        0.74084    0.25796    0.43306    1.000
    N64      N        0.30778    0.56694    0.82490    1.000
    N65      N        0.19411    0.34810    0.15609    1.000
    N66      N        0.20912    0.74078    0.54934    1.000
    N67      N        0.65399    0.34810    0.19201    1.000
    N68      N        0.45066    0.69144    0.15978    1.000
    N69      N        0.67510    0.98288    0.24204    1.000
    N70      N        0.29262    0.64300    0.93894    1.000
    N71      N        0.19411    0.84601    0.53802    1.000
    N72      N        0.15399    0.96198    0.30589    1.000
    N73      N        0.84601    0.03802    0.69411    1.000
    N74      N        0.29088    0.45066    0.25922    1.000
    N75      N        0.15978    0.19144    0.45066    1.000
    N76      N        0.75916    0.19222    0.51712    1.000
    N77      N        0.93894    0.14300    0.29262    1.000
    N78      N        0.14300    0.35038    0.20406    1.000
    N79      N        0.14962    0.35700    0.29594    1.000
    N80      N        0.15190    0.84601    0.30799    1.000
    N81      N        0.19201    0.84810    0.65399    1.000
    N82      N        0.64300    0.20406    0.35038    1.000
    N83      N        0.79594    0.64632    0.43894    1.000
    N84      N        0.20738    0.06106    0.35700    1.000
    N85      N        0.93894    0.79594    0.14632    1.000
    N86      N        0.95066    0.15978    0.69144    1.000
    N87      N        0.80778    0.98288    0.74084    1.000
    N88      N        0.65609    0.19411    0.84810    1.000
    N89      N        0.17510    0.24204    0.98288    1.000
    N90      N        0.65190    0.30799    0.84601    1.000
    N91      N        0.20406    0.85038    0.14300    1.000
    N92      N        0.15399    0.19201    0.34810    1.000
    N93      N        0.69201    0.65399    0.84810    1.000
    N94      N        0.75796    0.24084    0.93306    1.000
    N95      N        0.06106    0.85700    0.70738    1.000
    N96      N        0.20912    0.46834    0.15978    1.000
    N97      N        0.80856    0.04934    0.34022    1.000
    N98      N        0.43894    0.29262    0.14300    1.000
    N99      N        0.96198    0.80589    0.65399    1.000
    N100     N        0.30589    0.46198    0.15399    1.000
    N101     N        0.98288    0.74204    0.17510    1.000
    N102     N        0.19222    0.17510    0.43306    1.000
    N103     N        0.53166    0.34022    0.29088    1.000
    N104     N        0.84391    0.69201    0.53802    1.000
    N105     N        0.51712    0.69222    0.75916    1.000
    N106     N        0.70738    0.35038    0.14632    1.000
    N107     N        0.32490    0.30778    0.06694    1.000
    N108     N        0.69222    0.43306    0.17510    1.000
    N109     N        0.19144    0.24078    0.03166    1.000
    N110     N        0.45066    0.75922    0.79088    1.000
    N111     N        0.70912    0.15978    0.46834    1.000
    N112     N        0.51712    0.82490    0.25796    1.000
    N113     N        0.30589    0.84391    0.65190    1.000
    N114     N        0.53802    0.34601    0.19411    1.000
    N115     N        0.74204    0.06694    0.75916    1.000
    N116     N        0.04934    0.20912    0.24078    1.000
    N117     N        0.80799    0.65609    0.96198    1.000
    N118     N        0.70912    0.54934    0.74078    1.000
    N119     N        0.95066    0.79088    0.75922    1.000
    N120     N        0.67510    0.69222    0.93306    1.000
    N121     N        0.30856    0.34022    0.04934    1.000
    N122     N        0.25922    0.95066    0.29088    1.000
    N123     N        0.70738    0.35700    0.06106    1.000
    N124     N        0.30799    0.96198    0.65609    1.000
    N125     N        0.17510    0.93306    0.69222    1.000
    N126     N        0.34391    0.53802    0.69201    1.000
    N127     N        0.69411    0.53802    0.84601    1.000
    N128     N        0.84810    0.69411    0.65609    1.000
    N129     N        0.85700    0.64962    0.79594    1.000
    N130     N        0.79262    0.93894    0.64300    1.000
    N131     N        0.19201    0.34391    0.03802    1.000
    N132     N        0.69222    0.25916    0.01712    1.000
    N133     N        0.84601    0.80799    0.65190    1.000
    N134     N        0.79088    0.25922    0.45066    1.000
    N135     N        0.46198    0.80799    0.15609    1.000
    N136     N        0.15609    0.84810    0.19411    1.000
    N137     N        0.74078    0.69144    0.53166    1.000
    N138     N        0.03802    0.84391    0.19201    1.000
    N139     N        0.43306    0.75796    0.74084    1.000
    N140     N        0.75796    0.51712    0.32490    1.000
    N141     N        0.03166    0.74078    0.19144    1.000
    N142     N        0.34022    0.79088    0.03166    1.000
    N143     N        0.84022    0.03166    0.79088    1.000
    N144     N        0.69411    0.15609    0.34810    1.000
    N145     N        0.19222    0.01712    0.25916    1.000
    N146     N        0.32490    0.01712    0.75796    1.000
    N147     N        0.69144    0.65978    0.95066    1.000
    N148     N        0.85368    0.70406    0.06106    1.000
    N149     N        0.25916    0.74204    0.56694    1.000
    N150     N        0.93306    0.19222    0.67510    1.000
    N151     N        0.80589    0.65190    0.84391    1.000
    N152     N        0.06106    0.20406    0.85368    1.000
    N153     N        0.82490    0.75796    0.01712    1.000
    N154     N        0.98288    0.24084    0.30778    1.000
    N155     N        0.56106    0.85368    0.20406    1.000
    N156     N        0.30856    0.96834    0.75922    1.000
    N157     N        0.96198    0.15609    0.80799    1.000
    N158     N        0.35368    0.06106    0.70406    1.000
    N159     N        0.15609    0.30799    0.46198    1.000
    N160     N        0.65190    0.34391    0.30589    1.000
    N161     N        0.03166    0.29088    0.34022    1.000
    N162     N        0.25922    0.30856    0.46834    1.000
    N163     N        0.34601    0.65190    0.80799    1.000
    N164     N        0.85038    0.20738    0.64632    1.000
    N165     N        0.30778    0.74084    0.98288    1.000
    N166     N        0.34601    0.69411    0.03802    1.000
    N167     N        0.75916    0.56694    0.74204    1.000
    N168     N        0.03802    0.19411    0.34601    1.000
    N169     N        0.93306    0.74084    0.75796    1.000
    N170     N        0.79088    0.53166    0.84022    1.000
    N171     N        0.82490    0.06694    0.30778    1.000
    N172     N        0.01712    0.25796    0.82490    1.000
    N173     N        0.79262    0.85368    0.64962    1.000
    N174     N        0.64962    0.29594    0.35700    1.000
    N175     N        0.15978    0.96834    0.20912    1.000
    N176     N        0.14962    0.79262    0.35368    1.000
    N177     N        0.79594    0.14962    0.85700    1.000
    N178     N        0.35700    0.79594    0.64962    1.000
    N179     N        0.48288    0.17510    0.74204    1.000
    N180     N        0.46198    0.65399    0.80589    1.000
    N181     N        0.65399    0.30589    0.96198    1.000
    N182     N        0.34022    0.54934    0.80856    1.000
    N183     N        0.24078    0.70912    0.04934    1.000
    N184     N        0.70406    0.14300    0.85038    1.000
    N185     N        0.56106    0.70738    0.85700    1.000
    N186     N        0.80778    0.82490    0.56694    1.000
    N187     N        0.54934    0.24078    0.20912    1.000
    N188     N        0.35700    0.56106    0.20738    1.000
    N189     N        0.69144    0.03166    0.24078    1.000
    N190     N        0.43306    0.67510    0.19222    1.000
    N191     N        0.24084    0.80778    0.48288    1.000
    N192     N        0.19144    0.95066    0.65978    1.000
