data_functionalizedCrystal
_audit_creation_method	'EQeq! by Chris Wilmer'
_symmetry_space_group_name_H-M	'P1'
_symmetry_Int_Tables_number	1
_symmetry_cell_setting	triclinic
loop_
_symmetry_equiv_pos_as_xyz
  x,y,z
_cell_length_a	13.3451
_cell_length_b	23.7349
_cell_length_c	13.1709
_cell_angle_alpha	90
_cell_angle_beta	90
_cell_angle_gamma	90
loop_
_atom_site_label
_atom_site_type_symbol
_atom_site_fract_x
_atom_site_fract_y
_atom_site_fract_z
_atom_site_charge
Mof_O 	O 	0.5638	0.56556	0.3985	-0.489
Mof_O 	O 	0.6958	0.61877	0.4089	0.355
Mof_O 	O 	0.5136	0.68395	0.3324	-0.42
Mof_N 	N 	0.9748	0.5223	0.2277	0.104
Mof_C 	C 	0.6524	0.57782	0.3719	0.23
Mof_C 	C 	0.4796	0.6657	0.2593	0.31
Mof_H 	H 	0.4418	0.6331	0.2676	-0.062
Mof_C 	C 	0.706	0.5492	0.2859	-0.066
Mof_C 	C 	0.82	0.5323	0.3232	-0.121
Mof_C 	C 	0.8146	0.552	0.2834	0.168
Mof_C 	C 	0.868	0.5136	0.2328	0.217
Mof_C 	C 	0.7128	0.5347	0.3149	0.032
Mof_O 	O 	0.6856	0.631	0.3798	-0.693
Mof_O 	O 	0.366	0.534	0.4818	-0.204
Mof_C 	C 	0.559	0.9337	0.5216	-0.069
Mof_O 	O 	0.0638	0.06556	0.8985	-0.643
Mof_O 	O 	0.1958	0.11877	0.9089	-5.531
Mof_O 	O 	0.0136	0.18395	0.8324	-1.133
Mof_N 	N 	0.4748	0.0223	0.7277	3.752
Mof_C 	C 	0.1524	0.07782	0.8719	3.181
Mof_C 	C 	0.9796	0.1657	0.7593	0.074
Mof_H 	H 	0.9418	0.1331	0.7676	-0.704
Mof_C 	C 	0.206	0.0492	0.7859	12.485
Mof_C 	C 	0.32	0.0323	0.8232	-18.399
Mof_C 	C 	0.3146	0.052	0.7834	25.696
Mof_C 	C 	0.368	0.0136	0.7328	-26.588
Mof_C 	C 	0.2128	0.0347	0.8149	-17.314
Mof_O 	O 	0.1856	0.131	0.8798	4.044
Mof_O 	O 	0.866	0.034	0.9818	0.721
Mof_C 	C 	0.059	0.4337	0.0216	-0.926
Mof_O 	O 	0.4362	0.43444	0.3985	-0.492
Mof_O 	O 	0.3042	0.38123	0.4089	-0.017
Mof_O 	O 	0.4864	0.31605	0.3324	-0.598
Mof_N 	N 	0.0252	0.4777	0.2277	-0.157
Mof_C 	C 	0.3476	0.42218	0.3719	0.289
Mof_C 	C 	0.5204	0.3343	0.2593	0.296
Mof_H 	H 	0.5582	0.3669	0.2676	-0.091
Mof_C 	C 	0.294	0.4508	0.2859	0.002
Mof_C 	C 	0.18	0.4677	0.3232	-0.146
Mof_C 	C 	0.1854	0.448	0.2834	0.141
Mof_C 	C 	0.132	0.4864	0.2328	0.054
Mof_C 	C 	0.2872	0.4653	0.3149	-0.063
Mof_O 	O 	0.3144	0.369	0.3798	-0.411
Mof_O 	O 	0.634	0.466	0.4818	-0.212
Mof_C 	C 	0.441	0.0663	0.5216	0.228
Mof_O 	O 	0.9362	0.93444	0.8985	-1.911
Mof_O 	O 	0.8042	0.88123	0.9089	6.608
Mof_O 	O 	0.9864	0.81605	0.8324	-0.028
Mof_N 	N 	0.5252	0.9777	0.7277	-3.852
Mof_C 	C 	0.8476	0.92218	0.8719	-0.846
Mof_C 	C 	0.0204	0.8343	0.7593	0.581
Mof_H 	H 	0.0582	0.8669	0.7676	0.317
Mof_C 	C 	0.794	0.9508	0.7859	-15.445
Mof_C 	C 	0.68	0.9677	0.8232	15.732
Mof_C 	C 	0.6854	0.948	0.7834	-21.456
Mof_C 	C 	0.632	0.9864	0.7328	26.453
Mof_C 	C 	0.7872	0.9653	0.8149	13.237
Mof_O 	O 	0.8144	0.869	0.8798	-6.46
Mof_O 	O 	0.134	0.966	0.9818	0.178
Mof_C 	C 	0.941	0.5663	0.0216	-1.03
Mof_O 	O 	0.9362	0.06556	0.6015	-0.492
Mof_O 	O 	0.8042	0.11877	0.5911	-5.576
Mof_O 	O 	0.9864	0.18395	0.6676	-1.053
Mof_N 	N 	0.5252	0.0223	0.7723	3.765
Mof_C 	C 	0.8476	0.07782	0.6281	3.165
Mof_C 	C 	0.0204	0.1657	0.7407	1.173
Mof_H 	H 	0.0582	0.1331	0.7324	-1.085
Mof_C 	C 	0.794	0.0492	0.7141	12.582
Mof_C 	C 	0.68	0.0323	0.6768	-18.231
Mof_C 	C 	0.6854	0.052	0.7166	25.613
Mof_C 	C 	0.632	0.0136	0.7672	-26.918
Mof_C 	C 	0.7872	0.0347	0.6851	-17.374
Mof_O 	O 	0.8144	0.131	0.6202	4.111
Mof_O 	O 	0.134	0.034	0.5182	-0.199
Mof_C 	C 	0.941	0.4337	0.4784	-0.003
Mof_O 	O 	0.4362	0.56556	0.1015	-0.461
Mof_O 	O 	0.3042	0.61877	0.0911	0.252
Mof_O 	O 	0.4864	0.68395	0.1676	-0.436
Mof_N 	N 	0.0252	0.5223	0.2723	-0.162
Mof_C 	C 	0.3476	0.57782	0.1281	0.247
Mof_C 	C 	0.5204	0.6657	0.2407	0.301
Mof_H 	H 	0.5582	0.6331	0.2324	-0.046
Mof_C 	C 	0.294	0.5492	0.2141	0.014
Mof_C 	C 	0.18	0.5323	0.1768	-0.074
Mof_C 	C 	0.1854	0.552	0.2166	0.113
Mof_C 	C 	0.132	0.5136	0.2672	0.055
Mof_C 	C 	0.2872	0.5347	0.1851	-0.039
Mof_O 	O 	0.3144	0.631	0.1202	-0.609
Mof_O 	O 	0.634	0.534	0.0182	-1.199
Mof_C 	C 	0.441	0.9337	0.9784	0.827
Mof_O 	O 	0.0638	0.93444	0.6015	-1.918
Mof_O 	O 	0.1958	0.88123	0.5911	6.448
Mof_O 	O 	0.0136	0.81605	0.6676	-0.019
Mof_N 	N 	0.4748	0.9777	0.7723	-3.838
Mof_C 	C 	0.1524	0.92218	0.6281	-0.784
Mof_C 	C 	0.9796	0.8343	0.7407	-0.426
Mof_H 	H 	0.9418	0.8669	0.7324	0.709
Mof_C 	C 	0.206	0.9508	0.7141	-15.327
Mof_C 	C 	0.32	0.9677	0.6768	15.704
Mof_C 	C 	0.3146	0.948	0.7166	-21.351
Mof_C 	C 	0.368	0.9864	0.7672	26.135
Mof_C 	C 	0.2128	0.9653	0.6851	13.06
Mof_O 	O 	0.1856	0.869	0.6202	-6.253
Mof_O 	O 	0.866	0.966	0.5182	-0.718
Mof_C 	C 	0.059	0.5663	0.4784	0.005
Mof_O 	O 	0.5638	0.43444	0.1015	-0.464
Mof_O 	O 	0.6958	0.38123	0.0911	-0.064
Mof_O 	O 	0.5136	0.31605	0.1676	-0.61
Mof_N 	N 	0.9748	0.4777	0.2723	0.112
Mof_C 	C 	0.6524	0.42218	0.1281	0.311
Mof_C 	C 	0.4796	0.3343	0.2407	0.301
Mof_H 	H 	0.4418	0.3669	0.2324	-0.085
Mof_C 	C 	0.706	0.4508	0.2141	0.065
Mof_C 	C 	0.82	0.4677	0.1768	-0.083
Mof_C 	C 	0.8146	0.448	0.2166	0.183
Mof_C 	C 	0.868	0.4864	0.2672	-0.17
Mof_C 	C 	0.7128	0.4653	0.1851	-0.143
Mof_O 	O 	0.6856	0.369	0.1202	-0.361
Mof_O 	O 	0.366	0.466	0.0182	-1.158
Mof_C 	C 	0.559	0.0663	0.9784	1.043
Mof_O 	O 	0.4362	0.43444	0.6015	-0.495
Mof_O 	O 	0.3042	0.38123	0.5911	-0.079
Mof_O 	O 	0.4864	0.31605	0.6676	-0.618
Mof_N 	N 	0.0252	0.4777	0.7723	-0.175
Mof_C 	C 	0.3476	0.42218	0.6281	0.298
Mof_C 	C 	0.5204	0.3343	0.7407	0.313
Mof_H 	H 	0.5582	0.3669	0.7324	-0.096
Mof_C 	C 	0.294	0.4508	0.7141	0.088
Mof_C 	C 	0.18	0.4677	0.6768	-0.169
Mof_C 	C 	0.1854	0.448	0.7166	0.175
Mof_C 	C 	0.132	0.4864	0.7672	-0.204
Mof_C 	C 	0.2872	0.4653	0.6851	-0.184
Mof_O 	O 	0.3144	0.369	0.6202	-0.367
Mof_O 	O 	0.634	0.466	0.5182	-0.233
Mof_C 	C 	0.441	0.0663	0.4784	0.155
Mof_O 	O 	0.9362	0.93444	0.1015	-1.8
Mof_O 	O 	0.8042	0.88123	0.0911	6.483
Mof_O 	O 	0.9864	0.81605	0.1676	0.026
Mof_N 	N 	0.5252	0.9777	0.2723	-3.811
Mof_C 	C 	0.8476	0.92218	0.1281	-0.813
Mof_C 	C 	0.0204	0.8343	0.2407	0.597
Mof_H 	H 	0.0582	0.8669	0.2324	0.342
Mof_C 	C 	0.794	0.9508	0.2141	-15.348
Mof_C 	C 	0.68	0.9677	0.1768	15.881
Mof_C 	C 	0.6854	0.948	0.2166	-21.481
Mof_C 	C 	0.632	0.9864	0.2672	26.189
Mof_C 	C 	0.7872	0.9653	0.1851	13.163
Mof_O 	O 	0.8144	0.869	0.1202	-6.287
Mof_O 	O 	0.134	0.966	0.0182	-1.68
Mof_C 	C 	0.941	0.5663	0.9784	1.002
Mof_O 	O 	0.5638	0.56556	0.6015	-0.491
Mof_O 	O 	0.6958	0.61877	0.5911	0.289
Mof_O 	O 	0.5136	0.68395	0.6676	-0.44
Mof_N 	N 	0.9748	0.5223	0.7723	0.072
Mof_C 	C 	0.6524	0.57782	0.6281	0.239
Mof_C 	C 	0.4796	0.6657	0.7407	0.328
Mof_H 	H 	0.4418	0.6331	0.7324	-0.067
Mof_C 	C 	0.706	0.5492	0.7141	0.023
Mof_C 	C 	0.82	0.5323	0.6768	-0.14
Mof_C 	C 	0.8146	0.552	0.7166	0.195
Mof_C 	C 	0.868	0.5136	0.7672	-0.058
Mof_C 	C 	0.7128	0.5347	0.6851	-0.093
Mof_O 	O 	0.6856	0.631	0.6202	-0.645
Mof_O 	O 	0.366	0.534	0.5182	-0.225
Mof_C 	C 	0.559	0.9337	0.4784	-0.146
Mof_O 	O 	0.0638	0.06556	0.1015	-0.548
Mof_O 	O 	0.1958	0.11877	0.0911	-5.63
Mof_O 	O 	0.0136	0.18395	0.1676	-1.088
Mof_N 	N 	0.4748	0.0223	0.2723	3.782
Mof_C 	C 	0.1524	0.07782	0.1281	3.21
Mof_C 	C 	0.9796	0.1657	0.2407	0.045
Mof_H 	H 	0.9418	0.1331	0.2324	-0.661
Mof_C 	C 	0.206	0.0492	0.2141	12.55
Mof_C 	C 	0.32	0.0323	0.1768	-18.227
Mof_C 	C 	0.3146	0.052	0.2166	25.627
Mof_C 	C 	0.368	0.0136	0.2672	-26.78
Mof_C 	C 	0.2128	0.0347	0.1851	-17.355
Mof_O 	O 	0.1856	0.131	0.1202	4.185
Mof_O 	O 	0.866	0.034	0.0182	-1.098
Mof_C 	C 	0.059	0.4337	0.9784	0.854
Mof_O 	O 	0.0638	0.93444	0.3985	-1.915
Mof_O 	O 	0.1958	0.88123	0.4089	6.506
Mof_O 	O 	0.0136	0.81605	0.3324	0.001
Mof_N 	N 	0.4748	0.9777	0.2277	-3.805
Mof_C 	C 	0.1524	0.92218	0.3719	-0.792
Mof_C 	C 	0.9796	0.8343	0.2593	-0.468
Mof_H 	H 	0.9418	0.8669	0.2676	0.722
Mof_C 	C 	0.206	0.9508	0.2859	-15.386
Mof_C 	C 	0.32	0.9677	0.3232	15.683
Mof_C 	C 	0.3146	0.948	0.2834	-21.331
Mof_C 	C 	0.368	0.9864	0.2328	26.367
Mof_C 	C 	0.2128	0.9653	0.3149	13.155
Mof_O 	O 	0.1856	0.869	0.3798	-6.294
Mof_O 	O 	0.866	0.966	0.4818	-0.696
Mof_C 	C 	0.059	0.5663	0.5216	0.075
Mof_O 	O 	0.5638	0.43444	0.8985	-0.568
Mof_O 	O 	0.6958	0.38123	0.9089	0.051
Mof_O 	O 	0.5136	0.31605	0.8324	-0.66
Mof_N 	N 	0.9748	0.4777	0.7277	0.069
Mof_C 	C 	0.6524	0.42218	0.8719	0.277
Mof_C 	C 	0.4796	0.3343	0.7593	0.306
Mof_H 	H 	0.4418	0.3669	0.7676	-0.117
Mof_C 	C 	0.706	0.4508	0.7859	-0.018
Mof_C 	C 	0.82	0.4677	0.8232	-0.249
Mof_C 	C 	0.8146	0.448	0.7834	0.23
Mof_C 	C 	0.868	0.4864	0.7328	0.07
Mof_C 	C 	0.7128	0.4653	0.8149	-0.08
Mof_O 	O 	0.6856	0.369	0.8798	-0.523
Mof_O 	O 	0.366	0.466	0.9818	0.667
Mof_C 	C 	0.559	0.0663	0.0216	-0.782
Mof_O 	O 	0.9362	0.06556	0.3985	-0.487
Mof_O 	O 	0.8042	0.11877	0.4089	-5.507
Mof_O 	O 	0.9864	0.18395	0.3324	-1.033
Mof_N 	N 	0.5252	0.0223	0.2277	3.785
Mof_C 	C 	0.8476	0.07782	0.3719	3.152
Mof_C 	C 	0.0204	0.1657	0.2593	1.182
Mof_H 	H 	0.0582	0.1331	0.2676	-1.088
Mof_C 	C 	0.794	0.0492	0.2859	12.475
Mof_C 	C 	0.68	0.0323	0.3232	-18.17
Mof_C 	C 	0.6854	0.052	0.2834	25.534
Mof_C 	C 	0.632	0.0136	0.2328	-26.621
Mof_C 	C 	0.7872	0.0347	0.3149	-17.224
Mof_O 	O 	0.8144	0.131	0.3798	4.062
Mof_O 	O 	0.134	0.034	0.4818	-0.183
Mof_C 	C 	0.941	0.4337	0.5216	0.074
Mof_O 	O 	0.4362	0.56556	0.8985	-0.566
Mof_O 	O 	0.3042	0.61877	0.9089	0.363
Mof_O 	O 	0.4864	0.68395	0.8324	-0.488
Mof_N 	N 	0.0252	0.5223	0.7277	-0.192
Mof_C 	C 	0.3476	0.57782	0.8719	0.217
Mof_C 	C 	0.5204	0.6657	0.7593	0.308
Mof_H 	H 	0.5582	0.6331	0.7676	-0.081
Mof_C 	C 	0.294	0.5492	0.7859	-0.065
Mof_C 	C 	0.18	0.5323	0.8232	-0.23
Mof_C 	C 	0.1854	0.552	0.7834	0.157
Mof_C 	C 	0.132	0.5136	0.7328	0.277
Mof_C 	C 	0.2872	0.5347	0.8149	0.021
Mof_O 	O 	0.3144	0.631	0.8798	-0.765
Mof_O 	O 	0.634	0.534	0.9818	0.709
Mof_C 	C 	0.441	0.9337	0.0216	-1.175
Mof_Dy	Dy	0.55404	0.65525	0.5	2.327
Mof_O 	O 	0.3967	0.62594	0.5	-0.545
Mof_O 	O 	0.6427	0.73826	0.5	-0.341
Mof_O 	O 	0.4815	0.75769	0.5	-0.223
Mof_C 	C 	0.339	0.5839	0.5	0.433
Mof_C 	C 	0.2299	0.5963	0.5	-0.04
Mof_C 	C 	0.1613	0.5533	0.5	-0.05
Mof_H 	H 	0.184	0.514	0.5	0.074
Mof_C 	C 	0.1989	0.6525	0.5	-0.061
Mof_H 	H 	0.2467	0.681	0.5	0.15
Mof_C 	C 	0.5727	0.7739	0.5	0.383
Mof_C 	C 	0.5981	0.8335	0.5	0.159
Mof_C 	C 	0.526	0.87885	0.5	0.081
Mof_H 	H 	0.4541	0.8703	0.5	-0.081
Mof_N 	N 	0.4848	0.97541	0.5	-2.571
Mof_Dy	Dy	0.05404	0.15525	-0	2.286
Mof_O 	O 	0.8967	0.12594	-0	-0.66
Mof_O 	O 	0.1427	0.23826	-0	-0.559
Mof_O 	O 	0.9815	0.25769	-0	-0.259
Mof_C 	C 	0.839	0.0839	-0	-0.113
Mof_C 	C 	0.7299	0.0963	-0	-0.877
Mof_C 	C 	0.6613	0.0533	-0	0.219
Mof_H 	H 	0.684	0.014	-0	0.221
Mof_C 	C 	0.6989	0.1525	-0	-0.089
Mof_H 	H 	0.7467	0.181	-0	-0.104
Mof_C 	C 	0.0727	0.2739	-0	0.132
Mof_C 	C 	0.0981	0.3335	-0	-0.041
Mof_C 	C 	0.026	0.37885	-0	-0.208
Mof_H 	H 	0.9541	0.3703	-0	0.198
Mof_N 	N 	0.9848	0.47541	-0	0.076
Mof_Dy	Dy	0.44596	0.34475	0.5	2.185
Mof_O 	O 	0.6033	0.37406	0.5	-0.582
Mof_O 	O 	0.3573	0.26174	0.5	-0.566
Mof_O 	O 	0.5185	0.24231	0.5	-0.466
Mof_C 	C 	0.661	0.4161	0.5	0.462
Mof_C 	C 	0.7701	0.4037	0.5	-0.18
Mof_C 	C 	0.8387	0.4467	0.5	0.016
Mof_H 	H 	0.816	0.486	0.5	0.061
Mof_C 	C 	0.8011	0.3475	0.5	0.133
Mof_H 	H 	0.7533	0.319	0.5	-0.029
Mof_C 	C 	0.4273	0.2261	0.5	0.261
Mof_C 	C 	0.4019	0.1665	0.5	-0.316
Mof_C 	C 	0.474	0.12115	0.5	-0.218
Mof_H 	H 	0.5459	0.1297	0.5	0.227
Mof_N 	N 	0.5152	0.02459	0.5	2.473
Mof_Dy	Dy	0.94596	0.84475	-0	2.42
Mof_O 	O 	0.1033	0.87406	-0	-0.633
Mof_O 	O 	0.8573	0.76174	-0	-0.286
Mof_O 	O 	0.0185	0.74231	-0	-0.381
Mof_C 	C 	0.161	0.9161	-0	1.116
Mof_C 	C 	0.2701	0.9037	-0	0.416
Mof_C 	C 	0.3387	0.9467	-0	-0.13
Mof_H 	H 	0.316	0.986	-0	0.013
Mof_C 	C 	0.3011	0.8475	-0	0.261
Mof_H 	H 	0.2533	0.819	-0	0.193
Mof_C 	C 	0.9273	0.7261	-0	0.556
Mof_C 	C 	0.9019	0.6665	-0	-0.143
Mof_C 	C 	0.974	0.62115	-0	0.323
Mof_H 	H 	0.0459	0.6297	-0	-0.07
Mof_N 	N 	0.0152	0.52459	-0	-0.137
Mof_Dy	Dy	0.94596	0.15525	0.5	2.65
Mof_O 	O 	0.1033	0.12594	0.5	-0.838
Mof_O 	O 	0.8573	0.23826	0.5	-0.683
Mof_O 	O 	0.0185	0.25769	0.5	-0.642
Mof_C 	C 	0.161	0.0839	0.5	-0.14
Mof_C 	C 	0.2701	0.0963	0.5	-0.85
Mof_C 	C 	0.3387	0.0533	0.5	0.133
Mof_H 	H 	0.316	0.014	0.5	0.259
Mof_C 	C 	0.3011	0.1525	0.5	-0.128
Mof_H 	H 	0.2533	0.181	0.5	-0.118
Mof_C 	C 	0.9273	0.2739	0.5	0.553
Mof_C 	C 	0.9019	0.3335	0.5	-0.262
Mof_C 	C 	0.974	0.37885	0.5	0.232
Mof_H 	H 	0.0459	0.3703	0.5	-0.111
Mof_N 	N 	0.0152	0.47541	0.5	-0.179
Mof_Dy	Dy	0.44596	0.65525	-0	2.507
Mof_O 	O 	0.6033	0.62594	-0	-0.566
Mof_O 	O 	0.3573	0.73826	-0	-0.349
Mof_O 	O 	0.5185	0.75769	-0	-0.206
Mof_C 	C 	0.661	0.5839	-0	0.547
Mof_C 	C 	0.7701	0.5963	-0	-0.166
Mof_C 	C 	0.8387	0.5533	-0	0.107
Mof_H 	H 	0.816	0.514	-0	0.059
Mof_C 	C 	0.8011	0.6525	-0	0.162
Mof_H 	H 	0.7533	0.681	-0	0.094
Mof_C 	C 	0.4273	0.7739	-0	0.413
Mof_C 	C 	0.4019	0.8335	-0	0.114
Mof_C 	C 	0.474	0.87885	-0	0.2
Mof_H 	H 	0.5459	0.8703	-0	-0.09
Mof_N 	N 	0.5152	0.97541	-0	-2.486
Mof_Dy	Dy	0.05404	0.84475	0.5	1.771
Mof_O 	O 	0.8967	0.87406	0.5	-0.436
Mof_O 	O 	0.1427	0.76174	0.5	-0.173
Mof_O 	O 	0.9815	0.74231	0.5	-0.03
Mof_C 	C 	0.839	0.9161	0.5	0.984
Mof_C 	C 	0.7299	0.9037	0.5	0.496
Mof_C 	C 	0.6613	0.9467	0.5	-0.268
Mof_H 	H 	0.684	0.986	0.5	-0.001
Mof_C 	C 	0.6989	0.8475	0.5	0.179
Mof_H 	H 	0.7467	0.819	0.5	0.225
Mof_C 	C 	0.0727	0.7261	0.5	0.104
Mof_C 	C 	0.0981	0.6665	0.5	0.138
Mof_C 	C 	0.026	0.62115	0.5	-0.305
Mof_H 	H 	0.9541	0.6297	0.5	0.257
Mof_N 	N 	0.9848	0.52459	0.5	0.036
Mof_Dy	Dy	0.55404	0.34475	-0	2.326
Mof_O 	O 	0.3967	0.37406	-0	-0.595
Mof_O 	O 	0.6427	0.26174	-0	-0.553
Mof_O 	O 	0.4815	0.24231	-0	-0.467
Mof_C 	C 	0.339	0.4161	-0	0.515
Mof_C 	C 	0.2299	0.4037	-0	-0.162
Mof_C 	C 	0.1613	0.4467	-0	0.082
Mof_H 	H 	0.184	0.486	-0	0.051
Mof_C 	C 	0.1989	0.3475	-0	0.027
Mof_H 	H 	0.2467	0.319	-0	0.009
Mof_C 	C 	0.5727	0.2261	-0	0.279
Mof_C 	C 	0.5981	0.1665	-0	-0.341
Mof_C 	C 	0.526	0.12115	-0	-0.133
Mof_H 	H 	0.4541	0.1297	-0	0.209
Mof_N 	N 	0.4848	0.02459	-0	2.469
Mof_Ni	Ni	0.5	0.5	0.5	1.107
Mof_Ni	Ni	-0	0	-0	2.672
Mof_Ni	Ni	7.90121e-33	0	0.5	2.671
Mof_Ni	Ni	0.5	0.5	-0	1.141
Mof_C 	C 	0.6613	0.5	0.25	0.02
Mof_H 	H 	0.5916	0.5	0.25	0.052
Mof_C 	C 	0.3387	0.5	0.25	0.005
Mof_H 	H 	0.4084	0.5	0.25	0.056
Mof_C 	C 	0.8387	0	0.75	6.888
Mof_H 	H 	0.9084	0	0.75	-1.028
Mof_C 	C 	0.1613	0	0.75	6.935
Mof_H 	H 	0.0916	0	0.75	-1.11
Mof_C 	C 	0.3387	0.5	0.75	-0.025
Mof_H 	H 	0.4084	0.5	0.75	0.036
Mof_C 	C 	0.6613	0.5	0.75	-0.013
Mof_H 	H 	0.5916	0.5	0.75	0.032
Mof_C 	C 	0.1613	0	0.25	6.959
Mof_H 	H 	0.0916	0	0.25	-1.091
Mof_C 	C 	0.8387	0	0.25	6.905
Mof_H 	H 	0.9084	0	0.25	-1.005
_end
