# CIF file generated by openbabel 3.1.0, see https://openbabel.org
data_I
_chemical_name_common 'image0'
_cell_length_a 9.2899
_cell_length_b 9.2899
_cell_length_c 49.248
_cell_angle_alpha 90
_cell_angle_beta 90
_cell_angle_gamma 120
_space_group_name_H-M_alt 'P 1'
_space_group_name_Hall 'P 1'
loop_
    _symmetry_equiv_pos_as_xyz
    x,y,z
loop_
    _atom_site_label
    _atom_site_type_symbol
    _atom_site_fract_x
    _atom_site_fract_y
    _atom_site_fract_z
    _atom_site_occupancy
    N1       N        0.79290    0.71020    0.03477    1.000
    C1       C        0.80840    0.64070    0.05131    1.000
    N2       N        0.45957    0.04353    0.36810    1.000
    C2       C        0.47507    0.97403    0.38464    1.000
    N3       N        0.12623    0.37687    0.70144    1.000
    C3       C        0.14173    0.30737    0.71798    1.000
    N4       N        0.28980    0.08270    0.03477    1.000
    C4       C        0.35930    0.16770    0.05131    1.000
    N5       N        0.95647    0.41603    0.36810    1.000
    C5       C        0.02597    0.50103    0.38464    1.000
    N6       N        0.62313    0.74937    0.70144    1.000
    C6       C        0.69263    0.83437    0.71798    1.000
    N7       N        0.91730    0.20710    0.03477    1.000
    C7       C        0.83230    0.19160    0.05131    1.000
    N8       N        0.58397    0.54043    0.36810    1.000
    C8       C        0.49897    0.52493    0.38464    1.000
    N9       N        0.25063    0.87377    0.70144    1.000
    C9       C        0.16563    0.85827    0.71798    1.000
    N10      N        0.71020    0.79290    0.46523    1.000
    C10      C        0.64070    0.80840    0.44869    1.000
    N11      N        0.37687    0.12623    0.79856    1.000
    C11      C        0.30737    0.14173    0.78202    1.000
    N12      N        0.04353    0.45957    0.13190    1.000
    C12      C        0.97403    0.47507    0.11536    1.000
    N13      N        0.08270    0.28980    0.46523    1.000
    C13      C        0.16770    0.35930    0.44869    1.000
    N14      N        0.74937    0.62313    0.79856    1.000
    C14      C        0.83437    0.69263    0.78202    1.000
    N15      N        0.41603    0.95647    0.13190    1.000
    C15      C        0.50103    0.02597    0.11536    1.000
    N16      N        0.20710    0.91730    0.46523    1.000
    C16      C        0.19160    0.83230    0.44869    1.000
    N17      N        0.87377    0.25063    0.79856    1.000
    C17      C        0.85827    0.16563    0.78202    1.000
    N18      N        0.54043    0.58397    0.13190    1.000
    C18      C        0.52493    0.49897    0.11536    1.000
    N19      N        0.20710    0.28980    0.96523    1.000
    C19      C        0.19160    0.35930    0.94869    1.000
    N20      N        0.87377    0.62313    0.29856    1.000
    C20      C        0.85827    0.69263    0.28202    1.000
    N21      N        0.54043    0.95647    0.63190    1.000
    C21      C        0.52493    0.02597    0.61536    1.000
    N22      N        0.71020    0.91730    0.96523    1.000
    C22      C        0.64070    0.83230    0.94869    1.000
    N23      N        0.37687    0.25063    0.29856    1.000
    C23      C        0.30737    0.16563    0.28202    1.000
    N24      N        0.04353    0.58397    0.63190    1.000
    C24      C        0.97403    0.49897    0.61536    1.000
    N25      N        0.08270    0.79290    0.96523    1.000
    C25      C        0.16770    0.80840    0.94869    1.000
    N26      N        0.74937    0.12623    0.29856    1.000
    C26      C        0.83437    0.14173    0.28202    1.000
    N27      N        0.41603    0.45957    0.63190    1.000
    C27      C        0.50103    0.47507    0.61536    1.000
    N28      N        0.28980    0.20710    0.53477    1.000
    C28      C        0.35930    0.19160    0.55131    1.000
    N29      N        0.95647    0.54043    0.86810    1.000
    C29      C        0.02597    0.52493    0.88464    1.000
    N30      N        0.62313    0.87377    0.20144    1.000
    C30      C        0.69263    0.85827    0.21798    1.000
    N31      N        0.91730    0.71020    0.53477    1.000
    C31      C        0.83230    0.64070    0.55131    1.000
    N32      N        0.58397    0.04353    0.86810    1.000
    C32      C        0.49897    0.97403    0.88464    1.000
    N33      N        0.25063    0.37687    0.20144    1.000
    C33      C        0.16563    0.30737    0.21798    1.000
    N34      N        0.79290    0.08270    0.53477    1.000
    C34      C        0.80840    0.16770    0.55131    1.000
    N35      N        0.45957    0.41603    0.86810    1.000
    C35      C        0.47507    0.50103    0.88464    1.000
    N36      N        0.12623    0.74937    0.20144    1.000
    C36      C        0.14173    0.83437    0.21798    1.000
    Ag1      Ag       0.86559    0.53226    0.08333    1.000
    Ag2      Ag       0.19893    0.19893    0.75000    1.000
    Ag3      Ag       0.46774    0.33333    0.08333    1.000
    Ag4      Ag       0.66667    0.13441    0.08333    1.000
    Ag5      Ag       0.33333    0.46774    0.41667    1.000
    Ag6      Ag       0.53226    0.86559    0.41667    1.000
    Ag7      Ag       0.00000    0.80107    0.75000    1.000
    Ag8      Ag       0.13441    0.66667    0.41667    1.000
    Ag9      Ag       0.80107    0.00000    0.75000    1.000
    Ag10     Ag       0.13441    0.46774    0.91667    1.000
    Ag11     Ag       0.80107    0.80107    0.25000    1.000
    Ag12     Ag       0.53226    0.66667    0.91667    1.000
    Ag13     Ag       0.19893    0.00000    0.25000    1.000
    Ag14     Ag       0.86559    0.33333    0.58333    1.000
    Ag15     Ag       0.33333    0.86559    0.91667    1.000
    Ag16     Ag       0.00000    0.19893    0.25000    1.000
    Ag17     Ag       0.46774    0.13441    0.58333    1.000
    Ag18     Ag       0.66667    0.53226    0.58333    1.000
    K1       K        0.00000    0.00000    0.00000    1.000
    K2       K        0.66667    0.33333    0.33333    1.000
    K3       K        0.33333    0.66667    0.66667    1.000
    K4       K        0.00000    0.00000    0.50000    1.000
    K5       K        0.66667    0.33333    0.83333    1.000
    K6       K        0.33333    0.66667    0.16667    1.000
