# CIF file generated by openbabel 3.1.0, see https://openbabel.org
data_I
_chemical_name_common 'image0'
_cell_length_a 10.5014
_cell_length_b 10.5014
_cell_length_c 21.47
_cell_angle_alpha 90
_cell_angle_beta 90
_cell_angle_gamma 90
_space_group_name_H-M_alt 'P 1'
_space_group_name_Hall 'P 1'
loop_
    _symmetry_equiv_pos_as_xyz
    x,y,z
loop_
    _atom_site_label
    _atom_site_type_symbol
    _atom_site_fract_x
    _atom_site_fract_y
    _atom_site_fract_z
    _atom_site_occupancy
    F1       F        0.65117    0.74654    0.38442    1.000
    N1       N        0.50520    0.03515    0.38019    1.000
    C1       C        0.50333    0.92594    0.38199    1.000
    F2       F        0.15117    0.24654    0.88442    1.000
    N2       N        0.00520    0.53515    0.88019    1.000
    C2       C        0.00333    0.42594    0.88199    1.000
    F3       F        0.84883    0.25346    0.88442    1.000
    N3       N        0.99480    0.96485    0.88019    1.000
    C3       C        0.99667    0.07406    0.88199    1.000
    F4       F        0.34883    0.75346    0.38442    1.000
    N4       N        0.49480    0.46485    0.38019    1.000
    C4       C        0.49667    0.57406    0.38199    1.000
    F5       F        0.00346    0.90117    0.63442    1.000
    N5       N        0.71485    0.75520    0.63019    1.000
    C5       C        0.82406    0.75333    0.63199    1.000
    F6       F        0.50346    0.40117    0.13442    1.000
    N6       N        0.21485    0.25520    0.13019    1.000
    C6       C        0.32406    0.25333    0.13199    1.000
    F7       F        0.49654    0.09883    0.13442    1.000
    N7       N        0.78515    0.24480    0.13019    1.000
    C7       C        0.67594    0.24667    0.13199    1.000
    F8       F        0.99654    0.59883    0.63442    1.000
    N8       N        0.28515    0.74480    0.63019    1.000
    C8       C        0.17594    0.74667    0.63199    1.000
    F9       F        0.34883    0.25346    0.61558    1.000
    N9       N        0.49480    0.96485    0.61981    1.000
    C9       C        0.49667    0.07406    0.61801    1.000
    F10      F        0.84883    0.75346    0.11558    1.000
    N10      N        0.99480    0.46485    0.11981    1.000
    C10      C        0.99667    0.57406    0.11801    1.000
    F11      F        0.15117    0.74654    0.11558    1.000
    N11      N        0.00520    0.03515    0.11981    1.000
    C11      C        0.00333    0.92594    0.11801    1.000
    F12      F        0.65117    0.24654    0.61558    1.000
    N12      N        0.50520    0.53515    0.61981    1.000
    C12      C        0.50333    0.42594    0.61801    1.000
    F13      F        0.99654    0.09883    0.36558    1.000
    N13      N        0.28515    0.24480    0.36981    1.000
    C13      C        0.17594    0.24667    0.36801    1.000
    F14      F        0.49654    0.59883    0.86558    1.000
    N14      N        0.78515    0.74480    0.86981    1.000
    C14      C        0.67594    0.74667    0.86801    1.000
    F15      F        0.50346    0.90117    0.86558    1.000
    N15      N        0.21485    0.75520    0.86981    1.000
    C15      C        0.32406    0.75333    0.86801    1.000
    F16      F        0.00346    0.40117    0.36558    1.000
    N16      N        0.71485    0.25520    0.36981    1.000
    C16      C        0.82406    0.25333    0.36801    1.000
    Li1      Li       0.50000    0.25000    0.37500    1.000
    Li2      Li       0.00000    0.75000    0.87500    1.000
    Li3      Li       0.50000    0.75000    0.62500    1.000
    Li4      Li       0.00000    0.25000    0.12500    1.000
    P1       P        0.50000    0.75000    0.38273    1.000
    F17      F        0.50000    0.75000    0.30924    1.000
    N17      N        0.50000    0.75000    0.52200    1.000
    C17      C        0.50000    0.75000    0.46856    1.000
    P2       P        0.00000    0.25000    0.88273    1.000
    F18      F        0.00000    0.25000    0.80924    1.000
    N18      N        0.00000    0.25000    0.02200    1.000
    C18      C        0.00000    0.25000    0.96856    1.000
    P3       P        0.00000    0.75000    0.63273    1.000
    F19      F        0.00000    0.75000    0.55924    1.000
    N19      N        0.00000    0.75000    0.77200    1.000
    C19      C        0.00000    0.75000    0.71856    1.000
    P4       P        0.50000    0.25000    0.13273    1.000
    F20      F        0.50000    0.25000    0.05924    1.000
    N20      N        0.50000    0.25000    0.27200    1.000
    C20      C        0.50000    0.25000    0.21856    1.000
    P5       P        0.50000    0.25000    0.61727    1.000
    F21      F        0.50000    0.25000    0.69076    1.000
    N21      N        0.50000    0.25000    0.47800    1.000
    C21      C        0.50000    0.25000    0.53144    1.000
    P6       P        0.00000    0.75000    0.11727    1.000
    F22      F        0.00000    0.75000    0.19076    1.000
    N22      N        0.00000    0.75000    0.97800    1.000
    C22      C        0.00000    0.75000    0.03144    1.000
    P7       P        0.00000    0.25000    0.36727    1.000
    F23      F        0.00000    0.25000    0.44076    1.000
    N23      N        0.00000    0.25000    0.22800    1.000
    C23      C        0.00000    0.25000    0.28144    1.000
    P8       P        0.50000    0.75000    0.86727    1.000
    F24      F        0.50000    0.75000    0.94076    1.000
    N24      N        0.50000    0.75000    0.72800    1.000
    C24      C        0.50000    0.75000    0.78144    1.000
