# CIF file generated by openbabel 3.1.0, see https://openbabel.org
data_I
_chemical_name_common 'image0'
_cell_length_a 14.3239
_cell_length_b 15.3167
_cell_length_c 25.468
_cell_angle_alpha 87.994
_cell_angle_beta 85.151
_cell_angle_gamma 63.419
_space_group_name_H-M_alt 'P 1'
_space_group_name_Hall 'P 1'
loop_
    _symmetry_equiv_pos_as_xyz
    x,y,z
loop_
    _atom_site_label
    _atom_site_type_symbol
    _atom_site_fract_x
    _atom_site_fract_y
    _atom_site_fract_z
    _atom_site_occupancy
    Gd1      Gd       0.46018    0.24288    0.32299    1.000
    Gd2      Gd       0.54482    0.14896    0.15259    1.000
    Gd3      Gd       0.17023    0.45465    0.98270    1.000
    Gd4      Gd       0.15342    0.92870    0.47523    1.000
    O1       O        0.26350    0.01060    0.49220    1.000
    O2       O        0.37470    0.27270    0.17940    1.000
    O3       O        0.48610    0.06160    0.21087    1.000
    C1       C        0.63620    0.43360    0.16080    1.000
    H1       H        0.64540    0.39530    0.13050    1.000
    O4       O        0.86590    0.21790    0.50211    1.000
    O5       O        0.26080    0.82950    0.39080    1.000
    O6       O        0.53870    0.31000    0.25758    1.000
    O7       O        0.32210    0.13470    0.41990    1.000
    O8       O        0.62110    0.11530    0.29537    1.000
    O9       O        0.21120    0.98760    0.39733    1.000
    O10      O        0.05300    0.85100    0.17430    1.000
    O11      O        0.66140    0.98450    0.11162    1.000
    O12      O        0.08380    0.43700    0.05924    1.000
    O13      O        0.41850    0.12290    0.29070    1.000
    O14      O        0.83640    0.54450    0.46710    1.000
    O15      O        0.67990    0.07640    0.21163    1.000
    O16      O        0.39780    0.69760    0.20760    1.000
    O17      O        0.97160    0.56410    0.43960    1.000
    O18      O        0.59800    0.68180    0.28740    1.000
    O19      O        0.08500    0.00410    0.05190    1.000
    O20      O        0.33390    0.32260    0.26343    1.000
    O21      O        0.46980    0.76860    0.15630    1.000
    O22      O        0.58890    0.57000    0.33760    1.000
    O23      O        0.84850    0.52820    0.28130    1.000
    O24      O        0.58140    0.28000    0.17047    1.000
    O25      O        0.70990    0.61430    0.09908    1.000
    O26      O        0.89470    0.65460    0.03910    1.000
    O27      O        0.71530    0.09870    0.10131    1.000
    O28      O        0.05870    0.61780    0.00747    1.000
    O29      O        0.92200    0.47580    0.09300    1.000
    O30      O        0.03690    0.93210    0.41243    1.000
    O31      O        0.72630    0.47620    0.06691    1.000
    O32      O        0.30210    0.27210    0.37755    1.000
    O33      O        0.86780    0.03400    0.43305    1.000
    N1       N        0.94060    0.48870    0.28950    1.000
    N2       N        0.59940    0.60240    0.29410    1.000
    O34      O        0.01410    0.08880    0.47889    1.000
    C2       C        0.81920    0.01940    0.32990    1.000
    H2       H        0.76310    0.05860    0.35430    1.000
    C3       C        0.70050    0.53690    0.10380    1.000
    C4       C        0.65960    0.51270    0.15620    1.000
    C5       C        0.94380    0.97890    0.40220    1.000
    C6       C        0.05540    0.43120    0.15130    1.000
    C7       C        0.15360    0.26760    0.42360    1.000
    C8       C        0.12370    0.40600    0.25210    1.000
    H3       H        0.14640    0.39910    0.28670    1.000
    C9       C        0.01790    0.89080    0.05250    1.000
    N3       N        0.06590    0.84260    0.22160    1.000
    C10      C        0.95850    0.18020    0.48220    1.000
    C11      C        0.95320    0.77460    0.04220    1.000
    C12      C        0.85450    0.84450    0.06120    1.000
    H4       H        0.79730    0.82860    0.06410    1.000
    C13      C        0.58910    0.46480    0.25320    1.000
    H5       H        0.56570    0.44910    0.28650    1.000
    C14      C        0.03640    0.79840    0.03750    1.000
    H6       H        0.10420    0.75230    0.02430    1.000
    C15      C        0.34990    0.98100    0.31200    1.000
    H7       H        0.33260    0.03050    0.33770    1.000
    C16      C        0.42760    0.91230    0.22620    1.000
    H8       H        0.46370    0.91390    0.19340    1.000
    C17      C        0.57100    0.32610    0.21280    1.000
    C18      C        0.01860    0.45200    0.24390    1.000
    N4       N        0.10540    0.91720    0.04810    1.000
    N5       N        0.92930    0.51230    0.45100    1.000
    C19      C        0.99080    0.40650    0.44700    1.000
    C20      C        0.83830    0.93710    0.07610    1.000
    C21      C        0.43780    0.06310    0.25480    1.000
    C22      C        0.10680    0.20760    0.44000    1.000
    H9       H        0.14590    0.13890    0.43630    1.000
    C23      C        0.69100    0.07340    0.25970    1.000
    C24      C        0.16180    0.38390    0.15820    1.000
    H10      H        0.21110    0.36140    0.12840    1.000
    C25      C        0.98230    0.46570    0.19430    1.000
    H11      H        0.90940    0.49780    0.18980    1.000
    C26      C        0.79990    0.01380    0.27740    1.000
    C27      C        0.31110    0.31760    0.21750    1.000
    C28      C        0.00110    0.90910    0.31090    1.000
    H12      H        0.07010    0.87280    0.32160    1.000
    C29      C        0.31980    0.90690    0.32170    1.000
    C30      C        0.92050    0.96100    0.07120    1.000
    H13      H        0.91060    0.02420    0.08050    1.000
    C31      C        0.40560    0.98240    0.26450    1.000
    C32      C        0.94540    0.34730    0.46550    1.000
    H14      H        0.87520    0.37500    0.48040    1.000
    C33      C        0.26050    0.90630    0.37390    1.000
    C34      C        0.09460    0.36790    0.42670    1.000
    H15      H        0.12470    0.40990    0.41500    1.000
    C35      C        0.61300    0.54240    0.24780    1.000
    C36      C        0.73130    0.01140    0.09750    1.000
    C37      C        0.01770    0.44890    0.09720    1.000
    C38      C        0.34410    0.83440    0.28470    1.000
    H16      H        0.32590    0.78240    0.29180    1.000
    C39      C        0.97980    0.90430    0.25950    1.000
    C40      C        0.97010    0.67400    0.02830    1.000
    C41      C        0.59990    0.40960    0.20850    1.000
    C42      C        0.91990    0.96800    0.34690    1.000
    N6       N        0.42110    0.76380    0.19740    1.000
    C43      C        0.19610    0.36960    0.20850    1.000
    C44      C        0.88100    0.95630    0.24180    1.000
    H17      H        0.86920    0.95260    0.20590    1.000
    C45      C        0.64810    0.56800    0.20010    1.000
    H18      H        0.66370    0.62210    0.19760    1.000
    C46      C        0.39590    0.83960    0.23680    1.000
    C47      C        0.00430    0.24650    0.46180    1.000
    C48      C        0.26880    0.22060    0.40500    1.000
    O35      O        0.96610    0.46360    0.33310    1.000
    O36      O        0.14810    0.78530    0.24050    1.000
    O37      O        0.19410    0.84920    0.04140    1.000
    H19      H        0.27770    0.02440    0.52480    1.000
    O38      O        0.97650    0.49400    0.33320    1.000
    O39      O        0.09220    0.98810    0.07490    1.000
    O40      O        0.18440    0.86530    0.01980    1.000
    O41      O        0.95900    0.16400    0.82260    1.000
    O42      O        0.84350    0.18980    0.76630    1.000
    Gd5      Gd       0.53982    0.75712    0.67700    1.000
    Gd6      Gd       0.45518    0.85104    0.84741    1.000
    Gd7      Gd       0.82977    0.54535    0.01730    1.000
    Gd8      Gd       0.84658    0.07130    0.52476    1.000
    O43      O        0.73650    0.98940    0.50780    1.000
    O44      O        0.62530    0.72730    0.82060    1.000
    O45      O        0.51390    0.93840    0.78913    1.000
    C49      C        0.36380    0.56640    0.83920    1.000
    H20      H        0.35460    0.60470    0.86950    1.000
    O46      O        0.13410    0.78210    0.49789    1.000
    O47      O        0.73920    0.17050    0.60920    1.000
    O48      O        0.46130    0.69000    0.74242    1.000
    O49      O        0.67790    0.86530    0.58010    1.000
    O50      O        0.37890    0.88470    0.70463    1.000
    O51      O        0.78880    0.01240    0.60267    1.000
    O52      O        0.94700    0.14900    0.82570    1.000
    O53      O        0.33860    0.01550    0.88838    1.000
    O54      O        0.91620    0.56300    0.94076    1.000
    O55      O        0.58150    0.87710    0.70930    1.000
    O56      O        0.16360    0.45550    0.53290    1.000
    O57      O        0.32010    0.92360    0.78837    1.000
    O58      O        0.60220    0.30240    0.79240    1.000
    O59      O        0.02840    0.43590    0.56040    1.000
    O60      O        0.40200    0.31820    0.71260    1.000
    O61      O        0.91500    0.99590    0.94810    1.000
    O62      O        0.66610    0.67740    0.73657    1.000
    O63      O        0.53020    0.23140    0.84370    1.000
    O64      O        0.41110    0.43000    0.66240    1.000
    O65      O        0.15150    0.47180    0.71870    1.000
    O66      O        0.41860    0.72000    0.82953    1.000
    O67      O        0.29010    0.38570    0.90092    1.000
    O68      O        0.10530    0.34540    0.96090    1.000
    O69      O        0.28470    0.90130    0.89869    1.000
    O70      O        0.94130    0.38220    0.99253    1.000
    O71      O        0.07800    0.52420    0.90700    1.000
    O72      O        0.96310    0.06790    0.58757    1.000
    O73      O        0.27370    0.52380    0.93309    1.000
    O74      O        0.69790    0.72790    0.62245    1.000
    O75      O        0.13220    0.96600    0.56695    1.000
    N7       N        0.05940    0.51130    0.71050    1.000
    N8       N        0.40060    0.39760    0.70590    1.000
    O76      O        0.98590    0.91120    0.52111    1.000
    C50      C        0.18080    0.98060    0.67010    1.000
    H21      H        0.23690    0.94140    0.64570    1.000
    C51      C        0.29950    0.46310    0.89620    1.000
    C52      C        0.34040    0.48730    0.84380    1.000
    C53      C        0.05620    0.02110    0.59780    1.000
    C54      C        0.94460    0.56880    0.84870    1.000
    C55      C        0.84640    0.73240    0.57640    1.000
    C56      C        0.87630    0.59400    0.74790    1.000
    H22      H        0.85360    0.60090    0.71330    1.000
    C57      C        0.98210    0.10920    0.94750    1.000
    N9       N        0.93410    0.15740    0.77840    1.000
    C58      C        0.04150    0.81980    0.51780    1.000
    C59      C        0.04680    0.22540    0.95780    1.000
    C60      C        0.14550    0.15550    0.93880    1.000
    H23      H        0.20270    0.17140    0.93590    1.000
    C61      C        0.41090    0.53520    0.74680    1.000
    H24      H        0.43430    0.55090    0.71350    1.000
    C62      C        0.96360    0.20160    0.96250    1.000
    H25      H        0.89580    0.24770    0.97570    1.000
    C63      C        0.65010    0.01900    0.68800    1.000
    H26      H        0.66740    0.96950    0.66230    1.000
    C64      C        0.57240    0.08770    0.77380    1.000
    H27      H        0.53630    0.08610    0.80660    1.000
    C65      C        0.42900    0.67390    0.78720    1.000
    C66      C        0.98140    0.54800    0.75610    1.000
    N10      N        0.89460    0.08280    0.95190    1.000
    N11      N        0.07070    0.48770    0.54900    1.000
    C67      C        0.00920    0.59350    0.55300    1.000
    C68      C        0.16170    0.06290    0.92390    1.000
    C69      C        0.56220    0.93690    0.74520    1.000
    C70      C        0.89320    0.79240    0.56000    1.000
    H28      H        0.85410    0.86110    0.56370    1.000
    C71      C        0.30900    0.92660    0.74030    1.000
    C72      C        0.83820    0.61610    0.84180    1.000
    H29      H        0.78890    0.63860    0.87160    1.000
    C73      C        0.01770    0.53430    0.80570    1.000
    H30      H        0.09060    0.50220    0.81020    1.000
    C74      C        0.20010    0.98620    0.72260    1.000
    C75      C        0.68890    0.68240    0.78250    1.000
    C76      C        0.99890    0.09090    0.68910    1.000
    H31      H        0.92990    0.12720    0.67840    1.000
    C77      C        0.68020    0.09310    0.67830    1.000
    C78      C        0.07950    0.03900    0.92880    1.000
    H32      H        0.08940    0.97580    0.91950    1.000
    C79      C        0.59440    0.01760    0.73550    1.000
    C80      C        0.05460    0.65270    0.53450    1.000
    H33      H        0.12480    0.62500    0.51960    1.000
    C81      C        0.73950    0.09370    0.62610    1.000
    C82      C        0.90540    0.63210    0.57330    1.000
    H34      H        0.87530    0.59010    0.58500    1.000
    C83      C        0.38700    0.45760    0.75220    1.000
    C84      C        0.26870    0.98860    0.90250    1.000
    C85      C        0.98230    0.55110    0.90280    1.000
    C86      C        0.65590    0.16560    0.71530    1.000
    H35      H        0.67410    0.21760    0.70820    1.000
    C87      C        0.02020    0.09570    0.74050    1.000
    C88      C        0.02990    0.32600    0.97170    1.000
    C89      C        0.40010    0.59040    0.79150    1.000
    C90      C        0.08010    0.03200    0.65310    1.000
    N12      N        0.57890    0.23620    0.80260    1.000
    C91      C        0.80390    0.63040    0.79150    1.000
    C92      C        0.11900    0.04370    0.75820    1.000
    H36      H        0.13080    0.04740    0.79410    1.000
    C93      C        0.35190    0.43200    0.79990    1.000
    H37      H        0.33630    0.37790    0.80240    1.000
    C94      C        0.60410    0.16040    0.76320    1.000
    C95      C        0.99570    0.75350    0.53820    1.000
    C96      C        0.73120    0.77940    0.59500    1.000
    O77      O        0.03390    0.53640    0.66690    1.000
    O78      O        0.85190    0.21470    0.75950    1.000
    O79      O        0.80590    0.15080    0.95860    1.000
    H38      H        0.72230    0.97560    0.47520    1.000
    O80      O        0.02350    0.50600    0.66680    1.000
    O81      O        0.90780    0.01190    0.92510    1.000
    O82      O        0.81560    0.13470    0.98020    1.000
    O83      O        0.04100    0.83600    0.17740    1.000
    O84      O        0.15650    0.81020    0.23370    1.000
