# CIF file generated by openbabel 3.1.0, see https://openbabel.org
data_I
_chemical_name_common 'image0'
_cell_length_a 13.0484
_cell_length_b 13.0484
_cell_length_c 13.0484
_cell_angle_alpha 90
_cell_angle_beta 90
_cell_angle_gamma 90
_space_group_name_H-M_alt 'P 1'
_space_group_name_Hall 'P 1'
loop_
    _symmetry_equiv_pos_as_xyz
    x,y,z
loop_
    _atom_site_label
    _atom_site_type_symbol
    _atom_site_fract_x
    _atom_site_fract_y
    _atom_site_fract_z
    _atom_site_occupancy
    N1       N        0.43416    0.45478    0.13490    1.000
    N2       N        0.47962    0.45946    0.21405    1.000
    N3       N        0.52098    0.46214    0.29280    1.000
    N4       N        0.06584    0.54522    0.63490    1.000
    N5       N        0.02038    0.54054    0.71405    1.000
    N6       N        0.97902    0.53786    0.79280    1.000
    N7       N        0.56584    0.95478    0.36510    1.000
    N8       N        0.52038    0.95946    0.28595    1.000
    N9       N        0.47902    0.96214    0.20720    1.000
    N10      N        0.93416    0.04522    0.86510    1.000
    N11      N        0.97962    0.04054    0.78595    1.000
    N12      N        0.02098    0.03786    0.70720    1.000
    N13      N        0.13490    0.43416    0.45478    1.000
    N14      N        0.21405    0.47962    0.45946    1.000
    N15      N        0.29280    0.52098    0.46214    1.000
    N16      N        0.63490    0.06584    0.54522    1.000
    N17      N        0.71405    0.02038    0.54054    1.000
    N18      N        0.79280    0.97902    0.53786    1.000
    N19      N        0.36510    0.56584    0.95478    1.000
    N20      N        0.28595    0.52038    0.95946    1.000
    N21      N        0.20720    0.47902    0.96214    1.000
    N22      N        0.86510    0.93416    0.04522    1.000
    N23      N        0.78595    0.97962    0.04054    1.000
    N24      N        0.70720    0.02098    0.03786    1.000
    N25      N        0.45478    0.13490    0.43416    1.000
    N26      N        0.45946    0.21405    0.47962    1.000
    N27      N        0.46214    0.29280    0.52098    1.000
    N28      N        0.54522    0.63490    0.06584    1.000
    N29      N        0.54054    0.71405    0.02038    1.000
    N30      N        0.53786    0.79280    0.97902    1.000
    N31      N        0.95478    0.36510    0.56584    1.000
    N32      N        0.95946    0.28595    0.52038    1.000
    N33      N        0.96214    0.20720    0.47902    1.000
    N34      N        0.04522    0.86510    0.93416    1.000
    N35      N        0.04054    0.78595    0.97962    1.000
    N36      N        0.03786    0.70720    0.02098    1.000
    N37      N        0.56584    0.54522    0.86510    1.000
    N38      N        0.52038    0.54054    0.78595    1.000
    N39      N        0.47902    0.53786    0.70720    1.000
    N40      N        0.93416    0.45478    0.36510    1.000
    N41      N        0.97962    0.45946    0.28595    1.000
    N42      N        0.02098    0.46214    0.20720    1.000
    N43      N        0.43416    0.04522    0.63490    1.000
    N44      N        0.47962    0.04054    0.71405    1.000
    N45      N        0.52098    0.03786    0.79280    1.000
    N46      N        0.06584    0.95478    0.13490    1.000
    N47      N        0.02038    0.95946    0.21405    1.000
    N48      N        0.97902    0.96214    0.29280    1.000
    N49      N        0.86510    0.56584    0.54522    1.000
    N50      N        0.78595    0.52038    0.54054    1.000
    N51      N        0.70720    0.47902    0.53786    1.000
    N52      N        0.36510    0.93416    0.45478    1.000
    N53      N        0.28595    0.97962    0.45946    1.000
    N54      N        0.20720    0.02098    0.46214    1.000
    N55      N        0.63490    0.43416    0.04522    1.000
    N56      N        0.71405    0.47962    0.04054    1.000
    N57      N        0.79280    0.52098    0.03786    1.000
    N58      N        0.13490    0.06584    0.95478    1.000
    N59      N        0.21405    0.02038    0.95946    1.000
    N60      N        0.29280    0.97902    0.96214    1.000
    N61      N        0.54522    0.86510    0.56584    1.000
    N62      N        0.54054    0.78595    0.52038    1.000
    N63      N        0.53786    0.70720    0.47902    1.000
    N64      N        0.45478    0.36510    0.93416    1.000
    N65      N        0.45946    0.28595    0.97962    1.000
    N66      N        0.46214    0.20720    0.02098    1.000
    N67      N        0.04522    0.63490    0.43416    1.000
    N68      N        0.04054    0.71405    0.47962    1.000
    N69      N        0.03786    0.79280    0.52098    1.000
    N70      N        0.95478    0.13490    0.06584    1.000
    N71      N        0.95946    0.21405    0.02038    1.000
    N72      N        0.96214    0.29280    0.97902    1.000
    Cr1      Cr       0.50000    0.50000    0.00000    1.000
    Cr2      Cr       0.00000    0.50000    0.50000    1.000
    Cr3      Cr       0.50000    0.00000    0.50000    1.000
    Cr4      Cr       0.00000    0.00000    0.00000    1.000
    K1       K        0.50000    0.50000    0.50000    1.000
    K2       K        0.00000    0.50000    0.00000    1.000
    K3       K        0.50000    0.00000    0.00000    1.000
    K4       K        0.00000    0.00000    0.50000    1.000
