data_functionalizedCrystal
_audit_creation_method	'EQeq! by Chris Wilmer'
_symmetry_space_group_name_H-M	'P1'
_symmetry_Int_Tables_number	1
_symmetry_cell_setting	triclinic
loop_
_symmetry_equiv_pos_as_xyz
  x,y,z
_cell_length_a	5.1318
_cell_length_b	7.8411
_cell_length_c	16.51
_cell_angle_alpha	90
_cell_angle_beta	90.119
_cell_angle_gamma	90
loop_
_atom_site_label
_atom_site_type_symbol
_atom_site_fract_x
_atom_site_fract_y
_atom_site_fract_z
_atom_site_charge
Mof_Zn	Zn	0.19821	0.1421	0.58625	1.239
Mof_Zn	Zn	0.1957	0.3706	0.92089	1.244
Mof_O 	O 	0.8503	0.2392	0.5785	-0.463
Mof_O 	O 	0.3285	0.1284	0.695	-0.437
Mof_O 	O 	0.8115	0.4083	0.4485	-0.433
Mof_O 	O 	0.4131	0.2896	0.5166	-0.453
Mof_O 	O 	0.1951	0.6122	0.9369	-0.431
Mof_O 	O 	0.1563	0.7855	0.0661	-0.468
Mof_O 	O 	0.5935	0.7263	0.0085	-0.451
Mof_O 	O 	0.2751	0.3486	0.8079	-0.43
Mof_O 	O 	0.745	0.1035	0.4436	-0.371
Mof_O 	O 	0.2773	0.916	0.9319	-0.32
Mof_O 	O 	0.6143	0.3889	0.7067	-0.353
Mof_O 	O 	0.646	0.1375	0.804	-0.368
Mof_P 	P 	0.7035	0.2656	0.49857	0.554
Mof_P 	P 	0.3056	0.7555	0.98746	0.554
Mof_P 	P 	0.4539	0.2507	0.75346	0.578
Mof_H 	H 	0.66	0.003	0.461	0.188
Mof_H 	H 	0.3	0.022	0.958	0.155
Mof_H 	H 	0.713	0.341	0.664	0.213
Mof_H 	H 	0.727	0.169	0.853	0.218
Mof_Zn	Zn	0.80179	0.6421	0.41375	1.245
Mof_Zn	Zn	0.8043	0.8706	0.07911	1.249
Mof_O 	O 	0.1497	0.7392	0.4215	-0.459
Mof_O 	O 	0.6715	0.6284	0.305	-0.427
Mof_O 	O 	0.1885	0.9083	0.5515	-0.413
Mof_O 	O 	0.5869	0.7896	0.4834	-0.438
Mof_O 	O 	0.8049	0.1122	0.0631	-0.444
Mof_O 	O 	0.8437	0.2855	0.9339	-0.473
Mof_O 	O 	0.4065	0.2263	0.9915	-0.457
Mof_O 	O 	0.7249	0.8486	0.1921	-0.422
Mof_O 	O 	0.255	0.6035	0.5564	-0.364
Mof_O 	O 	0.7227	0.416	0.0681	-0.362
Mof_O 	O 	0.3857	0.8889	0.2933	-0.347
Mof_O 	O 	0.354	0.6375	0.196	-0.362
Mof_P 	P 	0.2965	0.7656	0.50143	0.556
Mof_P 	P 	0.6944	0.2555	0.01254	0.554
Mof_P 	P 	0.5461	0.7507	0.24654	0.578
Mof_H 	H 	0.34	0.503	0.539	0.201
Mof_H 	H 	0.7	0.522	0.042	0.187
Mof_H 	H 	0.287	0.841	0.336	0.214
Mof_H 	H 	0.273	0.669	0.147	0.219
_end
