data_functionalizedCrystal
_audit_creation_method	'EQeq! by Chris Wilmer'
_symmetry_space_group_name_H-M	'P1'
_symmetry_Int_Tables_number	1
_symmetry_cell_setting	triclinic
loop_
_symmetry_equiv_pos_as_xyz
  x,y,z
_cell_length_a	15.134
_cell_length_b	22.431
_cell_length_c	47.621
_cell_angle_alpha	90
_cell_angle_beta	90
_cell_angle_gamma	91.947
loop_
_atom_site_label
_atom_site_type_symbol
_atom_site_fract_x
_atom_site_fract_y
_atom_site_fract_z
_atom_site_charge
Mof_La	La	0.79804	0.58047	0.87363	2.201
Mof_La	La	0.29341	0.07854	0.89153	2.199
Mof_La	La	0.89847	0.1026	0.61935	2.286
Mof_La	La	0.4064	0.09599	0.38102	2.211
Mof_La	La	0.79804	0.08047	0.12637	2.196
Mof_La	La	0.29341	0.57854	0.10847	2.202
Mof_La	La	0.89847	0.6026	0.38065	2.29
Mof_La	La	0.4064	0.59599	0.61898	2.216
Mof_H 	H 	0.8145	0.7027	0.8718	0.211
Mof_H 	H 	0.4569	0.0368	0.8696	0.255
Mof_H 	H 	0.9682	0.2217	0.6371	0.298
Mof_H 	H 	0.0937	0.14	0.6145	0.277
Mof_H 	H 	0.7298	0.1662	0.6243	0.273
Mof_H 	H 	0.2317	0.0245	0.3836	0.261
Mof_H 	H 	0.4638	0.9852	0.3635	0.234
Mof_H 	H 	0.6861	0.7655	0.869	0.016
Mof_H 	H 	0.6536	0.7082	0.8513	0.023
Mof_H 	H 	0.7393	0.7465	0.8416	-0.003
Mof_H 	H 	0.9931	0.6867	0.8291	0.034
Mof_H 	H 	0.971	0.7282	0.8553	0.02
Mof_H 	H 	0.8933	0.7046	0.835	0.014
Mof_H 	H 	0.4512	0.9416	0.8503	-0.034
Mof_H 	H 	0.444	0.9973	0.8296	-0.045
Mof_H 	H 	0.3563	0.962	0.8399	-0.03
Mof_H 	H 	0.2253	0.888	0.8823	0.049
Mof_H 	H 	0.2157	0.9031	0.915	0.054
Mof_H 	H 	0.3074	0.9172	0.8992	0.044
Mof_H 	H 	0.0355	0.2788	0.6027	0.014
Mof_H 	H 	0.9326	0.2898	0.6072	-0.004
Mof_H 	H 	0.9637	0.2473	0.5824	0.001
Mof_H 	H 	0.7385	0.0011	0.6887	0.042
Mof_H 	H 	0.8443	0.002	0.6889	0.039
Mof_H 	H 	0.7908	0.9668	0.6647	0.044
Mof_H 	H 	0.1934	0.0782	0.6108	-0.019
Mof_H 	H 	0.1201	0.0312	0.5994	-0.008
Mof_H 	H 	0.1354	0.0388	0.6325	-0.007
Mof_H 	H 	0.7303	0.231	0.6607	-0.034
Mof_H 	H 	0.7705	0.2575	0.6321	-0.045
Mof_H 	H 	0.835	0.2347	0.6561	-0.032
Mof_H 	H 	0.1746	0.9838	0.3491	-0.012
Mof_H 	H 	0.2749	0.9705	0.3413	-0.004
Mof_H 	H 	0.2303	0.0289	0.3293	-0.009
Mof_H 	H 	0.5166	0.9184	0.3915	-0.011
Mof_H 	H 	0.4729	0.9538	0.4169	-0.008
Mof_H 	H 	0.5538	0.9837	0.3997	-0.023
Mof_H 	H 	0.6157	0.5693	0.9194	0.019
Mof_H 	H 	0.5264	0.572	0.9588	0.072
Mof_H 	H 	0.675	0.448	0.9959	0.068
Mof_H 	H 	0.7639	0.4479	0.9563	0.024
Mof_H 	H 	0.8976	0.5357	0.9397	0.011
Mof_H 	H 	0.0094	0.5317	0.9729	0.097
Mof_H 	H 	0.0303	0.712	0.9714	0.075
Mof_H 	H 	0.9208	0.7133	0.9375	0.021
Mof_H 	H 	0.7864	0.6757	0.7848	0.026
Mof_H 	H 	0.6855	0.6734	0.7484	0.065
Mof_H 	H 	0.5905	0.5129	0.7758	0.068
Mof_H 	H 	0.6869	0.52	0.8134	0.024
Mof_H 	H 	0.6163	0.471	0.87	0.036
Mof_H 	H 	0.5371	0.3853	0.8831	0.064
Mof_H 	H 	0.7482	0.2884	0.8624	0.067
Mof_H 	H 	0.8239	0.3753	0.8492	0.024
Mof_H 	H 	0.9035	0.433	0.9092	0.036
Mof_H 	H 	0.9895	0.3489	0.9093	0.045
Mof_H 	H 	0.1336	0.4206	0.8456	0.066
Mof_H 	H 	0.058	0.5084	0.8503	0.025
Mof_H 	H 	0.2261	0.228	0.9173	0.027
Mof_H 	H 	0.1309	0.3074	0.9186	0.067
Mof_H 	H 	0.1454	0.3191	0.8339	0.07
Mof_H 	H 	0.2313	0.2348	0.8336	0.026
Mof_H 	H 	0.4112	0.2221	0.9188	0.025
Mof_H 	H 	0.4853	0.31	0.906	0.063
Mof_H 	H 	0.6668	0.2129	0.8659	0.064
Mof_H 	H 	0.5857	0.1267	0.8773	0.015
Mof_H 	H 	0.269	0.7045	0.022	0.03
Mof_H 	H 	0.1722	0.6995	0.9845	0.058
Mof_H 	H 	0.1656	0.5523	0.0529	0.018
Mof_H 	H 	0.414	0.4246	0.0491	0.024
Mof_H 	H 	0.519	0.4215	0.0139	0.071
Mof_H 	H 	0.5181	0.6012	0.0083	0.068
Mof_H 	H 	0.4119	0.6018	0.0431	0.031
Mof_H 	H 	0.1078	0.106	0.8364	0.046
Mof_H 	H 	0.0317	0.1266	0.7955	0.067
Mof_H 	H 	0.2341	0.062	0.7508	0.067
Mof_H 	H 	0.3112	0.0481	0.7922	0.025
Mof_H 	H 	0.1114	0.1395	0.6757	0.025
Mof_H 	H 	0.1859	0.1302	0.7179	0.071
Mof_H 	H 	0.9525	0.0898	0.7558	0.072
Mof_H 	H 	0.8807	0.1047	0.7134	0.027
Mof_H 	H 	0.9711	0.948	0.5857	0.037
Mof_H 	H 	0.0576	0.8656	0.579	0.059
Mof_H 	H 	0.0912	0.8546	0.6631	0.066
Mof_H 	H 	0.007	0.9385	0.6685	0.019
Mof_H 	H 	0.9326	0.9792	0.5302	0.033
Mof_H 	H 	0.0239	0.9857	0.4915	0.066
Mof_H 	H 	0.1438	0.1322	0.5247	0.07
Mof_H 	H 	0.052	0.1239	0.5633	0.005
Mof_H 	H 	0.6306	0.0507	0.6316	0.023
Mof_H 	H 	0.5456	0.9652	0.6424	0.065
Mof_H 	H 	0.7063	0.8695	0.5932	0.069
Mof_H 	H 	0.7867	0.9564	0.582	0.023
Mof_H 	H 	0.8	0.2529	0.5555	0.024
Mof_H 	H 	0.7029	0.2593	0.5182	0.07
Mof_H 	H 	0.7028	0.0795	0.511	0.068
Mof_H 	H 	0.8002	0.0759	0.5486	0.032
Mof_H 	H 	0.6011	0.1115	0.4238	0.018
Mof_H 	H 	0.6922	0.1086	0.4627	0.071
Mof_H 	H 	0.5465	0.2338	0.5001	0.066
Mof_H 	H 	0.4556	0.2339	0.461	0.025
Mof_H 	H 	0.322	0.1423	0.4538	0.022
Mof_H 	H 	0.2068	0.1455	0.4855	0.066
Mof_H 	H 	0.1439	0.9734	0.4676	0.074
Mof_H 	H 	0.2619	0.972	0.437	0.022
Mof_H 	H 	0.5794	0.707	0.6306	0.034
Mof_H 	H 	0.664	0.7919	0.6201	0.066
Mof_H 	H 	0.4471	0.8901	0.6308	0.07
Mof_H 	H 	0.3652	0.8035	0.6404	0.026
Mof_H 	H 	0.1681	0.6636	0.6414	0.017
Mof_H 	H 	0.0891	0.7494	0.6499	0.074
Mof_H 	H 	0.2143	0.8293	0.584	0.066
Mof_H 	H 	0.2929	0.7429	0.5769	0.024
Mof_H 	H 	0.4651	0.6715	0.6878	0.025
Mof_H 	H 	0.563	0.6788	0.725	0.061
Mof_H 	H 	0.5416	0.4998	0.7348	0.067
Mof_H 	H 	0.4435	0.4953	0.6977	0.018
Mof_H 	H 	0.8145	0.2027	0.1282	0.21
Mof_H 	H 	0.4569	0.5368	0.1304	0.253
Mof_H 	H 	0.9682	0.7217	0.3629	0.298
Mof_H 	H 	0.0937	0.64	0.3855	0.277
Mof_H 	H 	0.7298	0.6662	0.3757	0.273
Mof_H 	H 	0.2317	0.5245	0.6164	0.265
Mof_H 	H 	0.4638	0.4852	0.6365	0.234
Mof_H 	H 	0.6861	0.2655	0.131	0.016
Mof_H 	H 	0.6536	0.2082	0.1487	0.023
Mof_H 	H 	0.7393	0.2465	0.1584	-0.003
Mof_H 	H 	0.9931	0.1867	0.1709	0.034
Mof_H 	H 	0.971	0.2282	0.1447	0.02
Mof_H 	H 	0.8933	0.2046	0.165	0.014
Mof_H 	H 	0.4512	0.4416	0.1497	-0.033
Mof_H 	H 	0.444	0.4973	0.1704	-0.045
Mof_H 	H 	0.3563	0.462	0.1601	-0.03
Mof_H 	H 	0.2253	0.388	0.1177	0.048
Mof_H 	H 	0.2157	0.4031	0.085	0.053
Mof_H 	H 	0.3074	0.4172	0.1008	0.043
Mof_H 	H 	0.0355	0.7788	0.3973	0.013
Mof_H 	H 	0.9326	0.7898	0.3928	-0.004
Mof_H 	H 	0.9637	0.7473	0.4176	0
Mof_H 	H 	0.7385	0.5011	0.3113	0.04
Mof_H 	H 	0.8443	0.502	0.3111	0.037
Mof_H 	H 	0.7908	0.4668	0.3353	0.038
Mof_H 	H 	0.1934	0.5782	0.3892	-0.018
Mof_H 	H 	0.1201	0.5312	0.4006	-0.006
Mof_H 	H 	0.1354	0.5388	0.3675	-0.005
Mof_H 	H 	0.7303	0.731	0.3393	-0.034
Mof_H 	H 	0.7705	0.7575	0.3679	-0.044
Mof_H 	H 	0.835	0.7347	0.3439	-0.032
Mof_H 	H 	0.1746	0.4838	0.6509	-0.024
Mof_H 	H 	0.2749	0.4705	0.6587	-0.016
Mof_H 	H 	0.2303	0.5289	0.6707	-0.017
Mof_H 	H 	0.5166	0.4184	0.6085	-0.012
Mof_H 	H 	0.4729	0.4538	0.5831	-0.01
Mof_H 	H 	0.5538	0.4837	0.6003	-0.026
Mof_H 	H 	0.6157	0.0693	0.0806	0.02
Mof_H 	H 	0.5264	0.072	0.0412	0.072
Mof_H 	H 	0.675	0.948	0.0041	0.067
Mof_H 	H 	0.7639	0.9479	0.0437	0.024
Mof_H 	H 	0.8976	0.0357	0.0603	0.01
Mof_H 	H 	0.0094	0.0317	0.0271	0.096
Mof_H 	H 	0.0303	0.212	0.0286	0.075
Mof_H 	H 	0.9208	0.2133	0.0625	0.021
Mof_H 	H 	0.7864	0.1757	0.2152	0.026
Mof_H 	H 	0.6855	0.1734	0.2516	0.064
Mof_H 	H 	0.5905	0.0129	0.2242	0.066
Mof_H 	H 	0.6869	0.02	0.1866	0.023
Mof_H 	H 	0.6163	0.971	0.13	0.037
Mof_H 	H 	0.5371	0.8853	0.1169	0.064
Mof_H 	H 	0.7482	0.7884	0.1376	0.068
Mof_H 	H 	0.8239	0.8753	0.1508	0.024
Mof_H 	H 	0.9035	0.933	0.0908	0.036
Mof_H 	H 	0.9895	0.8489	0.0907	0.047
Mof_H 	H 	0.1336	0.9206	0.1544	0.068
Mof_H 	H 	0.058	0.0084	0.1497	0.02
Mof_H 	H 	0.2261	0.728	0.0827	0.027
Mof_H 	H 	0.1309	0.8074	0.0814	0.067
Mof_H 	H 	0.1454	0.8191	0.1661	0.07
Mof_H 	H 	0.2313	0.7348	0.1664	0.026
Mof_H 	H 	0.4112	0.7221	0.0812	0.025
Mof_H 	H 	0.4853	0.81	0.094	0.063
Mof_H 	H 	0.6668	0.7129	0.1341	0.064
Mof_H 	H 	0.5857	0.6267	0.1227	0.016
Mof_H 	H 	0.269	0.2045	0.978	0.03
Mof_H 	H 	0.1722	0.1995	0.0155	0.058
Mof_H 	H 	0.1656	0.0523	0.9471	0.017
Mof_H 	H 	0.414	0.9246	0.9509	0.023
Mof_H 	H 	0.519	0.9215	0.9861	0.069
Mof_H 	H 	0.5181	0.1012	0.9917	0.068
Mof_H 	H 	0.4119	0.1018	0.9569	0.031
Mof_H 	H 	0.1078	0.606	0.1636	0.046
Mof_H 	H 	0.0317	0.6266	0.2045	0.067
Mof_H 	H 	0.2341	0.562	0.2492	0.068
Mof_H 	H 	0.3112	0.5481	0.2078	0.026
Mof_H 	H 	0.1114	0.6395	0.3243	0.025
Mof_H 	H 	0.1859	0.6302	0.2821	0.07
Mof_H 	H 	0.9525	0.5898	0.2442	0.072
Mof_H 	H 	0.8807	0.6047	0.2866	0.028
Mof_H 	H 	0.9711	0.448	0.4143	0.037
Mof_H 	H 	0.0576	0.3656	0.421	0.059
Mof_H 	H 	0.0912	0.3546	0.3369	0.066
Mof_H 	H 	0.007	0.4385	0.3315	0.019
Mof_H 	H 	0.9326	0.4792	0.4698	0.028
Mof_H 	H 	0.0239	0.4857	0.5085	0.063
Mof_H 	H 	0.1438	0.6322	0.4753	0.071
Mof_H 	H 	0.052	0.6239	0.4367	0.005
Mof_H 	H 	0.6306	0.5507	0.3684	0.021
Mof_H 	H 	0.5456	0.4652	0.3576	0.067
Mof_H 	H 	0.7063	0.3695	0.4068	0.069
Mof_H 	H 	0.7867	0.4564	0.418	0.023
Mof_H 	H 	0.8	0.7529	0.4445	0.024
Mof_H 	H 	0.7029	0.7593	0.4818	0.07
Mof_H 	H 	0.7028	0.5795	0.489	0.068
Mof_H 	H 	0.8002	0.5759	0.4514	0.033
Mof_H 	H 	0.6011	0.6115	0.5762	0.019
Mof_H 	H 	0.6922	0.6086	0.5373	0.071
Mof_H 	H 	0.5465	0.7338	0.4999	0.066
Mof_H 	H 	0.4556	0.7339	0.539	0.025
Mof_H 	H 	0.322	0.6423	0.5462	0.022
Mof_H 	H 	0.2068	0.6455	0.5145	0.066
Mof_H 	H 	0.1439	0.4734	0.5324	0.07
Mof_H 	H 	0.2619	0.472	0.563	0.018
Mof_H 	H 	0.5794	0.207	0.3694	0.034
Mof_H 	H 	0.664	0.2919	0.3799	0.066
Mof_H 	H 	0.4471	0.3901	0.3692	0.07
Mof_H 	H 	0.3652	0.3035	0.3596	0.026
Mof_H 	H 	0.1681	0.1636	0.3586	0.016
Mof_H 	H 	0.0891	0.2494	0.3501	0.074
Mof_H 	H 	0.2143	0.3293	0.416	0.066
Mof_H 	H 	0.2929	0.2429	0.4231	0.024
Mof_H 	H 	0.4651	0.1715	0.3122	0.025
Mof_H 	H 	0.563	0.1788	0.275	0.062
Mof_H 	H 	0.5416	0.9998	0.2652	0.073
Mof_H 	H 	0.4435	0.9953	0.3023	0.022
Mof_C 	C 	0.7054	0.7317	0.8578	0.073
Mof_C 	C 	0.9495	0.6947	0.8437	-0.005
Mof_C 	C 	0.416	0.9759	0.8453	0.214
Mof_C 	C 	0.2429	0.916	0.8972	-0.044
Mof_C 	C 	0.9758	0.2605	0.6016	0.123
Mof_C 	C 	0.7917	0.002	0.6769	-0.046
Mof_C 	C 	0.1349	0.0597	0.6144	0.135
Mof_C 	C 	0.7778	0.2277	0.6469	0.213
Mof_C 	C 	0.2334	0.0019	0.3454	0.141
Mof_C 	C 	0.5005	0.9578	0.3983	0.154
Mof_C 	C 	0.6276	0.5447	0.93507	0.046
Mof_C 	C 	0.5748	0.5461	0.95847	-0.11
Mof_C 	C 	0.5904	0.5106	0.98185	0.045
Mof_C 	C 	0.6623	0.4733	0.98048	-0.116
Mof_C 	C 	0.7146	0.473	0.95691	0.048
Mof_C 	C 	0.9249	0.5716	0.9465	0.072
Mof_C 	C 	0.992	0.5692	0.9659	-0.165
Mof_C 	C 	0.0345	0.6218	0.97521	0.091
Mof_C 	C 	0.0044	0.6754	0.9648	-0.116
Mof_C 	C 	0.9381	0.6764	0.9452	0.048
Mof_C 	C 	0.7459	0.6427	0.7829	0.051
Mof_C 	C 	0.6859	0.6412	0.7613	-0.102
Mof_C 	C 	0.6253	0.5932	0.75801	0.041
Mof_C 	C 	0.629	0.547	0.77765	-0.101
Mof_C 	C 	0.6879	0.5505	0.79956	0.052
Mof_C 	C 	0.6431	0.4334	0.8689	0.042
Mof_C 	C 	0.5963	0.3826	0.8767	-0.1
Mof_C 	C 	0.635	0.3268	0.8753	0.039
Mof_C 	C 	0.7206	0.3256	0.8645	-0.109
Mof_C 	C 	0.7658	0.377	0.8566	0.049
Mof_C 	C 	0.9536	0.4311	0.8972	0.016
Mof_C 	C 	0.0029	0.3806	0.89666	-0.064
Mof_C 	C 	0.0721	0.3757	0.87762	0.02
Mof_C 	C 	0.0894	0.4236	0.8596	-0.103
Mof_C 	C 	0.0432	0.475	0.8619	0.053
Mof_C 	C 	0.2092	0.2469	0.9004	0.051
Mof_C 	C 	0.1529	0.294	0.90114	-0.108
Mof_C 	C 	0.1282	0.322	0.87638	0.052
Mof_C 	C 	0.1602	0.3003	0.85112	-0.112
Mof_C 	C 	0.2135	0.2516	0.85095	0.057
Mof_C 	C 	0.4621	0.2207	0.9072	0.049
Mof_C 	C 	0.5071	0.2729	0.9001	-0.104
Mof_C 	C 	0.5844	0.2717	0.88418	0.04
Mof_C 	C 	0.6133	0.2156	0.8762	-0.104
Mof_C 	C 	0.5653	0.1643	0.883	0.043
Mof_C 	C 	0.2264	0.6725	0.02082	0.034
Mof_C 	C 	0.1687	0.6696	0.99866	-0.083
Mof_C 	C 	0.1046	0.6235	0.99661	-0.008
Mof_C 	C 	0.1052	0.5799	0.01751	-0.006
Mof_C 	C 	0.165	0.5831	0.0392	0.012
Mof_C 	C 	0.4354	0.4606	0.0406	0.048
Mof_C 	C 	0.4969	0.4589	0.0194	-0.108
Mof_C 	C 	0.5276	0.5105	0.00576	0.039
Mof_C 	C 	0.4963	0.5646	0.01602	-0.106
Mof_C 	C 	0.4345	0.5649	0.03706	0.044
Mof_C 	C 	0.1348	0.0994	0.81869	0.033
Mof_C 	C 	0.0888	0.1103	0.79442	-0.093
Mof_C 	C 	0.125	0.0978	0.76823	0.029
Mof_C 	C 	0.2084	0.0731	0.76816	-0.101
Mof_C 	C 	0.2542	0.0645	0.79274	0.044
Mof_C 	C 	0.079	0.131	0.69236	0.074
Mof_C 	C 	0.1235	0.1242	0.71731	-0.121
Mof_C 	C 	0.0776	0.1087	0.74171	0.063
Mof_C 	C 	0.9859	0.1011	0.73964	-0.131
Mof_C 	C 	0.9431	0.1098	0.71445	0.053
Mof_C 	C 	0.997	0.9291	0.60136	0.025
Mof_C 	C 	0.048	0.8802	0.59745	-0.091
Mof_C 	C 	0.0859	0.8517	0.62037	0.032
Mof_C 	C 	0.0683	0.8738	0.64705	-0.104
Mof_C 	C 	0.0179	0.9234	0.65024	0.053
Mof_C 	C 	0.9767	0.0103	0.52919	0.025
Mof_C 	C 	0.0315	0.0141	0.50624	-0.101
Mof_C 	C 	0.0975	0.0582	0.50393	0.041
Mof_C 	C 	0.1018	0.0998	0.52572	-0.113
Mof_C 	C 	0.0468	0.0954	0.54866	0.063
Mof_C 	C 	0.6448	0.0135	0.62353	0.043
Mof_C 	C 	0.5948	0.9628	0.6302	-0.106
Mof_C 	C 	0.6168	0.9078	0.61878	0.04
Mof_C 	C 	0.6894	0.9064	0.60096	-0.112
Mof_C 	C 	0.7374	0.9578	0.59437	0.051
Mof_C 	C 	0.7795	0.2175	0.5463	0.044
Mof_C 	C 	0.7222	0.2215	0.52406	-0.109
Mof_C 	C 	0.6924	0.1701	0.51005	0.039
Mof_C 	C 	0.7224	0.1155	0.51991	-0.106
Mof_C 	C 	0.7799	0.1132	0.54234	0.043
Mof_C 	C 	0.5898	0.1361	0.43955	0.042
Mof_C 	C 	0.6443	0.1349	0.46258	-0.11
Mof_C 	C 	0.6308	0.1714	0.48572	0.043
Mof_C 	C 	0.5585	0.2084	0.48466	-0.114
Mof_C 	C 	0.5044	0.2083	0.46147	0.045
Mof_C 	C 	0.2868	0.1073	0.45742	0.049
Mof_C 	C 	0.2178	0.1092	0.47604	-0.106
Mof_C 	C 	0.1633	0.059	0.4813	0.043
Mof_C 	C 	0.1811	0.008	0.46562	-0.112
Mof_C 	C 	0.2512	0.0071	0.44742	0.042
Mof_C 	C 	0.5525	0.7447	0.6303	0.045
Mof_C 	C 	0.6031	0.7951	0.6244	-0.101
Mof_C 	C 	0.5653	0.8512	0.6248	0.041
Mof_C 	C 	0.4752	0.8528	0.6307	-0.107
Mof_C 	C 	0.4264	0.8014	0.6362	0.055
Mof_C 	C 	0.1759	0.6975	0.62957	0.054
Mof_C 	C 	0.129	0.7482	0.63456	-0.115
Mof_C 	C 	0.1405	0.7977	0.6169	0.045
Mof_C 	C 	0.2033	0.7955	0.5956	-0.117
Mof_C 	C 	0.2496	0.7443	0.59131	0.054
Mof_C 	C 	0.4801	0.6365	0.6978	0.044
Mof_C 	C 	0.5385	0.6408	0.7198	-0.102
Mof_C 	C 	0.5626	0.59	0.73471	0.041
Mof_C 	C 	0.526	0.5355	0.72566	-0.108
Mof_C 	C 	0.4675	0.5329	0.70361	0.051
Mof_C 	C 	0.7054	0.2317	0.1422	0.073
Mof_C 	C 	0.9495	0.1947	0.1563	-0.004
Mof_C 	C 	0.416	0.4759	0.1547	0.207
Mof_C 	C 	0.2429	0.416	0.1028	-0.043
Mof_C 	C 	0.9758	0.7605	0.3984	0.125
Mof_C 	C 	0.7917	0.502	0.3231	-0.033
Mof_C 	C 	0.1349	0.5597	0.3856	0.133
Mof_C 	C 	0.7778	0.7277	0.3531	0.214
Mof_C 	C 	0.2334	0.5019	0.6546	0.173
Mof_C 	C 	0.5005	0.4578	0.6017	0.157
Mof_C 	C 	0.6276	0.0447	0.06493	0.044
Mof_C 	C 	0.5748	0.0461	0.04153	-0.109
Mof_C 	C 	0.5904	0.0106	0.01815	0.039
Mof_C 	C 	0.6623	0.9733	0.01952	-0.109
Mof_C 	C 	0.7146	0.973	0.04309	0.051
Mof_C 	C 	0.9249	0.0716	0.0535	0.072
Mof_C 	C 	0.992	0.0692	0.0341	-0.168
Mof_C 	C 	0.0345	0.1218	0.02479	0.091
Mof_C 	C 	0.0044	0.1754	0.0352	-0.116
Mof_C 	C 	0.9381	0.1764	0.0548	0.047
Mof_C 	C 	0.7459	0.1427	0.2171	0.05
Mof_C 	C 	0.6859	0.1412	0.2387	-0.101
Mof_C 	C 	0.6253	0.0932	0.24199	0.038
Mof_C 	C 	0.629	0.047	0.22235	-0.1
Mof_C 	C 	0.6879	0.0505	0.20044	0.051
Mof_C 	C 	0.6431	0.9334	0.1311	0.043
Mof_C 	C 	0.5963	0.8826	0.1233	-0.1
Mof_C 	C 	0.635	0.8268	0.1247	0.039
Mof_C 	C 	0.7206	0.8256	0.1355	-0.109
Mof_C 	C 	0.7658	0.877	0.1434	0.05
Mof_C 	C 	0.9536	0.9311	0.1028	0.019
Mof_C 	C 	0.0029	0.8806	0.10334	-0.069
Mof_C 	C 	0.0721	0.8757	0.12238	0.024
Mof_C 	C 	0.0894	0.9236	0.1404	-0.109
Mof_C 	C 	0.0432	0.975	0.1381	0.062
Mof_C 	C 	0.2092	0.7469	0.0996	0.051
Mof_C 	C 	0.1529	0.794	0.09886	-0.107
Mof_C 	C 	0.1282	0.822	0.12362	0.05
Mof_C 	C 	0.1602	0.8003	0.14888	-0.111
Mof_C 	C 	0.2135	0.7516	0.14905	0.057
Mof_C 	C 	0.4621	0.7207	0.0928	0.049
Mof_C 	C 	0.5071	0.7729	0.0999	-0.104
Mof_C 	C 	0.5844	0.7717	0.11582	0.04
Mof_C 	C 	0.6133	0.7156	0.1238	-0.104
Mof_C 	C 	0.5653	0.6643	0.117	0.043
Mof_C 	C 	0.2264	0.1725	0.97918	0.034
Mof_C 	C 	0.1687	0.1696	0.00134	-0.084
Mof_C 	C 	0.1046	0.1235	0.00339	-0.008
Mof_C 	C 	0.1052	0.0799	0.98249	-0.008
Mof_C 	C 	0.165	0.0831	0.9608	0.013
Mof_C 	C 	0.4354	0.9606	0.9594	0.051
Mof_C 	C 	0.4969	0.9589	0.9806	-0.103
Mof_C 	C 	0.5276	0.0105	0.99424	0.035
Mof_C 	C 	0.4963	0.0646	0.98398	-0.105
Mof_C 	C 	0.4345	0.0649	0.96294	0.043
Mof_C 	C 	0.1348	0.5994	0.18131	0.033
Mof_C 	C 	0.0888	0.6103	0.20558	-0.093
Mof_C 	C 	0.125	0.5978	0.23177	0.029
Mof_C 	C 	0.2084	0.5731	0.23184	-0.101
Mof_C 	C 	0.2542	0.5645	0.20726	0.044
Mof_C 	C 	0.079	0.631	0.30764	0.073
Mof_C 	C 	0.1235	0.6242	0.28269	-0.119
Mof_C 	C 	0.0776	0.6087	0.25829	0.062
Mof_C 	C 	0.9859	0.6011	0.26036	-0.129
Mof_C 	C 	0.9431	0.6098	0.28555	0.053
Mof_C 	C 	0.997	0.4291	0.39864	0.023
Mof_C 	C 	0.048	0.3802	0.40255	-0.09
Mof_C 	C 	0.0859	0.3517	0.37963	0.031
Mof_C 	C 	0.0683	0.3738	0.35295	-0.104
Mof_C 	C 	0.0179	0.4234	0.34976	0.054
Mof_C 	C 	0.9767	0.5103	0.47081	0.033
Mof_C 	C 	0.0315	0.5141	0.49376	-0.099
Mof_C 	C 	0.0975	0.5582	0.49607	0.042
Mof_C 	C 	0.1018	0.5998	0.47428	-0.114
Mof_C 	C 	0.0468	0.5954	0.45134	0.063
Mof_C 	C 	0.6448	0.5135	0.37647	0.051
Mof_C 	C 	0.5948	0.4628	0.3698	-0.114
Mof_C 	C 	0.6168	0.4078	0.38122	0.042
Mof_C 	C 	0.6894	0.4064	0.39904	-0.113
Mof_C 	C 	0.7374	0.4578	0.40563	0.047
Mof_C 	C 	0.7795	0.7175	0.4537	0.044
Mof_C 	C 	0.7222	0.7215	0.47594	-0.109
Mof_C 	C 	0.6924	0.6701	0.48995	0.039
Mof_C 	C 	0.7224	0.6155	0.48009	-0.106
Mof_C 	C 	0.7799	0.6132	0.45766	0.043
Mof_C 	C 	0.5898	0.6361	0.56045	0.042
Mof_C 	C 	0.6443	0.6349	0.53742	-0.11
Mof_C 	C 	0.6308	0.6714	0.51428	0.043
Mof_C 	C 	0.5585	0.7084	0.51534	-0.114
Mof_C 	C 	0.5044	0.7083	0.53853	0.045
Mof_C 	C 	0.2868	0.6073	0.54258	0.049
Mof_C 	C 	0.2178	0.6092	0.52396	-0.105
Mof_C 	C 	0.1633	0.559	0.5187	0.042
Mof_C 	C 	0.1811	0.508	0.53438	-0.107
Mof_C 	C 	0.2512	0.5071	0.55258	0.047
Mof_C 	C 	0.5525	0.2447	0.3697	0.044
Mof_C 	C 	0.6031	0.2951	0.3756	-0.1
Mof_C 	C 	0.5653	0.3512	0.3752	0.04
Mof_C 	C 	0.4752	0.3528	0.3693	-0.106
Mof_C 	C 	0.4264	0.3014	0.3638	0.054
Mof_C 	C 	0.1759	0.1975	0.37043	0.054
Mof_C 	C 	0.129	0.2482	0.36544	-0.115
Mof_C 	C 	0.1405	0.2977	0.3831	0.046
Mof_C 	C 	0.2033	0.2955	0.4044	-0.117
Mof_C 	C 	0.2496	0.2443	0.40869	0.054
Mof_C 	C 	0.4801	0.1365	0.3022	0.045
Mof_C 	C 	0.5385	0.1408	0.2802	-0.103
Mof_C 	C 	0.5626	0.09	0.26529	0.044
Mof_C 	C 	0.526	0.0355	0.27434	-0.115
Mof_C 	C 	0.4675	0.0329	0.29639	0.047
Mof_N 	N 	0.697	0.5078	0.93462	-0.068
Mof_N 	N 	0.8972	0.6247	0.93684	-0.069
Mof_N 	N 	0.7474	0.597	0.80163	-0.065
Mof_N 	N 	0.727	0.4302	0.85962	-0.062
Mof_N 	N 	0.9769	0.478	0.88065	-0.059
Mof_N 	N 	0.2402	0.2279	0.87548	-0.058
Mof_N 	N 	0.4895	0.1671	0.89786	-0.062
Mof_N 	N 	0.2232	0.6301	0.04103	-0.059
Mof_N 	N 	0.4052	0.5138	0.04938	-0.06
Mof_N 	N 	0.2178	0.0795	0.81762	-0.052
Mof_N 	N 	0.9898	0.1257	0.69123	-0.061
Mof_N 	N 	0.9839	0.9505	0.62755	-0.06
Mof_N 	N 	0.9849	0.0502	0.55039	-0.069
Mof_N 	N 	0.7136	0.0105	0.60567	-0.065
Mof_N 	N 	0.8073	0.1638	0.55533	-0.059
Mof_N 	N 	0.5197	0.1723	0.43929	-0.065
Mof_N 	N 	0.3052	0.0558	0.44418	-0.062
Mof_N 	N 	0.4649	0.7477	0.63569	-0.063
Mof_N 	N 	0.2324	0.6963	0.60789	-0.063
Mof_N 	N 	0.4435	0.583	0.69014	-0.059
Mof_N 	N 	0.697	0.0078	0.06538	-0.07
Mof_N 	N 	0.8972	0.1247	0.06316	-0.069
Mof_N 	N 	0.7474	0.097	0.19837	-0.065
Mof_N 	N 	0.727	0.9302	0.14038	-0.062
Mof_N 	N 	0.9769	0.978	0.11935	-0.059
Mof_N 	N 	0.2402	0.7279	0.12452	-0.057
Mof_N 	N 	0.4895	0.6671	0.10214	-0.062
Mof_N 	N 	0.2232	0.1301	0.95897	-0.059
Mof_N 	N 	0.4052	0.0138	0.95062	-0.062
Mof_N 	N 	0.2178	0.5795	0.18238	-0.052
Mof_N 	N 	0.9898	0.6257	0.30877	-0.061
Mof_N 	N 	0.9839	0.4505	0.37245	-0.06
Mof_N 	N 	0.9849	0.5502	0.44961	-0.07
Mof_N 	N 	0.7136	0.5105	0.39433	-0.064
Mof_N 	N 	0.8073	0.6638	0.44467	-0.059
Mof_N 	N 	0.5197	0.6723	0.56071	-0.065
Mof_N 	N 	0.3052	0.5558	0.55582	-0.062
Mof_N 	N 	0.4649	0.2477	0.36431	-0.063
Mof_N 	N 	0.2324	0.1963	0.39211	-0.064
Mof_N 	N 	0.4435	0.083	0.30986	-0.058
Mof_Cl	Cl	0.6135	0.58745	0.86293	-0.524
Mof_Cl	Cl	0.1103	0.10765	0.89306	-0.507
Mof_Cl	Cl	0.5869	0.09102	0.36677	-0.554
Mof_Cl	Cl	0.6135	0.08745	0.13707	-0.525
Mof_Cl	Cl	0.1103	0.60765	0.10694	-0.507
Mof_Cl	Cl	0.5869	0.59102	0.63323	-0.553
Mof_O 	O 	0.761	0.6941	0.87505	-0.49
Mof_O 	O 	0.9362	0.6416	0.86139	-0.346
Mof_O 	O 	0.4108	0.0149	0.86881	-0.584
Mof_O 	O 	0.2129	0.9763	0.89003	-0.32
Mof_O 	O 	0.9695	0.2097	0.62045	-0.568
Mof_O 	O 	0.7937	0.0563	0.65952	-0.287
Mof_O 	O 	0.0683	0.1062	0.61518	-0.572
Mof_O 	O 	0.7741	0.1697	0.63482	-0.589
Mof_O 	O 	0.2628	0.0347	0.36966	-0.556
Mof_O 	O 	0.4408	0.9829	0.37952	-0.535
Mof_O 	O 	0.7473	0.5049	0.91141	-0.299
Mof_O 	O 	0.828	0.6275	0.91904	-0.339
Mof_O 	O 	0.8093	0.5997	0.82248	-0.333
Mof_O 	O 	0.7748	0.4794	0.85216	-0.322
Mof_O 	O 	0.9328	0.5294	0.88396	-0.342
Mof_O 	O 	0.297	0.1849	0.87503	-0.32
Mof_O 	O 	0.442	0.1176	0.90396	-0.344
Mof_O 	O 	0.2778	0.6385	0.06299	-0.304
Mof_O 	O 	0.343	0.5133	0.06937	-0.322
Mof_O 	O 	0.2643	0.069	0.84115	-0.344
Mof_O 	O 	0.95	0.1338	0.66617	-0.336
Mof_O 	O 	0.9337	0.9988	0.63126	-0.34
Mof_O 	O 	0.9362	0.0428	0.57351	-0.291
Mof_O 	O 	0.7596	0.0606	0.59936	-0.339
Mof_O 	O 	0.8639	0.1627	0.57645	-0.322
Mof_O 	O 	0.4672	0.1737	0.4173	-0.294
Mof_O 	O 	0.376	0.0537	0.42763	-0.344
Mof_O 	O 	0.4143	0.6986	0.64126	-0.313
Mof_O 	O 	0.2744	0.6458	0.60224	-0.333
Mof_O 	O 	0.3872	0.5786	0.66891	-0.349
Mof_O 	O 	0.761	0.1941	0.12495	-0.49
Mof_O 	O 	0.9362	0.1416	0.13861	-0.346
Mof_O 	O 	0.4108	0.5149	0.13119	-0.58
Mof_O 	O 	0.2129	0.4763	0.10997	-0.323
Mof_O 	O 	0.9695	0.7097	0.37955	-0.569
Mof_O 	O 	0.7937	0.5563	0.34048	-0.289
Mof_O 	O 	0.0683	0.6062	0.38482	-0.571
Mof_O 	O 	0.7741	0.6697	0.36518	-0.589
Mof_O 	O 	0.2628	0.5347	0.63034	-0.563
Mof_O 	O 	0.4408	0.4829	0.62048	-0.537
Mof_O 	O 	0.7473	0.0049	0.08859	-0.301
Mof_O 	O 	0.828	0.1275	0.08096	-0.339
Mof_O 	O 	0.8093	0.0997	0.17752	-0.333
Mof_O 	O 	0.7748	0.9794	0.14784	-0.318
Mof_O 	O 	0.9328	0.0294	0.11604	-0.345
Mof_O 	O 	0.297	0.6849	0.12497	-0.32
Mof_O 	O 	0.442	0.6176	0.09604	-0.344
Mof_O 	O 	0.2778	0.1385	0.93701	-0.304
Mof_O 	O 	0.343	0.0133	0.93063	-0.323
Mof_O 	O 	0.2643	0.569	0.15885	-0.343
Mof_O 	O 	0.95	0.6338	0.33383	-0.336
Mof_O 	O 	0.9337	0.4988	0.36874	-0.343
Mof_O 	O 	0.9362	0.5428	0.42649	-0.29
Mof_O 	O 	0.7596	0.5606	0.40064	-0.339
Mof_O 	O 	0.8639	0.6627	0.42355	-0.322
Mof_O 	O 	0.4672	0.6737	0.5827	-0.294
Mof_O 	O 	0.376	0.5537	0.57237	-0.343
Mof_O 	O 	0.4143	0.1986	0.35874	-0.313
Mof_O 	O 	0.2744	0.1458	0.39776	-0.333
Mof_O 	O 	0.3872	0.0786	0.33109	-0.35
Mof_B 	B 	0.6726	0.9242	0.4838	1.219
Mof_H 	H 	0.8549	0.9017	0.4958	-0.089
Mof_H 	H 	0.9236	0.837	0.5268	0.14
Mof_H 	H 	0.8378	0.7767	0.5567	-0.048
Mof_H 	H 	0.6846	0.7816	0.5561	0.142
Mof_H 	H 	0.6167	0.8459	0.5248	-0.083
Mof_H 	H 	0.816	0.0018	0.4968	-0.09
Mof_H 	H 	0.9024	0.0703	0.4706	0.142
Mof_H 	H 	0.8672	0.0877	0.4237	-0.052
Mof_H 	H 	0.7517	0.0335	0.4024	0.162
Mof_H 	H 	0.6702	0.9626	0.4283	-0.089
Mof_H 	H 	0.7211	0.8578	0.438	-0.098
Mof_H 	H 	0.6448	0.795	0.4067	0.142
Mof_H 	H 	0.497	0.7689	0.4147	-0.054
Mof_H 	H 	0.4267	0.8042	0.4548	0.148
Mof_H 	H 	0.4998	0.8747	0.4833	-0.094
Mof_H 	H 	0.5448	0.0009	0.467	-0.081
Mof_H 	H 	0.4598	0.0725	0.4889	0.142
Mof_H 	H 	0.4574	0.0774	0.5377	-0.046
Mof_H 	H 	0.5476	0.0174	0.5643	0.139
Mof_H 	H 	0.6401	0.9505	0.5419	-0.075
Mof_C 	C 	0.7276	0.882	0.50651	-0.559
Mof_C 	C 	0.8191	0.8774	0.50797	0.32
Mof_C 	C 	0.861	0.8387	0.52649	-0.322
Mof_C 	C 	0.8101	0.8032	0.54417	0.229
Mof_C 	C 	0.7196	0.8059	0.54377	-0.32
Mof_C 	C 	0.6794	0.8448	0.52498	0.309
Mof_C 	C 	0.7351	0.9722	0.46547	-0.579
Mof_C 	C 	0.8034	0.0068	0.47737	0.318
Mof_C 	C 	0.8544	0.0489	0.46195	-0.334
Mof_C 	C 	0.834	0.0587	0.43416	0.241
Mof_C 	C 	0.7658	0.0268	0.42151	-0.349
Mof_C 	C 	0.7174	0.9843	0.43726	0.335
Mof_C 	C 	0.6182	0.8777	0.4633	-0.6
Mof_C 	C 	0.6597	0.8498	0.44085	0.339
Mof_C 	C 	0.615	0.8106	0.42246	-0.342
Mof_C 	C 	0.528	0.7949	0.42734	0.246
Mof_C 	C 	0.4857	0.817	0.45053	-0.342
Mof_C 	C 	0.5305	0.8587	0.46782	0.341
Mof_C 	C 	0.6042	0.968	0.50165	-0.542
Mof_C 	C 	0.5476	0.0047	0.48682	0.295
Mof_C 	C 	0.4948	0.0468	0.49982	-0.313
Mof_C 	C 	0.4946	0.0502	0.5286	0.219
Mof_C 	C 	0.5478	0.0147	0.54435	-0.313
Mof_C 	C 	0.6028	0.9743	0.5308	0.31
Mof_B 	B 	0.1498	0.3072	0.5189	1.226
Mof_H 	H 	0.2971	0.2499	0.4989	-0.087
Mof_H 	H 	0.3864	0.1753	0.5171	0.135
Mof_H 	H 	0.3596	0.1382	0.5618	-0.048
Mof_H 	H 	0.243	0.172	0.5885	0.134
Mof_H 	H 	0.155	0.2472	0.5704	-0.085
Mof_H 	H 	0.3177	0.3621	0.5226	-0.086
Mof_H 	H 	0.3867	0.4454	0.501	0.144
Mof_H 	H 	0.3142	0.4945	0.4653	-0.045
Mof_H 	H 	0.1758	0.4603	0.4501	0.139
Mof_H 	H 	0.1037	0.3809	0.4736	-0.088
Mof_H 	H 	0.1518	0.2779	0.4617	-0.092
Mof_H 	H 	0.0635	0.2153	0.4333	0.149
Mof_H 	H 	0.9384	0.1675	0.452	-0.058
Mof_H 	H 	0.9063	0.1768	0.4995	0.157
Mof_H 	H 	0.997	0.2372	0.5281	-0.105
Mof_H 	H 	0.9761	0.3471	0.524	-0.117
Mof_H 	H 	0.9074	0.4111	0.5556	0.17
Mof_H 	H 	0.986	0.4475	0.5942	-0.079
Mof_H 	H 	0.1292	0.4184	0.6024	0.16
Mof_H 	H 	0.2001	0.359	0.5694	-0.098
Mof_C 	C 	0.2173	0.2581	0.53298	-0.567
Mof_C 	C 	0.286	0.235	0.5173	0.307
Mof_C 	C 	0.3394	0.1901	0.52807	-0.322
Mof_C 	C 	0.323	0.168	0.55441	0.227
Mof_C 	C 	0.2547	0.1882	0.57039	-0.322
Mof_C 	C 	0.2024	0.2332	0.55939	0.316
Mof_C 	C 	0.203	0.3612	0.50041	-0.554
Mof_C 	C 	0.2874	0.3822	0.50809	0.311
Mof_C 	C 	0.3294	0.4319	0.4952	-0.316
Mof_C 	C 	0.2865	0.4607	0.474	0.231
Mof_C 	C 	0.2041	0.4412	0.4653	-0.321
Mof_C 	C 	0.1621	0.3927	0.47904	0.315
Mof_C 	C 	0.084	0.2663	0.49818	-0.594
Mof_C 	C 	0.1018	0.2577	0.46973	0.337
Mof_C 	C 	0.0489	0.2205	0.45257	-0.336
Mof_C 	C 	0.9758	0.1917	0.46372	0.246
Mof_C 	C 	0.9564	0.1975	0.49169	-0.361
Mof_C 	C 	0.0106	0.2341	0.5087	0.367
Mof_C 	C 	0.0965	0.3463	0.54255	-0.609
Mof_C 	C 	0.009	0.3624	0.5396	0.391
Mof_C 	C 	0.9668	0.4003	0.55856	-0.411
Mof_C 	C 	0.0133	0.4213	0.58138	0.315
Mof_C 	C 	0.0986	0.4052	0.58607	-0.379
Mof_C 	C 	0.1402	0.3688	0.56642	0.355
Mof_B 	B 	0.9082	0.2223	0.2938	1.305
Mof_H 	H 	0.7447	0.2671	0.2828	-0.101
Mof_H 	H 	0.6786	0.3102	0.2439	0.146
Mof_H 	H 	0.7623	0.3289	0.2036	-0.061
Mof_H 	H 	0.9093	0.3027	0.202	0.142
Mof_H 	H 	0.9718	0.2535	0.2399	-0.102
Mof_H 	H 	0.8401	0.3319	0.3111	-0.107
Mof_H 	H 	0.8186	0.3741	0.355	0.156
Mof_H 	H 	0.8478	0.3208	0.3957	-0.062
Mof_H 	H 	0.8926	0.2221	0.392	0.153
Mof_H 	H 	0.9222	0.183	0.3479	-0.106
Mof_H 	H 	0.7683	0.156	0.3204	-0.072
Mof_H 	H 	0.7014	0.0618	0.3128	0.156
Mof_H 	H 	0.7595	0.9983	0.2795	-0.038
Mof_H 	H 	0.8796	0.0298	0.2521	0.136
Mof_H 	H 	0.9436	0.125	0.2591	-0.085
Mof_H 	H 	0.0383	0.1353	0.303	-0.097
Mof_H 	H 	0.1917	0.143	0.3069	0.15
Mof_H 	H 	0.2653	0.2344	0.2992	-0.058
Mof_H 	H 	0.1849	0.3181	0.2881	0.154
Mof_H 	H 	0.0317	0.3099	0.2847	-0.099
Mof_C 	C 	0.8674	0.2568	0.26664	-0.627
Mof_C 	C 	0.7792	0.2737	0.2664	0.355
Mof_C 	C 	0.739	0.2999	0.2432	-0.356
Mof_C 	C 	0.7882	0.3105	0.2194	0.258
Mof_C 	C 	0.875	0.2946	0.2184	-0.357
Mof_C 	C 	0.9128	0.2665	0.24146	0.361
Mof_C 	C 	0.8834	0.2514	0.32384	-0.649
Mof_C 	C 	0.8525	0.3091	0.32739	0.376
Mof_C 	C 	0.8392	0.3346	0.35374	-0.367
Mof_C 	C 	0.8557	0.3031	0.37778	0.27
Mof_C 	C 	0.8839	0.2454	0.37561	-0.366
Mof_C 	C 	0.8993	0.2219	0.34897	0.377
Mof_C 	C 	0.864	0.1519	0.2906	-0.559
Mof_C 	C 	0.7915	0.131	0.3063	0.317
Mof_C 	C 	0.7515	0.0743	0.302	-0.314
Mof_C 	C 	0.7855	0.0371	0.2821	0.218
Mof_C 	C 	0.8566	0.0554	0.266	-0.31
Mof_C 	C 	0.8947	0.1125	0.2704	0.316
Mof_C 	C 	0.0156	0.2216	0.2934	-0.626
Mof_C 	C 	0.0672	0.173	0.2999	0.365
Mof_C 	C 	0.1594	0.1772	0.3023	-0.36
Mof_C 	C 	0.2027	0.2312	0.2978	0.263
Mof_C 	C 	0.1553	0.2807	0.2912	-0.359
Mof_C 	C 	0.0634	0.2753	0.2892	0.357
Mof_B 	B 	0.0716	0.3715	0.0133	1.283
Mof_H 	H 	0.8973	0.3199	0.0151	-0.09
Mof_H 	H 	0.8291	0.2388	0.9922	0.146
Mof_H 	H 	0.9052	0.1887	0.9575	-0.041
Mof_H 	H 	0.0506	0.217	0.9468	0.15
Mof_H 	H 	0.1187	0.2977	0.9703	-0.091
Mof_H 	H 	0.925	0.4327	0.9942	-0.092
Mof_H 	H 	0.8387	0.5072	0.0129	0.143
Mof_H 	H 	0.8752	0.5482	0.0565	-0.053
Mof_H 	H 	0.988	0.5084	0.0832	0.166
Mof_H 	H 	0.071	0.4321	0.0647	-0.09
Mof_H 	H 	0.0172	0.3179	0.0633	-0.093
Mof_H 	H 	0.0856	0.2578	0.0961	0.149
Mof_H 	H 	0.236	0.2412	0.0927	-0.055
Mof_H 	H 	0.3155	0.2771	0.054	0.151
Mof_H 	H 	0.2457	0.3348	0.0205	-0.099
Mof_H 	H 	0.2216	0.445	0.0229	-0.097
Mof_H 	H 	0.3086	0.5063	0.9935	0.158
Mof_H 	H 	0.2708	0.5179	0.9468	-0.061
Mof_H 	H 	0.1521	0.4622	0.9277	0.159
Mof_H 	H 	0.0668	0.4004	0.9572	-0.098
Mof_C 	C 	0.016	0.3195	0.99538	-0.579
Mof_C 	C 	0.9295	0.2995	0.0012	0.318
Mof_C 	C 	0.8879	0.251	0.9875	-0.321
Mof_C 	C 	0.9333	0.2211	0.9671	0.215
Mof_C 	C 	0.019	0.238	0.9607	-0.306
Mof_C 	C 	0.0593	0.2866	0.9748	0.317
Mof_C 	C 	0.0053	0.4209	0.02775	-0.578
Mof_C 	C 	0.9374	0.4468	0.01267	0.318
Mof_C 	C 	0.8867	0.4925	0.02341	-0.341
Mof_C 	C 	0.9075	0.516	0.04936	0.254
Mof_C 	C 	0.9748	0.493	0.06501	-0.36
Mof_C 	C 	0.0235	0.4467	0.05392	0.353
Mof_C 	C 	0.1237	0.3353	0.03801	-0.611
Mof_C 	C 	0.0782	0.3103	0.06109	0.342
Mof_C 	C 	0.1191	0.2746	0.081	-0.346
Mof_C 	C 	0.2076	0.2637	0.0787	0.252
Mof_C 	C 	0.2548	0.2856	0.0561	-0.353
Mof_C 	C 	0.2123	0.3205	0.03615	0.35
Mof_C 	C 	0.136	0.4125	0.99314	-0.631
Mof_C 	C 	0.2074	0.4471	0.00347	0.363
Mof_C 	C 	0.2587	0.485	0.98604	-0.361
Mof_C 	C 	0.237	0.4912	0.9583	0.268
Mof_C 	C 	0.1665	0.459	0.94702	-0.363
Mof_C 	C 	0.1168	0.4213	0.96485	0.363
Mof_B 	B 	0.5527	0.7565	0.9835	1.247
Mof_H 	H 	0.4046	0.6839	0.9946	-0.098
Mof_H 	H 	0.3191	0.6161	0.968	0.152
Mof_H 	H 	0.352	0.6031	0.9207	-0.057
Mof_H 	H 	0.4731	0.6533	0.9007	0.17
Mof_H 	H 	0.5579	0.7212	0.9275	-0.091
Mof_H 	H 	0.3731	0.7836	0.9948	-0.095
Mof_H 	H 	0.3069	0.8453	0.0277	0.146
Mof_H 	H 	0.3951	0.9018	0.0585	-0.05
Mof_H 	H 	0.5483	0.8963	0.0567	0.149
Mof_H 	H 	0.613	0.8317	0.0248	-0.091
Mof_H 	H 	0.5849	0.7237	0.0407	-0.076
Mof_H 	H 	0.6789	0.6555	0.0615	0.138
Mof_H 	H 	0.7627	0.5945	0.0332	-0.045
Mof_H 	H 	0.7677	0.6097	0.985	0.142
Mof_H 	H 	0.6791	0.6813	0.9643	-0.075
Mof_H 	H 	0.7279	0.8053	0.9837	-0.094
Mof_H 	H 	0.8003	0.88	0.9575	0.148
Mof_H 	H 	0.7264	0.9261	0.9209	-0.052
Mof_H 	H 	0.5814	0.8964	0.9105	0.144
Mof_H 	H 	0.5062	0.8265	0.9387	-0.094
Mof_C 	C 	0.4899	0.7122	0.96418	-0.617
Mof_C 	C 	0.4188	0.6787	0.97535	0.348
Mof_C 	C 	0.3672	0.6378	0.95958	-0.357
Mof_C 	C 	0.3874	0.6298	0.93178	0.263
Mof_C 	C 	0.4584	0.6599	0.91979	-0.36
Mof_C 	C 	0.5089	0.7006	0.936	0.352
Mof_C 	C 	0.501	0.7982	0.0065	-0.589
Mof_C 	C 	0.4097	0.8053	0.0077	0.337
Mof_C 	C 	0.3694	0.8429	0.0271	-0.334
Mof_C 	C 	0.4217	0.8763	0.0453	0.238
Mof_C 	C 	0.5121	0.8727	0.0444	-0.335
Mof_C 	C 	0.5504	0.8339	0.0252	0.331
Mof_C 	C 	0.622	0.711	0.00021	-0.551
Mof_C 	C 	0.6227	0.7013	0.0291	0.309
Mof_C 	C 	0.6773	0.6595	0.04164	-0.311
Mof_C 	C 	0.7285	0.6246	0.02496	0.218
Mof_C 	C 	0.7305	0.633	0.99642	-0.31
Mof_C 	C 	0.6774	0.6759	0.98411	0.299
Mof_C 	C 	0.6086	0.8064	0.96442	-0.588
Mof_C 	C 	0.6965	0.8242	0.9691	0.344
Mof_C 	C 	0.7407	0.8687	0.9534	-0.342
Mof_C 	C 	0.6971	0.8958	0.9317	0.244
Mof_C 	C 	0.611	0.8789	0.9258	-0.334
Mof_C 	C 	0.5668	0.836	0.9425	0.331
Mof_B 	B 	0.7537	0.1698	0.797	1.238
Mof_H 	H 	0.7679	0.126	0.8504	-0.099
Mof_H 	H 	0.853	0.1506	0.8897	0.151
Mof_H 	H 	0.9554	0.2304	0.8873	-0.049
Mof_H 	H 	0.9571	0.2928	0.8483	0.147
Mof_H 	H 	0.8751	0.2658	0.8086	-0.096
Mof_H 	H 	0.8761	0.0816	0.8132	-0.085
Mof_H 	H 	0.9094	0.9879	0.7953	0.147
Mof_H 	H 	0.8214	0.9447	0.7603	-0.056
Mof_H 	H 	0.6966	0.9925	0.7445	0.144
Mof_H 	H 	0.6708	0.0898	0.7597	-0.086
Mof_H 	H 	0.6115	0.0909	0.8145	-0.088
Mof_H 	H 	0.4673	0.1064	0.8292	0.119
Mof_H 	H 	0.4103	0.2018	0.8261	-0.043
Mof_H 	H 	0.504	0.2821	0.8145	0.142
Mof_H 	H 	0.6498	0.2672	0.8017	-0.085
Mof_H 	H 	0.6559	0.2251	0.7543	-0.09
Mof_H 	H 	0.6954	0.2758	0.7132	0.141
Mof_H 	H 	0.8442	0.294	0.7026	-0.043
Mof_H 	H 	0.9527	0.2552	0.7314	0.163
Mof_H 	H 	0.9122	0.2028	0.7719	-0.095
Mof_C 	C 	0.8142	0.1904	0.82402	-0.609
Mof_C 	C 	0.8085	0.1592	0.8492	0.347
Mof_C 	C 	0.859	0.1737	0.873	-0.345
Mof_C 	C 	0.9174	0.2218	0.8719	0.259
Mof_C 	C 	0.9209	0.2574	0.8485	-0.351
Mof_C 	C 	0.8707	0.2412	0.8248	0.346
Mof_C 	C 	0.7717	0.0979	0.7878	-0.546
Mof_C 	C 	0.841	0.065	0.7985	0.317
Mof_C 	C 	0.8603	0.0084	0.7882	-0.347
Mof_C 	C 	0.8076	0.9827	0.7677	0.251
Mof_C 	C 	0.7352	0.0114	0.7577	-0.341
Mof_C 	C 	0.7191	0.0693	0.7674	0.314
Mof_C 	C 	0.6495	0.1769	0.8063	-0.575
Mof_C 	C 	0.5909	0.1305	0.8146	0.313
Mof_C 	C 	0.5035	0.1392	0.8229	-0.315
Mof_C 	C 	0.4706	0.1956	0.8218	0.226
Mof_C 	C 	0.5256	0.2428	0.8144	-0.317
Mof_C 	C 	0.6132	0.2336	0.8068	0.317
Mof_C 	C 	0.779	0.2083	0.76846	-0.591
Mof_C 	C 	0.7169	0.231	0.7499	0.34
Mof_C 	C 	0.74	0.2618	0.7253	-0.338
Mof_C 	C 	0.8278	0.2717	0.7189	0.25
Mof_C 	C 	0.892	0.2494	0.736	-0.339
Mof_C 	C 	0.867	0.2181	0.7603	0.34
Mof_B 	B 	0.3423	0.9227	0.2078	1.32
Mof_H 	H 	0.2888	0.015	0.1726	-0.106
Mof_H 	H 	0.2762	0.0237	0.1241	0.153
Mof_H 	H 	0.3138	0.9452	0.095	-0.06
Mof_H 	H 	0.3576	0.8558	0.1148	0.157
Mof_H 	H 	0.3729	0.8484	0.1633	-0.107
Mof_H 	H 	0.4154	0.0318	0.2038	-0.092
Mof_H 	H 	0.3985	0.1228	0.2268	0.151
Mof_H 	H 	0.3015	0.1293	0.2642	-0.057
Mof_H 	H 	0.2117	0.0472	0.2768	0.154
Mof_H 	H 	0.2343	0.9554	0.2551	-0.099
Mof_H 	H 	0.1573	0.9157	0.2127	-0.086
Mof_H 	H 	0.0518	0.8411	0.2236	0.142
Mof_H 	H 	0.0961	0.7437	0.2313	-0.042
Mof_H 	H 	0.2451	0.7229	0.2294	0.141
Mof_H 	H 	0.351	0.7981	0.22	-0.083
Mof_H 	H 	0.4133	0.8787	0.2569	-0.1
Mof_H 	H 	0.5546	0.8518	0.2707	0.146
Mof_H 	H 	0.6733	0.8679	0.2401	-0.057
Mof_H 	H 	0.6488	0.9012	0.1947	0.159
Mof_H 	H 	0.5055	0.9212	0.1801	-0.093
Mof_C 	C 	0.3322	0.9303	0.17427	-0.658
Mof_C 	C 	0.3037	0.9821	0.1611	0.387
Mof_C 	C 	0.2961	0.9877	0.132	-0.362
Mof_C 	C 	0.3176	0.9411	0.1148	0.273
Mof_C 	C 	0.3445	0.8887	0.12642	-0.37
Mof_C 	C 	0.3525	0.8846	0.15563	0.383
Mof_C 	C 	0.3216	0.983	0.2253	-0.632
Mof_C 	C 	0.373	0.0341	0.2185	0.344
Mof_C 	C 	0.3642	0.0887	0.2325	-0.345
Mof_C 	C 	0.306	0.0926	0.2544	0.27
Mof_C 	C 	0.2544	0.0441	0.2623	-0.365
Mof_C 	C 	0.2662	0.9897	0.2484	0.382
Mof_C 	C 	0.2671	0.867	0.2159	-0.557
Mof_C 	C 	0.1766	0.8767	0.2166	0.319
Mof_C 	C 	0.1125	0.832	0.2227	-0.32
Mof_C 	C 	0.1388	0.7746	0.2274	0.231
Mof_C 	C 	0.2269	0.7624	0.2263	-0.318
Mof_C 	C 	0.2904	0.8078	0.2206	0.315
Mof_C 	C 	0.442	0.9034	0.21689	-0.63
Mof_C 	C 	0.4605	0.8827	0.24378	0.359
Mof_C 	C 	0.5454	0.8676	0.25248	-0.357
Mof_C 	C 	0.615	0.876	0.23417	0.26
Mof_C 	C 	0.6007	0.896	0.2074	-0.36
Mof_C 	C 	0.5147	0.9086	0.19884	0.359
Mof_B 	B 	0.3567	0.9759	0.6984	1.224
Mof_H 	H 	0.1746	0.9941	0.6869	-0.082
Mof_H 	H 	0.0448	0.9752	0.7123	0.141
Mof_H 	H 	0.0487	0.9224	0.754	-0.046
Mof_H 	H 	0.1843	0.8975	0.7734	0.138
Mof_H 	H 	0.3132	0.9144	0.7473	-0.083
Mof_H 	H 	0.2552	0.9195	0.656	-0.09
Mof_H 	H 	0.2512	0.9276	0.6073	0.144
Mof_H 	H 	0.3397	0.0004	0.5849	-0.059
Mof_H 	H 	0.4319	0.0636	0.6114	0.14
Mof_H 	H 	0.4318	0.0571	0.6603	-0.088
Mof_H 	H 	0.3259	0.0963	0.6913	-0.093
Mof_H 	H 	0.3599	0.181	0.7184	0.141
Mof_H 	H 	0.4442	0.1731	0.7588	-0.048
Mof_H 	H 	0.4982	0.0813	0.7721	0.139
Mof_H 	H 	0.4632	0.9967	0.7451	-0.088
Mof_H 	H 	0.5394	0.9721	0.6986	-0.083
Mof_H 	H 	0.6415	0.8963	0.6986	0.13
Mof_H 	H 	0.5918	0.7972	0.7023	-0.045
Mof_H 	H 	0.4416	0.7735	0.7038	0.138
Mof_H 	H 	0.3396	0.8495	0.7049	-0.085
Mof_C 	C 	0.2604	0.9567	0.71403	-0.555
Mof_C 	C 	0.1778	0.9738	0.7043	0.312
Mof_C 	C 	0.0995	0.9622	0.7194	-0.321
Mof_C 	C 	0.1021	0.9322	0.7444	0.229
Mof_C 	C 	0.1817	0.916	0.7555	-0.32
Mof_C 	C 	0.2588	0.9274	0.7398	0.308
Mof_C 	C 	0.3467	0.9855	0.6642	-0.579
Mof_C 	C 	0.2921	0.9491	0.64715	0.332
Mof_C 	C 	0.2889	0.9537	0.61797	-0.341
Mof_C 	C 	0.3411	0.9968	0.6048	0.249
Mof_C 	C 	0.3951	0.0343	0.62043	-0.341
Mof_C 	C 	0.3961	0.0295	0.64977	0.321
Mof_C 	C 	0.3906	0.0361	0.7151	-0.596
Mof_C 	C 	0.3608	0.0924	0.7077	0.33
Mof_C 	C 	0.381	0.1433	0.7239	-0.333
Mof_C 	C 	0.4312	0.1386	0.7478	0.237
Mof_C 	C 	0.4627	0.0846	0.7557	-0.329
Mof_C 	C 	0.4416	0.034	0.7393	0.329
Mof_C 	C 	0.4272	0.9202	0.7015	-0.549
Mof_C 	C 	0.5184	0.9318	0.6998	0.303
Mof_C 	C 	0.5801	0.8867	0.6999	-0.312
Mof_C 	C 	0.5505	0.8281	0.7019	0.221
Mof_C 	C 	0.4618	0.8141	0.7031	-0.311
Mof_C 	C 	0.4008	0.8598	0.7034	0.31
Mof_B 	B 	0.6726	0.4242	0.5162	1.22
Mof_H 	H 	0.8549	0.4017	0.5042	-0.09
Mof_H 	H 	0.9236	0.337	0.4732	0.14
Mof_H 	H 	0.8378	0.2767	0.4433	-0.049
Mof_H 	H 	0.6846	0.2816	0.4439	0.142
Mof_H 	H 	0.6167	0.3459	0.4752	-0.084
Mof_H 	H 	0.816	0.5018	0.5032	-0.09
Mof_H 	H 	0.9024	0.5703	0.5294	0.142
Mof_H 	H 	0.8672	0.5877	0.5763	-0.05
Mof_H 	H 	0.7517	0.5335	0.5976	0.16
Mof_H 	H 	0.6702	0.4626	0.5717	-0.088
Mof_H 	H 	0.7211	0.3578	0.562	-0.098
Mof_H 	H 	0.6448	0.295	0.5933	0.142
Mof_H 	H 	0.497	0.2689	0.5853	-0.054
Mof_H 	H 	0.4267	0.3042	0.5452	0.148
Mof_H 	H 	0.4998	0.3747	0.5167	-0.094
Mof_H 	H 	0.5448	0.5009	0.533	-0.081
Mof_H 	H 	0.4598	0.5725	0.5111	0.142
Mof_H 	H 	0.4574	0.5774	0.4623	-0.045
Mof_H 	H 	0.5476	0.5174	0.4357	0.138
Mof_H 	H 	0.6401	0.4505	0.4581	-0.074
Mof_C 	C 	0.7276	0.382	0.49349	-0.56
Mof_C 	C 	0.8191	0.3774	0.49203	0.321
Mof_C 	C 	0.861	0.3387	0.47351	-0.323
Mof_C 	C 	0.8101	0.3032	0.45583	0.229
Mof_C 	C 	0.7196	0.3059	0.45623	-0.321
Mof_C 	C 	0.6794	0.3448	0.47502	0.309
Mof_C 	C 	0.7351	0.4722	0.53453	-0.583
Mof_C 	C 	0.8034	0.5068	0.52263	0.323
Mof_C 	C 	0.8544	0.5489	0.53805	-0.334
Mof_C 	C 	0.834	0.5587	0.56584	0.239
Mof_C 	C 	0.7658	0.5268	0.57849	-0.341
Mof_C 	C 	0.7174	0.4843	0.56274	0.328
Mof_C 	C 	0.6182	0.3777	0.5367	-0.601
Mof_C 	C 	0.6597	0.3498	0.55915	0.34
Mof_C 	C 	0.615	0.3106	0.57754	-0.343
Mof_C 	C 	0.528	0.2949	0.57266	0.247
Mof_C 	C 	0.4857	0.317	0.54947	-0.342
Mof_C 	C 	0.5305	0.3587	0.53218	0.342
Mof_C 	C 	0.6042	0.468	0.49835	-0.546
Mof_C 	C 	0.5476	0.5047	0.51318	0.3
Mof_C 	C 	0.4948	0.5468	0.50018	-0.313
Mof_C 	C 	0.4946	0.5502	0.4714	0.217
Mof_C 	C 	0.5478	0.5147	0.45565	-0.306
Mof_C 	C 	0.6028	0.4743	0.4692	0.304
Mof_B 	B 	0.1498	0.8072	0.4811	1.223
Mof_H 	H 	0.2971	0.7499	0.5011	-0.087
Mof_H 	H 	0.3864	0.6753	0.4829	0.135
Mof_H 	H 	0.3596	0.6382	0.4382	-0.048
Mof_H 	H 	0.243	0.672	0.4115	0.134
Mof_H 	H 	0.155	0.7472	0.4296	-0.085
Mof_H 	H 	0.3177	0.8621	0.4774	-0.086
Mof_H 	H 	0.3867	0.9454	0.499	0.145
Mof_H 	H 	0.3142	0.9945	0.5347	-0.043
Mof_H 	H 	0.1758	0.9603	0.5499	0.14
Mof_H 	H 	0.1037	0.8809	0.5264	-0.088
Mof_H 	H 	0.1518	0.7779	0.5383	-0.092
Mof_H 	H 	0.0635	0.7153	0.5667	0.149
Mof_H 	H 	0.9384	0.6675	0.548	-0.058
Mof_H 	H 	0.9063	0.6768	0.5005	0.156
Mof_H 	H 	0.997	0.7372	0.4719	-0.104
Mof_H 	H 	0.9761	0.8471	0.476	-0.114
Mof_H 	H 	0.9074	0.9111	0.4444	0.168
Mof_H 	H 	0.986	0.9475	0.4058	-0.074
Mof_H 	H 	0.1292	0.9184	0.3976	0.158
Mof_H 	H 	0.2001	0.859	0.4306	-0.097
Mof_C 	C 	0.2173	0.7581	0.46702	-0.566
Mof_C 	C 	0.286	0.735	0.4827	0.306
Mof_C 	C 	0.3394	0.6901	0.47193	-0.321
Mof_C 	C 	0.323	0.668	0.44559	0.226
Mof_C 	C 	0.2547	0.6882	0.42961	-0.321
Mof_C 	C 	0.2024	0.7332	0.44061	0.315
Mof_C 	C 	0.203	0.8612	0.49959	-0.553
Mof_C 	C 	0.2874	0.8822	0.49191	0.311
Mof_C 	C 	0.3294	0.9319	0.5048	-0.315
Mof_C 	C 	0.2865	0.9607	0.526	0.231
Mof_C 	C 	0.2041	0.9412	0.5347	-0.32
Mof_C 	C 	0.1621	0.8927	0.52096	0.315
Mof_C 	C 	0.084	0.7663	0.50182	-0.592
Mof_C 	C 	0.1018	0.7577	0.53027	0.336
Mof_C 	C 	0.0489	0.7205	0.54743	-0.336
Mof_C 	C 	0.9758	0.6917	0.53628	0.245
Mof_C 	C 	0.9564	0.6975	0.50831	-0.358
Mof_C 	C 	0.0106	0.7341	0.4913	0.363
Mof_C 	C 	0.0965	0.8463	0.45745	-0.605
Mof_C 	C 	0.009	0.8624	0.4604	0.384
Mof_C 	C 	0.9668	0.9003	0.44144	-0.403
Mof_C 	C 	0.0133	0.9213	0.41862	0.307
Mof_C 	C 	0.0986	0.9052	0.41393	-0.373
Mof_C 	C 	0.1402	0.8688	0.43358	0.351
Mof_B 	B 	0.9082	0.7223	0.7062	1.309
Mof_H 	H 	0.7447	0.7671	0.7172	-0.101
Mof_H 	H 	0.6786	0.8102	0.7561	0.147
Mof_H 	H 	0.7623	0.8289	0.7964	-0.061
Mof_H 	H 	0.9093	0.8027	0.798	0.143
Mof_H 	H 	0.9718	0.7535	0.7601	-0.102
Mof_H 	H 	0.8401	0.8319	0.6889	-0.107
Mof_H 	H 	0.8186	0.8741	0.645	0.157
Mof_H 	H 	0.8478	0.8208	0.6043	-0.063
Mof_H 	H 	0.8926	0.7221	0.608	0.154
Mof_H 	H 	0.9222	0.683	0.6521	-0.106
Mof_H 	H 	0.7683	0.656	0.6796	-0.074
Mof_H 	H 	0.7014	0.5618	0.6872	0.161
Mof_H 	H 	0.7595	0.4983	0.7205	-0.048
Mof_H 	H 	0.8796	0.5298	0.7479	0.142
Mof_H 	H 	0.9436	0.625	0.7409	-0.088
Mof_H 	H 	0.0383	0.6353	0.697	-0.097
Mof_H 	H 	0.1917	0.643	0.6931	0.151
Mof_H 	H 	0.2653	0.7344	0.7008	-0.059
Mof_H 	H 	0.1849	0.8181	0.7119	0.154
Mof_H 	H 	0.0317	0.8099	0.7153	-0.099
Mof_C 	C 	0.8674	0.7568	0.73336	-0.629
Mof_C 	C 	0.7792	0.7737	0.7336	0.356
Mof_C 	C 	0.739	0.7999	0.7568	-0.357
Mof_C 	C 	0.7882	0.8105	0.7806	0.259
Mof_C 	C 	0.875	0.7946	0.7816	-0.358
Mof_C 	C 	0.9128	0.7665	0.75854	0.363
Mof_C 	C 	0.8834	0.7514	0.67616	-0.651
Mof_C 	C 	0.8525	0.8091	0.67261	0.377
Mof_C 	C 	0.8392	0.8346	0.64626	-0.368
Mof_C 	C 	0.8557	0.8031	0.62222	0.271
Mof_C 	C 	0.8839	0.7454	0.62439	-0.366
Mof_C 	C 	0.8993	0.7219	0.65103	0.378
Mof_C 	C 	0.864	0.6519	0.7094	-0.565
Mof_C 	C 	0.7915	0.631	0.6937	0.325
Mof_C 	C 	0.7515	0.5743	0.698	-0.326
Mof_C 	C 	0.7855	0.5371	0.7179	0.238
Mof_C 	C 	0.8566	0.5554	0.734	-0.322
Mof_C 	C 	0.8947	0.6125	0.7296	0.325
Mof_C 	C 	0.0156	0.7216	0.7066	-0.629
Mof_C 	C 	0.0672	0.673	0.7001	0.367
Mof_C 	C 	0.1594	0.6772	0.6977	-0.361
Mof_C 	C 	0.2027	0.7312	0.7022	0.264
Mof_C 	C 	0.1553	0.7807	0.7088	-0.36
Mof_C 	C 	0.0634	0.7753	0.7108	0.358
Mof_B 	B 	0.0716	0.8715	0.9867	1.27
Mof_H 	H 	0.8973	0.8199	0.9849	-0.09
Mof_H 	H 	0.8291	0.7388	0.0078	0.145
Mof_H 	H 	0.9052	0.6887	0.0425	-0.04
Mof_H 	H 	0.0506	0.717	0.0532	0.149
Mof_H 	H 	0.1187	0.7977	0.0297	-0.09
Mof_H 	H 	0.925	0.9327	0.0058	-0.08
Mof_H 	H 	0.8387	0.0072	0.9871	0.122
Mof_H 	H 	0.8752	0.0482	0.9435	-0.035
Mof_H 	H 	0.988	0.0084	0.9168	0.144
Mof_H 	H 	0.071	0.9321	0.9353	-0.078
Mof_H 	H 	0.0172	0.8179	0.9367	-0.092
Mof_H 	H 	0.0856	0.7578	0.9039	0.148
Mof_H 	H 	0.236	0.7412	0.9073	-0.054
Mof_H 	H 	0.3155	0.7771	0.946	0.15
Mof_H 	H 	0.2457	0.8348	0.9795	-0.098
Mof_H 	H 	0.2216	0.945	0.9771	-0.094
Mof_H 	H 	0.3086	0.0063	0.0065	0.152
Mof_H 	H 	0.2708	0.0179	0.0532	-0.066
Mof_H 	H 	0.1521	0.9622	0.0723	0.16
Mof_H 	H 	0.0668	0.9004	0.0428	-0.097
Mof_C 	C 	0.016	0.8195	0.00462	-0.575
Mof_C 	C 	0.9295	0.7995	0.9988	0.316
Mof_C 	C 	0.8879	0.751	0.0125	-0.32
Mof_C 	C 	0.9333	0.7211	0.0329	0.215
Mof_C 	C 	0.019	0.738	0.0393	-0.306
Mof_C 	C 	0.0593	0.7866	0.0252	0.315
Mof_C 	C 	0.0053	0.9209	0.97225	-0.554
Mof_C 	C 	0.9374	0.9468	0.98733	0.286
Mof_C 	C 	0.8867	0.9925	0.97659	-0.288
Mof_C 	C 	0.9075	0.016	0.95064	0.197
Mof_C 	C 	0.9748	0.993	0.93499	-0.305
Mof_C 	C 	0.0235	0.9467	0.94608	0.319
Mof_C 	C 	0.1237	0.8353	0.96199	-0.605
Mof_C 	C 	0.0782	0.8103	0.93891	0.338
Mof_C 	C 	0.1191	0.7746	0.919	-0.343
Mof_C 	C 	0.2076	0.7637	0.9213	0.249
Mof_C 	C 	0.2548	0.7856	0.9439	-0.35
Mof_C 	C 	0.2123	0.8205	0.96385	0.346
Mof_C 	C 	0.136	0.9125	0.00686	-0.625
Mof_C 	C 	0.2074	0.9471	0.99653	0.358
Mof_C 	C 	0.2587	0.985	0.01396	-0.352
Mof_C 	C 	0.237	0.9912	0.0417	0.272
Mof_C 	C 	0.1665	0.959	0.05298	-0.363
Mof_C 	C 	0.1168	0.9213	0.03515	0.36
Mof_B 	B 	0.5527	0.2565	0.0165	1.247
Mof_H 	H 	0.4046	0.1839	0.0054	-0.098
Mof_H 	H 	0.3191	0.1161	0.032	0.152
Mof_H 	H 	0.352	0.1031	0.0793	-0.057
Mof_H 	H 	0.4731	0.1533	0.0993	0.17
Mof_H 	H 	0.5579	0.2212	0.0725	-0.091
Mof_H 	H 	0.3731	0.2836	0.0052	-0.095
Mof_H 	H 	0.3069	0.3453	0.9723	0.146
Mof_H 	H 	0.3951	0.4018	0.9415	-0.05
Mof_H 	H 	0.5483	0.3963	0.9433	0.148
Mof_H 	H 	0.613	0.3317	0.9752	-0.091
Mof_H 	H 	0.5849	0.2237	0.9593	-0.076
Mof_H 	H 	0.6789	0.1555	0.9385	0.138
Mof_H 	H 	0.7627	0.0945	0.9668	-0.046
Mof_H 	H 	0.7677	0.1097	0.015	0.142
Mof_H 	H 	0.6791	0.1813	0.0357	-0.075
Mof_H 	H 	0.7279	0.3053	0.0163	-0.094
Mof_H 	H 	0.8003	0.38	0.0425	0.148
Mof_H 	H 	0.7264	0.4261	0.0791	-0.053
Mof_H 	H 	0.5814	0.3964	0.0895	0.143
Mof_H 	H 	0.5062	0.3265	0.0613	-0.094
Mof_C 	C 	0.4899	0.2122	0.03582	-0.617
Mof_C 	C 	0.4188	0.1787	0.02465	0.348
Mof_C 	C 	0.3672	0.1378	0.04042	-0.357
Mof_C 	C 	0.3874	0.1298	0.06822	0.263
Mof_C 	C 	0.4584	0.1599	0.08021	-0.36
Mof_C 	C 	0.5089	0.2006	0.064	0.352
Mof_C 	C 	0.501	0.2982	0.9935	-0.588
Mof_C 	C 	0.4097	0.3053	0.9923	0.337
Mof_C 	C 	0.3694	0.3429	0.9729	-0.334
Mof_C 	C 	0.4217	0.3763	0.9547	0.238
Mof_C 	C 	0.5121	0.3727	0.9556	-0.335
Mof_C 	C 	0.5504	0.3339	0.9748	0.331
Mof_C 	C 	0.622	0.211	0.99979	-0.551
Mof_C 	C 	0.6227	0.2013	0.9709	0.309
Mof_C 	C 	0.6773	0.1595	0.95836	-0.312
Mof_C 	C 	0.7285	0.1246	0.97504	0.219
Mof_C 	C 	0.7305	0.133	0.00358	-0.31
Mof_C 	C 	0.6774	0.1759	0.01589	0.299
Mof_C 	C 	0.6086	0.3064	0.03558	-0.588
Mof_C 	C 	0.6965	0.3242	0.0309	0.344
Mof_C 	C 	0.7407	0.3687	0.0466	-0.342
Mof_C 	C 	0.6971	0.3958	0.0683	0.244
Mof_C 	C 	0.611	0.3789	0.0742	-0.334
Mof_C 	C 	0.5668	0.336	0.0575	0.331
Mof_B 	B 	0.7537	0.6698	0.203	1.227
Mof_H 	H 	0.7679	0.626	0.1496	-0.097
Mof_H 	H 	0.853	0.6506	0.1103	0.15
Mof_H 	H 	0.9554	0.7304	0.1127	-0.048
Mof_H 	H 	0.9571	0.7928	0.1517	0.146
Mof_H 	H 	0.8751	0.7658	0.1914	-0.095
Mof_H 	H 	0.8761	0.5816	0.1868	-0.075
Mof_H 	H 	0.9094	0.4879	0.2047	0.128
Mof_H 	H 	0.8214	0.4447	0.2397	-0.04
Mof_H 	H 	0.6966	0.4925	0.2555	0.126
Mof_H 	H 	0.6708	0.5898	0.2403	-0.076
Mof_H 	H 	0.6115	0.5909	0.1855	-0.086
Mof_H 	H 	0.4673	0.6064	0.1708	0.119
Mof_H 	H 	0.4103	0.7018	0.1739	-0.042
Mof_H 	H 	0.504	0.7821	0.1855	0.141
Mof_H 	H 	0.6498	0.7672	0.1983	-0.084
Mof_H 	H 	0.6559	0.7251	0.2457	-0.089
Mof_H 	H 	0.6954	0.7758	0.2868	0.14
Mof_H 	H 	0.8442	0.794	0.2974	-0.042
Mof_H 	H 	0.9527	0.7552	0.2686	0.162
Mof_H 	H 	0.9122	0.7028	0.2281	-0.094
Mof_C 	C 	0.8142	0.6904	0.17598	-0.603
Mof_C 	C 	0.8085	0.6592	0.1508	0.343
Mof_C 	C 	0.859	0.6737	0.127	-0.342
Mof_C 	C 	0.9174	0.7218	0.1281	0.257
Mof_C 	C 	0.9209	0.7574	0.1515	-0.348
Mof_C 	C 	0.8707	0.7412	0.1752	0.342
Mof_C 	C 	0.7717	0.5979	0.2122	-0.525
Mof_C 	C 	0.841	0.565	0.2015	0.287
Mof_C 	C 	0.8603	0.5084	0.2118	-0.3
Mof_C 	C 	0.8076	0.4827	0.2323	0.2
Mof_C 	C 	0.7352	0.5114	0.2423	-0.295
Mof_C 	C 	0.7191	0.5693	0.2326	0.285
Mof_C 	C 	0.6495	0.6769	0.1937	-0.57
Mof_C 	C 	0.5909	0.6305	0.1854	0.309
Mof_C 	C 	0.5035	0.6392	0.1771	-0.313
Mof_C 	C 	0.4706	0.6956	0.1782	0.224
Mof_C 	C 	0.5256	0.7428	0.1856	-0.314
Mof_C 	C 	0.6132	0.7336	0.1932	0.314
Mof_C 	C 	0.779	0.7083	0.23154	-0.586
Mof_C 	C 	0.7169	0.731	0.2501	0.336
Mof_C 	C 	0.74	0.7618	0.2747	-0.335
Mof_C 	C 	0.8278	0.7717	0.2811	0.248
Mof_C 	C 	0.892	0.7494	0.264	-0.336
Mof_C 	C 	0.867	0.7181	0.2397	0.336
Mof_B 	B 	0.3423	0.4227	0.7922	1.32
Mof_H 	H 	0.2888	0.515	0.8274	-0.102
Mof_H 	H 	0.2762	0.5237	0.8759	0.159
Mof_H 	H 	0.3138	0.4452	0.905	-0.063
Mof_H 	H 	0.3576	0.3558	0.8852	0.158
Mof_H 	H 	0.3729	0.3484	0.8367	-0.107
Mof_H 	H 	0.4154	0.5318	0.7962	-0.092
Mof_H 	H 	0.3985	0.6228	0.7732	0.151
Mof_H 	H 	0.3015	0.6293	0.7358	-0.056
Mof_H 	H 	0.2117	0.5472	0.7232	0.152
Mof_H 	H 	0.2343	0.4554	0.7449	-0.098
Mof_H 	H 	0.1573	0.4157	0.7873	-0.086
Mof_H 	H 	0.0518	0.3411	0.7764	0.142
Mof_H 	H 	0.0961	0.2437	0.7687	-0.042
Mof_H 	H 	0.2451	0.2229	0.7706	0.141
Mof_H 	H 	0.351	0.2981	0.78	-0.083
Mof_H 	H 	0.4133	0.3787	0.7431	-0.1
Mof_H 	H 	0.5546	0.3518	0.7293	0.146
Mof_H 	H 	0.6733	0.3679	0.7599	-0.057
Mof_H 	H 	0.6488	0.4012	0.8053	0.158
Mof_H 	H 	0.5055	0.4212	0.8199	-0.093
Mof_C 	C 	0.3322	0.4303	0.82573	-0.658
Mof_C 	C 	0.3037	0.4821	0.8389	0.383
Mof_C 	C 	0.2961	0.4877	0.868	-0.371
Mof_C 	C 	0.3176	0.4411	0.8852	0.278
Mof_C 	C 	0.3445	0.3887	0.87358	-0.372
Mof_C 	C 	0.3525	0.3846	0.84437	0.384
Mof_C 	C 	0.3216	0.483	0.7747	-0.635
Mof_C 	C 	0.373	0.5341	0.7815	0.349
Mof_C 	C 	0.3642	0.5887	0.7675	-0.345
Mof_C 	C 	0.306	0.5926	0.7456	0.267
Mof_C 	C 	0.2544	0.5441	0.7377	-0.358
Mof_C 	C 	0.2662	0.4897	0.7516	0.376
Mof_C 	C 	0.2671	0.367	0.7841	-0.557
Mof_C 	C 	0.1766	0.3767	0.7834	0.319
Mof_C 	C 	0.1125	0.332	0.7773	-0.32
Mof_C 	C 	0.1388	0.2746	0.7726	0.231
Mof_C 	C 	0.2269	0.2624	0.7737	-0.318
Mof_C 	C 	0.2904	0.3078	0.7794	0.315
Mof_C 	C 	0.442	0.4034	0.78311	-0.63
Mof_C 	C 	0.4605	0.3827	0.75622	0.359
Mof_C 	C 	0.5454	0.3676	0.74752	-0.357
Mof_C 	C 	0.615	0.376	0.76583	0.26
Mof_C 	C 	0.6007	0.396	0.7926	-0.361
Mof_C 	C 	0.5147	0.4086	0.80116	0.358
Mof_B 	B 	0.3567	0.4759	0.3016	1.218
Mof_H 	H 	0.1746	0.4941	0.3131	-0.083
Mof_H 	H 	0.0448	0.4752	0.2877	0.14
Mof_H 	H 	0.0487	0.4224	0.246	-0.046
Mof_H 	H 	0.1843	0.3975	0.2266	0.138
Mof_H 	H 	0.3132	0.4144	0.2527	-0.083
Mof_H 	H 	0.2552	0.4195	0.344	-0.087
Mof_H 	H 	0.2512	0.4276	0.3927	0.139
Mof_H 	H 	0.3397	0.5004	0.4151	-0.048
Mof_H 	H 	0.4319	0.5636	0.3886	0.135
Mof_H 	H 	0.4318	0.5571	0.3397	-0.086
Mof_H 	H 	0.3259	0.5963	0.3087	-0.093
Mof_H 	H 	0.3599	0.681	0.2816	0.141
Mof_H 	H 	0.4442	0.6731	0.2412	-0.049
Mof_H 	H 	0.4982	0.5813	0.2279	0.141
Mof_H 	H 	0.4632	0.4967	0.2549	-0.093
Mof_H 	H 	0.5394	0.4721	0.3014	-0.084
Mof_H 	H 	0.6415	0.3963	0.3014	0.13
Mof_H 	H 	0.5918	0.2972	0.2977	-0.045
Mof_H 	H 	0.4416	0.2735	0.2962	0.138
Mof_H 	H 	0.3396	0.3495	0.2951	-0.085
Mof_C 	C 	0.2604	0.4567	0.28597	-0.554
Mof_C 	C 	0.1778	0.4738	0.2957	0.31
Mof_C 	C 	0.0995	0.4622	0.2806	-0.32
Mof_C 	C 	0.1021	0.4322	0.2556	0.227
Mof_C 	C 	0.1817	0.416	0.2445	-0.319
Mof_C 	C 	0.2588	0.4274	0.2602	0.306
Mof_C 	C 	0.3467	0.4855	0.3358	-0.577
Mof_C 	C 	0.2921	0.4491	0.35285	0.324
Mof_C 	C 	0.2889	0.4537	0.38203	-0.328
Mof_C 	C 	0.3411	0.4968	0.3952	0.226
Mof_C 	C 	0.3951	0.5343	0.37957	-0.325
Mof_C 	C 	0.3961	0.5295	0.35023	0.317
Mof_C 	C 	0.3906	0.5361	0.2849	-0.594
Mof_C 	C 	0.3608	0.5924	0.2923	0.33
Mof_C 	C 	0.381	0.6433	0.2761	-0.334
Mof_C 	C 	0.4312	0.6386	0.2522	0.24
Mof_C 	C 	0.4627	0.5846	0.2443	-0.334
Mof_C 	C 	0.4416	0.534	0.2607	0.337
Mof_C 	C 	0.4272	0.4202	0.2985	-0.547
Mof_C 	C 	0.5184	0.4318	0.3002	0.302
Mof_C 	C 	0.5801	0.3867	0.3001	-0.311
Mof_C 	C 	0.5505	0.3281	0.2981	0.22
Mof_C 	C 	0.4618	0.3141	0.2969	-0.31
Mof_C 	C 	0.4008	0.3598	0.2966	0.308
Mof_Cl	Cl	0.05682	0.27925	0.67174	-0.318
Mof_Cl	Cl	0.05682	0.77925	0.32826	-0.318
_end
