data_functionalizedCrystal
_audit_creation_method	'EQeq! by Chris Wilmer'
_symmetry_space_group_name_H-M	'P1'
_symmetry_Int_Tables_number	1
_symmetry_cell_setting	triclinic
loop_
_symmetry_equiv_pos_as_xyz
  x,y,z
_cell_length_a	34.5619
_cell_length_b	34.5619
_cell_length_c	8.3343
_cell_angle_alpha	90
_cell_angle_beta	90
_cell_angle_gamma	120
loop_
_atom_site_label
_atom_site_type_symbol
_atom_site_fract_x
_atom_site_fract_y
_atom_site_fract_z
_atom_site_charge
Mof_Ag	Ag	0.80738	0.1506	0.83647	0.45
Mof_O 	O 	0.002	0.32394	0.0196	-0.22
Mof_N 	N 	0.86756	0.19	0.9814	-0.198
Mof_N 	N 	0.95121	0.40832	0.9396	-0.196
Mof_C 	C 	0.8927	0.235	0.9694	0.04
Mof_H 	H 	0.883	0.2505	0.9012	-0.009
Mof_C 	C 	0.9322	0.2589	0.0541	-0.071
Mof_C 	C 	0.946	0.2367	0.1577	0.013
Mof_H 	H 	0.9733	0.2525	0.2151	0.034
Mof_C 	C 	0.9189	0.1909	0.1751	-0.127
Mof_H 	H 	0.9267	0.1748	0.248	0.048
Mof_C 	C 	0.8804	0.1691	0.0844	0.055
Mof_H 	H 	0.8621	0.1376	0.096	-0.019
Mof_C 	C 	0.962	0.3085	0.0307	0.175
Mof_C 	C 	0.965	0.3784	0.9443	0.048
Mof_H 	H 	0.9921	0.3854	0.8912	0.022
Mof_C 	C 	0.9418	0.3376	0.023	-0.07
Mof_C 	C 	0.9021	0.3272	0.1009	0.018
Mof_H 	H 	0.8854	0.2997	0.1563	0.015
Mof_C 	C 	0.8876	0.3573	0.0964	-0.112
Mof_H 	H 	0.8607	0.351	0.1493	0.054
Mof_C 	C 	0.9121	0.3971	0.0148	0.056
Mof_H 	H 	0.9011	0.4174	0.011	-0.021
Mof_Ag	Ag	0.8494	0.65678	0.83647	0.451
Mof_O 	O 	0.67606	0.67806	0.0196	-0.218
Mof_N 	N 	0.81	0.67756	0.9814	-0.197
Mof_N 	N 	0.59168	0.54289	0.9396	-0.195
Mof_C 	C 	0.765	0.6577	0.9694	0.041
Mof_H 	H 	0.7495	0.6325	0.9012	-0.008
Mof_C 	C 	0.7411	0.6733	0.0541	-0.07
Mof_C 	C 	0.7633	0.7093	0.1577	0.014
Mof_H 	H 	0.7475	0.7208	0.2151	0.035
Mof_C 	C 	0.8091	0.728	0.1751	-0.126
Mof_H 	H 	0.8252	0.7519	0.248	0.049
Mof_C 	C 	0.8309	0.7113	0.0844	0.056
Mof_H 	H 	0.8624	0.7245	0.096	-0.018
Mof_C 	C 	0.6915	0.6535	0.0307	0.176
Mof_C 	C 	0.6216	0.5866	0.9443	0.049
Mof_H 	H 	0.6146	0.6067	0.8912	0.023
Mof_C 	C 	0.6624	0.6042	0.023	-0.07
Mof_C 	C 	0.6728	0.5749	0.1009	0.018
Mof_H 	H 	0.7003	0.5857	0.1563	0.015
Mof_C 	C 	0.6427	0.5303	0.0964	-0.112
Mof_H 	H 	0.649	0.5097	0.1493	0.054
Mof_C 	C 	0.6029	0.515	0.0148	0.056
Mof_H 	H 	0.5826	0.4837	0.011	-0.021
Mof_Ag	Ag	0.34322	0.19262	0.83647	0.451
Mof_O 	O 	0.32194	0.998	0.0196	-0.219
Mof_N 	N 	0.32244	0.13244	0.9814	-0.197
Mof_N 	N 	0.45711	0.04879	0.9396	-0.195
Mof_C 	C 	0.3423	0.1073	0.9694	0.041
Mof_H 	H 	0.3675	0.117	0.9012	-0.008
Mof_C 	C 	0.3267	0.0678	0.0541	-0.07
Mof_C 	C 	0.2907	0.054	0.1577	0.014
Mof_H 	H 	0.2792	0.0267	0.2151	0.035
Mof_C 	C 	0.272	0.0811	0.1751	-0.126
Mof_H 	H 	0.2481	0.0733	0.248	0.049
Mof_C 	C 	0.2887	0.1196	0.0844	0.056
Mof_H 	H 	0.2755	0.1379	0.096	-0.018
Mof_C 	C 	0.3465	0.038	0.0307	0.176
Mof_C 	C 	0.4134	0.035	0.9443	0.049
Mof_H 	H 	0.3933	0.0079	0.8912	0.023
Mof_C 	C 	0.3958	0.0582	0.023	-0.07
Mof_C 	C 	0.4251	0.0979	0.1009	0.018
Mof_H 	H 	0.4143	0.1146	0.1563	0.015
Mof_C 	C 	0.4697	0.1124	0.0964	-0.112
Mof_H 	H 	0.4903	0.1393	0.1493	0.054
Mof_C 	C 	0.485	0.0879	0.0148	0.056
Mof_H 	H 	0.5163	0.0989	0.011	-0.021
Mof_Ag	Ag	0.52596	0.51606	0.8302	0.451
Mof_O 	O 	0.33133	0.34273	0.64707	-0.218
Mof_N 	N 	0.46577	0.47667	0.68527	-0.197
Mof_N 	N 	0.38212	0.25835	0.72707	-0.195
Mof_C 	C 	0.44063	0.43167	0.69727	0.041
Mof_H 	H 	0.45033	0.41617	0.76547	-0.008
Mof_C 	C 	0.40113	0.40777	0.61257	-0.07
Mof_C 	C 	0.38733	0.42997	0.50897	0.014
Mof_H 	H 	0.36003	0.41417	0.45157	0.035
Mof_C 	C 	0.41443	0.47577	0.49157	-0.126
Mof_H 	H 	0.40663	0.49187	0.41867	0.049
Mof_C 	C 	0.45293	0.49757	0.58227	0.056
Mof_H 	H 	0.47123	0.52907	0.57067	-0.018
Mof_C 	C 	0.37133	0.35817	0.63597	0.176
Mof_C 	C 	0.36833	0.28827	0.72237	0.049
Mof_H 	H 	0.34123	0.28127	0.77547	0.023
Mof_C 	C 	0.39153	0.32907	0.64367	-0.07
Mof_C 	C 	0.43123	0.33947	0.56577	0.018
Mof_H 	H 	0.44793	0.36697	0.51037	0.015
Mof_C 	C 	0.44573	0.30937	0.57027	-0.112
Mof_H 	H 	0.47263	0.31567	0.51737	0.054
Mof_C 	C 	0.42123	0.26957	0.65187	0.055
Mof_H 	H 	0.43223	0.24927	0.65567	-0.021
Mof_Ag	Ag	0.48394	0.00989	0.8302	0.451
Mof_O 	O 	0.65727	0.98861	0.64707	-0.218
Mof_N 	N 	0.52333	0.98911	0.68527	-0.197
Mof_N 	N 	0.74165	0.12378	0.72707	-0.195
Mof_C 	C 	0.56833	0.00897	0.69727	0.041
Mof_H 	H 	0.58383	0.03417	0.76547	-0.008
Mof_C 	C 	0.59223	0.99337	0.61257	-0.07
Mof_C 	C 	0.57003	0.95737	0.50897	0.014
Mof_H 	H 	0.58583	0.94587	0.45157	0.035
Mof_C 	C 	0.52423	0.93867	0.49157	-0.126
Mof_H 	H 	0.50813	0.91477	0.41867	0.049
Mof_C 	C 	0.50243	0.95537	0.58227	0.056
Mof_H 	H 	0.47093	0.94217	0.57067	-0.018
Mof_C 	C 	0.64183	0.01317	0.63597	0.176
Mof_C 	C 	0.71173	0.08007	0.72237	0.049
Mof_H 	H 	0.71873	0.05997	0.77547	0.023
Mof_C 	C 	0.67093	0.06247	0.64367	-0.07
Mof_C 	C 	0.66053	0.09177	0.56577	0.018
Mof_H 	H 	0.63303	0.08097	0.51037	0.015
Mof_C 	C 	0.69063	0.13637	0.57027	-0.112
Mof_H 	H 	0.68433	0.15697	0.51737	0.054
Mof_C 	C 	0.73043	0.15167	0.65187	0.055
Mof_H 	H 	0.75073	0.18297	0.65567	-0.021
Mof_Ag	Ag	0.99011	0.47404	0.8302	0.451
Mof_O 	O 	0.01139	0.66867	0.64707	-0.218
Mof_N 	N 	0.01089	0.53423	0.68527	-0.197
Mof_N 	N 	0.87622	0.61788	0.72707	-0.195
Mof_C 	C 	0.99103	0.55937	0.69727	0.041
Mof_H 	H 	0.96583	0.54967	0.76547	-0.008
Mof_C 	C 	0.00663	0.59887	0.61257	-0.07
Mof_C 	C 	0.04263	0.61267	0.50897	0.014
Mof_H 	H 	0.05413	0.63997	0.45157	0.035
Mof_C 	C 	0.06133	0.58557	0.49157	-0.126
Mof_H 	H 	0.08523	0.59337	0.41867	0.049
Mof_C 	C 	0.04463	0.54707	0.58227	0.056
Mof_H 	H 	0.05783	0.52877	0.57067	-0.018
Mof_C 	C 	0.98683	0.62867	0.63597	0.176
Mof_C 	C 	0.91993	0.63167	0.72237	0.049
Mof_H 	H 	0.94003	0.65877	0.77547	0.023
Mof_C 	C 	0.93753	0.60847	0.64367	-0.07
Mof_C 	C 	0.90823	0.56877	0.56577	0.018
Mof_H 	H 	0.91903	0.55207	0.51037	0.015
Mof_C 	C 	0.86363	0.55427	0.57027	-0.112
Mof_H 	H 	0.84303	0.52737	0.51737	0.054
Mof_C 	C 	0.84833	0.57877	0.65187	0.055
Mof_H 	H 	0.81703	0.56777	0.65567	-0.021
Mof_Ag	Ag	0.47404	0.48394	0.1698	0.451
Mof_O 	O 	0.66867	0.65727	0.35293	-0.218
Mof_N 	N 	0.53423	0.52333	0.31473	-0.197
Mof_N 	N 	0.61788	0.74165	0.27293	-0.195
Mof_C 	C 	0.55937	0.56833	0.30273	0.041
Mof_H 	H 	0.54967	0.58383	0.23453	-0.008
Mof_C 	C 	0.59887	0.59223	0.38743	-0.07
Mof_C 	C 	0.61267	0.57003	0.49103	0.014
Mof_H 	H 	0.63997	0.58583	0.54843	0.035
Mof_C 	C 	0.58557	0.52423	0.50843	-0.126
Mof_H 	H 	0.59337	0.50813	0.58133	0.049
Mof_C 	C 	0.54707	0.50243	0.41773	0.056
Mof_H 	H 	0.52877	0.47093	0.42933	-0.018
Mof_C 	C 	0.62867	0.64183	0.36403	0.176
Mof_C 	C 	0.63167	0.71173	0.27763	0.049
Mof_H 	H 	0.65877	0.71873	0.22453	0.023
Mof_C 	C 	0.60847	0.67093	0.35633	-0.07
Mof_C 	C 	0.56877	0.66053	0.43423	0.018
Mof_H 	H 	0.55207	0.63303	0.48963	0.015
Mof_C 	C 	0.55427	0.69063	0.42973	-0.112
Mof_H 	H 	0.52737	0.68433	0.48263	0.054
Mof_C 	C 	0.57877	0.73043	0.34813	0.055
Mof_H 	H 	0.56777	0.75073	0.34433	-0.021
Mof_Ag	Ag	0.51606	0.99011	0.1698	0.451
Mof_O 	O 	0.34273	0.01139	0.35293	-0.218
Mof_N 	N 	0.47667	0.01089	0.31473	-0.197
Mof_N 	N 	0.25835	0.87622	0.27293	-0.195
Mof_C 	C 	0.43167	0.99103	0.30273	0.041
Mof_H 	H 	0.41617	0.96583	0.23453	-0.008
Mof_C 	C 	0.40777	0.00663	0.38743	-0.07
Mof_C 	C 	0.42997	0.04263	0.49103	0.014
Mof_H 	H 	0.41417	0.05413	0.54843	0.035
Mof_C 	C 	0.47577	0.06133	0.50843	-0.126
Mof_H 	H 	0.49187	0.08523	0.58133	0.049
Mof_C 	C 	0.49757	0.04463	0.41773	0.056
Mof_H 	H 	0.52907	0.05783	0.42933	-0.018
Mof_C 	C 	0.35817	0.98683	0.36403	0.176
Mof_C 	C 	0.28827	0.91993	0.27763	0.049
Mof_H 	H 	0.28127	0.94003	0.22453	0.023
Mof_C 	C 	0.32907	0.93753	0.35633	-0.07
Mof_C 	C 	0.33947	0.90823	0.43423	0.018
Mof_H 	H 	0.36697	0.91903	0.48963	0.015
Mof_C 	C 	0.30937	0.86363	0.42973	-0.112
Mof_H 	H 	0.31567	0.84303	0.48263	0.054
Mof_C 	C 	0.26957	0.84833	0.34813	0.055
Mof_H 	H 	0.24927	0.81703	0.34433	-0.021
Mof_Ag	Ag	0.00989	0.52596	0.1698	0.451
Mof_O 	O 	0.98861	0.33133	0.35293	-0.218
Mof_N 	N 	0.98911	0.46577	0.31473	-0.197
Mof_N 	N 	0.12378	0.38212	0.27293	-0.195
Mof_C 	C 	0.00897	0.44063	0.30273	0.041
Mof_H 	H 	0.03417	0.45033	0.23453	-0.008
Mof_C 	C 	0.99337	0.40113	0.38743	-0.07
Mof_C 	C 	0.95737	0.38733	0.49103	0.014
Mof_H 	H 	0.94587	0.36003	0.54843	0.035
Mof_C 	C 	0.93867	0.41443	0.50843	-0.126
Mof_H 	H 	0.91477	0.40663	0.58133	0.049
Mof_C 	C 	0.95537	0.45293	0.41773	0.056
Mof_H 	H 	0.94217	0.47123	0.42933	-0.018
Mof_C 	C 	0.01317	0.37133	0.36403	0.176
Mof_C 	C 	0.08007	0.36833	0.27763	0.049
Mof_H 	H 	0.05997	0.34123	0.22453	0.023
Mof_C 	C 	0.06247	0.39153	0.35633	-0.07
Mof_C 	C 	0.09177	0.43123	0.43423	0.018
Mof_H 	H 	0.08097	0.44793	0.48963	0.015
Mof_C 	C 	0.13637	0.44573	0.42973	-0.112
Mof_H 	H 	0.15697	0.47263	0.48263	0.054
Mof_C 	C 	0.15167	0.42123	0.34813	0.055
Mof_H 	H 	0.18297	0.43223	0.34433	-0.021
Mof_Ag	Ag	0.19262	0.8494	0.16353	0.451
Mof_O 	O 	0.998	0.67606	0.9804	-0.219
Mof_N 	N 	0.13244	0.81	0.0186	-0.197
Mof_N 	N 	0.04879	0.59168	0.0604	-0.195
Mof_C 	C 	0.1073	0.765	0.0306	0.041
Mof_H 	H 	0.117	0.7495	0.0988	-0.008
Mof_C 	C 	0.0678	0.7411	0.9459	-0.07
Mof_C 	C 	0.054	0.7633	0.8423	0.014
Mof_H 	H 	0.0267	0.7475	0.7849	0.035
Mof_C 	C 	0.0811	0.8091	0.8249	-0.126
Mof_H 	H 	0.0733	0.8252	0.752	0.049
Mof_C 	C 	0.1196	0.8309	0.9156	0.056
Mof_H 	H 	0.1379	0.8624	0.904	-0.018
Mof_C 	C 	0.038	0.6915	0.9693	0.176
Mof_C 	C 	0.035	0.6216	0.0557	0.049
Mof_H 	H 	0.0079	0.6146	0.1088	0.023
Mof_C 	C 	0.0582	0.6624	0.977	-0.07
Mof_C 	C 	0.0979	0.6728	0.8991	0.018
Mof_H 	H 	0.1146	0.7003	0.8437	0.015
Mof_C 	C 	0.1124	0.6427	0.9036	-0.112
Mof_H 	H 	0.1393	0.649	0.8507	0.054
Mof_C 	C 	0.0879	0.6029	0.9852	0.056
Mof_H 	H 	0.0989	0.5826	0.989	-0.021
Mof_Ag	Ag	0.1506	0.34322	0.16353	0.451
Mof_O 	O 	0.32394	0.32194	0.9804	-0.218
Mof_N 	N 	0.19	0.32244	0.0186	-0.197
Mof_N 	N 	0.40832	0.45711	0.0604	-0.195
Mof_C 	C 	0.235	0.3423	0.0306	0.041
Mof_H 	H 	0.2505	0.3675	0.0988	-0.008
Mof_C 	C 	0.2589	0.3267	0.9459	-0.07
Mof_C 	C 	0.2367	0.2907	0.8423	0.014
Mof_H 	H 	0.2525	0.2792	0.7849	0.035
Mof_C 	C 	0.1909	0.272	0.8249	-0.126
Mof_H 	H 	0.1748	0.2481	0.752	0.049
Mof_C 	C 	0.1691	0.2887	0.9156	0.056
Mof_H 	H 	0.1376	0.2755	0.904	-0.018
Mof_C 	C 	0.3085	0.3465	0.9693	0.176
Mof_C 	C 	0.3784	0.4134	0.0557	0.049
Mof_H 	H 	0.3854	0.3933	0.1088	0.023
Mof_C 	C 	0.3376	0.3958	0.977	-0.07
Mof_C 	C 	0.3272	0.4251	0.8991	0.018
Mof_H 	H 	0.2997	0.4143	0.8437	0.015
Mof_C 	C 	0.3573	0.4697	0.9036	-0.112
Mof_H 	H 	0.351	0.4903	0.8507	0.054
Mof_C 	C 	0.3971	0.485	0.9852	0.056
Mof_H 	H 	0.4174	0.5163	0.989	-0.021
Mof_Ag	Ag	0.65678	0.80738	0.16353	0.451
Mof_O 	O 	0.67806	0.002	0.9804	-0.219
Mof_N 	N 	0.67756	0.86756	0.0186	-0.197
Mof_N 	N 	0.54289	0.95121	0.0604	-0.195
Mof_C 	C 	0.6577	0.8927	0.0306	0.041
Mof_H 	H 	0.6325	0.883	0.0988	-0.008
Mof_C 	C 	0.6733	0.9322	0.9459	-0.07
Mof_C 	C 	0.7093	0.946	0.8423	0.014
Mof_H 	H 	0.7208	0.9733	0.7849	0.035
Mof_C 	C 	0.728	0.9189	0.8249	-0.126
Mof_H 	H 	0.7519	0.9267	0.752	0.049
Mof_C 	C 	0.7113	0.8804	0.9156	0.056
Mof_H 	H 	0.7245	0.8621	0.904	-0.018
Mof_C 	C 	0.6535	0.962	0.9693	0.176
Mof_C 	C 	0.5866	0.965	0.0557	0.049
Mof_H 	H 	0.6067	0.9921	0.1088	0.023
Mof_C 	C 	0.6042	0.9418	0.977	-0.07
Mof_C 	C 	0.5749	0.9021	0.8991	0.018
Mof_H 	H 	0.5857	0.8854	0.8437	0.015
Mof_C 	C 	0.5303	0.8876	0.9036	-0.112
Mof_H 	H 	0.5097	0.8607	0.8507	0.054
Mof_C 	C 	0.515	0.9121	0.9852	0.056
Mof_H 	H 	0.4837	0.9011	0.989	-0.021
Mof_Ag	Ag	0.14071	0.81727	0.50314	0.451
Mof_O 	O 	0.33533	0.99061	0.68627	-0.218
Mof_N 	N 	0.20089	0.85667	0.64807	-0.197
Mof_N 	N 	0.28454	0.07499	0.60627	-0.195
Mof_C 	C 	0.22603	0.90167	0.63607	0.041
Mof_H 	H 	0.21633	0.91717	0.56787	-0.008
Mof_C 	C 	0.26553	0.92557	0.72077	-0.07
Mof_C 	C 	0.27933	0.90337	0.82437	0.014
Mof_H 	H 	0.30663	0.91917	0.88177	0.035
Mof_C 	C 	0.25223	0.85757	0.84177	-0.126
Mof_H 	H 	0.26003	0.84147	0.91467	0.049
Mof_C 	C 	0.21373	0.83577	0.75107	0.056
Mof_H 	H 	0.19543	0.80427	0.76267	-0.018
Mof_C 	C 	0.29533	0.97517	0.69737	0.176
Mof_C 	C 	0.29833	0.04507	0.61097	0.049
Mof_H 	H 	0.32543	0.05207	0.55787	0.023
Mof_C 	C 	0.27513	0.00427	0.68967	-0.07
Mof_C 	C 	0.23543	0.99387	0.76757	0.018
Mof_H 	H 	0.21873	0.96637	0.82297	0.015
Mof_C 	C 	0.22093	0.02397	0.76307	-0.112
Mof_H 	H 	0.19403	0.01767	0.81597	0.054
Mof_C 	C 	0.24543	0.06377	0.68147	0.055
Mof_H 	H 	0.23443	0.08407	0.67767	-0.021
Mof_Ag	Ag	0.18273	0.32344	0.50314	0.451
Mof_O 	O 	0.00939	0.34473	0.68627	-0.219
Mof_N 	N 	0.14333	0.34423	0.64807	-0.197
Mof_N 	N 	0.92501	0.20956	0.60627	-0.195
Mof_C 	C 	0.09833	0.32437	0.63607	0.041
Mof_H 	H 	0.08283	0.29917	0.56787	-0.008
Mof_C 	C 	0.07443	0.33997	0.72077	-0.07
Mof_C 	C 	0.09663	0.37597	0.82437	0.014
Mof_H 	H 	0.08083	0.38747	0.88177	0.035
Mof_C 	C 	0.14243	0.39467	0.84177	-0.126
Mof_H 	H 	0.15853	0.41857	0.91467	0.049
Mof_C 	C 	0.16423	0.37797	0.75107	0.056
Mof_H 	H 	0.19573	0.39117	0.76267	-0.018
Mof_C 	C 	0.02483	0.32017	0.69737	0.177
Mof_C 	C 	0.95493	0.25327	0.61097	0.049
Mof_H 	H 	0.94793	0.27337	0.55787	0.023
Mof_C 	C 	0.99573	0.27087	0.68967	-0.07
Mof_C 	C 	0.00613	0.24157	0.76757	0.018
Mof_H 	H 	0.03363	0.25237	0.82297	0.015
Mof_C 	C 	0.97603	0.19697	0.76307	-0.113
Mof_H 	H 	0.98233	0.17637	0.81597	0.054
Mof_C 	C 	0.93623	0.18167	0.68147	0.055
Mof_H 	H 	0.91593	0.15037	0.67767	-0.022
Mof_Ag	Ag	0.67656	0.85929	0.50314	0.451
Mof_O 	O 	0.65527	0.66467	0.68627	-0.218
Mof_N 	N 	0.65577	0.79911	0.64807	-0.197
Mof_N 	N 	0.79044	0.71546	0.60627	-0.195
Mof_C 	C 	0.67563	0.77397	0.63607	0.041
Mof_H 	H 	0.70083	0.78367	0.56787	-0.008
Mof_C 	C 	0.66003	0.73447	0.72077	-0.07
Mof_C 	C 	0.62403	0.72067	0.82437	0.014
Mof_H 	H 	0.61253	0.69337	0.88177	0.035
Mof_C 	C 	0.60533	0.74777	0.84177	-0.126
Mof_H 	H 	0.58143	0.73997	0.91467	0.049
Mof_C 	C 	0.62203	0.78627	0.75107	0.056
Mof_H 	H 	0.60883	0.80457	0.76267	-0.018
Mof_C 	C 	0.67983	0.70467	0.69737	0.176
Mof_C 	C 	0.74673	0.70167	0.61097	0.049
Mof_H 	H 	0.72663	0.67457	0.55787	0.023
Mof_C 	C 	0.72913	0.72487	0.68967	-0.07
Mof_C 	C 	0.75843	0.76457	0.76757	0.018
Mof_H 	H 	0.74763	0.78127	0.82297	0.015
Mof_C 	C 	0.80303	0.77907	0.76307	-0.112
Mof_H 	H 	0.82363	0.80597	0.81597	0.054
Mof_C 	C 	0.81833	0.75457	0.68147	0.055
Mof_H 	H 	0.84963	0.76557	0.67767	-0.021
Mof_Ag	Ag	0.85929	0.18273	0.49686	0.451
Mof_O 	O 	0.66467	0.00939	0.31373	-0.218
Mof_N 	N 	0.79911	0.14333	0.35193	-0.197
Mof_N 	N 	0.71546	0.92501	0.39373	-0.195
Mof_C 	C 	0.77397	0.09833	0.36393	0.041
Mof_H 	H 	0.78367	0.08283	0.43213	-0.008
Mof_C 	C 	0.73447	0.07443	0.27923	-0.07
Mof_C 	C 	0.72067	0.09663	0.17563	0.014
Mof_H 	H 	0.69337	0.08083	0.11823	0.035
Mof_C 	C 	0.74777	0.14243	0.15823	-0.126
Mof_H 	H 	0.73997	0.15853	0.08533	0.049
Mof_C 	C 	0.78627	0.16423	0.24893	0.056
Mof_H 	H 	0.80457	0.19573	0.23733	-0.018
Mof_C 	C 	0.70467	0.02483	0.30263	0.176
Mof_C 	C 	0.70167	0.95493	0.38903	0.049
Mof_H 	H 	0.67457	0.94793	0.44213	0.023
Mof_C 	C 	0.72487	0.99573	0.31033	-0.07
Mof_C 	C 	0.76457	0.00613	0.23243	0.018
Mof_H 	H 	0.78127	0.03363	0.17703	0.015
Mof_C 	C 	0.77907	0.97603	0.23693	-0.112
Mof_H 	H 	0.80597	0.98233	0.18403	0.054
Mof_C 	C 	0.75457	0.93623	0.31853	0.055
Mof_H 	H 	0.76557	0.91593	0.32233	-0.021
Mof_Ag	Ag	0.81727	0.67656	0.49686	0.451
Mof_O 	O 	0.99061	0.65527	0.31373	-0.219
Mof_N 	N 	0.85667	0.65577	0.35193	-0.197
Mof_N 	N 	0.07499	0.79044	0.39373	-0.195
Mof_C 	C 	0.90167	0.67563	0.36393	0.041
Mof_H 	H 	0.91717	0.70083	0.43213	-0.008
Mof_C 	C 	0.92557	0.66003	0.27923	-0.07
Mof_C 	C 	0.90337	0.62403	0.17563	0.014
Mof_H 	H 	0.91917	0.61253	0.11823	0.035
Mof_C 	C 	0.85757	0.60533	0.15823	-0.126
Mof_H 	H 	0.84147	0.58143	0.08533	0.049
Mof_C 	C 	0.83577	0.62203	0.24893	0.056
Mof_H 	H 	0.80427	0.60883	0.23733	-0.018
Mof_C 	C 	0.97517	0.67983	0.30263	0.177
Mof_C 	C 	0.04507	0.74673	0.38903	0.049
Mof_H 	H 	0.05207	0.72663	0.44213	0.023
Mof_C 	C 	0.00427	0.72913	0.31033	-0.07
Mof_C 	C 	0.99387	0.75843	0.23243	0.018
Mof_H 	H 	0.96637	0.74763	0.17703	0.015
Mof_C 	C 	0.02397	0.80303	0.23693	-0.113
Mof_H 	H 	0.01767	0.82363	0.18403	0.054
Mof_C 	C 	0.06377	0.81833	0.31853	0.055
Mof_H 	H 	0.08407	0.84963	0.32233	-0.022
Mof_Ag	Ag	0.32344	0.14071	0.49686	0.451
Mof_O 	O 	0.34473	0.33533	0.31373	-0.218
Mof_N 	N 	0.34423	0.20089	0.35193	-0.197
Mof_N 	N 	0.20956	0.28454	0.39373	-0.195
Mof_C 	C 	0.32437	0.22603	0.36393	0.041
Mof_H 	H 	0.29917	0.21633	0.43213	-0.008
Mof_C 	C 	0.33997	0.26553	0.27923	-0.07
Mof_C 	C 	0.37597	0.27933	0.17563	0.014
Mof_H 	H 	0.38747	0.30663	0.11823	0.035
Mof_C 	C 	0.39467	0.25223	0.15823	-0.126
Mof_H 	H 	0.41857	0.26003	0.08533	0.049
Mof_C 	C 	0.37797	0.21373	0.24893	0.056
Mof_H 	H 	0.39117	0.19543	0.23733	-0.018
Mof_C 	C 	0.32017	0.29533	0.30263	0.176
Mof_C 	C 	0.25327	0.29833	0.38903	0.049
Mof_H 	H 	0.27337	0.32543	0.44213	0.023
Mof_C 	C 	0.27087	0.27513	0.31033	-0.07
Mof_C 	C 	0.24157	0.23543	0.23243	0.018
Mof_H 	H 	0.25237	0.21873	0.17703	0.015
Mof_C 	C 	0.19697	0.22093	0.23693	-0.112
Mof_H 	H 	0.17637	0.19403	0.18403	0.054
Mof_C 	C 	0.18167	0.24543	0.31853	0.055
Mof_H 	H 	0.15037	0.23443	0.32233	-0.021
_end
