data_functionalizedCrystal
_audit_creation_method	'EQeq! by Chris Wilmer'
_symmetry_space_group_name_H-M	'P1'
_symmetry_Int_Tables_number	1
_symmetry_cell_setting	triclinic
loop_
_symmetry_equiv_pos_as_xyz
  x,y,z
_cell_length_a	20.117
_cell_length_b	19.565
_cell_length_c	5.961
_cell_angle_alpha	90
_cell_angle_beta	114.04
_cell_angle_gamma	90
loop_
_atom_site_label
_atom_site_type_symbol
_atom_site_fract_x
_atom_site_fract_y
_atom_site_fract_z
_atom_site_charge
Mof_N 	N 	0.5816	0.0524	0.117	-0.338
Mof_H 	H 	0.5859	0.0724	0.258	0.07
Mof_H 	H 	0.6209	0.0257	0.1492	0.066
Mof_N 	N 	0.6449	0.2036	0.864	-0.249
Mof_H 	H 	0.6113	0.2342	0.8619	0.085
Mof_H 	H 	0.6327	0.1884	0.7094	0.07
Mof_N 	N 	0.8368	0.1932	0.605	-0.32
Mof_H 	H 	0.8756	0.2195	0.6248	0.095
Mof_H 	H 	0.8447	0.1738	0.7502	0.091
Mof_N 	N 	0.8962	0.0469	0.374	-0.257
Mof_H 	H 	0.8817	0.0601	0.2161	0.066
Mof_H 	H 	0.8631	0.0175	0.3836	0.066
Mof_C 	C 	0.5789	0.1046	0.94	0.084
Mof_H 	H 	0.5382	0.1349	0.9125	-0.021
Mof_H 	H 	0.5713	0.0831	0.7848	-0.058
Mof_C 	C 	0.6483	0.1457	0.029	-0.158
Mof_H 	H 	0.6582	0.1634	0.1915	0.015
Mof_H 	H 	0.6883	0.1159	0.0423	0.023
Mof_C 	C 	0.8294	0.1399	0.425	-0.001
Mof_H 	H 	0.8191	0.1591	0.2642	-0.033
Mof_H 	H 	0.7916	0.1075	0.4126	-0.015
Mof_C 	C 	0.9038	0.1074	0.535	-0.083
Mof_H 	H 	0.9407	0.1386	0.5304	0.032
Mof_H 	H 	0.9162	0.0935	0.7033	0.024
Mof_N 	N 	0.0816	0.5524	0.117	-0.343
Mof_H 	H 	0.0859	0.5724	0.258	0.073
Mof_H 	H 	0.1209	0.5257	0.1492	0.081
Mof_N 	N 	0.1449	0.7036	0.864	-0.245
Mof_H 	H 	0.1113	0.7342	0.8619	0.079
Mof_H 	H 	0.1327	0.6884	0.7094	0.067
Mof_N 	N 	0.3368	0.6932	0.605	-0.316
Mof_H 	H 	0.3756	0.7195	0.6248	0.089
Mof_H 	H 	0.3447	0.6738	0.7502	0.088
Mof_N 	N 	0.3962	0.5469	0.374	-0.282
Mof_H 	H 	0.3817	0.5601	0.2161	0.067
Mof_H 	H 	0.3631	0.5175	0.3836	0.078
Mof_C 	C 	0.0789	0.6046	0.94	0.099
Mof_H 	H 	0.0382	0.6349	0.9125	-0.041
Mof_H 	H 	0.0713	0.5831	0.7848	-0.064
Mof_C 	C 	0.1483	0.6457	0.029	-0.168
Mof_H 	H 	0.1582	0.6634	0.1915	0.018
Mof_H 	H 	0.1883	0.6159	0.0423	0.03
Mof_C 	C 	0.3294	0.6399	0.425	-0.015
Mof_H 	H 	0.3191	0.6591	0.2642	-0.03
Mof_H 	H 	0.2916	0.6075	0.4126	-0.006
Mof_C 	C 	0.4038	0.6074	0.535	-0.062
Mof_H 	H 	0.4407	0.6386	0.5304	0.007
Mof_H 	H 	0.4162	0.5935	0.7033	0.003
Mof_N 	N 	0.4184	0.0524	0.383	-0.317
Mof_H 	H 	0.4141	0.0724	0.242	0.062
Mof_H 	H 	0.3791	0.0257	0.3508	0.064
Mof_N 	N 	0.3551	0.2036	0.636	-0.289
Mof_H 	H 	0.3887	0.2342	0.6381	0.087
Mof_H 	H 	0.3673	0.1884	0.7906	0.085
Mof_N 	N 	0.1632	0.1932	0.895	-0.268
Mof_H 	H 	0.1244	0.2195	0.8752	0.08
Mof_H 	H 	0.1553	0.1738	0.7498	0.071
Mof_N 	N 	0.1038	0.0469	0.126	-0.293
Mof_H 	H 	0.1183	0.0601	0.2839	0.07
Mof_H 	H 	0.1369	0.0175	0.1164	0.063
Mof_C 	C 	0.4211	0.1046	0.56	-0.043
Mof_H 	H 	0.4618	0.1349	0.5875	0.008
Mof_H 	H 	0.4287	0.0831	0.7152	-0.016
Mof_C 	C 	0.3517	0.1457	0.471	-0.036
Mof_H 	H 	0.3418	0.1634	0.3085	-0.018
Mof_H 	H 	0.3117	0.1159	0.4577	-0.005
Mof_C 	C 	0.1706	0.1399	0.075	-0.133
Mof_H 	H 	0.1809	0.1591	0.2358	0.002
Mof_H 	H 	0.2084	0.1075	0.0874	0.018
Mof_C 	C 	0.0962	0.1074	0.965	0.055
Mof_H 	H 	0.0593	0.1386	0.9696	-0.023
Mof_H 	H 	0.0838	0.0935	0.7967	-0.038
Mof_N 	N 	0.9184	0.5524	0.383	-0.307
Mof_H 	H 	0.9141	0.5724	0.242	0.075
Mof_H 	H 	0.8791	0.5257	0.3508	0.08
Mof_N 	N 	0.8551	0.7036	0.636	-0.294
Mof_H 	H 	0.8887	0.7342	0.6381	0.095
Mof_H 	H 	0.8673	0.6884	0.7906	0.091
Mof_N 	N 	0.6632	0.6932	0.895	-0.27
Mof_H 	H 	0.6244	0.7195	0.8752	0.085
Mof_H 	H 	0.6553	0.6738	0.7498	0.074
Mof_N 	N 	0.6038	0.5469	0.126	-0.305
Mof_H 	H 	0.6183	0.5601	0.2839	0.078
Mof_H 	H 	0.6369	0.5175	0.1164	0.077
Mof_C 	C 	0.9211	0.6046	0.56	-0.055
Mof_H 	H 	0.9618	0.6349	0.5875	0.03
Mof_H 	H 	0.9287	0.5831	0.7152	0.006
Mof_C 	C 	0.8517	0.6457	0.471	-0.026
Mof_H 	H 	0.8418	0.6634	0.3085	-0.018
Mof_H 	H 	0.8117	0.6159	0.4577	-0.003
Mof_C 	C 	0.6706	0.6399	0.075	-0.136
Mof_H 	H 	0.6809	0.6591	0.2358	0.004
Mof_H 	H 	0.7084	0.6075	0.0874	0.023
Mof_C 	C 	0.5962	0.6074	0.965	0.06
Mof_H 	H 	0.5593	0.6386	0.9696	-0.017
Mof_H 	H 	0.5838	0.5935	0.7967	-0.037
Mof_N 	N 	0.4184	0.9476	0.883	-0.271
Mof_H 	H 	0.4141	0.9276	0.742	0.081
Mof_H 	H 	0.3791	0.9743	0.8508	0.102
Mof_N 	N 	0.3551	0.7964	0.136	-0.306
Mof_H 	H 	0.3887	0.7658	0.1381	0.078
Mof_H 	H 	0.3673	0.8116	0.2906	0.078
Mof_N 	N 	0.1632	0.8068	0.395	-0.305
Mof_H 	H 	0.1244	0.7805	0.3752	0.075
Mof_H 	H 	0.1553	0.8262	0.2498	0.071
Mof_N 	N 	0.1038	0.9531	0.626	-0.277
Mof_H 	H 	0.1183	0.9399	0.7839	0.101
Mof_H 	H 	0.1369	0.9825	0.6164	0.107
Mof_C 	C 	0.4211	0.8954	0.06	-0.139
Mof_H 	H 	0.4618	0.8651	0.0875	0.029
Mof_H 	H 	0.4287	0.9169	0.2152	0.015
Mof_C 	C 	0.3517	0.8543	0.971	0.062
Mof_H 	H 	0.3418	0.8366	0.8085	-0.037
Mof_H 	H 	0.3117	0.8841	0.9577	-0.012
Mof_C 	C 	0.1706	0.8601	0.575	-0.042
Mof_H 	H 	0.1809	0.8409	0.7358	-0.008
Mof_H 	H 	0.2084	0.8925	0.5874	0.012
Mof_C 	C 	0.0962	0.8926	0.465	-0.036
Mof_H 	H 	0.0593	0.8614	0.4696	-0.004
Mof_H 	H 	0.0838	0.9065	0.2967	-0.002
Mof_N 	N 	0.9184	0.4476	0.883	-0.267
Mof_H 	H 	0.9141	0.4276	0.742	0.079
Mof_H 	H 	0.8791	0.4743	0.8508	0.086
Mof_N 	N 	0.8551	0.2964	0.136	-0.309
Mof_H 	H 	0.8887	0.2658	0.1381	0.086
Mof_H 	H 	0.8673	0.3116	0.2906	0.082
Mof_N 	N 	0.6632	0.3068	0.395	-0.307
Mof_H 	H 	0.6244	0.2805	0.3752	0.079
Mof_H 	H 	0.6553	0.3262	0.2498	0.069
Mof_N 	N 	0.6038	0.4531	0.626	-0.29
Mof_H 	H 	0.6183	0.4399	0.7839	0.088
Mof_H 	H 	0.6369	0.4825	0.6164	0.087
Mof_C 	C 	0.9211	0.3954	0.06	-0.152
Mof_H 	H 	0.9618	0.3651	0.0875	0.049
Mof_H 	H 	0.9287	0.4169	0.2152	0.02
Mof_C 	C 	0.8517	0.3543	0.971	0.072
Mof_H 	H 	0.8418	0.3366	0.8085	-0.039
Mof_H 	H 	0.8117	0.3841	0.9577	-0.02
Mof_C 	C 	0.6706	0.3601	0.575	-0.037
Mof_H 	H 	0.6809	0.3409	0.7358	-0.011
Mof_H 	H 	0.7084	0.3925	0.5874	0.004
Mof_C 	C 	0.5962	0.3926	0.465	-0.041
Mof_H 	H 	0.5593	0.3614	0.4696	-0
Mof_H 	H 	0.5838	0.4065	0.2967	-0.014
Mof_N 	N 	0.5816	0.9476	0.617	-0.322
Mof_H 	H 	0.5859	0.9276	0.758	0.096
Mof_H 	H 	0.6209	0.9743	0.6492	0.108
Mof_N 	N 	0.6449	0.7964	0.364	-0.281
Mof_H 	H 	0.6113	0.7658	0.3619	0.077
Mof_H 	H 	0.6327	0.8116	0.2094	0.067
Mof_N 	N 	0.8368	0.8068	0.105	-0.333
Mof_H 	H 	0.8756	0.7805	0.1248	0.087
Mof_H 	H 	0.8447	0.8262	0.2502	0.086
Mof_N 	N 	0.8962	0.9531	0.874	-0.226
Mof_H 	H 	0.8817	0.9399	0.7161	0.092
Mof_H 	H 	0.8631	0.9825	0.8836	0.108
Mof_C 	C 	0.5789	0.8954	0.44	-0.017
Mof_H 	H 	0.5382	0.8651	0.4125	-0.001
Mof_H 	H 	0.5713	0.9169	0.2848	-0.018
Mof_C 	C 	0.6483	0.8543	0.529	-0.061
Mof_H 	H 	0.6582	0.8366	0.6915	0.002
Mof_H 	H 	0.6883	0.8841	0.5423	0.014
Mof_C 	C 	0.8294	0.8601	0.925	0.092
Mof_H 	H 	0.8191	0.8409	0.7642	-0.053
Mof_H 	H 	0.7916	0.8925	0.9126	-0.02
Mof_C 	C 	0.9038	0.8926	0.035	-0.171
Mof_H 	H 	0.9407	0.8614	0.0304	0.052
Mof_H 	H 	0.9162	0.9065	0.2033	0.053
Mof_N 	N 	0.0816	0.4476	0.617	-0.332
Mof_H 	H 	0.0859	0.4276	0.758	0.083
Mof_H 	H 	0.1209	0.4743	0.6492	0.091
Mof_N 	N 	0.1449	0.2964	0.364	-0.277
Mof_H 	H 	0.1113	0.2658	0.3619	0.071
Mof_H 	H 	0.1327	0.3116	0.2094	0.061
Mof_N 	N 	0.3368	0.3068	0.105	-0.329
Mof_H 	H 	0.3756	0.2805	0.1248	0.08
Mof_H 	H 	0.3447	0.3262	0.2502	0.079
Mof_N 	N 	0.3962	0.4531	0.874	-0.249
Mof_H 	H 	0.3817	0.4399	0.7161	0.073
Mof_H 	H 	0.3631	0.4825	0.8836	0.086
Mof_C 	C 	0.0789	0.3954	0.44	-0.005
Mof_H 	H 	0.0382	0.3651	0.4125	-0.023
Mof_H 	H 	0.0713	0.4169	0.2848	-0.04
Mof_C 	C 	0.1483	0.3543	0.529	-0.07
Mof_H 	H 	0.1582	0.3366	0.6915	0.003
Mof_H 	H 	0.1883	0.3841	0.5423	0.012
Mof_C 	C 	0.3294	0.3601	0.925	0.089
Mof_H 	H 	0.3191	0.3409	0.7642	-0.054
Mof_H 	H 	0.2916	0.3925	0.9126	-0.025
Mof_C 	C 	0.4038	0.3926	0.035	-0.162
Mof_H 	H 	0.4407	0.3614	0.0304	0.026
Mof_H 	H 	0.4162	0.4065	0.2033	0.02
Mof_Ag	Ag	0.5	0	-0	0.344
Mof_Ag	Ag	-0	0.5	-0	0.348
Mof_Ag	Ag	0.5	1.47266e-33	0.5	0.446
Mof_Ag	Ag	1.32646e-17	0.5	0.5	0.447
Mof_Ag	Ag	0.75	0.25	-0	0.292
Mof_Ag	Ag	0.25	0.25	0.5	0.38
Mof_Ag	Ag	0.25	0.75	-0	0.292
Mof_Ag	Ag	0.75	0.75	0.5	0.385
Mof_Ag	Ag	0.75	0.25	0.5	0.454
Mof_Ag	Ag	0.25	0.25	-0	0.358
Mof_Ag	Ag	0.25	0.75	0.5	0.455
Mof_Ag	Ag	0.75	0.75	-0	0.364
Mof_Ag	Ag	7.81803e-34	1.47266e-33	0.5	0.276
Mof_Ag	Ag	0.5	0.5	0.5	0.389
Mof_Ag	Ag	-0	0	-0	0.191
Mof_Ag	Ag	0.5	0.5	-0	0.297
_end
