# CIF file generated by openbabel 3.1.0, see https://openbabel.org
data_I
_chemical_name_common 'image0'
_cell_length_a 15.9333
_cell_length_b 15.9333
_cell_length_c 21.1312
_cell_angle_alpha 90
_cell_angle_beta 90
_cell_angle_gamma 90
_space_group_name_H-M_alt 'P 1'
_space_group_name_Hall 'P 1'
loop_
    _symmetry_equiv_pos_as_xyz
    x,y,z
loop_
    _atom_site_label
    _atom_site_type_symbol
    _atom_site_fract_x
    _atom_site_fract_y
    _atom_site_fract_z
    _atom_site_occupancy
    C1       C        0.30190    0.43060    0.19000    1.000
    H1       H        0.34030    0.43790    0.15740    1.000
    C2       C        0.25340    0.46530    0.28880    1.000
    H2       H        0.25750    0.49660    0.32590    1.000
    C3       C        0.18810    0.41040    0.28260    1.000
    H3       H        0.14920    0.40580    0.31520    1.000
    C4       C        0.17820    0.36070    0.22830    1.000
    C5       C        0.23890    0.37490    0.18160    1.000
    H4       H        0.23580    0.34530    0.14380    1.000
    C6       C        0.11220    0.29640    0.22230    1.000
    C7       C        0.03730    0.30040    0.25800    1.000
    H5       H        0.02870    0.34490    0.28570    1.000
    C8       C        0.97840    0.24030    0.25210    1.000
    H6       H        0.92920    0.24490    0.27560    1.000
    C9       C        0.98880    0.17100    0.21170    1.000
    H7       H        0.94760    0.12990    0.20820    1.000
    C10      C        0.06330    0.16630    0.17720    1.000
    C11      C        0.12280    0.22760    0.18280    1.000
    H8       H        0.17200    0.22300    0.15940    1.000
    C12      C        0.07120    0.09410    0.13370    1.000
    C13      C        0.12310    0.99670    0.07020    1.000
    C14      C        0.18470    0.94250    0.03950    1.000
    C15      C        0.21710    0.96310    0.97930    1.000
    H9       H        0.19810    0.01020    0.95750    1.000
    C16      C        0.27820    0.91120    0.95340    1.000
    H10      H        0.30100    0.92430    0.91410    1.000
    C17      C        0.30570    0.84030    0.98520    1.000
    H11      H        0.34550    0.80570    0.96640    1.000
    C18      C        0.27460    0.82000    0.04490    1.000
    C19      C        0.21380    0.87190    0.07090    1.000
    H12      H        0.19210    0.85900    0.11060    1.000
    C20      C        0.30590    0.74640    0.08100    1.000
    C21      C        0.26230    0.71750    0.13480    1.000
    H13      H        0.21000    0.73970    0.14510    1.000
    C22      C        0.29860    0.65480    0.17270    1.000
    H14      H        0.26920    0.63710    0.20830    1.000
    C23      C        0.41010    0.64220    0.10670    1.000
    H15      H        0.45990    0.61580    0.09550    1.000
    C24      C        0.37720    0.70450    0.06680    1.000
    H16      H        0.40520    0.71730    0.02950    1.000
    N1       N        0.03960    0.99240    0.06840    1.000
    N2       N        0.00790    0.05470    0.10890    1.000
    N3       N        0.14480    0.05940    0.11100    1.000
    N4       N        0.22590    0.08310    0.12950    1.000
    H17      H        0.25570    0.03720    0.13790    1.000
    H18      H        0.25030    0.11150    0.09820    1.000
    N5       N        0.31200    0.47630    0.24370    1.000
    N6       N        0.37160    0.61960    0.16090    1.000
    C25      C        0.69810    0.56940    0.69000    1.000
    H19      H        0.65970    0.56210    0.65740    1.000
    C26      C        0.74660    0.53470    0.78880    1.000
    H20      H        0.74250    0.50340    0.82590    1.000
    C27      C        0.81190    0.58960    0.78260    1.000
    H21      H        0.85080    0.59420    0.81520    1.000
    C28      C        0.82180    0.63930    0.72830    1.000
    C29      C        0.76110    0.62510    0.68160    1.000
    H22      H        0.76420    0.65470    0.64380    1.000
    C30      C        0.88780    0.70360    0.72230    1.000
    C31      C        0.96270    0.69960    0.75800    1.000
    H23      H        0.97130    0.65510    0.78570    1.000
    C32      C        0.02160    0.75970    0.75210    1.000
    H24      H        0.07080    0.75510    0.77560    1.000
    C33      C        0.01120    0.82900    0.71170    1.000
    H25      H        0.05240    0.87010    0.70820    1.000
    C34      C        0.93670    0.83370    0.67720    1.000
    C35      C        0.87720    0.77240    0.68280    1.000
    H26      H        0.82800    0.77700    0.65940    1.000
    C36      C        0.92880    0.90590    0.63370    1.000
    C37      C        0.87690    0.00330    0.57020    1.000
    C38      C        0.81530    0.05750    0.53950    1.000
    C39      C        0.78290    0.03690    0.47930    1.000
    H27      H        0.80190    0.98980    0.45750    1.000
    C40      C        0.72180    0.08880    0.45340    1.000
    H28      H        0.69900    0.07570    0.41410    1.000
    C41      C        0.69430    0.15970    0.48520    1.000
    H29      H        0.65450    0.19430    0.46640    1.000
    C42      C        0.72540    0.18000    0.54490    1.000
    C43      C        0.78620    0.12810    0.57090    1.000
    H30      H        0.80790    0.14100    0.61060    1.000
    C44      C        0.69410    0.25360    0.58100    1.000
    C45      C        0.73770    0.28250    0.63480    1.000
    H31      H        0.79000    0.26030    0.64510    1.000
    C46      C        0.70140    0.34520    0.67270    1.000
    H32      H        0.73080    0.36290    0.70830    1.000
    C47      C        0.58990    0.35780    0.60670    1.000
    H33      H        0.54010    0.38420    0.59550    1.000
    C48      C        0.62280    0.29550    0.56680    1.000
    H34      H        0.59480    0.28270    0.52950    1.000
    N7       N        0.96040    0.00760    0.56840    1.000
    N8       N        0.99210    0.94530    0.60890    1.000
    N9       N        0.85520    0.94060    0.61100    1.000
    N10      N        0.77410    0.91690    0.62950    1.000
    H35      H        0.74430    0.96280    0.63790    1.000
    H36      H        0.74970    0.88850    0.59820    1.000
    N11      N        0.68800    0.52370    0.74370    1.000
    N12      N        0.62840    0.38040    0.66090    1.000
    C49      C        0.06940    0.80190    0.94000    1.000
    H37      H        0.06210    0.84030    0.90740    1.000
    C50      C        0.03470    0.75340    0.03880    1.000
    H38      H        0.00340    0.75750    0.07590    1.000
    C51      C        0.08960    0.68810    0.03260    1.000
    H39      H        0.09420    0.64920    0.06520    1.000
    C52      C        0.13930    0.67820    0.97830    1.000
    C53      C        0.12510    0.73890    0.93160    1.000
    H40      H        0.15470    0.73580    0.89380    1.000
    C54      C        0.20360    0.61220    0.97230    1.000
    C55      C        0.19960    0.53730    0.00800    1.000
    H41      H        0.15510    0.52870    0.03570    1.000
    C56      C        0.25970    0.47840    0.00210    1.000
    H42      H        0.25510    0.42920    0.02560    1.000
    C57      C        0.32900    0.48880    0.96170    1.000
    H43      H        0.37010    0.44760    0.95820    1.000
    C58      C        0.33370    0.56330    0.92720    1.000
    C59      C        0.27240    0.62280    0.93280    1.000
    H44      H        0.27700    0.67200    0.90940    1.000
    C60      C        0.40590    0.57120    0.88370    1.000
    C61      C        0.50330    0.62310    0.82020    1.000
    C62      C        0.55750    0.68470    0.78950    1.000
    C63      C        0.53690    0.71710    0.72930    1.000
    H45      H        0.48980    0.69810    0.70750    1.000
    C64      C        0.58880    0.77820    0.70340    1.000
    H46      H        0.57570    0.80100    0.66410    1.000
    C65      C        0.65970    0.80570    0.73520    1.000
    H47      H        0.69430    0.84550    0.71640    1.000
    C66      C        0.68000    0.77460    0.79490    1.000
    C67      C        0.62810    0.71380    0.82090    1.000
    H48      H        0.64100    0.69210    0.86060    1.000
    C68      C        0.75360    0.80590    0.83100    1.000
    C69      C        0.78250    0.76230    0.88480    1.000
    H49      H        0.76030    0.71000    0.89510    1.000
    C70      C        0.84520    0.79860    0.92270    1.000
    H50      H        0.86290    0.76920    0.95830    1.000
    C71      C        0.85780    0.91010    0.85670    1.000
    H51      H        0.88420    0.95990    0.84550    1.000
    C72      C        0.79550    0.87720    0.81680    1.000
    H52      H        0.78270    0.90520    0.77950    1.000
    N13      N        0.50760    0.53960    0.81840    1.000
    N14      N        0.44530    0.50790    0.85890    1.000
    N15      N        0.44060    0.64480    0.86100    1.000
    N16      N        0.41690    0.72590    0.87950    1.000
    H53      H        0.46280    0.75570    0.88790    1.000
    H54      H        0.38850    0.75030    0.84820    1.000
    N17      N        0.02370    0.81200    0.99370    1.000
    N18      N        0.88040    0.87160    0.91090    1.000
    C73      C        0.93060    0.19810    0.44000    1.000
    H55      H        0.93790    0.15970    0.40740    1.000
    C74      C        0.96530    0.24660    0.53880    1.000
    H56      H        0.99660    0.24250    0.57590    1.000
    C75      C        0.91040    0.31190    0.53260    1.000
    H57      H        0.90580    0.35080    0.56520    1.000
    C76      C        0.86070    0.32180    0.47830    1.000
    C77      C        0.87490    0.26110    0.43160    1.000
    H58      H        0.84530    0.26420    0.39380    1.000
    C78      C        0.79640    0.38780    0.47230    1.000
    C79      C        0.80040    0.46270    0.50800    1.000
    H59      H        0.84490    0.47130    0.53570    1.000
    C80      C        0.74030    0.52160    0.50210    1.000
    H60      H        0.74490    0.57080    0.52560    1.000
    C81      C        0.67100    0.51120    0.46170    1.000
    H61      H        0.62990    0.55240    0.45820    1.000
    C82      C        0.66630    0.43670    0.42720    1.000
    C83      C        0.72760    0.37720    0.43280    1.000
    H62      H        0.72300    0.32800    0.40940    1.000
    C84      C        0.59410    0.42880    0.38370    1.000
    C85      C        0.49670    0.37690    0.32020    1.000
    C86      C        0.44250    0.31530    0.28950    1.000
    C87      C        0.46310    0.28290    0.22930    1.000
    H63      H        0.51020    0.30190    0.20750    1.000
    C88      C        0.41120    0.22180    0.20340    1.000
    H64      H        0.42430    0.19900    0.16410    1.000
    C89      C        0.34030    0.19430    0.23520    1.000
    H65      H        0.30570    0.15450    0.21640    1.000
    C90      C        0.32000    0.22540    0.29490    1.000
    C91      C        0.37190    0.28620    0.32090    1.000
    H66      H        0.35900    0.30790    0.36060    1.000
    C92      C        0.24640    0.19410    0.33100    1.000
    C93      C        0.21750    0.23770    0.38480    1.000
    H67      H        0.23970    0.29000    0.39510    1.000
    C94      C        0.15480    0.20140    0.42270    1.000
    H68      H        0.13710    0.23080    0.45830    1.000
    C95      C        0.14220    0.08990    0.35670    1.000
    H69      H        0.11580    0.04010    0.34550    1.000
    C96      C        0.20450    0.12280    0.31680    1.000
    H70      H        0.21730    0.09480    0.27950    1.000
    N19      N        0.49240    0.46040    0.31840    1.000
    N20      N        0.55470    0.49210    0.35890    1.000
    N21      N        0.55940    0.35520    0.36100    1.000
    N22      N        0.58310    0.27410    0.37950    1.000
    H71      H        0.53720    0.24430    0.38790    1.000
    H72      H        0.61150    0.24970    0.34820    1.000
    N23      N        0.97630    0.18800    0.49370    1.000
    N24      N        0.11960    0.12840    0.41090    1.000
    C97      C        0.19810    0.93060    0.56000    1.000
    H73      H        0.15970    0.93790    0.59260    1.000
    C98      C        0.24660    0.96530    0.46120    1.000
    H74      H        0.24250    0.99660    0.42410    1.000
    C99      C        0.31190    0.91040    0.46740    1.000
    H75      H        0.35080    0.90580    0.43480    1.000
    C100     C        0.32180    0.86070    0.52170    1.000
    C101     C        0.26110    0.87490    0.56840    1.000
    H76      H        0.26420    0.84530    0.60620    1.000
    C102     C        0.38780    0.79640    0.52770    1.000
    C103     C        0.46270    0.80040    0.49200    1.000
    H77      H        0.47130    0.84490    0.46430    1.000
    C104     C        0.52160    0.74030    0.49790    1.000
    H78      H        0.57080    0.74490    0.47440    1.000
    C105     C        0.51120    0.67100    0.53830    1.000
    H79      H        0.55240    0.62990    0.54180    1.000
    C106     C        0.43670    0.66630    0.57280    1.000
    C107     C        0.37720    0.72760    0.56720    1.000
    H80      H        0.32800    0.72300    0.59060    1.000
    C108     C        0.42880    0.59410    0.61630    1.000
    C109     C        0.37690    0.49670    0.67980    1.000
    C110     C        0.31530    0.44250    0.71050    1.000
    C111     C        0.28290    0.46310    0.77070    1.000
    H81      H        0.30190    0.51020    0.79250    1.000
    C112     C        0.22180    0.41120    0.79660    1.000
    H82      H        0.19900    0.42430    0.83590    1.000
    C113     C        0.19430    0.34030    0.76480    1.000
    H83      H        0.15450    0.30570    0.78360    1.000
    C114     C        0.22540    0.32000    0.70510    1.000
    C115     C        0.28620    0.37190    0.67910    1.000
    H84      H        0.30790    0.35900    0.63940    1.000
    C116     C        0.19410    0.24640    0.66900    1.000
    C117     C        0.23770    0.21750    0.61520    1.000
    H85      H        0.29000    0.23970    0.60490    1.000
    C118     C        0.20140    0.15480    0.57730    1.000
    H86      H        0.23080    0.13710    0.54170    1.000
    C119     C        0.08990    0.14220    0.64330    1.000
    H87      H        0.04010    0.11580    0.65450    1.000
    C120     C        0.12280    0.20450    0.68320    1.000
    H88      H        0.09480    0.21730    0.72050    1.000
    N25      N        0.46040    0.49240    0.68160    1.000
    N26      N        0.49210    0.55470    0.64110    1.000
    N27      N        0.35520    0.55940    0.63900    1.000
    N28      N        0.27410    0.58310    0.62050    1.000
    H89      H        0.24430    0.53720    0.61210    1.000
    H90      H        0.24970    0.61150    0.65180    1.000
    N29      N        0.18800    0.97630    0.50630    1.000
    N30      N        0.12840    0.11960    0.58910    1.000
    C121     C        0.80190    0.06940    0.06000    1.000
    H91      H        0.84030    0.06210    0.09260    1.000
    C122     C        0.75340    0.03470    0.96120    1.000
    H92      H        0.75750    0.00340    0.92410    1.000
    C123     C        0.68810    0.08960    0.96740    1.000
    H93      H        0.64920    0.09420    0.93480    1.000
    C124     C        0.67820    0.13930    0.02170    1.000
    C125     C        0.73890    0.12510    0.06840    1.000
    H94      H        0.73580    0.15470    0.10620    1.000
    C126     C        0.61220    0.20360    0.02770    1.000
    C127     C        0.53730    0.19960    0.99200    1.000
    H95      H        0.52870    0.15510    0.96430    1.000
    C128     C        0.47840    0.25970    0.99790    1.000
    H96      H        0.42920    0.25510    0.97440    1.000
    C129     C        0.48880    0.32900    0.03830    1.000
    H97      H        0.44760    0.37010    0.04180    1.000
    C130     C        0.56330    0.33370    0.07280    1.000
    C131     C        0.62280    0.27240    0.06720    1.000
    H98      H        0.67200    0.27700    0.09060    1.000
    C132     C        0.57120    0.40590    0.11630    1.000
    C133     C        0.62310    0.50330    0.17980    1.000
    C134     C        0.68470    0.55750    0.21050    1.000
    C135     C        0.71710    0.53690    0.27070    1.000
    H99      H        0.69810    0.48980    0.29250    1.000
    C136     C        0.77820    0.58880    0.29660    1.000
    H100     H        0.80100    0.57570    0.33590    1.000
    C137     C        0.80570    0.65970    0.26480    1.000
    H101     H        0.84550    0.69430    0.28360    1.000
    C138     C        0.77460    0.68000    0.20510    1.000
    C139     C        0.71380    0.62810    0.17910    1.000
    H102     H        0.69210    0.64100    0.13940    1.000
    C140     C        0.80590    0.75360    0.16900    1.000
    C141     C        0.76230    0.78250    0.11520    1.000
    H103     H        0.71000    0.76030    0.10490    1.000
    C142     C        0.79860    0.84520    0.07730    1.000
    H104     H        0.76920    0.86290    0.04170    1.000
    C143     C        0.91010    0.85780    0.14330    1.000
    H105     H        0.95990    0.88420    0.15450    1.000
    C144     C        0.87720    0.79550    0.18320    1.000
    H106     H        0.90520    0.78270    0.22050    1.000
    N31      N        0.53960    0.50760    0.18160    1.000
    N32      N        0.50790    0.44530    0.14110    1.000
    N33      N        0.64480    0.44060    0.13900    1.000
    N34      N        0.72590    0.41690    0.12050    1.000
    H107     H        0.75570    0.46280    0.11210    1.000
    H108     H        0.75030    0.38850    0.15180    1.000
    N35      N        0.81200    0.02370    0.00630    1.000
    N36      N        0.87160    0.88040    0.08910    1.000
    C145     C        0.43060    0.30190    0.81000    1.000
    H109     H        0.43790    0.34030    0.84260    1.000
    C146     C        0.46530    0.25340    0.71120    1.000
    H110     H        0.49660    0.25750    0.67410    1.000
    C147     C        0.41040    0.18810    0.71740    1.000
    H111     H        0.40580    0.14920    0.68480    1.000
    C148     C        0.36070    0.17820    0.77170    1.000
    C149     C        0.37490    0.23890    0.81840    1.000
    H112     H        0.34530    0.23580    0.85620    1.000
    C150     C        0.29640    0.11220    0.77770    1.000
    C151     C        0.30040    0.03730    0.74200    1.000
    H113     H        0.34490    0.02870    0.71430    1.000
    C152     C        0.24030    0.97840    0.74790    1.000
    H114     H        0.24490    0.92920    0.72440    1.000
    C153     C        0.17100    0.98880    0.78830    1.000
    H115     H        0.12990    0.94760    0.79180    1.000
    C154     C        0.16630    0.06330    0.82280    1.000
    C155     C        0.22760    0.12280    0.81720    1.000
    H116     H        0.22300    0.17200    0.84060    1.000
    C156     C        0.09410    0.07120    0.86630    1.000
    C157     C        0.99670    0.12310    0.92980    1.000
    C158     C        0.94250    0.18470    0.96050    1.000
    C159     C        0.96310    0.21710    0.02070    1.000
    H117     H        0.01020    0.19810    0.04250    1.000
    C160     C        0.91120    0.27820    0.04660    1.000
    H118     H        0.92430    0.30100    0.08590    1.000
    C161     C        0.84030    0.30570    0.01480    1.000
    H119     H        0.80570    0.34550    0.03360    1.000
    C162     C        0.82000    0.27460    0.95510    1.000
    C163     C        0.87190    0.21380    0.92910    1.000
    H120     H        0.85900    0.19210    0.88940    1.000
    C164     C        0.74640    0.30590    0.91900    1.000
    C165     C        0.71750    0.26230    0.86520    1.000
    H121     H        0.73970    0.21000    0.85490    1.000
    C166     C        0.65480    0.29860    0.82730    1.000
    H122     H        0.63710    0.26920    0.79170    1.000
    C167     C        0.64220    0.41010    0.89330    1.000
    H123     H        0.61580    0.45990    0.90450    1.000
    C168     C        0.70450    0.37720    0.93320    1.000
    H124     H        0.71730    0.40520    0.97050    1.000
    N37      N        0.99240    0.03960    0.93160    1.000
    N38      N        0.05470    0.00790    0.89110    1.000
    N39      N        0.05940    0.14480    0.88900    1.000
    N40      N        0.08310    0.22590    0.87050    1.000
    H125     H        0.03720    0.25570    0.86210    1.000
    H126     H        0.11150    0.25030    0.90180    1.000
    N41      N        0.47630    0.31200    0.75630    1.000
    N42      N        0.61960    0.37160    0.83910    1.000
    C169     C        0.56940    0.69810    0.31000    1.000
    H127     H        0.56210    0.65970    0.34260    1.000
    C170     C        0.53470    0.74660    0.21120    1.000
    H128     H        0.50340    0.74250    0.17410    1.000
    C171     C        0.58960    0.81190    0.21740    1.000
    H129     H        0.59420    0.85080    0.18480    1.000
    C172     C        0.63930    0.82180    0.27170    1.000
    C173     C        0.62510    0.76110    0.31840    1.000
    H130     H        0.65470    0.76420    0.35620    1.000
    C174     C        0.70360    0.88780    0.27770    1.000
    C175     C        0.69960    0.96270    0.24200    1.000
    H131     H        0.65510    0.97130    0.21430    1.000
    C176     C        0.75970    0.02160    0.24790    1.000
    H132     H        0.75510    0.07080    0.22440    1.000
    C177     C        0.82900    0.01120    0.28830    1.000
    H133     H        0.87010    0.05240    0.29180    1.000
    C178     C        0.83370    0.93670    0.32280    1.000
    C179     C        0.77240    0.87720    0.31720    1.000
    H134     H        0.77700    0.82800    0.34060    1.000
    C180     C        0.90590    0.92880    0.36630    1.000
    C181     C        0.00330    0.87690    0.42980    1.000
    C182     C        0.05750    0.81530    0.46050    1.000
    C183     C        0.03690    0.78290    0.52070    1.000
    H135     H        0.98980    0.80190    0.54250    1.000
    C184     C        0.08880    0.72180    0.54660    1.000
    H136     H        0.07570    0.69900    0.58590    1.000
    C185     C        0.15970    0.69430    0.51480    1.000
    H137     H        0.19430    0.65450    0.53360    1.000
    C186     C        0.18000    0.72540    0.45510    1.000
    C187     C        0.12810    0.78620    0.42910    1.000
    H138     H        0.14100    0.80790    0.38940    1.000
    C188     C        0.25360    0.69410    0.41900    1.000
    C189     C        0.28250    0.73770    0.36520    1.000
    H139     H        0.26030    0.79000    0.35490    1.000
    C190     C        0.34520    0.70140    0.32730    1.000
    H140     H        0.36290    0.73080    0.29170    1.000
    C191     C        0.35780    0.58990    0.39330    1.000
    H141     H        0.38420    0.54010    0.40450    1.000
    C192     C        0.29550    0.62280    0.43320    1.000
    H142     H        0.28270    0.59480    0.47050    1.000
    N43      N        0.00760    0.96040    0.43160    1.000
    N44      N        0.94530    0.99210    0.39110    1.000
    N45      N        0.94060    0.85520    0.38900    1.000
    N46      N        0.91690    0.77410    0.37050    1.000
    H143     H        0.96280    0.74430    0.36210    1.000
    H144     H        0.88850    0.74970    0.40180    1.000
    N47      N        0.52370    0.68800    0.25630    1.000
    N48      N        0.38040    0.62840    0.33910    1.000
    Cd1      Cd       0.93977    0.93977    0.00000    1.000
    Cd2      Cd       0.06023    0.06023    0.50000    1.000
    Cd3      Cd       0.56023    0.43977    0.75000    1.000
    Cd4      Cd       0.43977    0.56023    0.25000    1.000
