data_functionalizedCrystal
_audit_creation_method	'EQeq! by Chris Wilmer'
_symmetry_space_group_name_H-M	'P1'
_symmetry_Int_Tables_number	1
_symmetry_cell_setting	triclinic
loop_
_symmetry_equiv_pos_as_xyz
  x,y,z
_cell_length_a	10.5675
_cell_length_b	11.5148
_cell_length_c	13.4306
_cell_angle_alpha	69.151
_cell_angle_beta	78.569
_cell_angle_gamma	63.228
loop_
_atom_site_label
_atom_site_type_symbol
_atom_site_fract_x
_atom_site_fract_y
_atom_site_fract_z
_atom_site_charge
Mof_U 	U 	0.62428	0.71303	0.83617	0.003
Mof_Tb	Tb	0.60045	0.22954	0.75007	1.514
Mof_O 	O 	0.8515	0.5361	0.9131	-0.196
Mof_O 	O 	0.763	0.4954	0.8016	-0.196
Mof_O 	O 	0.8177	0.233	0.7706	-0.457
Mof_O 	O 	0.8873	0.3633	0.6265	-0.234
Mof_O 	O 	0.4179	0.92	0.8209	-0.22
Mof_O 	O 	0.5038	0.0768	0.7543	-0.442
Mof_O 	O 	0.4823	0.1766	0.9178	-0.432
Mof_O 	O 	0.3245	0.1978	0.0528	-0.215
Mof_O 	O 	0.5014	0.6969	0.7176	-0.198
Mof_O 	O 	0.4105	0.7031	0.5809	-0.283
Mof_O 	O 	0.7338	0.634	0.534	-0.205
Mof_O 	O 	0.8638	0.7486	0.478	-0.205
Mof_C 	C 	0.9983	0.3433	0.8513	-0.018
Mof_C 	C 	0.1116	0.3126	0.9088	-0.028
Mof_H 	H 	0.0965	0.3585	0.9577	0.076
Mof_C 	C 	0.2461	0.2155	0.8949	-0.066
Mof_C 	C 	0.2664	0.1424	0.824	-0.088
Mof_C 	C 	0.1488	0.1659	0.7748	0.024
Mof_H 	H 	0.1601	0.1118	0.7334	0.042
Mof_C 	C 	0.0158	0.2671	0.7856	-0.069
Mof_C 	C 	0.6272	0.9989	0.4499	-0.012
Mof_H 	H 	0.7134	0.9981	0.4164	0.055
Mof_C 	C 	0.6172	0.8755	0.505	-0.041
Mof_C 	C 	0.4881	0.877	0.5564	-0.036
Mof_C 	C 	0.8643	0.4627	0.8567	0.268
Mof_C 	C 	0.3614	0.1948	0.9566	0.341
Mof_C 	C 	0.4082	0.0392	0.7983	0.372
Mof_C 	C 	0.8966	0.2911	0.7241	0.373
Mof_C 	C 	0.467	0.7489	0.622	0.295
Mof_C 	C 	0.7442	0.7465	0.5066	0.276
Mof_U 	U 	0.37572	0.28697	0.16383	0.004
Mof_Tb	Tb	0.39955	0.77046	0.24993	1.514
Mof_O 	O 	0.1485	0.4639	0.0869	-0.196
Mof_O 	O 	0.237	0.5046	0.1984	-0.196
Mof_O 	O 	0.1823	0.767	0.2294	-0.457
Mof_O 	O 	0.1127	0.6367	0.3735	-0.234
Mof_O 	O 	0.5821	0.08	0.1791	-0.22
Mof_O 	O 	0.4962	0.9232	0.2457	-0.442
Mof_O 	O 	0.5177	0.8234	0.0822	-0.432
Mof_O 	O 	0.6755	0.8022	0.9472	-0.215
Mof_O 	O 	0.4986	0.3031	0.2824	-0.198
Mof_O 	O 	0.5895	0.2969	0.4191	-0.283
Mof_O 	O 	0.2662	0.366	0.466	-0.205
Mof_O 	O 	0.1362	0.2514	0.522	-0.205
Mof_C 	C 	0.0017	0.6567	0.1487	-0.019
Mof_C 	C 	0.8884	0.6874	0.0912	-0.027
Mof_H 	H 	0.9035	0.6415	0.0423	0.076
Mof_C 	C 	0.7539	0.7845	0.1051	-0.066
Mof_C 	C 	0.7336	0.8576	0.176	-0.087
Mof_C 	C 	0.8512	0.8341	0.2252	0.023
Mof_H 	H 	0.8399	0.8882	0.2666	0.042
Mof_C 	C 	0.9842	0.7329	0.2144	-0.069
Mof_C 	C 	0.3728	0.0011	0.5501	-0.012
Mof_H 	H 	0.2866	0.0019	0.5836	0.055
Mof_C 	C 	0.3828	0.1245	0.495	-0.041
Mof_C 	C 	0.5119	0.123	0.4436	-0.036
Mof_C 	C 	0.1357	0.5373	0.1433	0.268
Mof_C 	C 	0.6386	0.8052	0.0434	0.342
Mof_C 	C 	0.5918	0.9608	0.2017	0.372
Mof_C 	C 	0.1034	0.7089	0.2759	0.373
Mof_C 	C 	0.533	0.2511	0.378	0.295
Mof_C 	C 	0.2558	0.2535	0.4934	0.276
Mof_U 	U 	-2.08654e-17	0.5	0.5	0.002
_end
