# CIF file generated by openbabel 3.1.0, see https://openbabel.org
data_I
_chemical_name_common 'image0'
_cell_length_a 31.837
_cell_length_b 31.837
_cell_length_c 62.41
_cell_angle_alpha 90
_cell_angle_beta 90
_cell_angle_gamma 120
_space_group_name_H-M_alt 'P 1'
_space_group_name_Hall 'P 1'
loop_
    _symmetry_equiv_pos_as_xyz
    x,y,z
loop_
    _atom_site_label
    _atom_site_type_symbol
    _atom_site_fract_x
    _atom_site_fract_y
    _atom_site_fract_z
    _atom_site_occupancy
    C1       C        0.45830    0.22440    0.36370    1.000
    C2       C        0.44490    0.23340    0.38380    1.000
    H1       H        0.41310    0.22840    0.38560    1.000
    C3       C        0.47650    0.24940    0.40100    1.000
    H2       H        0.46550    0.25370    0.41460    1.000
    C4       C        0.52340    0.25920    0.39890    1.000
    C5       C        0.53730    0.24770    0.37940    1.000
    H3       H        0.56880    0.25200    0.37780    1.000
    C6       C        0.50460    0.23000    0.36250    1.000
    H4       H        0.51410    0.22140    0.34960    1.000
    O1       O        0.43660    0.18030    0.33150    1.000
    N1       N        0.40860    0.15860    0.31270    1.000
    C7       C        0.41850    0.12720    0.30550    1.000
    H5       H        0.44190    0.12270    0.31310    1.000
    C8       C        0.39660    0.09750    0.28660    1.000
    C9       C        0.36300    0.10330    0.27330    1.000
    C10      C        0.34410    0.07200    0.25500    1.000
    C11      C        0.35700    0.03640    0.25090    1.000
    H6       H        0.34350    0.01570    0.23890    1.000
    C12      C        0.38910    0.03100    0.26430    1.000
    C13      C        0.40770    0.06110    0.28190    1.000
    H7       H        0.42900    0.05690    0.29120    1.000
    C14      C        0.31070    0.07420    0.23990    1.000
    H8       H        0.30120    0.05300    0.22790    1.000
    N2       N        0.29330    0.10220    0.24140    1.000
    O2       O        0.26140    0.09320    0.22390    1.000
    C15      C        0.18220    0.12750    0.19380    1.000
    H9       H        0.19380    0.15950    0.19890    1.000
    C16      C        0.15130    0.11220    0.17640    1.000
    H10      H        0.14150    0.13340    0.17050    1.000
    O3       O        0.35110    0.13590    0.27750    1.000
    C17      C        0.40420    0.99320    0.25900    1.000
    O4       O        0.08740    0.07940    0.14149    1.000
    C18      C        0.11620    0.05620    0.34990    1.000
    C19      C        0.12680    0.03150    0.36870    1.000
    H11      H        0.13440    0.00730    0.36310    1.000
    H12      H        0.15450    0.05590    0.37690    1.000
    H13      H        0.09830    0.01560    0.37800    1.000
    C20      C        0.07290    0.01720    0.33730    1.000
    H14      H        0.08000    0.99190    0.33260    1.000
    H15      H        0.04400    0.00270    0.34640    1.000
    H16      H        0.06710    0.03190    0.32470    1.000
    C21      C        0.35870    0.94510    0.25340    1.000
    H17      H        0.34100    0.95040    0.24190    1.000
    H18      H        0.36820    0.92170    0.24860    1.000
    H19      H        0.33790    0.93240    0.26600    1.000
    C22      C        0.10390    0.09480    0.35680    1.000
    H20      H        0.13110    0.12010    0.36500    1.000
    H21      H        0.09790    0.10910    0.34410    1.000
    H22      H        0.07480    0.07980    0.36590    1.000
    C23      C        0.38800    0.97300    0.23630    1.000
    H23      H        0.35220    0.95850    0.23540    1.000
    H24      H        0.40290    0.99990    0.22600    1.000
    H25      H        0.39690    0.94900    0.23320    1.000
    C24      C        0.43880    0.01390    0.23970    1.000
    H26      H        0.42230    0.01990    0.22790    1.000
    H27      H        0.46760    0.04450    0.24390    1.000
    H28      H        0.44860    0.99060    0.23520    1.000
    C25      C        0.45940    0.01560    0.25900    1.000
    H29      H        0.47360    0.04070    0.24800    1.000
    H30      H        0.47220    0.03010    0.27310    1.000
    H31      H        0.46760    0.99030    0.25610    1.000
    C26      C        0.43100    0.98470    0.27680    1.000
    H32      H        0.46060    0.01540    0.28050    1.000
    H33      H        0.41060    0.97200    0.28950    1.000
    H34      H        0.44090    0.96130    0.27200    1.000
    C27      C        0.38300    0.95420    0.27640    1.000
    H35      H        0.34720    0.93960    0.27650    1.000
    H36      H        0.39100    0.92900    0.27340    1.000
    H37      H        0.39570    0.96880    0.29040    1.000
    C28      C        0.12497    0.55773    0.69703    1.000
    C29      C        0.11157    0.56673    0.71713    1.000
    H38      H        0.07977    0.56173    0.71893    1.000
    C30      C        0.14317    0.58273    0.73433    1.000
    H39      H        0.13217    0.58703    0.74793    1.000
    C31      C        0.19007    0.59253    0.73223    1.000
    C32      C        0.20397    0.58103    0.71273    1.000
    H40      H        0.23547    0.58533    0.71113    1.000
    C33      C        0.17127    0.56333    0.69583    1.000
    H41      H        0.18077    0.55473    0.68293    1.000
    O5       O        0.10327    0.51363    0.66483    1.000
    N3       N        0.07527    0.49193    0.64603    1.000
    C34      C        0.08517    0.46053    0.63883    1.000
    H42      H        0.10857    0.45603    0.64643    1.000
    C35      C        0.06327    0.43083    0.61993    1.000
    C36      C        0.02967    0.43663    0.60663    1.000
    C37      C        0.01077    0.40533    0.58833    1.000
    C38      C        0.02367    0.36973    0.58423    1.000
    H43      H        0.01017    0.34903    0.57223    1.000
    C39      C        0.05577    0.36433    0.59763    1.000
    C40      C        0.07437    0.39443    0.61523    1.000
    H44      H        0.09567    0.39023    0.62453    1.000
    C41      C        0.97737    0.40753    0.57323    1.000
    H45      H        0.96787    0.38633    0.56123    1.000
    N4       N        0.95997    0.43553    0.57473    1.000
    O6       O        0.92807    0.42653    0.55723    1.000
    C42      C        0.84887    0.46083    0.52713    1.000
    H46      H        0.86047    0.49283    0.53223    1.000
    C43      C        0.81797    0.44553    0.50973    1.000
    H47      H        0.80817    0.46673    0.50383    1.000
    O7       O        0.01777    0.46923    0.61083    1.000
    C44      C        0.07087    0.32653    0.59233    1.000
    O8       O        0.75407    0.41273    0.47482    1.000
    C45      C        0.78287    0.38953    0.68323    1.000
    C46      C        0.79347    0.36483    0.70203    1.000
    H48      H        0.80107    0.34063    0.69643    1.000
    H49      H        0.82117    0.38923    0.71023    1.000
    H50      H        0.76497    0.34893    0.71133    1.000
    C47      C        0.73957    0.35053    0.67063    1.000
    H51      H        0.74667    0.32523    0.66593    1.000
    H52      H        0.71067    0.33603    0.67973    1.000
    H53      H        0.73377    0.36523    0.65803    1.000
    C48      C        0.02537    0.27843    0.58673    1.000
    H54      H        0.00767    0.28373    0.57523    1.000
    H55      H        0.03487    0.25503    0.58193    1.000
    H56      H        0.00457    0.26573    0.59933    1.000
    C49      C        0.77057    0.42813    0.69013    1.000
    H57      H        0.79777    0.45343    0.69833    1.000
    H58      H        0.76457    0.44243    0.67743    1.000
    H59      H        0.74147    0.41313    0.69923    1.000
    C50      C        0.05467    0.30633    0.56963    1.000
    H60      H        0.01887    0.29183    0.56873    1.000
    H61      H        0.06957    0.33323    0.55933    1.000
    H62      H        0.06357    0.28233    0.56653    1.000
    C51      C        0.10547    0.34723    0.57303    1.000
    H63      H        0.08897    0.35323    0.56123    1.000
    H64      H        0.13427    0.37783    0.57723    1.000
    H65      H        0.11527    0.32393    0.56853    1.000
    C52      C        0.12607    0.34893    0.59233    1.000
    H66      H        0.14027    0.37403    0.58133    1.000
    H67      H        0.13887    0.36343    0.60643    1.000
    H68      H        0.13427    0.32363    0.58943    1.000
    C53      C        0.09767    0.31803    0.61013    1.000
    H69      H        0.12727    0.34873    0.61383    1.000
    H70      H        0.07727    0.30533    0.62283    1.000
    H71      H        0.10757    0.29463    0.60533    1.000
    C54      C        0.04967    0.28753    0.60973    1.000
    H72      H        0.01387    0.27293    0.60983    1.000
    H73      H        0.05767    0.26233    0.60673    1.000
    H74      H        0.06237    0.30213    0.62373    1.000
    C55      C        0.79163    0.89107    0.03037    1.000
    C56      C        0.77823    0.90007    0.05047    1.000
    H75      H        0.74643    0.89507    0.05227    1.000
    C57      C        0.80983    0.91607    0.06767    1.000
    H76      H        0.79883    0.92037    0.08127    1.000
    C58      C        0.85673    0.92587    0.06557    1.000
    C59      C        0.87063    0.91437    0.04607    1.000
    H77      H        0.90213    0.91867    0.04447    1.000
    C60      C        0.83793    0.89667    0.02917    1.000
    H78      H        0.84743    0.88807    0.01627    1.000
    O9       O        0.76993    0.84697    0.99817    1.000
    N5       N        0.74193    0.82527    0.97937    1.000
    C61      C        0.75183    0.79387    0.97217    1.000
    H79      H        0.77523    0.78937    0.97977    1.000
    C62      C        0.72993    0.76417    0.95327    1.000
    C63      C        0.69633    0.76997    0.93997    1.000
    C64      C        0.67743    0.73867    0.92167    1.000
    C65      C        0.69033    0.70307    0.91757    1.000
    H80      H        0.67683    0.68237    0.90557    1.000
    C66      C        0.72243    0.69767    0.93097    1.000
    C67      C        0.74103    0.72777    0.94857    1.000
    H81      H        0.76233    0.72357    0.95787    1.000
    C68      C        0.64403    0.74087    0.90657    1.000
    H82      H        0.63453    0.71967    0.89457    1.000
    N6       N        0.62663    0.76887    0.90807    1.000
    O10      O        0.59473    0.75987    0.89057    1.000
    C69      C        0.51553    0.79417    0.86047    1.000
    H83      H        0.52713    0.82617    0.86557    1.000
    C70      C        0.48463    0.77887    0.84307    1.000
    H84      H        0.47483    0.80007    0.83717    1.000
    O11      O        0.68443    0.80257    0.94417    1.000
    C71      C        0.73753    0.65987    0.92567    1.000
    O12      O        0.42073    0.74607    0.80816    1.000
    C72      C        0.44953    0.72287    0.01657    1.000
    C73      C        0.46013    0.69817    0.03537    1.000
    H85      H        0.46773    0.67397    0.02977    1.000
    H86      H        0.48783    0.72257    0.04357    1.000
    H87      H        0.43163    0.68227    0.04467    1.000
    C74      C        0.40623    0.68387    0.00397    1.000
    H88      H        0.41333    0.65857    0.99927    1.000
    H89      H        0.37733    0.66937    0.01307    1.000
    H90      H        0.40043    0.69857    0.99137    1.000
    C75      C        0.69203    0.61177    0.92007    1.000
    H91      H        0.67433    0.61707    0.90857    1.000
    H92      H        0.70153    0.58837    0.91527    1.000
    H93      H        0.67123    0.59907    0.93267    1.000
    C76      C        0.43723    0.76147    0.02347    1.000
    H94      H        0.46443    0.78677    0.03167    1.000
    H95      H        0.43123    0.77577    0.01077    1.000
    H96      H        0.40813    0.74647    0.03257    1.000
    C77      C        0.72133    0.63967    0.90297    1.000
    H97      H        0.68553    0.62517    0.90207    1.000
    H98      H        0.73623    0.66657    0.89267    1.000
    H99      H        0.73023    0.61567    0.89987    1.000
    C78      C        0.77213    0.68057    0.90637    1.000
    H100     H        0.75563    0.68657    0.89457    1.000
    H101     H        0.80093    0.71117    0.91057    1.000
    H102     H        0.78193    0.65727    0.90187    1.000
    C79      C        0.79273    0.68227    0.92567    1.000
    H103     H        0.80693    0.70737    0.91467    1.000
    H104     H        0.80553    0.69677    0.93977    1.000
    H105     H        0.80093    0.65697    0.92277    1.000
    C80      C        0.76433    0.65137    0.94347    1.000
    H106     H        0.79393    0.68207    0.94717    1.000
    H107     H        0.74393    0.63867    0.95617    1.000
    H108     H        0.77423    0.62797    0.93867    1.000
    C81      C        0.71633    0.62087    0.94307    1.000
    H109     H        0.68053    0.60627    0.94317    1.000
    H110     H        0.72433    0.59567    0.94007    1.000
    H111     H        0.72903    0.63547    0.95707    1.000
    C82      C        0.77560    0.23390    0.36370    1.000
    C83      C        0.76660    0.21150    0.38380    1.000
    H112     H        0.77160    0.18470    0.38560    1.000
    C84      C        0.75060    0.22710    0.40100    1.000
    H113     H        0.74630    0.21180    0.41460    1.000
    C85      C        0.74080    0.26420    0.39890    1.000
    C86      C        0.75230    0.28960    0.37940    1.000
    H114     H        0.74800    0.31680    0.37780    1.000
    C87      C        0.77000    0.27460    0.36250    1.000
    H115     H        0.77860    0.29270    0.34960    1.000
    O13      O        0.81970    0.25630    0.33150    1.000
    N7       N        0.84140    0.25000    0.31270    1.000
    C88      C        0.87280    0.29130    0.30550    1.000
    H116     H        0.87730    0.31920    0.31310    1.000
    C89      C        0.90250    0.29910    0.28660    1.000
    C90      C        0.89670    0.25970    0.27330    1.000
    C91      C        0.92800    0.27210    0.25500    1.000
    C92      C        0.96360    0.32060    0.25090    1.000
    H117     H        0.98430    0.32780    0.23890    1.000
    C93      C        0.96900    0.35810    0.26430    1.000
    C94      C        0.93890    0.34660    0.28190    1.000
    H118     H        0.94310    0.37210    0.29120    1.000
    C95      C        0.92580    0.23650    0.23990    1.000
    H119     H        0.94700    0.24820    0.22790    1.000
    N8       N        0.89780    0.19110    0.24140    1.000
    O14      O        0.90680    0.16820    0.22390    1.000
    C96      C        0.87250    0.05470    0.19380    1.000
    H120     H        0.84050    0.03430    0.19890    1.000
    C97      C        0.88780    0.03910    0.17640    1.000
    H121     H        0.86660    0.00810    0.17050    1.000
    O15      O        0.86410    0.21520    0.27750    1.000
    C98      C        0.00680    0.41100    0.25900    1.000
    O16      O        0.92060    0.00800    0.14149    1.000
    C99      C        0.94380    0.06000    0.34990    1.000
    C100     C        0.96850    0.09530    0.36870    1.000
    H122     H        0.99270    0.12710    0.36310    1.000
    H123     H        0.94410    0.09860    0.37690    1.000
    H124     H        0.98440    0.08270    0.37800    1.000
    C101     C        0.98280    0.05570    0.33730    1.000
    H125     H        0.00810    0.08810    0.33260    1.000
    H126     H        0.99730    0.04130    0.34640    1.000
    H127     H        0.96810    0.03520    0.32470    1.000
    C102     C        0.05490    0.41360    0.25340    1.000
    H128     H        0.04960    0.39060    0.24190    1.000
    H129     H        0.07830    0.44650    0.24860    1.000
    H130     H        0.06760    0.40550    0.26600    1.000
    C103     C        0.90520    0.00910    0.35680    1.000
    H131     H        0.87990    0.01100    0.36500    1.000
    H132     H        0.89090    0.98880    0.34410    1.000
    H133     H        0.92020    0.99500    0.36590    1.000
    C104     C        0.02700    0.41500    0.23630    1.000
    H134     H        0.04150    0.39370    0.23540    1.000
    H135     H        0.00010    0.40300    0.22600    1.000
    H136     H        0.05100    0.44790    0.23320    1.000
    C105     C        0.98610    0.42490    0.23970    1.000
    H137     H        0.98010    0.40240    0.22790    1.000
    H138     H        0.95550    0.42310    0.24390    1.000
    H139     H        0.00940    0.45800    0.23520    1.000
    C106     C        0.98440    0.44380    0.25900    1.000
    H140     H        0.95930    0.43290    0.24800    1.000
    H141     H        0.96990    0.44210    0.27310    1.000
    H142     H        0.00970    0.47730    0.25610    1.000
    C107     C        0.01530    0.44630    0.27680    1.000
    H143     H        0.98460    0.44520    0.28050    1.000
    H144     H        0.02800    0.43860    0.28950    1.000
    H145     H        0.03870    0.47960    0.27200    1.000
    C108     C        0.04580    0.42880    0.27640    1.000
    H146     H        0.06040    0.40760    0.27650    1.000
    H147     H        0.07100    0.46200    0.27340    1.000
    H148     H        0.03120    0.42690    0.29040    1.000
    C109     C        0.44227    0.56723    0.69703    1.000
    C110     C        0.43327    0.54483    0.71713    1.000
    H149     H        0.43827    0.51803    0.71893    1.000
    C111     C        0.41727    0.56043    0.73433    1.000
    H150     H        0.41297    0.54513    0.74793    1.000
    C112     C        0.40747    0.59753    0.73223    1.000
    C113     C        0.41897    0.62293    0.71273    1.000
    H151     H        0.41467    0.65013    0.71113    1.000
    C114     C        0.43667    0.60793    0.69583    1.000
    H152     H        0.44527    0.62603    0.68293    1.000
    O17      O        0.48637    0.58963    0.66483    1.000
    N9       N        0.50807    0.58333    0.64603    1.000
    C115     C        0.53947    0.62463    0.63883    1.000
    H153     H        0.54397    0.65253    0.64643    1.000
    C116     C        0.56917    0.63243    0.61993    1.000
    C117     C        0.56337    0.59303    0.60663    1.000
    C118     C        0.59467    0.60543    0.58833    1.000
    C119     C        0.63027    0.65393    0.58423    1.000
    H154     H        0.65097    0.66113    0.57223    1.000
    C120     C        0.63567    0.69143    0.59763    1.000
    C121     C        0.60557    0.67993    0.61523    1.000
    H155     H        0.60977    0.70543    0.62453    1.000
    C122     C        0.59247    0.56983    0.57323    1.000
    H156     H        0.61367    0.58153    0.56123    1.000
    N10      N        0.56447    0.52443    0.57473    1.000
    O18      O        0.57347    0.50153    0.55723    1.000
    C123     C        0.53917    0.38803    0.52713    1.000
    H157     H        0.50717    0.36763    0.53223    1.000
    C124     C        0.55447    0.37243    0.50973    1.000
    H158     H        0.53327    0.34143    0.50383    1.000
    O19      O        0.53077    0.54853    0.61083    1.000
    C125     C        0.67347    0.74433    0.59233    1.000
    O20      O        0.58727    0.34133    0.47482    1.000
    C126     C        0.61047    0.39333    0.68323    1.000
    C127     C        0.63517    0.42863    0.70203    1.000
    H159     H        0.65937    0.46043    0.69643    1.000
    H160     H        0.61077    0.43193    0.71023    1.000
    H161     H        0.65107    0.41603    0.71133    1.000
    C128     C        0.64947    0.38903    0.67063    1.000
    H162     H        0.67477    0.42143    0.66593    1.000
    H163     H        0.66397    0.37463    0.67973    1.000
    H164     H        0.63477    0.36853    0.65803    1.000
    C129     C        0.72157    0.74693    0.58673    1.000
    H165     H        0.71627    0.72393    0.57523    1.000
    H166     H        0.74497    0.77983    0.58193    1.000
    H167     H        0.73427    0.73883    0.59933    1.000
    C130     C        0.57187    0.34243    0.69013    1.000
    H168     H        0.54657    0.34433    0.69833    1.000
    H169     H        0.55757    0.32213    0.67743    1.000
    H170     H        0.58687    0.32833    0.69923    1.000
    C131     C        0.69367    0.74833    0.56963    1.000
    H171     H        0.70817    0.72703    0.56873    1.000
    H172     H        0.66677    0.73633    0.55933    1.000
    H173     H        0.71767    0.78123    0.56653    1.000
    C132     C        0.65277    0.75823    0.57303    1.000
    H174     H        0.64677    0.73573    0.56123    1.000
    H175     H        0.62217    0.75643    0.57723    1.000
    H176     H        0.67607    0.79133    0.56853    1.000
    C133     C        0.65107    0.77713    0.59233    1.000
    H177     H        0.62597    0.76623    0.58133    1.000
    H178     H        0.63657    0.77543    0.60643    1.000
    H179     H        0.67637    0.81063    0.58943    1.000
    C134     C        0.68197    0.77963    0.61013    1.000
    H180     H        0.65127    0.77853    0.61383    1.000
    H181     H        0.69467    0.77193    0.62283    1.000
    H182     H        0.70537    0.81293    0.60533    1.000
    C135     C        0.71247    0.76213    0.60973    1.000
    H183     H        0.72707    0.74093    0.60983    1.000
    H184     H        0.73767    0.79533    0.60673    1.000
    H185     H        0.69787    0.76023    0.62373    1.000
    C136     C        0.10893    0.90057    0.03037    1.000
    C137     C        0.09993    0.87817    0.05047    1.000
    H186     H        0.10493    0.85137    0.05227    1.000
    C138     C        0.08393    0.89377    0.06767    1.000
    H187     H        0.07963    0.87847    0.08127    1.000
    C139     C        0.07413    0.93087    0.06557    1.000
    C140     C        0.08563    0.95627    0.04607    1.000
    H188     H        0.08133    0.98347    0.04447    1.000
    C141     C        0.10333    0.94127    0.02917    1.000
    H189     H        0.11193    0.95937    0.01627    1.000
    O21      O        0.15303    0.92297    0.99817    1.000
    N11      N        0.17473    0.91667    0.97937    1.000
    C142     C        0.20613    0.95797    0.97217    1.000
    H190     H        0.21063    0.98587    0.97977    1.000
    C143     C        0.23583    0.96577    0.95327    1.000
    C144     C        0.23003    0.92637    0.93997    1.000
    C145     C        0.26133    0.93877    0.92167    1.000
    C146     C        0.29693    0.98727    0.91757    1.000
    H191     H        0.31763    0.99447    0.90557    1.000
    C147     C        0.30233    0.02477    0.93097    1.000
    C148     C        0.27223    0.01327    0.94857    1.000
    H192     H        0.27643    0.03877    0.95787    1.000
    C149     C        0.25913    0.90317    0.90657    1.000
    H193     H        0.28033    0.91487    0.89457    1.000
    N12      N        0.23113    0.85777    0.90807    1.000
    O22      O        0.24013    0.83487    0.89057    1.000
    C150     C        0.20583    0.72137    0.86047    1.000
    H194     H        0.17383    0.70097    0.86557    1.000
    C151     C        0.22113    0.70577    0.84307    1.000
    H195     H        0.19993    0.67477    0.83717    1.000
    O23      O        0.19743    0.88187    0.94417    1.000
    C152     C        0.34013    0.07767    0.92567    1.000
    O24      O        0.25393    0.67467    0.80816    1.000
    C153     C        0.27713    0.72667    0.01657    1.000
    C154     C        0.30183    0.76197    0.03537    1.000
    H196     H        0.32603    0.79377    0.02977    1.000
    H197     H        0.27743    0.76527    0.04357    1.000
    H198     H        0.31773    0.74937    0.04467    1.000
    C155     C        0.31613    0.72237    0.00397    1.000
    H199     H        0.34143    0.75477    0.99927    1.000
    H200     H        0.33063    0.70797    0.01307    1.000
    H201     H        0.30143    0.70187    0.99137    1.000
    C156     C        0.38823    0.08027    0.92007    1.000
    H202     H        0.38293    0.05727    0.90857    1.000
    H203     H        0.41163    0.11317    0.91527    1.000
    H204     H        0.40093    0.07217    0.93267    1.000
    C157     C        0.23853    0.67577    0.02347    1.000
    H205     H        0.21323    0.67767    0.03167    1.000
    H206     H        0.22423    0.65547    0.01077    1.000
    H207     H        0.25353    0.66167    0.03257    1.000
    C158     C        0.36033    0.08167    0.90297    1.000
    H208     H        0.37483    0.06037    0.90207    1.000
    H209     H        0.33343    0.06967    0.89267    1.000
    H210     H        0.38433    0.11457    0.89987    1.000
    C159     C        0.31943    0.09157    0.90637    1.000
    H211     H        0.31343    0.06907    0.89457    1.000
    H212     H        0.28883    0.08977    0.91057    1.000
    H213     H        0.34273    0.12467    0.90187    1.000
    C160     C        0.31773    0.11047    0.92567    1.000
    H214     H        0.29263    0.09957    0.91467    1.000
    H215     H        0.30323    0.10877    0.93977    1.000
    H216     H        0.34303    0.14397    0.92277    1.000
    C161     C        0.34863    0.11297    0.94347    1.000
    H217     H        0.31793    0.11187    0.94717    1.000
    H218     H        0.36133    0.10527    0.95617    1.000
    H219     H        0.37203    0.14627    0.93867    1.000
    C162     C        0.37913    0.09547    0.94307    1.000
    H220     H        0.39373    0.07427    0.94317    1.000
    H221     H        0.40433    0.12867    0.94007    1.000
    H222     H        0.36453    0.09357    0.95707    1.000
    C163     C        0.76610    0.54170    0.36370    1.000
    C164     C        0.78850    0.55510    0.38380    1.000
    H223     H        0.81530    0.58690    0.38560    1.000
    C165     C        0.77290    0.52350    0.40100    1.000
    H224     H        0.78820    0.53450    0.41460    1.000
    C166     C        0.73580    0.47660    0.39890    1.000
    C167     C        0.71040    0.46270    0.37940    1.000
    H225     H        0.68320    0.43120    0.37780    1.000
    C168     C        0.72540    0.49540    0.36250    1.000
    H226     H        0.70730    0.48590    0.34960    1.000
    O25      O        0.74370    0.56340    0.33150    1.000
    N13      N        0.75000    0.59140    0.31270    1.000
    C169     C        0.70870    0.58150    0.30550    1.000
    H227     H        0.68080    0.55810    0.31310    1.000
    C170     C        0.70090    0.60340    0.28660    1.000
    C171     C        0.74030    0.63700    0.27330    1.000
    C172     C        0.72790    0.65590    0.25500    1.000
    C173     C        0.67940    0.64300    0.25090    1.000
    H228     H        0.67220    0.65650    0.23890    1.000
    C174     C        0.64190    0.61090    0.26430    1.000
    C175     C        0.65340    0.59230    0.28190    1.000
    H229     H        0.62790    0.57100    0.29120    1.000
    C176     C        0.76350    0.68930    0.23990    1.000
    H230     H        0.75180    0.69880    0.22790    1.000
    N14      N        0.80890    0.70670    0.24140    1.000
    O26      O        0.83180    0.73860    0.22390    1.000
    C177     C        0.94530    0.81780    0.19380    1.000
    H231     H        0.96570    0.80620    0.19890    1.000
    C178     C        0.96090    0.84870    0.17640    1.000
    H232     H        0.99190    0.85850    0.17050    1.000
    O27      O        0.78480    0.64890    0.27750    1.000
    C179     C        0.58900    0.59580    0.25900    1.000
    O28      O        0.99200    0.91260    0.14149    1.000
    C180     C        0.94000    0.88380    0.34990    1.000
    C181     C        0.90470    0.87320    0.36870    1.000
    H233     H        0.87290    0.86560    0.36310    1.000
    H234     H        0.90140    0.84550    0.37690    1.000
    H235     H        0.91730    0.90170    0.37800    1.000
    C182     C        0.94430    0.92710    0.33730    1.000
    H236     H        0.91190    0.92000    0.33260    1.000
    H237     H        0.95870    0.95600    0.34640    1.000
    H238     H        0.96480    0.93290    0.32470    1.000
    C183     C        0.58640    0.64130    0.25340    1.000
    H239     H        0.60940    0.65900    0.24190    1.000
    H240     H        0.55350    0.63180    0.24860    1.000
    H241     H        0.59450    0.66210    0.26600    1.000
    C184     C        0.99090    0.89610    0.35680    1.000
    H242     H        0.98900    0.86890    0.36500    1.000
    H243     H        0.01120    0.90210    0.34410    1.000
    H244     H        0.00500    0.92520    0.36590    1.000
    C185     C        0.58500    0.61200    0.23630    1.000
    H245     H        0.60630    0.64780    0.23540    1.000
    H246     H        0.59700    0.59710    0.22600    1.000
    H247     H        0.55210    0.60310    0.23320    1.000
    C186     C        0.57510    0.56120    0.23970    1.000
    H248     H        0.59760    0.57770    0.22790    1.000
    H249     H        0.57690    0.53240    0.24390    1.000
    H250     H        0.54200    0.55140    0.23520    1.000
    C187     C        0.55620    0.54060    0.25900    1.000
    H251     H        0.56710    0.52640    0.24800    1.000
    H252     H        0.55790    0.52780    0.27310    1.000
    H253     H        0.52270    0.53240    0.25610    1.000
    C188     C        0.55370    0.56900    0.27680    1.000
    H254     H        0.55480    0.53940    0.28050    1.000
    H255     H        0.56140    0.58940    0.28950    1.000
    H256     H        0.52040    0.55910    0.27200    1.000
    C189     C        0.57120    0.61700    0.27640    1.000
    H257     H        0.59240    0.65280    0.27650    1.000
    H258     H        0.53800    0.60900    0.27340    1.000
    H259     H        0.57310    0.60430    0.29040    1.000
    C190     C        0.43277    0.87503    0.69703    1.000
    C191     C        0.45517    0.88843    0.71713    1.000
    H260     H        0.48197    0.92023    0.71893    1.000
    C192     C        0.43957    0.85683    0.73433    1.000
    H261     H        0.45487    0.86783    0.74793    1.000
    C193     C        0.40247    0.80993    0.73223    1.000
    C194     C        0.37707    0.79603    0.71273    1.000
    H262     H        0.34987    0.76453    0.71113    1.000
    C195     C        0.39207    0.82873    0.69583    1.000
    H263     H        0.37397    0.81923    0.68293    1.000
    O29      O        0.41037    0.89673    0.66483    1.000
    N15      N        0.41667    0.92473    0.64603    1.000
    C196     C        0.37537    0.91483    0.63883    1.000
    H264     H        0.34747    0.89143    0.64643    1.000
    C197     C        0.36757    0.93673    0.61993    1.000
    C198     C        0.40697    0.97033    0.60663    1.000
    C199     C        0.39457    0.98923    0.58833    1.000
    C200     C        0.34607    0.97633    0.58423    1.000
    H265     H        0.33887    0.98983    0.57223    1.000
    C201     C        0.30857    0.94423    0.59763    1.000
    C202     C        0.32007    0.92563    0.61523    1.000
    H266     H        0.29457    0.90433    0.62453    1.000
    C203     C        0.43017    0.02263    0.57323    1.000
    H267     H        0.41847    0.03213    0.56123    1.000
    N16      N        0.47557    0.04003    0.57473    1.000
    O30      O        0.49847    0.07193    0.55723    1.000
    C204     C        0.61197    0.15113    0.52713    1.000
    H268     H        0.63237    0.13953    0.53223    1.000
    C205     C        0.62757    0.18203    0.50973    1.000
    H269     H        0.65857    0.19183    0.50383    1.000
    O31      O        0.45147    0.98223    0.61083    1.000
    C206     C        0.25567    0.92913    0.59233    1.000
    O32      O        0.65867    0.24593    0.47482    1.000
    C207     C        0.60667    0.21713    0.68323    1.000
    C208     C        0.57137    0.20653    0.70203    1.000
    H270     H        0.53957    0.19893    0.69643    1.000
    H271     H        0.56807    0.17883    0.71023    1.000
    H272     H        0.58397    0.23503    0.71133    1.000
    C209     C        0.61097    0.26043    0.67063    1.000
    H273     H        0.57857    0.25333    0.66593    1.000
    H274     H        0.62537    0.28933    0.67973    1.000
    H275     H        0.63147    0.26623    0.65803    1.000
    C210     C        0.25307    0.97463    0.58673    1.000
    H276     H        0.27607    0.99233    0.57523    1.000
    H277     H        0.22017    0.96513    0.58193    1.000
    H278     H        0.26117    0.99543    0.59933    1.000
    C211     C        0.65757    0.22943    0.69013    1.000
    H279     H        0.65567    0.20223    0.69833    1.000
    H280     H        0.67787    0.23543    0.67743    1.000
    H281     H        0.67167    0.25853    0.69923    1.000
    C212     C        0.25167    0.94533    0.56963    1.000
    H282     H        0.27297    0.98113    0.56873    1.000
    H283     H        0.26367    0.93043    0.55933    1.000
    H284     H        0.21877    0.93643    0.56653    1.000
    C213     C        0.24177    0.89453    0.57303    1.000
    H285     H        0.26427    0.91103    0.56123    1.000
    H286     H        0.24357    0.86573    0.57723    1.000
    H287     H        0.20867    0.88473    0.56853    1.000
    C214     C        0.22287    0.87393    0.59233    1.000
    H288     H        0.23377    0.85973    0.58133    1.000
    H289     H        0.22457    0.86113    0.60643    1.000
    H290     H        0.18937    0.86573    0.58943    1.000
    C215     C        0.22037    0.90233    0.61013    1.000
    H291     H        0.22147    0.87273    0.61383    1.000
    H292     H        0.22807    0.92273    0.62283    1.000
    H293     H        0.18707    0.89243    0.60533    1.000
    C216     C        0.23787    0.95033    0.60973    1.000
    H294     H        0.25907    0.98613    0.60983    1.000
    H295     H        0.20467    0.94233    0.60673    1.000
    H296     H        0.23977    0.93763    0.62373    1.000
    C217     C        0.09943    0.20837    0.03037    1.000
    C218     C        0.12183    0.22177    0.05047    1.000
    H297     H        0.14863    0.25357    0.05227    1.000
    C219     C        0.10623    0.19017    0.06767    1.000
    H298     H        0.12153    0.20117    0.08127    1.000
    C220     C        0.06913    0.14327    0.06557    1.000
    C221     C        0.04373    0.12937    0.04607    1.000
    H299     H        0.01653    0.09787    0.04447    1.000
    C222     C        0.05873    0.16207    0.02917    1.000
    H300     H        0.04063    0.15257    0.01627    1.000
    O33      O        0.07703    0.23007    0.99817    1.000
    N17      N        0.08333    0.25807    0.97937    1.000
    C223     C        0.04203    0.24817    0.97217    1.000
    H301     H        0.01413    0.22477    0.97977    1.000
    C224     C        0.03423    0.27007    0.95327    1.000
    C225     C        0.07363    0.30367    0.93997    1.000
    C226     C        0.06123    0.32257    0.92167    1.000
    C227     C        0.01273    0.30967    0.91757    1.000
    H302     H        0.00553    0.32317    0.90557    1.000
    C228     C        0.97523    0.27757    0.93097    1.000
    C229     C        0.98673    0.25897    0.94857    1.000
    H303     H        0.96123    0.23767    0.95787    1.000
    C230     C        0.09683    0.35597    0.90657    1.000
    H304     H        0.08513    0.36547    0.89457    1.000
    N18      N        0.14223    0.37337    0.90807    1.000
    O34      O        0.16513    0.40527    0.89057    1.000
    C231     C        0.27863    0.48447    0.86047    1.000
    H305     H        0.29903    0.47287    0.86557    1.000
    C232     C        0.29423    0.51537    0.84307    1.000
    H306     H        0.32523    0.52517    0.83717    1.000
    O35      O        0.11813    0.31557    0.94417    1.000
    C233     C        0.92233    0.26247    0.92567    1.000
    O36      O        0.32533    0.57927    0.80816    1.000
    C234     C        0.27333    0.55047    0.01657    1.000
    C235     C        0.23803    0.53987    0.03537    1.000
    H307     H        0.20623    0.53227    0.02977    1.000
    H308     H        0.23473    0.51217    0.04357    1.000
    H309     H        0.25063    0.56837    0.04467    1.000
    C236     C        0.27763    0.59377    0.00397    1.000
    H310     H        0.24523    0.58667    0.99927    1.000
    H311     H        0.29203    0.62267    0.01307    1.000
    H312     H        0.29813    0.59957    0.99137    1.000
    C237     C        0.91973    0.30797    0.92007    1.000
    H313     H        0.94273    0.32567    0.90857    1.000
    H314     H        0.88683    0.29847    0.91527    1.000
    H315     H        0.92783    0.32877    0.93267    1.000
    C238     C        0.32423    0.56277    0.02347    1.000
    H316     H        0.32233    0.53557    0.03167    1.000
    H317     H        0.34453    0.56877    0.01077    1.000
    H318     H        0.33833    0.59187    0.03257    1.000
    C239     C        0.91833    0.27867    0.90297    1.000
    H319     H        0.93963    0.31447    0.90207    1.000
    H320     H        0.93033    0.26377    0.89267    1.000
    H321     H        0.88543    0.26977    0.89987    1.000
    C240     C        0.90843    0.22787    0.90637    1.000
    H322     H        0.93093    0.24437    0.89457    1.000
    H323     H        0.91023    0.19907    0.91057    1.000
    H324     H        0.87533    0.21807    0.90187    1.000
    C241     C        0.88953    0.20727    0.92567    1.000
    H325     H        0.90043    0.19307    0.91467    1.000
    H326     H        0.89123    0.19447    0.93977    1.000
    H327     H        0.85603    0.19907    0.92277    1.000
    C242     C        0.88703    0.23567    0.94347    1.000
    H328     H        0.88813    0.20607    0.94717    1.000
    H329     H        0.89473    0.25607    0.95617    1.000
    H330     H        0.85373    0.22577    0.93867    1.000
    C243     C        0.90453    0.28367    0.94307    1.000
    H331     H        0.92573    0.31947    0.94317    1.000
    H332     H        0.87133    0.27567    0.94007    1.000
    H333     H        0.90643    0.27097    0.95707    1.000
    C244     C        0.77560    0.54170    0.36370    1.000
    C245     C        0.76660    0.55510    0.38380    1.000
    H334     H        0.77160    0.58690    0.38560    1.000
    C246     C        0.75060    0.52350    0.40100    1.000
    H335     H        0.74630    0.53450    0.41460    1.000
    C247     C        0.74080    0.47660    0.39890    1.000
    C248     C        0.75230    0.46270    0.37940    1.000
    H336     H        0.74800    0.43120    0.37780    1.000
    C249     C        0.77000    0.49540    0.36250    1.000
    H337     H        0.77860    0.48590    0.34960    1.000
    O37      O        0.81970    0.56340    0.33150    1.000
    N19      N        0.84140    0.59140    0.31270    1.000
    C250     C        0.87280    0.58150    0.30550    1.000
    H338     H        0.87730    0.55810    0.31310    1.000
    C251     C        0.90250    0.60340    0.28660    1.000
    C252     C        0.89670    0.63700    0.27330    1.000
    C253     C        0.92800    0.65590    0.25500    1.000
    C254     C        0.96360    0.64300    0.25090    1.000
    H339     H        0.98430    0.65650    0.23890    1.000
    C255     C        0.96900    0.61090    0.26430    1.000
    C256     C        0.93890    0.59230    0.28190    1.000
    H340     H        0.94310    0.57100    0.29120    1.000
    C257     C        0.92580    0.68930    0.23990    1.000
    H341     H        0.94700    0.69880    0.22790    1.000
    N20      N        0.89780    0.70670    0.24140    1.000
    O38      O        0.90680    0.73860    0.22390    1.000
    C258     C        0.87250    0.81780    0.19380    1.000
    H342     H        0.84050    0.80620    0.19890    1.000
    C259     C        0.88780    0.84870    0.17640    1.000
    H343     H        0.86660    0.85850    0.17050    1.000
    O39      O        0.86410    0.64890    0.27750    1.000
    C260     C        0.00680    0.59580    0.25900    1.000
    O40      O        0.92060    0.91260    0.14149    1.000
    C261     C        0.94380    0.88380    0.34990    1.000
    C262     C        0.96850    0.87320    0.36870    1.000
    H344     H        0.99270    0.86560    0.36310    1.000
    H345     H        0.94410    0.84550    0.37690    1.000
    H346     H        0.98440    0.90170    0.37800    1.000
    C263     C        0.98280    0.92710    0.33730    1.000
    H347     H        0.00810    0.92000    0.33260    1.000
    H348     H        0.99730    0.95600    0.34640    1.000
    H349     H        0.96810    0.93290    0.32470    1.000
    C264     C        0.05490    0.64130    0.25340    1.000
    H350     H        0.04960    0.65900    0.24190    1.000
    H351     H        0.07830    0.63180    0.24860    1.000
    H352     H        0.06760    0.66210    0.26600    1.000
    C265     C        0.90520    0.89610    0.35680    1.000
    H353     H        0.87990    0.86890    0.36500    1.000
    H354     H        0.89090    0.90210    0.34410    1.000
    H355     H        0.92020    0.92520    0.36590    1.000
    C266     C        0.02700    0.61200    0.23630    1.000
    H356     H        0.04150    0.64780    0.23540    1.000
    H357     H        0.00010    0.59710    0.22600    1.000
    H358     H        0.05100    0.60310    0.23320    1.000
    C267     C        0.98610    0.56120    0.23970    1.000
    H359     H        0.98010    0.57770    0.22790    1.000
    H360     H        0.95550    0.53240    0.24390    1.000
    H361     H        0.00940    0.55140    0.23520    1.000
    C268     C        0.98440    0.54060    0.25900    1.000
    H362     H        0.95930    0.52640    0.24800    1.000
    H363     H        0.96990    0.52780    0.27310    1.000
    H364     H        0.00970    0.53240    0.25610    1.000
    C269     C        0.01530    0.56900    0.27680    1.000
    H365     H        0.98460    0.53940    0.28050    1.000
    H366     H        0.02800    0.58940    0.28950    1.000
    H367     H        0.03870    0.55910    0.27200    1.000
    C270     C        0.04580    0.61700    0.27640    1.000
    H368     H        0.06040    0.65280    0.27650    1.000
    H369     H        0.07100    0.60900    0.27340    1.000
    H370     H        0.03120    0.60430    0.29040    1.000
    C271     C        0.44227    0.87503    0.69703    1.000
    C272     C        0.43327    0.88843    0.71713    1.000
    H371     H        0.43827    0.92023    0.71893    1.000
    C273     C        0.41727    0.85683    0.73433    1.000
    H372     H        0.41297    0.86783    0.74793    1.000
    C274     C        0.40747    0.80993    0.73223    1.000
    C275     C        0.41897    0.79603    0.71273    1.000
    H373     H        0.41467    0.76453    0.71113    1.000
    C276     C        0.43667    0.82873    0.69583    1.000
    H374     H        0.44527    0.81923    0.68293    1.000
    O41      O        0.48637    0.89673    0.66483    1.000
    N21      N        0.50807    0.92473    0.64603    1.000
    C277     C        0.53947    0.91483    0.63883    1.000
    H375     H        0.54397    0.89143    0.64643    1.000
    C278     C        0.56917    0.93673    0.61993    1.000
    C279     C        0.56337    0.97033    0.60663    1.000
    C280     C        0.59467    0.98923    0.58833    1.000
    C281     C        0.63027    0.97633    0.58423    1.000
    H376     H        0.65097    0.98983    0.57223    1.000
    C282     C        0.63567    0.94423    0.59763    1.000
    C283     C        0.60557    0.92563    0.61523    1.000
    H377     H        0.60977    0.90433    0.62453    1.000
    C284     C        0.59247    0.02263    0.57323    1.000
    H378     H        0.61367    0.03213    0.56123    1.000
    N22      N        0.56447    0.04003    0.57473    1.000
    O42      O        0.57347    0.07193    0.55723    1.000
    C285     C        0.53917    0.15113    0.52713    1.000
    H379     H        0.50717    0.13953    0.53223    1.000
    C286     C        0.55447    0.18203    0.50973    1.000
    H380     H        0.53327    0.19183    0.50383    1.000
    O43      O        0.53077    0.98223    0.61083    1.000
    C287     C        0.67347    0.92913    0.59233    1.000
    O44      O        0.58727    0.24593    0.47482    1.000
    C288     C        0.61047    0.21713    0.68323    1.000
    C289     C        0.63517    0.20653    0.70203    1.000
    H381     H        0.65937    0.19893    0.69643    1.000
    H382     H        0.61077    0.17883    0.71023    1.000
    H383     H        0.65107    0.23503    0.71133    1.000
    C290     C        0.64947    0.26043    0.67063    1.000
    H384     H        0.67477    0.25333    0.66593    1.000
    H385     H        0.66397    0.28933    0.67973    1.000
    H386     H        0.63477    0.26623    0.65803    1.000
    C291     C        0.72157    0.97463    0.58673    1.000
    H387     H        0.71627    0.99233    0.57523    1.000
    H388     H        0.74497    0.96513    0.58193    1.000
    H389     H        0.73427    0.99543    0.59933    1.000
    C292     C        0.57187    0.22943    0.69013    1.000
    H390     H        0.54657    0.20223    0.69833    1.000
    H391     H        0.55757    0.23543    0.67743    1.000
    H392     H        0.58687    0.25853    0.69923    1.000
    C293     C        0.69367    0.94533    0.56963    1.000
    H393     H        0.70817    0.98113    0.56873    1.000
    H394     H        0.66677    0.93043    0.55933    1.000
    H395     H        0.71767    0.93643    0.56653    1.000
    C294     C        0.65277    0.89453    0.57303    1.000
    H396     H        0.64677    0.91103    0.56123    1.000
    H397     H        0.62217    0.86573    0.57723    1.000
    H398     H        0.67607    0.88473    0.56853    1.000
    C295     C        0.65107    0.87393    0.59233    1.000
    H399     H        0.62597    0.85973    0.58133    1.000
    H400     H        0.63657    0.86113    0.60643    1.000
    H401     H        0.67637    0.86573    0.58943    1.000
    C296     C        0.68197    0.90233    0.61013    1.000
    H402     H        0.65127    0.87273    0.61383    1.000
    H403     H        0.69467    0.92273    0.62283    1.000
    H404     H        0.70537    0.89243    0.60533    1.000
    C297     C        0.71247    0.95033    0.60973    1.000
    H405     H        0.72707    0.98613    0.60983    1.000
    H406     H        0.73767    0.94233    0.60673    1.000
    H407     H        0.69787    0.93763    0.62373    1.000
    C298     C        0.10893    0.20837    0.03037    1.000
    C299     C        0.09993    0.22177    0.05047    1.000
    H408     H        0.10493    0.25357    0.05227    1.000
    C300     C        0.08393    0.19017    0.06767    1.000
    H409     H        0.07963    0.20117    0.08127    1.000
    C301     C        0.07413    0.14327    0.06557    1.000
    C302     C        0.08563    0.12937    0.04607    1.000
    H410     H        0.08133    0.09787    0.04447    1.000
    C303     C        0.10333    0.16207    0.02917    1.000
    H411     H        0.11193    0.15257    0.01627    1.000
    O45      O        0.15303    0.23007    0.99817    1.000
    N23      N        0.17473    0.25807    0.97937    1.000
    C304     C        0.20613    0.24817    0.97217    1.000
    H412     H        0.21063    0.22477    0.97977    1.000
    C305     C        0.23583    0.27007    0.95327    1.000
    C306     C        0.23003    0.30367    0.93997    1.000
    C307     C        0.26133    0.32257    0.92167    1.000
    C308     C        0.29693    0.30967    0.91757    1.000
    H413     H        0.31763    0.32317    0.90557    1.000
    C309     C        0.30233    0.27757    0.93097    1.000
    C310     C        0.27223    0.25897    0.94857    1.000
    H414     H        0.27643    0.23767    0.95787    1.000
    C311     C        0.25913    0.35597    0.90657    1.000
    H415     H        0.28033    0.36547    0.89457    1.000
    N24      N        0.23113    0.37337    0.90807    1.000
    O46      O        0.24013    0.40527    0.89057    1.000
    C312     C        0.20583    0.48447    0.86047    1.000
    H416     H        0.17383    0.47287    0.86557    1.000
    C313     C        0.22113    0.51537    0.84307    1.000
    H417     H        0.19993    0.52517    0.83717    1.000
    O47      O        0.19743    0.31557    0.94417    1.000
    C314     C        0.34013    0.26247    0.92567    1.000
    O48      O        0.25393    0.57927    0.80816    1.000
    C315     C        0.27713    0.55047    0.01657    1.000
    C316     C        0.30183    0.53987    0.03537    1.000
    H418     H        0.32603    0.53227    0.02977    1.000
    H419     H        0.27743    0.51217    0.04357    1.000
    H420     H        0.31773    0.56837    0.04467    1.000
    C317     C        0.31613    0.59377    0.00397    1.000
    H421     H        0.34143    0.58667    0.99927    1.000
    H422     H        0.33063    0.62267    0.01307    1.000
    H423     H        0.30143    0.59957    0.99137    1.000
    C318     C        0.38823    0.30797    0.92007    1.000
    H424     H        0.38293    0.32567    0.90857    1.000
    H425     H        0.41163    0.29847    0.91527    1.000
    H426     H        0.40093    0.32877    0.93267    1.000
    C319     C        0.23853    0.56277    0.02347    1.000
    H427     H        0.21323    0.53557    0.03167    1.000
    H428     H        0.22423    0.56877    0.01077    1.000
    H429     H        0.25353    0.59187    0.03257    1.000
    C320     C        0.36033    0.27867    0.90297    1.000
    H430     H        0.37483    0.31447    0.90207    1.000
    H431     H        0.33343    0.26377    0.89267    1.000
    H432     H        0.38433    0.26977    0.89987    1.000
    C321     C        0.31943    0.22787    0.90637    1.000
    H433     H        0.31343    0.24437    0.89457    1.000
    H434     H        0.28883    0.19907    0.91057    1.000
    H435     H        0.34273    0.21807    0.90187    1.000
    C322     C        0.31773    0.20727    0.92567    1.000
    H436     H        0.29263    0.19307    0.91467    1.000
    H437     H        0.30323    0.19447    0.93977    1.000
    H438     H        0.34303    0.19907    0.92277    1.000
    C323     C        0.34863    0.23567    0.94347    1.000
    H439     H        0.31793    0.20607    0.94717    1.000
    H440     H        0.36133    0.25607    0.95617    1.000
    H441     H        0.37203    0.22577    0.93867    1.000
    C324     C        0.37913    0.28367    0.94307    1.000
    H442     H        0.39373    0.31947    0.94317    1.000
    H443     H        0.40433    0.27567    0.94007    1.000
    H444     H        0.36453    0.27097    0.95707    1.000
    C325     C        0.76610    0.22440    0.36370    1.000
    C326     C        0.78850    0.23340    0.38380    1.000
    H445     H        0.81530    0.22840    0.38560    1.000
    C327     C        0.77290    0.24940    0.40100    1.000
    H446     H        0.78820    0.25370    0.41460    1.000
    C328     C        0.73580    0.25920    0.39890    1.000
    C329     C        0.71040    0.24770    0.37940    1.000
    H447     H        0.68320    0.25200    0.37780    1.000
    C330     C        0.72540    0.23000    0.36250    1.000
    H448     H        0.70730    0.22140    0.34960    1.000
    O49      O        0.74370    0.18030    0.33150    1.000
    N25      N        0.75000    0.15860    0.31270    1.000
    C331     C        0.70870    0.12720    0.30550    1.000
    H449     H        0.68080    0.12270    0.31310    1.000
    C332     C        0.70090    0.09750    0.28660    1.000
    C333     C        0.74030    0.10330    0.27330    1.000
    C334     C        0.72790    0.07200    0.25500    1.000
    C335     C        0.67940    0.03640    0.25090    1.000
    H450     H        0.67220    0.01570    0.23890    1.000
    C336     C        0.64190    0.03100    0.26430    1.000
    C337     C        0.65340    0.06110    0.28190    1.000
    H451     H        0.62790    0.05690    0.29120    1.000
    C338     C        0.76350    0.07420    0.23990    1.000
    H452     H        0.75180    0.05300    0.22790    1.000
    N26      N        0.80890    0.10220    0.24140    1.000
    O50      O        0.83180    0.09320    0.22390    1.000
    C339     C        0.94530    0.12750    0.19380    1.000
    H453     H        0.96570    0.15950    0.19890    1.000
    C340     C        0.96090    0.11220    0.17640    1.000
    H454     H        0.99190    0.13340    0.17050    1.000
    O51      O        0.78480    0.13590    0.27750    1.000
    C341     C        0.58900    0.99320    0.25900    1.000
    O52      O        0.99200    0.07940    0.14149    1.000
    C342     C        0.94000    0.05620    0.34990    1.000
    C343     C        0.90470    0.03150    0.36870    1.000
    H455     H        0.87290    0.00730    0.36310    1.000
    H456     H        0.90140    0.05590    0.37690    1.000
    H457     H        0.91730    0.01560    0.37800    1.000
    C344     C        0.94430    0.01720    0.33730    1.000
    H458     H        0.91190    0.99190    0.33260    1.000
    H459     H        0.95870    0.00270    0.34640    1.000
    H460     H        0.96480    0.03190    0.32470    1.000
    C345     C        0.58640    0.94510    0.25340    1.000
    H461     H        0.60940    0.95040    0.24190    1.000
    H462     H        0.55350    0.92170    0.24860    1.000
    H463     H        0.59450    0.93240    0.26600    1.000
    C346     C        0.99090    0.09480    0.35680    1.000
    H464     H        0.98900    0.12010    0.36500    1.000
    H465     H        0.01120    0.10910    0.34410    1.000
    H466     H        0.00500    0.07980    0.36590    1.000
    C347     C        0.58500    0.97300    0.23630    1.000
    H467     H        0.60630    0.95850    0.23540    1.000
    H468     H        0.59700    0.99990    0.22600    1.000
    H469     H        0.55210    0.94900    0.23320    1.000
    C348     C        0.57510    0.01390    0.23970    1.000
    H470     H        0.59760    0.01990    0.22790    1.000
    H471     H        0.57690    0.04450    0.24390    1.000
    H472     H        0.54200    0.99060    0.23520    1.000
    C349     C        0.55620    0.01560    0.25900    1.000
    H473     H        0.56710    0.04070    0.24800    1.000
    H474     H        0.55790    0.03010    0.27310    1.000
    H475     H        0.52270    0.99030    0.25610    1.000
    C350     C        0.55370    0.98470    0.27680    1.000
    H476     H        0.55480    0.01540    0.28050    1.000
    H477     H        0.56140    0.97200    0.28950    1.000
    H478     H        0.52040    0.96130    0.27200    1.000
    C351     C        0.57120    0.95420    0.27640    1.000
    H479     H        0.59240    0.93960    0.27650    1.000
    H480     H        0.53800    0.92900    0.27340    1.000
    H481     H        0.57310    0.96880    0.29040    1.000
    C352     C        0.43277    0.55773    0.69703    1.000
    C353     C        0.45517    0.56673    0.71713    1.000
    H482     H        0.48197    0.56173    0.71893    1.000
    C354     C        0.43957    0.58273    0.73433    1.000
    H483     H        0.45487    0.58703    0.74793    1.000
    C355     C        0.40247    0.59253    0.73223    1.000
    C356     C        0.37707    0.58103    0.71273    1.000
    H484     H        0.34987    0.58533    0.71113    1.000
    C357     C        0.39207    0.56333    0.69583    1.000
    H485     H        0.37397    0.55473    0.68293    1.000
    O53      O        0.41037    0.51363    0.66483    1.000
    N27      N        0.41667    0.49193    0.64603    1.000
    C358     C        0.37537    0.46053    0.63883    1.000
    H486     H        0.34747    0.45603    0.64643    1.000
    C359     C        0.36757    0.43083    0.61993    1.000
    C360     C        0.40697    0.43663    0.60663    1.000
    C361     C        0.39457    0.40533    0.58833    1.000
    C362     C        0.34607    0.36973    0.58423    1.000
    H487     H        0.33887    0.34903    0.57223    1.000
    C363     C        0.30857    0.36433    0.59763    1.000
    C364     C        0.32007    0.39443    0.61523    1.000
    H488     H        0.29457    0.39023    0.62453    1.000
    C365     C        0.43017    0.40753    0.57323    1.000
    H489     H        0.41847    0.38633    0.56123    1.000
    N28      N        0.47557    0.43553    0.57473    1.000
    O54      O        0.49847    0.42653    0.55723    1.000
    C366     C        0.61197    0.46083    0.52713    1.000
    H490     H        0.63237    0.49283    0.53223    1.000
    C367     C        0.62757    0.44553    0.50973    1.000
    H491     H        0.65857    0.46673    0.50383    1.000
    O55      O        0.45147    0.46923    0.61083    1.000
    C368     C        0.25567    0.32653    0.59233    1.000
    O56      O        0.65867    0.41273    0.47482    1.000
    C369     C        0.60667    0.38953    0.68323    1.000
    C370     C        0.57137    0.36483    0.70203    1.000
    H492     H        0.53957    0.34063    0.69643    1.000
    H493     H        0.56807    0.38923    0.71023    1.000
    H494     H        0.58397    0.34893    0.71133    1.000
    C371     C        0.61097    0.35053    0.67063    1.000
    H495     H        0.57857    0.32523    0.66593    1.000
    H496     H        0.62537    0.33603    0.67973    1.000
    H497     H        0.63147    0.36523    0.65803    1.000
    C372     C        0.25307    0.27843    0.58673    1.000
    H498     H        0.27607    0.28373    0.57523    1.000
    H499     H        0.22017    0.25503    0.58193    1.000
    H500     H        0.26117    0.26573    0.59933    1.000
    C373     C        0.65757    0.42813    0.69013    1.000
    H501     H        0.65567    0.45343    0.69833    1.000
    H502     H        0.67787    0.44243    0.67743    1.000
    H503     H        0.67167    0.41313    0.69923    1.000
    C374     C        0.25167    0.30633    0.56963    1.000
    H504     H        0.27297    0.29183    0.56873    1.000
    H505     H        0.26367    0.33323    0.55933    1.000
    H506     H        0.21877    0.28233    0.56653    1.000
    C375     C        0.24177    0.34723    0.57303    1.000
    H507     H        0.26427    0.35323    0.56123    1.000
    H508     H        0.24357    0.37783    0.57723    1.000
    H509     H        0.20867    0.32393    0.56853    1.000
    C376     C        0.22287    0.34893    0.59233    1.000
    H510     H        0.23377    0.37403    0.58133    1.000
    H511     H        0.22457    0.36343    0.60643    1.000
    H512     H        0.18937    0.32363    0.58943    1.000
    C377     C        0.22037    0.31803    0.61013    1.000
    H513     H        0.22147    0.34873    0.61383    1.000
    H514     H        0.22807    0.30533    0.62283    1.000
    H515     H        0.18707    0.29463    0.60533    1.000
    C378     C        0.23787    0.28753    0.60973    1.000
    H516     H        0.25907    0.27293    0.60983    1.000
    H517     H        0.20467    0.26233    0.60673    1.000
    H518     H        0.23977    0.30213    0.62373    1.000
    C379     C        0.09943    0.89107    0.03037    1.000
    C380     C        0.12183    0.90007    0.05047    1.000
    H519     H        0.14863    0.89507    0.05227    1.000
    C381     C        0.10623    0.91607    0.06767    1.000
    H520     H        0.12153    0.92037    0.08127    1.000
    C382     C        0.06913    0.92587    0.06557    1.000
    C383     C        0.04373    0.91437    0.04607    1.000
    H521     H        0.01653    0.91867    0.04447    1.000
    C384     C        0.05873    0.89667    0.02917    1.000
    H522     H        0.04063    0.88807    0.01627    1.000
    O57      O        0.07703    0.84697    0.99817    1.000
    N29      N        0.08333    0.82527    0.97937    1.000
    C385     C        0.04203    0.79387    0.97217    1.000
    H523     H        0.01413    0.78937    0.97977    1.000
    C386     C        0.03423    0.76417    0.95327    1.000
    C387     C        0.07363    0.76997    0.93997    1.000
    C388     C        0.06123    0.73867    0.92167    1.000
    C389     C        0.01273    0.70307    0.91757    1.000
    H524     H        0.00553    0.68237    0.90557    1.000
    C390     C        0.97523    0.69767    0.93097    1.000
    C391     C        0.98673    0.72777    0.94857    1.000
    H525     H        0.96123    0.72357    0.95787    1.000
    C392     C        0.09683    0.74087    0.90657    1.000
    H526     H        0.08513    0.71967    0.89457    1.000
    N30      N        0.14223    0.76887    0.90807    1.000
    O58      O        0.16513    0.75987    0.89057    1.000
    C393     C        0.27863    0.79417    0.86047    1.000
    H527     H        0.29903    0.82617    0.86557    1.000
    C394     C        0.29423    0.77887    0.84307    1.000
    H528     H        0.32523    0.80007    0.83717    1.000
    O59      O        0.11813    0.80257    0.94417    1.000
    C395     C        0.92233    0.65987    0.92567    1.000
    O60      O        0.32533    0.74607    0.80816    1.000
    C396     C        0.27333    0.72287    0.01657    1.000
    C397     C        0.23803    0.69817    0.03537    1.000
    H529     H        0.20623    0.67397    0.02977    1.000
    H530     H        0.23473    0.72257    0.04357    1.000
    H531     H        0.25063    0.68227    0.04467    1.000
    C398     C        0.27763    0.68387    0.00397    1.000
    H532     H        0.24523    0.65857    0.99927    1.000
    H533     H        0.29203    0.66937    0.01307    1.000
    H534     H        0.29813    0.69857    0.99137    1.000
    C399     C        0.91973    0.61177    0.92007    1.000
    H535     H        0.94273    0.61707    0.90857    1.000
    H536     H        0.88683    0.58837    0.91527    1.000
    H537     H        0.92783    0.59907    0.93267    1.000
    C400     C        0.32423    0.76147    0.02347    1.000
    H538     H        0.32233    0.78677    0.03167    1.000
    H539     H        0.34453    0.77577    0.01077    1.000
    H540     H        0.33833    0.74647    0.03257    1.000
    C401     C        0.91833    0.63967    0.90297    1.000
    H541     H        0.93963    0.62517    0.90207    1.000
    H542     H        0.93033    0.66657    0.89267    1.000
    H543     H        0.88543    0.61567    0.89987    1.000
    C402     C        0.90843    0.68057    0.90637    1.000
    H544     H        0.93093    0.68657    0.89457    1.000
    H545     H        0.91023    0.71117    0.91057    1.000
    H546     H        0.87533    0.65727    0.90187    1.000
    C403     C        0.88953    0.68227    0.92567    1.000
    H547     H        0.90043    0.70737    0.91467    1.000
    H548     H        0.89123    0.69677    0.93977    1.000
    H549     H        0.85603    0.65697    0.92277    1.000
    C404     C        0.88703    0.65137    0.94347    1.000
    H550     H        0.88813    0.68207    0.94717    1.000
    H551     H        0.89473    0.63867    0.95617    1.000
    H552     H        0.85373    0.62797    0.93867    1.000
    C405     C        0.90453    0.62087    0.94307    1.000
    H553     H        0.92573    0.60627    0.94317    1.000
    H554     H        0.87133    0.59567    0.94007    1.000
    H555     H        0.90643    0.63547    0.95707    1.000
    C406     C        0.45830    0.23390    0.36370    1.000
    C407     C        0.44490    0.21150    0.38380    1.000
    H556     H        0.41310    0.18470    0.38560    1.000
    C408     C        0.47650    0.22710    0.40100    1.000
    H557     H        0.46550    0.21180    0.41460    1.000
    C409     C        0.52340    0.26420    0.39890    1.000
    C410     C        0.53730    0.28960    0.37940    1.000
    H558     H        0.56880    0.31680    0.37780    1.000
    C411     C        0.50460    0.27460    0.36250    1.000
    H559     H        0.51410    0.29270    0.34960    1.000
    O61      O        0.43660    0.25630    0.33150    1.000
    N31      N        0.40860    0.25000    0.31270    1.000
    C412     C        0.41850    0.29130    0.30550    1.000
    H560     H        0.44190    0.31920    0.31310    1.000
    C413     C        0.39660    0.29910    0.28660    1.000
    C414     C        0.36300    0.25970    0.27330    1.000
    C415     C        0.34410    0.27210    0.25500    1.000
    C416     C        0.35700    0.32060    0.25090    1.000
    H561     H        0.34350    0.32780    0.23890    1.000
    C417     C        0.38910    0.35810    0.26430    1.000
    C418     C        0.40770    0.34660    0.28190    1.000
    H562     H        0.42900    0.37210    0.29120    1.000
    C419     C        0.31070    0.23650    0.23990    1.000
    H563     H        0.30120    0.24820    0.22790    1.000
    N32      N        0.29330    0.19110    0.24140    1.000
    O62      O        0.26140    0.16820    0.22390    1.000
    C420     C        0.18220    0.05470    0.19380    1.000
    H564     H        0.19380    0.03430    0.19890    1.000
    C421     C        0.15130    0.03910    0.17640    1.000
    H565     H        0.14150    0.00810    0.17050    1.000
    O63      O        0.35110    0.21520    0.27750    1.000
    C422     C        0.40420    0.41100    0.25900    1.000
    O64      O        0.08740    0.00800    0.14149    1.000
    C423     C        0.11620    0.06000    0.34990    1.000
    C424     C        0.12680    0.09530    0.36870    1.000
    H566     H        0.13440    0.12710    0.36310    1.000
    H567     H        0.15450    0.09860    0.37690    1.000
    H568     H        0.09830    0.08270    0.37800    1.000
    C425     C        0.07290    0.05570    0.33730    1.000
    H569     H        0.08000    0.08810    0.33260    1.000
    H570     H        0.04400    0.04130    0.34640    1.000
    H571     H        0.06710    0.03520    0.32470    1.000
    C426     C        0.35870    0.41360    0.25340    1.000
    H572     H        0.34100    0.39060    0.24190    1.000
    H573     H        0.36820    0.44650    0.24860    1.000
    H574     H        0.33790    0.40550    0.26600    1.000
    C427     C        0.10390    0.00910    0.35680    1.000
    H575     H        0.13110    0.01100    0.36500    1.000
    H576     H        0.09790    0.98880    0.34410    1.000
    H577     H        0.07480    0.99500    0.36590    1.000
    C428     C        0.38800    0.41500    0.23630    1.000
    H578     H        0.35220    0.39370    0.23540    1.000
    H579     H        0.40290    0.40300    0.22600    1.000
    H580     H        0.39690    0.44790    0.23320    1.000
    C429     C        0.43880    0.42490    0.23970    1.000
    H581     H        0.42230    0.40240    0.22790    1.000
    H582     H        0.46760    0.42310    0.24390    1.000
    H583     H        0.44860    0.45800    0.23520    1.000
    C430     C        0.45940    0.44380    0.25900    1.000
    H584     H        0.47360    0.43290    0.24800    1.000
    H585     H        0.47220    0.44210    0.27310    1.000
    H586     H        0.46760    0.47730    0.25610    1.000
    C431     C        0.43100    0.44630    0.27680    1.000
    H587     H        0.46060    0.44520    0.28050    1.000
    H588     H        0.41060    0.43860    0.28950    1.000
    H589     H        0.44090    0.47960    0.27200    1.000
    C432     C        0.38300    0.42880    0.27640    1.000
    H590     H        0.34720    0.40760    0.27650    1.000
    H591     H        0.39100    0.46200    0.27340    1.000
    H592     H        0.39570    0.42690    0.29040    1.000
    C433     C        0.12497    0.56723    0.69703    1.000
    C434     C        0.11157    0.54483    0.71713    1.000
    H593     H        0.07977    0.51803    0.71893    1.000
    C435     C        0.14317    0.56043    0.73433    1.000
    H594     H        0.13217    0.54513    0.74793    1.000
    C436     C        0.19007    0.59753    0.73223    1.000
    C437     C        0.20397    0.62293    0.71273    1.000
    H595     H        0.23547    0.65013    0.71113    1.000
    C438     C        0.17127    0.60793    0.69583    1.000
    H596     H        0.18077    0.62603    0.68293    1.000
    O65      O        0.10327    0.58963    0.66483    1.000
    N33      N        0.07527    0.58333    0.64603    1.000
    C439     C        0.08517    0.62463    0.63883    1.000
    H597     H        0.10857    0.65253    0.64643    1.000
    C440     C        0.06327    0.63243    0.61993    1.000
    C441     C        0.02967    0.59303    0.60663    1.000
    C442     C        0.01077    0.60543    0.58833    1.000
    C443     C        0.02367    0.65393    0.58423    1.000
    H598     H        0.01017    0.66113    0.57223    1.000
    C444     C        0.05577    0.69143    0.59763    1.000
    C445     C        0.07437    0.67993    0.61523    1.000
    H599     H        0.09567    0.70543    0.62453    1.000
    C446     C        0.97737    0.56983    0.57323    1.000
    H600     H        0.96787    0.58153    0.56123    1.000
    N34      N        0.95997    0.52443    0.57473    1.000
    O66      O        0.92807    0.50153    0.55723    1.000
    C447     C        0.84887    0.38803    0.52713    1.000
    H601     H        0.86047    0.36763    0.53223    1.000
    C448     C        0.81797    0.37243    0.50973    1.000
    H602     H        0.80817    0.34143    0.50383    1.000
    O67      O        0.01777    0.54853    0.61083    1.000
    C449     C        0.07087    0.74433    0.59233    1.000
    O68      O        0.75407    0.34133    0.47482    1.000
    C450     C        0.78287    0.39333    0.68323    1.000
    C451     C        0.79347    0.42863    0.70203    1.000
    H603     H        0.80107    0.46043    0.69643    1.000
    H604     H        0.82117    0.43193    0.71023    1.000
    H605     H        0.76497    0.41603    0.71133    1.000
    C452     C        0.73957    0.38903    0.67063    1.000
    H606     H        0.74667    0.42143    0.66593    1.000
    H607     H        0.71067    0.37463    0.67973    1.000
    H608     H        0.73377    0.36853    0.65803    1.000
    C453     C        0.02537    0.74693    0.58673    1.000
    H609     H        0.00767    0.72393    0.57523    1.000
    H610     H        0.03487    0.77983    0.58193    1.000
    H611     H        0.00457    0.73883    0.59933    1.000
    C454     C        0.77057    0.34243    0.69013    1.000
    H612     H        0.79777    0.34433    0.69833    1.000
    H613     H        0.76457    0.32213    0.67743    1.000
    H614     H        0.74147    0.32833    0.69923    1.000
    C455     C        0.05467    0.74833    0.56963    1.000
    H615     H        0.01887    0.72703    0.56873    1.000
    H616     H        0.06957    0.73633    0.55933    1.000
    H617     H        0.06357    0.78123    0.56653    1.000
    C456     C        0.10547    0.75823    0.57303    1.000
    H618     H        0.08897    0.73573    0.56123    1.000
    H619     H        0.13427    0.75643    0.57723    1.000
    H620     H        0.11527    0.79133    0.56853    1.000
    C457     C        0.12607    0.77713    0.59233    1.000
    H621     H        0.14027    0.76623    0.58133    1.000
    H622     H        0.13887    0.77543    0.60643    1.000
    H623     H        0.13427    0.81063    0.58943    1.000
    C458     C        0.09767    0.77963    0.61013    1.000
    H624     H        0.12727    0.77853    0.61383    1.000
    H625     H        0.07727    0.77193    0.62283    1.000
    H626     H        0.10757    0.81293    0.60533    1.000
    C459     C        0.04967    0.76213    0.60973    1.000
    H627     H        0.01387    0.74093    0.60983    1.000
    H628     H        0.05767    0.79533    0.60673    1.000
    H629     H        0.06237    0.76023    0.62373    1.000
    C460     C        0.79163    0.90057    0.03037    1.000
    C461     C        0.77823    0.87817    0.05047    1.000
    H630     H        0.74643    0.85137    0.05227    1.000
    C462     C        0.80983    0.89377    0.06767    1.000
    H631     H        0.79883    0.87847    0.08127    1.000
    C463     C        0.85673    0.93087    0.06557    1.000
    C464     C        0.87063    0.95627    0.04607    1.000
    H632     H        0.90213    0.98347    0.04447    1.000
    C465     C        0.83793    0.94127    0.02917    1.000
    H633     H        0.84743    0.95937    0.01627    1.000
    O69      O        0.76993    0.92297    0.99817    1.000
    N35      N        0.74193    0.91667    0.97937    1.000
    C466     C        0.75183    0.95797    0.97217    1.000
    H634     H        0.77523    0.98587    0.97977    1.000
    C467     C        0.72993    0.96577    0.95327    1.000
    C468     C        0.69633    0.92637    0.93997    1.000
    C469     C        0.67743    0.93877    0.92167    1.000
    C470     C        0.69033    0.98727    0.91757    1.000
    H635     H        0.67683    0.99447    0.90557    1.000
    C471     C        0.72243    0.02477    0.93097    1.000
    C472     C        0.74103    0.01327    0.94857    1.000
    H636     H        0.76233    0.03877    0.95787    1.000
    C473     C        0.64403    0.90317    0.90657    1.000
    H637     H        0.63453    0.91487    0.89457    1.000
    N36      N        0.62663    0.85777    0.90807    1.000
    O70      O        0.59473    0.83487    0.89057    1.000
    C474     C        0.51553    0.72137    0.86047    1.000
    H638     H        0.52713    0.70097    0.86557    1.000
    C475     C        0.48463    0.70577    0.84307    1.000
    H639     H        0.47483    0.67477    0.83717    1.000
    O71      O        0.68443    0.88187    0.94417    1.000
    C476     C        0.73753    0.07767    0.92567    1.000
    O72      O        0.42073    0.67467    0.80816    1.000
    C477     C        0.44953    0.72667    0.01657    1.000
    C478     C        0.46013    0.76197    0.03537    1.000
    H640     H        0.46773    0.79377    0.02977    1.000
    H641     H        0.48783    0.76527    0.04357    1.000
    H642     H        0.43163    0.74937    0.04467    1.000
    C479     C        0.40623    0.72237    0.00397    1.000
    H643     H        0.41333    0.75477    0.99927    1.000
    H644     H        0.37733    0.70797    0.01307    1.000
    H645     H        0.40043    0.70187    0.99137    1.000
    C480     C        0.69203    0.08027    0.92007    1.000
    H646     H        0.67433    0.05727    0.90857    1.000
    H647     H        0.70153    0.11317    0.91527    1.000
    H648     H        0.67123    0.07217    0.93267    1.000
    C481     C        0.43723    0.67577    0.02347    1.000
    H649     H        0.46443    0.67767    0.03167    1.000
    H650     H        0.43123    0.65547    0.01077    1.000
    H651     H        0.40813    0.66167    0.03257    1.000
    C482     C        0.72133    0.08167    0.90297    1.000
    H652     H        0.68553    0.06037    0.90207    1.000
    H653     H        0.73623    0.06967    0.89267    1.000
    H654     H        0.73023    0.11457    0.89987    1.000
    C483     C        0.77213    0.09157    0.90637    1.000
    H655     H        0.75563    0.06907    0.89457    1.000
    H656     H        0.80093    0.08977    0.91057    1.000
    H657     H        0.78193    0.12467    0.90187    1.000
    C484     C        0.79273    0.11047    0.92567    1.000
    H658     H        0.80693    0.09957    0.91467    1.000
    H659     H        0.80553    0.10877    0.93977    1.000
    H660     H        0.80093    0.14397    0.92277    1.000
    C485     C        0.76433    0.11297    0.94347    1.000
    H661     H        0.79393    0.11187    0.94717    1.000
    H662     H        0.74393    0.10527    0.95617    1.000
    H663     H        0.77423    0.14627    0.93867    1.000
    C486     C        0.71633    0.09547    0.94307    1.000
    H664     H        0.68053    0.07427    0.94317    1.000
    H665     H        0.72433    0.12867    0.94007    1.000
    H666     H        0.72903    0.09357    0.95707    1.000
    Co1      Co       0.29622    0.14811    0.26527    1.000
    Co2      Co       0.35913    0.17956    0.30373    1.000
    Zn1      Zn       0.59976    0.29988    0.45668    1.000
    B1       B        0.42420    0.21210    0.34320    1.000
    O73      O        0.37470    0.18735    0.35120    1.000
    N37      N        0.33820    0.16910    0.33620    1.000
    C487     C        0.29630    0.14815    0.34470    1.000
    H667     H        0.29480    0.14740    0.35990    1.000
    C488     C        0.25080    0.12540    0.33310    1.000
    C489     C        0.24730    0.12365    0.31010    1.000
    C490     C        0.19970    0.09985    0.30070    1.000
    C491     C        0.15890    0.07945    0.31420    1.000
    H668     H        0.12750    0.06375    0.30790    1.000
    C492     C        0.16270    0.08135    0.33630    1.000
    C493     C        0.20840    0.10420    0.34560    1.000
    H669     H        0.21110    0.10555    0.36080    1.000
    C494     C        0.19000    0.09500    0.27790    1.000
    H670     H        0.15710    0.07855    0.27350    1.000
    N38      N        0.22220    0.11110    0.26350    1.000
    O74      O        0.19910    0.09955    0.24350    1.000
    B2       B        0.23040    0.11520    0.22530    1.000
    C495     C        0.19750    0.09875    0.20420    1.000
    C496     C        0.13430    0.06715    0.16750    1.000
    C497     C        0.55900    0.27950    0.41710    1.000
    O75      O        0.60340    0.30170    0.41120    1.000
    O76      O        0.54600    0.27300    0.43560    1.000
    O77      O        0.28490    0.14245    0.29830    1.000
    C498     C        0.10090    0.05045    0.14840    1.000
    Co3      Co       0.96289    0.48144    0.59860    1.000
    Co4      Co       0.02580    0.51290    0.63706    1.000
    Zn2      Zn       0.26643    0.63321    0.79001    1.000
    B3       B        0.09087    0.54543    0.67653    1.000
    O78      O        0.04137    0.52068    0.68453    1.000
    N39      N        0.00487    0.50243    0.66953    1.000
    C499     C        0.96297    0.48148    0.67803    1.000
    H671     H        0.96147    0.48073    0.69323    1.000
    C500     C        0.91747    0.45873    0.66643    1.000
    C501     C        0.91397    0.45698    0.64343    1.000
    C502     C        0.86637    0.43318    0.63403    1.000
    C503     C        0.82557    0.41278    0.64753    1.000
    H672     H        0.79417    0.39708    0.64123    1.000
    C504     C        0.82937    0.41468    0.66963    1.000
    C505     C        0.87507    0.43753    0.67893    1.000
    H673     H        0.87777    0.43888    0.69413    1.000
    C506     C        0.85667    0.42833    0.61123    1.000
    H674     H        0.82377    0.41188    0.60683    1.000
    N40      N        0.88887    0.44443    0.59683    1.000
    O79      O        0.86577    0.43288    0.57683    1.000
    B4       B        0.89707    0.44853    0.55863    1.000
    C507     C        0.86417    0.43208    0.53753    1.000
    C508     C        0.80097    0.40048    0.50083    1.000
    C509     C        0.22567    0.61283    0.75043    1.000
    O80      O        0.27007    0.63503    0.74453    1.000
    O81      O        0.21267    0.60633    0.76893    1.000
    O82      O        0.95157    0.47578    0.63163    1.000
    C510     C        0.76757    0.38378    0.48173    1.000
    Co5      Co       0.62955    0.81478    0.93194    1.000
    Co6      Co       0.69246    0.84623    0.97040    1.000
    Zn3      Zn       0.93309    0.96655    0.12335    1.000
    B5       B        0.75753    0.87877    0.00987    1.000
    O83      O        0.70803    0.85402    0.01787    1.000
    N41      N        0.67153    0.83577    0.00287    1.000
    C511     C        0.62963    0.81482    0.01137    1.000
    H675     H        0.62813    0.81407    0.02657    1.000
    C512     C        0.58413    0.79207    0.99977    1.000
    C513     C        0.58063    0.79032    0.97677    1.000
    C514     C        0.53303    0.76652    0.96737    1.000
    C515     C        0.49223    0.74612    0.98087    1.000
    H676     H        0.46083    0.73042    0.97457    1.000
    C516     C        0.49603    0.74802    0.00297    1.000
    C517     C        0.54173    0.77087    0.01227    1.000
    H677     H        0.54443    0.77222    0.02747    1.000
    C518     C        0.52333    0.76167    0.94457    1.000
    H678     H        0.49043    0.74522    0.94017    1.000
    N42      N        0.55553    0.77777    0.93017    1.000
    O84      O        0.53243    0.76622    0.91017    1.000
    B6       B        0.56373    0.78187    0.89197    1.000
    C519     C        0.53083    0.76542    0.87087    1.000
    C520     C        0.46763    0.73382    0.83417    1.000
    C521     C        0.89233    0.94617    0.08377    1.000
    O85      O        0.93673    0.96837    0.07787    1.000
    O86      O        0.87933    0.93967    0.10227    1.000
    O87      O        0.61823    0.80912    0.96497    1.000
    C522     C        0.43423    0.71712    0.81507    1.000
    Co7      Co       0.85189    0.14811    0.26527    1.000
    Co8      Co       0.82044    0.17956    0.30373    1.000
    Zn4      Zn       0.70012    0.29988    0.45668    1.000
    B7       B        0.78790    0.21210    0.34320    1.000
    O88      O        0.81265    0.18735    0.35120    1.000
    N43      N        0.83090    0.16910    0.33620    1.000
    C523     C        0.85185    0.14815    0.34470    1.000
    H679     H        0.85260    0.14740    0.35990    1.000
    C524     C        0.87460    0.12540    0.33310    1.000
    C525     C        0.87635    0.12365    0.31010    1.000
    C526     C        0.90015    0.09985    0.30070    1.000
    C527     C        0.92055    0.07945    0.31420    1.000
    H680     H        0.93625    0.06375    0.30790    1.000
    C528     C        0.91865    0.08135    0.33630    1.000
    C529     C        0.89580    0.10420    0.34560    1.000
    H681     H        0.89445    0.10555    0.36080    1.000
    C530     C        0.90500    0.09500    0.27790    1.000
    H682     H        0.92145    0.07855    0.27350    1.000
    N44      N        0.88890    0.11110    0.26350    1.000
    O89      O        0.90045    0.09955    0.24350    1.000
    B8       B        0.88480    0.11520    0.22530    1.000
    C531     C        0.90125    0.09875    0.20420    1.000
    C532     C        0.93285    0.06715    0.16750    1.000
    C533     C        0.72050    0.27950    0.41710    1.000
    O90      O        0.69830    0.30170    0.41120    1.000
    O91      O        0.72700    0.27300    0.43560    1.000
    O92      O        0.85755    0.14245    0.29830    1.000
    C534     C        0.94955    0.05045    0.14840    1.000
    Co9      Co       0.51856    0.48144    0.59860    1.000
    Co10     Co       0.48710    0.51290    0.63706    1.000
    Zn5      Zn       0.36679    0.63321    0.79001    1.000
    B9       B        0.45457    0.54543    0.67653    1.000
    O93      O        0.47932    0.52068    0.68453    1.000
    N45      N        0.49757    0.50243    0.66953    1.000
    C535     C        0.51852    0.48148    0.67803    1.000
    H683     H        0.51927    0.48073    0.69323    1.000
    C536     C        0.54127    0.45873    0.66643    1.000
    C537     C        0.54302    0.45698    0.64343    1.000
    C538     C        0.56682    0.43318    0.63403    1.000
    C539     C        0.58722    0.41278    0.64753    1.000
    H684     H        0.60292    0.39708    0.64123    1.000
    C540     C        0.58532    0.41468    0.66963    1.000
    C541     C        0.56247    0.43753    0.67893    1.000
    H685     H        0.56112    0.43888    0.69413    1.000
    C542     C        0.57167    0.42833    0.61123    1.000
    H686     H        0.58812    0.41188    0.60683    1.000
    N46      N        0.55557    0.44443    0.59683    1.000
    O94      O        0.56712    0.43288    0.57683    1.000
    B10      B        0.55147    0.44853    0.55863    1.000
    C543     C        0.56792    0.43208    0.53753    1.000
    C544     C        0.59952    0.40048    0.50083    1.000
    C545     C        0.38717    0.61283    0.75043    1.000
    O95      O        0.36497    0.63503    0.74453    1.000
    O96      O        0.39367    0.60633    0.76893    1.000
    O97      O        0.52422    0.47578    0.63163    1.000
    C546     C        0.61622    0.38378    0.48173    1.000
    Co11     Co       0.18522    0.81478    0.93194    1.000
    Co12     Co       0.15377    0.84623    0.97040    1.000
    Zn6      Zn       0.03345    0.96655    0.12335    1.000
    B11      B        0.12123    0.87877    0.00987    1.000
    O98      O        0.14598    0.85402    0.01787    1.000
    N47      N        0.16423    0.83577    0.00287    1.000
    C547     C        0.18518    0.81482    0.01137    1.000
    H687     H        0.18593    0.81407    0.02657    1.000
    C548     C        0.20793    0.79207    0.99977    1.000
    C549     C        0.20968    0.79032    0.97677    1.000
    C550     C        0.23348    0.76652    0.96737    1.000
    C551     C        0.25388    0.74612    0.98087    1.000
    H688     H        0.26958    0.73042    0.97457    1.000
    C552     C        0.25198    0.74802    0.00297    1.000
    C553     C        0.22913    0.77087    0.01227    1.000
    H689     H        0.22778    0.77222    0.02747    1.000
    C554     C        0.23833    0.76167    0.94457    1.000
    H690     H        0.25478    0.74522    0.94017    1.000
    N48      N        0.22223    0.77777    0.93017    1.000
    O99      O        0.23378    0.76622    0.91017    1.000
    B12      B        0.21813    0.78187    0.89197    1.000
    C555     C        0.23458    0.76542    0.87087    1.000
    C556     C        0.26618    0.73382    0.83417    1.000
    C557     C        0.05383    0.94617    0.08377    1.000
    O100     O        0.03163    0.96837    0.07787    1.000
    O101     O        0.06033    0.93967    0.10227    1.000
    O102     O        0.19088    0.80912    0.96497    1.000
    C558     C        0.28288    0.71712    0.81507    1.000
    Co13     Co       0.85189    0.70378    0.26527    1.000
    Co14     Co       0.82044    0.64087    0.30373    1.000
    Zn7      Zn       0.70012    0.40024    0.45668    1.000
    B13      B        0.78790    0.57580    0.34320    1.000
    O103     O        0.81265    0.62530    0.35120    1.000
    N49      N        0.83090    0.66180    0.33620    1.000
    C559     C        0.85185    0.70370    0.34470    1.000
    H691     H        0.85260    0.70520    0.35990    1.000
    C560     C        0.87460    0.74920    0.33310    1.000
    C561     C        0.87635    0.75270    0.31010    1.000
    C562     C        0.90015    0.80030    0.30070    1.000
    C563     C        0.92055    0.84110    0.31420    1.000
    H692     H        0.93625    0.87250    0.30790    1.000
    C564     C        0.91865    0.83730    0.33630    1.000
    C565     C        0.89580    0.79160    0.34560    1.000
    H693     H        0.89445    0.78890    0.36080    1.000
    C566     C        0.90500    0.81000    0.27790    1.000
    H694     H        0.92145    0.84290    0.27350    1.000
    N50      N        0.88890    0.77780    0.26350    1.000
    O104     O        0.90045    0.80090    0.24350    1.000
    B14      B        0.88480    0.76960    0.22530    1.000
    C567     C        0.90125    0.80250    0.20420    1.000
    C568     C        0.93285    0.86570    0.16750    1.000
    C569     C        0.72050    0.44100    0.41710    1.000
    O105     O        0.69830    0.39660    0.41120    1.000
    O106     O        0.72700    0.45400    0.43560    1.000
    O107     O        0.85755    0.71510    0.29830    1.000
    C570     C        0.94955    0.89910    0.14840    1.000
    Co15     Co       0.51856    0.03711    0.59860    1.000
    Co16     Co       0.48710    0.97420    0.63706    1.000
    Zn8      Zn       0.36679    0.73357    0.79001    1.000
    B15      B        0.45457    0.90913    0.67653    1.000
    O108     O        0.47932    0.95863    0.68453    1.000
    N51      N        0.49757    0.99513    0.66953    1.000
    C571     C        0.51852    0.03703    0.67803    1.000
    H695     H        0.51927    0.03853    0.69323    1.000
    C572     C        0.54127    0.08253    0.66643    1.000
    C573     C        0.54302    0.08603    0.64343    1.000
    C574     C        0.56682    0.13363    0.63403    1.000
    C575     C        0.58722    0.17443    0.64753    1.000
    H696     H        0.60292    0.20583    0.64123    1.000
    C576     C        0.58532    0.17063    0.66963    1.000
    C577     C        0.56247    0.12493    0.67893    1.000
    H697     H        0.56112    0.12223    0.69413    1.000
    C578     C        0.57167    0.14333    0.61123    1.000
    H698     H        0.58812    0.17623    0.60683    1.000
    N52      N        0.55557    0.11113    0.59683    1.000
    O109     O        0.56712    0.13423    0.57683    1.000
    B16      B        0.55147    0.10293    0.55863    1.000
    C579     C        0.56792    0.13583    0.53753    1.000
    C580     C        0.59952    0.19903    0.50083    1.000
    C581     C        0.38717    0.77433    0.75043    1.000
    O110     O        0.36497    0.72993    0.74453    1.000
    O111     O        0.39367    0.78733    0.76893    1.000
    O112     O        0.52422    0.04843    0.63163    1.000
    C582     C        0.61622    0.23243    0.48173    1.000
    Co17     Co       0.18522    0.37045    0.93194    1.000
    Co18     Co       0.15377    0.30754    0.97040    1.000
    Zn9      Zn       0.03345    0.06691    0.12335    1.000
    B17      B        0.12123    0.24247    0.00987    1.000
    O113     O        0.14598    0.29197    0.01787    1.000
    N53      N        0.16423    0.32847    0.00287    1.000
    C583     C        0.18518    0.37037    0.01137    1.000
    H699     H        0.18593    0.37187    0.02657    1.000
    C584     C        0.20793    0.41587    0.99977    1.000
    C585     C        0.20968    0.41937    0.97677    1.000
    C586     C        0.23348    0.46697    0.96737    1.000
    C587     C        0.25388    0.50777    0.98087    1.000
    H700     H        0.26958    0.53917    0.97457    1.000
    C588     C        0.25198    0.50397    0.00297    1.000
    C589     C        0.22913    0.45827    0.01227    1.000
    H701     H        0.22778    0.45557    0.02747    1.000
    C590     C        0.23833    0.47667    0.94457    1.000
    H702     H        0.25478    0.50957    0.94017    1.000
    N54      N        0.22223    0.44447    0.93017    1.000
    O114     O        0.23378    0.46757    0.91017    1.000
    B18      B        0.21813    0.43627    0.89197    1.000
    C591     C        0.23458    0.46917    0.87087    1.000
    C592     C        0.26618    0.53237    0.83417    1.000
    C593     C        0.05383    0.10767    0.08377    1.000
    O115     O        0.03163    0.06327    0.07787    1.000
    O116     O        0.06033    0.12067    0.10227    1.000
    O117     O        0.19088    0.38177    0.96497    1.000
    C594     C        0.28288    0.56577    0.81507    1.000
    Zn10     Zn       0.66667    0.33333    0.41591    1.000
    O118     O        0.66667    0.33333    0.44850    1.000
    Zn11     Zn       0.33333    0.66667    0.74924    1.000
    O119     O        0.33333    0.66667    0.78183    1.000
    Zn12     Zn       0.00000    0.00000    0.08258    1.000
    O120     O        0.00000    0.00000    0.11517    1.000
    C595     C        0.22440    0.45830    0.63630    1.000
    C596     C        0.23340    0.44490    0.61620    1.000
    H703     H        0.22840    0.41310    0.61440    1.000
    C597     C        0.24940    0.47650    0.59900    1.000
    H704     H        0.25370    0.46550    0.58540    1.000
    C598     C        0.25920    0.52340    0.60110    1.000
    C599     C        0.24770    0.53730    0.62060    1.000
    H705     H        0.25200    0.56880    0.62220    1.000
    C600     C        0.23000    0.50460    0.63750    1.000
    H706     H        0.22140    0.51410    0.65040    1.000
    O121     O        0.18030    0.43660    0.66850    1.000
    N55      N        0.15860    0.40860    0.68730    1.000
    C601     C        0.12720    0.41850    0.69450    1.000
    H707     H        0.12270    0.44190    0.68690    1.000
    C602     C        0.09750    0.39660    0.71340    1.000
    C603     C        0.10330    0.36300    0.72670    1.000
    C604     C        0.07200    0.34410    0.74500    1.000
    C605     C        0.03640    0.35700    0.74910    1.000
    H708     H        0.01570    0.34350    0.76110    1.000
    C606     C        0.03100    0.38910    0.73570    1.000
    C607     C        0.06110    0.40770    0.71810    1.000
    H709     H        0.05690    0.42900    0.70880    1.000
    C608     C        0.07420    0.31070    0.76010    1.000
    H710     H        0.05300    0.30120    0.77210    1.000
    N56      N        0.10220    0.29330    0.75860    1.000
    O122     O        0.09320    0.26140    0.77610    1.000
    C609     C        0.12750    0.18220    0.80620    1.000
    H711     H        0.15950    0.19380    0.80110    1.000
    C610     C        0.11220    0.15130    0.82360    1.000
    H712     H        0.13340    0.14150    0.82950    1.000
    O123     O        0.13590    0.35110    0.72250    1.000
    C611     C        0.99320    0.40420    0.74100    1.000
    O124     O        0.07940    0.08740    0.85851    1.000
    C612     C        0.05620    0.11620    0.65010    1.000
    C613     C        0.03150    0.12680    0.63130    1.000
    H713     H        0.00730    0.13440    0.63690    1.000
    H714     H        0.05590    0.15450    0.62310    1.000
    H715     H        0.01560    0.09830    0.62200    1.000
    C614     C        0.01720    0.07290    0.66270    1.000
    H716     H        0.99190    0.08000    0.66740    1.000
    H717     H        0.00270    0.04400    0.65360    1.000
    H718     H        0.03190    0.06710    0.67530    1.000
    C615     C        0.94510    0.35870    0.74660    1.000
    H719     H        0.95040    0.34100    0.75810    1.000
    H720     H        0.92170    0.36820    0.75140    1.000
    H721     H        0.93240    0.33790    0.73400    1.000
    C616     C        0.09480    0.10390    0.64320    1.000
    H722     H        0.12010    0.13110    0.63500    1.000
    H723     H        0.10910    0.09790    0.65590    1.000
    H724     H        0.07980    0.07480    0.63410    1.000
    C617     C        0.97300    0.38800    0.76370    1.000
    H725     H        0.95850    0.35220    0.76460    1.000
    H726     H        0.99990    0.40290    0.77400    1.000
    H727     H        0.94900    0.39690    0.76680    1.000
    C618     C        0.01390    0.43880    0.76030    1.000
    H728     H        0.01990    0.42230    0.77210    1.000
    H729     H        0.04450    0.46760    0.75610    1.000
    H730     H        0.99060    0.44860    0.76480    1.000
    C619     C        0.01560    0.45940    0.74100    1.000
    H731     H        0.04070    0.47360    0.75200    1.000
    H732     H        0.03010    0.47220    0.72690    1.000
    H733     H        0.99030    0.46760    0.74390    1.000
    C620     C        0.98470    0.43100    0.72320    1.000
    H734     H        0.01540    0.46060    0.71950    1.000
    H735     H        0.97200    0.41060    0.71050    1.000
    H736     H        0.96130    0.44090    0.72800    1.000
    C621     C        0.95420    0.38300    0.72360    1.000
    H737     H        0.93960    0.34720    0.72350    1.000
    H738     H        0.92900    0.39100    0.72660    1.000
    H739     H        0.96880    0.39570    0.70960    1.000
    C622     C        0.89107    0.79163    0.96963    1.000
    C623     C        0.90007    0.77823    0.94953    1.000
    H740     H        0.89507    0.74643    0.94773    1.000
    C624     C        0.91607    0.80983    0.93233    1.000
    H741     H        0.92037    0.79883    0.91873    1.000
    C625     C        0.92587    0.85673    0.93443    1.000
    C626     C        0.91437    0.87063    0.95393    1.000
    H742     H        0.91867    0.90213    0.95553    1.000
    C627     C        0.89667    0.83793    0.97083    1.000
    H743     H        0.88807    0.84743    0.98373    1.000
    O125     O        0.84697    0.76993    0.00183    1.000
    N57      N        0.82527    0.74193    0.02063    1.000
    C628     C        0.79387    0.75183    0.02783    1.000
    H744     H        0.78937    0.77523    0.02023    1.000
    C629     C        0.76417    0.72993    0.04673    1.000
    C630     C        0.76997    0.69633    0.06003    1.000
    C631     C        0.73867    0.67743    0.07833    1.000
    C632     C        0.70307    0.69033    0.08243    1.000
    H745     H        0.68237    0.67683    0.09443    1.000
    C633     C        0.69767    0.72243    0.06903    1.000
    C634     C        0.72777    0.74103    0.05143    1.000
    H746     H        0.72357    0.76233    0.04213    1.000
    C635     C        0.74087    0.64403    0.09343    1.000
    H747     H        0.71967    0.63453    0.10543    1.000
    N58      N        0.76887    0.62663    0.09193    1.000
    O126     O        0.75987    0.59473    0.10943    1.000
    C636     C        0.79417    0.51553    0.13953    1.000
    H748     H        0.82617    0.52713    0.13443    1.000
    C637     C        0.77887    0.48463    0.15693    1.000
    H749     H        0.80007    0.47483    0.16283    1.000
    O127     O        0.80257    0.68443    0.05583    1.000
    C638     C        0.65987    0.73753    0.07433    1.000
    O128     O        0.74607    0.42073    0.19184    1.000
    C639     C        0.72287    0.44953    0.98343    1.000
    C640     C        0.69817    0.46013    0.96463    1.000
    H750     H        0.67397    0.46773    0.97023    1.000
    H751     H        0.72257    0.48783    0.95643    1.000
    H752     H        0.68227    0.43163    0.95533    1.000
    C641     C        0.68387    0.40623    0.99603    1.000
    H753     H        0.65857    0.41333    0.00073    1.000
    H754     H        0.66937    0.37733    0.98693    1.000
    H755     H        0.69857    0.40043    0.00863    1.000
    C642     C        0.61177    0.69203    0.07993    1.000
    H756     H        0.61707    0.67433    0.09143    1.000
    H757     H        0.58837    0.70153    0.08473    1.000
    H758     H        0.59907    0.67123    0.06733    1.000
    C643     C        0.76147    0.43723    0.97653    1.000
    H759     H        0.78677    0.46443    0.96833    1.000
    H760     H        0.77577    0.43123    0.98923    1.000
    H761     H        0.74647    0.40813    0.96743    1.000
    C644     C        0.63967    0.72133    0.09703    1.000
    H762     H        0.62517    0.68553    0.09793    1.000
    H763     H        0.66657    0.73623    0.10733    1.000
    H764     H        0.61567    0.73023    0.10013    1.000
    C645     C        0.68057    0.77213    0.09363    1.000
    H765     H        0.68657    0.75563    0.10543    1.000
    H766     H        0.71117    0.80093    0.08943    1.000
    H767     H        0.65727    0.78193    0.09813    1.000
    C646     C        0.68227    0.79273    0.07433    1.000
    H768     H        0.70737    0.80693    0.08533    1.000
    H769     H        0.69677    0.80553    0.06023    1.000
    H770     H        0.65697    0.80093    0.07723    1.000
    C647     C        0.65137    0.76433    0.05653    1.000
    H771     H        0.68207    0.79393    0.05283    1.000
    H772     H        0.63867    0.74393    0.04383    1.000
    H773     H        0.62797    0.77423    0.06133    1.000
    C648     C        0.62087    0.71633    0.05693    1.000
    H774     H        0.60627    0.68053    0.05683    1.000
    H775     H        0.59567    0.72433    0.05993    1.000
    H776     H        0.63547    0.72903    0.04293    1.000
    C649     C        0.55773    0.12497    0.30297    1.000
    C650     C        0.56673    0.11157    0.28287    1.000
    H777     H        0.56173    0.07977    0.28107    1.000
    C651     C        0.58273    0.14317    0.26567    1.000
    H778     H        0.58703    0.13217    0.25207    1.000
    C652     C        0.59253    0.19007    0.26777    1.000
    C653     C        0.58103    0.20397    0.28727    1.000
    H779     H        0.58533    0.23547    0.28887    1.000
    C654     C        0.56333    0.17127    0.30417    1.000
    H780     H        0.55473    0.18077    0.31707    1.000
    O129     O        0.51363    0.10327    0.33517    1.000
    N59      N        0.49193    0.07527    0.35397    1.000
    C655     C        0.46053    0.08517    0.36117    1.000
    H781     H        0.45603    0.10857    0.35357    1.000
    C656     C        0.43083    0.06327    0.38007    1.000
    C657     C        0.43663    0.02967    0.39337    1.000
    C658     C        0.40533    0.01077    0.41167    1.000
    C659     C        0.36973    0.02367    0.41577    1.000
    H782     H        0.34903    0.01017    0.42777    1.000
    C660     C        0.36433    0.05577    0.40237    1.000
    C661     C        0.39443    0.07437    0.38477    1.000
    H783     H        0.39023    0.09567    0.37547    1.000
    C662     C        0.40753    0.97737    0.42677    1.000
    H784     H        0.38633    0.96787    0.43877    1.000
    N60      N        0.43553    0.95997    0.42527    1.000
    O130     O        0.42653    0.92807    0.44277    1.000
    C663     C        0.46083    0.84887    0.47287    1.000
    H785     H        0.49283    0.86047    0.46777    1.000
    C664     C        0.44553    0.81797    0.49027    1.000
    H786     H        0.46673    0.80817    0.49617    1.000
    O131     O        0.46923    0.01777    0.38917    1.000
    C665     C        0.32653    0.07087    0.40767    1.000
    O132     O        0.41273    0.75407    0.52518    1.000
    C666     C        0.38953    0.78287    0.31677    1.000
    C667     C        0.36483    0.79347    0.29797    1.000
    H787     H        0.34063    0.80107    0.30357    1.000
    H788     H        0.38923    0.82117    0.28977    1.000
    H789     H        0.34893    0.76497    0.28867    1.000
    C668     C        0.35053    0.73957    0.32937    1.000
    H790     H        0.32523    0.74667    0.33407    1.000
    H791     H        0.33603    0.71067    0.32027    1.000
    H792     H        0.36523    0.73377    0.34197    1.000
    C669     C        0.27843    0.02537    0.41327    1.000
    H793     H        0.28373    0.00767    0.42477    1.000
    H794     H        0.25503    0.03487    0.41807    1.000
    H795     H        0.26573    0.00457    0.40067    1.000
    C670     C        0.42813    0.77057    0.30987    1.000
    H796     H        0.45343    0.79777    0.30167    1.000
    H797     H        0.44243    0.76457    0.32257    1.000
    H798     H        0.41313    0.74147    0.30077    1.000
    C671     C        0.30633    0.05467    0.43037    1.000
    H799     H        0.29183    0.01887    0.43127    1.000
    H800     H        0.33323    0.06957    0.44067    1.000
    H801     H        0.28233    0.06357    0.43347    1.000
    C672     C        0.34723    0.10547    0.42697    1.000
    H802     H        0.35323    0.08897    0.43877    1.000
    H803     H        0.37783    0.13427    0.42277    1.000
    H804     H        0.32393    0.11527    0.43147    1.000
    C673     C        0.34893    0.12607    0.40767    1.000
    H805     H        0.37403    0.14027    0.41867    1.000
    H806     H        0.36343    0.13887    0.39357    1.000
    H807     H        0.32363    0.13427    0.41057    1.000
    C674     C        0.31803    0.09767    0.38987    1.000
    H808     H        0.34873    0.12727    0.38617    1.000
    H809     H        0.30533    0.07727    0.37717    1.000
    H810     H        0.29463    0.10757    0.39467    1.000
    C675     C        0.28753    0.04967    0.39027    1.000
    H811     H        0.27293    0.01387    0.39017    1.000
    H812     H        0.26233    0.05767    0.39327    1.000
    H813     H        0.30213    0.06237    0.37627    1.000
    C676     C        0.23390    0.77560    0.63630    1.000
    C677     C        0.21150    0.76660    0.61620    1.000
    H814     H        0.18470    0.77160    0.61440    1.000
    C678     C        0.22710    0.75060    0.59900    1.000
    H815     H        0.21180    0.74630    0.58540    1.000
    C679     C        0.26420    0.74080    0.60110    1.000
    C680     C        0.28960    0.75230    0.62060    1.000
    H816     H        0.31680    0.74800    0.62220    1.000
    C681     C        0.27460    0.77000    0.63750    1.000
    H817     H        0.29270    0.77860    0.65040    1.000
    O133     O        0.25630    0.81970    0.66850    1.000
    N61      N        0.25000    0.84140    0.68730    1.000
    C682     C        0.29130    0.87280    0.69450    1.000
    H818     H        0.31920    0.87730    0.68690    1.000
    C683     C        0.29910    0.90250    0.71340    1.000
    C684     C        0.25970    0.89670    0.72670    1.000
    C685     C        0.27210    0.92800    0.74500    1.000
    C686     C        0.32060    0.96360    0.74910    1.000
    H819     H        0.32780    0.98430    0.76110    1.000
    C687     C        0.35810    0.96900    0.73570    1.000
    C688     C        0.34660    0.93890    0.71810    1.000
    H820     H        0.37210    0.94310    0.70880    1.000
    C689     C        0.23650    0.92580    0.76010    1.000
    H821     H        0.24820    0.94700    0.77210    1.000
    N62      N        0.19110    0.89780    0.75860    1.000
    O134     O        0.16820    0.90680    0.77610    1.000
    C690     C        0.05470    0.87250    0.80620    1.000
    H822     H        0.03430    0.84050    0.80110    1.000
    C691     C        0.03910    0.88780    0.82360    1.000
    H823     H        0.00810    0.86660    0.82950    1.000
    O135     O        0.21520    0.86410    0.72250    1.000
    C692     C        0.41100    0.00680    0.74100    1.000
    O136     O        0.00800    0.92060    0.85851    1.000
    C693     C        0.06000    0.94380    0.65010    1.000
    C694     C        0.09530    0.96850    0.63130    1.000
    H824     H        0.12710    0.99270    0.63690    1.000
    H825     H        0.09860    0.94410    0.62310    1.000
    H826     H        0.08270    0.98440    0.62200    1.000
    C695     C        0.05570    0.98280    0.66270    1.000
    H827     H        0.08810    0.00810    0.66740    1.000
    H828     H        0.04130    0.99730    0.65360    1.000
    H829     H        0.03520    0.96810    0.67530    1.000
    C696     C        0.41360    0.05490    0.74660    1.000
    H830     H        0.39060    0.04960    0.75810    1.000
    H831     H        0.44650    0.07830    0.75140    1.000
    H832     H        0.40550    0.06760    0.73400    1.000
    C697     C        0.00910    0.90520    0.64320    1.000
    H833     H        0.01100    0.87990    0.63500    1.000
    H834     H        0.98880    0.89090    0.65590    1.000
    H835     H        0.99500    0.92020    0.63410    1.000
    C698     C        0.41500    0.02700    0.76370    1.000
    H836     H        0.39370    0.04150    0.76460    1.000
    H837     H        0.40300    0.00010    0.77400    1.000
    H838     H        0.44790    0.05100    0.76680    1.000
    C699     C        0.42490    0.98610    0.76030    1.000
    H839     H        0.40240    0.98010    0.77210    1.000
    H840     H        0.42310    0.95550    0.75610    1.000
    H841     H        0.45800    0.00940    0.76480    1.000
    C700     C        0.44380    0.98440    0.74100    1.000
    H842     H        0.43290    0.95930    0.75200    1.000
    H843     H        0.44210    0.96990    0.72690    1.000
    H844     H        0.47730    0.00970    0.74390    1.000
    C701     C        0.44630    0.01530    0.72320    1.000
    H845     H        0.44520    0.98460    0.71950    1.000
    H846     H        0.43860    0.02800    0.71050    1.000
    H847     H        0.47960    0.03870    0.72800    1.000
    C702     C        0.42880    0.04580    0.72360    1.000
    H848     H        0.40760    0.06040    0.72350    1.000
    H849     H        0.46200    0.07100    0.72660    1.000
    H850     H        0.42690    0.03120    0.70960    1.000
    C703     C        0.90057    0.10893    0.96963    1.000
    C704     C        0.87817    0.09993    0.94953    1.000
    H851     H        0.85137    0.10493    0.94773    1.000
    C705     C        0.89377    0.08393    0.93233    1.000
    H852     H        0.87847    0.07963    0.91873    1.000
    C706     C        0.93087    0.07413    0.93443    1.000
    C707     C        0.95627    0.08563    0.95393    1.000
    H853     H        0.98347    0.08133    0.95553    1.000
    C708     C        0.94127    0.10333    0.97083    1.000
    H854     H        0.95937    0.11193    0.98373    1.000
    O137     O        0.92297    0.15303    0.00183    1.000
    N63      N        0.91667    0.17473    0.02063    1.000
    C709     C        0.95797    0.20613    0.02783    1.000
    H855     H        0.98587    0.21063    0.02023    1.000
    C710     C        0.96577    0.23583    0.04673    1.000
    C711     C        0.92637    0.23003    0.06003    1.000
    C712     C        0.93877    0.26133    0.07833    1.000
    C713     C        0.98727    0.29693    0.08243    1.000
    H856     H        0.99447    0.31763    0.09443    1.000
    C714     C        0.02477    0.30233    0.06903    1.000
    C715     C        0.01327    0.27223    0.05143    1.000
    H857     H        0.03877    0.27643    0.04213    1.000
    C716     C        0.90317    0.25913    0.09343    1.000
    H858     H        0.91487    0.28033    0.10543    1.000
    N64      N        0.85777    0.23113    0.09193    1.000
    O138     O        0.83487    0.24013    0.10943    1.000
    C717     C        0.72137    0.20583    0.13953    1.000
    H859     H        0.70097    0.17383    0.13443    1.000
    C718     C        0.70577    0.22113    0.15693    1.000
    H860     H        0.67477    0.19993    0.16283    1.000
    O139     O        0.88187    0.19743    0.05583    1.000
    C719     C        0.07767    0.34013    0.07433    1.000
    O140     O        0.67467    0.25393    0.19184    1.000
    C720     C        0.72667    0.27713    0.98343    1.000
    C721     C        0.76197    0.30183    0.96463    1.000
    H861     H        0.79377    0.32603    0.97023    1.000
    H862     H        0.76527    0.27743    0.95643    1.000
    H863     H        0.74937    0.31773    0.95533    1.000
    C722     C        0.72237    0.31613    0.99603    1.000
    H864     H        0.75477    0.34143    0.00073    1.000
    H865     H        0.70797    0.33063    0.98693    1.000
    H866     H        0.70187    0.30143    0.00863    1.000
    C723     C        0.08027    0.38823    0.07993    1.000
    H867     H        0.05727    0.38293    0.09143    1.000
    H868     H        0.11317    0.41163    0.08473    1.000
    H869     H        0.07217    0.40093    0.06733    1.000
    C724     C        0.67577    0.23853    0.97653    1.000
    H870     H        0.67767    0.21323    0.96833    1.000
    H871     H        0.65547    0.22423    0.98923    1.000
    H872     H        0.66167    0.25353    0.96743    1.000
    C725     C        0.08167    0.36033    0.09703    1.000
    H873     H        0.06037    0.37483    0.09793    1.000
    H874     H        0.06967    0.33343    0.10733    1.000
    H875     H        0.11457    0.38433    0.10013    1.000
    C726     C        0.09157    0.31943    0.09363    1.000
    H876     H        0.06907    0.31343    0.10543    1.000
    H877     H        0.08977    0.28883    0.08943    1.000
    H878     H        0.12467    0.34273    0.09813    1.000
    C727     C        0.11047    0.31773    0.07433    1.000
    H879     H        0.09957    0.29263    0.08533    1.000
    H880     H        0.10877    0.30323    0.06023    1.000
    H881     H        0.14397    0.34303    0.07723    1.000
    C728     C        0.11297    0.34863    0.05653    1.000
    H882     H        0.11187    0.31793    0.05283    1.000
    H883     H        0.10527    0.36133    0.04383    1.000
    H884     H        0.14627    0.37203    0.06133    1.000
    C729     C        0.09547    0.37913    0.05693    1.000
    H885     H        0.07427    0.39373    0.05683    1.000
    H886     H        0.12867    0.40433    0.05993    1.000
    H887     H        0.09357    0.36453    0.04293    1.000
    C730     C        0.56723    0.44227    0.30297    1.000
    C731     C        0.54483    0.43327    0.28287    1.000
    H888     H        0.51803    0.43827    0.28107    1.000
    C732     C        0.56043    0.41727    0.26567    1.000
    H889     H        0.54513    0.41297    0.25207    1.000
    C733     C        0.59753    0.40747    0.26777    1.000
    C734     C        0.62293    0.41897    0.28727    1.000
    H890     H        0.65013    0.41467    0.28887    1.000
    C735     C        0.60793    0.43667    0.30417    1.000
    H891     H        0.62603    0.44527    0.31707    1.000
    O141     O        0.58963    0.48637    0.33517    1.000
    N65      N        0.58333    0.50807    0.35397    1.000
    C736     C        0.62463    0.53947    0.36117    1.000
    H892     H        0.65253    0.54397    0.35357    1.000
    C737     C        0.63243    0.56917    0.38007    1.000
    C738     C        0.59303    0.56337    0.39337    1.000
    C739     C        0.60543    0.59467    0.41167    1.000
    C740     C        0.65393    0.63027    0.41577    1.000
    H893     H        0.66113    0.65097    0.42777    1.000
    C741     C        0.69143    0.63567    0.40237    1.000
    C742     C        0.67993    0.60557    0.38477    1.000
    H894     H        0.70543    0.60977    0.37547    1.000
    C743     C        0.56983    0.59247    0.42677    1.000
    H895     H        0.58153    0.61367    0.43877    1.000
    N66      N        0.52443    0.56447    0.42527    1.000
    O142     O        0.50153    0.57347    0.44277    1.000
    C744     C        0.38803    0.53917    0.47287    1.000
    H896     H        0.36763    0.50717    0.46777    1.000
    C745     C        0.37243    0.55447    0.49027    1.000
    H897     H        0.34143    0.53327    0.49617    1.000
    O143     O        0.54853    0.53077    0.38917    1.000
    C746     C        0.74433    0.67347    0.40767    1.000
    O144     O        0.34133    0.58727    0.52518    1.000
    C747     C        0.39333    0.61047    0.31677    1.000
    C748     C        0.42863    0.63517    0.29797    1.000
    H898     H        0.46043    0.65937    0.30357    1.000
    H899     H        0.43193    0.61077    0.28977    1.000
    H900     H        0.41603    0.65107    0.28867    1.000
    C749     C        0.38903    0.64947    0.32937    1.000
    H901     H        0.42143    0.67477    0.33407    1.000
    H902     H        0.37463    0.66397    0.32027    1.000
    H903     H        0.36853    0.63477    0.34197    1.000
    C750     C        0.74693    0.72157    0.41327    1.000
    H904     H        0.72393    0.71627    0.42477    1.000
    H905     H        0.77983    0.74497    0.41807    1.000
    H906     H        0.73883    0.73427    0.40067    1.000
    C751     C        0.34243    0.57187    0.30987    1.000
    H907     H        0.34433    0.54657    0.30167    1.000
    H908     H        0.32213    0.55757    0.32257    1.000
    H909     H        0.32833    0.58687    0.30077    1.000
    C752     C        0.74833    0.69367    0.43037    1.000
    H910     H        0.72703    0.70817    0.43127    1.000
    H911     H        0.73633    0.66677    0.44067    1.000
    H912     H        0.78123    0.71767    0.43347    1.000
    C753     C        0.75823    0.65277    0.42697    1.000
    H913     H        0.73573    0.64677    0.43877    1.000
    H914     H        0.75643    0.62217    0.42277    1.000
    H915     H        0.79133    0.67607    0.43147    1.000
    C754     C        0.77713    0.65107    0.40767    1.000
    H916     H        0.76623    0.62597    0.41867    1.000
    H917     H        0.77543    0.63657    0.39357    1.000
    H918     H        0.81063    0.67637    0.41057    1.000
    C755     C        0.77963    0.68197    0.38987    1.000
    H919     H        0.77853    0.65127    0.38617    1.000
    H920     H        0.77193    0.69467    0.37717    1.000
    H921     H        0.81293    0.70537    0.39467    1.000
    C756     C        0.76213    0.71247    0.39027    1.000
    H922     H        0.74093    0.72707    0.39017    1.000
    H923     H        0.79533    0.73767    0.39327    1.000
    H924     H        0.76023    0.69787    0.37627    1.000
    C757     C        0.54170    0.76610    0.63630    1.000
    C758     C        0.55510    0.78850    0.61620    1.000
    H925     H        0.58690    0.81530    0.61440    1.000
    C759     C        0.52350    0.77290    0.59900    1.000
    H926     H        0.53450    0.78820    0.58540    1.000
    C760     C        0.47660    0.73580    0.60110    1.000
    C761     C        0.46270    0.71040    0.62060    1.000
    H927     H        0.43120    0.68320    0.62220    1.000
    C762     C        0.49540    0.72540    0.63750    1.000
    H928     H        0.48590    0.70730    0.65040    1.000
    O145     O        0.56340    0.74370    0.66850    1.000
    N67      N        0.59140    0.75000    0.68730    1.000
    C763     C        0.58150    0.70870    0.69450    1.000
    H929     H        0.55810    0.68080    0.68690    1.000
    C764     C        0.60340    0.70090    0.71340    1.000
    C765     C        0.63700    0.74030    0.72670    1.000
    C766     C        0.65590    0.72790    0.74500    1.000
    C767     C        0.64300    0.67940    0.74910    1.000
    H930     H        0.65650    0.67220    0.76110    1.000
    C768     C        0.61090    0.64190    0.73570    1.000
    C769     C        0.59230    0.65340    0.71810    1.000
    H931     H        0.57100    0.62790    0.70880    1.000
    C770     C        0.68930    0.76350    0.76010    1.000
    H932     H        0.69880    0.75180    0.77210    1.000
    N68      N        0.70670    0.80890    0.75860    1.000
    O146     O        0.73860    0.83180    0.77610    1.000
    C771     C        0.81780    0.94530    0.80620    1.000
    H933     H        0.80620    0.96570    0.80110    1.000
    C772     C        0.84870    0.96090    0.82360    1.000
    H934     H        0.85850    0.99190    0.82950    1.000
    O147     O        0.64890    0.78480    0.72250    1.000
    C773     C        0.59580    0.58900    0.74100    1.000
    O148     O        0.91260    0.99200    0.85851    1.000
    C774     C        0.88380    0.94000    0.65010    1.000
    C775     C        0.87320    0.90470    0.63130    1.000
    H935     H        0.86560    0.87290    0.63690    1.000
    H936     H        0.84550    0.90140    0.62310    1.000
    H937     H        0.90170    0.91730    0.62200    1.000
    C776     C        0.92710    0.94430    0.66270    1.000
    H938     H        0.92000    0.91190    0.66740    1.000
    H939     H        0.95600    0.95870    0.65360    1.000
    H940     H        0.93290    0.96480    0.67530    1.000
    C777     C        0.64130    0.58640    0.74660    1.000
    H941     H        0.65900    0.60940    0.75810    1.000
    H942     H        0.63180    0.55350    0.75140    1.000
    H943     H        0.66210    0.59450    0.73400    1.000
    C778     C        0.89610    0.99090    0.64320    1.000
    H944     H        0.86890    0.98900    0.63500    1.000
    H945     H        0.90210    0.01120    0.65590    1.000
    H946     H        0.92520    0.00500    0.63410    1.000
    C779     C        0.61200    0.58500    0.76370    1.000
    H947     H        0.64780    0.60630    0.76460    1.000
    H948     H        0.59710    0.59700    0.77400    1.000
    H949     H        0.60310    0.55210    0.76680    1.000
    C780     C        0.56120    0.57510    0.76030    1.000
    H950     H        0.57770    0.59760    0.77210    1.000
    H951     H        0.53240    0.57690    0.75610    1.000
    H952     H        0.55140    0.54200    0.76480    1.000
    C781     C        0.54060    0.55620    0.74100    1.000
    H953     H        0.52640    0.56710    0.75200    1.000
    H954     H        0.52780    0.55790    0.72690    1.000
    H955     H        0.53240    0.52270    0.74390    1.000
    C782     C        0.56900    0.55370    0.72320    1.000
    H956     H        0.53940    0.55480    0.71950    1.000
    H957     H        0.58940    0.56140    0.71050    1.000
    H958     H        0.55910    0.52040    0.72800    1.000
    C783     C        0.61700    0.57120    0.72360    1.000
    H959     H        0.65280    0.59240    0.72350    1.000
    H960     H        0.60900    0.53800    0.72660    1.000
    H961     H        0.60430    0.57310    0.70960    1.000
    C784     C        0.20837    0.09943    0.96963    1.000
    C785     C        0.22177    0.12183    0.94953    1.000
    H962     H        0.25357    0.14863    0.94773    1.000
    C786     C        0.19017    0.10623    0.93233    1.000
    H963     H        0.20117    0.12153    0.91873    1.000
    C787     C        0.14327    0.06913    0.93443    1.000
    C788     C        0.12937    0.04373    0.95393    1.000
    H964     H        0.09787    0.01653    0.95553    1.000
    C789     C        0.16207    0.05873    0.97083    1.000
    H965     H        0.15257    0.04063    0.98373    1.000
    O149     O        0.23007    0.07703    0.00183    1.000
    N69      N        0.25807    0.08333    0.02063    1.000
    C790     C        0.24817    0.04203    0.02783    1.000
    H966     H        0.22477    0.01413    0.02023    1.000
    C791     C        0.27007    0.03423    0.04673    1.000
    C792     C        0.30367    0.07363    0.06003    1.000
    C793     C        0.32257    0.06123    0.07833    1.000
    C794     C        0.30967    0.01273    0.08243    1.000
    H967     H        0.32317    0.00553    0.09443    1.000
    C795     C        0.27757    0.97523    0.06903    1.000
    C796     C        0.25897    0.98673    0.05143    1.000
    H968     H        0.23767    0.96123    0.04213    1.000
    C797     C        0.35597    0.09683    0.09343    1.000
    H969     H        0.36547    0.08513    0.10543    1.000
    N70      N        0.37337    0.14223    0.09193    1.000
    O150     O        0.40527    0.16513    0.10943    1.000
    C798     C        0.48447    0.27863    0.13953    1.000
    H970     H        0.47287    0.29903    0.13443    1.000
    C799     C        0.51537    0.29423    0.15693    1.000
    H971     H        0.52517    0.32523    0.16283    1.000
    O151     O        0.31557    0.11813    0.05583    1.000
    C800     C        0.26247    0.92233    0.07433    1.000
    O152     O        0.57927    0.32533    0.19184    1.000
    C801     C        0.55047    0.27333    0.98343    1.000
    C802     C        0.53987    0.23803    0.96463    1.000
    H972     H        0.53227    0.20623    0.97023    1.000
    H973     H        0.51217    0.23473    0.95643    1.000
    H974     H        0.56837    0.25063    0.95533    1.000
    C803     C        0.59377    0.27763    0.99603    1.000
    H975     H        0.58667    0.24523    0.00073    1.000
    H976     H        0.62267    0.29203    0.98693    1.000
    H977     H        0.59957    0.29813    0.00863    1.000
    C804     C        0.30797    0.91973    0.07993    1.000
    H978     H        0.32567    0.94273    0.09143    1.000
    H979     H        0.29847    0.88683    0.08473    1.000
    H980     H        0.32877    0.92783    0.06733    1.000
    C805     C        0.56277    0.32423    0.97653    1.000
    H981     H        0.53557    0.32233    0.96833    1.000
    H982     H        0.56877    0.34453    0.98923    1.000
    H983     H        0.59187    0.33833    0.96743    1.000
    C806     C        0.27867    0.91833    0.09703    1.000
    H984     H        0.31447    0.93963    0.09793    1.000
    H985     H        0.26377    0.93033    0.10733    1.000
    H986     H        0.26977    0.88543    0.10013    1.000
    C807     C        0.22787    0.90843    0.09363    1.000
    H987     H        0.24437    0.93093    0.10543    1.000
    H988     H        0.19907    0.91023    0.08943    1.000
    H989     H        0.21807    0.87533    0.09813    1.000
    C808     C        0.20727    0.88953    0.07433    1.000
    H990     H        0.19307    0.90043    0.08533    1.000
    H991     H        0.19447    0.89123    0.06023    1.000
    H992     H        0.19907    0.85603    0.07723    1.000
    C809     C        0.23567    0.88703    0.05653    1.000
    H993     H        0.20607    0.88813    0.05283    1.000
    H994     H        0.25607    0.89473    0.04383    1.000
    H995     H        0.22577    0.85373    0.06133    1.000
    C810     C        0.28367    0.90453    0.05693    1.000
    H996     H        0.31947    0.92573    0.05683    1.000
    H997     H        0.27567    0.87133    0.05993    1.000
    H998     H        0.27097    0.90643    0.04293    1.000
    C811     C        0.87503    0.43277    0.30297    1.000
    C812     C        0.88843    0.45517    0.28287    1.000
    H999     H        0.92023    0.48197    0.28107    1.000
    C813     C        0.85683    0.43957    0.26567    1.000
    H1000    H        0.86783    0.45487    0.25207    1.000
    C814     C        0.80993    0.40247    0.26777    1.000
    C815     C        0.79603    0.37707    0.28727    1.000
    H1001    H        0.76453    0.34987    0.28887    1.000
    C816     C        0.82873    0.39207    0.30417    1.000
    H1002    H        0.81923    0.37397    0.31707    1.000
    O153     O        0.89673    0.41037    0.33517    1.000
    N71      N        0.92473    0.41667    0.35397    1.000
    C817     C        0.91483    0.37537    0.36117    1.000
    H1003    H        0.89143    0.34747    0.35357    1.000
    C818     C        0.93673    0.36757    0.38007    1.000
    C819     C        0.97033    0.40697    0.39337    1.000
    C820     C        0.98923    0.39457    0.41167    1.000
    C821     C        0.97633    0.34607    0.41577    1.000
    H1004    H        0.98983    0.33887    0.42777    1.000
    C822     C        0.94423    0.30857    0.40237    1.000
    C823     C        0.92563    0.32007    0.38477    1.000
    H1005    H        0.90433    0.29457    0.37547    1.000
    C824     C        0.02263    0.43017    0.42677    1.000
    H1006    H        0.03213    0.41847    0.43877    1.000
    N72      N        0.04003    0.47557    0.42527    1.000
    O154     O        0.07193    0.49847    0.44277    1.000
    C825     C        0.15113    0.61197    0.47287    1.000
    H1007    H        0.13953    0.63237    0.46777    1.000
    C826     C        0.18203    0.62757    0.49027    1.000
    H1008    H        0.19183    0.65857    0.49617    1.000
    O155     O        0.98223    0.45147    0.38917    1.000
    C827     C        0.92913    0.25567    0.40767    1.000
    O156     O        0.24593    0.65867    0.52518    1.000
    C828     C        0.21713    0.60667    0.31677    1.000
    C829     C        0.20653    0.57137    0.29797    1.000
    H1009    H        0.19893    0.53957    0.30357    1.000
    H1010    H        0.17883    0.56807    0.28977    1.000
    H1011    H        0.23503    0.58397    0.28867    1.000
    C830     C        0.26043    0.61097    0.32937    1.000
    H1012    H        0.25333    0.57857    0.33407    1.000
    H1013    H        0.28933    0.62537    0.32027    1.000
    H1014    H        0.26623    0.63147    0.34197    1.000
    C831     C        0.97463    0.25307    0.41327    1.000
    H1015    H        0.99233    0.27607    0.42477    1.000
    H1016    H        0.96513    0.22017    0.41807    1.000
    H1017    H        0.99543    0.26117    0.40067    1.000
    C832     C        0.22943    0.65757    0.30987    1.000
    H1018    H        0.20223    0.65567    0.30167    1.000
    H1019    H        0.23543    0.67787    0.32257    1.000
    H1020    H        0.25853    0.67167    0.30077    1.000
    C833     C        0.94533    0.25167    0.43037    1.000
    H1021    H        0.98113    0.27297    0.43127    1.000
    H1022    H        0.93043    0.26367    0.44067    1.000
    H1023    H        0.93643    0.21877    0.43347    1.000
    C834     C        0.89453    0.24177    0.42697    1.000
    H1024    H        0.91103    0.26427    0.43877    1.000
    H1025    H        0.86573    0.24357    0.42277    1.000
    H1026    H        0.88473    0.20867    0.43147    1.000
    C835     C        0.87393    0.22287    0.40767    1.000
    H1027    H        0.85973    0.23377    0.41867    1.000
    H1028    H        0.86113    0.22457    0.39357    1.000
    H1029    H        0.86573    0.18937    0.41057    1.000
    C836     C        0.90233    0.22037    0.38987    1.000
    H1030    H        0.87273    0.22147    0.38617    1.000
    H1031    H        0.92273    0.22807    0.37717    1.000
    H1032    H        0.89243    0.18707    0.39467    1.000
    C837     C        0.95033    0.23787    0.39027    1.000
    H1033    H        0.98613    0.25907    0.39017    1.000
    H1034    H        0.94233    0.20467    0.39327    1.000
    H1035    H        0.93763    0.23977    0.37627    1.000
    C838     C        0.54170    0.77560    0.63630    1.000
    C839     C        0.55510    0.76660    0.61620    1.000
    H1036    H        0.58690    0.77160    0.61440    1.000
    C840     C        0.52350    0.75060    0.59900    1.000
    H1037    H        0.53450    0.74630    0.58540    1.000
    C841     C        0.47660    0.74080    0.60110    1.000
    C842     C        0.46270    0.75230    0.62060    1.000
    H1038    H        0.43120    0.74800    0.62220    1.000
    C843     C        0.49540    0.77000    0.63750    1.000
    H1039    H        0.48590    0.77860    0.65040    1.000
    O157     O        0.56340    0.81970    0.66850    1.000
    N73      N        0.59140    0.84140    0.68730    1.000
    C844     C        0.58150    0.87280    0.69450    1.000
    H1040    H        0.55810    0.87730    0.68690    1.000
    C845     C        0.60340    0.90250    0.71340    1.000
    C846     C        0.63700    0.89670    0.72670    1.000
    C847     C        0.65590    0.92800    0.74500    1.000
    C848     C        0.64300    0.96360    0.74910    1.000
    H1041    H        0.65650    0.98430    0.76110    1.000
    C849     C        0.61090    0.96900    0.73570    1.000
    C850     C        0.59230    0.93890    0.71810    1.000
    H1042    H        0.57100    0.94310    0.70880    1.000
    C851     C        0.68930    0.92580    0.76010    1.000
    H1043    H        0.69880    0.94700    0.77210    1.000
    N74      N        0.70670    0.89780    0.75860    1.000
    O158     O        0.73860    0.90680    0.77610    1.000
    C852     C        0.81780    0.87250    0.80620    1.000
    H1044    H        0.80620    0.84050    0.80110    1.000
    C853     C        0.84870    0.88780    0.82360    1.000
    H1045    H        0.85850    0.86660    0.82950    1.000
    O159     O        0.64890    0.86410    0.72250    1.000
    C854     C        0.59580    0.00680    0.74100    1.000
    O160     O        0.91260    0.92060    0.85851    1.000
    C855     C        0.88380    0.94380    0.65010    1.000
    C856     C        0.87320    0.96850    0.63130    1.000
    H1046    H        0.86560    0.99270    0.63690    1.000
    H1047    H        0.84550    0.94410    0.62310    1.000
    H1048    H        0.90170    0.98440    0.62200    1.000
    C857     C        0.92710    0.98280    0.66270    1.000
    H1049    H        0.92000    0.00810    0.66740    1.000
    H1050    H        0.95600    0.99730    0.65360    1.000
    H1051    H        0.93290    0.96810    0.67530    1.000
    C858     C        0.64130    0.05490    0.74660    1.000
    H1052    H        0.65900    0.04960    0.75810    1.000
    H1053    H        0.63180    0.07830    0.75140    1.000
    H1054    H        0.66210    0.06760    0.73400    1.000
    C859     C        0.89610    0.90520    0.64320    1.000
    H1055    H        0.86890    0.87990    0.63500    1.000
    H1056    H        0.90210    0.89090    0.65590    1.000
    H1057    H        0.92520    0.92020    0.63410    1.000
    C860     C        0.61200    0.02700    0.76370    1.000
    H1058    H        0.64780    0.04150    0.76460    1.000
    H1059    H        0.59710    0.00010    0.77400    1.000
    H1060    H        0.60310    0.05100    0.76680    1.000
    C861     C        0.56120    0.98610    0.76030    1.000
    H1061    H        0.57770    0.98010    0.77210    1.000
    H1062    H        0.53240    0.95550    0.75610    1.000
    H1063    H        0.55140    0.00940    0.76480    1.000
    C862     C        0.54060    0.98440    0.74100    1.000
    H1064    H        0.52640    0.95930    0.75200    1.000
    H1065    H        0.52780    0.96990    0.72690    1.000
    H1066    H        0.53240    0.00970    0.74390    1.000
    C863     C        0.56900    0.01530    0.72320    1.000
    H1067    H        0.53940    0.98460    0.71950    1.000
    H1068    H        0.58940    0.02800    0.71050    1.000
    H1069    H        0.55910    0.03870    0.72800    1.000
    C864     C        0.61700    0.04580    0.72360    1.000
    H1070    H        0.65280    0.06040    0.72350    1.000
    H1071    H        0.60900    0.07100    0.72660    1.000
    H1072    H        0.60430    0.03120    0.70960    1.000
    C865     C        0.20837    0.10893    0.96963    1.000
    C866     C        0.22177    0.09993    0.94953    1.000
    H1073    H        0.25357    0.10493    0.94773    1.000
    C867     C        0.19017    0.08393    0.93233    1.000
    H1074    H        0.20117    0.07963    0.91873    1.000
    C868     C        0.14327    0.07413    0.93443    1.000
    C869     C        0.12937    0.08563    0.95393    1.000
    H1075    H        0.09787    0.08133    0.95553    1.000
    C870     C        0.16207    0.10333    0.97083    1.000
    H1076    H        0.15257    0.11193    0.98373    1.000
    O161     O        0.23007    0.15303    0.00183    1.000
    N75      N        0.25807    0.17473    0.02063    1.000
    C871     C        0.24817    0.20613    0.02783    1.000
    H1077    H        0.22477    0.21063    0.02023    1.000
    C872     C        0.27007    0.23583    0.04673    1.000
    C873     C        0.30367    0.23003    0.06003    1.000
    C874     C        0.32257    0.26133    0.07833    1.000
    C875     C        0.30967    0.29693    0.08243    1.000
    H1078    H        0.32317    0.31763    0.09443    1.000
    C876     C        0.27757    0.30233    0.06903    1.000
    C877     C        0.25897    0.27223    0.05143    1.000
    H1079    H        0.23767    0.27643    0.04213    1.000
    C878     C        0.35597    0.25913    0.09343    1.000
    H1080    H        0.36547    0.28033    0.10543    1.000
    N76      N        0.37337    0.23113    0.09193    1.000
    O162     O        0.40527    0.24013    0.10943    1.000
    C879     C        0.48447    0.20583    0.13953    1.000
    H1081    H        0.47287    0.17383    0.13443    1.000
    C880     C        0.51537    0.22113    0.15693    1.000
    H1082    H        0.52517    0.19993    0.16283    1.000
    O163     O        0.31557    0.19743    0.05583    1.000
    C881     C        0.26247    0.34013    0.07433    1.000
    O164     O        0.57927    0.25393    0.19184    1.000
    C882     C        0.55047    0.27713    0.98343    1.000
    C883     C        0.53987    0.30183    0.96463    1.000
    H1083    H        0.53227    0.32603    0.97023    1.000
    H1084    H        0.51217    0.27743    0.95643    1.000
    H1085    H        0.56837    0.31773    0.95533    1.000
    C884     C        0.59377    0.31613    0.99603    1.000
    H1086    H        0.58667    0.34143    0.00073    1.000
    H1087    H        0.62267    0.33063    0.98693    1.000
    H1088    H        0.59957    0.30143    0.00863    1.000
    C885     C        0.30797    0.38823    0.07993    1.000
    H1089    H        0.32567    0.38293    0.09143    1.000
    H1090    H        0.29847    0.41163    0.08473    1.000
    H1091    H        0.32877    0.40093    0.06733    1.000
    C886     C        0.56277    0.23853    0.97653    1.000
    H1092    H        0.53557    0.21323    0.96833    1.000
    H1093    H        0.56877    0.22423    0.98923    1.000
    H1094    H        0.59187    0.25353    0.96743    1.000
    C887     C        0.27867    0.36033    0.09703    1.000
    H1095    H        0.31447    0.37483    0.09793    1.000
    H1096    H        0.26377    0.33343    0.10733    1.000
    H1097    H        0.26977    0.38433    0.10013    1.000
    C888     C        0.22787    0.31943    0.09363    1.000
    H1098    H        0.24437    0.31343    0.10543    1.000
    H1099    H        0.19907    0.28883    0.08943    1.000
    H1100    H        0.21807    0.34273    0.09813    1.000
    C889     C        0.20727    0.31773    0.07433    1.000
    H1101    H        0.19307    0.29263    0.08533    1.000
    H1102    H        0.19447    0.30323    0.06023    1.000
    H1103    H        0.19907    0.34303    0.07723    1.000
    C890     C        0.23567    0.34863    0.05653    1.000
    H1104    H        0.20607    0.31793    0.05283    1.000
    H1105    H        0.25607    0.36133    0.04383    1.000
    H1106    H        0.22577    0.37203    0.06133    1.000
    C891     C        0.28367    0.37913    0.05693    1.000
    H1107    H        0.31947    0.39373    0.05683    1.000
    H1108    H        0.27567    0.40433    0.05993    1.000
    H1109    H        0.27097    0.36453    0.04293    1.000
    C892     C        0.87503    0.44227    0.30297    1.000
    C893     C        0.88843    0.43327    0.28287    1.000
    H1110    H        0.92023    0.43827    0.28107    1.000
    C894     C        0.85683    0.41727    0.26567    1.000
    H1111    H        0.86783    0.41297    0.25207    1.000
    C895     C        0.80993    0.40747    0.26777    1.000
    C896     C        0.79603    0.41897    0.28727    1.000
    H1112    H        0.76453    0.41467    0.28887    1.000
    C897     C        0.82873    0.43667    0.30417    1.000
    H1113    H        0.81923    0.44527    0.31707    1.000
    O165     O        0.89673    0.48637    0.33517    1.000
    N77      N        0.92473    0.50807    0.35397    1.000
    C898     C        0.91483    0.53947    0.36117    1.000
    H1114    H        0.89143    0.54397    0.35357    1.000
    C899     C        0.93673    0.56917    0.38007    1.000
    C900     C        0.97033    0.56337    0.39337    1.000
    C901     C        0.98923    0.59467    0.41167    1.000
    C902     C        0.97633    0.63027    0.41577    1.000
    H1115    H        0.98983    0.65097    0.42777    1.000
    C903     C        0.94423    0.63567    0.40237    1.000
    C904     C        0.92563    0.60557    0.38477    1.000
    H1116    H        0.90433    0.60977    0.37547    1.000
    C905     C        0.02263    0.59247    0.42677    1.000
    H1117    H        0.03213    0.61367    0.43877    1.000
    N78      N        0.04003    0.56447    0.42527    1.000
    O166     O        0.07193    0.57347    0.44277    1.000
    C906     C        0.15113    0.53917    0.47287    1.000
    H1118    H        0.13953    0.50717    0.46777    1.000
    C907     C        0.18203    0.55447    0.49027    1.000
    H1119    H        0.19183    0.53327    0.49617    1.000
    O167     O        0.98223    0.53077    0.38917    1.000
    C908     C        0.92913    0.67347    0.40767    1.000
    O168     O        0.24593    0.58727    0.52518    1.000
    C909     C        0.21713    0.61047    0.31677    1.000
    C910     C        0.20653    0.63517    0.29797    1.000
    H1120    H        0.19893    0.65937    0.30357    1.000
    H1121    H        0.17883    0.61077    0.28977    1.000
    H1122    H        0.23503    0.65107    0.28867    1.000
    C911     C        0.26043    0.64947    0.32937    1.000
    H1123    H        0.25333    0.67477    0.33407    1.000
    H1124    H        0.28933    0.66397    0.32027    1.000
    H1125    H        0.26623    0.63477    0.34197    1.000
    C912     C        0.97463    0.72157    0.41327    1.000
    H1126    H        0.99233    0.71627    0.42477    1.000
    H1127    H        0.96513    0.74497    0.41807    1.000
    H1128    H        0.99543    0.73427    0.40067    1.000
    C913     C        0.22943    0.57187    0.30987    1.000
    H1129    H        0.20223    0.54657    0.30167    1.000
    H1130    H        0.23543    0.55757    0.32257    1.000
    H1131    H        0.25853    0.58687    0.30077    1.000
    C914     C        0.94533    0.69367    0.43037    1.000
    H1132    H        0.98113    0.70817    0.43127    1.000
    H1133    H        0.93043    0.66677    0.44067    1.000
    H1134    H        0.93643    0.71767    0.43347    1.000
    C915     C        0.89453    0.65277    0.42697    1.000
    H1135    H        0.91103    0.64677    0.43877    1.000
    H1136    H        0.86573    0.62217    0.42277    1.000
    H1137    H        0.88473    0.67607    0.43147    1.000
    C916     C        0.87393    0.65107    0.40767    1.000
    H1138    H        0.85973    0.62597    0.41867    1.000
    H1139    H        0.86113    0.63657    0.39357    1.000
    H1140    H        0.86573    0.67637    0.41057    1.000
    C917     C        0.90233    0.68197    0.38987    1.000
    H1141    H        0.87273    0.65127    0.38617    1.000
    H1142    H        0.92273    0.69467    0.37717    1.000
    H1143    H        0.89243    0.70537    0.39467    1.000
    C918     C        0.95033    0.71247    0.39027    1.000
    H1144    H        0.98613    0.72707    0.39017    1.000
    H1145    H        0.94233    0.73767    0.39327    1.000
    H1146    H        0.93763    0.69787    0.37627    1.000
    C919     C        0.22440    0.76610    0.63630    1.000
    C920     C        0.23340    0.78850    0.61620    1.000
    H1147    H        0.22840    0.81530    0.61440    1.000
    C921     C        0.24940    0.77290    0.59900    1.000
    H1148    H        0.25370    0.78820    0.58540    1.000
    C922     C        0.25920    0.73580    0.60110    1.000
    C923     C        0.24770    0.71040    0.62060    1.000
    H1149    H        0.25200    0.68320    0.62220    1.000
    C924     C        0.23000    0.72540    0.63750    1.000
    H1150    H        0.22140    0.70730    0.65040    1.000
    O169     O        0.18030    0.74370    0.66850    1.000
    N79      N        0.15860    0.75000    0.68730    1.000
    C925     C        0.12720    0.70870    0.69450    1.000
    H1151    H        0.12270    0.68080    0.68690    1.000
    C926     C        0.09750    0.70090    0.71340    1.000
    C927     C        0.10330    0.74030    0.72670    1.000
    C928     C        0.07200    0.72790    0.74500    1.000
    C929     C        0.03640    0.67940    0.74910    1.000
    H1152    H        0.01570    0.67220    0.76110    1.000
    C930     C        0.03100    0.64190    0.73570    1.000
    C931     C        0.06110    0.65340    0.71810    1.000
    H1153    H        0.05690    0.62790    0.70880    1.000
    C932     C        0.07420    0.76350    0.76010    1.000
    H1154    H        0.05300    0.75180    0.77210    1.000
    N80      N        0.10220    0.80890    0.75860    1.000
    O170     O        0.09320    0.83180    0.77610    1.000
    C933     C        0.12750    0.94530    0.80620    1.000
    H1155    H        0.15950    0.96570    0.80110    1.000
    C934     C        0.11220    0.96090    0.82360    1.000
    H1156    H        0.13340    0.99190    0.82950    1.000
    O171     O        0.13590    0.78480    0.72250    1.000
    C935     C        0.99320    0.58900    0.74100    1.000
    O172     O        0.07940    0.99200    0.85851    1.000
    C936     C        0.05620    0.94000    0.65010    1.000
    C937     C        0.03150    0.90470    0.63130    1.000
    H1157    H        0.00730    0.87290    0.63690    1.000
    H1158    H        0.05590    0.90140    0.62310    1.000
    H1159    H        0.01560    0.91730    0.62200    1.000
    C938     C        0.01720    0.94430    0.66270    1.000
    H1160    H        0.99190    0.91190    0.66740    1.000
    H1161    H        0.00270    0.95870    0.65360    1.000
    H1162    H        0.03190    0.96480    0.67530    1.000
    C939     C        0.94510    0.58640    0.74660    1.000
    H1163    H        0.95040    0.60940    0.75810    1.000
    H1164    H        0.92170    0.55350    0.75140    1.000
    H1165    H        0.93240    0.59450    0.73400    1.000
    C940     C        0.09480    0.99090    0.64320    1.000
    H1166    H        0.12010    0.98900    0.63500    1.000
    H1167    H        0.10910    0.01120    0.65590    1.000
    H1168    H        0.07980    0.00500    0.63410    1.000
    C941     C        0.97300    0.58500    0.76370    1.000
    H1169    H        0.95850    0.60630    0.76460    1.000
    H1170    H        0.99990    0.59700    0.77400    1.000
    H1171    H        0.94900    0.55210    0.76680    1.000
    C942     C        0.01390    0.57510    0.76030    1.000
    H1172    H        0.01990    0.59760    0.77210    1.000
    H1173    H        0.04450    0.57690    0.75610    1.000
    H1174    H        0.99060    0.54200    0.76480    1.000
    C943     C        0.01560    0.55620    0.74100    1.000
    H1175    H        0.04070    0.56710    0.75200    1.000
    H1176    H        0.03010    0.55790    0.72690    1.000
    H1177    H        0.99030    0.52270    0.74390    1.000
    C944     C        0.98470    0.55370    0.72320    1.000
    H1178    H        0.01540    0.55480    0.71950    1.000
    H1179    H        0.97200    0.56140    0.71050    1.000
    H1180    H        0.96130    0.52040    0.72800    1.000
    C945     C        0.95420    0.57120    0.72360    1.000
    H1181    H        0.93960    0.59240    0.72350    1.000
    H1182    H        0.92900    0.53800    0.72660    1.000
    H1183    H        0.96880    0.57310    0.70960    1.000
    C946     C        0.89107    0.09943    0.96963    1.000
    C947     C        0.90007    0.12183    0.94953    1.000
    H1184    H        0.89507    0.14863    0.94773    1.000
    C948     C        0.91607    0.10623    0.93233    1.000
    H1185    H        0.92037    0.12153    0.91873    1.000
    C949     C        0.92587    0.06913    0.93443    1.000
    C950     C        0.91437    0.04373    0.95393    1.000
    H1186    H        0.91867    0.01653    0.95553    1.000
    C951     C        0.89667    0.05873    0.97083    1.000
    H1187    H        0.88807    0.04063    0.98373    1.000
    O173     O        0.84697    0.07703    0.00183    1.000
    N81      N        0.82527    0.08333    0.02063    1.000
    C952     C        0.79387    0.04203    0.02783    1.000
    H1188    H        0.78937    0.01413    0.02023    1.000
    C953     C        0.76417    0.03423    0.04673    1.000
    C954     C        0.76997    0.07363    0.06003    1.000
    C955     C        0.73867    0.06123    0.07833    1.000
    C956     C        0.70307    0.01273    0.08243    1.000
    H1189    H        0.68237    0.00553    0.09443    1.000
    C957     C        0.69767    0.97523    0.06903    1.000
    C958     C        0.72777    0.98673    0.05143    1.000
    H1190    H        0.72357    0.96123    0.04213    1.000
    C959     C        0.74087    0.09683    0.09343    1.000
    H1191    H        0.71967    0.08513    0.10543    1.000
    N82      N        0.76887    0.14223    0.09193    1.000
    O174     O        0.75987    0.16513    0.10943    1.000
    C960     C        0.79417    0.27863    0.13953    1.000
    H1192    H        0.82617    0.29903    0.13443    1.000
    C961     C        0.77887    0.29423    0.15693    1.000
    H1193    H        0.80007    0.32523    0.16283    1.000
    O175     O        0.80257    0.11813    0.05583    1.000
    C962     C        0.65987    0.92233    0.07433    1.000
    O176     O        0.74607    0.32533    0.19184    1.000
    C963     C        0.72287    0.27333    0.98343    1.000
    C964     C        0.69817    0.23803    0.96463    1.000
    H1194    H        0.67397    0.20623    0.97023    1.000
    H1195    H        0.72257    0.23473    0.95643    1.000
    H1196    H        0.68227    0.25063    0.95533    1.000
    C965     C        0.68387    0.27763    0.99603    1.000
    H1197    H        0.65857    0.24523    0.00073    1.000
    H1198    H        0.66937    0.29203    0.98693    1.000
    H1199    H        0.69857    0.29813    0.00863    1.000
    C966     C        0.61177    0.91973    0.07993    1.000
    H1200    H        0.61707    0.94273    0.09143    1.000
    H1201    H        0.58837    0.88683    0.08473    1.000
    H1202    H        0.59907    0.92783    0.06733    1.000
    C967     C        0.76147    0.32423    0.97653    1.000
    H1203    H        0.78677    0.32233    0.96833    1.000
    H1204    H        0.77577    0.34453    0.98923    1.000
    H1205    H        0.74647    0.33833    0.96743    1.000
    C968     C        0.63967    0.91833    0.09703    1.000
    H1206    H        0.62517    0.93963    0.09793    1.000
    H1207    H        0.66657    0.93033    0.10733    1.000
    H1208    H        0.61567    0.88543    0.10013    1.000
    C969     C        0.68057    0.90843    0.09363    1.000
    H1209    H        0.68657    0.93093    0.10543    1.000
    H1210    H        0.71117    0.91023    0.08943    1.000
    H1211    H        0.65727    0.87533    0.09813    1.000
    C970     C        0.68227    0.88953    0.07433    1.000
    H1212    H        0.70737    0.90043    0.08533    1.000
    H1213    H        0.69677    0.89123    0.06023    1.000
    H1214    H        0.65697    0.85603    0.07723    1.000
    C971     C        0.65137    0.88703    0.05653    1.000
    H1215    H        0.68207    0.88813    0.05283    1.000
    H1216    H        0.63867    0.89473    0.04383    1.000
    H1217    H        0.62797    0.85373    0.06133    1.000
    C972     C        0.62087    0.90453    0.05693    1.000
    H1218    H        0.60627    0.92573    0.05683    1.000
    H1219    H        0.59567    0.87133    0.05993    1.000
    H1220    H        0.63547    0.90643    0.04293    1.000
    C973     C        0.55773    0.43277    0.30297    1.000
    C974     C        0.56673    0.45517    0.28287    1.000
    H1221    H        0.56173    0.48197    0.28107    1.000
    C975     C        0.58273    0.43957    0.26567    1.000
    H1222    H        0.58703    0.45487    0.25207    1.000
    C976     C        0.59253    0.40247    0.26777    1.000
    C977     C        0.58103    0.37707    0.28727    1.000
    H1223    H        0.58533    0.34987    0.28887    1.000
    C978     C        0.56333    0.39207    0.30417    1.000
    H1224    H        0.55473    0.37397    0.31707    1.000
    O177     O        0.51363    0.41037    0.33517    1.000
    N83      N        0.49193    0.41667    0.35397    1.000
    C979     C        0.46053    0.37537    0.36117    1.000
    H1225    H        0.45603    0.34747    0.35357    1.000
    C980     C        0.43083    0.36757    0.38007    1.000
    C981     C        0.43663    0.40697    0.39337    1.000
    C982     C        0.40533    0.39457    0.41167    1.000
    C983     C        0.36973    0.34607    0.41577    1.000
    H1226    H        0.34903    0.33887    0.42777    1.000
    C984     C        0.36433    0.30857    0.40237    1.000
    C985     C        0.39443    0.32007    0.38477    1.000
    H1227    H        0.39023    0.29457    0.37547    1.000
    C986     C        0.40753    0.43017    0.42677    1.000
    H1228    H        0.38633    0.41847    0.43877    1.000
    N84      N        0.43553    0.47557    0.42527    1.000
    O178     O        0.42653    0.49847    0.44277    1.000
    C987     C        0.46083    0.61197    0.47287    1.000
    H1229    H        0.49283    0.63237    0.46777    1.000
    C988     C        0.44553    0.62757    0.49027    1.000
    H1230    H        0.46673    0.65857    0.49617    1.000
    O179     O        0.46923    0.45147    0.38917    1.000
    C989     C        0.32653    0.25567    0.40767    1.000
    O180     O        0.41273    0.65867    0.52518    1.000
    C990     C        0.38953    0.60667    0.31677    1.000
    C991     C        0.36483    0.57137    0.29797    1.000
    H1231    H        0.34063    0.53957    0.30357    1.000
    H1232    H        0.38923    0.56807    0.28977    1.000
    H1233    H        0.34893    0.58397    0.28867    1.000
    C992     C        0.35053    0.61097    0.32937    1.000
    H1234    H        0.32523    0.57857    0.33407    1.000
    H1235    H        0.33603    0.62537    0.32027    1.000
    H1236    H        0.36523    0.63147    0.34197    1.000
    C993     C        0.27843    0.25307    0.41327    1.000
    H1237    H        0.28373    0.27607    0.42477    1.000
    H1238    H        0.25503    0.22017    0.41807    1.000
    H1239    H        0.26573    0.26117    0.40067    1.000
    C994     C        0.42813    0.65757    0.30987    1.000
    H1240    H        0.45343    0.65567    0.30167    1.000
    H1241    H        0.44243    0.67787    0.32257    1.000
    H1242    H        0.41313    0.67167    0.30077    1.000
    C995     C        0.30633    0.25167    0.43037    1.000
    H1243    H        0.29183    0.27297    0.43127    1.000
    H1244    H        0.33323    0.26367    0.44067    1.000
    H1245    H        0.28233    0.21877    0.43347    1.000
    C996     C        0.34723    0.24177    0.42697    1.000
    H1246    H        0.35323    0.26427    0.43877    1.000
    H1247    H        0.37783    0.24357    0.42277    1.000
    H1248    H        0.32393    0.20867    0.43147    1.000
    C997     C        0.34893    0.22287    0.40767    1.000
    H1249    H        0.37403    0.23377    0.41867    1.000
    H1250    H        0.36343    0.22457    0.39357    1.000
    H1251    H        0.32363    0.18937    0.41057    1.000
    C998     C        0.31803    0.22037    0.38987    1.000
    H1252    H        0.34873    0.22147    0.38617    1.000
    H1253    H        0.30533    0.22807    0.37717    1.000
    H1254    H        0.29463    0.18707    0.39467    1.000
    C999     C        0.28753    0.23787    0.39027    1.000
    H1255    H        0.27293    0.25907    0.39017    1.000
    H1256    H        0.26233    0.20467    0.39327    1.000
    H1257    H        0.30213    0.23977    0.37627    1.000
    C1000    C        0.23390    0.45830    0.63630    1.000
    C1001    C        0.21150    0.44490    0.61620    1.000
    H1258    H        0.18470    0.41310    0.61440    1.000
    C1002    C        0.22710    0.47650    0.59900    1.000
    H1259    H        0.21180    0.46550    0.58540    1.000
    C1003    C        0.26420    0.52340    0.60110    1.000
    C1004    C        0.28960    0.53730    0.62060    1.000
    H1260    H        0.31680    0.56880    0.62220    1.000
    C1005    C        0.27460    0.50460    0.63750    1.000
    H1261    H        0.29270    0.51410    0.65040    1.000
    O181     O        0.25630    0.43660    0.66850    1.000
    N85      N        0.25000    0.40860    0.68730    1.000
    C1006    C        0.29130    0.41850    0.69450    1.000
    H1262    H        0.31920    0.44190    0.68690    1.000
    C1007    C        0.29910    0.39660    0.71340    1.000
    C1008    C        0.25970    0.36300    0.72670    1.000
    C1009    C        0.27210    0.34410    0.74500    1.000
    C1010    C        0.32060    0.35700    0.74910    1.000
    H1263    H        0.32780    0.34350    0.76110    1.000
    C1011    C        0.35810    0.38910    0.73570    1.000
    C1012    C        0.34660    0.40770    0.71810    1.000
    H1264    H        0.37210    0.42900    0.70880    1.000
    C1013    C        0.23650    0.31070    0.76010    1.000
    H1265    H        0.24820    0.30120    0.77210    1.000
    N86      N        0.19110    0.29330    0.75860    1.000
    O182     O        0.16820    0.26140    0.77610    1.000
    C1014    C        0.05470    0.18220    0.80620    1.000
    H1266    H        0.03430    0.19380    0.80110    1.000
    C1015    C        0.03910    0.15130    0.82360    1.000
    H1267    H        0.00810    0.14150    0.82950    1.000
    O183     O        0.21520    0.35110    0.72250    1.000
    C1016    C        0.41100    0.40420    0.74100    1.000
    O184     O        0.00800    0.08740    0.85851    1.000
    C1017    C        0.06000    0.11620    0.65010    1.000
    C1018    C        0.09530    0.12680    0.63130    1.000
    H1268    H        0.12710    0.13440    0.63690    1.000
    H1269    H        0.09860    0.15450    0.62310    1.000
    H1270    H        0.08270    0.09830    0.62200    1.000
    C1019    C        0.05570    0.07290    0.66270    1.000
    H1271    H        0.08810    0.08000    0.66740    1.000
    H1272    H        0.04130    0.04400    0.65360    1.000
    H1273    H        0.03520    0.06710    0.67530    1.000
    C1020    C        0.41360    0.35870    0.74660    1.000
    H1274    H        0.39060    0.34100    0.75810    1.000
    H1275    H        0.44650    0.36820    0.75140    1.000
    H1276    H        0.40550    0.33790    0.73400    1.000
    C1021    C        0.00910    0.10390    0.64320    1.000
    H1277    H        0.01100    0.13110    0.63500    1.000
    H1278    H        0.98880    0.09790    0.65590    1.000
    H1279    H        0.99500    0.07480    0.63410    1.000
    C1022    C        0.41500    0.38800    0.76370    1.000
    H1280    H        0.39370    0.35220    0.76460    1.000
    H1281    H        0.40300    0.40290    0.77400    1.000
    H1282    H        0.44790    0.39690    0.76680    1.000
    C1023    C        0.42490    0.43880    0.76030    1.000
    H1283    H        0.40240    0.42230    0.77210    1.000
    H1284    H        0.42310    0.46760    0.75610    1.000
    H1285    H        0.45800    0.44860    0.76480    1.000
    C1024    C        0.44380    0.45940    0.74100    1.000
    H1286    H        0.43290    0.47360    0.75200    1.000
    H1287    H        0.44210    0.47220    0.72690    1.000
    H1288    H        0.47730    0.46760    0.74390    1.000
    C1025    C        0.44630    0.43100    0.72320    1.000
    H1289    H        0.44520    0.46060    0.71950    1.000
    H1290    H        0.43860    0.41060    0.71050    1.000
    H1291    H        0.47960    0.44090    0.72800    1.000
    C1026    C        0.42880    0.38300    0.72360    1.000
    H1292    H        0.40760    0.34720    0.72350    1.000
    H1293    H        0.46200    0.39100    0.72660    1.000
    H1294    H        0.42690    0.39570    0.70960    1.000
    C1027    C        0.90057    0.79163    0.96963    1.000
    C1028    C        0.87817    0.77823    0.94953    1.000
    H1295    H        0.85137    0.74643    0.94773    1.000
    C1029    C        0.89377    0.80983    0.93233    1.000
    H1296    H        0.87847    0.79883    0.91873    1.000
    C1030    C        0.93087    0.85673    0.93443    1.000
    C1031    C        0.95627    0.87063    0.95393    1.000
    H1297    H        0.98347    0.90213    0.95553    1.000
    C1032    C        0.94127    0.83793    0.97083    1.000
    H1298    H        0.95937    0.84743    0.98373    1.000
    O185     O        0.92297    0.76993    0.00183    1.000
    N87      N        0.91667    0.74193    0.02063    1.000
    C1033    C        0.95797    0.75183    0.02783    1.000
    H1299    H        0.98587    0.77523    0.02023    1.000
    C1034    C        0.96577    0.72993    0.04673    1.000
    C1035    C        0.92637    0.69633    0.06003    1.000
    C1036    C        0.93877    0.67743    0.07833    1.000
    C1037    C        0.98727    0.69033    0.08243    1.000
    H1300    H        0.99447    0.67683    0.09443    1.000
    C1038    C        0.02477    0.72243    0.06903    1.000
    C1039    C        0.01327    0.74103    0.05143    1.000
    H1301    H        0.03877    0.76233    0.04213    1.000
    C1040    C        0.90317    0.64403    0.09343    1.000
    H1302    H        0.91487    0.63453    0.10543    1.000
    N88      N        0.85777    0.62663    0.09193    1.000
    O186     O        0.83487    0.59473    0.10943    1.000
    C1041    C        0.72137    0.51553    0.13953    1.000
    H1303    H        0.70097    0.52713    0.13443    1.000
    C1042    C        0.70577    0.48463    0.15693    1.000
    H1304    H        0.67477    0.47483    0.16283    1.000
    O187     O        0.88187    0.68443    0.05583    1.000
    C1043    C        0.07767    0.73753    0.07433    1.000
    O188     O        0.67467    0.42073    0.19184    1.000
    C1044    C        0.72667    0.44953    0.98343    1.000
    C1045    C        0.76197    0.46013    0.96463    1.000
    H1305    H        0.79377    0.46773    0.97023    1.000
    H1306    H        0.76527    0.48783    0.95643    1.000
    H1307    H        0.74937    0.43163    0.95533    1.000
    C1046    C        0.72237    0.40623    0.99603    1.000
    H1308    H        0.75477    0.41333    0.00073    1.000
    H1309    H        0.70797    0.37733    0.98693    1.000
    H1310    H        0.70187    0.40043    0.00863    1.000
    C1047    C        0.08027    0.69203    0.07993    1.000
    H1311    H        0.05727    0.67433    0.09143    1.000
    H1312    H        0.11317    0.70153    0.08473    1.000
    H1313    H        0.07217    0.67123    0.06733    1.000
    C1048    C        0.67577    0.43723    0.97653    1.000
    H1314    H        0.67767    0.46443    0.96833    1.000
    H1315    H        0.65547    0.43123    0.98923    1.000
    H1316    H        0.66167    0.40813    0.96743    1.000
    C1049    C        0.08167    0.72133    0.09703    1.000
    H1317    H        0.06037    0.68553    0.09793    1.000
    H1318    H        0.06967    0.73623    0.10733    1.000
    H1319    H        0.11457    0.73023    0.10013    1.000
    C1050    C        0.09157    0.77213    0.09363    1.000
    H1320    H        0.06907    0.75563    0.10543    1.000
    H1321    H        0.08977    0.80093    0.08943    1.000
    H1322    H        0.12467    0.78193    0.09813    1.000
    C1051    C        0.11047    0.79273    0.07433    1.000
    H1323    H        0.09957    0.80693    0.08533    1.000
    H1324    H        0.10877    0.80553    0.06023    1.000
    H1325    H        0.14397    0.80093    0.07723    1.000
    C1052    C        0.11297    0.76433    0.05653    1.000
    H1326    H        0.11187    0.79393    0.05283    1.000
    H1327    H        0.10527    0.74393    0.04383    1.000
    H1328    H        0.14627    0.77423    0.06133    1.000
    C1053    C        0.09547    0.71633    0.05693    1.000
    H1329    H        0.07427    0.68053    0.05683    1.000
    H1330    H        0.12867    0.72433    0.05993    1.000
    H1331    H        0.09357    0.72903    0.04293    1.000
    C1054    C        0.56723    0.12497    0.30297    1.000
    C1055    C        0.54483    0.11157    0.28287    1.000
    H1332    H        0.51803    0.07977    0.28107    1.000
    C1056    C        0.56043    0.14317    0.26567    1.000
    H1333    H        0.54513    0.13217    0.25207    1.000
    C1057    C        0.59753    0.19007    0.26777    1.000
    C1058    C        0.62293    0.20397    0.28727    1.000
    H1334    H        0.65013    0.23547    0.28887    1.000
    C1059    C        0.60793    0.17127    0.30417    1.000
    H1335    H        0.62603    0.18077    0.31707    1.000
    O189     O        0.58963    0.10327    0.33517    1.000
    N89      N        0.58333    0.07527    0.35397    1.000
    C1060    C        0.62463    0.08517    0.36117    1.000
    H1336    H        0.65253    0.10857    0.35357    1.000
    C1061    C        0.63243    0.06327    0.38007    1.000
    C1062    C        0.59303    0.02967    0.39337    1.000
    C1063    C        0.60543    0.01077    0.41167    1.000
    C1064    C        0.65393    0.02367    0.41577    1.000
    H1337    H        0.66113    0.01017    0.42777    1.000
    C1065    C        0.69143    0.05577    0.40237    1.000
    C1066    C        0.67993    0.07437    0.38477    1.000
    H1338    H        0.70543    0.09567    0.37547    1.000
    C1067    C        0.56983    0.97737    0.42677    1.000
    H1339    H        0.58153    0.96787    0.43877    1.000
    N90      N        0.52443    0.95997    0.42527    1.000
    O190     O        0.50153    0.92807    0.44277    1.000
    C1068    C        0.38803    0.84887    0.47287    1.000
    H1340    H        0.36763    0.86047    0.46777    1.000
    C1069    C        0.37243    0.81797    0.49027    1.000
    H1341    H        0.34143    0.80817    0.49617    1.000
    O191     O        0.54853    0.01777    0.38917    1.000
    C1070    C        0.74433    0.07087    0.40767    1.000
    O192     O        0.34133    0.75407    0.52518    1.000
    C1071    C        0.39333    0.78287    0.31677    1.000
    C1072    C        0.42863    0.79347    0.29797    1.000
    H1342    H        0.46043    0.80107    0.30357    1.000
    H1343    H        0.43193    0.82117    0.28977    1.000
    H1344    H        0.41603    0.76497    0.28867    1.000
    C1073    C        0.38903    0.73957    0.32937    1.000
    H1345    H        0.42143    0.74667    0.33407    1.000
    H1346    H        0.37463    0.71067    0.32027    1.000
    H1347    H        0.36853    0.73377    0.34197    1.000
    C1074    C        0.74693    0.02537    0.41327    1.000
    H1348    H        0.72393    0.00767    0.42477    1.000
    H1349    H        0.77983    0.03487    0.41807    1.000
    H1350    H        0.73883    0.00457    0.40067    1.000
    C1075    C        0.34243    0.77057    0.30987    1.000
    H1351    H        0.34433    0.79777    0.30167    1.000
    H1352    H        0.32213    0.76457    0.32257    1.000
    H1353    H        0.32833    0.74147    0.30077    1.000
    C1076    C        0.74833    0.05467    0.43037    1.000
    H1354    H        0.72703    0.01887    0.43127    1.000
    H1355    H        0.73633    0.06957    0.44067    1.000
    H1356    H        0.78123    0.06357    0.43347    1.000
    C1077    C        0.75823    0.10547    0.42697    1.000
    H1357    H        0.73573    0.08897    0.43877    1.000
    H1358    H        0.75643    0.13427    0.42277    1.000
    H1359    H        0.79133    0.11527    0.43147    1.000
    C1078    C        0.77713    0.12607    0.40767    1.000
    H1360    H        0.76623    0.14027    0.41867    1.000
    H1361    H        0.77543    0.13887    0.39357    1.000
    H1362    H        0.81063    0.13427    0.41057    1.000
    C1079    C        0.77963    0.09767    0.38987    1.000
    H1363    H        0.77853    0.12727    0.38617    1.000
    H1364    H        0.77193    0.07727    0.37717    1.000
    H1365    H        0.81293    0.10757    0.39467    1.000
    C1080    C        0.76213    0.04967    0.39027    1.000
    H1366    H        0.74093    0.01387    0.39017    1.000
    H1367    H        0.79533    0.05767    0.39327    1.000
    H1368    H        0.76023    0.06237    0.37627    1.000
    Co19     Co       0.14811    0.29622    0.73473    1.000
    Co20     Co       0.17956    0.35913    0.69627    1.000
    Zn13     Zn       0.29988    0.59976    0.54332    1.000
    B19      B        0.21210    0.42420    0.65680    1.000
    O193     O        0.18735    0.37470    0.64880    1.000
    N91      N        0.16910    0.33820    0.66380    1.000
    C1081    C        0.14815    0.29630    0.65530    1.000
    H1369    H        0.14740    0.29480    0.64010    1.000
    C1082    C        0.12540    0.25080    0.66690    1.000
    C1083    C        0.12365    0.24730    0.68990    1.000
    C1084    C        0.09985    0.19970    0.69930    1.000
    C1085    C        0.07945    0.15890    0.68580    1.000
    H1370    H        0.06375    0.12750    0.69210    1.000
    C1086    C        0.08135    0.16270    0.66370    1.000
    C1087    C        0.10420    0.20840    0.65440    1.000
    H1371    H        0.10555    0.21110    0.63920    1.000
    C1088    C        0.09500    0.19000    0.72210    1.000
    H1372    H        0.07855    0.15710    0.72650    1.000
    N92      N        0.11110    0.22220    0.73650    1.000
    O194     O        0.09955    0.19910    0.75650    1.000
    B20      B        0.11520    0.23040    0.77470    1.000
    C1089    C        0.09875    0.19750    0.79580    1.000
    C1090    C        0.06715    0.13430    0.83250    1.000
    C1091    C        0.27950    0.55900    0.58290    1.000
    O195     O        0.30170    0.60340    0.58880    1.000
    O196     O        0.27300    0.54600    0.56440    1.000
    O197     O        0.14245    0.28490    0.70170    1.000
    C1092    C        0.05045    0.10090    0.85160    1.000
    Co21     Co       0.81478    0.62955    0.06806    1.000
    Co22     Co       0.84623    0.69246    0.02960    1.000
    Zn14     Zn       0.96655    0.93309    0.87665    1.000
    B21      B        0.87877    0.75753    0.99013    1.000
    O198     O        0.85402    0.70803    0.98213    1.000
    N93      N        0.83577    0.67153    0.99713    1.000
    C1093    C        0.81482    0.62963    0.98863    1.000
    H1373    H        0.81407    0.62813    0.97343    1.000
    C1094    C        0.79207    0.58413    0.00023    1.000
    C1095    C        0.79032    0.58063    0.02323    1.000
    C1096    C        0.76652    0.53303    0.03263    1.000
    C1097    C        0.74612    0.49223    0.01913    1.000
    H1374    H        0.73042    0.46083    0.02543    1.000
    C1098    C        0.74802    0.49603    0.99703    1.000
    C1099    C        0.77087    0.54173    0.98773    1.000
    H1375    H        0.77222    0.54443    0.97253    1.000
    C1100    C        0.76167    0.52333    0.05543    1.000
    H1376    H        0.74522    0.49043    0.05983    1.000
    N94      N        0.77777    0.55553    0.06983    1.000
    O199     O        0.76622    0.53243    0.08983    1.000
    B22      B        0.78187    0.56373    0.10803    1.000
    C1101    C        0.76542    0.53083    0.12913    1.000
    C1102    C        0.73382    0.46763    0.16583    1.000
    C1103    C        0.94617    0.89233    0.91623    1.000
    O200     O        0.96837    0.93673    0.92213    1.000
    O201     O        0.93967    0.87933    0.89773    1.000
    O202     O        0.80912    0.61823    0.03503    1.000
    C1104    C        0.71712    0.43423    0.18493    1.000
    Co23     Co       0.48144    0.96289    0.40140    1.000
    Co24     Co       0.51290    0.02580    0.36294    1.000
    Zn15     Zn       0.63321    0.26643    0.20999    1.000
    B23      B        0.54543    0.09087    0.32347    1.000
    O203     O        0.52068    0.04137    0.31547    1.000
    N95      N        0.50243    0.00487    0.33047    1.000
    C1105    C        0.48148    0.96297    0.32197    1.000
    H1377    H        0.48073    0.96147    0.30677    1.000
    C1106    C        0.45873    0.91747    0.33357    1.000
    C1107    C        0.45698    0.91397    0.35657    1.000
    C1108    C        0.43318    0.86637    0.36597    1.000
    C1109    C        0.41278    0.82557    0.35247    1.000
    H1378    H        0.39708    0.79417    0.35877    1.000
    C1110    C        0.41468    0.82937    0.33037    1.000
    C1111    C        0.43753    0.87507    0.32107    1.000
    H1379    H        0.43888    0.87777    0.30587    1.000
    C1112    C        0.42833    0.85667    0.38877    1.000
    H1380    H        0.41188    0.82377    0.39317    1.000
    N96      N        0.44443    0.88887    0.40317    1.000
    O204     O        0.43288    0.86577    0.42317    1.000
    B24      B        0.44853    0.89707    0.44137    1.000
    C1113    C        0.43208    0.86417    0.46247    1.000
    C1114    C        0.40048    0.80097    0.49917    1.000
    C1115    C        0.61283    0.22567    0.24957    1.000
    O205     O        0.63503    0.27007    0.25547    1.000
    O206     O        0.60633    0.21267    0.23107    1.000
    O207     O        0.47578    0.95157    0.36837    1.000
    C1116    C        0.38378    0.76757    0.51827    1.000
    Co25     Co       0.14811    0.85189    0.73473    1.000
    Co26     Co       0.17956    0.82044    0.69627    1.000
    Zn16     Zn       0.29988    0.70012    0.54332    1.000
    B25      B        0.21210    0.78790    0.65680    1.000
    O208     O        0.18735    0.81265    0.64880    1.000
    N97      N        0.16910    0.83090    0.66380    1.000
    C1117    C        0.14815    0.85185    0.65530    1.000
    H1381    H        0.14740    0.85260    0.64010    1.000
    C1118    C        0.12540    0.87460    0.66690    1.000
    C1119    C        0.12365    0.87635    0.68990    1.000
    C1120    C        0.09985    0.90015    0.69930    1.000
    C1121    C        0.07945    0.92055    0.68580    1.000
    H1382    H        0.06375    0.93625    0.69210    1.000
    C1122    C        0.08135    0.91865    0.66370    1.000
    C1123    C        0.10420    0.89580    0.65440    1.000
    H1383    H        0.10555    0.89445    0.63920    1.000
    C1124    C        0.09500    0.90500    0.72210    1.000
    H1384    H        0.07855    0.92145    0.72650    1.000
    N98      N        0.11110    0.88890    0.73650    1.000
    O209     O        0.09955    0.90045    0.75650    1.000
    B26      B        0.11520    0.88480    0.77470    1.000
    C1125    C        0.09875    0.90125    0.79580    1.000
    C1126    C        0.06715    0.93285    0.83250    1.000
    C1127    C        0.27950    0.72050    0.58290    1.000
    O210     O        0.30170    0.69830    0.58880    1.000
    O211     O        0.27300    0.72700    0.56440    1.000
    O212     O        0.14245    0.85755    0.70170    1.000
    C1128    C        0.05045    0.94955    0.85160    1.000
    Co27     Co       0.81478    0.18522    0.06806    1.000
    Co28     Co       0.84623    0.15377    0.02960    1.000
    Zn17     Zn       0.96655    0.03345    0.87665    1.000
    B27      B        0.87877    0.12123    0.99013    1.000
    O213     O        0.85402    0.14598    0.98213    1.000
    N99      N        0.83577    0.16423    0.99713    1.000
    C1129    C        0.81482    0.18518    0.98863    1.000
    H1385    H        0.81407    0.18593    0.97343    1.000
    C1130    C        0.79207    0.20793    0.00023    1.000
    C1131    C        0.79032    0.20968    0.02323    1.000
    C1132    C        0.76652    0.23348    0.03263    1.000
    C1133    C        0.74612    0.25388    0.01913    1.000
    H1386    H        0.73042    0.26958    0.02543    1.000
    C1134    C        0.74802    0.25198    0.99703    1.000
    C1135    C        0.77087    0.22913    0.98773    1.000
    H1387    H        0.77222    0.22778    0.97253    1.000
    C1136    C        0.76167    0.23833    0.05543    1.000
    H1388    H        0.74522    0.25478    0.05983    1.000
    N100     N        0.77777    0.22223    0.06983    1.000
    O214     O        0.76622    0.23378    0.08983    1.000
    B28      B        0.78187    0.21813    0.10803    1.000
    C1137    C        0.76542    0.23458    0.12913    1.000
    C1138    C        0.73382    0.26618    0.16583    1.000
    C1139    C        0.94617    0.05383    0.91623    1.000
    O215     O        0.96837    0.03163    0.92213    1.000
    O216     O        0.93967    0.06033    0.89773    1.000
    O217     O        0.80912    0.19088    0.03503    1.000
    C1140    C        0.71712    0.28288    0.18493    1.000
    Co29     Co       0.48144    0.51856    0.40140    1.000
    Co30     Co       0.51290    0.48710    0.36294    1.000
    Zn18     Zn       0.63321    0.36679    0.20999    1.000
    B29      B        0.54543    0.45457    0.32347    1.000
    O218     O        0.52068    0.47932    0.31547    1.000
    N101     N        0.50243    0.49757    0.33047    1.000
    C1141    C        0.48148    0.51852    0.32197    1.000
    H1389    H        0.48073    0.51927    0.30677    1.000
    C1142    C        0.45873    0.54127    0.33357    1.000
    C1143    C        0.45698    0.54302    0.35657    1.000
    C1144    C        0.43318    0.56682    0.36597    1.000
    C1145    C        0.41278    0.58722    0.35247    1.000
    H1390    H        0.39708    0.60292    0.35877    1.000
    C1146    C        0.41468    0.58532    0.33037    1.000
    C1147    C        0.43753    0.56247    0.32107    1.000
    H1391    H        0.43888    0.56112    0.30587    1.000
    C1148    C        0.42833    0.57167    0.38877    1.000
    H1392    H        0.41188    0.58812    0.39317    1.000
    N102     N        0.44443    0.55557    0.40317    1.000
    O219     O        0.43288    0.56712    0.42317    1.000
    B30      B        0.44853    0.55147    0.44137    1.000
    C1149    C        0.43208    0.56792    0.46247    1.000
    C1150    C        0.40048    0.59952    0.49917    1.000
    C1151    C        0.61283    0.38717    0.24957    1.000
    O220     O        0.63503    0.36497    0.25547    1.000
    O221     O        0.60633    0.39367    0.23107    1.000
    O222     O        0.47578    0.52422    0.36837    1.000
    C1152    C        0.38378    0.61622    0.51827    1.000
    Co31     Co       0.70378    0.85189    0.73473    1.000
    Co32     Co       0.64087    0.82044    0.69627    1.000
    Zn19     Zn       0.40024    0.70012    0.54332    1.000
    B31      B        0.57580    0.78790    0.65680    1.000
    O223     O        0.62530    0.81265    0.64880    1.000
    N103     N        0.66180    0.83090    0.66380    1.000
    C1153    C        0.70370    0.85185    0.65530    1.000
    H1393    H        0.70520    0.85260    0.64010    1.000
    C1154    C        0.74920    0.87460    0.66690    1.000
    C1155    C        0.75270    0.87635    0.68990    1.000
    C1156    C        0.80030    0.90015    0.69930    1.000
    C1157    C        0.84110    0.92055    0.68580    1.000
    H1394    H        0.87250    0.93625    0.69210    1.000
    C1158    C        0.83730    0.91865    0.66370    1.000
    C1159    C        0.79160    0.89580    0.65440    1.000
    H1395    H        0.78890    0.89445    0.63920    1.000
    C1160    C        0.81000    0.90500    0.72210    1.000
    H1396    H        0.84290    0.92145    0.72650    1.000
    N104     N        0.77780    0.88890    0.73650    1.000
    O224     O        0.80090    0.90045    0.75650    1.000
    B32      B        0.76960    0.88480    0.77470    1.000
    C1161    C        0.80250    0.90125    0.79580    1.000
    C1162    C        0.86570    0.93285    0.83250    1.000
    C1163    C        0.44100    0.72050    0.58290    1.000
    O225     O        0.39660    0.69830    0.58880    1.000
    O226     O        0.45400    0.72700    0.56440    1.000
    O227     O        0.71510    0.85755    0.70170    1.000
    C1164    C        0.89910    0.94955    0.85160    1.000
    Co33     Co       0.37045    0.18522    0.06806    1.000
    Co34     Co       0.30754    0.15377    0.02960    1.000
    Zn20     Zn       0.06691    0.03345    0.87665    1.000
    B33      B        0.24247    0.12123    0.99013    1.000
    O228     O        0.29197    0.14598    0.98213    1.000
    N105     N        0.32847    0.16423    0.99713    1.000
    C1165    C        0.37037    0.18518    0.98863    1.000
    H1397    H        0.37187    0.18593    0.97343    1.000
    C1166    C        0.41587    0.20793    0.00023    1.000
    C1167    C        0.41937    0.20968    0.02323    1.000
    C1168    C        0.46697    0.23348    0.03263    1.000
    C1169    C        0.50777    0.25388    0.01913    1.000
    H1398    H        0.53917    0.26958    0.02543    1.000
    C1170    C        0.50397    0.25198    0.99703    1.000
    C1171    C        0.45827    0.22913    0.98773    1.000
    H1399    H        0.45557    0.22778    0.97253    1.000
    C1172    C        0.47667    0.23833    0.05543    1.000
    H1400    H        0.50957    0.25478    0.05983    1.000
    N106     N        0.44447    0.22223    0.06983    1.000
    O229     O        0.46757    0.23378    0.08983    1.000
    B34      B        0.43627    0.21813    0.10803    1.000
    C1173    C        0.46917    0.23458    0.12913    1.000
    C1174    C        0.53237    0.26618    0.16583    1.000
    C1175    C        0.10767    0.05383    0.91623    1.000
    O230     O        0.06327    0.03163    0.92213    1.000
    O231     O        0.12067    0.06033    0.89773    1.000
    O232     O        0.38177    0.19088    0.03503    1.000
    C1176    C        0.56577    0.28288    0.18493    1.000
    Co35     Co       0.03711    0.51856    0.40140    1.000
    Co36     Co       0.97420    0.48710    0.36294    1.000
    Zn21     Zn       0.73357    0.36679    0.20999    1.000
    B35      B        0.90913    0.45457    0.32347    1.000
    O233     O        0.95863    0.47932    0.31547    1.000
    N107     N        0.99513    0.49757    0.33047    1.000
    C1177    C        0.03703    0.51852    0.32197    1.000
    H1401    H        0.03853    0.51927    0.30677    1.000
    C1178    C        0.08253    0.54127    0.33357    1.000
    C1179    C        0.08603    0.54302    0.35657    1.000
    C1180    C        0.13363    0.56682    0.36597    1.000
    C1181    C        0.17443    0.58722    0.35247    1.000
    H1402    H        0.20583    0.60292    0.35877    1.000
    C1182    C        0.17063    0.58532    0.33037    1.000
    C1183    C        0.12493    0.56247    0.32107    1.000
    H1403    H        0.12223    0.56112    0.30587    1.000
    C1184    C        0.14333    0.57167    0.38877    1.000
    H1404    H        0.17623    0.58812    0.39317    1.000
    N108     N        0.11113    0.55557    0.40317    1.000
    O234     O        0.13423    0.56712    0.42317    1.000
    B36      B        0.10293    0.55147    0.44137    1.000
    C1185    C        0.13583    0.56792    0.46247    1.000
    C1186    C        0.19903    0.59952    0.49917    1.000
    C1187    C        0.77433    0.38717    0.24957    1.000
    O235     O        0.72993    0.36497    0.25547    1.000
    O236     O        0.78733    0.39367    0.23107    1.000
    O237     O        0.04843    0.52422    0.36837    1.000
    C1188    C        0.23243    0.61622    0.51827    1.000
    Zn22     Zn       0.33333    0.66667    0.58409    1.000
    O238     O        0.33333    0.66667    0.55150    1.000
    Zn23     Zn       0.00000    0.00000    0.91742    1.000
    O239     O        0.00000    0.00000    0.88483    1.000
    Zn24     Zn       0.66667    0.33333    0.25076    1.000
    O240     O        0.66667    0.33333    0.21817    1.000
