# CIF file generated by openbabel 3.1.0, see https://openbabel.org
data_I
_chemical_name_common 'image0'
_cell_length_a 19.598
_cell_length_b 19.598
_cell_length_c 3.5015
_cell_angle_alpha 90
_cell_angle_beta 90
_cell_angle_gamma 90
_space_group_name_H-M_alt 'P 1'
_space_group_name_Hall 'P 1'
loop_
    _symmetry_equiv_pos_as_xyz
    x,y,z
loop_
    _atom_site_label
    _atom_site_type_symbol
    _atom_site_fract_x
    _atom_site_fract_y
    _atom_site_fract_z
    _atom_site_occupancy
    Ag1      Ag       0.46241    0.62253    0.00420    1.000
    C1       C        0.26960    0.56100    0.61900    1.000
    C2       C        0.31920    0.65600    0.62400    1.000
    N1       N        0.36230    0.61170    0.77700    1.000
    N2       N        0.26000    0.62640    0.53800    1.000
    N3       N        0.33030    0.55080    0.78400    1.000
    N4       N        0.33730    0.72630    0.61100    1.000
    H1       H        0.37580    0.73970    0.70190    1.000
    H2       H        0.30960    0.75550    0.51170    1.000
    N5       N        0.21740    0.51000    0.61400    1.000
    H3       H        0.17610    0.52240    0.57010    1.000
    H4       H        0.22650    0.46780    0.65880    1.000
    H5       H        0.23790    0.52530    0.55720    1.000
    H6       H        0.33250    0.71500    0.59020    1.000
    Ag2      Ag       0.53759    0.37747    0.00420    1.000
    C3       C        0.73040    0.43900    0.61900    1.000
    C4       C        0.68080    0.34400    0.62400    1.000
    N6       N        0.63770    0.38830    0.77700    1.000
    N7       N        0.74000    0.37360    0.53800    1.000
    N8       N        0.66970    0.44920    0.78400    1.000
    N9       N        0.66270    0.27370    0.61100    1.000
    H7       H        0.62420    0.26030    0.70190    1.000
    H8       H        0.69040    0.24450    0.51170    1.000
    N10      N        0.78260    0.49000    0.61400    1.000
    H9       H        0.82390    0.47760    0.57010    1.000
    H10      H        0.77350    0.53220    0.65880    1.000
    H11      H        0.76210    0.47470    0.55720    1.000
    H12      H        0.66750    0.28500    0.59020    1.000
    Ag3      Ag       0.62253    0.53759    0.99580    1.000
    C5       C        0.56100    0.73040    0.38100    1.000
    C6       C        0.65600    0.68080    0.37600    1.000
    N11      N        0.61170    0.63770    0.22300    1.000
    N12      N        0.62640    0.74000    0.46200    1.000
    N13      N        0.55080    0.66970    0.21600    1.000
    N14      N        0.72630    0.66270    0.38900    1.000
    H13      H        0.73970    0.62420    0.29810    1.000
    H14      H        0.75550    0.69040    0.48830    1.000
    N15      N        0.51000    0.78260    0.38600    1.000
    H15      H        0.52240    0.82390    0.42990    1.000
    H16      H        0.46780    0.77350    0.34120    1.000
    H17      H        0.52530    0.76210    0.44280    1.000
    H18      H        0.71500    0.66750    0.40980    1.000
    Ag4      Ag       0.37747    0.46241    0.99580    1.000
    C7       C        0.43900    0.26960    0.38100    1.000
    C8       C        0.34400    0.31920    0.37600    1.000
    N16      N        0.38830    0.36230    0.22300    1.000
    N17      N        0.37360    0.26000    0.46200    1.000
    N18      N        0.44920    0.33030    0.21600    1.000
    N19      N        0.27370    0.33730    0.38900    1.000
    H19      H        0.26030    0.37580    0.29810    1.000
    H20      H        0.24450    0.30960    0.48830    1.000
    N20      N        0.49000    0.21740    0.38600    1.000
    H21      H        0.47760    0.17610    0.42990    1.000
    H22      H        0.53220    0.22650    0.34120    1.000
    H23      H        0.47470    0.23790    0.44280    1.000
    H24      H        0.28500    0.33250    0.40980    1.000
    Ag5      Ag       0.96241    0.87747    0.50420    1.000
    C9       C        0.76960    0.93900    0.11900    1.000
    C10      C        0.81920    0.84400    0.12400    1.000
    N21      N        0.86230    0.88830    0.27700    1.000
    N22      N        0.76000    0.87360    0.03800    1.000
    N23      N        0.83030    0.94920    0.28400    1.000
    N24      N        0.83730    0.77370    0.11100    1.000
    H25      H        0.87580    0.76030    0.20190    1.000
    H26      H        0.80960    0.74450    0.01170    1.000
    N25      N        0.71740    0.99000    0.11400    1.000
    H27      H        0.67610    0.97760    0.07010    1.000
    H28      H        0.72650    0.03220    0.15880    1.000
    H29      H        0.73790    0.97470    0.05720    1.000
    H30      H        0.83250    0.78500    0.09020    1.000
    Ag6      Ag       0.03759    0.12253    0.50420    1.000
    C11      C        0.23040    0.06100    0.11900    1.000
    C12      C        0.18080    0.15600    0.12400    1.000
    N26      N        0.13770    0.11170    0.27700    1.000
    N27      N        0.24000    0.12640    0.03800    1.000
    N28      N        0.16970    0.05080    0.28400    1.000
    N29      N        0.16270    0.22630    0.11100    1.000
    H31      H        0.12420    0.23970    0.20190    1.000
    H32      H        0.19040    0.25550    0.01170    1.000
    N30      N        0.28260    0.01000    0.11400    1.000
    H33      H        0.32390    0.02240    0.07010    1.000
    H34      H        0.27350    0.96780    0.15880    1.000
    H35      H        0.26210    0.02530    0.05720    1.000
    H36      H        0.16750    0.21500    0.09020    1.000
    Ag7      Ag       0.12253    0.96241    0.49580    1.000
    C13      C        0.06100    0.76960    0.88100    1.000
    C14      C        0.15600    0.81920    0.87600    1.000
    N31      N        0.11170    0.86230    0.72300    1.000
    N32      N        0.12640    0.76000    0.96200    1.000
    N33      N        0.05080    0.83030    0.71600    1.000
    N34      N        0.22630    0.83730    0.88900    1.000
    H37      H        0.23970    0.87580    0.79810    1.000
    H38      H        0.25550    0.80960    0.98830    1.000
    N35      N        0.01000    0.71740    0.88600    1.000
    H39      H        0.02240    0.67610    0.92990    1.000
    H40      H        0.96780    0.72650    0.84120    1.000
    H41      H        0.02530    0.73790    0.94280    1.000
    H42      H        0.21500    0.83250    0.90980    1.000
    Ag8      Ag       0.87747    0.03759    0.49580    1.000
    C15      C        0.93900    0.23040    0.88100    1.000
    C16      C        0.84400    0.18080    0.87600    1.000
    N36      N        0.88830    0.13770    0.72300    1.000
    N37      N        0.87360    0.24000    0.96200    1.000
    N38      N        0.94920    0.16970    0.71600    1.000
    N39      N        0.77370    0.16270    0.88900    1.000
    H43      H        0.76030    0.12420    0.79810    1.000
    H44      H        0.74450    0.19040    0.98830    1.000
    N40      N        0.99000    0.28260    0.88600    1.000
    H45      H        0.97760    0.32390    0.92990    1.000
    H46      H        0.03220    0.27350    0.84120    1.000
    H47      H        0.97470    0.26210    0.94280    1.000
    H48      H        0.78500    0.16750    0.90980    1.000
    Ag9      Ag       0.17726    0.67726    0.25000    1.000
    Ag10     Ag       0.82274    0.32274    0.25000    1.000
    Ag11     Ag       0.67726    0.82274    0.75000    1.000
    Ag12     Ag       0.32274    0.17726    0.75000    1.000
