data_functionalizedCrystal
_audit_creation_method	'EQeq! by Chris Wilmer'
_symmetry_space_group_name_H-M	'P1'
_symmetry_Int_Tables_number	1
_symmetry_cell_setting	triclinic
loop_
_symmetry_equiv_pos_as_xyz
  x,y,z
_cell_length_a	23.162
_cell_length_b	23.162
_cell_length_c	23.162
_cell_angle_alpha	90
_cell_angle_beta	90
_cell_angle_gamma	90
loop_
_atom_site_label
_atom_site_type_symbol
_atom_site_fract_x
_atom_site_fract_y
_atom_site_fract_z
_atom_site_charge
Mof_N 	N 	0.323	0.34917	0.22039	-0.068
Mof_O 	O 	0.32356	0.29086	0.2236	-0.265
Mof_C 	C 	0.2881	0.3757	0.1833	0.029
Mof_H 	H 	0.264	0.355	0.1588	0.044
Mof_C 	C 	0.2892	0.43682	0.1826	-0.089
Mof_H 	H 	0.2628	0.4563	0.1595	0.066
Mof_C 	C 	0.3279	0.46853	0.2148	0.041
Mof_C 	C 	0.36554	0.43555	0.2508	-0.108
Mof_H 	H 	0.3929	0.4546	0.2731	0.066
Mof_C 	C 	0.36247	0.37842	0.25309	0.056
Mof_H 	H 	0.3874	0.3581	0.2772	0.028
Mof_N 	N 	0.823	0.84917	0.72039	-0.068
Mof_O 	O 	0.82356	0.79086	0.7236	-0.265
Mof_C 	C 	0.7881	0.8757	0.6833	0.029
Mof_H 	H 	0.764	0.855	0.6588	0.044
Mof_C 	C 	0.7892	0.93682	0.6826	-0.089
Mof_H 	H 	0.7628	0.9563	0.6595	0.066
Mof_C 	C 	0.8279	0.96853	0.7148	0.041
Mof_C 	C 	0.86554	0.93555	0.7508	-0.108
Mof_H 	H 	0.8929	0.9546	0.7731	0.066
Mof_C 	C 	0.86247	0.87842	0.75309	0.056
Mof_H 	H 	0.8874	0.8581	0.7772	0.028
Mof_N 	N 	0.677	0.65083	0.22039	-0.068
Mof_O 	O 	0.67644	0.70914	0.2236	-0.265
Mof_C 	C 	0.7119	0.6243	0.1833	0.029
Mof_H 	H 	0.736	0.645	0.1588	0.044
Mof_C 	C 	0.7108	0.56318	0.1826	-0.089
Mof_H 	H 	0.7372	0.5437	0.1595	0.066
Mof_C 	C 	0.6721	0.53147	0.2148	0.041
Mof_C 	C 	0.63446	0.56445	0.2508	-0.108
Mof_H 	H 	0.6071	0.5454	0.2731	0.066
Mof_C 	C 	0.63753	0.62158	0.25309	0.056
Mof_H 	H 	0.6126	0.6419	0.2772	0.028
Mof_N 	N 	0.177	0.15083	0.72039	-0.068
Mof_O 	O 	0.17644	0.20914	0.7236	-0.265
Mof_C 	C 	0.2119	0.1243	0.6833	0.029
Mof_H 	H 	0.236	0.145	0.6588	0.044
Mof_C 	C 	0.2108	0.06318	0.6826	-0.089
Mof_H 	H 	0.2372	0.0437	0.6595	0.066
Mof_C 	C 	0.1721	0.03147	0.7148	0.041
Mof_C 	C 	0.13446	0.06445	0.7508	-0.108
Mof_H 	H 	0.1071	0.0454	0.7731	0.066
Mof_C 	C 	0.13753	0.12158	0.75309	0.056
Mof_H 	H 	0.1126	0.1419	0.7772	0.028
Mof_N 	N 	0.677	0.34917	0.77961	-0.068
Mof_O 	O 	0.67644	0.29086	0.7764	-0.265
Mof_C 	C 	0.7119	0.3757	0.8167	0.029
Mof_H 	H 	0.736	0.355	0.8412	0.044
Mof_C 	C 	0.7108	0.43682	0.8174	-0.089
Mof_H 	H 	0.7372	0.4563	0.8405	0.066
Mof_C 	C 	0.6721	0.46853	0.7852	0.041
Mof_C 	C 	0.63446	0.43555	0.7492	-0.108
Mof_H 	H 	0.6071	0.4546	0.7269	0.066
Mof_C 	C 	0.63753	0.37842	0.74691	0.056
Mof_H 	H 	0.6126	0.3581	0.7228	0.028
Mof_N 	N 	0.177	0.84917	0.27961	-0.068
Mof_O 	O 	0.17644	0.79086	0.2764	-0.265
Mof_C 	C 	0.2119	0.8757	0.3167	0.029
Mof_H 	H 	0.236	0.855	0.3412	0.044
Mof_C 	C 	0.2108	0.93682	0.3174	-0.089
Mof_H 	H 	0.2372	0.9563	0.3405	0.066
Mof_C 	C 	0.1721	0.96853	0.2852	0.041
Mof_C 	C 	0.13446	0.93555	0.2492	-0.108
Mof_H 	H 	0.1071	0.9546	0.2269	0.066
Mof_C 	C 	0.13753	0.87842	0.24691	0.056
Mof_H 	H 	0.1126	0.8581	0.2228	0.028
Mof_N 	N 	0.323	0.65083	0.77961	-0.068
Mof_O 	O 	0.32356	0.70914	0.7764	-0.265
Mof_C 	C 	0.2881	0.6243	0.8167	0.029
Mof_H 	H 	0.264	0.645	0.8412	0.044
Mof_C 	C 	0.2892	0.56318	0.8174	-0.089
Mof_H 	H 	0.2628	0.5437	0.8405	0.066
Mof_C 	C 	0.3279	0.53147	0.7852	0.041
Mof_C 	C 	0.36554	0.56445	0.7492	-0.108
Mof_H 	H 	0.3929	0.5454	0.7269	0.066
Mof_C 	C 	0.36247	0.62158	0.74691	0.056
Mof_H 	H 	0.3874	0.6419	0.7228	0.028
Mof_N 	N 	0.823	0.15083	0.27961	-0.068
Mof_O 	O 	0.82356	0.20914	0.2764	-0.265
Mof_C 	C 	0.7881	0.1243	0.3167	0.029
Mof_H 	H 	0.764	0.145	0.3412	0.044
Mof_C 	C 	0.7892	0.06318	0.3174	-0.089
Mof_H 	H 	0.7628	0.0437	0.3405	0.066
Mof_C 	C 	0.8279	0.03147	0.2852	0.041
Mof_C 	C 	0.86554	0.06445	0.2492	-0.108
Mof_H 	H 	0.8929	0.0454	0.2269	0.066
Mof_C 	C 	0.86247	0.12158	0.24691	0.056
Mof_H 	H 	0.8874	0.1419	0.2228	0.028
Mof_N 	N 	0.22039	0.323	0.34917	-0.068
Mof_O 	O 	0.2236	0.32356	0.29086	-0.265
Mof_C 	C 	0.1833	0.2881	0.3757	0.029
Mof_H 	H 	0.1588	0.264	0.355	0.044
Mof_C 	C 	0.1826	0.2892	0.43682	-0.089
Mof_H 	H 	0.1595	0.2628	0.4563	0.066
Mof_C 	C 	0.2148	0.3279	0.46853	0.041
Mof_C 	C 	0.2508	0.36554	0.43555	-0.108
Mof_H 	H 	0.2731	0.3929	0.4546	0.066
Mof_C 	C 	0.25309	0.36247	0.37842	0.056
Mof_H 	H 	0.2772	0.3874	0.3581	0.028
Mof_N 	N 	0.72039	0.823	0.84917	-0.068
Mof_O 	O 	0.7236	0.82356	0.79086	-0.265
Mof_C 	C 	0.6833	0.7881	0.8757	0.029
Mof_H 	H 	0.6588	0.764	0.855	0.044
Mof_C 	C 	0.6826	0.7892	0.93682	-0.089
Mof_H 	H 	0.6595	0.7628	0.9563	0.066
Mof_C 	C 	0.7148	0.8279	0.96853	0.041
Mof_C 	C 	0.7508	0.86554	0.93555	-0.108
Mof_H 	H 	0.7731	0.8929	0.9546	0.066
Mof_C 	C 	0.75309	0.86247	0.87842	0.056
Mof_H 	H 	0.7772	0.8874	0.8581	0.028
Mof_N 	N 	0.22039	0.677	0.65083	-0.068
Mof_O 	O 	0.2236	0.67644	0.70914	-0.265
Mof_C 	C 	0.1833	0.7119	0.6243	0.029
Mof_H 	H 	0.1588	0.736	0.645	0.044
Mof_C 	C 	0.1826	0.7108	0.56318	-0.089
Mof_H 	H 	0.1595	0.7372	0.5437	0.066
Mof_C 	C 	0.2148	0.6721	0.53147	0.041
Mof_C 	C 	0.2508	0.63446	0.56445	-0.108
Mof_H 	H 	0.2731	0.6071	0.5454	0.066
Mof_C 	C 	0.25309	0.63753	0.62158	0.056
Mof_H 	H 	0.2772	0.6126	0.6419	0.028
Mof_N 	N 	0.72039	0.177	0.15083	-0.068
Mof_O 	O 	0.7236	0.17644	0.20914	-0.265
Mof_C 	C 	0.6833	0.2119	0.1243	0.029
Mof_H 	H 	0.6588	0.236	0.145	0.044
Mof_C 	C 	0.6826	0.2108	0.06318	-0.089
Mof_H 	H 	0.6595	0.2372	0.0437	0.066
Mof_C 	C 	0.7148	0.1721	0.03147	0.041
Mof_C 	C 	0.7508	0.13446	0.06445	-0.108
Mof_H 	H 	0.7731	0.1071	0.0454	0.066
Mof_C 	C 	0.75309	0.13753	0.12158	0.056
Mof_H 	H 	0.7772	0.1126	0.1419	0.028
Mof_N 	N 	0.77961	0.677	0.34917	-0.068
Mof_O 	O 	0.7764	0.67644	0.29086	-0.265
Mof_C 	C 	0.8167	0.7119	0.3757	0.029
Mof_H 	H 	0.8412	0.736	0.355	0.044
Mof_C 	C 	0.8174	0.7108	0.43682	-0.089
Mof_H 	H 	0.8405	0.7372	0.4563	0.066
Mof_C 	C 	0.7852	0.6721	0.46853	0.041
Mof_C 	C 	0.7492	0.63446	0.43555	-0.108
Mof_H 	H 	0.7269	0.6071	0.4546	0.066
Mof_C 	C 	0.74691	0.63753	0.37842	0.056
Mof_H 	H 	0.7228	0.6126	0.3581	0.028
Mof_N 	N 	0.27961	0.177	0.84917	-0.068
Mof_O 	O 	0.2764	0.17644	0.79086	-0.265
Mof_C 	C 	0.3167	0.2119	0.8757	0.029
Mof_H 	H 	0.3412	0.236	0.855	0.044
Mof_C 	C 	0.3174	0.2108	0.93682	-0.089
Mof_H 	H 	0.3405	0.2372	0.9563	0.066
Mof_C 	C 	0.2852	0.1721	0.96853	0.041
Mof_C 	C 	0.2492	0.13446	0.93555	-0.108
Mof_H 	H 	0.2269	0.1071	0.9546	0.066
Mof_C 	C 	0.24691	0.13753	0.87842	0.056
Mof_H 	H 	0.2228	0.1126	0.8581	0.028
Mof_N 	N 	0.77961	0.323	0.65083	-0.068
Mof_O 	O 	0.7764	0.32356	0.70914	-0.265
Mof_C 	C 	0.8167	0.2881	0.6243	0.029
Mof_H 	H 	0.8412	0.264	0.645	0.044
Mof_C 	C 	0.8174	0.2892	0.56318	-0.089
Mof_H 	H 	0.8405	0.2628	0.5437	0.066
Mof_C 	C 	0.7852	0.3279	0.53147	0.041
Mof_C 	C 	0.7492	0.36554	0.56445	-0.108
Mof_H 	H 	0.7269	0.3929	0.5454	0.066
Mof_C 	C 	0.74691	0.36247	0.62158	0.056
Mof_H 	H 	0.7228	0.3874	0.6419	0.028
Mof_N 	N 	0.27961	0.823	0.15083	-0.068
Mof_O 	O 	0.2764	0.82356	0.20914	-0.265
Mof_C 	C 	0.3167	0.7881	0.1243	0.029
Mof_H 	H 	0.3412	0.764	0.145	0.044
Mof_C 	C 	0.3174	0.7892	0.06318	-0.089
Mof_H 	H 	0.3405	0.7628	0.0437	0.066
Mof_C 	C 	0.2852	0.8279	0.03147	0.041
Mof_C 	C 	0.2492	0.86554	0.06445	-0.108
Mof_H 	H 	0.2269	0.8929	0.0454	0.066
Mof_C 	C 	0.24691	0.86247	0.12158	0.056
Mof_H 	H 	0.2228	0.8874	0.1419	0.028
Mof_N 	N 	0.34917	0.22039	0.323	-0.068
Mof_O 	O 	0.29086	0.2236	0.32356	-0.265
Mof_C 	C 	0.3757	0.1833	0.2881	0.029
Mof_H 	H 	0.355	0.1588	0.264	0.044
Mof_C 	C 	0.43682	0.1826	0.2892	-0.089
Mof_H 	H 	0.4563	0.1595	0.2628	0.066
Mof_C 	C 	0.46853	0.2148	0.3279	0.041
Mof_C 	C 	0.43555	0.2508	0.36554	-0.108
Mof_H 	H 	0.4546	0.2731	0.3929	0.066
Mof_C 	C 	0.37842	0.25309	0.36247	0.056
Mof_H 	H 	0.3581	0.2772	0.3874	0.028
Mof_N 	N 	0.84917	0.72039	0.823	-0.068
Mof_O 	O 	0.79086	0.7236	0.82356	-0.265
Mof_C 	C 	0.8757	0.6833	0.7881	0.029
Mof_H 	H 	0.855	0.6588	0.764	0.044
Mof_C 	C 	0.93682	0.6826	0.7892	-0.089
Mof_H 	H 	0.9563	0.6595	0.7628	0.066
Mof_C 	C 	0.96853	0.7148	0.8279	0.041
Mof_C 	C 	0.93555	0.7508	0.86554	-0.108
Mof_H 	H 	0.9546	0.7731	0.8929	0.066
Mof_C 	C 	0.87842	0.75309	0.86247	0.056
Mof_H 	H 	0.8581	0.7772	0.8874	0.028
Mof_N 	N 	0.65083	0.22039	0.677	-0.068
Mof_O 	O 	0.70914	0.2236	0.67644	-0.265
Mof_C 	C 	0.6243	0.1833	0.7119	0.029
Mof_H 	H 	0.645	0.1588	0.736	0.044
Mof_C 	C 	0.56318	0.1826	0.7108	-0.089
Mof_H 	H 	0.5437	0.1595	0.7372	0.066
Mof_C 	C 	0.53147	0.2148	0.6721	0.041
Mof_C 	C 	0.56445	0.2508	0.63446	-0.108
Mof_H 	H 	0.5454	0.2731	0.6071	0.066
Mof_C 	C 	0.62158	0.25309	0.63753	0.056
Mof_H 	H 	0.6419	0.2772	0.6126	0.028
Mof_N 	N 	0.15083	0.72039	0.177	-0.068
Mof_O 	O 	0.20914	0.7236	0.17644	-0.265
Mof_C 	C 	0.1243	0.6833	0.2119	0.029
Mof_H 	H 	0.145	0.6588	0.236	0.044
Mof_C 	C 	0.06318	0.6826	0.2108	-0.089
Mof_H 	H 	0.0437	0.6595	0.2372	0.066
Mof_C 	C 	0.03147	0.7148	0.1721	0.041
Mof_C 	C 	0.06445	0.7508	0.13446	-0.108
Mof_H 	H 	0.0454	0.7731	0.1071	0.066
Mof_C 	C 	0.12158	0.75309	0.13753	0.056
Mof_H 	H 	0.1419	0.7772	0.1126	0.028
Mof_N 	N 	0.34917	0.77961	0.677	-0.068
Mof_O 	O 	0.29086	0.7764	0.67644	-0.265
Mof_C 	C 	0.3757	0.8167	0.7119	0.029
Mof_H 	H 	0.355	0.8412	0.736	0.044
Mof_C 	C 	0.43682	0.8174	0.7108	-0.089
Mof_H 	H 	0.4563	0.8405	0.7372	0.066
Mof_C 	C 	0.46853	0.7852	0.6721	0.041
Mof_C 	C 	0.43555	0.7492	0.63446	-0.108
Mof_H 	H 	0.4546	0.7269	0.6071	0.066
Mof_C 	C 	0.37842	0.74691	0.63753	0.056
Mof_H 	H 	0.3581	0.7228	0.6126	0.028
Mof_N 	N 	0.84917	0.27961	0.177	-0.068
Mof_O 	O 	0.79086	0.2764	0.17644	-0.265
Mof_C 	C 	0.8757	0.3167	0.2119	0.029
Mof_H 	H 	0.855	0.3412	0.236	0.044
Mof_C 	C 	0.93682	0.3174	0.2108	-0.089
Mof_H 	H 	0.9563	0.3405	0.2372	0.066
Mof_C 	C 	0.96853	0.2852	0.1721	0.041
Mof_C 	C 	0.93555	0.2492	0.13446	-0.108
Mof_H 	H 	0.9546	0.2269	0.1071	0.066
Mof_C 	C 	0.87842	0.24691	0.13753	0.056
Mof_H 	H 	0.8581	0.2228	0.1126	0.028
Mof_N 	N 	0.65083	0.77961	0.323	-0.068
Mof_O 	O 	0.70914	0.7764	0.32356	-0.265
Mof_C 	C 	0.6243	0.8167	0.2881	0.029
Mof_H 	H 	0.645	0.8412	0.264	0.044
Mof_C 	C 	0.56318	0.8174	0.2892	-0.089
Mof_H 	H 	0.5437	0.8405	0.2628	0.066
Mof_C 	C 	0.53147	0.7852	0.3279	0.041
Mof_C 	C 	0.56445	0.7492	0.36554	-0.108
Mof_H 	H 	0.5454	0.7269	0.3929	0.066
Mof_C 	C 	0.62158	0.74691	0.36247	0.056
Mof_H 	H 	0.6419	0.7228	0.3874	0.028
Mof_N 	N 	0.15083	0.27961	0.823	-0.068
Mof_O 	O 	0.20914	0.2764	0.82356	-0.265
Mof_C 	C 	0.1243	0.3167	0.7881	0.029
Mof_H 	H 	0.145	0.3412	0.764	0.044
Mof_C 	C 	0.06318	0.3174	0.7892	-0.089
Mof_H 	H 	0.0437	0.3405	0.7628	0.066
Mof_C 	C 	0.03147	0.2852	0.8279	0.041
Mof_C 	C 	0.06445	0.2492	0.86554	-0.108
Mof_H 	H 	0.0454	0.2269	0.8929	0.066
Mof_C 	C 	0.12158	0.24691	0.86247	0.056
Mof_H 	H 	0.1419	0.2228	0.8874	0.028
Mof_N 	N 	0.677	0.65083	0.77961	-0.068
Mof_O 	O 	0.67644	0.70914	0.7764	-0.265
Mof_C 	C 	0.7119	0.6243	0.8167	0.029
Mof_H 	H 	0.736	0.645	0.8412	0.044
Mof_C 	C 	0.7108	0.56318	0.8174	-0.089
Mof_H 	H 	0.7372	0.5437	0.8405	0.066
Mof_C 	C 	0.6721	0.53147	0.7852	0.041
Mof_C 	C 	0.63446	0.56445	0.7492	-0.108
Mof_H 	H 	0.6071	0.5454	0.7269	0.066
Mof_C 	C 	0.63753	0.62158	0.74691	0.056
Mof_H 	H 	0.6126	0.6419	0.7228	0.028
Mof_N 	N 	0.177	0.15083	0.27961	-0.068
Mof_O 	O 	0.17644	0.20914	0.2764	-0.265
Mof_C 	C 	0.2119	0.1243	0.3167	0.029
Mof_H 	H 	0.236	0.145	0.3412	0.044
Mof_C 	C 	0.2108	0.06318	0.3174	-0.089
Mof_H 	H 	0.2372	0.0437	0.3405	0.066
Mof_C 	C 	0.1721	0.03147	0.2852	0.041
Mof_C 	C 	0.13446	0.06445	0.2492	-0.108
Mof_H 	H 	0.1071	0.0454	0.2269	0.066
Mof_C 	C 	0.13753	0.12158	0.24691	0.056
Mof_H 	H 	0.1126	0.1419	0.2228	0.028
Mof_N 	N 	0.323	0.34917	0.77961	-0.068
Mof_O 	O 	0.32356	0.29086	0.7764	-0.265
Mof_C 	C 	0.2881	0.3757	0.8167	0.029
Mof_H 	H 	0.264	0.355	0.8412	0.044
Mof_C 	C 	0.2892	0.43682	0.8174	-0.089
Mof_H 	H 	0.2628	0.4563	0.8405	0.066
Mof_C 	C 	0.3279	0.46853	0.7852	0.041
Mof_C 	C 	0.36554	0.43555	0.7492	-0.108
Mof_H 	H 	0.3929	0.4546	0.7269	0.066
Mof_C 	C 	0.36247	0.37842	0.74691	0.056
Mof_H 	H 	0.3874	0.3581	0.7228	0.028
Mof_N 	N 	0.823	0.84917	0.27961	-0.068
Mof_O 	O 	0.82356	0.79086	0.2764	-0.265
Mof_C 	C 	0.7881	0.8757	0.3167	0.029
Mof_H 	H 	0.764	0.855	0.3412	0.044
Mof_C 	C 	0.7892	0.93682	0.3174	-0.089
Mof_H 	H 	0.7628	0.9563	0.3405	0.066
Mof_C 	C 	0.8279	0.96853	0.2852	0.041
Mof_C 	C 	0.86554	0.93555	0.2492	-0.108
Mof_H 	H 	0.8929	0.9546	0.2269	0.066
Mof_C 	C 	0.86247	0.87842	0.24691	0.056
Mof_H 	H 	0.8874	0.8581	0.2228	0.028
Mof_N 	N 	0.323	0.65083	0.22039	-0.068
Mof_O 	O 	0.32356	0.70914	0.2236	-0.265
Mof_C 	C 	0.2881	0.6243	0.1833	0.029
Mof_H 	H 	0.264	0.645	0.1588	0.044
Mof_C 	C 	0.2892	0.56318	0.1826	-0.089
Mof_H 	H 	0.2628	0.5437	0.1595	0.066
Mof_C 	C 	0.3279	0.53147	0.2148	0.041
Mof_C 	C 	0.36554	0.56445	0.2508	-0.108
Mof_H 	H 	0.3929	0.5454	0.2731	0.066
Mof_C 	C 	0.36247	0.62158	0.25309	0.056
Mof_H 	H 	0.3874	0.6419	0.2772	0.028
Mof_N 	N 	0.823	0.15083	0.72039	-0.068
Mof_O 	O 	0.82356	0.20914	0.7236	-0.265
Mof_C 	C 	0.7881	0.1243	0.6833	0.029
Mof_H 	H 	0.764	0.145	0.6588	0.044
Mof_C 	C 	0.7892	0.06318	0.6826	-0.089
Mof_H 	H 	0.7628	0.0437	0.6595	0.066
Mof_C 	C 	0.8279	0.03147	0.7148	0.041
Mof_C 	C 	0.86554	0.06445	0.7508	-0.108
Mof_H 	H 	0.8929	0.0454	0.7731	0.066
Mof_C 	C 	0.86247	0.12158	0.75309	0.056
Mof_H 	H 	0.8874	0.1419	0.7772	0.028
Mof_N 	N 	0.677	0.34917	0.22039	-0.068
Mof_O 	O 	0.67644	0.29086	0.2236	-0.265
Mof_C 	C 	0.7119	0.3757	0.1833	0.029
Mof_H 	H 	0.736	0.355	0.1588	0.044
Mof_C 	C 	0.7108	0.43682	0.1826	-0.089
Mof_H 	H 	0.7372	0.4563	0.1595	0.066
Mof_C 	C 	0.6721	0.46853	0.2148	0.041
Mof_C 	C 	0.63446	0.43555	0.2508	-0.108
Mof_H 	H 	0.6071	0.4546	0.2731	0.066
Mof_C 	C 	0.63753	0.37842	0.25309	0.056
Mof_H 	H 	0.6126	0.3581	0.2772	0.028
Mof_N 	N 	0.177	0.84917	0.72039	-0.068
Mof_O 	O 	0.17644	0.79086	0.7236	-0.265
Mof_C 	C 	0.2119	0.8757	0.6833	0.029
Mof_H 	H 	0.236	0.855	0.6588	0.044
Mof_C 	C 	0.2108	0.93682	0.6826	-0.089
Mof_H 	H 	0.2372	0.9563	0.6595	0.066
Mof_C 	C 	0.1721	0.96853	0.7148	0.041
Mof_C 	C 	0.13446	0.93555	0.7508	-0.108
Mof_H 	H 	0.1071	0.9546	0.7731	0.066
Mof_C 	C 	0.13753	0.87842	0.75309	0.056
Mof_H 	H 	0.1126	0.8581	0.7772	0.028
Mof_N 	N 	0.77961	0.677	0.65083	-0.068
Mof_O 	O 	0.7764	0.67644	0.70914	-0.265
Mof_C 	C 	0.8167	0.7119	0.6243	0.029
Mof_H 	H 	0.8412	0.736	0.645	0.044
Mof_C 	C 	0.8174	0.7108	0.56318	-0.089
Mof_H 	H 	0.8405	0.7372	0.5437	0.066
Mof_C 	C 	0.7852	0.6721	0.53147	0.041
Mof_C 	C 	0.7492	0.63446	0.56445	-0.108
Mof_H 	H 	0.7269	0.6071	0.5454	0.066
Mof_C 	C 	0.74691	0.63753	0.62158	0.056
Mof_H 	H 	0.7228	0.6126	0.6419	0.028
Mof_N 	N 	0.27961	0.177	0.15083	-0.068
Mof_O 	O 	0.2764	0.17644	0.20914	-0.265
Mof_C 	C 	0.3167	0.2119	0.1243	0.029
Mof_H 	H 	0.3412	0.236	0.145	0.044
Mof_C 	C 	0.3174	0.2108	0.06318	-0.089
Mof_H 	H 	0.3405	0.2372	0.0437	0.066
Mof_C 	C 	0.2852	0.1721	0.03147	0.041
Mof_C 	C 	0.2492	0.13446	0.06445	-0.108
Mof_H 	H 	0.2269	0.1071	0.0454	0.066
Mof_C 	C 	0.24691	0.13753	0.12158	0.056
Mof_H 	H 	0.2228	0.1126	0.1419	0.028
Mof_N 	N 	0.77961	0.323	0.34917	-0.068
Mof_O 	O 	0.7764	0.32356	0.29086	-0.265
Mof_C 	C 	0.8167	0.2881	0.3757	0.029
Mof_H 	H 	0.8412	0.264	0.355	0.044
Mof_C 	C 	0.8174	0.2892	0.43682	-0.089
Mof_H 	H 	0.8405	0.2628	0.4563	0.066
Mof_C 	C 	0.7852	0.3279	0.46853	0.041
Mof_C 	C 	0.7492	0.36554	0.43555	-0.108
Mof_H 	H 	0.7269	0.3929	0.4546	0.066
Mof_C 	C 	0.74691	0.36247	0.37842	0.056
Mof_H 	H 	0.7228	0.3874	0.3581	0.028
Mof_N 	N 	0.27961	0.823	0.84917	-0.068
Mof_O 	O 	0.2764	0.82356	0.79086	-0.265
Mof_C 	C 	0.3167	0.7881	0.8757	0.029
Mof_H 	H 	0.3412	0.764	0.855	0.044
Mof_C 	C 	0.3174	0.7892	0.93682	-0.089
Mof_H 	H 	0.3405	0.7628	0.9563	0.066
Mof_C 	C 	0.2852	0.8279	0.96853	0.041
Mof_C 	C 	0.2492	0.86554	0.93555	-0.108
Mof_H 	H 	0.2269	0.8929	0.9546	0.066
Mof_C 	C 	0.24691	0.86247	0.87842	0.056
Mof_H 	H 	0.2228	0.8874	0.8581	0.028
Mof_N 	N 	0.22039	0.323	0.65083	-0.068
Mof_O 	O 	0.2236	0.32356	0.70914	-0.265
Mof_C 	C 	0.1833	0.2881	0.6243	0.029
Mof_H 	H 	0.1588	0.264	0.645	0.044
Mof_C 	C 	0.1826	0.2892	0.56318	-0.089
Mof_H 	H 	0.1595	0.2628	0.5437	0.066
Mof_C 	C 	0.2148	0.3279	0.53147	0.041
Mof_C 	C 	0.2508	0.36554	0.56445	-0.108
Mof_H 	H 	0.2731	0.3929	0.5454	0.066
Mof_C 	C 	0.25309	0.36247	0.62158	0.056
Mof_H 	H 	0.2772	0.3874	0.6419	0.028
Mof_N 	N 	0.72039	0.823	0.15083	-0.068
Mof_O 	O 	0.7236	0.82356	0.20914	-0.265
Mof_C 	C 	0.6833	0.7881	0.1243	0.029
Mof_H 	H 	0.6588	0.764	0.145	0.044
Mof_C 	C 	0.6826	0.7892	0.06318	-0.089
Mof_H 	H 	0.6595	0.7628	0.0437	0.066
Mof_C 	C 	0.7148	0.8279	0.03147	0.041
Mof_C 	C 	0.7508	0.86554	0.06445	-0.108
Mof_H 	H 	0.7731	0.8929	0.0454	0.066
Mof_C 	C 	0.75309	0.86247	0.12158	0.056
Mof_H 	H 	0.7772	0.8874	0.1419	0.028
Mof_N 	N 	0.22039	0.677	0.34917	-0.068
Mof_O 	O 	0.2236	0.67644	0.29086	-0.265
Mof_C 	C 	0.1833	0.7119	0.3757	0.029
Mof_H 	H 	0.1588	0.736	0.355	0.044
Mof_C 	C 	0.1826	0.7108	0.43682	-0.089
Mof_H 	H 	0.1595	0.7372	0.4563	0.066
Mof_C 	C 	0.2148	0.6721	0.46853	0.041
Mof_C 	C 	0.2508	0.63446	0.43555	-0.108
Mof_H 	H 	0.2731	0.6071	0.4546	0.066
Mof_C 	C 	0.25309	0.63753	0.37842	0.056
Mof_H 	H 	0.2772	0.6126	0.3581	0.028
Mof_N 	N 	0.72039	0.177	0.84917	-0.068
Mof_O 	O 	0.7236	0.17644	0.79086	-0.265
Mof_C 	C 	0.6833	0.2119	0.8757	0.029
Mof_H 	H 	0.6588	0.236	0.855	0.044
Mof_C 	C 	0.6826	0.2108	0.93682	-0.089
Mof_H 	H 	0.6595	0.2372	0.9563	0.066
Mof_C 	C 	0.7148	0.1721	0.96853	0.041
Mof_C 	C 	0.7508	0.13446	0.93555	-0.108
Mof_H 	H 	0.7731	0.1071	0.9546	0.066
Mof_C 	C 	0.75309	0.13753	0.87842	0.056
Mof_H 	H 	0.7772	0.1126	0.8581	0.028
Mof_N 	N 	0.65083	0.77961	0.677	-0.068
Mof_O 	O 	0.70914	0.7764	0.67644	-0.265
Mof_C 	C 	0.6243	0.8167	0.7119	0.029
Mof_H 	H 	0.645	0.8412	0.736	0.044
Mof_C 	C 	0.56318	0.8174	0.7108	-0.089
Mof_H 	H 	0.5437	0.8405	0.7372	0.066
Mof_C 	C 	0.53147	0.7852	0.6721	0.041
Mof_C 	C 	0.56445	0.7492	0.63446	-0.108
Mof_H 	H 	0.5454	0.7269	0.6071	0.066
Mof_C 	C 	0.62158	0.74691	0.63753	0.056
Mof_H 	H 	0.6419	0.7228	0.6126	0.028
Mof_N 	N 	0.15083	0.27961	0.177	-0.068
Mof_O 	O 	0.20914	0.2764	0.17644	-0.265
Mof_C 	C 	0.1243	0.3167	0.2119	0.029
Mof_H 	H 	0.145	0.3412	0.236	0.044
Mof_C 	C 	0.06318	0.3174	0.2108	-0.089
Mof_H 	H 	0.0437	0.3405	0.2372	0.066
Mof_C 	C 	0.03147	0.2852	0.1721	0.041
Mof_C 	C 	0.06445	0.2492	0.13446	-0.108
Mof_H 	H 	0.0454	0.2269	0.1071	0.066
Mof_C 	C 	0.12158	0.24691	0.13753	0.056
Mof_H 	H 	0.1419	0.2228	0.1126	0.028
Mof_N 	N 	0.34917	0.77961	0.323	-0.068
Mof_O 	O 	0.29086	0.7764	0.32356	-0.265
Mof_C 	C 	0.3757	0.8167	0.2881	0.029
Mof_H 	H 	0.355	0.8412	0.264	0.044
Mof_C 	C 	0.43682	0.8174	0.2892	-0.089
Mof_H 	H 	0.4563	0.8405	0.2628	0.066
Mof_C 	C 	0.46853	0.7852	0.3279	0.041
Mof_C 	C 	0.43555	0.7492	0.36554	-0.108
Mof_H 	H 	0.4546	0.7269	0.3929	0.066
Mof_C 	C 	0.37842	0.74691	0.36247	0.056
Mof_H 	H 	0.3581	0.7228	0.3874	0.028
Mof_N 	N 	0.84917	0.27961	0.823	-0.068
Mof_O 	O 	0.79086	0.2764	0.82356	-0.265
Mof_C 	C 	0.8757	0.3167	0.7881	0.029
Mof_H 	H 	0.855	0.3412	0.764	0.044
Mof_C 	C 	0.93682	0.3174	0.7892	-0.089
Mof_H 	H 	0.9563	0.3405	0.7628	0.066
Mof_C 	C 	0.96853	0.2852	0.8279	0.041
Mof_C 	C 	0.93555	0.2492	0.86554	-0.108
Mof_H 	H 	0.9546	0.2269	0.8929	0.066
Mof_C 	C 	0.87842	0.24691	0.86247	0.056
Mof_H 	H 	0.8581	0.2228	0.8874	0.028
Mof_N 	N 	0.65083	0.22039	0.323	-0.068
Mof_O 	O 	0.70914	0.2236	0.32356	-0.265
Mof_C 	C 	0.6243	0.1833	0.2881	0.029
Mof_H 	H 	0.645	0.1588	0.264	0.044
Mof_C 	C 	0.56318	0.1826	0.2892	-0.089
Mof_H 	H 	0.5437	0.1595	0.2628	0.066
Mof_C 	C 	0.53147	0.2148	0.3279	0.041
Mof_C 	C 	0.56445	0.2508	0.36554	-0.108
Mof_H 	H 	0.5454	0.2731	0.3929	0.066
Mof_C 	C 	0.62158	0.25309	0.36247	0.056
Mof_H 	H 	0.6419	0.2772	0.3874	0.028
Mof_N 	N 	0.15083	0.72039	0.823	-0.068
Mof_O 	O 	0.20914	0.7236	0.82356	-0.265
Mof_C 	C 	0.1243	0.6833	0.7881	0.029
Mof_H 	H 	0.145	0.6588	0.764	0.044
Mof_C 	C 	0.06318	0.6826	0.7892	-0.089
Mof_H 	H 	0.0437	0.6595	0.7628	0.066
Mof_C 	C 	0.03147	0.7148	0.8279	0.041
Mof_C 	C 	0.06445	0.7508	0.86554	-0.108
Mof_H 	H 	0.0454	0.7731	0.8929	0.066
Mof_C 	C 	0.12158	0.75309	0.86247	0.056
Mof_H 	H 	0.1419	0.7772	0.8874	0.028
Mof_N 	N 	0.34917	0.22039	0.677	-0.068
Mof_O 	O 	0.29086	0.2236	0.67644	-0.265
Mof_C 	C 	0.3757	0.1833	0.7119	0.029
Mof_H 	H 	0.355	0.1588	0.736	0.044
Mof_C 	C 	0.43682	0.1826	0.7108	-0.089
Mof_H 	H 	0.4563	0.1595	0.7372	0.066
Mof_C 	C 	0.46853	0.2148	0.6721	0.041
Mof_C 	C 	0.43555	0.2508	0.63446	-0.108
Mof_H 	H 	0.4546	0.2731	0.6071	0.066
Mof_C 	C 	0.37842	0.25309	0.63753	0.056
Mof_H 	H 	0.3581	0.2772	0.6126	0.028
Mof_N 	N 	0.84917	0.72039	0.177	-0.068
Mof_O 	O 	0.79086	0.7236	0.17644	-0.265
Mof_C 	C 	0.8757	0.6833	0.2119	0.029
Mof_H 	H 	0.855	0.6588	0.236	0.044
Mof_C 	C 	0.93682	0.6826	0.2108	-0.089
Mof_H 	H 	0.9563	0.6595	0.2372	0.066
Mof_C 	C 	0.96853	0.7148	0.1721	0.041
Mof_C 	C 	0.93555	0.7508	0.13446	-0.108
Mof_H 	H 	0.9546	0.7731	0.1071	0.066
Mof_C 	C 	0.87842	0.75309	0.13753	0.056
Mof_H 	H 	0.8581	0.7772	0.1126	0.028
Mof_Co	Co	0.25	0.25	0.25	1.2
Mof_Co	Co	0.75	0.75	0.25	1.2
Mof_Co	Co	0.75	0.25	0.75	1.2
Mof_Co	Co	0.25	0.75	0.75	1.2
Mof_Co	Co	0.75	0.75	0.75	1.2
Mof_Co	Co	0.25	0.25	0.75	1.2
Mof_Co	Co	0.25	0.75	0.25	1.2
Mof_Co	Co	0.75	0.25	0.25	1.2
_end
