data_functionalizedCrystal
_audit_creation_method	'EQeq! by Chris Wilmer'
_symmetry_space_group_name_H-M	'P1'
_symmetry_Int_Tables_number	1
_symmetry_cell_setting	triclinic
loop_
_symmetry_equiv_pos_as_xyz
  x,y,z
_cell_length_a	10.9413
_cell_length_b	10.9413
_cell_length_c	12.052
_cell_angle_alpha	76.8932
_cell_angle_beta	76.8932
_cell_angle_gamma	86.9855
loop_
_atom_site_label
_atom_site_type_symbol
_atom_site_fract_x
_atom_site_fract_y
_atom_site_fract_z
_atom_site_charge
Mof_Mn	Mn	0.69282	0.7685	0.85761	0.65
Mof_Mn	Mn	0.2315	0.30718	0.64239	0.651
Mof_Mn	Mn	0.30718	0.2315	0.14239	0.651
Mof_Mn	Mn	0.7685	0.69282	0.35761	0.652
Mof_Nb	Nb	0.70506	0.29494	0.75	1.073
Mof_Nb	Nb	0.29494	0.70506	0.25	1.073
Mof_H 	H 	0.5078	0.722	0.5797	0.033
Mof_H 	H 	0.4222	0.6348	0.9229	0.043
Mof_H 	H 	0.278	0.4922	0.9203	0.033
Mof_H 	H 	0.3652	0.5778	0.5771	0.044
Mof_H 	H 	0.4922	0.278	0.4203	0.033
Mof_H 	H 	0.5778	0.3652	0.0771	0.043
Mof_H 	H 	0.722	0.5078	0.0797	0.033
Mof_H 	H 	0.6348	0.4222	0.4229	0.044
Mof_C 	C 	0.68725	0.08373	0.799	-0.12
Mof_C 	C 	0.77801	0.23325	0.9143	-0.133
Mof_C 	C 	0.73145	0.46303	0.59967	-0.119
Mof_C 	C 	0.7029	0.47188	0.81899	-0.117
Mof_C 	C 	0.46008	0.67666	0.6495	0.005
Mof_C 	C 	0.40908	0.62508	0.8518	-0.007
Mof_C 	C 	0.91627	0.31275	0.701	-0.121
Mof_C 	C 	0.76675	0.22199	0.5857	-0.133
Mof_C 	C 	0.53697	0.26855	0.90033	-0.119
Mof_C 	C 	0.52812	0.2971	0.68101	-0.116
Mof_C 	C 	0.32334	0.53992	0.8505	0.005
Mof_C 	C 	0.37492	0.59092	0.6482	-0.007
Mof_C 	C 	0.31275	0.91627	0.201	-0.12
Mof_C 	C 	0.22199	0.76675	0.0857	-0.133
Mof_C 	C 	0.26855	0.53697	0.40033	-0.119
Mof_C 	C 	0.2971	0.52812	0.18101	-0.117
Mof_C 	C 	0.53992	0.32334	0.3505	0.005
Mof_C 	C 	0.59092	0.37492	0.1482	-0.007
Mof_C 	C 	0.08373	0.68725	0.299	-0.121
Mof_C 	C 	0.23325	0.77801	0.4143	-0.133
Mof_C 	C 	0.46303	0.73145	0.09967	-0.119
Mof_C 	C 	0.47188	0.7029	0.31899	-0.116
Mof_C 	C 	0.67666	0.46008	0.1495	0.005
Mof_C 	C 	0.62508	0.40908	0.3518	-0.007
Mof_N 	N 	0.68282	0.97612	0.8239	-0.144
Mof_N 	N 	0.8151	0.2005	0.9971	-0.074
Mof_N 	N 	0.7436	0.54748	0.52104	-0.14
Mof_N 	N 	0.70136	0.56232	0.85248	-0.139
Mof_N 	N 	0.47507	0.69559	0.75173	-0.053
Mof_N 	N 	0.02388	0.31718	0.6761	-0.143
Mof_N 	N 	0.7995	0.1849	0.5029	-0.074
Mof_N 	N 	0.45252	0.2564	0.97896	-0.14
Mof_N 	N 	0.43768	0.29864	0.64752	-0.139
Mof_N 	N 	0.30441	0.52493	0.74827	-0.052
Mof_N 	N 	0.31718	0.02388	0.1761	-0.144
Mof_N 	N 	0.1849	0.7995	0.0029	-0.074
Mof_N 	N 	0.2564	0.45252	0.47896	-0.14
Mof_N 	N 	0.29864	0.43768	0.14752	-0.139
Mof_N 	N 	0.52493	0.30441	0.24827	-0.053
Mof_N 	N 	0.97612	0.68282	0.3239	-0.143
Mof_N 	N 	0.2005	0.8151	0.4971	-0.074
Mof_N 	N 	0.54748	0.7436	0.02104	-0.14
Mof_N 	N 	0.56232	0.70136	0.35248	-0.139
Mof_N 	N 	0.69559	0.47507	0.25173	-0.052
Mof_O 	O 	0.55247	0.78279	0.75174	-0.224
Mof_O 	O 	0.21721	0.44753	0.74826	-0.224
Mof_O 	O 	0.44753	0.21721	0.24826	-0.224
Mof_O 	O 	0.78279	0.55247	0.25174	-0.224
_end
