data_functionalizedCrystal
_audit_creation_method	'EQeq! by Chris Wilmer'
_symmetry_space_group_name_H-M	'P1'
_symmetry_Int_Tables_number	1
_symmetry_cell_setting	triclinic
loop_
_symmetry_equiv_pos_as_xyz
  x,y,z
_cell_length_a	9.8836
_cell_length_b	10.9817
_cell_length_c	12.8681
_cell_angle_alpha	90
_cell_angle_beta	90
_cell_angle_gamma	99.384
loop_
_atom_site_label
_atom_site_type_symbol
_atom_site_fract_x
_atom_site_fract_y
_atom_site_fract_z
_atom_site_charge
Mof_Mg	Mg	0.6279	0.7497	0.7651	1.475
Mof_Mg	Mg	0.125	0.7526	0.7643	1.474
Mof_Mg	Mg	0.3721	0.2503	0.2651	1.474
Mof_Mg	Mg	0.875	0.2474	0.2643	1.473
Mof_H 	H 	0.0995	0.0115	0.5388	0.064
Mof_H 	H 	0.0865	0.1386	0.3999	0.009
Mof_H 	H 	0.6934	0.9971	0.5821	0.064
Mof_H 	H 	0.6948	0.1236	0.4418	0.012
Mof_H 	H 	0.0504	0.4961	0.9337	0.066
Mof_H 	H 	0.0534	0.3635	0.0722	0.016
Mof_H 	H 	0.6536	0.4982	0.9926	0.056
Mof_H 	H 	0.6667	0.3652	0.1281	0.015
Mof_H 	H 	0.3839	0.3736	0.8757	0.045
Mof_H 	H 	0.3766	0.2466	0.0181	0.018
Mof_H 	H 	0.3331	0.6488	0.0648	0.04
Mof_H 	H 	0.3505	0.5244	0.2013	0.026
Mof_H 	H 	0.3929	0.8476	0.4611	0.046
Mof_H 	H 	0.3815	0.9805	0.3226	0.016
Mof_H 	H 	0.3982	0.1351	0.6506	0.046
Mof_H 	H 	0.3845	0.2579	0.5073	0.016
Mof_H 	H 	0.9005	0.9885	0.0388	0.064
Mof_H 	H 	0.9135	0.8614	0.8999	0.009
Mof_H 	H 	0.3066	0.0029	0.0821	0.063
Mof_H 	H 	0.3052	0.8764	0.9418	0.012
Mof_H 	H 	0.9496	0.5039	0.4337	0.067
Mof_H 	H 	0.9466	0.6365	0.5722	0.014
Mof_H 	H 	0.3464	0.5018	0.4926	0.059
Mof_H 	H 	0.3333	0.6348	0.6281	0.014
Mof_H 	H 	0.6161	0.6264	0.3757	0.044
Mof_H 	H 	0.6234	0.7534	0.5181	0.018
Mof_H 	H 	0.6669	0.3512	0.5648	0.04
Mof_H 	H 	0.6495	0.4756	0.7013	0.026
Mof_H 	H 	0.6071	0.1524	0.9611	0.046
Mof_H 	H 	0.6185	0.0195	0.8226	0.016
Mof_H 	H 	0.6018	0.8649	0.1506	0.046
Mof_H 	H 	0.6155	0.7421	0.0073	0.018
Mof_C 	C 	0.9035	0.899	0.6661	0.43
Mof_C 	C 	0.8957	0.9841	0.5764	-0.08
Mof_C 	C 	0.0153	0.0318	0.5196	-0.046
Mof_C 	C 	0.0069	0.1079	0.4362	0.042
Mof_C 	C 	0.7745	0.0226	0.5459	-0.049
Mof_C 	C 	0.7767	0.0988	0.4613	0.046
Mof_C 	C 	0.8471	0.6029	0.859	0.464
Mof_C 	C 	0.8491	0.5121	0.9479	-0.087
Mof_C 	C 	0.9714	0.4714	0.9726	-0.045
Mof_C 	C 	0.9722	0.3925	0.0574	0.041
Mof_C 	C 	0.7365	0.4724	0.0075	-0.03
Mof_C 	C 	0.7458	0.3935	0.0903	0.027
Mof_C 	C 	0.3482	0.607	0.8593	0.474
Mof_C 	C 	0.3505	0.5221	0.9523	-0.103
Mof_C 	C 	0.3704	0.4047	0.9414	-0.027
Mof_C 	C 	0.3708	0.3294	0.0286	0.031
Mof_C 	C 	0.3436	0.5672	0.0537	-0.02
Mof_C 	C 	0.3522	0.4919	0.1346	0.01
Mof_C 	C 	0.4036	0.8935	0.6655	0.418
Mof_C 	C 	0.3923	0.9759	0.5743	-0.088
Mof_C 	C 	0.3904	0.9306	0.4733	-0.038
Mof_C 	C 	0.3846	0.012	0.3898	0.034
Mof_C 	C 	0.3932	0.0999	0.5847	-0.034
Mof_C 	C 	0.3867	0.1743	0.4977	0.028
Mof_C 	C 	0.0965	0.101	0.1661	0.43
Mof_C 	C 	0.1043	0.0159	0.0764	-0.079
Mof_C 	C 	0.9847	0.9682	0.0196	-0.046
Mof_C 	C 	0.9931	0.8921	0.9362	0.041
Mof_C 	C 	0.2255	0.9774	0.0459	-0.046
Mof_C 	C 	0.2233	0.9012	0.9613	0.043
Mof_C 	C 	0.1529	0.3971	0.359	0.463
Mof_C 	C 	0.1509	0.4879	0.4479	-0.083
Mof_C 	C 	0.0286	0.5286	0.4726	-0.047
Mof_C 	C 	0.0278	0.6075	0.5574	0.044
Mof_C 	C 	0.2635	0.5276	0.5075	-0.036
Mof_C 	C 	0.2542	0.6065	0.5903	0.029
Mof_C 	C 	0.6518	0.393	0.3593	0.474
Mof_C 	C 	0.6495	0.4779	0.4523	-0.102
Mof_C 	C 	0.6296	0.5953	0.4414	-0.025
Mof_C 	C 	0.6292	0.6706	0.5286	0.029
Mof_C 	C 	0.6564	0.4328	0.5537	-0.023
Mof_C 	C 	0.6478	0.5081	0.6346	0.011
Mof_C 	C 	0.5964	0.1065	0.1655	0.418
Mof_C 	C 	0.6077	0.0241	0.0743	-0.087
Mof_C 	C 	0.6096	0.0694	0.9733	-0.039
Mof_C 	C 	0.6154	0.988	0.8898	0.034
Mof_C 	C 	0.6068	0.9001	0.0847	-0.032
Mof_C 	C 	0.6133	0.8257	0.9977	0.024
Mof_N 	N 	0.8881	0.1398	0.4051	-0.231
Mof_N 	N 	0.8636	0.3555	0.1191	-0.222
Mof_N 	N 	0.3636	0.3678	0.1242	-0.216
Mof_N 	N 	0.3835	0.1305	0.4024	-0.226
Mof_N 	N 	0.1119	0.8602	0.9051	-0.231
Mof_N 	N 	0.1364	0.6445	0.6191	-0.223
Mof_N 	N 	0.6364	0.6322	0.6242	-0.216
Mof_N 	N 	0.6165	0.8695	0.9024	-0.225
Mof_O 	O 	0.796	0.8663	0.7195	-0.505
Mof_O 	O 	0.0176	0.8647	0.6832	-0.491
Mof_O 	O 	0.7354	0.6424	0.8509	-0.509
Mof_O 	O 	0.9497	0.6287	0.8064	-0.509
Mof_O 	O 	0.4529	0.63	0.8073	-0.515
Mof_O 	O 	0.2362	0.641	0.8458	-0.509
Mof_O 	O 	0.515	0.854	0.6754	-0.484
Mof_O 	O 	0.3026	0.8712	0.7275	-0.484
Mof_O 	O 	0.204	0.1337	0.2195	-0.505
Mof_O 	O 	0.9824	0.1353	0.1832	-0.491
Mof_O 	O 	0.2646	0.3576	0.3509	-0.508
Mof_O 	O 	0.0503	0.3713	0.3064	-0.509
Mof_O 	O 	0.5471	0.37	0.3073	-0.515
Mof_O 	O 	0.7638	0.359	0.3458	-0.508
Mof_O 	O 	0.485	0.146	0.1754	-0.484
Mof_O 	O 	0.6974	0.1288	0.2275	-0.484
_end
