data_functionalizedCrystal
_audit_creation_method	'EQeq! by Chris Wilmer'
_symmetry_space_group_name_H-M	'P1'
_symmetry_Int_Tables_number	1
_symmetry_cell_setting	triclinic
loop_
_symmetry_equiv_pos_as_xyz
  x,y,z
_cell_length_a	13.388
_cell_length_b	13.388
_cell_length_c	14.306
_cell_angle_alpha	90
_cell_angle_beta	90
_cell_angle_gamma	120
loop_
_atom_site_label
_atom_site_type_symbol
_atom_site_fract_x
_atom_site_fract_y
_atom_site_fract_z
_atom_site_charge
Mof_Ho	Ho	0.33333	0.66666	0.66691	2.121
Mof_Ho	Ho	0.66667	0.33334	0.83309	2.121
Mof_Ho	Ho	0.66667	0.33334	0.33309	2.116
Mof_Ho	Ho	0.33333	0.66666	0.16691	2.117
Mof_Cu	Cu	0.5	1.13676e-32	0.5	0.898
Mof_Cu	Cu	0.5	0.5	0.5	0.927
Mof_Cu	Cu	-1.42357e-17	0.5	0.5	0.897
Mof_Cu	Cu	0.5	0	-0	0.871
Mof_Cu	Cu	-0	0.5	-0	0.869
Mof_Cu	Cu	0.5	0.5	-0	0.9
Mof_H 	H 	0.6725	0.0223	0.4205	0.039
Mof_H 	H 	0.7039	0.9589	0.5521	0.164
Mof_H 	H 	0.681	0.8613	0.4801	0.147
Mof_H 	H 	0.5391	0.8059	0.371	0.166
Mof_H 	H 	0.6003	0.9134	0.3049	0.173
Mof_H 	H 	0.3498	0.3275	0.4205	0.091
Mof_H 	H 	0.255	0.2961	0.5521	0.115
Mof_H 	H 	0.1803	0.319	0.4801	0.109
Mof_H 	H 	0.2668	0.4609	0.371	0.156
Mof_H 	H 	0.3131	0.3997	0.3049	0.142
Mof_H 	H 	0.9777	0.6502	0.4205	0.16
Mof_H 	H 	0.0411	0.745	0.5521	0.104
Mof_H 	H 	0.1387	0.8197	0.4801	0.127
Mof_H 	H 	0.1941	0.7332	0.371	0.161
Mof_H 	H 	0.0866	0.6869	0.3049	0.131
Mof_H 	H 	0.6502	0.9777	0.0795	0.156
Mof_H 	H 	0.745	0.0411	0.9479	0.058
Mof_H 	H 	0.8197	0.1387	0.0199	0.025
Mof_H 	H 	0.7332	0.1941	0.129	0.148
Mof_H 	H 	0.6869	0.0866	0.1951	0.128
Mof_H 	H 	0.0223	0.6725	0.0795	0.034
Mof_H 	H 	0.9589	0.7039	0.9479	0.117
Mof_H 	H 	0.8613	0.681	0.0199	0.048
Mof_H 	H 	0.8059	0.5391	0.129	0.153
Mof_H 	H 	0.9134	0.6003	0.1951	0.171
Mof_H 	H 	0.3275	0.3498	0.0795	0.09
Mof_H 	H 	0.2961	0.255	0.9479	0.064
Mof_H 	H 	0.319	0.1803	0.0199	0.004
Mof_H 	H 	0.4609	0.2668	0.129	0.143
Mof_H 	H 	0.3997	0.3131	0.1951	0.139
Mof_H 	H 	0.3275	0.9777	0.5795	0.152
Mof_H 	H 	0.2961	0.0411	0.4479	0.091
Mof_H 	H 	0.319	0.1387	0.5199	0.109
Mof_H 	H 	0.4609	0.1941	0.629	0.157
Mof_H 	H 	0.3997	0.0866	0.6951	0.126
Mof_H 	H 	0.6502	0.6725	0.5795	0.099
Mof_H 	H 	0.745	0.7039	0.4479	0.141
Mof_H 	H 	0.8197	0.681	0.5199	0.148
Mof_H 	H 	0.7332	0.5391	0.629	0.167
Mof_H 	H 	0.6869	0.6003	0.6951	0.157
Mof_H 	H 	0.0223	0.3498	0.5795	0.032
Mof_H 	H 	0.9589	0.255	0.4479	0.152
Mof_H 	H 	0.8613	0.1803	0.5199	0.13
Mof_H 	H 	0.8059	0.2668	0.629	0.162
Mof_H 	H 	0.9134	0.3131	0.6951	0.168
Mof_H 	H 	0.3498	0.0223	0.9205	0.04
Mof_H 	H 	0.255	0.9589	0.0521	0.197
Mof_H 	H 	0.1803	0.8613	0.9801	0.228
Mof_H 	H 	0.2668	0.8059	0.871	0.173
Mof_H 	H 	0.3131	0.9134	0.8049	0.169
Mof_H 	H 	0.9777	0.3275	0.9205	0.156
Mof_H 	H 	0.0411	0.2961	0.0521	0.14
Mof_H 	H 	0.1387	0.319	0.9801	0.214
Mof_H 	H 	0.1941	0.4609	0.871	0.169
Mof_H 	H 	0.0866	0.3997	0.8049	0.128
Mof_H 	H 	0.6725	0.6502	0.9205	0.101
Mof_H 	H 	0.7039	0.745	0.0521	0.189
Mof_H 	H 	0.681	0.8197	0.9801	0.247
Mof_H 	H 	0.5391	0.7332	0.871	0.179
Mof_H 	H 	0.6003	0.6869	0.8049	0.16
Mof_C 	C 	0.5457	0.8148	0.5696	0.416
Mof_C 	C 	0.6462	0.9006	0.5115	-0.334
Mof_C 	C 	0.5509	0.8825	0.3593	-0.394
Mof_C 	C 	0.4373	0.8733	0.339	0.494
Mof_C 	C 	0.2691	0.4543	0.5696	0.397
Mof_C 	C 	0.2544	0.3538	0.5115	-0.301
Mof_C 	C 	0.3316	0.4491	0.3593	-0.381
Mof_C 	C 	0.436	0.5627	0.339	0.485
Mof_C 	C 	0.1852	0.7309	0.5696	0.394
Mof_C 	C 	0.0994	0.7456	0.5115	-0.301
Mof_C 	C 	0.1175	0.6684	0.3593	-0.377
Mof_C 	C 	0.1267	0.564	0.339	0.479
Mof_C 	C 	0.7309	0.1852	0.9304	0.344
Mof_C 	C 	0.7456	0.0994	0.9885	-0.096
Mof_C 	C 	0.6684	0.1175	0.1407	-0.367
Mof_C 	C 	0.564	0.1267	0.161	0.472
Mof_C 	C 	0.8148	0.5457	0.9304	0.367
Mof_C 	C 	0.9006	0.6462	0.9885	-0.136
Mof_C 	C 	0.8825	0.5509	0.1407	-0.384
Mof_C 	C 	0.8733	0.4373	0.161	0.487
Mof_C 	C 	0.4543	0.2691	0.9304	0.346
Mof_C 	C 	0.3538	0.2544	0.9885	-0.089
Mof_C 	C 	0.4491	0.3316	0.1407	-0.371
Mof_C 	C 	0.5627	0.436	0.161	0.477
Mof_C 	C 	0.4543	0.1852	0.4304	0.389
Mof_C 	C 	0.3538	0.0994	0.4885	-0.29
Mof_C 	C 	0.4491	0.1175	0.6407	-0.374
Mof_C 	C 	0.5627	0.1267	0.661	0.478
Mof_C 	C 	0.7309	0.5457	0.4304	0.407
Mof_C 	C 	0.7456	0.6462	0.4885	-0.325
Mof_C 	C 	0.6684	0.5509	0.6407	-0.391
Mof_C 	C 	0.564	0.4373	0.661	0.489
Mof_C 	C 	0.8148	0.2691	0.4304	0.411
Mof_C 	C 	0.9006	0.2544	0.4885	-0.323
Mof_C 	C 	0.8825	0.3316	0.6407	-0.391
Mof_C 	C 	0.8733	0.436	0.661	0.493
Mof_C 	C 	0.2691	0.8148	0.0696	0.459
Mof_C 	C 	0.2544	0.9006	0.0115	-0.518
Mof_C 	C 	0.3316	0.8825	0.8593	-0.396
Mof_C 	C 	0.436	0.8733	0.839	0.499
Mof_C 	C 	0.1852	0.4543	0.0696	0.44
Mof_C 	C 	0.0994	0.3538	0.0115	-0.497
Mof_C 	C 	0.1175	0.4491	0.8593	-0.38
Mof_C 	C 	0.1267	0.5627	0.839	0.485
Mof_C 	C 	0.5457	0.7309	0.0696	0.457
Mof_C 	C 	0.6462	0.7456	0.0115	-0.523
Mof_C 	C 	0.5509	0.6684	0.8593	-0.397
Mof_C 	C 	0.4373	0.564	0.839	0.495
Mof_N 	N 	0.6092	0.9569	0.4408	-0.093
Mof_N 	N 	0.3477	0.3908	0.4408	-0.156
Mof_N 	N 	0.0431	0.6523	0.4408	-0.209
Mof_N 	N 	0.6523	0.0431	0.0592	-0.255
Mof_N 	N 	0.9569	0.6092	0.0592	-0.137
Mof_N 	N 	0.3908	0.3477	0.0592	-0.206
Mof_N 	N 	0.3908	0.0431	0.5592	-0.208
Mof_N 	N 	0.6523	0.6092	0.5592	-0.151
Mof_N 	N 	0.9569	0.3477	0.5592	-0.092
Mof_N 	N 	0.3477	0.9569	0.9408	-0.045
Mof_N 	N 	0.0431	0.3908	0.9408	-0.154
Mof_N 	N 	0.6092	0.6523	0.9408	-0.098
Mof_O 	O 	0.4497	0.81	0.559	-0.515
Mof_O 	O 	0.559	0.753	0.6276	-0.393
Mof_O 	O 	0.4021	0.9265	0.3908	-0.396
Mof_O 	O 	0.3797	0.8141	0.2701	-0.517
Mof_O 	O 	0.3603	0.5503	0.559	-0.522
Mof_O 	O 	0.194	0.441	0.6276	-0.404
Mof_O 	O 	0.5244	0.5979	0.3908	-0.424
Mof_O 	O 	0.4344	0.6203	0.2701	-0.521
Mof_O 	O 	0.19	0.6397	0.559	-0.525
Mof_O 	O 	0.247	0.806	0.6276	-0.391
Mof_O 	O 	0.0735	0.4756	0.3908	-0.45
Mof_O 	O 	0.1859	0.5656	0.2701	-0.53
Mof_O 	O 	0.6397	0.19	0.941	-0.49
Mof_O 	O 	0.806	0.247	0.8724	-0.367
Mof_O 	O 	0.4756	0.0735	0.1092	-0.458
Mof_O 	O 	0.5656	0.1859	0.2299	-0.53
Mof_O 	O 	0.81	0.4497	0.941	-0.482
Mof_O 	O 	0.753	0.559	0.8724	-0.371
Mof_O 	O 	0.9265	0.4021	0.1092	-0.402
Mof_O 	O 	0.8141	0.3797	0.2299	-0.517
Mof_O 	O 	0.5503	0.3603	0.941	-0.487
Mof_O 	O 	0.441	0.194	0.8724	-0.38
Mof_O 	O 	0.5979	0.5244	0.1092	-0.433
Mof_O 	O 	0.6203	0.4344	0.2299	-0.522
Mof_O 	O 	0.5503	0.19	0.441	-0.524
Mof_O 	O 	0.441	0.247	0.3724	-0.4
Mof_O 	O 	0.5979	0.0735	0.6092	-0.446
Mof_O 	O 	0.6203	0.1859	0.7299	-0.529
Mof_O 	O 	0.6397	0.4497	0.441	-0.523
Mof_O 	O 	0.806	0.559	0.3724	-0.388
Mof_O 	O 	0.4756	0.4021	0.6092	-0.429
Mof_O 	O 	0.5656	0.3797	0.7299	-0.526
Mof_O 	O 	0.81	0.3603	0.441	-0.513
Mof_O 	O 	0.753	0.194	0.3724	-0.401
Mof_O 	O 	0.9265	0.5244	0.6092	-0.392
Mof_O 	O 	0.8141	0.4344	0.7299	-0.517
Mof_O 	O 	0.3603	0.81	0.059	-0.542
Mof_O 	O 	0.194	0.753	0.1276	-0.423
Mof_O 	O 	0.5244	0.9265	0.8908	-0.377
Mof_O 	O 	0.4344	0.8141	0.7701	-0.516
Mof_O 	O 	0.19	0.5503	0.059	-0.553
Mof_O 	O 	0.247	0.441	0.1276	-0.422
Mof_O 	O 	0.0735	0.5979	0.8908	-0.429
Mof_O 	O 	0.1859	0.6203	0.7701	-0.529
Mof_O 	O 	0.4497	0.6397	0.059	-0.551
Mof_O 	O 	0.559	0.806	0.1276	-0.409
Mof_O 	O 	0.4021	0.4756	0.8908	-0.41
Mof_O 	O 	0.3797	0.5656	0.7701	-0.525
_end
