data_functionalizedCrystal
_audit_creation_method	'EQeq! by Chris Wilmer'
_symmetry_space_group_name_H-M	'P1'
_symmetry_Int_Tables_number	1
_symmetry_cell_setting	triclinic
loop_
_symmetry_equiv_pos_as_xyz
  x,y,z
_cell_length_a	12.367
_cell_length_b	12.367
_cell_length_c	5.2934
_cell_angle_alpha	90
_cell_angle_beta	90
_cell_angle_gamma	90
loop_
_atom_site_label
_atom_site_type_symbol
_atom_site_fract_x
_atom_site_fract_y
_atom_site_fract_z
_atom_site_charge
Mof_Co	Co	0.6788	0.0152	0.5373	1.161
Mof_S 	S 	0.56086	0.69305	0.4732	0.026
Mof_N 	N 	0.617	0.8736	0.7218	-0.261
Mof_C 	C 	0.6544	0.6815	0.7282	-0.123
Mof_H 	H 	0.6177	0.6604	0.8824	0.08
Mof_H 	H 	0.7097	0.6283	0.6901	0.078
Mof_C 	C 	0.7037	0.7935	0.7549	-0.101
Mof_H 	H 	0.7339	0.8009	0.9251	0.055
Mof_C 	C 	0.7933	0.8134	0.5609	0.316
Mof_C 	C 	0.526	0.8311	0.5689	-0.145
Mof_H 	H 	0.4606	0.8291	0.6734	0.092
Mof_C 	C 	0.5034	0.8956	0.3344	0.365
Mof_O 	O 	0.8678	0.7429	0.5362	-0.398
Mof_O 	O 	0.7929	0.8998	0.434	-0.411
Mof_O 	O 	0.5703	0.9678	0.2688	-0.445
Mof_O 	O 	0.4195	0.8723	0.2166	-0.44
Mof_H 	H 	0.5998	0.8773	0.87	0.156
Mof_Co	Co	0.3212	0.9848	0.0373	1.148
Mof_S 	S 	0.43914	0.30695	0.9732	0.088
Mof_N 	N 	0.383	0.1264	0.2218	-0.261
Mof_C 	C 	0.3456	0.3185	0.2282	-0.166
Mof_H 	H 	0.3823	0.3396	0.3824	0.083
Mof_H 	H 	0.2903	0.3717	0.1901	0.083
Mof_C 	C 	0.2963	0.2065	0.2549	-0.082
Mof_H 	H 	0.2661	0.1991	0.4251	0.044
Mof_C 	C 	0.2067	0.1866	0.0609	0.272
Mof_C 	C 	0.474	0.1689	0.0689	-0.2
Mof_H 	H 	0.5394	0.1709	0.1734	0.097
Mof_C 	C 	0.4966	0.1044	0.8344	0.399
Mof_O 	O 	0.1322	0.2571	0.0362	-0.399
Mof_O 	O 	0.2071	0.1002	0.934	-0.372
Mof_O 	O 	0.4297	0.0322	0.7688	-0.439
Mof_O 	O 	0.5805	0.1277	0.7166	-0.436
Mof_H 	H 	0.4002	0.1227	0.37	0.146
Mof_Co	Co	0.9848	0.6788	0.7873	1.164
Mof_S 	S 	0.30695	0.56086	0.7232	0.015
Mof_N 	N 	0.1264	0.617	0.9718	-0.207
Mof_C 	C 	0.3185	0.6544	0.9782	0.019
Mof_H 	H 	0.3396	0.6177	0.1324	0.011
Mof_H 	H 	0.3717	0.7097	0.9401	0.043
Mof_C 	C 	0.2065	0.7037	0.0049	-0.226
Mof_H 	H 	0.1991	0.7339	0.1751	0.08
Mof_C 	C 	0.1866	0.7933	0.8109	0.369
Mof_C 	C 	0.1689	0.526	0.8189	-0.147
Mof_H 	H 	0.1709	0.4606	0.9234	0.101
Mof_C 	C 	0.1044	0.5034	0.5844	0.369
Mof_O 	O 	0.2571	0.8678	0.7862	-0.4
Mof_O 	O 	0.1002	0.7929	0.684	-0.42
Mof_O 	O 	0.0322	0.5703	0.5188	-0.439
Mof_O 	O 	0.1277	0.4195	0.4666	-0.431
Mof_H 	H 	0.1227	0.5998	0.12	0.112
Mof_Co	Co	0.0152	0.3212	0.2873	1.16
Mof_S 	S 	0.69305	0.43914	0.2232	0.009
Mof_N 	N 	0.8736	0.383	0.4718	-0.262
Mof_C 	C 	0.6815	0.3456	0.4782	-0.115
Mof_H 	H 	0.6604	0.3823	0.6324	0.073
Mof_H 	H 	0.6283	0.2903	0.4401	0.072
Mof_C 	C 	0.7935	0.2963	0.5049	-0.104
Mof_H 	H 	0.8009	0.2661	0.6751	0.055
Mof_C 	C 	0.8134	0.2067	0.3109	0.317
Mof_C 	C 	0.8311	0.474	0.3189	-0.131
Mof_H 	H 	0.8291	0.5394	0.4234	0.081
Mof_C 	C 	0.8956	0.4966	0.0844	0.33
Mof_O 	O 	0.7429	0.1322	0.2862	-0.402
Mof_O 	O 	0.8998	0.2071	0.184	-0.415
Mof_O 	O 	0.9678	0.4297	0.0188	-0.441
Mof_O 	O 	0.8723	0.5805	0.9666	-0.403
Mof_H 	H 	0.8773	0.4002	0.62	0.153
_end
