data_functionalizedCrystal
_audit_creation_method	'EQeq! by Chris Wilmer'
_symmetry_space_group_name_H-M	'P1'
_symmetry_Int_Tables_number	1
_symmetry_cell_setting	triclinic
loop_
_symmetry_equiv_pos_as_xyz
  x,y,z
_cell_length_a	21.234
_cell_length_b	12.98
_cell_length_c	13.002
_cell_angle_alpha	90
_cell_angle_beta	113.79
_cell_angle_gamma	90
loop_
_atom_site_label
_atom_site_type_symbol
_atom_site_fract_x
_atom_site_fract_y
_atom_site_fract_z
_atom_site_charge
Mof_C 	C 	0.2415	0.0476	0.1097	0.091
Mof_H 	H 	0.2002	0.0637	0.1149	0
Mof_C 	C 	0.3359	0.969	0.1265	0.091
Mof_H 	H 	0.3711	0.9206	0.1464	0.006
Mof_C 	C 	0.412	0.2701	0.1826	0.092
Mof_H 	H 	0.4064	0.2243	0.2332	0.015
Mof_C 	C 	0.4555	0.3839	0.1088	0.09
Mof_H 	H 	0.4854	0.4308	0.0982	0.002
Mof_C 	C 	0.2238	0.7977	0.1657	0.095
Mof_H 	H 	0.2035	0.7812	0.0897	-0.001
Mof_C 	C 	0.2829	0.8772	0.3221	0.094
Mof_H 	H 	0.3104	0.9247	0.3746	0.015
Mof_N 	N 	0.2796	0.9614	0.1499	-0.107
Mof_N 	N 	0.2733	0.104	0.0623	-0.196
Mof_N 	N 	0.3337	0.0538	0.0723	-0.115
Mof_N 	N 	0.3658	0.2906	0.0819	-0.166
Mof_N 	N 	0.3937	0.3639	0.0369	-0.119
Mof_N 	N 	0.4696	0.3262	0.2016	-0.107
Mof_N 	N 	0.2575	0.7936	0.3444	-0.171
Mof_N 	N 	0.2193	0.7432	0.2438	-0.104
Mof_N 	N 	0.2624	0.8835	0.2086	-0.108
Mof_C 	C 	0.7415	0.5476	0.1097	0.094
Mof_H 	H 	0.7002	0.5637	0.1149	0.001
Mof_C 	C 	0.8359	0.469	0.1265	0.089
Mof_H 	H 	0.8711	0.4206	0.1464	0.007
Mof_C 	C 	0.912	0.7701	0.1826	0.093
Mof_H 	H 	0.9064	0.7243	0.2332	0.015
Mof_C 	C 	0.9555	0.8839	0.1088	0.09
Mof_H 	H 	0.9854	0.9308	0.0982	0.002
Mof_C 	C 	0.7238	0.2977	0.1657	0.095
Mof_H 	H 	0.7035	0.2812	0.0897	-0.001
Mof_C 	C 	0.7829	0.3772	0.3221	0.094
Mof_H 	H 	0.8104	0.4247	0.3746	0.015
Mof_N 	N 	0.7796	0.4614	0.1499	-0.108
Mof_N 	N 	0.7733	0.604	0.0623	-0.197
Mof_N 	N 	0.8337	0.5538	0.0723	-0.114
Mof_N 	N 	0.8658	0.7906	0.0819	-0.166
Mof_N 	N 	0.8937	0.8639	0.0369	-0.119
Mof_N 	N 	0.9696	0.8262	0.2016	-0.108
Mof_N 	N 	0.7575	0.2936	0.3444	-0.171
Mof_N 	N 	0.7193	0.2432	0.2438	-0.105
Mof_N 	N 	0.7624	0.3835	0.2086	-0.108
Mof_C 	C 	0.7585	0.0476	0.3903	0.098
Mof_H 	H 	0.7998	0.0637	0.3851	0.012
Mof_C 	C 	0.6641	0.969	0.3735	0.098
Mof_H 	H 	0.6289	0.9206	0.3536	0.013
Mof_C 	C 	0.588	0.2701	0.3174	0.097
Mof_H 	H 	0.5936	0.2243	0.2668	0.01
Mof_C 	C 	0.5445	0.3839	0.3912	0.095
Mof_H 	H 	0.5146	0.4308	0.4018	0.016
Mof_C 	C 	0.7762	0.7977	0.3343	0.096
Mof_H 	H 	0.7965	0.7812	0.4103	0.018
Mof_C 	C 	0.7171	0.8772	0.1779	0.091
Mof_H 	H 	0.6896	0.9247	0.1254	-0.003
Mof_N 	N 	0.7204	0.9614	0.3501	-0.106
Mof_N 	N 	0.7267	0.104	0.4377	-0.184
Mof_N 	N 	0.6663	0.0538	0.4277	-0.102
Mof_N 	N 	0.6342	0.2906	0.4181	-0.155
Mof_N 	N 	0.6063	0.3639	0.4631	-0.097
Mof_N 	N 	0.5304	0.3262	0.2984	-0.107
Mof_N 	N 	0.7425	0.7936	0.1556	-0.18
Mof_N 	N 	0.7807	0.7432	0.2562	-0.1
Mof_N 	N 	0.7376	0.8835	0.2914	-0.106
Mof_C 	C 	0.2585	0.5476	0.3903	0.101
Mof_H 	H 	0.2998	0.5637	0.3851	0.012
Mof_C 	C 	0.1641	0.469	0.3735	0.095
Mof_H 	H 	0.1289	0.4206	0.3536	0.013
Mof_C 	C 	0.088	0.7701	0.3174	0.097
Mof_H 	H 	0.0936	0.7243	0.2668	0.011
Mof_C 	C 	0.0445	0.8839	0.3912	0.095
Mof_H 	H 	0.0146	0.9308	0.4018	0.017
Mof_C 	C 	0.2762	0.2977	0.3343	0.096
Mof_H 	H 	0.2965	0.2812	0.4103	0.018
Mof_C 	C 	0.2171	0.3772	0.1779	0.091
Mof_H 	H 	0.1896	0.4247	0.1254	-0.003
Mof_N 	N 	0.2204	0.4614	0.3501	-0.107
Mof_N 	N 	0.2267	0.604	0.4377	-0.184
Mof_N 	N 	0.1663	0.5538	0.4277	-0.1
Mof_N 	N 	0.1342	0.7906	0.4181	-0.155
Mof_N 	N 	0.1063	0.8639	0.4631	-0.097
Mof_N 	N 	0.0304	0.8262	0.2984	-0.105
Mof_N 	N 	0.2425	0.2936	0.1556	-0.18
Mof_N 	N 	0.2807	0.2432	0.2562	-0.1
Mof_N 	N 	0.2376	0.3835	0.2914	-0.106
Mof_C 	C 	0.7585	0.9524	0.8903	0.111
Mof_H 	H 	0.7998	0.9363	0.8851	0.028
Mof_C 	C 	0.6641	0.031	0.8735	0.101
Mof_H 	H 	0.6289	0.0794	0.8536	0.027
Mof_C 	C 	0.588	0.7299	0.8174	0.102
Mof_H 	H 	0.5936	0.7757	0.7668	0.018
Mof_C 	C 	0.5445	0.6161	0.8912	0.102
Mof_H 	H 	0.5146	0.5692	0.9018	0.032
Mof_C 	C 	0.7762	0.2023	0.8343	0.102
Mof_H 	H 	0.7965	0.2188	0.9103	0.034
Mof_C 	C 	0.7171	0.1228	0.6779	0.098
Mof_H 	H 	0.6896	0.0753	0.6254	0.014
Mof_N 	N 	0.7204	0.0386	0.8501	-0.103
Mof_N 	N 	0.7267	0.896	0.9377	-0.164
Mof_N 	N 	0.6663	0.9462	0.9277	-0.083
Mof_N 	N 	0.6342	0.7094	0.9181	-0.138
Mof_N 	N 	0.6063	0.6361	0.9631	-0.075
Mof_N 	N 	0.5304	0.6738	0.7984	-0.103
Mof_N 	N 	0.7425	0.2064	0.6556	-0.17
Mof_N 	N 	0.7807	0.2568	0.7562	-0.095
Mof_N 	N 	0.7376	0.1165	0.7914	-0.102
Mof_C 	C 	0.2585	0.4524	0.8903	0.109
Mof_H 	H 	0.2998	0.4363	0.8851	0.028
Mof_C 	C 	0.1641	0.531	0.8735	0.105
Mof_H 	H 	0.1289	0.5794	0.8536	0.027
Mof_C 	C 	0.088	0.2299	0.8174	0.102
Mof_H 	H 	0.0936	0.2757	0.7668	0.018
Mof_C 	C 	0.0445	0.1161	0.8912	0.102
Mof_H 	H 	0.0146	0.0692	0.9018	0.032
Mof_C 	C 	0.2762	0.7023	0.8343	0.102
Mof_H 	H 	0.2965	0.7188	0.9103	0.035
Mof_C 	C 	0.2171	0.6228	0.6779	0.099
Mof_H 	H 	0.1896	0.5753	0.6254	0.015
Mof_N 	N 	0.2204	0.5386	0.8501	-0.102
Mof_N 	N 	0.2267	0.396	0.9377	-0.164
Mof_N 	N 	0.1663	0.4462	0.9277	-0.085
Mof_N 	N 	0.1342	0.2094	0.9181	-0.138
Mof_N 	N 	0.1063	0.1361	0.9631	-0.075
Mof_N 	N 	0.0304	0.1738	0.7984	-0.102
Mof_N 	N 	0.2425	0.7064	0.6556	-0.17
Mof_N 	N 	0.2807	0.7568	0.7562	-0.094
Mof_N 	N 	0.2376	0.6165	0.7914	-0.101
Mof_C 	C 	0.2415	0.9524	0.6097	0.105
Mof_H 	H 	0.2002	0.9363	0.6149	0.015
Mof_C 	C 	0.3359	0.031	0.6265	0.096
Mof_H 	H 	0.3711	0.0794	0.6464	0.022
Mof_C 	C 	0.412	0.7299	0.6826	0.099
Mof_H 	H 	0.4064	0.7757	0.7332	0.021
Mof_C 	C 	0.4555	0.6161	0.6088	0.097
Mof_H 	H 	0.4854	0.5692	0.5982	0.018
Mof_C 	C 	0.2238	0.2023	0.6657	0.101
Mof_H 	H 	0.2035	0.2188	0.5897	0.015
Mof_C 	C 	0.2829	0.1228	0.8221	0.101
Mof_H 	H 	0.3104	0.0753	0.8746	0.034
Mof_N 	N 	0.2796	0.0386	0.6499	-0.105
Mof_N 	N 	0.2733	0.896	0.5623	-0.184
Mof_N 	N 	0.3337	0.9462	0.5723	-0.098
Mof_N 	N 	0.3658	0.7094	0.5819	-0.154
Mof_N 	N 	0.3937	0.6361	0.5369	-0.098
Mof_N 	N 	0.4696	0.6738	0.7016	-0.103
Mof_N 	N 	0.2575	0.2064	0.8444	-0.154
Mof_N 	N 	0.2193	0.2568	0.7438	-0.097
Mof_N 	N 	0.2624	0.1165	0.7086	-0.103
Mof_C 	C 	0.7415	0.4524	0.6097	0.103
Mof_H 	H 	0.7002	0.4363	0.6149	0.016
Mof_C 	C 	0.8359	0.531	0.6265	0.098
Mof_H 	H 	0.8711	0.5794	0.6464	0.021
Mof_C 	C 	0.912	0.2299	0.6826	0.098
Mof_H 	H 	0.9064	0.2757	0.7332	0.021
Mof_C 	C 	0.9555	0.1161	0.6088	0.096
Mof_H 	H 	0.9854	0.0692	0.5982	0.016
Mof_C 	C 	0.7238	0.7023	0.6657	0.101
Mof_H 	H 	0.7035	0.7188	0.5897	0.016
Mof_C 	C 	0.7829	0.6228	0.8221	0.102
Mof_H 	H 	0.8104	0.5753	0.8746	0.034
Mof_N 	N 	0.7796	0.5386	0.6499	-0.104
Mof_N 	N 	0.7733	0.396	0.5623	-0.184
Mof_N 	N 	0.8337	0.4462	0.5723	-0.1
Mof_N 	N 	0.8658	0.2094	0.5819	-0.155
Mof_N 	N 	0.8937	0.1361	0.5369	-0.099
Mof_N 	N 	0.9696	0.1738	0.7016	-0.105
Mof_N 	N 	0.7575	0.7064	0.8444	-0.154
Mof_N 	N 	0.7193	0.7568	0.7438	-0.097
Mof_N 	N 	0.7624	0.6165	0.7086	-0.103
Mof_Cu	Cu	0.25	0.25	-0	0.851
Mof_Cu	Cu	0.75	0.25	0.5	0.881
Mof_Cu	Cu	0.75	0.75	-0	0.851
Mof_Cu	Cu	0.25	0.75	0.5	0.881
_end
