data_functionalizedCrystal
_audit_creation_method	'EQeq! by Chris Wilmer'
_symmetry_space_group_name_H-M	'P1'
_symmetry_Int_Tables_number	1
_symmetry_cell_setting	triclinic
loop_
_symmetry_equiv_pos_as_xyz
  x,y,z
_cell_length_a	9.4193
_cell_length_b	9.4193
_cell_length_c	17.4757
_cell_angle_alpha	90
_cell_angle_beta	90
_cell_angle_gamma	120
loop_
_atom_site_label
_atom_site_type_symbol
_atom_site_fract_x
_atom_site_fract_y
_atom_site_fract_z
_atom_site_charge
Mof_Ce	Ce	0.33333	0.66666	0.75	2.684
Mof_Ce	Ce	0.66667	0.33334	0.25	2.678
Mof_Ce	Ce	-0	0	-0	1.914
Mof_Ce	Ce	-9.39979e-33	0	0.5	2.042
Mof_H 	H 	0.56877	0.59492	0.92133	0.096
Mof_H 	H 	0.50351	0.67626	0.97771	0.099
Mof_H 	H 	0.02615	0.43123	0.92133	0.01
Mof_H 	H 	0.17275	0.49649	0.97771	0.049
Mof_H 	H 	0.40508	0.97385	0.92133	0.081
Mof_H 	H 	0.32374	0.82725	0.97771	0.051
Mof_H 	H 	0.56877	0.59492	0.57867	0.105
Mof_H 	H 	0.50351	0.67626	0.52229	0.101
Mof_H 	H 	0.02615	0.43123	0.57867	0.021
Mof_H 	H 	0.17275	0.49649	0.52229	0.053
Mof_H 	H 	0.40508	0.97385	0.57867	0.092
Mof_H 	H 	0.32374	0.82725	0.52229	0.053
Mof_H 	H 	0.97385	0.40508	0.07867	0.074
Mof_H 	H 	0.82725	0.32374	0.02229	0.032
Mof_H 	H 	0.59492	0.56877	0.07867	0.089
Mof_H 	H 	0.67626	0.50351	0.02229	0.084
Mof_H 	H 	0.43123	0.02615	0.07867	0.012
Mof_H 	H 	0.49649	0.17275	0.02229	0.04
Mof_H 	H 	0.97385	0.40508	0.42133	0.089
Mof_H 	H 	0.82725	0.32374	0.47771	0.051
Mof_H 	H 	0.59492	0.56877	0.42133	0.103
Mof_H 	H 	0.67626	0.50351	0.47771	0.102
Mof_H 	H 	0.43123	0.02615	0.42133	0.026
Mof_H 	H 	0.49649	0.17275	0.47771	0.058
Mof_C 	C 	0.6489	0.8338	0.8949	0.488
Mof_C 	C 	0.5971	0.6918	0.9485	-0.195
Mof_C 	C 	0.1849	0.3511	0.8949	0.451
Mof_C 	C 	0.0947	0.4029	0.9485	-0.106
Mof_C 	C 	0.1662	0.8151	0.8949	0.457
Mof_C 	C 	0.3082	0.9053	0.9485	-0.001
Mof_C 	C 	0.6489	0.8338	0.6051	0.506
Mof_C 	C 	0.5971	0.6918	0.5515	-0.261
Mof_C 	C 	0.1849	0.3511	0.6051	0.47
Mof_C 	C 	0.0947	0.4029	0.5515	-0.18
Mof_C 	C 	0.1662	0.8151	0.6051	0.475
Mof_C 	C 	0.3082	0.9053	0.5515	-0.07
Mof_C 	C 	0.8151	0.1662	0.1051	0.455
Mof_C 	C 	0.9053	0.3082	0.0515	-0.02
Mof_C 	C 	0.8338	0.6489	0.1051	0.491
Mof_C 	C 	0.6918	0.5971	0.0515	-0.235
Mof_C 	C 	0.3511	0.1849	0.1051	0.46
Mof_C 	C 	0.4029	0.0947	0.0515	-0.163
Mof_C 	C 	0.8151	0.1662	0.3949	0.47
Mof_C 	C 	0.9053	0.3082	0.4485	-0.049
Mof_C 	C 	0.8338	0.6489	0.3949	0.505
Mof_C 	C 	0.6918	0.5971	0.4485	-0.261
Mof_C 	C 	0.3511	0.1849	0.3949	0.473
Mof_C 	C 	0.4029	0.0947	0.4485	-0.189
Mof_O 	O 	0.5495	0.8212	0.8444	-0.575
Mof_O 	O 	0.7892	0.9595	0.9039	-0.318
Mof_O 	O 	0.2717	0.4505	0.8444	-0.619
Mof_O 	O 	0.1703	0.2108	0.9039	-0.506
Mof_O 	O 	0.1788	0.7283	0.8444	-0.614
Mof_O 	O 	0.0405	0.8297	0.9039	-0.462
Mof_O 	O 	0.5495	0.8212	0.6556	-0.582
Mof_O 	O 	0.7892	0.9595	0.5961	-0.353
Mof_O 	O 	0.2717	0.4505	0.6556	-0.627
Mof_O 	O 	0.1703	0.2108	0.5961	-0.545
Mof_O 	O 	0.1788	0.7283	0.6556	-0.622
Mof_O 	O 	0.0405	0.8297	0.5961	-0.499
Mof_O 	O 	0.7283	0.1788	0.1556	-0.615
Mof_O 	O 	0.8297	0.0405	0.0961	-0.477
Mof_O 	O 	0.8212	0.5495	0.1556	-0.578
Mof_O 	O 	0.9595	0.7892	0.0961	-0.341
Mof_O 	O 	0.4505	0.2717	0.1556	-0.626
Mof_O 	O 	0.2108	0.1703	0.0961	-0.539
Mof_O 	O 	0.7283	0.1788	0.3444	-0.619
Mof_O 	O 	0.8297	0.0405	0.4039	-0.489
Mof_O 	O 	0.8212	0.5495	0.3444	-0.581
Mof_O 	O 	0.9595	0.7892	0.4039	-0.353
Mof_O 	O 	0.4505	0.2717	0.3444	-0.629
Mof_O 	O 	0.2108	0.1703	0.4039	-0.55
Mof_O 	O 	0.728	0.728	-0	-0.224
Mof_O 	O 	2.11664e-17	0.272	-0	-0.461
Mof_O 	O 	0.272	0	-0	-0.445
Mof_O 	O 	0.728	0.728	0.5	-0.186
Mof_O 	O 	1.33938e-17	0.272	0.5	-0.419
Mof_O 	O 	0.272	0	0.5	-0.406
_end
