# CIF file generated by openbabel 3.1.0, see https://openbabel.org
data_I
_chemical_name_common 'image0'
_cell_length_a 33.69
_cell_length_b 12.97
_cell_length_c 14.771
_cell_angle_alpha 90
_cell_angle_beta 101.572
_cell_angle_gamma 90
_space_group_name_H-M_alt 'P 1'
_space_group_name_Hall 'P 1'
loop_
    _symmetry_equiv_pos_as_xyz
    x,y,z
loop_
    _atom_site_label
    _atom_site_type_symbol
    _atom_site_fract_x
    _atom_site_fract_y
    _atom_site_fract_z
    _atom_site_occupancy
    C1       C        0.25256    0.43790    0.06920    1.000
    C2       C        0.28008    0.50920    0.13420    1.000
    C3       C        0.26420    0.56470    0.20000    1.000
    H1       H        0.23710    0.55710    0.20370    1.000
    C4       C        0.28893    0.63070    0.25930    1.000
    C5       C        0.32923    0.64510    0.25170    1.000
    H2       H        0.34550    0.69080    0.29130    1.000
    C6       C        0.34546    0.59160    0.18520    1.000
    C7       C        0.32031    0.52120    0.12830    1.000
    H3       H        0.33090    0.48210    0.08590    1.000
    C8       C        0.27247    0.68870    0.33370    1.000
    C9       C        0.38763    0.61130    0.17170    1.000
    C10      C        0.40464    0.70960    0.18570    1.000
    H4       H        0.39040    0.76110    0.20940    1.000
    C11      C        0.44250    0.73280    0.16520    1.000
    H5       H        0.45280    0.79940    0.17440    1.000
    C12      C        0.46479    0.65710    0.13110    1.000
    C13      C        0.44849    0.55880    0.12140    1.000
    H6       H        0.46340    0.50590    0.10180    1.000
    C14      C        0.41060    0.53670    0.14000    1.000
    H7       H        0.40050    0.47000    0.13080    1.000
    C15      C        0.50388    0.68190    0.10260    1.000
    C16      C        0.51260    0.78240    0.08010    1.000
    H8       H        0.49430    0.83500    0.08440    1.000
    C17      C        0.54834    0.80470    0.05120    1.000
    H9       H        0.55400    0.87280    0.03870    1.000
    C18      C        0.57573    0.72890    0.04030    1.000
    C19      C        0.56777    0.63160    0.06500    1.000
    H10      H        0.58620    0.57930    0.06060    1.000
    C20      C        0.53240    0.60810    0.09700    1.000
    H11      H        0.52820    0.54090    0.11490    1.000
    C21      C        0.61325    0.75340    0.00390    1.000
    La1      La       0.30913    0.19977    0.05111    1.000
    O1       O        0.26786    0.36050    0.03640    1.000
    O2       O        0.21521    0.45800    0.04930    1.000
    O3       O        0.23578    0.67130    0.33650    1.000
    O4       O        0.29602    0.75000    0.38430    1.000
    O5       O        0.62353    0.84650    0.99710    1.000
    O6       O        0.63314    0.67950    0.97870    1.000
    C22      C        0.75256    0.93790    0.06920    1.000
    C23      C        0.78008    0.00920    0.13420    1.000
    C24      C        0.76420    0.06470    0.20000    1.000
    H12      H        0.73710    0.05710    0.20370    1.000
    C25      C        0.78893    0.13070    0.25930    1.000
    C26      C        0.82923    0.14510    0.25170    1.000
    H13      H        0.84550    0.19080    0.29130    1.000
    C27      C        0.84546    0.09160    0.18520    1.000
    C28      C        0.82031    0.02120    0.12830    1.000
    H14      H        0.83090    0.98210    0.08590    1.000
    C29      C        0.77247    0.18870    0.33370    1.000
    C30      C        0.88763    0.11130    0.17170    1.000
    C31      C        0.90464    0.20960    0.18570    1.000
    H15      H        0.89040    0.26110    0.20940    1.000
    C32      C        0.94250    0.23280    0.16520    1.000
    H16      H        0.95280    0.29940    0.17440    1.000
    C33      C        0.96479    0.15710    0.13110    1.000
    C34      C        0.94849    0.05880    0.12140    1.000
    H17      H        0.96340    0.00590    0.10180    1.000
    C35      C        0.91060    0.03670    0.14000    1.000
    H18      H        0.90050    0.97000    0.13080    1.000
    C36      C        0.00388    0.18190    0.10260    1.000
    C37      C        0.01260    0.28240    0.08010    1.000
    H19      H        0.99430    0.33500    0.08440    1.000
    C38      C        0.04834    0.30470    0.05120    1.000
    H20      H        0.05400    0.37280    0.03870    1.000
    C39      C        0.07573    0.22890    0.04030    1.000
    C40      C        0.06777    0.13160    0.06500    1.000
    H21      H        0.08620    0.07930    0.06060    1.000
    C41      C        0.03240    0.10810    0.09700    1.000
    H22      H        0.02820    0.04090    0.11490    1.000
    C42      C        0.11325    0.25340    0.00390    1.000
    La2      La       0.80913    0.69977    0.05111    1.000
    O7       O        0.76786    0.86050    0.03640    1.000
    O8       O        0.71521    0.95800    0.04930    1.000
    O9       O        0.73578    0.17130    0.33650    1.000
    O10      O        0.79602    0.25000    0.38430    1.000
    O11      O        0.12353    0.34650    0.99710    1.000
    O12      O        0.13314    0.17950    0.97870    1.000
    C43      C        0.74744    0.43790    0.43080    1.000
    C44      C        0.71992    0.50920    0.36580    1.000
    C45      C        0.73580    0.56470    0.30000    1.000
    H23      H        0.76290    0.55710    0.29630    1.000
    C46      C        0.71107    0.63070    0.24070    1.000
    C47      C        0.67077    0.64510    0.24830    1.000
    H24      H        0.65450    0.69080    0.20870    1.000
    C48      C        0.65454    0.59160    0.31480    1.000
    C49      C        0.67969    0.52120    0.37170    1.000
    H25      H        0.66910    0.48210    0.41410    1.000
    C50      C        0.72753    0.68870    0.16630    1.000
    C51      C        0.61237    0.61130    0.32830    1.000
    C52      C        0.59536    0.70960    0.31430    1.000
    H26      H        0.60960    0.76110    0.29060    1.000
    C53      C        0.55750    0.73280    0.33480    1.000
    H27      H        0.54720    0.79940    0.32560    1.000
    C54      C        0.53521    0.65710    0.36890    1.000
    C55      C        0.55151    0.55880    0.37860    1.000
    H28      H        0.53660    0.50590    0.39820    1.000
    C56      C        0.58940    0.53670    0.36000    1.000
    H29      H        0.59950    0.47000    0.36920    1.000
    C57      C        0.49612    0.68190    0.39740    1.000
    C58      C        0.48740    0.78240    0.41990    1.000
    H30      H        0.50570    0.83500    0.41560    1.000
    C59      C        0.45166    0.80470    0.44880    1.000
    H31      H        0.44600    0.87280    0.46130    1.000
    C60      C        0.42427    0.72890    0.45970    1.000
    C61      C        0.43223    0.63160    0.43500    1.000
    H32      H        0.41380    0.57930    0.43940    1.000
    C62      C        0.46760    0.60810    0.40300    1.000
    H33      H        0.47180    0.54090    0.38510    1.000
    C63      C        0.38675    0.75340    0.49610    1.000
    La3      La       0.69087    0.19977    0.44889    1.000
    O13      O        0.73214    0.36050    0.46360    1.000
    O14      O        0.78479    0.45800    0.45070    1.000
    O15      O        0.76422    0.67130    0.16350    1.000
    O16      O        0.70398    0.75000    0.11570    1.000
    O17      O        0.37647    0.84650    0.50290    1.000
    O18      O        0.36686    0.67950    0.52130    1.000
    C64      C        0.24744    0.93790    0.43080    1.000
    C65      C        0.21992    0.00920    0.36580    1.000
    C66      C        0.23580    0.06470    0.30000    1.000
    H34      H        0.26290    0.05710    0.29630    1.000
    C67      C        0.21107    0.13070    0.24070    1.000
    C68      C        0.17077    0.14510    0.24830    1.000
    H35      H        0.15450    0.19080    0.20870    1.000
    C69      C        0.15454    0.09160    0.31480    1.000
    C70      C        0.17969    0.02120    0.37170    1.000
    H36      H        0.16910    0.98210    0.41410    1.000
    C71      C        0.22753    0.18870    0.16630    1.000
    C72      C        0.11237    0.11130    0.32830    1.000
    C73      C        0.09536    0.20960    0.31430    1.000
    H37      H        0.10960    0.26110    0.29060    1.000
    C74      C        0.05750    0.23280    0.33480    1.000
    H38      H        0.04720    0.29940    0.32560    1.000
    C75      C        0.03521    0.15710    0.36890    1.000
    C76      C        0.05151    0.05880    0.37860    1.000
    H39      H        0.03660    0.00590    0.39820    1.000
    C77      C        0.08940    0.03670    0.36000    1.000
    H40      H        0.09950    0.97000    0.36920    1.000
    C78      C        0.99612    0.18190    0.39740    1.000
    C79      C        0.98740    0.28240    0.41990    1.000
    H41      H        0.00570    0.33500    0.41560    1.000
    C80      C        0.95166    0.30470    0.44880    1.000
    H42      H        0.94600    0.37280    0.46130    1.000
    C81      C        0.92427    0.22890    0.45970    1.000
    C82      C        0.93223    0.13160    0.43500    1.000
    H43      H        0.91380    0.07930    0.43940    1.000
    C83      C        0.96760    0.10810    0.40300    1.000
    H44      H        0.97180    0.04090    0.38510    1.000
    C84      C        0.88675    0.25340    0.49610    1.000
    La4      La       0.19087    0.69977    0.44889    1.000
    O19      O        0.23214    0.86050    0.46360    1.000
    O20      O        0.28479    0.95800    0.45070    1.000
    O21      O        0.26422    0.17130    0.16350    1.000
    O22      O        0.20398    0.25000    0.11570    1.000
    O23      O        0.87647    0.34650    0.50290    1.000
    O24      O        0.86686    0.17950    0.52130    1.000
    C85      C        0.74744    0.56210    0.93080    1.000
    C86      C        0.71992    0.49080    0.86580    1.000
    C87      C        0.73580    0.43530    0.80000    1.000
    H45      H        0.76290    0.44290    0.79630    1.000
    C88      C        0.71107    0.36930    0.74070    1.000
    C89      C        0.67077    0.35490    0.74830    1.000
    H46      H        0.65450    0.30920    0.70870    1.000
    C90      C        0.65454    0.40840    0.81480    1.000
    C91      C        0.67969    0.47880    0.87170    1.000
    H47      H        0.66910    0.51790    0.91410    1.000
    C92      C        0.72753    0.31130    0.66630    1.000
    C93      C        0.61237    0.38870    0.82830    1.000
    C94      C        0.59536    0.29040    0.81430    1.000
    H48      H        0.60960    0.23890    0.79060    1.000
    C95      C        0.55750    0.26720    0.83480    1.000
    H49      H        0.54720    0.20060    0.82560    1.000
    C96      C        0.53521    0.34290    0.86890    1.000
    C97      C        0.55151    0.44120    0.87860    1.000
    H50      H        0.53660    0.49410    0.89820    1.000
    C98      C        0.58940    0.46330    0.86000    1.000
    H51      H        0.59950    0.53000    0.86920    1.000
    C99      C        0.49612    0.31810    0.89740    1.000
    C100     C        0.48740    0.21760    0.91990    1.000
    H52      H        0.50570    0.16500    0.91560    1.000
    C101     C        0.45166    0.19530    0.94880    1.000
    H53      H        0.44600    0.12720    0.96130    1.000
    C102     C        0.42427    0.27110    0.95970    1.000
    C103     C        0.43223    0.36840    0.93500    1.000
    H54      H        0.41380    0.42070    0.93940    1.000
    C104     C        0.46760    0.39190    0.90300    1.000
    H55      H        0.47180    0.45910    0.88510    1.000
    C105     C        0.38675    0.24660    0.99610    1.000
    La5      La       0.69087    0.80023    0.94889    1.000
    O25      O        0.73214    0.63950    0.96360    1.000
    O26      O        0.78479    0.54200    0.95070    1.000
    O27      O        0.76422    0.32870    0.66350    1.000
    O28      O        0.70398    0.25000    0.61570    1.000
    O29      O        0.37647    0.15350    0.00290    1.000
    O30      O        0.36686    0.32050    0.02130    1.000
    C106     C        0.24744    0.06210    0.93080    1.000
    C107     C        0.21992    0.99080    0.86580    1.000
    C108     C        0.23580    0.93530    0.80000    1.000
    H56      H        0.26290    0.94290    0.79630    1.000
    C109     C        0.21107    0.86930    0.74070    1.000
    C110     C        0.17077    0.85490    0.74830    1.000
    H57      H        0.15450    0.80920    0.70870    1.000
    C111     C        0.15454    0.90840    0.81480    1.000
    C112     C        0.17969    0.97880    0.87170    1.000
    H58      H        0.16910    0.01790    0.91410    1.000
    C113     C        0.22753    0.81130    0.66630    1.000
    C114     C        0.11237    0.88870    0.82830    1.000
    C115     C        0.09536    0.79040    0.81430    1.000
    H59      H        0.10960    0.73890    0.79060    1.000
    C116     C        0.05750    0.76720    0.83480    1.000
    H60      H        0.04720    0.70060    0.82560    1.000
    C117     C        0.03521    0.84290    0.86890    1.000
    C118     C        0.05151    0.94120    0.87860    1.000
    H61      H        0.03660    0.99410    0.89820    1.000
    C119     C        0.08940    0.96330    0.86000    1.000
    H62      H        0.09950    0.03000    0.86920    1.000
    C120     C        0.99612    0.81810    0.89740    1.000
    C121     C        0.98740    0.71760    0.91990    1.000
    H63      H        0.00570    0.66500    0.91560    1.000
    C122     C        0.95166    0.69530    0.94880    1.000
    H64      H        0.94600    0.62720    0.96130    1.000
    C123     C        0.92427    0.77110    0.95970    1.000
    C124     C        0.93223    0.86840    0.93500    1.000
    H65      H        0.91380    0.92070    0.93940    1.000
    C125     C        0.96760    0.89190    0.90300    1.000
    H66      H        0.97180    0.95910    0.88510    1.000
    C126     C        0.88675    0.74660    0.99610    1.000
    La6      La       0.19087    0.30023    0.94889    1.000
    O31      O        0.23214    0.13950    0.96360    1.000
    O32      O        0.28479    0.04200    0.95070    1.000
    O33      O        0.26422    0.82870    0.66350    1.000
    O34      O        0.20398    0.75000    0.61570    1.000
    O35      O        0.87647    0.65350    0.00290    1.000
    O36      O        0.86686    0.82050    0.02130    1.000
    C127     C        0.25256    0.56210    0.56920    1.000
    C128     C        0.28008    0.49080    0.63420    1.000
    C129     C        0.26420    0.43530    0.70000    1.000
    H67      H        0.23710    0.44290    0.70370    1.000
    C130     C        0.28893    0.36930    0.75930    1.000
    C131     C        0.32923    0.35490    0.75170    1.000
    H68      H        0.34550    0.30920    0.79130    1.000
    C132     C        0.34546    0.40840    0.68520    1.000
    C133     C        0.32031    0.47880    0.62830    1.000
    H69      H        0.33090    0.51790    0.58590    1.000
    C134     C        0.27247    0.31130    0.83370    1.000
    C135     C        0.38763    0.38870    0.67170    1.000
    C136     C        0.40464    0.29040    0.68570    1.000
    H70      H        0.39040    0.23890    0.70940    1.000
    C137     C        0.44250    0.26720    0.66520    1.000
    H71      H        0.45280    0.20060    0.67440    1.000
    C138     C        0.46479    0.34290    0.63110    1.000
    C139     C        0.44849    0.44120    0.62140    1.000
    H72      H        0.46340    0.49410    0.60180    1.000
    C140     C        0.41060    0.46330    0.64000    1.000
    H73      H        0.40050    0.53000    0.63080    1.000
    C141     C        0.50388    0.31810    0.60260    1.000
    C142     C        0.51260    0.21760    0.58010    1.000
    H74      H        0.49430    0.16500    0.58440    1.000
    C143     C        0.54834    0.19530    0.55120    1.000
    H75      H        0.55400    0.12720    0.53870    1.000
    C144     C        0.57573    0.27110    0.54030    1.000
    C145     C        0.56777    0.36840    0.56500    1.000
    H76      H        0.58620    0.42070    0.56060    1.000
    C146     C        0.53240    0.39190    0.59700    1.000
    H77      H        0.52820    0.45910    0.61490    1.000
    C147     C        0.61325    0.24660    0.50390    1.000
    La7      La       0.30913    0.80023    0.55111    1.000
    O37      O        0.26786    0.63950    0.53640    1.000
    O38      O        0.21521    0.54200    0.54930    1.000
    O39      O        0.23578    0.32870    0.83650    1.000
    O40      O        0.29602    0.25000    0.88430    1.000
    O41      O        0.62353    0.15350    0.49710    1.000
    O42      O        0.63314    0.32050    0.47870    1.000
    C148     C        0.75256    0.06210    0.56920    1.000
    C149     C        0.78008    0.99080    0.63420    1.000
    C150     C        0.76420    0.93530    0.70000    1.000
    H78      H        0.73710    0.94290    0.70370    1.000
    C151     C        0.78893    0.86930    0.75930    1.000
    C152     C        0.82923    0.85490    0.75170    1.000
    H79      H        0.84550    0.80920    0.79130    1.000
    C153     C        0.84546    0.90840    0.68520    1.000
    C154     C        0.82031    0.97880    0.62830    1.000
    H80      H        0.83090    0.01790    0.58590    1.000
    C155     C        0.77247    0.81130    0.83370    1.000
    C156     C        0.88763    0.88870    0.67170    1.000
    C157     C        0.90464    0.79040    0.68570    1.000
    H81      H        0.89040    0.73890    0.70940    1.000
    C158     C        0.94250    0.76720    0.66520    1.000
    H82      H        0.95280    0.70060    0.67440    1.000
    C159     C        0.96479    0.84290    0.63110    1.000
    C160     C        0.94849    0.94120    0.62140    1.000
    H83      H        0.96340    0.99410    0.60180    1.000
    C161     C        0.91060    0.96330    0.64000    1.000
    H84      H        0.90050    0.03000    0.63080    1.000
    C162     C        0.00388    0.81810    0.60260    1.000
    C163     C        0.01260    0.71760    0.58010    1.000
    H85      H        0.99430    0.66500    0.58440    1.000
    C164     C        0.04834    0.69530    0.55120    1.000
    H86      H        0.05400    0.62720    0.53870    1.000
    C165     C        0.07573    0.77110    0.54030    1.000
    C166     C        0.06777    0.86840    0.56500    1.000
    H87      H        0.08620    0.92070    0.56060    1.000
    C167     C        0.03240    0.89190    0.59700    1.000
    H88      H        0.02820    0.95910    0.61490    1.000
    C168     C        0.11325    0.74660    0.50390    1.000
    La8      La       0.80913    0.30023    0.55111    1.000
    O43      O        0.76786    0.13950    0.53640    1.000
    O44      O        0.71521    0.04200    0.54930    1.000
    O45      O        0.73578    0.82870    0.83650    1.000
    O46      O        0.79602    0.75000    0.88430    1.000
    O47      O        0.12353    0.65350    0.49710    1.000
    O48      O        0.13314    0.82050    0.47870    1.000
