data_functionalizedCrystal
_audit_creation_method	'EQeq! by Chris Wilmer'
_symmetry_space_group_name_H-M	'P1'
_symmetry_Int_Tables_number	1
_symmetry_cell_setting	triclinic
loop_
_symmetry_equiv_pos_as_xyz
  x,y,z
_cell_length_a	10.3562
_cell_length_b	17.8979
_cell_length_c	44.1383
_cell_angle_alpha	90
_cell_angle_beta	90
_cell_angle_gamma	90
loop_
_atom_site_label
_atom_site_type_symbol
_atom_site_fract_x
_atom_site_fract_y
_atom_site_fract_z
_atom_site_charge
Mof_Cd	Cd	0.15411	0.00397	0.92211	0.442
Mof_Cd	Cd	0.24219	0.99962	0.00175	0.527
Mof_Cd	Cd	0.32634	0.99667	0.08218	0.443
Mof_Cu	Cu	0.02718	0.06723	0.75218	0.89
Mof_O 	O 	0.2712	0.9001	0.92501	-0.29
Mof_O 	O 	0.3586	0.9329	0.96932	-0.286
Mof_O 	O 	0.713	0.6067	0.97353	-0.278
Mof_O 	O 	0.671	0.5882	0.92444	-0.288
Mof_O 	O 	0.9643	0.0619	0.94287	-0.271
Mof_O 	O 	0.0655	0.977	0.9703	-0.284
Mof_O 	O 	0.5204	0.9411	0.06201	-0.274
Mof_O 	O 	0.4155	0.0223	0.03389	-0.29
Mof_O 	O 	0.2035	0.0984	0.07861	-0.286
Mof_O 	O 	0.1184	0.0613	0.03437	-0.281
Mof_O 	O 	0.8144	0.4142	0.07006	-0.29
Mof_O 	O 	0.7802	0.3926	0.02111	-0.283
Mof_O 	O 	0.1404	0.1036	0.78359	-0.43
Mof_O 	O 	0.1525	0.0946	0.72202	-0.434
Mof_N 	N 	0.1444	0.0456	0.8742	-0.178
Mof_N 	N 	0.1576	0.043	0.63095	-0.179
Mof_N 	N 	0.9293	0.0057	0.72388	-0.238
Mof_N 	N 	0.9039	0.03	0.78167	-0.242
Mof_C 	C 	0.3408	0.8891	0.94821	0.323
Mof_C 	C 	0.4129	0.816	0.94898	-0.059
Mof_C 	C 	0.4896	0.799	0.9736	-0.021
Mof_H 	H 	0.4902	0.8313	0.9907	0.059
Mof_C 	C 	0.5653	0.7359	0.97366	-0.023
Mof_H 	H 	0.6182	0.7252	0.9907	0.057
Mof_C 	C 	0.5651	0.6881	0.94934	-0.059
Mof_C 	C 	0.4857	0.7034	0.92491	-0.023
Mof_H 	H 	0.4834	0.6699	0.9082	0.037
Mof_C 	C 	0.41	0.7668	0.92449	-0.026
Mof_H 	H 	0.356	0.7769	0.9076	0.045
Mof_C 	C 	0.6552	0.6214	0.94913	0.311
Mof_C 	C 	0.9672	0.0186	0.96498	0.288
Mof_C 	C 	0.8521	0.0108	0.98491	-0.049
Mof_C 	C 	0.7521	0.0629	0.98367	-0.027
Mof_H 	H 	0.76	0.1057	0.9711	0.055
Mof_C 	C 	0.6416	0.0524	0.00071	-0.014
Mof_H 	H 	0.5737	0.088	0.9997	0.055
Mof_C 	C 	0.6293	0.99	0.01938	-0.06
Mof_C 	C 	0.7296	0.9376	0.02042	-0.017
Mof_H 	H 	0.7219	0.8944	0.0328	0.052
Mof_C 	C 	0.8385	0.9489	0.00356	-0.026
Mof_H 	H 	0.9066	0.9134	0.0046	0.057
Mof_C 	C 	0.5145	0.9825	0.03945	0.299
Mof_C 	C 	0.1351	0.1084	0.05484	0.309
Mof_C 	C 	0.0633	0.1808	0.05238	-0.056
Mof_C 	C 	0.9885	0.1947	0.02684	-0.023
Mof_H 	H 	0.9871	0.1592	0.0108	0.06
Mof_C 	C 	0.9164	0.2593	0.02432	-0.019
Mof_H 	H 	0.8657	0.2681	0.0067	0.055
Mof_C 	C 	0.9184	0.3117	0.04788	-0.068
Mof_C 	C 	0.9957	0.2989	0.07277	-0.018
Mof_H 	H 	0.9996	0.3349	0.0886	0.036
Mof_C 	C 	0.0679	0.2336	0.07493	-0.03
Mof_H 	H 	0.1209	0.2254	0.0922	0.045
Mof_C 	C 	0.8312	0.3778	0.04616	0.319
Mof_C 	C 	0.0634	0.0188	0.64845	0.099
Mof_H 	H 	0.9972	0.9894	0.6395	-0.007
Mof_C 	C 	0.0554	0.034	0.67961	-0.193
Mof_C 	C 	0.952	0.9991	0.69541	0.081
Mof_H 	H 	0.8952	0.9685	0.684	-0.005
Mof_C 	C 	0.8266	0.9607	0.7391	-0
Mof_H 	H 	0.8659	0.9128	0.7463	0.016
Mof_C 	C 	0.7101	0.9419	0.71933	-0.121
Mof_H 	H 	0.738	0.9115	0.7018	0.047
Mof_H 	H 	0.6707	0.9885	0.7116	0.046
Mof_C 	C 	0.6099	0.8978	0.73824	-0.071
Mof_H 	H 	0.5324	0.8881	0.7257	0.02
Mof_H 	H 	0.647	0.8491	0.7443	0.021
Mof_C 	C 	0.5712	0.9411	0.76637	-0.072
Mof_H 	H 	0.5095	0.911	0.7784	0.022
Mof_H 	H 	0.5272	0.9879	0.7603	0.027
Mof_C 	C 	0.6894	0.9601	0.78606	-0.126
Mof_H 	H 	0.6626	0.99	0.8039	0.046
Mof_H 	H 	0.731	0.9137	0.7934	0.051
Mof_C 	C 	0.7836	0.0048	0.76654	0.011
Mof_H 	H 	0.7373	0.0503	0.7591	0
Mof_C 	C 	0.9238	0.0196	0.80993	0.085
Mof_H 	H 	0.8594	0.9942	0.8213	-0.006
Mof_C 	C 	0.0398	0.0444	0.82565	-0.195
Mof_C 	C 	0.0475	0.0254	0.85599	0.102
Mof_H 	H 	0.9797	0.9962	0.8644	-0.009
Mof_C 	C 	0.2365	0.0894	0.8616	0.149
Mof_H 	H 	0.3042	0.1063	0.8744	-0.018
Mof_C 	C 	0.24	0.1117	0.8313	-0.314
Mof_C 	C 	0.1385	0.087	0.81182	0.296
Mof_C 	C 	0.1526	0.0791	0.69357	0.298
Mof_C 	C 	0.2482	0.0881	0.64362	0.159
Mof_H 	H 	0.3135	0.1079	0.6308	-0.022
Mof_C 	C 	0.2517	0.1072	0.67424	-0.338
Mof_C 	C 	0.3518	0.1611	0.81978	0.628
Mof_C 	C 	0.4461	0.184	0.84475	-0.903
Mof_H 	H 	0.401	0.2147	0.8598	0.284
Mof_H 	H 	0.5171	0.2129	0.8359	0.272
Mof_H 	H 	0.4808	0.1392	0.8546	0.283
Mof_C 	C 	0.43	0.1132	0.79619	-0.844
Mof_H 	H 	0.4624	0.0679	0.8061	0.261
Mof_H 	H 	0.503	0.1425	0.7885	0.248
Mof_H 	H 	0.3735	0.0994	0.7793	0.266
Mof_C 	C 	0.3008	0.2323	0.80497	-0.898
Mof_H 	H 	0.2527	0.2616	0.82	0.277
Mof_H 	H 	0.2435	0.2192	0.7881	0.285
Mof_H 	H 	0.3734	0.2619	0.7973	0.268
Mof_C 	C 	0.3626	0.1547	0.6868	0.69
Mof_C 	C 	0.3114	0.2241	0.7034	-0.929
Mof_H 	H 	0.2624	0.2553	0.6892	0.284
Mof_H 	H 	0.3841	0.2529	0.7115	0.275
Mof_H 	H 	0.2549	0.2085	0.7201	0.293
Mof_C 	C 	0.4388	0.1053	0.70898	-0.925
Mof_H 	H 	0.472	0.0614	0.6982	0.283
Mof_H 	H 	0.3819	0.0891	0.7255	0.289
Mof_H 	H 	0.5112	0.1339	0.7174	0.27
Mof_C 	C 	0.453	0.1829	0.66227	-0.973
Mof_H 	H 	0.405	0.2148	0.6482	0.304
Mof_H 	H 	0.4893	0.1403	0.6512	0.302
Mof_H 	H 	0.523	0.2117	0.6715	0.291
Mof_Cd	Cd	0.34589	0.99603	0.42211	0.444
Mof_Cd	Cd	0.25781	0.00038	0.50175	0.523
Mof_Cd	Cd	0.17366	0.00333	0.58218	0.439
Mof_Cu	Cu	0.47282	0.93277	0.25218	0.89
Mof_O 	O 	0.2288	0.0999	0.42501	-0.293
Mof_O 	O 	0.1414	0.0671	0.46932	-0.288
Mof_O 	O 	0.787	0.3933	0.47353	-0.279
Mof_O 	O 	0.829	0.4118	0.42444	-0.289
Mof_O 	O 	0.5357	0.9381	0.44287	-0.273
Mof_O 	O 	0.4345	0.023	0.4703	-0.288
Mof_O 	O 	0.9796	0.0589	0.56201	-0.273
Mof_O 	O 	0.0845	0.9777	0.53389	-0.288
Mof_O 	O 	0.2965	0.9016	0.57861	-0.285
Mof_O 	O 	0.3816	0.9387	0.53437	-0.279
Mof_O 	O 	0.6856	0.5858	0.57006	-0.29
Mof_O 	O 	0.7198	0.6074	0.52111	-0.283
Mof_O 	O 	0.3596	0.8964	0.28359	-0.429
Mof_O 	O 	0.3475	0.9054	0.22202	-0.433
Mof_N 	N 	0.3556	0.9544	0.3742	-0.177
Mof_N 	N 	0.3424	0.957	0.13095	-0.179
Mof_N 	N 	0.5707	0.9943	0.22388	-0.241
Mof_N 	N 	0.5961	0.97	0.28167	-0.241
Mof_C 	C 	0.1592	0.1109	0.44821	0.323
Mof_C 	C 	0.0871	0.184	0.44898	-0.059
Mof_C 	C 	0.0104	0.201	0.4736	-0.023
Mof_H 	H 	0.0098	0.1687	0.4907	0.059
Mof_C 	C 	0.9347	0.2641	0.47366	-0.02
Mof_H 	H 	0.8818	0.2748	0.4907	0.057
Mof_C 	C 	0.9349	0.3119	0.44934	-0.058
Mof_C 	C 	0.0143	0.2966	0.42491	-0.025
Mof_H 	H 	0.0166	0.3301	0.4082	0.038
Mof_C 	C 	0.09	0.2332	0.42449	-0.026
Mof_H 	H 	0.144	0.2231	0.4076	0.044
Mof_C 	C 	0.8448	0.3786	0.44913	0.311
Mof_C 	C 	0.5328	0.9814	0.46498	0.291
Mof_C 	C 	0.6479	0.9892	0.48491	-0.055
Mof_C 	C 	0.7479	0.9371	0.48367	-0.021
Mof_H 	H 	0.74	0.8943	0.4711	0.053
Mof_C 	C 	0.8584	0.9476	0.50071	-0.021
Mof_H 	H 	0.9263	0.912	0.4997	0.057
Mof_C 	C 	0.8707	0.01	0.51938	-0.054
Mof_C 	C 	0.7704	0.0624	0.52042	-0.022
Mof_H 	H 	0.7781	0.1056	0.5328	0.054
Mof_C 	C 	0.6615	0.0511	0.50356	-0.019
Mof_H 	H 	0.5934	0.0866	0.5046	0.056
Mof_C 	C 	0.9855	0.0175	0.53945	0.297
Mof_C 	C 	0.3649	0.8916	0.55484	0.309
Mof_C 	C 	0.4367	0.8192	0.55238	-0.055
Mof_C 	C 	0.5115	0.8053	0.52684	-0.025
Mof_H 	H 	0.5129	0.8408	0.5108	0.06
Mof_C 	C 	0.5836	0.7407	0.52432	-0.018
Mof_H 	H 	0.6343	0.7319	0.5067	0.055
Mof_C 	C 	0.5816	0.6883	0.54788	-0.068
Mof_C 	C 	0.5043	0.7011	0.57277	-0.019
Mof_H 	H 	0.5004	0.6651	0.5886	0.036
Mof_C 	C 	0.4321	0.7664	0.57493	-0.03
Mof_H 	H 	0.3791	0.7746	0.5922	0.045
Mof_C 	C 	0.6688	0.6222	0.54616	0.319
Mof_C 	C 	0.4366	0.9812	0.14845	0.101
Mof_H 	H 	0.5028	0.0106	0.1395	-0.008
Mof_C 	C 	0.4446	0.966	0.17961	-0.193
Mof_C 	C 	0.548	0.0009	0.19541	0.083
Mof_H 	H 	0.6048	0.0315	0.184	-0.005
Mof_C 	C 	0.6734	0.0393	0.2391	0.005
Mof_H 	H 	0.6341	0.0872	0.2463	0.015
Mof_C 	C 	0.7899	0.0581	0.21933	-0.124
Mof_H 	H 	0.762	0.0885	0.2018	0.048
Mof_H 	H 	0.8293	0.0115	0.2116	0.047
Mof_C 	C 	0.8901	0.1022	0.23824	-0.068
Mof_H 	H 	0.9676	0.1119	0.2257	0.019
Mof_H 	H 	0.853	0.1509	0.2443	0.02
Mof_C 	C 	0.9288	0.0589	0.26637	-0.075
Mof_H 	H 	0.9905	0.089	0.2784	0.023
Mof_H 	H 	0.9728	0.0121	0.2603	0.028
Mof_C 	C 	0.8106	0.0399	0.28606	-0.121
Mof_H 	H 	0.8374	0.01	0.3039	0.045
Mof_H 	H 	0.769	0.0863	0.2934	0.05
Mof_C 	C 	0.7164	0.9952	0.26654	0.005
Mof_H 	H 	0.7627	0.9497	0.2591	0.001
Mof_C 	C 	0.5762	0.9804	0.30993	0.078
Mof_H 	H 	0.6406	0.0058	0.3213	-0.003
Mof_C 	C 	0.4602	0.9556	0.32565	-0.191
Mof_C 	C 	0.4525	0.9746	0.35599	0.101
Mof_H 	H 	0.5203	0.0038	0.3644	-0.008
Mof_C 	C 	0.2635	0.9106	0.3616	0.148
Mof_H 	H 	0.1958	0.8937	0.3744	-0.017
Mof_C 	C 	0.26	0.8883	0.3313	-0.312
Mof_C 	C 	0.3615	0.913	0.31182	0.294
Mof_C 	C 	0.3474	0.9209	0.19357	0.298
Mof_C 	C 	0.2518	0.9119	0.14362	0.159
Mof_H 	H 	0.1865	0.8921	0.1308	-0.022
Mof_C 	C 	0.2483	0.8928	0.17424	-0.336
Mof_C 	C 	0.1482	0.8389	0.31978	0.624
Mof_C 	C 	0.0539	0.816	0.34475	-0.897
Mof_H 	H 	0.099	0.7853	0.3598	0.283
Mof_H 	H 	0.9829	0.7871	0.3359	0.27
Mof_H 	H 	0.0192	0.8608	0.3546	0.282
Mof_C 	C 	0.07	0.8868	0.29619	-0.837
Mof_H 	H 	0.0376	0.9321	0.3061	0.26
Mof_H 	H 	0.997	0.8575	0.2885	0.244
Mof_H 	H 	0.1265	0.9006	0.2793	0.264
Mof_C 	C 	0.1992	0.7677	0.30497	-0.895
Mof_H 	H 	0.2473	0.7384	0.32	0.277
Mof_H 	H 	0.2565	0.7808	0.2881	0.284
Mof_H 	H 	0.1266	0.7381	0.2973	0.268
Mof_C 	C 	0.1374	0.8453	0.1868	0.685
Mof_C 	C 	0.1886	0.7759	0.2034	-0.925
Mof_H 	H 	0.2376	0.7447	0.1892	0.283
Mof_H 	H 	0.1159	0.7471	0.2115	0.274
Mof_H 	H 	0.2451	0.7915	0.2201	0.292
Mof_C 	C 	0.0612	0.8947	0.20898	-0.916
Mof_H 	H 	0.028	0.9386	0.1982	0.281
Mof_H 	H 	0.1181	0.9109	0.2255	0.287
Mof_H 	H 	0.9888	0.8661	0.2174	0.266
Mof_C 	C 	0.047	0.8171	0.16227	-0.964
Mof_H 	H 	0.095	0.7852	0.1482	0.301
Mof_H 	H 	0.0107	0.8597	0.1512	0.3
Mof_H 	H 	0.977	0.7883	0.1715	0.287
Mof_Cd	Cd	0.84589	0.50397	0.57789	0.442
Mof_Cd	Cd	0.75781	0.49962	0.49825	0.525
Mof_Cd	Cd	0.67366	0.49667	0.41782	0.442
Mof_Cu	Cu	0.97282	0.56723	0.74782	0.89
Mof_O 	O 	0.7288	0.4001	0.57499	-0.292
Mof_O 	O 	0.6414	0.4329	0.53068	-0.287
Mof_O 	O 	0.287	0.1067	0.52647	-0.279
Mof_O 	O 	0.329	0.0882	0.57556	-0.289
Mof_O 	O 	0.0357	0.5619	0.55713	-0.273
Mof_O 	O 	0.9345	0.477	0.5297	-0.286
Mof_O 	O 	0.4796	0.4411	0.43799	-0.275
Mof_O 	O 	0.5845	0.5223	0.46611	-0.29
Mof_O 	O 	0.7965	0.5984	0.42139	-0.286
Mof_O 	O 	0.8816	0.5613	0.46563	-0.28
Mof_O 	O 	0.1856	0.9142	0.42994	-0.29
Mof_O 	O 	0.2198	0.8926	0.47889	-0.282
Mof_O 	O 	0.8596	0.6036	0.71641	-0.429
Mof_O 	O 	0.8475	0.5946	0.77798	-0.434
Mof_N 	N 	0.8556	0.5456	0.6258	-0.177
Mof_N 	N 	0.8424	0.543	0.86905	-0.179
Mof_N 	N 	0.0707	0.5057	0.77612	-0.24
Mof_N 	N 	0.0961	0.53	0.71833	-0.241
Mof_C 	C 	0.6592	0.3891	0.55179	0.323
Mof_C 	C 	0.5871	0.316	0.55102	-0.059
Mof_C 	C 	0.5104	0.299	0.5264	-0.02
Mof_H 	H 	0.5098	0.3313	0.5093	0.059
Mof_C 	C 	0.4347	0.2359	0.52634	-0.023
Mof_H 	H 	0.3818	0.2252	0.5093	0.057
Mof_C 	C 	0.4349	0.1881	0.55066	-0.059
Mof_C 	C 	0.5143	0.2034	0.57509	-0.024
Mof_H 	H 	0.5166	0.1699	0.5918	0.037
Mof_C 	C 	0.59	0.2668	0.57551	-0.026
Mof_H 	H 	0.644	0.2769	0.5924	0.045
Mof_C 	C 	0.3448	0.1214	0.55087	0.311
Mof_C 	C 	0.0328	0.5186	0.53502	0.289
Mof_C 	C 	0.1479	0.5108	0.51509	-0.054
Mof_C 	C 	0.2479	0.5629	0.51633	-0.023
Mof_H 	H 	0.24	0.6057	0.5289	0.054
Mof_C 	C 	0.3584	0.5524	0.49929	-0.019
Mof_H 	H 	0.4263	0.588	0.5003	0.057
Mof_C 	C 	0.3707	0.49	0.48062	-0.056
Mof_C 	C 	0.2704	0.4376	0.47958	-0.021
Mof_H 	H 	0.2781	0.3944	0.4672	0.053
Mof_C 	C 	0.1615	0.4489	0.49644	-0.02
Mof_H 	H 	0.0934	0.4134	0.4954	0.056
Mof_C 	C 	0.4855	0.4825	0.46055	0.298
Mof_C 	C 	0.8649	0.6084	0.44516	0.309
Mof_C 	C 	0.9367	0.6808	0.44762	-0.055
Mof_C 	C 	0.0115	0.6947	0.47316	-0.024
Mof_H 	H 	0.0129	0.6592	0.4892	0.06
Mof_C 	C 	0.0836	0.7593	0.47568	-0.018
Mof_H 	H 	0.1343	0.7681	0.4933	0.055
Mof_C 	C 	0.0816	0.8117	0.45212	-0.068
Mof_C 	C 	0.0043	0.7989	0.42723	-0.017
Mof_H 	H 	0.0004	0.8349	0.4114	0.036
Mof_C 	C 	0.9321	0.7336	0.42507	-0.032
Mof_H 	H 	0.8791	0.7254	0.4078	0.045
Mof_C 	C 	0.1688	0.8778	0.45384	0.319
Mof_C 	C 	0.9366	0.5188	0.85155	0.101
Mof_H 	H 	0.0028	0.4894	0.8605	-0.008
Mof_C 	C 	0.9446	0.534	0.82039	-0.193
Mof_C 	C 	0.048	0.4991	0.80459	0.082
Mof_H 	H 	0.1048	0.4685	0.816	-0.005
Mof_C 	C 	0.1734	0.4607	0.7609	0.002
Mof_H 	H 	0.1341	0.4128	0.7537	0.016
Mof_C 	C 	0.2899	0.4419	0.78067	-0.122
Mof_H 	H 	0.262	0.4115	0.7982	0.047
Mof_H 	H 	0.3293	0.4885	0.7884	0.046
Mof_C 	C 	0.3901	0.3978	0.76176	-0.071
Mof_H 	H 	0.4676	0.3881	0.7743	0.019
Mof_H 	H 	0.353	0.3491	0.7557	0.021
Mof_C 	C 	0.4288	0.4411	0.73363	-0.072
Mof_H 	H 	0.4905	0.411	0.7216	0.022
Mof_H 	H 	0.4728	0.4879	0.7397	0.027
Mof_C 	C 	0.3106	0.4601	0.71394	-0.124
Mof_H 	H 	0.3374	0.49	0.6961	0.046
Mof_H 	H 	0.269	0.4137	0.7066	0.051
Mof_C 	C 	0.2164	0.5048	0.73346	0.009
Mof_H 	H 	0.2627	0.5503	0.7409	0.001
Mof_C 	C 	0.0762	0.5196	0.69007	0.08
Mof_H 	H 	0.1406	0.4942	0.6787	-0.004
Mof_C 	C 	0.9602	0.5444	0.67435	-0.192
Mof_C 	C 	0.9525	0.5254	0.64401	0.101
Mof_H 	H 	0.0203	0.4962	0.6356	-0.008
Mof_C 	C 	0.7635	0.5894	0.6384	0.149
Mof_H 	H 	0.6958	0.6063	0.6256	-0.018
Mof_C 	C 	0.76	0.6117	0.6687	-0.313
Mof_C 	C 	0.8615	0.587	0.68818	0.295
Mof_C 	C 	0.8474	0.5791	0.80643	0.299
Mof_C 	C 	0.7518	0.5881	0.85638	0.159
Mof_H 	H 	0.6865	0.6079	0.8692	-0.022
Mof_C 	C 	0.7483	0.6072	0.82576	-0.338
Mof_C 	C 	0.6482	0.6611	0.68022	0.628
Mof_C 	C 	0.5539	0.684	0.65525	-0.903
Mof_H 	H 	0.599	0.7147	0.6402	0.284
Mof_H 	H 	0.4829	0.7129	0.6641	0.272
Mof_H 	H 	0.5192	0.6392	0.6454	0.283
Mof_C 	C 	0.57	0.6132	0.70381	-0.844
Mof_H 	H 	0.5376	0.5679	0.6939	0.262
Mof_H 	H 	0.497	0.6425	0.7115	0.248
Mof_H 	H 	0.6265	0.5994	0.7207	0.266
Mof_C 	C 	0.6992	0.7323	0.69503	-0.898
Mof_H 	H 	0.7473	0.7616	0.68	0.277
Mof_H 	H 	0.7565	0.7192	0.7119	0.285
Mof_H 	H 	0.6266	0.7619	0.7027	0.268
Mof_C 	C 	0.6374	0.6547	0.8132	0.69
Mof_C 	C 	0.6886	0.7241	0.7966	-0.929
Mof_H 	H 	0.7376	0.7553	0.8108	0.284
Mof_H 	H 	0.6159	0.7529	0.7885	0.275
Mof_H 	H 	0.7451	0.7085	0.7799	0.293
Mof_C 	C 	0.5612	0.6053	0.79102	-0.925
Mof_H 	H 	0.528	0.5614	0.8018	0.284
Mof_H 	H 	0.6181	0.5891	0.7745	0.29
Mof_H 	H 	0.4888	0.6339	0.7826	0.27
Mof_C 	C 	0.547	0.6829	0.83773	-0.974
Mof_H 	H 	0.595	0.7148	0.8518	0.304
Mof_H 	H 	0.5107	0.6403	0.8488	0.302
Mof_H 	H 	0.477	0.7117	0.8285	0.291
Mof_Cd	Cd	0.65411	0.49603	0.07789	0.442
Mof_Cd	Cd	0.74219	0.50038	0.99825	0.525
Mof_Cd	Cd	0.82634	0.50333	0.91782	0.442
Mof_Cu	Cu	0.52718	0.43277	0.24782	0.89
Mof_O 	O 	0.7712	0.5999	0.07499	-0.292
Mof_O 	O 	0.8586	0.5671	0.03068	-0.287
Mof_O 	O 	0.213	0.8933	0.02647	-0.279
Mof_O 	O 	0.171	0.9118	0.07556	-0.288
Mof_O 	O 	0.4643	0.4381	0.05713	-0.273
Mof_O 	O 	0.5655	0.523	0.0297	-0.287
Mof_O 	O 	0.0204	0.5589	0.93799	-0.275
Mof_O 	O 	0.9155	0.4777	0.96611	-0.29
Mof_O 	O 	0.7035	0.4016	0.92139	-0.286
Mof_O 	O 	0.6184	0.4387	0.96563	-0.28
Mof_O 	O 	0.3144	0.0858	0.92994	-0.29
Mof_O 	O 	0.2802	0.1074	0.97889	-0.283
Mof_O 	O 	0.6404	0.3964	0.21641	-0.429
Mof_O 	O 	0.6525	0.4054	0.27798	-0.433
Mof_N 	N 	0.6444	0.4544	0.1258	-0.177
Mof_N 	N 	0.6576	0.457	0.36905	-0.179
Mof_N 	N 	0.4293	0.4943	0.27612	-0.24
Mof_N 	N 	0.4039	0.47	0.21833	-0.241
Mof_C 	C 	0.8408	0.6109	0.05179	0.323
Mof_C 	C 	0.9129	0.684	0.05102	-0.059
Mof_C 	C 	0.9896	0.701	0.0264	-0.023
Mof_H 	H 	0.9902	0.6687	0.0093	0.059
Mof_C 	C 	0.0653	0.7641	0.02634	-0.021
Mof_H 	H 	0.1182	0.7748	0.0093	0.057
Mof_C 	C 	0.0651	0.8119	0.05066	-0.057
Mof_C 	C 	0.9857	0.7966	0.07509	-0.026
Mof_H 	H 	0.9834	0.8301	0.0918	0.038
Mof_C 	C 	0.91	0.7332	0.07551	-0.025
Mof_H 	H 	0.856	0.7231	0.0924	0.044
Mof_C 	C 	0.1552	0.8786	0.05087	0.311
Mof_C 	C 	0.4672	0.4814	0.03502	0.29
Mof_C 	C 	0.3521	0.4892	0.01509	-0.054
Mof_C 	C 	0.2521	0.4371	0.01633	-0.022
Mof_H 	H 	0.26	0.3943	0.0289	0.053
Mof_C 	C 	0.1416	0.4476	0.99929	-0.019
Mof_H 	H 	0.0737	0.412	0.0003	0.057
Mof_C 	C 	0.1293	0.51	0.98062	-0.056
Mof_C 	C 	0.2296	0.5624	0.97958	-0.02
Mof_H 	H 	0.2219	0.6056	0.9672	0.053
Mof_C 	C 	0.3385	0.5511	0.99644	-0.02
Mof_H 	H 	0.4066	0.5866	0.9954	0.056
Mof_C 	C 	0.0145	0.5175	0.96055	0.298
Mof_C 	C 	0.6351	0.3916	0.94516	0.309
Mof_C 	C 	0.5633	0.3192	0.94762	-0.055
Mof_C 	C 	0.4885	0.3053	0.97316	-0.024
Mof_H 	H 	0.4871	0.3408	0.9892	0.06
Mof_C 	C 	0.4164	0.2407	0.97568	-0.018
Mof_H 	H 	0.3657	0.2319	0.9933	0.055
Mof_C 	C 	0.4184	0.1883	0.95212	-0.068
Mof_C 	C 	0.4957	0.2011	0.92723	-0.019
Mof_H 	H 	0.4996	0.1651	0.9114	0.036
Mof_C 	C 	0.5679	0.2664	0.92507	-0.03
Mof_H 	H 	0.6209	0.2746	0.9078	0.045
Mof_C 	C 	0.3312	0.1222	0.95384	0.319
Mof_C 	C 	0.5634	0.4812	0.35155	0.102
Mof_H 	H 	0.4972	0.5106	0.3605	-0.008
Mof_C 	C 	0.5554	0.466	0.32039	-0.192
Mof_C 	C 	0.452	0.5009	0.30459	0.081
Mof_H 	H 	0.3952	0.5315	0.316	-0.005
Mof_C 	C 	0.3266	0.5393	0.2609	0.001
Mof_H 	H 	0.3659	0.5872	0.2537	0.016
Mof_C 	C 	0.2101	0.5581	0.28067	-0.121
Mof_H 	H 	0.238	0.5885	0.2982	0.047
Mof_H 	H 	0.1707	0.5115	0.2884	0.046
Mof_C 	C 	0.1099	0.6022	0.26176	-0.071
Mof_H 	H 	0.0324	0.6119	0.2743	0.02
Mof_H 	H 	0.147	0.6509	0.2557	0.021
Mof_C 	C 	0.0712	0.5589	0.23363	-0.072
Mof_H 	H 	0.0095	0.589	0.2216	0.022
Mof_H 	H 	0.0272	0.5121	0.2397	0.027
Mof_C 	C 	0.1894	0.5399	0.21394	-0.125
Mof_H 	H 	0.1626	0.51	0.1961	0.046
Mof_H 	H 	0.231	0.5863	0.2066	0.051
Mof_C 	C 	0.2836	0.4952	0.23346	0.009
Mof_H 	H 	0.2373	0.4497	0.2409	0
Mof_C 	C 	0.4238	0.4804	0.19007	0.08
Mof_H 	H 	0.3594	0.5058	0.1787	-0.004
Mof_C 	C 	0.5398	0.4556	0.17435	-0.192
Mof_C 	C 	0.5475	0.4746	0.14401	0.101
Mof_H 	H 	0.4797	0.5038	0.1356	-0.008
Mof_C 	C 	0.7365	0.4106	0.1384	0.148
Mof_H 	H 	0.8042	0.3937	0.1256	-0.017
Mof_C 	C 	0.74	0.3883	0.1687	-0.312
Mof_C 	C 	0.6385	0.413	0.18818	0.294
Mof_C 	C 	0.6526	0.4209	0.30643	0.298
Mof_C 	C 	0.7482	0.4119	0.35638	0.159
Mof_H 	H 	0.8135	0.3921	0.3692	-0.022
Mof_C 	C 	0.7517	0.3928	0.32576	-0.337
Mof_C 	C 	0.8518	0.3389	0.18022	0.626
Mof_C 	C 	0.9461	0.316	0.15525	-0.899
Mof_H 	H 	0.901	0.2853	0.1402	0.283
Mof_H 	H 	0.0171	0.2871	0.1641	0.27
Mof_H 	H 	0.9808	0.3608	0.1454	0.282
Mof_C 	C 	0.93	0.3868	0.20381	-0.84
Mof_H 	H 	0.9624	0.4321	0.1939	0.26
Mof_H 	H 	0.003	0.3575	0.2115	0.246
Mof_H 	H 	0.8735	0.4006	0.2207	0.265
Mof_C 	C 	0.8008	0.2677	0.19503	-0.897
Mof_H 	H 	0.7527	0.2384	0.18	0.277
Mof_H 	H 	0.7435	0.2808	0.2119	0.285
Mof_H 	H 	0.8734	0.2381	0.2027	0.268
Mof_C 	C 	0.8626	0.3453	0.3132	0.687
Mof_C 	C 	0.8114	0.2759	0.2966	-0.926
Mof_H 	H 	0.7624	0.2447	0.3108	0.283
Mof_H 	H 	0.8841	0.2471	0.2885	0.274
Mof_H 	H 	0.7549	0.2915	0.2799	0.292
Mof_C 	C 	0.9388	0.3947	0.29102	-0.92
Mof_H 	H 	0.972	0.4386	0.3018	0.282
Mof_H 	H 	0.8819	0.4109	0.2745	0.288
Mof_H 	H 	0.0112	0.3661	0.2826	0.268
Mof_C 	C 	0.953	0.3171	0.33773	-0.967
Mof_H 	H 	0.905	0.2852	0.3518	0.302
Mof_H 	H 	0.9893	0.3597	0.3488	0.301
Mof_H 	H 	0.023	0.2883	0.3285	0.288
_end
