data_functionalizedCrystal
_audit_creation_method	'EQeq! by Chris Wilmer'
_symmetry_space_group_name_H-M	'P1'
_symmetry_Int_Tables_number	1
_symmetry_cell_setting	triclinic
loop_
_symmetry_equiv_pos_as_xyz
  x,y,z
_cell_length_a	12.1962
_cell_length_b	12.3675
_cell_length_c	12.8155
_cell_angle_alpha	90
_cell_angle_beta	91.428
_cell_angle_gamma	90
loop_
_atom_site_label
_atom_site_type_symbol
_atom_site_fract_x
_atom_site_fract_y
_atom_site_fract_z
_atom_site_charge
Mof_C 	C 	0.2459	0.28245	0.26199	0.46
Mof_C 	C 	0.72439	0.99767	0.01267	0.437
Mof_C 	C 	0.23006	0.27129	0.75819	0.425
Mof_C 	C 	0.78496	0.49548	0.9742	0.42
Mof_C 	C 	0.98699	0.23116	0.04883	0.434
Mof_C 	C 	0.48335	0.28929	0.00525	0.435
Mof_H 	H 	0.489	0.237	0.0627	-0.073
Mof_H 	H 	0.989	0.31	0.071	-0.069
Mof_H 	H 	0.189	0.339	0.262	-0.089
Mof_H 	H 	0.288	0.33	0.763	-0.066
Mof_H 	H 	0.731	0.492	0.91	-0.058
Mof_H 	H 	0.788	0.001	0.062	-0.074
Mof_Mn	Mn	0.23534	0.25497	0.01177	1.05
Mof_Mn	Mn	0.73602	0.24709	0.01	1.051
Mof_O 	O 	0.19909	0.23455	0.84414	-0.34
Mof_O 	O 	0.57443	0.31667	0.96969	-0.344
Mof_O 	O 	0.89582	0.18502	0.04892	-0.368
Mof_O 	O 	0.07455	0.18937	0.02342	-0.362
Mof_O 	O 	0.27457	0.24117	0.34712	-0.368
Mof_O 	O 	0.83512	0.58315	0.99275	-0.35
Mof_O 	O 	0.39312	0.32397	0.97388	-0.363
Mof_O 	O 	0.67647	0.08408	0.99073	-0.361
Mof_O 	O 	0.19194	0.24098	0.67234	-0.357
Mof_O 	O 	0.69313	0.90642	0.97886	-0.346
Mof_O 	O 	0.28081	0.25435	0.17541	-0.371
Mof_O 	O 	0.79731	0.41199	0.02574	-0.352
Mof_C 	C 	0.2541	0.78245	0.23801	0.459
Mof_C 	C 	0.77561	0.49767	0.48733	0.426
Mof_C 	C 	0.26994	0.77129	0.74181	0.424
Mof_C 	C 	0.71504	0.99548	0.5258	0.415
Mof_C 	C 	0.51301	0.73116	0.45117	0.441
Mof_C 	C 	0.01665	0.78929	0.49475	0.438
Mof_H 	H 	0.011	0.737	0.4373	-0.073
Mof_H 	H 	0.511	0.81	0.429	-0.069
Mof_H 	H 	0.311	0.839	0.238	-0.089
Mof_H 	H 	0.212	0.83	0.737	-0.066
Mof_H 	H 	0.769	0.992	0.59	-0.057
Mof_H 	H 	0.712	0.501	0.438	-0.068
Mof_Mn	Mn	0.26466	0.75497	0.48823	1.049
Mof_Mn	Mn	0.76398	0.74709	0.49	1.055
Mof_O 	O 	0.30091	0.73455	0.65586	-0.34
Mof_O 	O 	0.92557	0.81667	0.53031	-0.347
Mof_O 	O 	0.60418	0.68502	0.45108	-0.368
Mof_O 	O 	0.42545	0.68937	0.47658	-0.366
Mof_O 	O 	0.22543	0.74117	0.15288	-0.366
Mof_O 	O 	0.66488	0.08315	0.50725	-0.35
Mof_O 	O 	0.10688	0.82397	0.52612	-0.366
Mof_O 	O 	0.82353	0.58408	0.50927	-0.362
Mof_O 	O 	0.30806	0.74098	0.82766	-0.357
Mof_O 	O 	0.80687	0.40642	0.52114	-0.342
Mof_O 	O 	0.21919	0.75435	0.32459	-0.37
Mof_O 	O 	0.70269	0.91199	0.47426	-0.35
Mof_C 	C 	0.7541	0.71755	0.73801	0.459
Mof_C 	C 	0.27561	0.00233	0.98733	0.436
Mof_C 	C 	0.76994	0.72871	0.24181	0.424
Mof_C 	C 	0.21504	0.50452	0.0258	0.419
Mof_C 	C 	0.01301	0.76884	0.95117	0.434
Mof_C 	C 	0.51665	0.71071	0.99475	0.435
Mof_H 	H 	0.511	0.763	0.9373	-0.073
Mof_H 	H 	0.011	0.69	0.929	-0.069
Mof_H 	H 	0.811	0.661	0.738	-0.089
Mof_H 	H 	0.712	0.67	0.237	-0.066
Mof_H 	H 	0.269	0.508	0.09	-0.058
Mof_H 	H 	0.212	0.999	0.938	-0.074
Mof_Mn	Mn	0.76466	0.74503	0.98823	1.05
Mof_Mn	Mn	0.26398	0.75291	0.99	1.051
Mof_O 	O 	0.80091	0.76545	0.15586	-0.34
Mof_O 	O 	0.42557	0.68333	0.03031	-0.344
Mof_O 	O 	0.10418	0.81498	0.95108	-0.368
Mof_O 	O 	0.92545	0.81063	0.97658	-0.362
Mof_O 	O 	0.72543	0.75883	0.65288	-0.368
Mof_O 	O 	0.16488	0.41685	0.00725	-0.35
Mof_O 	O 	0.60688	0.67603	0.02612	-0.363
Mof_O 	O 	0.32353	0.91592	0.00927	-0.361
Mof_O 	O 	0.80806	0.75902	0.32766	-0.357
Mof_O 	O 	0.30687	0.09358	0.02114	-0.346
Mof_O 	O 	0.71919	0.74565	0.82459	-0.371
Mof_O 	O 	0.20269	0.58801	0.97426	-0.352
Mof_C 	C 	0.7459	0.21755	0.76199	0.459
Mof_C 	C 	0.22439	0.50233	0.51267	0.426
Mof_C 	C 	0.73006	0.22871	0.25819	0.424
Mof_C 	C 	0.28496	0.00452	0.4742	0.415
Mof_C 	C 	0.48699	0.26884	0.54883	0.441
Mof_C 	C 	0.98335	0.21071	0.50525	0.438
Mof_H 	H 	0.989	0.263	0.5627	-0.073
Mof_H 	H 	0.489	0.19	0.571	-0.069
Mof_H 	H 	0.689	0.161	0.762	-0.089
Mof_H 	H 	0.788	0.17	0.263	-0.066
Mof_H 	H 	0.231	0.008	0.41	-0.057
Mof_H 	H 	0.288	0.499	0.562	-0.068
Mof_Mn	Mn	0.73534	0.24503	0.51177	1.049
Mof_Mn	Mn	0.23602	0.25291	0.51	1.055
Mof_O 	O 	0.69909	0.26545	0.34414	-0.34
Mof_O 	O 	0.07443	0.18333	0.46969	-0.347
Mof_O 	O 	0.39582	0.31498	0.54892	-0.368
Mof_O 	O 	0.57455	0.31063	0.52342	-0.366
Mof_O 	O 	0.77457	0.25883	0.84712	-0.366
Mof_O 	O 	0.33512	0.91685	0.49275	-0.35
Mof_O 	O 	0.89312	0.17603	0.47388	-0.366
Mof_O 	O 	0.17647	0.41592	0.49073	-0.362
Mof_O 	O 	0.69194	0.25902	0.17234	-0.357
Mof_O 	O 	0.19313	0.59358	0.47886	-0.342
Mof_O 	O 	0.78081	0.24565	0.67541	-0.37
Mof_O 	O 	0.29731	0.08801	0.52574	-0.35
_end
