# CIF file generated by openbabel 3.1.0, see https://openbabel.org
data_I
_chemical_name_common 'image0'
_cell_length_a 39.005
_cell_length_b 27.431
_cell_length_c 27.362
_cell_angle_alpha 90
_cell_angle_beta 133.84
_cell_angle_gamma 90
_space_group_name_H-M_alt 'P 1'
_space_group_name_Hall 'P 1'
loop_
    _symmetry_equiv_pos_as_xyz
    x,y,z
loop_
    _atom_site_label
    _atom_site_type_symbol
    _atom_site_fract_x
    _atom_site_fract_y
    _atom_site_fract_z
    _atom_site_occupancy
    C1       C        0.59740    0.30070    0.82280    1.000
    C2       C        0.59680    0.33440    0.86670    1.000
    C3       C        0.63720    0.35670    0.92350    1.000
    H1       H        0.66630    0.35070    0.93730    1.000
    C4       C        0.63430    0.38790    0.95980    1.000
    H2       H        0.66190    0.40230    0.99890    1.000
    C5       C        0.59130    0.39850    0.93940    1.000
    C6       C        0.55070    0.37590    0.88210    1.000
    H3       H        0.52150    0.38270    0.86790    1.000
    C7       C        0.55280    0.34410    0.84660    1.000
    H4       H        0.52530    0.32850    0.80890    1.000
    C8       C        0.58870    0.43460    0.97760    1.000
    C9       C        0.61080    0.43050    0.03830    1.000
    C10      C        0.61310    0.46790    0.08180    1.000
    H5       H        0.63040    0.46270    0.12730    1.000
    C11      C        0.58820    0.50910    0.04930    1.000
    C12      C        0.55240    0.50670    0.97820    1.000
    C13      C        0.55110    0.47390    0.93840    1.000
    H6       H        0.52900    0.47600    0.89140    1.000
    C14      C        0.63260    0.60970    0.17400    1.000
    H7       H        0.66190    0.62340    0.21080    1.000
    C15      C        0.63070    0.57100    0.13940    1.000
    H8       H        0.65870    0.55970    0.15290    1.000
    C16      C        0.58870    0.54900    0.08620    1.000
    C17      C        0.54830    0.56720    0.06770    1.000
    H9       H        0.51920    0.55360    0.03060    1.000
    C18      C        0.54940    0.60480    0.10200    1.000
    H10      H        0.52160    0.61460    0.09010    1.000
    C19      C        0.59230    0.62810    0.15480    1.000
    C20      C        0.59340    0.67160    0.18920    1.000
    C21      C        0.47420    0.53930    0.85810    1.000
    H11      H        0.48340    0.54170    0.83310    1.000
    H12      H        0.45630    0.50950    0.84540    1.000
    C22      C        0.44580    0.58430    0.84650    1.000
    H13      H        0.41720    0.58670    0.79930    1.000
    H14      H        0.46470    0.61310    0.86040    1.000
    H15      H        0.43780    0.58120    0.87260    1.000
    C23      C        0.60630    0.19930    0.67370    1.000
    C24      C        0.60760    0.16560    0.63140    1.000
    C25      C        0.56650    0.15140    0.56910    1.000
    H16      H        0.53750    0.16350    0.55120    1.000
    C26      C        0.56860    0.11940    0.53310    1.000
    H17      H        0.54020    0.10940    0.49080    1.000
    C27      C        0.61090    0.10070    0.55640    1.000
    C28      C        0.65230    0.11750    0.61850    1.000
    H18      H        0.68150    0.10700    0.63540    1.000
    C29      C        0.65100    0.14940    0.65560    1.000
    H19      H        0.67930    0.16040    0.69730    1.000
    C30      C        0.60970    0.06280    0.51750    1.000
    C31      C        0.58480    0.06860    0.44900    1.000
    C32      C        0.58560    0.03290    0.41510    1.000
    H20      H        0.56740    0.03830    0.36930    1.000
    C33      C        0.60970    0.99100    0.44080    1.000
    C34      C        0.63430    0.98120    0.51020    1.000
    C35      C        0.63560    0.02190    0.55080    1.000
    H21      H        0.65380    0.01830    0.59690    1.000
    C36      C        0.56520    0.89890    0.30640    1.000
    H22      H        0.53660    0.89010    0.26360    1.000
    C37      C        0.56570    0.93660    0.34080    1.000
    H23      H        0.53750    0.95200    0.32190    1.000
    C38      C        0.60910    0.95100    0.40460    1.000
    C39      C        0.64940    0.92810    0.43010    1.000
    H24      H        0.67840    0.93780    0.47180    1.000
    C40      C        0.64840    0.89020    0.39520    1.000
    H25      H        0.67670    0.87570    0.41340    1.000
    C41      C        0.60670    0.87430    0.33510    1.000
    C42      C        0.60460    0.82990    0.30180    1.000
    C43      C        0.54170    0.13270    0.35010    1.000
    H26      H        0.56890    0.13430    0.35530    1.000
    H27      H        0.51650    0.11440    0.30950    1.000
    C44      C        0.52910    0.17100    0.34890    1.000
    H28      H        0.51960    0.18880    0.31100    1.000
    H29      H        0.55460    0.18790    0.39010    1.000
    H30      H        0.50260    0.16820    0.34470    1.000
    C45      C        0.45190    0.26260    0.56280    1.000
    H31      H        0.46840    0.27860    0.55450    1.000
    C46      C        0.40270    0.26260    0.51230    1.000
    H32      H        0.38710    0.27750    0.47090    1.000
    C47      C        0.37770    0.24090    0.52320    1.000
    C48      C        0.40290    0.21670    0.58340    1.000
    H33      H        0.38690    0.19950    0.59180    1.000
    C49      C        0.45090    0.21780    0.63040    1.000
    H34      H        0.46740    0.20130    0.67110    1.000
    C50      C        0.25070    0.24890    0.35800    1.000
    H35      H        0.23530    0.25480    0.31330    1.000
    C51      C        0.29890    0.24710    0.40570    1.000
    H36      H        0.31490    0.25010    0.39180    1.000
    C52      C        0.32390    0.24150    0.46990    1.000
    C53      C        0.29820    0.23040    0.48000    1.000
    H37      H        0.31250    0.22110    0.52330    1.000
    C54      C        0.24940    0.23150    0.42880    1.000
    H38      H        0.23310    0.22220    0.44080    1.000
    N1       N        0.47590    0.24190    0.62050    1.000
    N2       N        0.22540    0.24280    0.37140    1.000
    O1       O        0.56000    0.28400    0.76990    1.000
    O2       O        0.63880    0.29310    0.84670    1.000
    O3       O        0.55560    0.68880    0.16520    1.000
    O4       O        0.63390    0.68820    0.23910    1.000
    O5       O        0.52000    0.54190    0.93910    1.000
    O6       O        0.65080    0.39860    0.07910    1.000
    O7       O        0.56710    0.21230    0.65030    1.000
    O8       O        0.64540    0.21090    0.73160    1.000
    O9       O        0.56400    0.81620    0.24720    1.000
    O10      O        0.64290    0.80870    0.33080    1.000
    O11      O        0.55470    0.11100    0.41120    1.000
    O12      O        0.66280    0.94060    0.54830    1.000
    Zn1      Zn       0.54856    0.24694    0.69537    1.000
    Zn2      Zn       0.65287    0.25316    0.79921    1.000
    C55      C        0.09740    0.80070    0.82280    1.000
    C56      C        0.09680    0.83440    0.86670    1.000
    C57      C        0.13720    0.85670    0.92350    1.000
    H39      H        0.16630    0.85070    0.93730    1.000
    C58      C        0.13430    0.88790    0.95980    1.000
    H40      H        0.16190    0.90230    0.99890    1.000
    C59      C        0.09130    0.89850    0.93940    1.000
    C60      C        0.05070    0.87590    0.88210    1.000
    H41      H        0.02150    0.88270    0.86790    1.000
    C61      C        0.05280    0.84410    0.84660    1.000
    H42      H        0.02530    0.82850    0.80890    1.000
    C62      C        0.08870    0.93460    0.97760    1.000
    C63      C        0.11080    0.93050    0.03830    1.000
    C64      C        0.11310    0.96790    0.08180    1.000
    H43      H        0.13040    0.96270    0.12730    1.000
    C65      C        0.08820    0.00910    0.04930    1.000
    C66      C        0.05240    0.00670    0.97820    1.000
    C67      C        0.05110    0.97390    0.93840    1.000
    H44      H        0.02900    0.97600    0.89140    1.000
    C68      C        0.13260    0.10970    0.17400    1.000
    H45      H        0.16190    0.12340    0.21080    1.000
    C69      C        0.13070    0.07100    0.13940    1.000
    H46      H        0.15870    0.05970    0.15290    1.000
    C70      C        0.08870    0.04900    0.08620    1.000
    C71      C        0.04830    0.06720    0.06770    1.000
    H47      H        0.01920    0.05360    0.03060    1.000
    C72      C        0.04940    0.10480    0.10200    1.000
    H48      H        0.02160    0.11460    0.09010    1.000
    C73      C        0.09230    0.12810    0.15480    1.000
    C74      C        0.09340    0.17160    0.18920    1.000
    C75      C        0.97420    0.03930    0.85810    1.000
    H49      H        0.98340    0.04170    0.83310    1.000
    H50      H        0.95630    0.00950    0.84540    1.000
    C76      C        0.94580    0.08430    0.84650    1.000
    H51      H        0.91720    0.08670    0.79930    1.000
    H52      H        0.96470    0.11310    0.86040    1.000
    H53      H        0.93780    0.08120    0.87260    1.000
    C77      C        0.10630    0.69930    0.67370    1.000
    C78      C        0.10760    0.66560    0.63140    1.000
    C79      C        0.06650    0.65140    0.56910    1.000
    H54      H        0.03750    0.66350    0.55120    1.000
    C80      C        0.06860    0.61940    0.53310    1.000
    H55      H        0.04020    0.60940    0.49080    1.000
    C81      C        0.11090    0.60070    0.55640    1.000
    C82      C        0.15230    0.61750    0.61850    1.000
    H56      H        0.18150    0.60700    0.63540    1.000
    C83      C        0.15100    0.64940    0.65560    1.000
    H57      H        0.17930    0.66040    0.69730    1.000
    C84      C        0.10970    0.56280    0.51750    1.000
    C85      C        0.08480    0.56860    0.44900    1.000
    C86      C        0.08560    0.53290    0.41510    1.000
    H58      H        0.06740    0.53830    0.36930    1.000
    C87      C        0.10970    0.49100    0.44080    1.000
    C88      C        0.13430    0.48120    0.51020    1.000
    C89      C        0.13560    0.52190    0.55080    1.000
    H59      H        0.15380    0.51830    0.59690    1.000
    C90      C        0.06520    0.39890    0.30640    1.000
    H60      H        0.03660    0.39010    0.26360    1.000
    C91      C        0.06570    0.43660    0.34080    1.000
    H61      H        0.03750    0.45200    0.32190    1.000
    C92      C        0.10910    0.45100    0.40460    1.000
    C93      C        0.14940    0.42810    0.43010    1.000
    H62      H        0.17840    0.43780    0.47180    1.000
    C94      C        0.14840    0.39020    0.39520    1.000
    H63      H        0.17670    0.37570    0.41340    1.000
    C95      C        0.10670    0.37430    0.33510    1.000
    C96      C        0.10460    0.32990    0.30180    1.000
    C97      C        0.04170    0.63270    0.35010    1.000
    H64      H        0.06890    0.63430    0.35530    1.000
    H65      H        0.01650    0.61440    0.30950    1.000
    C98      C        0.02910    0.67100    0.34890    1.000
    H66      H        0.01960    0.68880    0.31100    1.000
    H67      H        0.05460    0.68790    0.39010    1.000
    H68      H        0.00260    0.66820    0.34470    1.000
    C99      C        0.95190    0.76260    0.56280    1.000
    H69      H        0.96840    0.77860    0.55450    1.000
    C100     C        0.90270    0.76260    0.51230    1.000
    H70      H        0.88710    0.77750    0.47090    1.000
    C101     C        0.87770    0.74090    0.52320    1.000
    C102     C        0.90290    0.71670    0.58340    1.000
    H71      H        0.88690    0.69950    0.59180    1.000
    C103     C        0.95090    0.71780    0.63040    1.000
    H72      H        0.96740    0.70130    0.67110    1.000
    C104     C        0.75070    0.74890    0.35800    1.000
    H73      H        0.73530    0.75480    0.31330    1.000
    C105     C        0.79890    0.74710    0.40570    1.000
    H74      H        0.81490    0.75010    0.39180    1.000
    C106     C        0.82390    0.74150    0.46990    1.000
    C107     C        0.79820    0.73040    0.48000    1.000
    H75      H        0.81250    0.72110    0.52330    1.000
    C108     C        0.74940    0.73150    0.42880    1.000
    H76      H        0.73310    0.72220    0.44080    1.000
    N3       N        0.97590    0.74190    0.62050    1.000
    N4       N        0.72540    0.74280    0.37140    1.000
    O13      O        0.06000    0.78400    0.76990    1.000
    O14      O        0.13880    0.79310    0.84670    1.000
    O15      O        0.05560    0.18880    0.16520    1.000
    O16      O        0.13390    0.18820    0.23910    1.000
    O17      O        0.02000    0.04190    0.93910    1.000
    O18      O        0.15080    0.89860    0.07910    1.000
    O19      O        0.06710    0.71230    0.65030    1.000
    O20      O        0.14540    0.71090    0.73160    1.000
    O21      O        0.06400    0.31620    0.24720    1.000
    O22      O        0.14290    0.30870    0.33080    1.000
    O23      O        0.05470    0.61100    0.41120    1.000
    O24      O        0.16280    0.44060    0.54830    1.000
    Zn3      Zn       0.04856    0.74694    0.69537    1.000
    Zn4      Zn       0.15287    0.75316    0.79921    1.000
    C109     C        0.59740    0.69930    0.32280    1.000
    C110     C        0.59680    0.66560    0.36670    1.000
    C111     C        0.63720    0.64330    0.42350    1.000
    H77      H        0.66630    0.64930    0.43730    1.000
    C112     C        0.63430    0.61210    0.45980    1.000
    H78      H        0.66190    0.59770    0.49890    1.000
    C113     C        0.59130    0.60150    0.43940    1.000
    C114     C        0.55070    0.62410    0.38210    1.000
    H79      H        0.52150    0.61730    0.36790    1.000
    C115     C        0.55280    0.65590    0.34660    1.000
    H80      H        0.52530    0.67150    0.30890    1.000
    C116     C        0.58870    0.56540    0.47760    1.000
    C117     C        0.61080    0.56950    0.53830    1.000
    C118     C        0.61310    0.53210    0.58180    1.000
    H81      H        0.63040    0.53730    0.62730    1.000
    C119     C        0.58820    0.49090    0.54930    1.000
    C120     C        0.55240    0.49330    0.47820    1.000
    C121     C        0.55110    0.52610    0.43840    1.000
    H82      H        0.52900    0.52400    0.39140    1.000
    C122     C        0.63260    0.39030    0.67400    1.000
    H83      H        0.66190    0.37660    0.71080    1.000
    C123     C        0.63070    0.42900    0.63940    1.000
    H84      H        0.65870    0.44030    0.65290    1.000
    C124     C        0.58870    0.45100    0.58620    1.000
    C125     C        0.54830    0.43280    0.56770    1.000
    H85      H        0.51920    0.44640    0.53060    1.000
    C126     C        0.54940    0.39520    0.60200    1.000
    H86      H        0.52160    0.38540    0.59010    1.000
    C127     C        0.59230    0.37190    0.65480    1.000
    C128     C        0.59340    0.32840    0.68920    1.000
    C129     C        0.47420    0.46070    0.35810    1.000
    H87      H        0.48340    0.45830    0.33310    1.000
    H88      H        0.45630    0.49050    0.34540    1.000
    C130     C        0.44580    0.41570    0.34650    1.000
    H89      H        0.41720    0.41330    0.29930    1.000
    H90      H        0.46470    0.38690    0.36040    1.000
    H91      H        0.43780    0.41880    0.37260    1.000
    C131     C        0.60630    0.80070    0.17370    1.000
    C132     C        0.60760    0.83440    0.13140    1.000
    C133     C        0.56650    0.84860    0.06910    1.000
    H92      H        0.53750    0.83650    0.05120    1.000
    C134     C        0.56860    0.88060    0.03310    1.000
    H93      H        0.54020    0.89060    0.99080    1.000
    C135     C        0.61090    0.89930    0.05640    1.000
    C136     C        0.65230    0.88250    0.11850    1.000
    H94      H        0.68150    0.89300    0.13540    1.000
    C137     C        0.65100    0.85060    0.15560    1.000
    H95      H        0.67930    0.83960    0.19730    1.000
    C138     C        0.60970    0.93720    0.01750    1.000
    C139     C        0.58480    0.93140    0.94900    1.000
    C140     C        0.58560    0.96710    0.91510    1.000
    H96      H        0.56740    0.96170    0.86930    1.000
    C141     C        0.60970    0.00900    0.94080    1.000
    C142     C        0.63430    0.01880    0.01020    1.000
    C143     C        0.63560    0.97810    0.05080    1.000
    H97      H        0.65380    0.98170    0.09690    1.000
    C144     C        0.56520    0.10110    0.80640    1.000
    H98      H        0.53660    0.10990    0.76360    1.000
    C145     C        0.56570    0.06340    0.84080    1.000
    H99      H        0.53750    0.04800    0.82190    1.000
    C146     C        0.60910    0.04900    0.90460    1.000
    C147     C        0.64940    0.07190    0.93010    1.000
    H100     H        0.67840    0.06220    0.97180    1.000
    C148     C        0.64840    0.10980    0.89520    1.000
    H101     H        0.67670    0.12430    0.91340    1.000
    C149     C        0.60670    0.12570    0.83510    1.000
    C150     C        0.60460    0.17010    0.80180    1.000
    C151     C        0.54170    0.86730    0.85010    1.000
    H102     H        0.56890    0.86570    0.85530    1.000
    H103     H        0.51650    0.88560    0.80950    1.000
    C152     C        0.52910    0.82900    0.84890    1.000
    H104     H        0.51960    0.81120    0.81100    1.000
    H105     H        0.55460    0.81210    0.89010    1.000
    H106     H        0.50260    0.83180    0.84470    1.000
    C153     C        0.45190    0.73740    0.06280    1.000
    H107     H        0.46840    0.72140    0.05450    1.000
    C154     C        0.40270    0.73740    0.01230    1.000
    H108     H        0.38710    0.72250    0.97090    1.000
    C155     C        0.37770    0.75910    0.02320    1.000
    C156     C        0.40290    0.78330    0.08340    1.000
    H109     H        0.38690    0.80050    0.09180    1.000
    C157     C        0.45090    0.78220    0.13040    1.000
    H110     H        0.46740    0.79870    0.17110    1.000
    C158     C        0.25070    0.75110    0.85800    1.000
    H111     H        0.23530    0.74520    0.81330    1.000
    C159     C        0.29890    0.75290    0.90570    1.000
    H112     H        0.31490    0.74990    0.89180    1.000
    C160     C        0.32390    0.75850    0.96990    1.000
    C161     C        0.29820    0.76960    0.98000    1.000
    H113     H        0.31250    0.77890    0.02330    1.000
    C162     C        0.24940    0.76850    0.92880    1.000
    H114     H        0.23310    0.77780    0.94080    1.000
    N5       N        0.47590    0.75810    0.12050    1.000
    N6       N        0.22540    0.75720    0.87140    1.000
    O25      O        0.56000    0.71600    0.26990    1.000
    O26      O        0.63880    0.70690    0.34670    1.000
    O27      O        0.55560    0.31120    0.66520    1.000
    O28      O        0.63390    0.31180    0.73910    1.000
    O29      O        0.52000    0.45810    0.43910    1.000
    O30      O        0.65080    0.60140    0.57910    1.000
    O31      O        0.56710    0.78770    0.15030    1.000
    O32      O        0.64540    0.78910    0.23160    1.000
    O33      O        0.56400    0.18380    0.74720    1.000
    O34      O        0.64290    0.19130    0.83080    1.000
    O35      O        0.55470    0.88900    0.91120    1.000
    O36      O        0.66280    0.05940    0.04830    1.000
    Zn5      Zn       0.54856    0.75306    0.19537    1.000
    Zn6      Zn       0.65287    0.74684    0.29921    1.000
    C163     C        0.09740    0.19930    0.32280    1.000
    C164     C        0.09680    0.16560    0.36670    1.000
    C165     C        0.13720    0.14330    0.42350    1.000
    H115     H        0.16630    0.14930    0.43730    1.000
    C166     C        0.13430    0.11210    0.45980    1.000
    H116     H        0.16190    0.09770    0.49890    1.000
    C167     C        0.09130    0.10150    0.43940    1.000
    C168     C        0.05070    0.12410    0.38210    1.000
    H117     H        0.02150    0.11730    0.36790    1.000
    C169     C        0.05280    0.15590    0.34660    1.000
    H118     H        0.02530    0.17150    0.30890    1.000
    C170     C        0.08870    0.06540    0.47760    1.000
    C171     C        0.11080    0.06950    0.53830    1.000
    C172     C        0.11310    0.03210    0.58180    1.000
    H119     H        0.13040    0.03730    0.62730    1.000
    C173     C        0.08820    0.99090    0.54930    1.000
    C174     C        0.05240    0.99330    0.47820    1.000
    C175     C        0.05110    0.02610    0.43840    1.000
    H120     H        0.02900    0.02400    0.39140    1.000
    C176     C        0.13260    0.89030    0.67400    1.000
    H121     H        0.16190    0.87660    0.71080    1.000
    C177     C        0.13070    0.92900    0.63940    1.000
    H122     H        0.15870    0.94030    0.65290    1.000
    C178     C        0.08870    0.95100    0.58620    1.000
    C179     C        0.04830    0.93280    0.56770    1.000
    H123     H        0.01920    0.94640    0.53060    1.000
    C180     C        0.04940    0.89520    0.60200    1.000
    H124     H        0.02160    0.88540    0.59010    1.000
    C181     C        0.09230    0.87190    0.65480    1.000
    C182     C        0.09340    0.82840    0.68920    1.000
    C183     C        0.97420    0.96070    0.35810    1.000
    H125     H        0.98340    0.95830    0.33310    1.000
    H126     H        0.95630    0.99050    0.34540    1.000
    C184     C        0.94580    0.91570    0.34650    1.000
    H127     H        0.91720    0.91330    0.29930    1.000
    H128     H        0.96470    0.88690    0.36040    1.000
    H129     H        0.93780    0.91880    0.37260    1.000
    C185     C        0.10630    0.30070    0.17370    1.000
    C186     C        0.10760    0.33440    0.13140    1.000
    C187     C        0.06650    0.34860    0.06910    1.000
    H130     H        0.03750    0.33650    0.05120    1.000
    C188     C        0.06860    0.38060    0.03310    1.000
    H131     H        0.04020    0.39060    0.99080    1.000
    C189     C        0.11090    0.39930    0.05640    1.000
    C190     C        0.15230    0.38250    0.11850    1.000
    H132     H        0.18150    0.39300    0.13540    1.000
    C191     C        0.15100    0.35060    0.15560    1.000
    H133     H        0.17930    0.33960    0.19730    1.000
    C192     C        0.10970    0.43720    0.01750    1.000
    C193     C        0.08480    0.43140    0.94900    1.000
    C194     C        0.08560    0.46710    0.91510    1.000
    H134     H        0.06740    0.46170    0.86930    1.000
    C195     C        0.10970    0.50900    0.94080    1.000
    C196     C        0.13430    0.51880    0.01020    1.000
    C197     C        0.13560    0.47810    0.05080    1.000
    H135     H        0.15380    0.48170    0.09690    1.000
    C198     C        0.06520    0.60110    0.80640    1.000
    H136     H        0.03660    0.60990    0.76360    1.000
    C199     C        0.06570    0.56340    0.84080    1.000
    H137     H        0.03750    0.54800    0.82190    1.000
    C200     C        0.10910    0.54900    0.90460    1.000
    C201     C        0.14940    0.57190    0.93010    1.000
    H138     H        0.17840    0.56220    0.97180    1.000
    C202     C        0.14840    0.60980    0.89520    1.000
    H139     H        0.17670    0.62430    0.91340    1.000
    C203     C        0.10670    0.62570    0.83510    1.000
    C204     C        0.10460    0.67010    0.80180    1.000
    C205     C        0.04170    0.36730    0.85010    1.000
    H140     H        0.06890    0.36570    0.85530    1.000
    H141     H        0.01650    0.38560    0.80950    1.000
    C206     C        0.02910    0.32900    0.84890    1.000
    H142     H        0.01960    0.31120    0.81100    1.000
    H143     H        0.05460    0.31210    0.89010    1.000
    H144     H        0.00260    0.33180    0.84470    1.000
    C207     C        0.95190    0.23740    0.06280    1.000
    H145     H        0.96840    0.22140    0.05450    1.000
    C208     C        0.90270    0.23740    0.01230    1.000
    H146     H        0.88710    0.22250    0.97090    1.000
    C209     C        0.87770    0.25910    0.02320    1.000
    C210     C        0.90290    0.28330    0.08340    1.000
    H147     H        0.88690    0.30050    0.09180    1.000
    C211     C        0.95090    0.28220    0.13040    1.000
    H148     H        0.96740    0.29870    0.17110    1.000
    C212     C        0.75070    0.25110    0.85800    1.000
    H149     H        0.73530    0.24520    0.81330    1.000
    C213     C        0.79890    0.25290    0.90570    1.000
    H150     H        0.81490    0.24990    0.89180    1.000
    C214     C        0.82390    0.25850    0.96990    1.000
    C215     C        0.79820    0.26960    0.98000    1.000
    H151     H        0.81250    0.27890    0.02330    1.000
    C216     C        0.74940    0.26850    0.92880    1.000
    H152     H        0.73310    0.27780    0.94080    1.000
    N7       N        0.97590    0.25810    0.12050    1.000
    N8       N        0.72540    0.25720    0.87140    1.000
    O37      O        0.06000    0.21600    0.26990    1.000
    O38      O        0.13880    0.20690    0.34670    1.000
    O39      O        0.05560    0.81120    0.66520    1.000
    O40      O        0.13390    0.81180    0.73910    1.000
    O41      O        0.02000    0.95810    0.43910    1.000
    O42      O        0.15080    0.10140    0.57910    1.000
    O43      O        0.06710    0.28770    0.15030    1.000
    O44      O        0.14540    0.28910    0.23160    1.000
    O45      O        0.06400    0.68380    0.74720    1.000
    O46      O        0.14290    0.69130    0.83080    1.000
    O47      O        0.05470    0.38900    0.91120    1.000
    O48      O        0.16280    0.55940    0.04830    1.000
    Zn7      Zn       0.04856    0.25306    0.19537    1.000
    Zn8      Zn       0.15287    0.24684    0.29921    1.000
    C217     C        0.40260    0.30070    0.67720    1.000
    C218     C        0.40320    0.33440    0.63330    1.000
    C219     C        0.36280    0.35670    0.57650    1.000
    H153     H        0.33370    0.35070    0.56270    1.000
    C220     C        0.36570    0.38790    0.54020    1.000
    H154     H        0.33810    0.40230    0.50110    1.000
    C221     C        0.40870    0.39850    0.56060    1.000
    C222     C        0.44930    0.37590    0.61790    1.000
    H155     H        0.47850    0.38270    0.63210    1.000
    C223     C        0.44720    0.34410    0.65340    1.000
    H156     H        0.47470    0.32850    0.69110    1.000
    C224     C        0.41130    0.43460    0.52240    1.000
    C225     C        0.38920    0.43050    0.46170    1.000
    C226     C        0.38690    0.46790    0.41820    1.000
    H157     H        0.36960    0.46270    0.37270    1.000
    C227     C        0.41180    0.50910    0.45070    1.000
    C228     C        0.44760    0.50670    0.52180    1.000
    C229     C        0.44890    0.47390    0.56160    1.000
    H158     H        0.47100    0.47600    0.60860    1.000
    C230     C        0.36740    0.60970    0.32600    1.000
    H159     H        0.33810    0.62340    0.28920    1.000
    C231     C        0.36930    0.57100    0.36060    1.000
    H160     H        0.34130    0.55970    0.34710    1.000
    C232     C        0.41130    0.54900    0.41380    1.000
    C233     C        0.45170    0.56720    0.43230    1.000
    H161     H        0.48080    0.55360    0.46940    1.000
    C234     C        0.45060    0.60480    0.39800    1.000
    H162     H        0.47840    0.61460    0.40990    1.000
    C235     C        0.40770    0.62810    0.34520    1.000
    C236     C        0.40660    0.67160    0.31080    1.000
    C237     C        0.52580    0.53930    0.64190    1.000
    H163     H        0.51660    0.54170    0.66690    1.000
    H164     H        0.54370    0.50950    0.65460    1.000
    C238     C        0.55420    0.58430    0.65350    1.000
    H165     H        0.58280    0.58670    0.70070    1.000
    H166     H        0.53530    0.61310    0.63960    1.000
    H167     H        0.56220    0.58120    0.62740    1.000
    C239     C        0.39370    0.19930    0.82630    1.000
    C240     C        0.39240    0.16560    0.86860    1.000
    C241     C        0.43350    0.15140    0.93090    1.000
    H168     H        0.46250    0.16350    0.94880    1.000
    C242     C        0.43140    0.11940    0.96690    1.000
    H169     H        0.45980    0.10940    0.00920    1.000
    C243     C        0.38910    0.10070    0.94360    1.000
    C244     C        0.34770    0.11750    0.88150    1.000
    H170     H        0.31850    0.10700    0.86460    1.000
    C245     C        0.34900    0.14940    0.84440    1.000
    H171     H        0.32070    0.16040    0.80270    1.000
    C246     C        0.39030    0.06280    0.98250    1.000
    C247     C        0.41520    0.06860    0.05100    1.000
    C248     C        0.41440    0.03290    0.08490    1.000
    H172     H        0.43260    0.03830    0.13070    1.000
    C249     C        0.39030    0.99100    0.05920    1.000
    C250     C        0.36570    0.98120    0.98980    1.000
    C251     C        0.36440    0.02190    0.94920    1.000
    H173     H        0.34620    0.01830    0.90310    1.000
    C252     C        0.43480    0.89890    0.19360    1.000
    H174     H        0.46340    0.89010    0.23640    1.000
    C253     C        0.43430    0.93660    0.15920    1.000
    H175     H        0.46250    0.95200    0.17810    1.000
    C254     C        0.39090    0.95100    0.09540    1.000
    C255     C        0.35060    0.92810    0.06990    1.000
    H176     H        0.32160    0.93780    0.02820    1.000
    C256     C        0.35160    0.89020    0.10480    1.000
    H177     H        0.32330    0.87570    0.08660    1.000
    C257     C        0.39330    0.87430    0.16490    1.000
    C258     C        0.39540    0.82990    0.19820    1.000
    C259     C        0.45830    0.13270    0.14990    1.000
    H178     H        0.43110    0.13430    0.14470    1.000
    H179     H        0.48350    0.11440    0.19050    1.000
    C260     C        0.47090    0.17100    0.15110    1.000
    H180     H        0.48040    0.18880    0.18900    1.000
    H181     H        0.44540    0.18790    0.10990    1.000
    H182     H        0.49740    0.16820    0.15530    1.000
    C261     C        0.54810    0.26260    0.93720    1.000
    H183     H        0.53160    0.27860    0.94550    1.000
    C262     C        0.59730    0.26260    0.98770    1.000
    H184     H        0.61290    0.27750    0.02910    1.000
    C263     C        0.62230    0.24090    0.97680    1.000
    C264     C        0.59710    0.21670    0.91660    1.000
    H185     H        0.61310    0.19950    0.90820    1.000
    C265     C        0.54910    0.21780    0.86960    1.000
    H186     H        0.53260    0.20130    0.82890    1.000
    C266     C        0.74930    0.24890    0.14200    1.000
    H187     H        0.76470    0.25480    0.18670    1.000
    C267     C        0.70110    0.24710    0.09430    1.000
    H188     H        0.68510    0.25010    0.10820    1.000
    C268     C        0.67610    0.24150    0.03010    1.000
    C269     C        0.70180    0.23040    0.02000    1.000
    H189     H        0.68750    0.22110    0.97670    1.000
    C270     C        0.75060    0.23150    0.07120    1.000
    H190     H        0.76690    0.22220    0.05920    1.000
    N9       N        0.52410    0.24190    0.87950    1.000
    N10      N        0.77460    0.24280    0.12860    1.000
    O49      O        0.44000    0.28400    0.73010    1.000
    O50      O        0.36120    0.29310    0.65330    1.000
    O51      O        0.44440    0.68880    0.33480    1.000
    O52      O        0.36610    0.68820    0.26090    1.000
    O53      O        0.48000    0.54190    0.56090    1.000
    O54      O        0.34920    0.39860    0.42090    1.000
    O55      O        0.43290    0.21230    0.84970    1.000
    O56      O        0.35460    0.21090    0.76840    1.000
    O57      O        0.43600    0.81620    0.25280    1.000
    O58      O        0.35710    0.80870    0.16920    1.000
    O59      O        0.44530    0.11100    0.08880    1.000
    O60      O        0.33720    0.94060    0.95170    1.000
    Zn9      Zn       0.45144    0.24694    0.80463    1.000
    Zn10     Zn       0.34713    0.25316    0.70079    1.000
    C271     C        0.90260    0.80070    0.67720    1.000
    C272     C        0.90320    0.83440    0.63330    1.000
    C273     C        0.86280    0.85670    0.57650    1.000
    H191     H        0.83370    0.85070    0.56270    1.000
    C274     C        0.86570    0.88790    0.54020    1.000
    H192     H        0.83810    0.90230    0.50110    1.000
    C275     C        0.90870    0.89850    0.56060    1.000
    C276     C        0.94930    0.87590    0.61790    1.000
    H193     H        0.97850    0.88270    0.63210    1.000
    C277     C        0.94720    0.84410    0.65340    1.000
    H194     H        0.97470    0.82850    0.69110    1.000
    C278     C        0.91130    0.93460    0.52240    1.000
    C279     C        0.88920    0.93050    0.46170    1.000
    C280     C        0.88690    0.96790    0.41820    1.000
    H195     H        0.86960    0.96270    0.37270    1.000
    C281     C        0.91180    0.00910    0.45070    1.000
    C282     C        0.94760    0.00670    0.52180    1.000
    C283     C        0.94890    0.97390    0.56160    1.000
    H196     H        0.97100    0.97600    0.60860    1.000
    C284     C        0.86740    0.10970    0.32600    1.000
    H197     H        0.83810    0.12340    0.28920    1.000
    C285     C        0.86930    0.07100    0.36060    1.000
    H198     H        0.84130    0.05970    0.34710    1.000
    C286     C        0.91130    0.04900    0.41380    1.000
    C287     C        0.95170    0.06720    0.43230    1.000
    H199     H        0.98080    0.05360    0.46940    1.000
    C288     C        0.95060    0.10480    0.39800    1.000
    H200     H        0.97840    0.11460    0.40990    1.000
    C289     C        0.90770    0.12810    0.34520    1.000
    C290     C        0.90660    0.17160    0.31080    1.000
    C291     C        0.02580    0.03930    0.64190    1.000
    H201     H        0.01660    0.04170    0.66690    1.000
    H202     H        0.04370    0.00950    0.65460    1.000
    C292     C        0.05420    0.08430    0.65350    1.000
    H203     H        0.08280    0.08670    0.70070    1.000
    H204     H        0.03530    0.11310    0.63960    1.000
    H205     H        0.06220    0.08120    0.62740    1.000
    C293     C        0.89370    0.69930    0.82630    1.000
    C294     C        0.89240    0.66560    0.86860    1.000
    C295     C        0.93350    0.65140    0.93090    1.000
    H206     H        0.96250    0.66350    0.94880    1.000
    C296     C        0.93140    0.61940    0.96690    1.000
    H207     H        0.95980    0.60940    0.00920    1.000
    C297     C        0.88910    0.60070    0.94360    1.000
    C298     C        0.84770    0.61750    0.88150    1.000
    H208     H        0.81850    0.60700    0.86460    1.000
    C299     C        0.84900    0.64940    0.84440    1.000
    H209     H        0.82070    0.66040    0.80270    1.000
    C300     C        0.89030    0.56280    0.98250    1.000
    C301     C        0.91520    0.56860    0.05100    1.000
    C302     C        0.91440    0.53290    0.08490    1.000
    H210     H        0.93260    0.53830    0.13070    1.000
    C303     C        0.89030    0.49100    0.05920    1.000
    C304     C        0.86570    0.48120    0.98980    1.000
    C305     C        0.86440    0.52190    0.94920    1.000
    H211     H        0.84620    0.51830    0.90310    1.000
    C306     C        0.93480    0.39890    0.19360    1.000
    H212     H        0.96340    0.39010    0.23640    1.000
    C307     C        0.93430    0.43660    0.15920    1.000
    H213     H        0.96250    0.45200    0.17810    1.000
    C308     C        0.89090    0.45100    0.09540    1.000
    C309     C        0.85060    0.42810    0.06990    1.000
    H214     H        0.82160    0.43780    0.02820    1.000
    C310     C        0.85160    0.39020    0.10480    1.000
    H215     H        0.82330    0.37570    0.08660    1.000
    C311     C        0.89330    0.37430    0.16490    1.000
    C312     C        0.89540    0.32990    0.19820    1.000
    C313     C        0.95830    0.63270    0.14990    1.000
    H216     H        0.93110    0.63430    0.14470    1.000
    H217     H        0.98350    0.61440    0.19050    1.000
    C314     C        0.97090    0.67100    0.15110    1.000
    H218     H        0.98040    0.68880    0.18900    1.000
    H219     H        0.94540    0.68790    0.10990    1.000
    H220     H        0.99740    0.66820    0.15530    1.000
    C315     C        0.04810    0.76260    0.93720    1.000
    H221     H        0.03160    0.77860    0.94550    1.000
    C316     C        0.09730    0.76260    0.98770    1.000
    H222     H        0.11290    0.77750    0.02910    1.000
    C317     C        0.12230    0.74090    0.97680    1.000
    C318     C        0.09710    0.71670    0.91660    1.000
    H223     H        0.11310    0.69950    0.90820    1.000
    C319     C        0.04910    0.71780    0.86960    1.000
    H224     H        0.03260    0.70130    0.82890    1.000
    C320     C        0.24930    0.74890    0.14200    1.000
    H225     H        0.26470    0.75480    0.18670    1.000
    C321     C        0.20110    0.74710    0.09430    1.000
    H226     H        0.18510    0.75010    0.10820    1.000
    C322     C        0.17610    0.74150    0.03010    1.000
    C323     C        0.20180    0.73040    0.02000    1.000
    H227     H        0.18750    0.72110    0.97670    1.000
    C324     C        0.25060    0.73150    0.07120    1.000
    H228     H        0.26690    0.72220    0.05920    1.000
    N11      N        0.02410    0.74190    0.87950    1.000
    N12      N        0.27460    0.74280    0.12860    1.000
    O61      O        0.94000    0.78400    0.73010    1.000
    O62      O        0.86120    0.79310    0.65330    1.000
    O63      O        0.94440    0.18880    0.33480    1.000
    O64      O        0.86610    0.18820    0.26090    1.000
    O65      O        0.98000    0.04190    0.56090    1.000
    O66      O        0.84920    0.89860    0.42090    1.000
    O67      O        0.93290    0.71230    0.84970    1.000
    O68      O        0.85460    0.71090    0.76840    1.000
    O69      O        0.93600    0.31620    0.25280    1.000
    O70      O        0.85710    0.30870    0.16920    1.000
    O71      O        0.94530    0.61100    0.08880    1.000
    O72      O        0.83720    0.44060    0.95170    1.000
    Zn11     Zn       0.95144    0.74694    0.80463    1.000
    Zn12     Zn       0.84713    0.75316    0.70079    1.000
    C325     C        0.40260    0.69930    0.17720    1.000
    C326     C        0.40320    0.66560    0.13330    1.000
    C327     C        0.36280    0.64330    0.07650    1.000
    H229     H        0.33370    0.64930    0.06270    1.000
    C328     C        0.36570    0.61210    0.04020    1.000
    H230     H        0.33810    0.59770    0.00110    1.000
    C329     C        0.40870    0.60150    0.06060    1.000
    C330     C        0.44930    0.62410    0.11790    1.000
    H231     H        0.47850    0.61730    0.13210    1.000
    C331     C        0.44720    0.65590    0.15340    1.000
    H232     H        0.47470    0.67150    0.19110    1.000
    C332     C        0.41130    0.56540    0.02240    1.000
    C333     C        0.38920    0.56950    0.96170    1.000
    C334     C        0.38690    0.53210    0.91820    1.000
    H233     H        0.36960    0.53730    0.87270    1.000
    C335     C        0.41180    0.49090    0.95070    1.000
    C336     C        0.44760    0.49330    0.02180    1.000
    C337     C        0.44890    0.52610    0.06160    1.000
    H234     H        0.47100    0.52400    0.10860    1.000
    C338     C        0.36740    0.39030    0.82600    1.000
    H235     H        0.33810    0.37660    0.78920    1.000
    C339     C        0.36930    0.42900    0.86060    1.000
    H236     H        0.34130    0.44030    0.84710    1.000
    C340     C        0.41130    0.45100    0.91380    1.000
    C341     C        0.45170    0.43280    0.93230    1.000
    H237     H        0.48080    0.44640    0.96940    1.000
    C342     C        0.45060    0.39520    0.89800    1.000
    H238     H        0.47840    0.38540    0.90990    1.000
    C343     C        0.40770    0.37190    0.84520    1.000
    C344     C        0.40660    0.32840    0.81080    1.000
    C345     C        0.52580    0.46070    0.14190    1.000
    H239     H        0.51660    0.45830    0.16690    1.000
    H240     H        0.54370    0.49050    0.15460    1.000
    C346     C        0.55420    0.41570    0.15350    1.000
    H241     H        0.58280    0.41330    0.20070    1.000
    H242     H        0.53530    0.38690    0.13960    1.000
    H243     H        0.56220    0.41880    0.12740    1.000
    C347     C        0.39370    0.80070    0.32630    1.000
    C348     C        0.39240    0.83440    0.36860    1.000
    C349     C        0.43350    0.84860    0.43090    1.000
    H244     H        0.46250    0.83650    0.44880    1.000
    C350     C        0.43140    0.88060    0.46690    1.000
    H245     H        0.45980    0.89060    0.50920    1.000
    C351     C        0.38910    0.89930    0.44360    1.000
    C352     C        0.34770    0.88250    0.38150    1.000
    H246     H        0.31850    0.89300    0.36460    1.000
    C353     C        0.34900    0.85060    0.34440    1.000
    H247     H        0.32070    0.83960    0.30270    1.000
    C354     C        0.39030    0.93720    0.48250    1.000
    C355     C        0.41520    0.93140    0.55100    1.000
    C356     C        0.41440    0.96710    0.58490    1.000
    H248     H        0.43260    0.96170    0.63070    1.000
    C357     C        0.39030    0.00900    0.55920    1.000
    C358     C        0.36570    0.01880    0.48980    1.000
    C359     C        0.36440    0.97810    0.44920    1.000
    H249     H        0.34620    0.98170    0.40310    1.000
    C360     C        0.43480    0.10110    0.69360    1.000
    H250     H        0.46340    0.10990    0.73640    1.000
    C361     C        0.43430    0.06340    0.65920    1.000
    H251     H        0.46250    0.04800    0.67810    1.000
    C362     C        0.39090    0.04900    0.59540    1.000
    C363     C        0.35060    0.07190    0.56990    1.000
    H252     H        0.32160    0.06220    0.52820    1.000
    C364     C        0.35160    0.10980    0.60480    1.000
    H253     H        0.32330    0.12430    0.58660    1.000
    C365     C        0.39330    0.12570    0.66490    1.000
    C366     C        0.39540    0.17010    0.69820    1.000
    C367     C        0.45830    0.86730    0.64990    1.000
    H254     H        0.43110    0.86570    0.64470    1.000
    H255     H        0.48350    0.88560    0.69050    1.000
    C368     C        0.47090    0.82900    0.65110    1.000
    H256     H        0.48040    0.81120    0.68900    1.000
    H257     H        0.44540    0.81210    0.60990    1.000
    H258     H        0.49740    0.83180    0.65530    1.000
    C369     C        0.54810    0.73740    0.43720    1.000
    H259     H        0.53160    0.72140    0.44550    1.000
    C370     C        0.59730    0.73740    0.48770    1.000
    H260     H        0.61290    0.72250    0.52910    1.000
    C371     C        0.62230    0.75910    0.47680    1.000
    C372     C        0.59710    0.78330    0.41660    1.000
    H261     H        0.61310    0.80050    0.40820    1.000
    C373     C        0.54910    0.78220    0.36960    1.000
    H262     H        0.53260    0.79870    0.32890    1.000
    C374     C        0.74930    0.75110    0.64200    1.000
    H263     H        0.76470    0.74520    0.68670    1.000
    C375     C        0.70110    0.75290    0.59430    1.000
    H264     H        0.68510    0.74990    0.60820    1.000
    C376     C        0.67610    0.75850    0.53010    1.000
    C377     C        0.70180    0.76960    0.52000    1.000
    H265     H        0.68750    0.77890    0.47670    1.000
    C378     C        0.75060    0.76850    0.57120    1.000
    H266     H        0.76690    0.77780    0.55920    1.000
    N13      N        0.52410    0.75810    0.37950    1.000
    N14      N        0.77460    0.75720    0.62860    1.000
    O73      O        0.44000    0.71600    0.23010    1.000
    O74      O        0.36120    0.70690    0.15330    1.000
    O75      O        0.44440    0.31120    0.83480    1.000
    O76      O        0.36610    0.31180    0.76090    1.000
    O77      O        0.48000    0.45810    0.06090    1.000
    O78      O        0.34920    0.60140    0.92090    1.000
    O79      O        0.43290    0.78770    0.34970    1.000
    O80      O        0.35460    0.78910    0.26840    1.000
    O81      O        0.43600    0.18380    0.75280    1.000
    O82      O        0.35710    0.19130    0.66920    1.000
    O83      O        0.44530    0.88900    0.58880    1.000
    O84      O        0.33720    0.05940    0.45170    1.000
    Zn13     Zn       0.45144    0.75306    0.30463    1.000
    Zn14     Zn       0.34713    0.74684    0.20079    1.000
    C379     C        0.90260    0.19930    0.17720    1.000
    C380     C        0.90320    0.16560    0.13330    1.000
    C381     C        0.86280    0.14330    0.07650    1.000
    H267     H        0.83370    0.14930    0.06270    1.000
    C382     C        0.86570    0.11210    0.04020    1.000
    H268     H        0.83810    0.09770    0.00110    1.000
    C383     C        0.90870    0.10150    0.06060    1.000
    C384     C        0.94930    0.12410    0.11790    1.000
    H269     H        0.97850    0.11730    0.13210    1.000
    C385     C        0.94720    0.15590    0.15340    1.000
    H270     H        0.97470    0.17150    0.19110    1.000
    C386     C        0.91130    0.06540    0.02240    1.000
    C387     C        0.88920    0.06950    0.96170    1.000
    C388     C        0.88690    0.03210    0.91820    1.000
    H271     H        0.86960    0.03730    0.87270    1.000
    C389     C        0.91180    0.99090    0.95070    1.000
    C390     C        0.94760    0.99330    0.02180    1.000
    C391     C        0.94890    0.02610    0.06160    1.000
    H272     H        0.97100    0.02400    0.10860    1.000
    C392     C        0.86740    0.89030    0.82600    1.000
    H273     H        0.83810    0.87660    0.78920    1.000
    C393     C        0.86930    0.92900    0.86060    1.000
    H274     H        0.84130    0.94030    0.84710    1.000
    C394     C        0.91130    0.95100    0.91380    1.000
    C395     C        0.95170    0.93280    0.93230    1.000
    H275     H        0.98080    0.94640    0.96940    1.000
    C396     C        0.95060    0.89520    0.89800    1.000
    H276     H        0.97840    0.88540    0.90990    1.000
    C397     C        0.90770    0.87190    0.84520    1.000
    C398     C        0.90660    0.82840    0.81080    1.000
    C399     C        0.02580    0.96070    0.14190    1.000
    H277     H        0.01660    0.95830    0.16690    1.000
    H278     H        0.04370    0.99050    0.15460    1.000
    C400     C        0.05420    0.91570    0.15350    1.000
    H279     H        0.08280    0.91330    0.20070    1.000
    H280     H        0.03530    0.88690    0.13960    1.000
    H281     H        0.06220    0.91880    0.12740    1.000
    C401     C        0.89370    0.30070    0.32630    1.000
    C402     C        0.89240    0.33440    0.36860    1.000
    C403     C        0.93350    0.34860    0.43090    1.000
    H282     H        0.96250    0.33650    0.44880    1.000
    C404     C        0.93140    0.38060    0.46690    1.000
    H283     H        0.95980    0.39060    0.50920    1.000
    C405     C        0.88910    0.39930    0.44360    1.000
    C406     C        0.84770    0.38250    0.38150    1.000
    H284     H        0.81850    0.39300    0.36460    1.000
    C407     C        0.84900    0.35060    0.34440    1.000
    H285     H        0.82070    0.33960    0.30270    1.000
    C408     C        0.89030    0.43720    0.48250    1.000
    C409     C        0.91520    0.43140    0.55100    1.000
    C410     C        0.91440    0.46710    0.58490    1.000
    H286     H        0.93260    0.46170    0.63070    1.000
    C411     C        0.89030    0.50900    0.55920    1.000
    C412     C        0.86570    0.51880    0.48980    1.000
    C413     C        0.86440    0.47810    0.44920    1.000
    H287     H        0.84620    0.48170    0.40310    1.000
    C414     C        0.93480    0.60110    0.69360    1.000
    H288     H        0.96340    0.60990    0.73640    1.000
    C415     C        0.93430    0.56340    0.65920    1.000
    H289     H        0.96250    0.54800    0.67810    1.000
    C416     C        0.89090    0.54900    0.59540    1.000
    C417     C        0.85060    0.57190    0.56990    1.000
    H290     H        0.82160    0.56220    0.52820    1.000
    C418     C        0.85160    0.60980    0.60480    1.000
    H291     H        0.82330    0.62430    0.58660    1.000
    C419     C        0.89330    0.62570    0.66490    1.000
    C420     C        0.89540    0.67010    0.69820    1.000
    C421     C        0.95830    0.36730    0.64990    1.000
    H292     H        0.93110    0.36570    0.64470    1.000
    H293     H        0.98350    0.38560    0.69050    1.000
    C422     C        0.97090    0.32900    0.65110    1.000
    H294     H        0.98040    0.31120    0.68900    1.000
    H295     H        0.94540    0.31210    0.60990    1.000
    H296     H        0.99740    0.33180    0.65530    1.000
    C423     C        0.04810    0.23740    0.43720    1.000
    H297     H        0.03160    0.22140    0.44550    1.000
    C424     C        0.09730    0.23740    0.48770    1.000
    H298     H        0.11290    0.22250    0.52910    1.000
    C425     C        0.12230    0.25910    0.47680    1.000
    C426     C        0.09710    0.28330    0.41660    1.000
    H299     H        0.11310    0.30050    0.40820    1.000
    C427     C        0.04910    0.28220    0.36960    1.000
    H300     H        0.03260    0.29870    0.32890    1.000
    C428     C        0.24930    0.25110    0.64200    1.000
    H301     H        0.26470    0.24520    0.68670    1.000
    C429     C        0.20110    0.25290    0.59430    1.000
    H302     H        0.18510    0.24990    0.60820    1.000
    C430     C        0.17610    0.25850    0.53010    1.000
    C431     C        0.20180    0.26960    0.52000    1.000
    H303     H        0.18750    0.27890    0.47670    1.000
    C432     C        0.25060    0.26850    0.57120    1.000
    H304     H        0.26690    0.27780    0.55920    1.000
    N15      N        0.02410    0.25810    0.37950    1.000
    N16      N        0.27460    0.25720    0.62860    1.000
    O85      O        0.94000    0.21600    0.23010    1.000
    O86      O        0.86120    0.20690    0.15330    1.000
    O87      O        0.94440    0.81120    0.83480    1.000
    O88      O        0.86610    0.81180    0.76090    1.000
    O89      O        0.98000    0.95810    0.06090    1.000
    O90      O        0.84920    0.10140    0.92090    1.000
    O91      O        0.93290    0.28770    0.34970    1.000
    O92      O        0.85460    0.28910    0.26840    1.000
    O93      O        0.93600    0.68380    0.75280    1.000
    O94      O        0.85710    0.69130    0.66920    1.000
    O95      O        0.94530    0.38900    0.58880    1.000
    O96      O        0.83720    0.55940    0.45170    1.000
    Zn15     Zn       0.95144    0.25306    0.30463    1.000
    Zn16     Zn       0.84713    0.24684    0.20079    1.000
