# CIF file generated by openbabel 3.1.0, see https://openbabel.org
data_I
_chemical_name_common 'image0'
_cell_length_a 9.2307
_cell_length_b 13.6222
_cell_length_c 14.7072
_cell_angle_alpha 90
_cell_angle_beta 90.271
_cell_angle_gamma 90
_space_group_name_H-M_alt 'P 1'
_space_group_name_Hall 'P 1'
loop_
    _symmetry_equiv_pos_as_xyz
    x,y,z
loop_
    _atom_site_label
    _atom_site_type_symbol
    _atom_site_fract_x
    _atom_site_fract_y
    _atom_site_fract_z
    _atom_site_occupancy
    Nd1      Nd       0.25085    0.50245    0.09312    1.000
    C1       C        0.00240    0.61040    0.32950    1.000
    C2       C        0.02660    0.70400    0.36580    1.000
    H1       H        0.09160    0.74790    0.33670    1.000
    C3       C        0.95460    0.73270    0.44510    1.000
    C4       C        0.86430    0.66600    0.48830    1.000
    H2       H        0.81500    0.68560    0.54180    1.000
    C5       C        0.84390    0.57090    0.45510    1.000
    C6       C        0.91090    0.54590    0.37420    1.000
    H3       H        0.89380    0.48280    0.34870    1.000
    C7       C        0.75840    0.49760    0.50970    1.000
    H4       H        0.82750    0.45860    0.54660    1.000
    H5       H        0.69620    0.53440    0.55250    1.000
    C8       C        0.66420    0.42780    0.45720    1.000
    C9       C        0.64340    0.33300    0.48960    1.000
    H6       H        0.69690    0.31120    0.54110    1.000
    C10      C        0.54510    0.26930    0.44760    1.000
    C11      C        0.46800    0.30070    0.37160    1.000
    H7       H        0.39830    0.25890    0.34390    1.000
    C12      C        0.49370    0.39420    0.33630    1.000
    C13      C        0.59080    0.45680    0.37930    1.000
    H8       H        0.60720    0.52050    0.35510    1.000
    C14      C        0.08090    0.57520    0.24610    1.000
    C15      C        0.97390    0.83330    0.48500    1.000
    C16      C        0.52570    0.16670    0.48670    1.000
    C17      C        0.41420    0.43200    0.25340    1.000
    O1       O        0.02490    0.50770    0.19940    1.000
    O2       O        0.20270    0.61250    0.22810    1.000
    O3       O        0.06120    0.89040    0.44870    1.000
    O4       O        0.89960    0.85520    0.55380    1.000
    O5       O        0.61780    0.13890    0.54380    1.000
    O6       O        0.42220    0.11830    0.45940    1.000
    O7       O        0.29490    0.39430    0.23240    1.000
    O8       O        0.47130    0.50160    0.20770    1.000
    Nd2      Nd       0.24915    0.00245    0.40687    1.000
    C18      C        0.49760    0.11040    0.17050    1.000
    C19      C        0.47340    0.20400    0.13420    1.000
    H9       H        0.40840    0.24790    0.16330    1.000
    C20      C        0.54540    0.23270    0.05490    1.000
    C21      C        0.63570    0.16600    0.01170    1.000
    H10      H        0.68500    0.18560    0.95820    1.000
    C22      C        0.65610    0.07090    0.04490    1.000
    C23      C        0.58910    0.04590    0.12580    1.000
    H11      H        0.60620    0.98280    0.15130    1.000
    C24      C        0.74160    0.99760    0.99030    1.000
    H12      H        0.67250    0.95860    0.95340    1.000
    H13      H        0.80380    0.03440    0.94750    1.000
    C25      C        0.83580    0.92780    0.04280    1.000
    C26      C        0.85660    0.83300    0.01040    1.000
    H14      H        0.80310    0.81120    0.95890    1.000
    C27      C        0.95490    0.76930    0.05240    1.000
    C28      C        0.03200    0.80070    0.12840    1.000
    H15      H        0.10170    0.75890    0.15610    1.000
    C29      C        0.00630    0.89420    0.16370    1.000
    C30      C        0.90920    0.95680    0.12070    1.000
    H16      H        0.89280    0.02050    0.14490    1.000
    C31      C        0.41910    0.07520    0.25390    1.000
    C32      C        0.52610    0.33330    0.01500    1.000
    C33      C        0.97430    0.66670    0.01330    1.000
    C34      C        0.08580    0.93200    0.24660    1.000
    O9       O        0.47510    0.00770    0.30060    1.000
    O10      O        0.29730    0.11250    0.27190    1.000
    O11      O        0.43880    0.39040    0.05130    1.000
    O12      O        0.60040    0.35520    0.94620    1.000
    O13      O        0.88220    0.63890    0.95620    1.000
    O14      O        0.07780    0.61830    0.04060    1.000
    O15      O        0.20510    0.89430    0.26760    1.000
    O16      O        0.02870    0.00160    0.29230    1.000
    Nd3      Nd       0.74915    0.49755    0.90687    1.000
    C35      C        0.99760    0.38960    0.67050    1.000
    C36      C        0.97340    0.29600    0.63420    1.000
    H17      H        0.90840    0.25210    0.66330    1.000
    C37      C        0.04540    0.26730    0.55490    1.000
    C38      C        0.13570    0.33400    0.51170    1.000
    H18      H        0.18500    0.31440    0.45820    1.000
    C39      C        0.15610    0.42910    0.54490    1.000
    C40      C        0.08910    0.45410    0.62580    1.000
    H19      H        0.10620    0.51720    0.65130    1.000
    C41      C        0.24160    0.50240    0.49030    1.000
    H20      H        0.17250    0.54140    0.45340    1.000
    H21      H        0.30380    0.46560    0.44750    1.000
    C42      C        0.33580    0.57220    0.54280    1.000
    C43      C        0.35660    0.66700    0.51040    1.000
    H22      H        0.30310    0.68880    0.45890    1.000
    C44      C        0.45490    0.73070    0.55240    1.000
    C45      C        0.53200    0.69930    0.62840    1.000
    H23      H        0.60170    0.74110    0.65610    1.000
    C46      C        0.50630    0.60580    0.66370    1.000
    C47      C        0.40920    0.54320    0.62070    1.000
    H24      H        0.39280    0.47950    0.64490    1.000
    C48      C        0.91910    0.42480    0.75390    1.000
    C49      C        0.02610    0.16670    0.51500    1.000
    C50      C        0.47430    0.83330    0.51330    1.000
    C51      C        0.58580    0.56800    0.74660    1.000
    O17      O        0.97510    0.49230    0.80060    1.000
    O18      O        0.79730    0.38750    0.77190    1.000
    O19      O        0.93880    0.10960    0.55130    1.000
    O20      O        0.10040    0.14480    0.44620    1.000
    O21      O        0.38220    0.86110    0.45620    1.000
    O22      O        0.57780    0.88170    0.54060    1.000
    O23      O        0.70510    0.60570    0.76760    1.000
    O24      O        0.52870    0.49840    0.79230    1.000
    Nd4      Nd       0.75085    0.99755    0.59312    1.000
    C52      C        0.50240    0.88960    0.82950    1.000
    C53      C        0.52660    0.79600    0.86580    1.000
    H25      H        0.59160    0.75210    0.83670    1.000
    C54      C        0.45460    0.76730    0.94510    1.000
    C55      C        0.36430    0.83400    0.98830    1.000
    H26      H        0.31500    0.81440    0.04180    1.000
    C56      C        0.34390    0.92910    0.95510    1.000
    C57      C        0.41090    0.95410    0.87420    1.000
    H27      H        0.39380    0.01720    0.84870    1.000
    C58      C        0.25840    0.00240    0.00970    1.000
    H28      H        0.32750    0.04140    0.04660    1.000
    H29      H        0.19620    0.96560    0.05250    1.000
    C59      C        0.16420    0.07220    0.95720    1.000
    C60      C        0.14340    0.16700    0.98960    1.000
    H30      H        0.19690    0.18880    0.04110    1.000
    C61      C        0.04510    0.23070    0.94760    1.000
    C62      C        0.96800    0.19930    0.87160    1.000
    H31      H        0.89830    0.24110    0.84390    1.000
    C63      C        0.99370    0.10580    0.83630    1.000
    C64      C        0.09080    0.04320    0.87930    1.000
    H32      H        0.10720    0.97950    0.85510    1.000
    C65      C        0.58090    0.92480    0.74610    1.000
    C66      C        0.47390    0.66670    0.98500    1.000
    C67      C        0.02570    0.33330    0.98670    1.000
    C68      C        0.91420    0.06800    0.75340    1.000
    O25      O        0.52490    0.99230    0.69940    1.000
    O26      O        0.70270    0.88750    0.72810    1.000
    O27      O        0.56120    0.60960    0.94870    1.000
    O28      O        0.39960    0.64480    0.05380    1.000
    O29      O        0.11780    0.36110    0.04380    1.000
    O30      O        0.92220    0.38170    0.95940    1.000
    O31      O        0.79490    0.10570    0.73240    1.000
    O32      O        0.97130    0.99840    0.70770    1.000
