data_functionalizedCrystal
_audit_creation_method	'EQeq! by Chris Wilmer'
_symmetry_space_group_name_H-M	'P1'
_symmetry_Int_Tables_number	1
_symmetry_cell_setting	triclinic
loop_
_symmetry_equiv_pos_as_xyz
  x,y,z
_cell_length_a	14.6031
_cell_length_b	14.6031
_cell_length_c	18.804
_cell_angle_alpha	90.6643
_cell_angle_beta	90.6643
_cell_angle_gamma	90.6742
loop_
_atom_site_label
_atom_site_type_symbol
_atom_site_fract_x
_atom_site_fract_y
_atom_site_fract_z
_atom_site_charge
Mof_Cu	Cu	0.52508	0.54806	0.44468	0.907
Mof_Cu	Cu	0.54806	0.52508	0.94468	0.907
Mof_Cu	Cu	0.45194	0.47492	0.05532	0.906
Mof_Cu	Cu	0.47492	0.45194	0.55532	0.906
Mof_H 	H 	0.8648	0.8886	0.1934	-0.002
Mof_H 	H 	0.8208	0.4306	0.0185	0.014
Mof_H 	H 	0.1792	0.5694	0.9815	0.014
Mof_H 	H 	0.0948	0.879	0.8359	0.009
Mof_H 	H 	0.7662	0.675	0.5307	0.011
Mof_H 	H 	0.9669	0.9811	0.6455	0.211
Mof_H 	H 	0.5606	0.0846	0.239	-0.046
Mof_H 	H 	0.9994	0.5834	0.6874	-0.047
Mof_H 	H 	0.0846	0.976	0.1737	0.21
Mof_H 	H 	0.4484	0.9258	0.2114	0.192
Mof_H 	H 	0.0846	0.5606	0.739	-0.046
Mof_H 	H 	0.3516	0.7098	0.8569	0.021
Mof_H 	H 	0.6848	0.5408	0.7041	0.008
Mof_H 	H 	0.9154	0.024	0.8263	0.21
Mof_H 	H 	0.4166	0.0006	0.8126	-0.046
Mof_H 	H 	0.8813	0.7487	0.5989	0.088
Mof_H 	H 	0.976	0.0846	0.6737	0.211
Mof_H 	H 	0.5834	0.9994	0.1874	-0.046
Mof_H 	H 	0.7716	0.225	0.2037	0.082
Mof_H 	H 	0.9645	0.4461	0.7913	0.202
Mof_H 	H 	0.121	0.9052	0.6641	0.009
Mof_H 	H 	0.0355	0.5539	0.2087	0.202
Mof_H 	H 	0.4592	0.3152	0.7959	0.008
Mof_H 	H 	0.2338	0.325	0.4693	0.011
Mof_H 	H 	0.8011	0.6113	0.7707	0.1
Mof_H 	H 	0.5855	0.9721	0.7731	0.183
Mof_H 	H 	0.6113	0.8011	0.2707	0.1
Mof_H 	H 	0.9775	0.1095	0.8034	0.208
Mof_H 	H 	0.1352	0.1114	0.8066	-0.002
Mof_H 	H 	0.9459	0.3649	0.0771	0.095
Mof_H 	H 	0.0331	0.0189	0.3545	0.211
Mof_H 	H 	0.8886	0.8648	0.6934	-0.002
Mof_H 	H 	0.0225	0.8905	0.1966	0.208
Mof_H 	H 	0.3649	0.9459	0.5771	0.096
Mof_H 	H 	0.225	0.7716	0.7037	0.082
Mof_H 	H 	0.1989	0.3887	0.2293	0.1
Mof_H 	H 	0.9721	0.5855	0.2731	0.184
Mof_H 	H 	0.1187	0.2513	0.4011	0.088
Mof_H 	H 	0.6351	0.0541	0.4229	0.096
Mof_H 	H 	0.3152	0.4592	0.2959	0.008
Mof_H 	H 	0.2902	0.6484	0.6431	0.021
Mof_H 	H 	0.6484	0.2902	0.1431	0.021
Mof_H 	H 	0.325	0.2338	0.9693	0.011
Mof_H 	H 	0.879	0.0948	0.3359	0.009
Mof_H 	H 	0.775	0.2284	0.2963	0.082
Mof_H 	H 	0.5694	0.1792	0.4815	0.014
Mof_H 	H 	0.9811	0.9669	0.1455	0.209
Mof_H 	H 	0.9154	0.4394	0.261	-0.046
Mof_H 	H 	0.5539	0.0355	0.7087	0.201
Mof_H 	H 	0.5516	0.0742	0.7886	0.192
Mof_H 	H 	0.675	0.7662	0.0307	0.011
Mof_H 	H 	0.4306	0.8208	0.5185	0.014
Mof_H 	H 	0.9052	0.121	0.1641	0.009
Mof_H 	H 	0.0279	0.4145	0.7269	0.184
Mof_H 	H 	0.1114	0.1352	0.3066	-0.002
Mof_H 	H 	0.8905	0.0225	0.6966	0.208
Mof_H 	H 	0.3887	0.1989	0.7293	0.1
Mof_H 	H 	0.0189	0.0331	0.8545	0.209
Mof_H 	H 	0.0541	0.6351	0.9229	0.095
Mof_H 	H 	0.2284	0.775	0.7963	0.082
Mof_H 	H 	0.4145	0.0279	0.2269	0.183
Mof_H 	H 	0.9258	0.4484	0.7114	0.193
Mof_H 	H 	0.024	0.9154	0.3263	0.211
Mof_H 	H 	0.5408	0.6848	0.2041	0.008
Mof_H 	H 	0.7098	0.3516	0.3569	0.021
Mof_H 	H 	0.1095	0.9775	0.3034	0.208
Mof_H 	H 	0.7487	0.8813	0.0989	0.088
Mof_H 	H 	0.2513	0.1187	0.9011	0.088
Mof_H 	H 	0.4394	0.9154	0.761	-0.046
Mof_H 	H 	0.4461	0.9645	0.2913	0.201
Mof_H 	H 	0.0742	0.5516	0.2886	0.193
Mof_H 	H 	0.0006	0.4166	0.3126	-0.047
Mof_C 	C 	0.9905	0.0095	0.25	0.347
Mof_C 	C 	0.4573	0.9803	0.2417	-0.565
Mof_C 	C 	0.6984	0.9824	0.2792	0.205
Mof_C 	C 	0.36011	0.58119	0.9558	0.389
Mof_C 	C 	0.58119	0.36011	0.4558	0.391
Mof_C 	C 	0.7818	0.2672	0.1665	-0.159
Mof_C 	C 	0.0171	0.5583	0.7342	0.282
Mof_C 	C 	0.41651	0.27531	0.8179	0.096
Mof_C 	C 	0.0784	0.259	0.267	-0.146
Mof_C 	C 	0.30835	0.14867	0.8085	0.156
Mof_C 	C 	0.9775	0.0439	0.8142	-0.656
Mof_C 	C 	0.8729	0.2923	0.1449	0.139
Mof_C 	C 	0.8099	0.3901	0.0567	0.079
Mof_C 	C 	0.1901	0.6099	0.9433	0.079
Mof_C 	C 	0.27531	0.41651	0.3179	0.096
Mof_C 	C 	0.2932	0.15908	0.8787	-0.185
Mof_C 	C 	0.2909	0.6927	0.8695	0.073
Mof_C 	C 	0.27935	0.62795	0.9238	-0.145
Mof_C 	C 	0.1649	0.0705	0.7749	0.059
Mof_C 	C 	0.22778	0.33732	0.42	0.092
Mof_C 	C 	0.1563	0.9477	0.6917	0.052
Mof_C 	C 	0.0523	0.8437	0.8083	0.051
Mof_C 	C 	0.7328	0.2182	0.3335	-0.159
Mof_C 	C 	0.77222	0.66268	0.58	0.092
Mof_C 	C 	0.2182	0.7328	0.8335	-0.159
Mof_C 	C 	0.72469	0.58349	0.6821	0.096
Mof_C 	C 	0.5427	0.0197	0.7583	-0.565
Mof_C 	C 	0.3501	0.8855	0.5917	-0.171
Mof_C 	C 	0.44099	0.36249	0.93188	0.394
Mof_C 	C 	0.9295	0.8351	0.7251	0.059
Mof_C 	C 	0.9803	0.4573	0.7417	-0.567
Mof_C 	C 	0.1145	0.6499	0.9083	-0.172
Mof_C 	C 	0.9829	0.4417	0.2658	0.282
Mof_C 	C 	0.33732	0.22778	0.92	0.092
Mof_C 	C 	0.1125	0.0059	0.7387	-0.152
Mof_C 	C 	0.6499	0.1145	0.4083	-0.171
Mof_C 	C 	0.8855	0.3501	0.0917	-0.172
Mof_C 	C 	0.741	0.9216	0.233	-0.145
Mof_C 	C 	0.2923	0.8729	0.6449	0.139
Mof_C 	C 	0.9941	0.8875	0.7613	-0.151
Mof_C 	C 	0.0176	0.3016	0.2208	0.207
Mof_C 	C 	0.259	0.0784	0.767	-0.145
Mof_C 	C 	0.6099	0.1901	0.4433	0.079
Mof_C 	C 	0.41881	0.63989	0.5442	0.391
Mof_C 	C 	0.58349	0.72469	0.1821	0.096
Mof_C 	C 	0.0705	0.1649	0.2749	0.059
Mof_C 	C 	0.84092	0.7068	0.6213	-0.185
Mof_C 	C 	0.72065	0.37205	0.0762	-0.145
Mof_C 	C 	0.28584	0.39814	0.38828	-0.161
Mof_C 	C 	0.9477	0.1563	0.1917	0.051
Mof_C 	C 	0.8437	0.0523	0.3083	0.052
Mof_C 	C 	0.3737	0.2067	0.778	-0.183
Mof_C 	C 	0.1271	0.7077	0.8551	0.139
Mof_C 	C 	0.15908	0.2932	0.3787	-0.185
Mof_C 	C 	0.2067	0.3737	0.278	-0.183
Mof_C 	C 	0.3073	0.7091	0.6305	0.073
Mof_C 	C 	0.55901	0.63751	0.06812	0.394
Mof_C 	C 	0.0095	0.9905	0.75	0.347
Mof_C 	C 	0.69165	0.85133	0.1915	0.156
Mof_C 	C 	0.62795	0.27935	0.4238	-0.145
Mof_C 	C 	0.37205	0.72065	0.5762	-0.145
Mof_C 	C 	0.0498	0.7496	0.816	-0.134
Mof_C 	C 	0.0059	0.1125	0.2387	-0.151
Mof_C 	C 	0.66268	0.77222	0.08	0.092
Mof_C 	C 	0.9502	0.2504	0.184	-0.134
Mof_C 	C 	0.9561	0.0225	0.6858	-0.659
Mof_C 	C 	0.8875	0.9941	0.2613	-0.152
Mof_C 	C 	0.6263	0.7933	0.222	-0.183
Mof_C 	C 	0.7933	0.6263	0.722	-0.183
Mof_C 	C 	0.71416	0.60186	0.61172	-0.161
Mof_C 	C 	0.0439	0.9775	0.3142	-0.659
Mof_C 	C 	0.7077	0.1271	0.3551	0.139
Mof_C 	C 	0.9824	0.6984	0.7792	0.207
Mof_C 	C 	0.14867	0.30835	0.3085	0.157
Mof_C 	C 	0.60186	0.71416	0.11172	-0.161
Mof_C 	C 	0.63989	0.41881	0.0442	0.389
Mof_C 	C 	0.6927	0.2909	0.3695	0.073
Mof_C 	C 	0.2504	0.9502	0.684	-0.134
Mof_C 	C 	0.85133	0.69165	0.6915	0.157
Mof_C 	C 	0.9216	0.741	0.733	-0.146
Mof_C 	C 	0.4417	0.9829	0.7658	0.281
Mof_C 	C 	0.36249	0.44099	0.43188	0.394
Mof_C 	C 	0.39814	0.28584	0.88828	-0.161
Mof_C 	C 	0.3901	0.8099	0.5567	0.079
Mof_C 	C 	0.8351	0.9295	0.2251	0.059
Mof_C 	C 	0.0225	0.9561	0.1858	-0.656
Mof_C 	C 	0.0197	0.5427	0.2583	-0.567
Mof_C 	C 	0.3016	0.0176	0.7208	0.205
Mof_C 	C 	0.7496	0.0498	0.316	-0.134
Mof_C 	C 	0.7068	0.84092	0.1213	-0.185
Mof_C 	C 	0.63751	0.55901	0.56812	0.394
Mof_C 	C 	0.5583	0.0171	0.2342	0.281
Mof_C 	C 	0.7091	0.3073	0.1305	0.073
Mof_C 	C 	0.2672	0.7818	0.6665	-0.159
Mof_O 	O 	0.50102	0.58728	0.09885	-0.418
Mof_O 	O 	0.43253	0.58481	0.92064	-0.421
Mof_O 	O 	0.49898	0.41272	0.90115	-0.418
Mof_O 	O 	0.02202	0.39326	0.21254	-0.294
Mof_O 	O 	0.54424	0.35044	0.51418	-0.418
Mof_O 	O 	0.58346	0.62828	0.00593	-0.428
Mof_O 	O 	0.58481	0.43253	0.42064	-0.421
Mof_O 	O 	0.35044	0.54424	0.01418	-0.417
Mof_O 	O 	0.39326	0.02202	0.71254	-0.294
Mof_O 	O 	0.41272	0.49898	0.40115	-0.418
Mof_O 	O 	0.41654	0.37172	0.99407	-0.428
Mof_O 	O 	0.41519	0.56747	0.57936	-0.421
Mof_O 	O 	0.64956	0.45576	0.98582	-0.417
Mof_O 	O 	0.37172	0.41654	0.49407	-0.428
Mof_O 	O 	0.56747	0.41519	0.07936	-0.421
Mof_O 	O 	0.45576	0.64956	0.48582	-0.418
Mof_O 	O 	0.97798	0.60674	0.78746	-0.294
Mof_O 	O 	0.62828	0.58346	0.50593	-0.428
Mof_O 	O 	0.60674	0.97798	0.28746	-0.294
Mof_O 	O 	0.58728	0.50102	0.59885	-0.418
_end
