data_functionalizedCrystal
_audit_creation_method	'EQeq! by Chris Wilmer'
_symmetry_space_group_name_H-M	'P1'
_symmetry_Int_Tables_number	1
_symmetry_cell_setting	triclinic
loop_
_symmetry_equiv_pos_as_xyz
  x,y,z
_cell_length_a	8.9687
_cell_length_b	10.906
_cell_length_c	14.585
_cell_angle_alpha	96.567
_cell_angle_beta	90
_cell_angle_gamma	90
loop_
_atom_site_label
_atom_site_type_symbol
_atom_site_fract_x
_atom_site_fract_y
_atom_site_fract_z
_atom_site_charge
Mof_Zn	Zn	0.25328	0.0652	0.28097	1.191
Mof_Zn	Zn	0.74755	0.36913	0.18782	1.19
Mof_Zn	Zn	0.75328	0.9348	0.71903	1.186
Mof_Zn	Zn	0.24755	0.63087	0.81218	1.192
Mof_H 	H 	0.1435	0.4266	0.7581	0.123
Mof_H 	H 	0.156	0.4961	0.6771	0.096
Mof_H 	H 	0.5504	0.2	0.2793	-0.032
Mof_H 	H 	0.2482	0.1849	0.0817	0.029
Mof_H 	H 	0.5616	0.5147	0.0637	0.028
Mof_H 	H 	0.3636	0.3328	0.974	0.096
Mof_H 	H 	0.5415	0.3252	0.9764	0.092
Mof_H 	H 	0.2574	0.603	0.288	0.122
Mof_H 	H 	0.1561	0.6497	0.2087	0.13
Mof_H 	H 	0.1234	0.8783	0.2106	0.09
Mof_H 	H 	0.2772	0.8747	0.1732	0.095
Mof_H 	H 	0.1964	0.7993	0.3418	0.008
Mof_H 	H 	0.3663	0.8066	0.31	0.003
Mof_H 	H 	0.2585	0.7328	0.6141	0.041
Mof_H 	H 	0.2587	0.5046	0.1022	0.154
Mof_H 	H 	0.6064	0.0298	0.5441	0.035
Mof_H 	H 	0.3287	0.0498	0.6146	0.142
Mof_H 	H 	0.3871	0.363	0.7446	-0.01
Mof_H 	H 	0.4064	0.4428	0.6598	-0.005
Mof_H 	H 	0.5501	0.7771	0.8183	-0.041
Mof_H 	H 	0.2168	0.2317	0.6596	0.133
Mof_H 	H 	0.2228	0.3149	0.5762	0.123
Mof_H 	H 	0.3819	0.8472	0.495	0.099
Mof_H 	H 	0.5569	0.8238	0.4984	0.086
Mof_H 	H 	0.6435	0.5734	0.2419	0.119
Mof_H 	H 	0.656	0.5039	0.3229	0.091
Mof_H 	H 	0.0504	0.8	0.7207	-0.037
Mof_H 	H 	0.7482	0.8151	0.9183	0.024
Mof_H 	H 	0.0616	0.4853	0.9363	0.05
Mof_H 	H 	0.8636	0.6672	0.026	0.092
Mof_H 	H 	0.0415	0.6748	0.0236	0.111
Mof_H 	H 	0.7574	0.397	0.712	0.109
Mof_H 	H 	0.6561	0.3503	0.7913	0.119
Mof_H 	H 	0.6234	0.1217	0.7894	0.084
Mof_H 	H 	0.7772	0.1253	0.8268	0.092
Mof_H 	H 	0.6964	0.2007	0.6582	0.007
Mof_H 	H 	0.8663	0.1934	0.69	0
Mof_H 	H 	0.7585	0.2672	0.3859	0.042
Mof_H 	H 	0.7587	0.4954	0.8978	0.153
Mof_H 	H 	0.1064	0.9702	0.4559	0.008
Mof_H 	H 	0.8287	0.9502	0.3854	0.142
Mof_H 	H 	0.8871	0.637	0.2554	-0.017
Mof_H 	H 	0.9064	0.5572	0.3402	-0.013
Mof_H 	H 	0.0501	0.2229	0.1817	-0.045
Mof_H 	H 	0.7168	0.7683	0.3404	0.126
Mof_H 	H 	0.7228	0.6851	0.4238	0.114
Mof_H 	H 	0.8819	0.1528	0.505	0.127
Mof_H 	H 	0.0569	0.1762	0.5016	0.134
Mof_C 	C 	0.5	0.2132	0.224	0.066
Mof_C 	C 	0.3355	0.2051	0.1171	-0.061
Mof_C 	C 	0.4441	0.2833	0.0944	0.109
Mof_C 	C 	0.4391	0.5521	0.9476	0.297
Mof_C 	C 	0.4605	0.4925	0.038	0.002
Mof_C 	C 	0.4524	0.3527	0.0131	-0.234
Mof_C 	C 	0.2533	0.661	0.2406	-0.323
Mof_C 	C 	0.2632	0.7912	0.2874	0.066
Mof_C 	C 	0.4576	0.8284	0.6228	0.115
Mof_C 	C 	0.3438	0.7584	0.65	-0.068
Mof_C 	C 	0.4814	0.0265	0.4229	0.321
Mof_C 	C 	0.5021	0.0079	0.5243	-0.005
Mof_C 	C 	0.3754	0.63	0.1722	0.284
Mof_C 	C 	0.3347	0.3935	0.6919	0.079
Mof_C 	C 	0.5029	0.7819	0.7605	0.071
Mof_C 	C 	0.2826	0.284	0.6258	-0.332
Mof_C 	C 	0.4738	0.8707	0.5303	-0.227
Mof_C 	C 	0.4061	0.2073	0.5834	0.287
Mof_C 	C 	-1.11324e-33	0.7868	0.776	0.1
Mof_C 	C 	0.8355	0.7949	0.8829	-0.059
Mof_C 	C 	0.9441	0.7167	0.9056	0.086
Mof_C 	C 	0.9391	0.4479	0.0524	0.262
Mof_C 	C 	0.9605	0.5075	0.962	-0.02
Mof_C 	C 	0.9524	0.6473	0.9869	-0.25
Mof_C 	C 	0.7533	0.339	0.7594	-0.3
Mof_C 	C 	0.7632	0.2088	0.7126	0.055
Mof_C 	C 	0.9576	0.1716	0.3772	0.123
Mof_C 	C 	0.8438	0.2416	0.35	-0.081
Mof_C 	C 	0.9814	0.9735	0.5771	0.233
Mof_C 	C 	0.0021	0.9921	0.4757	0.101
Mof_C 	C 	0.8754	0.37	0.8278	0.244
Mof_C 	C 	0.8347	0.6065	0.3081	0.074
Mof_C 	C 	0.0029	0.2181	0.2395	0.104
Mof_C 	C 	0.7826	0.716	0.3742	-0.316
Mof_C 	C 	0.9738	0.1293	0.4697	-0.335
Mof_C 	C 	0.9061	0.7927	0.4166	0.248
Mof_N 	N 	0.207	0.4742	0.7275	-0.378
Mof_N 	N 	0.373	0.7306	0.7382	-0.27
Mof_N 	N 	0.3699	0.1592	0.199	-0.273
Mof_N 	N 	0.5536	0.2877	0.1642	-0.293
Mof_N 	N 	0.2223	0.8883	0.2266	-0.37
Mof_N 	N 	0.5633	0.8428	0.6925	-0.294
Mof_N 	N 	0.3479	0.5385	0.1056	-0.237
Mof_N 	N 	0.3965	0.0836	0.5819	-0.231
Mof_N 	N 	0.707	0.5258	0.2725	-0.377
Mof_N 	N 	0.873	0.2694	0.2618	-0.285
Mof_N 	N 	0.8699	0.8408	0.801	-0.293
Mof_N 	N 	0.0536	0.7123	0.8358	-0.283
Mof_N 	N 	0.7223	0.1117	0.7734	-0.366
Mof_N 	N 	0.0633	0.1572	0.3075	-0.288
Mof_N 	N 	0.8479	0.4615	0.8944	-0.229
Mof_N 	N 	0.8965	0.9164	0.4181	-0.251
Mof_O 	O 	0.3123	0.6028	0.935	-0.461
Mof_O 	O 	0.5431	0.5442	0.8902	-0.319
Mof_O 	O 	0.3515	0.0609	0.4	-0.46
Mof_O 	O 	0.5001	0.6808	0.1804	-0.284
Mof_O 	O 	0.5892	0.0002	0.3694	-0.299
Mof_O 	O 	0.5153	0.2551	0.5473	-0.263
Mof_O 	O 	0.8123	0.3972	0.065	-0.46
Mof_O 	O 	0.0431	0.4558	0.1098	-0.291
Mof_O 	O 	0.8515	0.9391	0.6	-0.45
Mof_O 	O 	0.0001	0.3192	0.8196	-0.251
Mof_O 	O 	0.0892	0.9998	0.6306	-0.26
Mof_O 	O 	0.0153	0.7449	0.4527	-0.228
_end
