data_functionalizedCrystal
_audit_creation_method	'EQeq! by Chris Wilmer'
_symmetry_space_group_name_H-M	'P1'
_symmetry_Int_Tables_number	1
_symmetry_cell_setting	triclinic
loop_
_symmetry_equiv_pos_as_xyz
  x,y,z
_cell_length_a	13.477
_cell_length_b	13.477
_cell_length_c	24.9732
_cell_angle_alpha	74.3458
_cell_angle_beta	74.3458
_cell_angle_gamma	89.9999
loop_
_atom_site_label
_atom_site_type_symbol
_atom_site_fract_x
_atom_site_fract_y
_atom_site_fract_z
_atom_site_charge
Mof_Cu	Cu	0.84952	0.59952	0.80096	0.857
Mof_Cu	Cu	0.59952	0.84952	0.30096	0.857
Mof_H 	H 	0.8516	0.6834	0.8976	0.003
Mof_H 	H 	0.7426	0.7	0.9814	0.104
Mof_H 	H 	0.5026	0.6301	0.9304	0.106
Mof_H 	H 	0.6168	0.6106	0.8484	0.004
Mof_H 	H 	0.6782	0.7473	0.1198	0.101
Mof_H 	H 	0.7104	0.7907	0.1968	-0.01
Mof_H 	H 	0.4145	0.7897	0.267	-0.014
Mof_H 	H 	0.3777	0.7492	0.1916	0.08
Mof_H 	H 	0.7508	0.419	0.8976	0.003
Mof_H 	H 	0.776	0.3186	0.9814	0.102
Mof_H 	H 	0.067	0.4395	0.9304	0.105
Mof_H 	H 	0.0348	0.541	0.8484	0.005
Mof_H 	H 	0.702	0.1329	0.1198	0.101
Mof_H 	H 	0.5928	0.0125	0.1968	-0.01
Mof_H 	H 	0.8185	0.9433	0.267	-0.014
Mof_H 	H 	0.9307	0.0592	0.1916	0.08
Mof_H 	H 	0.6834	0.7508	0.3976	0.002
Mof_H 	H 	0.7	0.776	0.4814	0.103
Mof_H 	H 	0.6301	0.067	0.4304	0.106
Mof_H 	H 	0.6106	0.0348	0.3484	0.004
Mof_H 	H 	0.7473	0.702	0.6198	0.101
Mof_H 	H 	0.7907	0.5928	0.6968	-0.01
Mof_H 	H 	0.7897	0.8185	0.767	-0.015
Mof_H 	H 	0.7492	0.9307	0.6916	0.08
Mof_H 	H 	0.419	0.8516	0.3976	0.002
Mof_H 	H 	0.3186	0.7426	0.4814	0.103
Mof_H 	H 	0.4395	0.5026	0.4304	0.106
Mof_H 	H 	0.541	0.6168	0.3484	0.004
Mof_H 	H 	0.1329	0.6782	0.6198	0.101
Mof_H 	H 	0.0125	0.7104	0.6968	-0.01
Mof_H 	H 	0.9433	0.4145	0.767	-0.014
Mof_H 	H 	0.0592	0.3777	0.6916	0.08
Mof_C 	C 	0.78081	0.67031	0.90458	0.074
Mof_C 	C 	0.71547	0.68127	0.95466	-0.116
Mof_C 	C 	0.61207	0.66537	0.96606	0.052
Mof_C 	C 	0.57337	0.63947	0.92486	-0.127
Mof_C 	C 	0.6427	0.6283	0.8758	0.087
Mof_C 	C 	0.54452	0.67552	0.01936	0.164
Mof_C 	C 	0.50384	0.70904	0.10032	0.164
Mof_C 	C 	0.52542	0.73962	0.14816	0.053
Mof_C 	C 	0.62321	0.75531	0.14978	-0.12
Mof_C 	C 	0.64252	0.78312	0.19556	0.078
Mof_C 	C 	0.46889	0.78279	0.23642	0.087
Mof_C 	C 	0.44597	0.75617	0.19226	-0.133
Mof_C 	C 	0.81461	0.42511	0.90458	0.073
Mof_C 	C 	0.82987	0.36407	0.95466	-0.115
Mof_C 	C 	0.92187	0.36857	0.96606	0.049
Mof_C 	C 	0.00177	0.43567	0.92486	-0.124
Mof_C 	C 	0.9815	0.4959	0.8758	0.085
Mof_C 	C 	0.93612	0.30512	0.01936	0.165
Mof_C 	C 	0.89584	0.19064	0.10032	0.165
Mof_C 	C 	0.82642	0.11222	0.14816	0.053
Mof_C 	C 	0.72701	0.09491	0.14978	-0.12
Mof_C 	C 	0.66192	0.02132	0.19556	0.079
Mof_C 	C 	0.79469	0.98079	0.23642	0.087
Mof_C 	C 	0.86177	0.05157	0.19226	-0.132
Mof_C 	C 	0.67031	0.81461	0.40458	0.074
Mof_C 	C 	0.68127	0.82987	0.45466	-0.116
Mof_C 	C 	0.66537	0.92187	0.46606	0.051
Mof_C 	C 	0.63947	0.00177	0.42486	-0.126
Mof_C 	C 	0.6283	0.9815	0.3758	0.086
Mof_C 	C 	0.67552	0.93612	0.51936	0.164
Mof_C 	C 	0.70904	0.89584	0.60032	0.164
Mof_C 	C 	0.73962	0.82642	0.64816	0.053
Mof_C 	C 	0.75531	0.72701	0.64978	-0.12
Mof_C 	C 	0.78312	0.66192	0.69556	0.078
Mof_C 	C 	0.78279	0.79469	0.73642	0.087
Mof_C 	C 	0.75617	0.86177	0.69226	-0.133
Mof_C 	C 	0.42511	0.78081	0.40458	0.074
Mof_C 	C 	0.36407	0.71547	0.45466	-0.116
Mof_C 	C 	0.36857	0.61207	0.46606	0.052
Mof_C 	C 	0.43567	0.57337	0.42486	-0.127
Mof_C 	C 	0.4959	0.6427	0.3758	0.087
Mof_C 	C 	0.30512	0.54452	0.51936	0.164
Mof_C 	C 	0.19064	0.50384	0.60032	0.164
Mof_C 	C 	0.11222	0.52542	0.64816	0.053
Mof_C 	C 	0.09491	0.62321	0.64978	-0.12
Mof_C 	C 	0.02132	0.64252	0.69556	0.079
Mof_C 	C 	0.98079	0.46889	0.73642	0.087
Mof_C 	C 	0.05157	0.44597	0.69226	-0.132
Mof_N 	N 	0.74546	0.64106	0.86508	-0.234
Mof_N 	N 	0.44645	0.65255	0.0417	-0.099
Mof_N 	N 	0.42305	0.67595	0.0945	-0.111
Mof_N 	N 	0.56497	0.79947	0.23846	-0.238
Mof_N 	N 	0.88946	0.49386	0.86508	-0.233
Mof_N 	N 	0.01185	0.30575	0.0417	-0.1
Mof_N 	N 	0.98245	0.22955	0.0945	-0.111
Mof_N 	N 	0.69657	0.96207	0.23846	-0.238
Mof_N 	N 	0.64106	0.88946	0.36508	-0.233
Mof_N 	N 	0.65255	0.01185	0.5417	-0.099
Mof_N 	N 	0.67595	0.98245	0.5945	-0.111
Mof_N 	N 	0.79947	0.69657	0.73846	-0.238
Mof_N 	N 	0.49386	0.74546	0.36508	-0.234
Mof_N 	N 	0.30575	0.44645	0.5417	-0.099
Mof_N 	N 	0.22955	0.42305	0.5945	-0.111
Mof_N 	N 	0.96207	0.56497	0.73846	-0.239
Mof_O 	O 	0.58716	0.70966	0.05448	-0.231
Mof_O 	O 	0.85836	0.23586	0.05448	-0.231
Mof_O 	O 	0.70966	0.85836	0.55448	-0.231
Mof_O 	O 	0.23586	0.58716	0.55448	-0.231
Mof_Cu	Cu	0.15048	0.40048	0.19904	0.856
Mof_Cu	Cu	0.40048	0.15048	0.69904	0.856
Mof_H 	H 	0.1484	0.3166	0.1024	0.002
Mof_H 	H 	0.2574	0.3	0.0186	0.103
Mof_H 	H 	0.4974	0.3699	0.0696	0.106
Mof_H 	H 	0.3832	0.3894	0.1516	0.004
Mof_H 	H 	0.3218	0.2527	0.8802	0.101
Mof_H 	H 	0.2896	0.2093	0.8032	-0.01
Mof_H 	H 	0.5855	0.2103	0.733	-0.014
Mof_H 	H 	0.6223	0.2508	0.8084	0.08
Mof_H 	H 	0.2492	0.581	0.1024	0.003
Mof_H 	H 	0.224	0.6814	0.0186	0.102
Mof_H 	H 	0.933	0.5605	0.0696	0.105
Mof_H 	H 	0.9652	0.459	0.1516	0.005
Mof_H 	H 	0.298	0.8671	0.8802	0.101
Mof_H 	H 	0.4072	0.9875	0.8032	-0.01
Mof_H 	H 	0.1815	0.0567	0.733	-0.014
Mof_H 	H 	0.0693	0.9408	0.8084	0.08
Mof_H 	H 	0.3166	0.2492	0.6024	0.002
Mof_H 	H 	0.3	0.224	0.5186	0.103
Mof_H 	H 	0.3699	0.933	0.5696	0.106
Mof_H 	H 	0.3894	0.9652	0.6516	0.004
Mof_H 	H 	0.2527	0.298	0.3802	0.101
Mof_H 	H 	0.2093	0.4072	0.3032	-0.01
Mof_H 	H 	0.2103	0.1815	0.233	-0.015
Mof_H 	H 	0.2508	0.0693	0.3084	0.08
Mof_H 	H 	0.581	0.1484	0.6024	0.002
Mof_H 	H 	0.6814	0.2574	0.5186	0.103
Mof_H 	H 	0.5605	0.4974	0.5696	0.106
Mof_H 	H 	0.459	0.3832	0.6516	0.004
Mof_H 	H 	0.8671	0.3218	0.3802	0.101
Mof_H 	H 	0.9875	0.2896	0.3032	-0.01
Mof_H 	H 	0.0567	0.5855	0.233	-0.014
Mof_H 	H 	0.9408	0.6223	0.3084	0.08
Mof_C 	C 	0.21919	0.32969	0.09542	0.074
Mof_C 	C 	0.28453	0.31873	0.04534	-0.116
Mof_C 	C 	0.38793	0.33463	0.03394	0.052
Mof_C 	C 	0.42663	0.36053	0.07514	-0.127
Mof_C 	C 	0.3573	0.3717	0.1242	0.087
Mof_C 	C 	0.45548	0.32448	0.98064	0.164
Mof_C 	C 	0.49616	0.29096	0.89968	0.164
Mof_C 	C 	0.47458	0.26038	0.85184	0.053
Mof_C 	C 	0.37679	0.24469	0.85022	-0.12
Mof_C 	C 	0.35748	0.21688	0.80444	0.078
Mof_C 	C 	0.53111	0.21721	0.76358	0.087
Mof_C 	C 	0.55403	0.24383	0.80774	-0.133
Mof_C 	C 	0.18539	0.57489	0.09542	0.073
Mof_C 	C 	0.17013	0.63593	0.04534	-0.115
Mof_C 	C 	0.07813	0.63143	0.03394	0.049
Mof_C 	C 	0.99823	0.56433	0.07514	-0.124
Mof_C 	C 	0.0185	0.5041	0.1242	0.085
Mof_C 	C 	0.06388	0.69488	0.98064	0.165
Mof_C 	C 	0.10416	0.80936	0.89968	0.165
Mof_C 	C 	0.17358	0.88778	0.85184	0.053
Mof_C 	C 	0.27299	0.90509	0.85022	-0.12
Mof_C 	C 	0.33808	0.97868	0.80444	0.079
Mof_C 	C 	0.20531	0.01921	0.76358	0.087
Mof_C 	C 	0.13823	0.94843	0.80774	-0.132
Mof_C 	C 	0.32969	0.18539	0.59542	0.074
Mof_C 	C 	0.31873	0.17013	0.54534	-0.116
Mof_C 	C 	0.33463	0.07813	0.53394	0.051
Mof_C 	C 	0.36053	0.99823	0.57514	-0.126
Mof_C 	C 	0.3717	0.0185	0.6242	0.086
Mof_C 	C 	0.32448	0.06388	0.48064	0.164
Mof_C 	C 	0.29096	0.10416	0.39968	0.164
Mof_C 	C 	0.26038	0.17358	0.35184	0.053
Mof_C 	C 	0.24469	0.27299	0.35022	-0.12
Mof_C 	C 	0.21688	0.33808	0.30444	0.078
Mof_C 	C 	0.21721	0.20531	0.26358	0.087
Mof_C 	C 	0.24383	0.13823	0.30774	-0.133
Mof_C 	C 	0.57489	0.21919	0.59542	0.074
Mof_C 	C 	0.63593	0.28453	0.54534	-0.116
Mof_C 	C 	0.63143	0.38793	0.53394	0.052
Mof_C 	C 	0.56433	0.42663	0.57514	-0.127
Mof_C 	C 	0.5041	0.3573	0.6242	0.087
Mof_C 	C 	0.69488	0.45548	0.48064	0.164
Mof_C 	C 	0.80936	0.49616	0.39968	0.164
Mof_C 	C 	0.88778	0.47458	0.35184	0.053
Mof_C 	C 	0.90509	0.37679	0.35022	-0.12
Mof_C 	C 	0.97868	0.35748	0.30444	0.079
Mof_C 	C 	0.01921	0.53111	0.26358	0.087
Mof_C 	C 	0.94843	0.55403	0.30774	-0.132
Mof_N 	N 	0.25454	0.35894	0.13492	-0.234
Mof_N 	N 	0.55355	0.34745	0.9583	-0.099
Mof_N 	N 	0.57695	0.32405	0.9055	-0.111
Mof_N 	N 	0.43503	0.20053	0.76154	-0.238
Mof_N 	N 	0.11054	0.50614	0.13492	-0.233
Mof_N 	N 	0.98815	0.69425	0.9583	-0.1
Mof_N 	N 	0.01755	0.77045	0.9055	-0.111
Mof_N 	N 	0.30343	0.03793	0.76154	-0.238
Mof_N 	N 	0.35894	0.11054	0.63492	-0.233
Mof_N 	N 	0.34745	0.98815	0.4583	-0.099
Mof_N 	N 	0.32405	0.01755	0.4055	-0.111
Mof_N 	N 	0.20053	0.30343	0.26154	-0.238
Mof_N 	N 	0.50614	0.25454	0.63492	-0.234
Mof_N 	N 	0.69425	0.55355	0.4583	-0.099
Mof_N 	N 	0.77045	0.57695	0.4055	-0.111
Mof_N 	N 	0.03793	0.43503	0.26154	-0.239
Mof_O 	O 	0.41284	0.29034	0.94552	-0.231
Mof_O 	O 	0.14164	0.76414	0.94552	-0.231
Mof_O 	O 	0.29034	0.14164	0.44552	-0.231
Mof_O 	O 	0.76414	0.41284	0.44552	-0.231
Mof_Cl	Cl	0.69056	0.44056	0.11888	-0.236
Mof_O 	O 	0.7788	0.3935	0.1258	-0.014
Mof_O 	O 	0.6467	0.3387	0.1386	-0.019
Mof_O 	O 	0.5954	0.4807	0.1258	-0.014
Mof_O 	O 	0.7147	0.5227	0.1386	-0.019
Mof_Cl	Cl	0.44056	0.69056	0.61888	-0.236
Mof_O 	O 	0.3935	0.5954	0.6258	-0.014
Mof_O 	O 	0.3387	0.7147	0.6386	-0.019
Mof_O 	O 	0.4807	0.7788	0.6258	-0.014
Mof_O 	O 	0.5227	0.6467	0.6386	-0.019
Mof_Cl	Cl	0.30944	0.55944	0.88112	-0.236
Mof_O 	O 	0.2212	0.6065	0.8742	-0.014
Mof_O 	O 	0.3533	0.6613	0.8614	-0.019
Mof_O 	O 	0.4046	0.5193	0.8742	-0.014
Mof_O 	O 	0.2853	0.4773	0.8614	-0.019
Mof_Cl	Cl	0.55944	0.30944	0.38112	-0.236
Mof_O 	O 	0.6065	0.4046	0.3742	-0.014
Mof_O 	O 	0.6613	0.2853	0.3614	-0.019
Mof_O 	O 	0.5193	0.2212	0.3742	-0.014
Mof_O 	O 	0.4773	0.3533	0.3614	-0.019
_end
