data_functionalizedCrystal
_audit_creation_method	'EQeq! by Chris Wilmer'
_symmetry_space_group_name_H-M	'P1'
_symmetry_Int_Tables_number	1
_symmetry_cell_setting	triclinic
loop_
_symmetry_equiv_pos_as_xyz
  x,y,z
_cell_length_a	23.6847
_cell_length_b	23.6847
_cell_length_c	23.6847
_cell_angle_alpha	60
_cell_angle_beta	60
_cell_angle_gamma	60
loop_
_atom_site_label
_atom_site_type_symbol
_atom_site_fract_x
_atom_site_fract_y
_atom_site_fract_z
_atom_site_charge
Mof_Cu	Cu	0.71706	0.28294	0.71706	0.905
Mof_Cu	Cu	0.36096	0.36096	0.63904	0.9
Mof_Cu	Cu	0.36096	0.63904	0.63904	0.9
Mof_Cu	Cu	0.28294	0.71706	0.28294	0.905
Mof_Cu	Cu	0.63904	0.36096	0.36096	0.9
Mof_Cu	Cu	0.63904	0.36096	0.63904	0.9
Mof_Cu	Cu	0.28294	0.28294	0.71706	0.905
Mof_Cu	Cu	0.28294	0.71706	0.71706	0.905
Mof_Cu	Cu	0.71706	0.28294	0.28294	0.905
Mof_Cu	Cu	0.36096	0.63904	0.36096	0.9
Mof_Cu	Cu	0.63904	0.63904	0.36096	0.9
Mof_Cu	Cu	0.71706	0.71706	0.28294	0.905
Mof_Si	Si	0.85754	0.85754	0.42738	0.554
Mof_Si	Si	0.42738	0.85754	0.85754	0.554
Mof_Si	Si	0.14246	0.14246	0.57262	0.554
Mof_Si	Si	0.14246	0.14246	0.14246	0.553
Mof_Si	Si	0.85754	0.85754	0.85754	0.553
Mof_Si	Si	0.57262	0.14246	0.14246	0.554
Mof_Si	Si	0.85754	0.42738	0.85754	0.553
Mof_Si	Si	0.14246	0.57262	0.14246	0.553
Mof_H 	H 	0.8745	0.7283	0.8539	-0.011
Mof_H 	H 	0.8441	0.9347	0.5915	0.074
Mof_H 	H 	0.0906	0.6928	0.4258	0.084
Mof_H 	H 	0.5742	0.2092	0.3072	0.084
Mof_H 	H 	0.8608	0.284	0.4954	0.065
Mof_H 	H 	0.6814	0.2242	0.5494	0.045
Mof_H 	H 	0.139	0.4012	0.9828	0.056
Mof_H 	H 	0.2717	0.1255	0.1461	-0.011
Mof_H 	H 	0.284	0.3598	0.4954	0.065
Mof_H 	H 	0.455	0.3186	0.7758	0.045
Mof_H 	H 	0.1022	0.4278	0.6436	0.031
Mof_H 	H 	0.7283	0.8539	0.8745	-0.011
Mof_H 	H 	0.5433	0.8539	0.7283	-0.011
Mof_H 	H 	0.3776	0.0096	0.7914	-0.023
Mof_H 	H 	0.1736	0.3564	0.8978	0.031
Mof_H 	H 	0.6814	0.545	0.2242	0.045
Mof_H 	H 	0.4567	0.2717	0.1461	-0.011
Mof_H 	H 	0.6402	0.1392	0.716	0.066
Mof_H 	H 	0.5494	0.2242	0.545	0.045
Mof_H 	H 	0.2242	0.5494	0.6814	0.045
Mof_H 	H 	0.5722	0.8978	0.3564	0.031
Mof_H 	H 	0.7908	0.6928	0.0906	0.084
Mof_H 	H 	0.1392	0.6402	0.5046	0.065
Mof_H 	H 	0.5915	0.6297	0.8441	0.074
Mof_H 	H 	0.7914	0.0096	0.8214	-0.022
Mof_H 	H 	0.0172	0.523	0.5988	0.056
Mof_H 	H 	0.1392	0.5046	0.716	0.065
Mof_H 	H 	0.8214	0.0096	0.3776	-0.023
Mof_H 	H 	0.9828	0.477	0.139	0.056
Mof_H 	H 	0.7758	0.455	0.3186	0.045
Mof_H 	H 	0.4085	0.0653	0.1559	0.074
Mof_H 	H 	0.4012	0.139	0.477	0.056
Mof_H 	H 	0.4506	0.7758	0.3186	0.045
Mof_H 	H 	0.716	0.5046	0.6402	0.065
Mof_H 	H 	0.6436	0.8264	0.1022	0.031
Mof_H 	H 	0.3186	0.7758	0.455	0.045
Mof_H 	H 	0.4506	0.455	0.7758	0.045
Mof_H 	H 	0.3703	0.1559	0.0653	0.074
Mof_H 	H 	0.6297	0.9347	0.8441	0.074
Mof_H 	H 	0.6224	0.2086	0.9904	-0.023
Mof_H 	H 	0.7908	0.0906	0.4258	0.084
Mof_H 	H 	0.9828	0.4012	0.477	0.056
Mof_H 	H 	0.9904	0.2086	0.1786	-0.022
Mof_H 	H 	0.1786	0.6224	0.9904	-0.023
Mof_H 	H 	0.1786	0.9904	0.2086	-0.022
Mof_H 	H 	0.5494	0.6814	0.2242	0.045
Mof_H 	H 	0.8978	0.1736	0.3564	0.031
Mof_H 	H 	0.3703	0.0653	0.4085	0.074
Mof_H 	H 	0.8214	0.7914	0.0096	-0.022
Mof_H 	H 	0.8539	0.8745	0.7283	-0.011
Mof_H 	H 	0.5046	0.6402	0.716	0.065
Mof_H 	H 	0.3186	0.4506	0.7758	0.045
Mof_H 	H 	0.0906	0.4258	0.7908	0.084
Mof_H 	H 	0.4954	0.8608	0.284	0.065
Mof_H 	H 	0.0906	0.7908	0.6928	0.084
Mof_H 	H 	0.1255	0.4567	0.1461	-0.012
Mof_H 	H 	0.3776	0.7914	0.8214	-0.023
Mof_H 	H 	0.8608	0.4954	0.3598	0.065
Mof_H 	H 	0.4012	0.477	0.9828	0.056
Mof_H 	H 	0.0096	0.7914	0.3776	-0.023
Mof_H 	H 	0.4258	0.7908	0.0906	0.084
Mof_H 	H 	0.0172	0.861	0.523	0.056
Mof_H 	H 	0.2092	0.3072	0.5742	0.084
Mof_H 	H 	0.4506	0.3186	0.455	0.045
Mof_H 	H 	0.284	0.8608	0.3598	0.066
Mof_H 	H 	0.861	0.523	0.0172	0.056
Mof_H 	H 	0.1392	0.716	0.6402	0.066
Mof_H 	H 	0.8745	0.5433	0.7283	-0.011
Mof_H 	H 	0.9347	0.8441	0.6297	0.074
Mof_H 	H 	0.5915	0.9347	0.6297	0.074
Mof_H 	H 	0.7914	0.8214	0.3776	-0.023
Mof_H 	H 	0.2092	0.5742	0.9094	0.084
Mof_H 	H 	0.3564	0.1736	0.5722	0.031
Mof_H 	H 	0.4567	0.1461	0.1255	-0.012
Mof_H 	H 	0.0653	0.4085	0.3703	0.074
Mof_H 	H 	0.3598	0.8608	0.4954	0.065
Mof_H 	H 	0.523	0.0172	0.861	0.056
Mof_H 	H 	0.1461	0.2717	0.1255	-0.011
Mof_H 	H 	0.4085	0.3703	0.0653	0.074
Mof_H 	H 	0.5988	0.861	0.0172	0.056
Mof_H 	H 	0.7283	0.5433	0.8539	-0.011
Mof_H 	H 	0.5722	0.3564	0.1736	0.031
Mof_H 	H 	0.716	0.6402	0.1392	0.066
Mof_H 	H 	0.0096	0.8214	0.7914	-0.022
Mof_H 	H 	0.5046	0.1392	0.6402	0.065
Mof_H 	H 	0.0653	0.1559	0.4085	0.074
Mof_H 	H 	0.3186	0.455	0.4506	0.045
Mof_H 	H 	0.2242	0.545	0.5494	0.045
Mof_H 	H 	0.8264	0.6436	0.4278	0.031
Mof_H 	H 	0.284	0.4954	0.8608	0.065
Mof_H 	H 	0.2086	0.6224	0.1786	-0.023
Mof_H 	H 	0.2242	0.6814	0.545	0.045
Mof_H 	H 	0.1022	0.6436	0.8264	0.031
Mof_H 	H 	0.1255	0.2717	0.4567	-0.011
Mof_H 	H 	0.9828	0.139	0.4012	0.056
Mof_H 	H 	0.1736	0.5722	0.3564	0.031
Mof_H 	H 	0.5742	0.9094	0.2092	0.084
Mof_H 	H 	0.5988	0.0172	0.523	0.056
Mof_H 	H 	0.8264	0.1022	0.6436	0.031
Mof_H 	H 	0.6436	0.1022	0.4278	0.031
Mof_H 	H 	0.7283	0.8745	0.5433	-0.011
Mof_H 	H 	0.2086	0.9904	0.6224	-0.023
Mof_H 	H 	0.9904	0.6224	0.2086	-0.023
Mof_H 	H 	0.8978	0.5722	0.1736	0.031
Mof_H 	H 	0.6402	0.5046	0.1392	0.065
Mof_H 	H 	0.3564	0.5722	0.8978	0.031
Mof_H 	H 	0.6436	0.4278	0.8264	0.031
Mof_H 	H 	0.0653	0.3703	0.1559	0.074
Mof_H 	H 	0.4085	0.1559	0.3703	0.074
Mof_H 	H 	0.861	0.5988	0.523	0.056
Mof_H 	H 	0.1461	0.1255	0.4567	-0.012
Mof_H 	H 	0.0096	0.3776	0.8214	-0.023
Mof_H 	H 	0.5742	0.3072	0.9094	0.084
Mof_H 	H 	0.477	0.9828	0.4012	0.056
Mof_H 	H 	0.477	0.139	0.9828	0.056
Mof_H 	H 	0.1736	0.8978	0.5722	0.031
Mof_H 	H 	0.4954	0.284	0.3598	0.065
Mof_H 	H 	0.1022	0.8264	0.4278	0.031
Mof_H 	H 	0.9347	0.5915	0.8441	0.074
Mof_H 	H 	0.6297	0.5915	0.9347	0.074
Mof_H 	H 	0.1461	0.4567	0.2717	-0.011
Mof_H 	H 	0.5046	0.716	0.1392	0.065
Mof_H 	H 	0.4258	0.0906	0.6928	0.084
Mof_H 	H 	0.6928	0.7908	0.4258	0.084
Mof_H 	H 	0.139	0.9828	0.477	0.056
Mof_H 	H 	0.9094	0.2092	0.5742	0.084
Mof_H 	H 	0.3598	0.4954	0.284	0.065
Mof_H 	H 	0.6928	0.0906	0.7908	0.084
Mof_H 	H 	0.3072	0.2092	0.9094	0.084
Mof_H 	H 	0.8214	0.3776	0.7914	-0.023
Mof_H 	H 	0.4278	0.1022	0.8264	0.031
Mof_H 	H 	0.8608	0.3598	0.284	0.066
Mof_H 	H 	0.477	0.4012	0.139	0.056
Mof_H 	H 	0.1786	0.2086	0.6224	-0.023
Mof_H 	H 	0.1559	0.3703	0.4085	0.074
Mof_H 	H 	0.6928	0.4258	0.0906	0.084
Mof_H 	H 	0.5988	0.523	0.861	0.056
Mof_H 	H 	0.3564	0.8978	0.1736	0.031
Mof_H 	H 	0.8441	0.5915	0.6297	0.074
Mof_H 	H 	0.3776	0.8214	0.0096	-0.023
Mof_H 	H 	0.3598	0.284	0.8608	0.066
Mof_H 	H 	0.523	0.5988	0.0172	0.056
Mof_H 	H 	0.4278	0.6436	0.1022	0.031
Mof_H 	H 	0.6402	0.716	0.5046	0.065
Mof_H 	H 	0.5722	0.1736	0.8978	0.031
Mof_H 	H 	0.7758	0.4506	0.455	0.045
Mof_H 	H 	0.7908	0.4258	0.6928	0.084
Mof_H 	H 	0.1559	0.0653	0.3703	0.074
Mof_H 	H 	0.545	0.5494	0.2242	0.045
Mof_H 	H 	0.6224	0.1786	0.2086	-0.023
Mof_H 	H 	0.545	0.2242	0.6814	0.045
Mof_H 	H 	0.2717	0.4567	0.1255	-0.011
Mof_H 	H 	0.3703	0.4085	0.1559	0.074
Mof_H 	H 	0.4278	0.8264	0.6436	0.031
Mof_H 	H 	0.545	0.6814	0.5494	0.045
Mof_H 	H 	0.8539	0.5433	0.8745	-0.012
Mof_H 	H 	0.523	0.861	0.5988	0.056
Mof_H 	H 	0.9094	0.3072	0.2092	0.084
Mof_H 	H 	0.2717	0.1461	0.4567	-0.011
Mof_H 	H 	0.139	0.477	0.4012	0.056
Mof_H 	H 	0.5433	0.7283	0.8745	-0.011
Mof_H 	H 	0.3072	0.9094	0.5742	0.084
Mof_H 	H 	0.6224	0.9904	0.1786	-0.023
Mof_H 	H 	0.9094	0.5742	0.3072	0.084
Mof_H 	H 	0.1255	0.1461	0.2717	-0.011
Mof_H 	H 	0.4954	0.3598	0.8608	0.065
Mof_H 	H 	0.9904	0.1786	0.6224	-0.023
Mof_H 	H 	0.8264	0.4278	0.1022	0.031
Mof_H 	H 	0.3072	0.5742	0.2092	0.084
Mof_H 	H 	0.5915	0.8441	0.9347	0.074
Mof_H 	H 	0.5433	0.8745	0.8539	-0.012
Mof_H 	H 	0.7914	0.3776	0.0096	-0.023
Mof_H 	H 	0.455	0.4506	0.3186	0.045
Mof_H 	H 	0.5494	0.545	0.6814	0.045
Mof_H 	H 	0.455	0.7758	0.4506	0.045
Mof_H 	H 	0.1559	0.4085	0.0653	0.074
Mof_H 	H 	0.6814	0.5494	0.545	0.045
Mof_H 	H 	0.4012	0.9828	0.139	0.056
Mof_H 	H 	0.7758	0.3186	0.4506	0.045
Mof_H 	H 	0.8539	0.7283	0.5433	-0.011
Mof_H 	H 	0.2092	0.9094	0.3072	0.084
Mof_H 	H 	0.4258	0.6928	0.7908	0.084
Mof_H 	H 	0.4567	0.1255	0.2717	-0.011
Mof_H 	H 	0.8441	0.6297	0.9347	0.074
Mof_H 	H 	0.6297	0.8441	0.5915	0.074
Mof_H 	H 	0.8978	0.3564	0.5722	0.031
Mof_H 	H 	0.9347	0.6297	0.5915	0.074
Mof_H 	H 	0.8745	0.8539	0.5433	-0.012
Mof_H 	H 	0.861	0.0172	0.5988	0.056
Mof_H 	H 	0.0172	0.5988	0.861	0.056
Mof_H 	H 	0.2086	0.1786	0.9904	-0.022
Mof_H 	H 	0.716	0.1392	0.5046	0.065
Mof_C 	C 	0.1605	0.3375	0.4519	-0.145
Mof_C 	C 	0.24939	0.82881	0.52259	-0.091
Mof_C 	C 	0.9575	0.1921	0.5503	-0.148
Mof_C 	C 	0.7726	0.2736	0.3692	0.349
Mof_C 	C 	0.9499	0.6625	0.5481	-0.145
Mof_C 	C 	0.59058	0.07022	0.79178	0.02
Mof_C 	C 	0.46721	0.86839	0.26161	-0.081
Mof_C 	C 	0.9798	0.348	0.1854	0.073
Mof_C 	C 	0.5292	0.8902	0.3846	0.018
Mof_C 	C 	0.174	0.2414	0.579	0.089
Mof_C 	C 	0.8902	0.196	0.3846	0.018
Mof_C 	C 	0.4519	0.0501	0.1605	-0.146
Mof_C 	C 	0.86839	0.40279	0.26161	-0.082
Mof_C 	C 	0.3001	0.1921	0.9575	-0.146
Mof_C 	C 	0.826	0.9944	0.421	0.088
Mof_C 	C 	0.174	0.579	0.0056	0.088
Mof_C 	C 	0.45258	0.92978	0.20822	0.02
Mof_C 	C 	0.3375	0.1605	0.0501	-0.145
Mof_C 	C 	0.8575	0.9019	0.5195	0.085
Mof_C 	C 	0.45258	0.40942	0.92978	0.02
Mof_C 	C 	0.5292	0.3846	0.196	0.018
Mof_C 	C 	0.0501	0.1605	0.4519	-0.146
Mof_C 	C 	0.39921	0.52259	0.82881	-0.091
Mof_C 	C 	0.3692	0.2736	0.5846	0.349
Mof_C 	C 	0.4497	0.8079	0.0425	-0.148
Mof_C 	C 	0.59721	0.53279	0.13161	-0.081
Mof_C 	C 	0.2309	0.0759	0.5441	-0.231
Mof_C 	C 	0.8575	0.7211	0.9019	0.085
Mof_C 	C 	0.2789	0.1425	0.0981	0.085
Mof_C 	C 	0.1425	0.0981	0.2789	0.085
Mof_C 	C 	0.8178	0.2822	0.4406	0.019
Mof_C 	C 	0.8902	0.5292	0.196	0.018
Mof_C 	C 	0.421	0.7586	0.826	0.089
Mof_C 	C 	0.52259	0.24939	0.82881	-0.091
Mof_C 	C 	0.60079	0.47741	0.75061	-0.091
Mof_C 	C 	0.804	0.4708	0.1098	0.018
Mof_C 	C 	0.0202	0.5132	0.8146	0.074
Mof_C 	C 	0.421	0.826	0.9944	0.088
Mof_C 	C 	0.94076	0.17544	0.41124	-0.083
Mof_C 	C 	0.9019	0.5195	0.8575	0.085
Mof_C 	C 	0.9499	0.8395	0.6625	-0.145
Mof_C 	C 	0.45258	0.20822	0.40942	0.02
Mof_C 	C 	0.05924	0.82456	0.52744	-0.083
Mof_C 	C 	0.4406	0.4594	0.8178	0.019
Mof_C 	C 	0.8146	0.652	0.0202	0.073
Mof_C 	C 	0.52744	0.58876	0.05924	-0.083
Mof_C 	C 	0.7726	0.5846	0.2736	0.349
Mof_C 	C 	0.13161	0.73839	0.59721	-0.082
Mof_C 	C 	0.0056	0.2414	0.174	0.086
Mof_C 	C 	0.53279	0.59721	0.73839	-0.081
Mof_C 	C 	0.47741	0.75061	0.60079	-0.091
Mof_C 	C 	0.1605	0.0501	0.3375	-0.145
Mof_C 	C 	0.59058	0.54742	0.07022	0.02
Mof_C 	C 	0.4559	0.7691	0.8509	-0.232
Mof_C 	C 	0.0759	0.1491	0.5441	-0.231
Mof_C 	C 	0.40279	0.26161	0.86839	-0.082
Mof_C 	C 	0.58876	0.82456	0.05924	-0.083
Mof_C 	C 	0.579	0.2414	0.0056	0.088
Mof_C 	C 	0.40942	0.92978	0.45258	0.02
Mof_C 	C 	0.26161	0.86839	0.40279	-0.082
Mof_C 	C 	0.804	0.6154	0.4708	0.018
Mof_C 	C 	0.52744	0.05924	0.82456	-0.083
Mof_C 	C 	0.6308	0.4154	0.7264	0.349
Mof_C 	C 	0.4868	0.9798	0.1854	0.074
Mof_C 	C 	0.0981	0.4805	0.2789	0.085
Mof_C 	C 	0.5195	0.9019	0.7211	0.085
Mof_C 	C 	0.5292	0.196	0.8902	0.018
Mof_C 	C 	0.652	0.0202	0.8146	0.073
Mof_C 	C 	0.47256	0.94076	0.41124	-0.083
Mof_C 	C 	0.82881	0.52259	0.24939	-0.091
Mof_C 	C 	0.6999	0.4497	0.0425	-0.148
Mof_C 	C 	0.174	0.0056	0.2414	0.086
Mof_C 	C 	0.9575	0.3001	0.1921	-0.146
Mof_C 	C 	0.59721	0.13161	0.73839	-0.082
Mof_C 	C 	0.75061	0.17119	0.60079	-0.091
Mof_C 	C 	0.39921	0.24939	0.52259	-0.091
Mof_C 	C 	0.2822	0.8178	0.4594	0.019
Mof_C 	C 	0.7211	0.5195	0.9019	0.085
Mof_C 	C 	0.9499	0.5481	0.8395	-0.146
Mof_C 	C 	0.73839	0.53279	0.59721	-0.081
Mof_C 	C 	0.4805	0.2789	0.0981	0.085
Mof_C 	C 	0.0425	0.8079	0.6999	-0.146
Mof_C 	C 	0.17119	0.75061	0.47741	-0.091
Mof_C 	C 	0.2274	0.6308	0.7264	0.349
Mof_C 	C 	0.1425	0.4805	0.0981	0.085
Mof_C 	C 	0.05924	0.52744	0.58876	-0.083
Mof_C 	C 	0.5846	0.7726	0.3692	0.349
Mof_C 	C 	0.8178	0.4594	0.2822	0.019
Mof_C 	C 	0.6154	0.804	0.1098	0.018
Mof_C 	C 	0.4519	0.1605	0.3375	-0.145
Mof_C 	C 	0.9798	0.4868	0.348	0.074
Mof_C 	C 	0.5441	0.1491	0.2309	-0.232
Mof_C 	C 	0.1822	0.5406	0.5594	0.019
Mof_C 	C 	0.1854	0.348	0.4868	0.073
Mof_C 	C 	0.0425	0.4497	0.8079	-0.148
Mof_C 	C 	0.4519	0.3375	0.0501	-0.145
Mof_C 	C 	0.40942	0.20822	0.92978	0.02
Mof_C 	C 	0.07022	0.59058	0.54742	0.02
Mof_C 	C 	0.1921	0.9575	0.3001	-0.146
Mof_C 	C 	0.86839	0.46721	0.40279	-0.081
Mof_C 	C 	0.5406	0.7178	0.5594	0.019
Mof_C 	C 	0.07022	0.54742	0.79178	0.02
Mof_C 	C 	0.2274	0.4154	0.6308	0.349
Mof_C 	C 	0.9241	0.7691	0.4559	-0.231
Mof_C 	C 	0.5594	0.1822	0.5406	0.019
Mof_C 	C 	0.5132	0.652	0.8146	0.073
Mof_C 	C 	0.3692	0.5846	0.7726	0.349
Mof_C 	C 	0.1491	0.5441	0.0759	-0.231
Mof_C 	C 	0.5846	0.3692	0.2736	0.349
Mof_C 	C 	0.3846	0.5292	0.8902	0.018
Mof_C 	C 	0.5195	0.7211	0.8575	0.085
Mof_C 	C 	0.5132	0.8146	0.0202	0.074
Mof_C 	C 	0.8902	0.3846	0.5292	0.018
Mof_C 	C 	0.82881	0.24939	0.39921	-0.091
Mof_C 	C 	0.4805	0.0981	0.1425	0.085
Mof_C 	C 	0.4868	0.1854	0.348	0.073
Mof_C 	C 	0.1605	0.4519	0.0501	-0.146
Mof_C 	C 	0.2274	0.7264	0.4154	0.349
Mof_C 	C 	0.0501	0.4519	0.3375	-0.145
Mof_C 	C 	0.52744	0.82456	0.58876	-0.083
Mof_C 	C 	0.3846	0.8902	0.196	0.018
Mof_C 	C 	0.8509	0.7691	0.9241	-0.231
Mof_C 	C 	0.804	0.1098	0.6154	0.018
Mof_C 	C 	0.0501	0.3375	0.1605	-0.145
Mof_C 	C 	0.40942	0.45258	0.20822	0.02
Mof_C 	C 	0.2789	0.0981	0.4805	0.085
Mof_C 	C 	0.20822	0.92978	0.40942	0.02
Mof_C 	C 	0.47741	0.60079	0.17119	-0.091
Mof_C 	C 	0.60079	0.75061	0.17119	-0.091
Mof_C 	C 	0.7264	0.4154	0.2274	0.349
Mof_C 	C 	0.7178	0.5406	0.1822	0.019
Mof_C 	C 	0.8509	0.9241	0.4559	-0.231
Mof_C 	C 	0.9241	0.4559	0.8509	-0.231
Mof_C 	C 	0.82456	0.52744	0.05924	-0.083
Mof_C 	C 	0.79178	0.59058	0.07022	0.02
Mof_C 	C 	0.58876	0.52744	0.82456	-0.083
Mof_C 	C 	0.20822	0.40942	0.45258	0.02
Mof_C 	C 	0.4497	0.6999	0.8079	-0.148
Mof_C 	C 	0.53279	0.13161	0.59721	-0.081
Mof_C 	C 	0.52259	0.39921	0.24939	-0.091
Mof_C 	C 	0.3375	0.4519	0.1605	-0.145
Mof_C 	C 	0.17544	0.94076	0.47256	-0.083
Mof_C 	C 	0.86839	0.26161	0.46721	-0.081
Mof_C 	C 	0.0759	0.5441	0.2309	-0.231
Mof_C 	C 	0.6308	0.7264	0.2274	0.349
Mof_C 	C 	0.2789	0.4805	0.1425	0.085
Mof_C 	C 	0.17544	0.47256	0.41124	-0.083
Mof_C 	C 	0.73839	0.59721	0.13161	-0.082
Mof_C 	C 	0.17119	0.60079	0.75061	-0.091
Mof_C 	C 	0.07022	0.79178	0.59058	0.02
Mof_C 	C 	0.24939	0.39921	0.82881	-0.091
Mof_C 	C 	0.2414	0.174	0.0056	0.086
Mof_C 	C 	0.4154	0.2274	0.7264	0.349
Mof_C 	C 	0.26161	0.40279	0.46721	-0.081
Mof_C 	C 	0.4594	0.4406	0.2822	0.019
Mof_C 	C 	0.8079	0.0425	0.4497	-0.148
Mof_C 	C 	0.0759	0.2309	0.1491	-0.231
Mof_C 	C 	0.4594	0.8178	0.4406	0.019
Mof_C 	C 	0.4868	0.348	0.9798	0.074
Mof_C 	C 	0.348	0.9798	0.4868	0.074
Mof_C 	C 	0.9944	0.826	0.7586	0.086
Mof_C 	C 	0.1491	0.2309	0.5441	-0.232
Mof_C 	C 	0.1822	0.7178	0.5406	0.019
Mof_C 	C 	0.5481	0.6625	0.8395	-0.145
Mof_C 	C 	0.3692	0.7726	0.2736	0.349
Mof_C 	C 	0.53279	0.73839	0.13161	-0.081
Mof_C 	C 	0.1425	0.2789	0.4805	0.085
Mof_C 	C 	0.0425	0.6999	0.4497	-0.148
Mof_C 	C 	0.6625	0.9499	0.8395	-0.145
Mof_C 	C 	0.348	0.4868	0.1854	0.073
Mof_C 	C 	0.40279	0.86839	0.46721	-0.081
Mof_C 	C 	0.0981	0.1425	0.4805	0.085
Mof_C 	C 	0.4708	0.804	0.6154	0.018
Mof_C 	C 	0.9241	0.8509	0.7691	-0.231
Mof_C 	C 	0.7211	0.9019	0.8575	0.085
Mof_C 	C 	0.4497	0.0425	0.6999	-0.148
Mof_C 	C 	0.94076	0.41124	0.47256	-0.083
Mof_C 	C 	0.5846	0.2736	0.7726	0.349
Mof_C 	C 	0.6154	0.4708	0.804	0.018
Mof_C 	C 	0.7586	0.421	0.9944	0.088
Mof_C 	C 	0.7178	0.1822	0.5594	0.019
Mof_C 	C 	0.8146	0.0202	0.5132	0.074
Mof_C 	C 	0.0056	0.174	0.579	0.088
Mof_C 	C 	0.1921	0.3001	0.5503	-0.148
Mof_C 	C 	0.421	0.9944	0.7586	0.088
Mof_C 	C 	0.1098	0.804	0.4708	0.018
Mof_C 	C 	0.8079	0.4497	0.6999	-0.148
Mof_C 	C 	0.5503	0.9575	0.1921	-0.148
Mof_C 	C 	0.8395	0.5481	0.6625	-0.145
Mof_C 	C 	0.1921	0.5503	0.9575	-0.148
Mof_C 	C 	0.47741	0.17119	0.75061	-0.091
Mof_C 	C 	0.4406	0.2822	0.4594	0.019
Mof_C 	C 	0.54742	0.59058	0.79178	0.02
Mof_C 	C 	0.92978	0.45258	0.40942	0.02
Mof_C 	C 	0.94076	0.47256	0.17544	-0.083
Mof_C 	C 	0.2414	0.0056	0.579	0.088
Mof_C 	C 	0.79178	0.07022	0.54742	0.02
Mof_C 	C 	0.47256	0.17544	0.94076	-0.083
Mof_C 	C 	0.2822	0.4594	0.4406	0.019
Mof_C 	C 	0.1098	0.6154	0.804	0.018
Mof_C 	C 	0.7264	0.2274	0.6308	0.349
Mof_C 	C 	0.4406	0.8178	0.2822	0.019
Mof_C 	C 	0.196	0.3846	0.8902	0.018
Mof_C 	C 	0.8509	0.4559	0.7691	-0.232
Mof_C 	C 	0.8079	0.6999	0.0425	-0.146
Mof_C 	C 	0.348	0.1854	0.9798	0.073
Mof_C 	C 	0.0202	0.8146	0.652	0.073
Mof_C 	C 	0.3375	0.0501	0.4519	-0.145
Mof_C 	C 	0.5441	0.0759	0.1491	-0.231
Mof_C 	C 	0.6625	0.8395	0.5481	-0.145
Mof_C 	C 	0.75061	0.60079	0.47741	-0.091
Mof_C 	C 	0.0981	0.2789	0.1425	0.085
Mof_C 	C 	0.9575	0.5503	0.3001	-0.148
Mof_C 	C 	0.2736	0.3692	0.7726	0.349
Mof_C 	C 	0.41124	0.94076	0.17544	-0.083
Mof_C 	C 	0.73839	0.13161	0.53279	-0.081
Mof_C 	C 	0.6625	0.5481	0.9499	-0.145
Mof_C 	C 	0.9019	0.8575	0.7211	0.085
Mof_C 	C 	0.3001	0.9575	0.5503	-0.148
Mof_C 	C 	0.8146	0.5132	0.652	0.073
Mof_C 	C 	0.5481	0.9499	0.6625	-0.145
Mof_C 	C 	0.92978	0.40942	0.20822	0.02
Mof_C 	C 	0.1854	0.9798	0.348	0.073
Mof_C 	C 	0.7586	0.9944	0.826	0.086
Mof_C 	C 	0.2736	0.5846	0.3692	0.349
Mof_C 	C 	0.9019	0.7211	0.5195	0.085
Mof_C 	C 	0.1098	0.4708	0.6154	0.018
Mof_C 	C 	0.1854	0.4868	0.9798	0.074
Mof_C 	C 	0.41124	0.47256	0.94076	-0.083
Mof_C 	C 	0.0202	0.652	0.5132	0.074
Mof_C 	C 	0.82881	0.39921	0.52259	-0.091
Mof_C 	C 	0.7726	0.3692	0.5846	0.349
Mof_C 	C 	0.4154	0.7264	0.6308	0.349
Mof_C 	C 	0.1822	0.5594	0.7178	0.019
Mof_C 	C 	0.579	0.0056	0.174	0.088
Mof_C 	C 	0.5132	0.0202	0.652	0.074
Mof_C 	C 	0.39921	0.82881	0.24939	-0.091
Mof_C 	C 	0.3846	0.196	0.5292	0.018
Mof_C 	C 	0.20822	0.45258	0.92978	0.02
Mof_C 	C 	0.5195	0.8575	0.9019	0.085
Mof_C 	C 	0.54742	0.79178	0.07022	0.02
Mof_C 	C 	0.54742	0.07022	0.59058	0.02
Mof_C 	C 	0.59058	0.79178	0.54742	0.02
Mof_C 	C 	0.46721	0.40279	0.86839	-0.081
Mof_C 	C 	0.4559	0.9241	0.7691	-0.231
Mof_C 	C 	0.58876	0.05924	0.52744	-0.083
Mof_C 	C 	0.7691	0.8509	0.4559	-0.232
Mof_C 	C 	0.7691	0.4559	0.9241	-0.231
Mof_C 	C 	0.1491	0.0759	0.2309	-0.231
Mof_C 	C 	0.7178	0.5594	0.5406	0.019
Mof_C 	C 	0.196	0.5292	0.3846	0.018
Mof_C 	C 	0.2414	0.579	0.174	0.089
Mof_C 	C 	0.26161	0.46721	0.86839	-0.081
Mof_C 	C 	0.4708	0.6154	0.1098	0.018
Mof_C 	C 	0.92978	0.20822	0.45258	0.02
Mof_C 	C 	0.7691	0.9241	0.8509	-0.231
Mof_C 	C 	0.60079	0.17119	0.47741	-0.091
Mof_C 	C 	0.7264	0.6308	0.4154	0.349
Mof_C 	C 	0.5503	0.3001	0.9575	-0.148
Mof_C 	C 	0.8178	0.4406	0.4594	0.019
Mof_C 	C 	0.13161	0.59721	0.53279	-0.081
Mof_C 	C 	0.47256	0.41124	0.17544	-0.083
Mof_C 	C 	0.79178	0.54742	0.59058	0.02
Mof_C 	C 	0.2309	0.1491	0.0759	-0.231
Mof_C 	C 	0.5594	0.5406	0.7178	0.019
Mof_C 	C 	0.2309	0.5441	0.1491	-0.232
Mof_C 	C 	0.40279	0.46721	0.26161	-0.081
Mof_C 	C 	0.3001	0.5503	0.1921	-0.148
Mof_C 	C 	0.2736	0.7726	0.5846	0.349
Mof_C 	C 	0.6154	0.1098	0.4708	0.018
Mof_C 	C 	0.5441	0.2309	0.0759	-0.231
Mof_C 	C 	0.6999	0.0425	0.8079	-0.146
Mof_C 	C 	0.17544	0.41124	0.94076	-0.083
Mof_C 	C 	0.4559	0.8509	0.9241	-0.231
Mof_C 	C 	0.0056	0.579	0.2414	0.088
Mof_C 	C 	0.5406	0.5594	0.1822	0.019
Mof_C 	C 	0.13161	0.53279	0.73839	-0.081
Mof_C 	C 	0.652	0.8146	0.5132	0.073
Mof_C 	C 	0.652	0.5132	0.0202	0.074
Mof_C 	C 	0.9944	0.7586	0.421	0.088
Mof_C 	C 	0.8395	0.9499	0.5481	-0.146
Mof_C 	C 	0.17119	0.47741	0.60079	-0.091
Mof_C 	C 	0.82456	0.58876	0.52744	-0.083
Mof_C 	C 	0.9944	0.421	0.826	0.088
Mof_C 	C 	0.46721	0.26161	0.40279	-0.081
Mof_C 	C 	0.5406	0.1822	0.7178	0.019
Mof_C 	C 	0.75061	0.47741	0.17119	-0.091
Mof_C 	C 	0.6308	0.2274	0.4154	0.349
Mof_C 	C 	0.5503	0.1921	0.3001	-0.148
Mof_C 	C 	0.05924	0.58876	0.82456	-0.083
Mof_C 	C 	0.8395	0.6625	0.9499	-0.145
Mof_C 	C 	0.4154	0.6308	0.2274	0.349
Mof_C 	C 	0.4594	0.2822	0.8178	0.019
Mof_C 	C 	0.6999	0.8079	0.4497	-0.148
Mof_C 	C 	0.59721	0.73839	0.53279	-0.081
Mof_C 	C 	0.4708	0.1098	0.804	0.018
Mof_C 	C 	0.24939	0.52259	0.39921	-0.091
Mof_C 	C 	0.9798	0.1854	0.4868	0.074
Mof_C 	C 	0.579	0.174	0.2414	0.089
Mof_C 	C 	0.196	0.8902	0.5292	0.018
Mof_C 	C 	0.2822	0.4406	0.8178	0.019
Mof_C 	C 	0.826	0.421	0.7586	0.089
Mof_C 	C 	0.7586	0.826	0.421	0.089
Mof_C 	C 	0.826	0.7586	0.9944	0.086
Mof_C 	C 	0.8575	0.5195	0.7211	0.085
Mof_C 	C 	0.4805	0.1425	0.2789	0.085
Mof_C 	C 	0.5594	0.7178	0.1822	0.019
Mof_C 	C 	0.7211	0.8575	0.5195	0.085
Mof_C 	C 	0.52259	0.82881	0.39921	-0.091
Mof_C 	C 	0.5481	0.8395	0.9499	-0.146
Mof_C 	C 	0.41124	0.17544	0.47256	-0.083
Mof_C 	C 	0.82456	0.05924	0.58876	-0.083
Mof_O 	O 	0.3598	0.7514	0.671	-0.424
Mof_O 	O 	0.4319	0.6751	0.6139	-0.406
Mof_O 	O 	0.6139	0.4319	0.6751	-0.406
Mof_O 	O 	0.3861	0.3249	0.5681	-0.406
Mof_O 	O 	0.3598	0.2178	0.7514	-0.424
Mof_O 	O 	0.4319	0.2791	0.6751	-0.406
Mof_O 	O 	0.2791	0.6139	0.6751	-0.406
Mof_O 	O 	0.329	0.7822	0.2486	-0.424
Mof_O 	O 	0.671	0.3598	0.7514	-0.424
Mof_O 	O 	0.6751	0.6139	0.4319	-0.406
Mof_O 	O 	0.7209	0.3249	0.3861	-0.406
Mof_O 	O 	0.329	0.2486	0.6402	-0.424
Mof_O 	O 	0.6751	0.2791	0.6139	-0.406
Mof_O 	O 	0.2178	0.3598	0.671	-0.424
Mof_O 	O 	0.3598	0.671	0.2178	-0.424
Mof_O 	O 	0.6751	0.4319	0.2791	-0.406
Mof_O 	O 	0.3861	0.5681	0.7209	-0.406
Mof_O 	O 	0.6402	0.7822	0.329	-0.424
Mof_O 	O 	0.3249	0.7209	0.5681	-0.406
Mof_O 	O 	0.7514	0.2178	0.671	-0.424
Mof_O 	O 	0.2791	0.4319	0.6139	-0.406
Mof_O 	O 	0.2486	0.6402	0.329	-0.424
Mof_O 	O 	0.3861	0.7209	0.3249	-0.406
Mof_O 	O 	0.7514	0.3598	0.2178	-0.424
Mof_O 	O 	0.3249	0.3861	0.7209	-0.406
Mof_O 	O 	0.6402	0.2486	0.7822	-0.424
Mof_O 	O 	0.3249	0.5681	0.3861	-0.406
Mof_O 	O 	0.2486	0.329	0.7822	-0.424
Mof_O 	O 	0.329	0.6402	0.7822	-0.424
Mof_O 	O 	0.5681	0.7209	0.3861	-0.406
Mof_O 	O 	0.6139	0.6751	0.2791	-0.406
Mof_O 	O 	0.2178	0.671	0.7514	-0.424
Mof_O 	O 	0.4319	0.6139	0.2791	-0.406
Mof_O 	O 	0.7209	0.5681	0.3249	-0.406
Mof_O 	O 	0.5681	0.3249	0.7209	-0.406
Mof_O 	O 	0.7514	0.671	0.3598	-0.424
Mof_O 	O 	0.7822	0.329	0.6402	-0.424
Mof_O 	O 	0.2178	0.7514	0.3598	-0.424
Mof_O 	O 	0.671	0.2178	0.3598	-0.424
Mof_O 	O 	0.6139	0.2791	0.4319	-0.406
Mof_O 	O 	0.7822	0.2486	0.329	-0.424
Mof_O 	O 	0.2486	0.7822	0.6402	-0.424
Mof_O 	O 	0.671	0.7514	0.2178	-0.424
Mof_O 	O 	0.2791	0.6751	0.4319	-0.406
Mof_O 	O 	0.7209	0.3861	0.5681	-0.406
Mof_O 	O 	0.7822	0.6402	0.2486	-0.424
Mof_O 	O 	0.5681	0.3861	0.3249	-0.406
Mof_O 	O 	0.6402	0.329	0.2486	-0.424
_end
