data_functionalizedCrystal
_audit_creation_method	'EQeq! by Chris Wilmer'
_symmetry_space_group_name_H-M	'P1'
_symmetry_Int_Tables_number	1
_symmetry_cell_setting	triclinic
loop_
_symmetry_equiv_pos_as_xyz
  x,y,z
_cell_length_a	22.4779
_cell_length_b	22.4779
_cell_length_c	22.4779
_cell_angle_alpha	66.8998
_cell_angle_beta	77.5657
_cell_angle_gamma	113.1
loop_
_atom_site_label
_atom_site_type_symbol
_atom_site_fract_x
_atom_site_fract_y
_atom_site_fract_z
_atom_site_charge
Mof_Cu	Cu	0.691	0.40295	0.54911	0.83
Mof_Cu	Cu	0.54794	0.09705	0.71195	0.83
Mof_Cu	Cu	0.28805	0.74011	0.309	0.83
Mof_Cu	Cu	0.45089	0.75989	0.45206	0.83
Mof_Cu	Cu	0.309	0.59705	0.45089	0.83
Mof_Cu	Cu	0.45206	0.90295	0.28805	0.83
Mof_Cu	Cu	0.71195	0.25989	0.691	0.83
Mof_Cu	Cu	0.54911	0.24011	0.54794	0.83
Mof_H 	H 	0.6917	0.5437	0.4852	-0.008
Mof_H 	H 	0.6243	0.5928	0.4423	0.073
Mof_H 	H 	0.4527	0.384	0.5973	0.074
Mof_H 	H 	0.5338	0.3477	0.6167	-0.018
Mof_H 	H 	0.4711	0.9563	0.852	-0.008
Mof_H 	H 	0.4649	0.9072	0.9685	0.072
Mof_H 	H 	0.5187	0.116	0.9313	0.074
Mof_H 	H 	0.5356	0.1523	0.8139	-0.018
Mof_H 	H 	0.148	0.6769	0.3083	-0.008
Mof_H 	H 	0.0315	0.5666	0.3757	0.073
Mof_H 	H 	0.0687	0.55	0.5473	0.074
Mof_H 	H 	0.1861	0.6505	0.4662	-0.018
Mof_H 	H 	0.5148	0.8231	0.5289	-0.008
Mof_H 	H 	0.5577	0.9334	0.5351	0.073
Mof_H 	H 	0.4027	0.95	0.4813	0.073
Mof_H 	H 	0.3833	0.8495	0.4644	-0.019
Mof_H 	H 	0.3083	0.4563	0.5148	-0.009
Mof_H 	H 	0.3757	0.4072	0.5577	0.072
Mof_H 	H 	0.5473	0.616	0.4027	0.073
Mof_H 	H 	0.4662	0.6523	0.3833	-0.019
Mof_H 	H 	0.5289	0.0437	0.148	-0.009
Mof_H 	H 	0.5351	0.0928	0.0315	0.071
Mof_H 	H 	0.4813	0.884	0.0687	0.073
Mof_H 	H 	0.4644	0.8477	0.1861	-0.019
Mof_H 	H 	0.852	0.3231	0.6917	-0.009
Mof_H 	H 	0.9685	0.4334	0.6243	0.072
Mof_H 	H 	0.9313	0.45	0.4527	0.073
Mof_H 	H 	0.8139	0.3495	0.5338	-0.019
Mof_H 	H 	0.4852	0.1769	0.4711	-0.009
Mof_H 	H 	0.4423	0.0666	0.4649	0.072
Mof_H 	H 	0.5973	0.05	0.5187	0.073
Mof_H 	H 	0.6167	0.1505	0.5356	-0.019
Mof_W 	W 	0.625	0.25	0.625	0.253
Mof_W 	W 	0.375	0.75	0.375	0.253
Mof_C 	C 	0.6436	0.5096	0.4996	0.077
Mof_C 	C 	0.6022	0.5411	0.4763	-0.12
Mof_C 	C 	0.5231	0.4883	0.5082	0.045
Mof_C 	C 	0.5013	0.4179	0.5658	-0.119
Mof_C 	C 	0.5515	0.3959	0.578	0.069
Mof_C 	C 	0.4908	0.9904	0.866	0.078
Mof_C 	C 	0.4826	0.9589	0.9389	-0.119
Mof_C 	C 	0.5035	0.0117	0.9652	0.044
Mof_C 	C 	0.5163	0.0821	0.9166	-0.119
Mof_C 	C 	0.5261	0.1041	0.8444	0.069
Mof_C 	C 	0.134	0.6432	0.3564	0.077
Mof_C 	C 	0.0611	0.5785	0.3978	-0.12
Mof_C 	C 	0.0348	0.5313	0.4769	0.045
Mof_C 	C 	0.0834	0.5671	0.4987	-0.119
Mof_C 	C 	0.1556	0.6295	0.4485	0.069
Mof_C 	C 	0.5004	0.8568	0.5092	0.077
Mof_C 	C 	0.5237	0.9215	0.5174	-0.12
Mof_C 	C 	0.4918	0.9687	0.4965	0.045
Mof_C 	C 	0.4342	0.9329	0.4837	-0.119
Mof_C 	C 	0.422	0.8705	0.4739	0.069
Mof_C 	C 	0.3564	0.4904	0.5004	0.077
Mof_C 	C 	0.3978	0.4589	0.5237	-0.12
Mof_C 	C 	0.4769	0.5117	0.4918	0.045
Mof_C 	C 	0.4987	0.5821	0.4342	-0.119
Mof_C 	C 	0.4485	0.6041	0.422	0.069
Mof_C 	C 	0.5092	0.0096	0.134	0.078
Mof_C 	C 	0.5174	0.0411	0.0611	-0.119
Mof_C 	C 	0.4965	0.9883	0.0348	0.044
Mof_C 	C 	0.4837	0.9179	0.0834	-0.119
Mof_C 	C 	0.4739	0.8959	0.1556	0.069
Mof_C 	C 	0.866	0.3568	0.6436	0.077
Mof_C 	C 	0.9389	0.4215	0.6022	-0.12
Mof_C 	C 	0.9652	0.4687	0.5231	0.045
Mof_C 	C 	0.9166	0.4329	0.5013	-0.119
Mof_C 	C 	0.8444	0.3705	0.5515	0.069
Mof_C 	C 	0.4996	0.1432	0.4908	0.077
Mof_C 	C 	0.4763	0.0785	0.4826	-0.12
Mof_C 	C 	0.5082	0.0313	0.5035	0.045
Mof_C 	C 	0.5658	0.0671	0.5163	-0.119
Mof_C 	C 	0.578	0.1295	0.5261	0.069
Mof_S 	S 	0.67025	0.32292	0.50509	-0.47
Mof_S 	S 	0.67199	0.17708	0.65267	-0.47
Mof_S 	S 	0.34733	0.67534	0.32975	-0.47
Mof_S 	S 	0.49491	0.82466	0.32801	-0.47
Mof_S 	S 	0.32975	0.67708	0.49491	-0.47
Mof_S 	S 	0.32801	0.82292	0.34733	-0.47
Mof_S 	S 	0.65267	0.32466	0.67025	-0.47
Mof_S 	S 	0.50509	0.17534	0.67199	-0.47
Mof_I 	I 	0.81296	0.52771	0.48043	-0.319
Mof_I 	I 	0.49186	0.97229	0.71475	-0.319
Mof_I 	I 	0.28525	0.79339	0.18704	-0.319
Mof_I 	I 	0.51957	0.70661	0.50814	-0.319
Mof_I 	I 	0.18704	0.47229	0.51957	-0.319
Mof_I 	I 	0.50814	0.02771	0.28525	-0.319
Mof_I 	I 	0.71475	0.20661	0.81296	-0.319
Mof_I 	I 	0.48043	0.29339	0.49186	-0.319
Mof_N 	N 	0.6195	0.4394	0.5381	-0.244
Mof_N 	N 	0.5225	0.0606	0.8199	-0.244
Mof_N 	N 	0.1801	0.6576	0.3805	-0.244
Mof_N 	N 	0.4619	0.8424	0.4775	-0.244
Mof_N 	N 	0.3805	0.5606	0.4619	-0.244
Mof_N 	N 	0.4775	0.9394	0.1801	-0.244
Mof_N 	N 	0.8199	0.3424	0.6195	-0.244
Mof_N 	N 	0.5381	0.1576	0.5225	-0.244
Mof_Cu	Cu	0.95206	0.74011	0.95089	0.829
Mof_Cu	Cu	0.809	0.75989	0.78805	0.829
Mof_Cu	Cu	0.04911	0.09705	0.191	0.829
Mof_Cu	Cu	0.21195	0.40295	0.04794	0.829
Mof_Cu	Cu	0.04794	0.25989	0.04911	0.829
Mof_Cu	Cu	0.191	0.24011	0.21195	0.829
Mof_Cu	Cu	0.95089	0.90295	0.809	0.829
Mof_Cu	Cu	0.78805	0.59705	0.95206	0.829
Mof_H 	H 	0.0289	0.6769	0.0148	-0.009
Mof_H 	H 	0.0351	0.5666	0.0577	0.072
Mof_H 	H 	0.9813	0.55	0.9027	0.073
Mof_H 	H 	0.9644	0.6505	0.8833	-0.019
Mof_H 	H 	0.8083	0.8231	0.648	-0.009
Mof_H 	H 	0.8757	0.9334	0.5315	0.071
Mof_H 	H 	0.0473	0.95	0.5687	0.072
Mof_H 	H 	0.9662	0.8495	0.6861	-0.018
Mof_H 	H 	0.9852	0.9563	0.1917	-0.009
Mof_H 	H 	0.9423	0.9072	0.1243	0.072
Mof_H 	H 	0.0973	0.116	0.9527	0.071
Mof_H 	H 	0.1167	0.1523	0.0338	-0.018
Mof_H 	H 	0.352	0.5437	0.9711	-0.009
Mof_H 	H 	0.4685	0.5928	0.9649	0.072
Mof_H 	H 	0.4313	0.384	0.0187	0.073
Mof_H 	H 	0.3139	0.3477	0.0356	-0.019
Mof_H 	H 	0.9711	0.3231	0.9852	-0.009
Mof_H 	H 	0.9649	0.4334	0.9423	0.072
Mof_H 	H 	0.0187	0.45	0.0973	0.073
Mof_H 	H 	0.0356	0.3495	0.1167	-0.019
Mof_H 	H 	0.1917	0.1769	0.352	-0.009
Mof_H 	H 	0.1243	0.0666	0.4685	0.071
Mof_H 	H 	0.9527	0.05	0.4313	0.072
Mof_H 	H 	0.0338	0.1505	0.3139	-0.018
Mof_H 	H 	0.0148	0.0437	0.8083	-0.009
Mof_H 	H 	0.0577	0.0928	0.8757	0.072
Mof_H 	H 	0.9027	0.884	0.0473	0.071
Mof_H 	H 	0.8833	0.8477	0.9662	-0.018
Mof_H 	H 	0.648	0.4563	0.0289	-0.009
Mof_H 	H 	0.5315	0.4072	0.0351	0.072
Mof_H 	H 	0.5687	0.616	0.9813	0.073
Mof_H 	H 	0.6861	0.6523	0.9644	-0.019
Mof_W 	W 	0.875	0.75	0.875	0.252
Mof_W 	W 	0.125	0.25	0.125	0.252
Mof_C 	C 	0.0092	0.6432	0.0004	0.077
Mof_C 	C 	0.0174	0.5785	0.0237	-0.12
Mof_C 	C 	0.9965	0.5313	0.9918	0.045
Mof_C 	C 	0.9837	0.5671	0.9342	-0.119
Mof_C 	C 	0.9739	0.6295	0.922	0.069
Mof_C 	C 	0.8564	0.8568	0.634	0.077
Mof_C 	C 	0.8978	0.9215	0.5611	-0.12
Mof_C 	C 	0.9769	0.9687	0.5348	0.044
Mof_C 	C 	0.9987	0.9329	0.5834	-0.118
Mof_C 	C 	0.9485	0.8705	0.6556	0.069
Mof_C 	C 	0.9996	0.9904	0.1436	0.076
Mof_C 	C 	0.9763	0.9589	0.1022	-0.121
Mof_C 	C 	0.0082	0.0117	0.0231	0.045
Mof_C 	C 	0.0658	0.0821	0.0013	-0.117
Mof_C 	C 	0.078	0.1041	0.0515	0.068
Mof_C 	C 	0.366	0.5096	0.9908	0.077
Mof_C 	C 	0.4389	0.5411	0.9826	-0.12
Mof_C 	C 	0.4652	0.4883	0.0035	0.045
Mof_C 	C 	0.4166	0.4179	0.0163	-0.119
Mof_C 	C 	0.3444	0.3959	0.0261	0.069
Mof_C 	C 	0.9908	0.3568	0.9996	0.077
Mof_C 	C 	0.9826	0.4215	0.9763	-0.12
Mof_C 	C 	0.0035	0.4687	0.0082	0.045
Mof_C 	C 	0.0163	0.4329	0.0658	-0.119
Mof_C 	C 	0.0261	0.3705	0.078	0.069
Mof_C 	C 	0.1436	0.1432	0.366	0.077
Mof_C 	C 	0.1022	0.0785	0.4389	-0.12
Mof_C 	C 	0.0231	0.0313	0.4652	0.044
Mof_C 	C 	0.0013	0.0671	0.4166	-0.118
Mof_C 	C 	0.0515	0.1295	0.3444	0.069
Mof_C 	C 	0.0004	0.0096	0.8564	0.076
Mof_C 	C 	0.0237	0.0411	0.8978	-0.121
Mof_C 	C 	0.9918	0.9883	0.9769	0.045
Mof_C 	C 	0.9342	0.9179	0.9987	-0.117
Mof_C 	C 	0.922	0.8959	0.9485	0.068
Mof_C 	C 	0.634	0.4904	0.0092	0.077
Mof_C 	C 	0.5611	0.4589	0.0174	-0.12
Mof_C 	C 	0.5348	0.5117	0.9965	0.045
Mof_C 	C 	0.5834	0.5821	0.9837	-0.119
Mof_C 	C 	0.6556	0.6041	0.9739	0.069
Mof_S 	S 	0.82801	0.67534	0.99491	-0.47
Mof_S 	S 	0.82975	0.82466	0.84733	-0.47
Mof_S 	S 	0.00509	0.17708	0.17025	-0.47
Mof_S 	S 	0.15267	0.32292	0.17199	-0.47
Mof_S 	S 	0.17199	0.32466	0.00509	-0.47
Mof_S 	S 	0.17025	0.17534	0.15267	-0.47
Mof_S 	S 	0.99491	0.82292	0.82975	-0.47
Mof_S 	S 	0.84733	0.67708	0.82801	-0.47
Mof_I 	I 	0.00814	0.79339	0.01957	-0.32
Mof_I 	I 	0.68704	0.70661	0.78525	-0.319
Mof_I 	I 	0.98043	0.97229	0.31296	-0.319
Mof_I 	I 	0.21475	0.52771	0.99186	-0.319
Mof_I 	I 	0.99186	0.20661	0.98043	-0.32
Mof_I 	I 	0.31296	0.29339	0.21475	-0.319
Mof_I 	I 	0.01957	0.02771	0.68704	-0.319
Mof_I 	I 	0.78525	0.47229	0.00814	-0.319
Mof_N 	N 	0.9775	0.6576	0.9619	-0.243
Mof_N 	N 	0.8805	0.8424	0.6801	-0.244
Mof_N 	N 	0.0381	0.0606	0.1195	-0.243
Mof_N 	N 	0.3199	0.4394	0.0225	-0.244
Mof_N 	N 	0.0225	0.3424	0.0381	-0.243
Mof_N 	N 	0.1195	0.1576	0.3199	-0.244
Mof_N 	N 	0.9619	0.9394	0.8805	-0.243
Mof_N 	N 	0.6801	0.5606	0.9775	-0.244
Mof_Cu	Cu	0.70121	0.75	0.20121	0.837
Mof_Cu	Cu	0.54879	0.75	0.04879	0.837
Mof_Cu	Cu	0.95121	0.40242	0.29879	0.837
Mof_Cu	Cu	0.79879	0.09758	0.45121	0.837
Mof_Cu	Cu	0.70095	0.9019	0.04905	0.836
Mof_Cu	Cu	0.54905	0.5981	0.20095	0.836
Mof_Cu	Cu	0.79905	0.25	0.29905	0.836
Mof_Cu	Cu	0.95095	0.25	0.45095	0.836
Mof_H 	H 	0.8148	0.8274	0.2388	-0.017
Mof_H 	H 	0.839	0.8987	0.2899	0.085
Mof_H 	H 	0.6426	0.868	0.332	0.069
Mof_H 	H 	0.6235	0.7938	0.2831	-0.006
Mof_H 	H 	0.6199	0.9368	0.1379	-0.008
Mof_H 	H 	0.6389	0.0094	0.1907	0.065
Mof_H 	H 	0.8438	0.0713	0.1185	0.076
Mof_H 	H 	0.8209	0.9985	0.0676	-0.011
Mof_H 	H 	0.4338	0.6726	0.0126	-0.017
Mof_H 	H 	0.3114	0.6013	0.0597	0.085
Mof_H 	H 	0.3	0.632	0.2254	0.069
Mof_H 	H 	0.4231	0.7062	0.1703	-0.006
Mof_H 	H 	0.4253	0.5632	0.3169	-0.009
Mof_H 	H 	0.2999	0.4906	0.3705	0.065
Mof_H 	H 	0.3102	0.4287	0.2275	0.075
Mof_H 	H 	0.4339	0.5015	0.1776	-0.009
Mof_H 	H 	0.9874	0.5536	0.1852	-0.017
Mof_H 	H 	0.9403	0.6289	0.161	0.085
Mof_H 	H 	0.7746	0.4746	0.3574	0.069
Mof_H 	H 	0.8297	0.4066	0.3765	-0.006
Mof_H 	H 	0.6831	0.2578	0.3801	-0.009
Mof_H 	H 	0.6295	0.3296	0.3611	0.065
Mof_H 	H 	0.7725	0.4623	0.1562	0.075
Mof_H 	H 	0.8224	0.3885	0.1791	-0.009
Mof_H 	H 	0.7612	0.9464	0.5662	-0.017
Mof_H 	H 	0.7101	0.8711	0.6886	0.085
Mof_H 	H 	0.668	0.0254	0.7	0.07
Mof_H 	H 	0.7169	0.0934	0.5769	-0.007
Mof_H 	H 	0.8621	0.2422	0.5747	-0.009
Mof_H 	H 	0.8093	0.1704	0.7001	0.065
Mof_H 	H 	0.8815	0.0377	0.6898	0.075
Mof_H 	H 	0.9324	0.1115	0.5661	-0.01
Mof_H 	H 	0.0662	0.5536	0.2612	-0.017
Mof_H 	H 	0.1886	0.6289	0.2101	0.085
Mof_H 	H 	0.2	0.4746	0.168	0.069
Mof_H 	H 	0.0769	0.4066	0.2169	-0.006
Mof_H 	H 	0.0747	0.2578	0.3621	-0.009
Mof_H 	H 	0.2001	0.3296	0.3093	0.065
Mof_H 	H 	0.1898	0.4623	0.3815	0.075
Mof_H 	H 	0.0661	0.3885	0.4324	-0.009
Mof_H 	H 	0.6852	0.9464	0.4874	-0.017
Mof_H 	H 	0.661	0.8711	0.4403	0.085
Mof_H 	H 	0.8574	0.0254	0.2746	0.069
Mof_H 	H 	0.8765	0.0934	0.3297	-0.007
Mof_H 	H 	0.8801	0.2422	0.1831	-0.009
Mof_H 	H 	0.8611	0.1704	0.1295	0.065
Mof_H 	H 	0.6562	0.0377	0.2725	0.075
Mof_H 	H 	0.6791	0.1115	0.3224	-0.009
Mof_H 	H 	0.7388	0.6726	0.3148	-0.017
Mof_H 	H 	0.7899	0.6013	0.339	0.085
Mof_H 	H 	0.832	0.632	0.1426	0.069
Mof_H 	H 	0.7831	0.7062	0.1235	-0.007
Mof_H 	H 	0.6379	0.5632	0.1199	-0.009
Mof_H 	H 	0.6907	0.4906	0.1389	0.065
Mof_H 	H 	0.6185	0.4287	0.3438	0.075
Mof_H 	H 	0.5676	0.5015	0.3209	-0.009
Mof_H 	H 	0.5126	0.8274	0.9338	-0.017
Mof_H 	H 	0.5597	0.8987	0.8114	0.085
Mof_H 	H 	0.7254	0.868	0.8	0.069
Mof_H 	H 	0.6703	0.7938	0.9231	-0.006
Mof_H 	H 	0.8169	0.9368	0.9253	-0.009
Mof_H 	H 	0.8705	0.0094	0.7999	0.066
Mof_H 	H 	0.7275	0.0713	0.8102	0.075
Mof_H 	H 	0.6776	0.9985	0.9339	-0.008
Mof_W 	W 	0.625	0.75	0.125	0.251
Mof_W 	W 	0.875	0.25	0.375	0.251
Mof_C 	C 	0.7798	0.8354	0.258	0.08
Mof_C 	C 	0.7941	0.8775	0.2902	-0.141
Mof_C 	C 	0.7446	0.8887	0.3221	0.056
Mof_C 	C 	0.6776	0.8588	0.3154	-0.121
Mof_C 	C 	0.6678	0.8165	0.2837	0.062
Mof_C 	C 	0.666	0.966	0.1322	0.07
Mof_C 	C 	0.6769	0.0086	0.1655	-0.121
Mof_C 	C 	0.7474	0.0505	0.1601	0.054
Mof_C 	C 	0.7976	0.0453	0.1231	-0.125
Mof_C 	C 	0.7844	0.0024	0.091	0.065
Mof_C 	C 	0.4066	0.6646	0.0556	0.08
Mof_C 	C 	0.3323	0.6225	0.0834	-0.141
Mof_C 	C 	0.2892	0.6113	0.1441	0.056
Mof_C 	C 	0.3258	0.6412	0.1812	-0.121
Mof_C 	C 	0.3998	0.6835	0.1487	0.062
Mof_C 	C 	0.4018	0.534	0.3	0.071
Mof_C 	C 	0.3259	0.4914	0.3317	-0.121
Mof_C 	C 	0.2894	0.4495	0.3031	0.054
Mof_C 	C 	0.3316	0.4547	0.2477	-0.124
Mof_C 	C 	0.4066	0.4976	0.218	0.063
Mof_C 	C 	0.9444	0.5378	0.2202	0.08
Mof_C 	C 	0.9166	0.5843	0.2059	-0.141
Mof_C 	C 	0.8559	0.5667	0.2554	0.056
Mof_C 	C 	0.8188	0.493	0.3224	-0.121
Mof_C 	C 	0.8513	0.4515	0.3322	0.062
Mof_C 	C 	0.7	0.2982	0.334	0.071
Mof_C 	C 	0.6683	0.3424	0.3231	-0.121
Mof_C 	C 	0.6969	0.4075	0.2526	0.054
Mof_C 	C 	0.7523	0.4207	0.2024	-0.124
Mof_C 	C 	0.782	0.3754	0.2156	0.063
Mof_C 	C 	0.742	0.9622	0.5934	0.081
Mof_C 	C 	0.7098	0.9157	0.6677	-0.141
Mof_C 	C 	0.6779	0.9333	0.7108	0.057
Mof_C 	C 	0.6846	0.007	0.6742	-0.122
Mof_C 	C 	0.7163	0.0485	0.6002	0.063
Mof_C 	C 	0.8678	0.2018	0.5982	0.071
Mof_C 	C 	0.8345	0.1576	0.6741	-0.122
Mof_C 	C 	0.8399	0.0925	0.7106	0.054
Mof_C 	C 	0.8769	0.0793	0.6684	-0.124
Mof_C 	C 	0.909	0.1246	0.5934	0.063
Mof_C 	C 	0.0934	0.5378	0.242	0.08
Mof_C 	C 	0.1677	0.5843	0.2098	-0.141
Mof_C 	C 	0.2108	0.5667	0.1779	0.056
Mof_C 	C 	0.1742	0.493	0.1846	-0.121
Mof_C 	C 	0.1002	0.4515	0.2163	0.062
Mof_C 	C 	0.0982	0.2982	0.3678	0.071
Mof_C 	C 	0.1741	0.3424	0.3345	-0.121
Mof_C 	C 	0.2106	0.4075	0.3399	0.054
Mof_C 	C 	0.1684	0.4207	0.3769	-0.124
Mof_C 	C 	0.0934	0.3754	0.409	0.063
Mof_C 	C 	0.7202	0.9622	0.4444	0.08
Mof_C 	C 	0.7059	0.9157	0.4166	-0.141
Mof_C 	C 	0.7554	0.9333	0.3559	0.056
Mof_C 	C 	0.8224	0.007	0.3188	-0.121
Mof_C 	C 	0.8322	0.0485	0.3513	0.062
Mof_C 	C 	0.834	0.2018	0.2	0.071
Mof_C 	C 	0.8231	0.1576	0.1683	-0.121
Mof_C 	C 	0.7526	0.0925	0.1969	0.053
Mof_C 	C 	0.7024	0.0793	0.2523	-0.124
Mof_C 	C 	0.7156	0.1246	0.282	0.063
Mof_C 	C 	0.758	0.6646	0.2798	0.08
Mof_C 	C 	0.7902	0.6225	0.2941	-0.141
Mof_C 	C 	0.8221	0.6113	0.2446	0.056
Mof_C 	C 	0.8154	0.6412	0.1776	-0.121
Mof_C 	C 	0.7837	0.6835	0.1678	0.062
Mof_C 	C 	0.6322	0.534	0.166	0.071
Mof_C 	C 	0.6655	0.4914	0.1769	-0.121
Mof_C 	C 	0.6601	0.4495	0.2474	0.054
Mof_C 	C 	0.6231	0.4547	0.2976	-0.124
Mof_C 	C 	0.591	0.4976	0.2844	0.063
Mof_C 	C 	0.5556	0.8354	0.9066	0.08
Mof_C 	C 	0.5834	0.8775	0.8323	-0.14
Mof_C 	C 	0.6441	0.8887	0.7892	0.055
Mof_C 	C 	0.6812	0.8588	0.8258	-0.121
Mof_C 	C 	0.6487	0.8165	0.8998	0.062
Mof_C 	C 	0.8	0.966	0.9018	0.072
Mof_C 	C 	0.8317	0.0086	0.8259	-0.123
Mof_C 	C 	0.8031	0.0505	0.7894	0.053
Mof_C 	C 	0.7477	0.0453	0.8316	-0.122
Mof_C 	C 	0.718	0.0024	0.9066	0.06
Mof_S 	S 	0.74437	0.82379	0.08008	-0.479
Mof_S 	S 	0.59613	0.67621	0.07942	-0.479
Mof_S 	S 	0.92058	0.32445	0.25563	-0.479
Mof_S 	S 	0.91992	0.17555	0.40387	-0.479
Mof_S 	S 	0.90387	0.32445	0.41992	-0.479
Mof_S 	S 	0.75563	0.17555	0.42058	-0.479
Mof_S 	S 	0.58008	0.67621	0.24437	-0.479
Mof_S 	S 	0.57942	0.82379	0.09613	-0.479
Mof_N 	N 	0.7181	0.8058	0.2537	-0.243
Mof_N 	N 	0.7187	0.9668	0.0939	-0.239
Mof_N 	N 	0.4405	0.6942	0.0877	-0.243
Mof_N 	N 	0.4393	0.5332	0.2481	-0.238
Mof_N 	N 	0.9123	0.4718	0.2819	-0.243
Mof_N 	N 	0.7519	0.3126	0.2813	-0.238
Mof_N 	N 	0.7463	0.0282	0.5595	-0.243
Mof_N 	N 	0.9061	0.1874	0.5607	-0.238
Mof_N 	N 	0.0595	0.4718	0.2463	-0.243
Mof_N 	N 	0.0607	0.3126	0.4061	-0.238
Mof_N 	N 	0.7819	0.0282	0.4123	-0.243
Mof_N 	N 	0.7813	0.1874	0.2519	-0.238
Mof_N 	N 	0.7537	0.6942	0.2181	-0.243
Mof_N 	N 	0.5939	0.5332	0.2187	-0.238
Mof_N 	N 	0.5877	0.8058	0.9405	-0.243
Mof_N 	N 	0.7481	0.9668	0.9393	-0.237
Mof_Cu	Cu	0.29879	0.25	0.79879	0.837
Mof_Cu	Cu	0.45121	0.25	0.95121	0.837
Mof_Cu	Cu	0.04879	0.59758	0.70121	0.837
Mof_Cu	Cu	0.20121	0.90242	0.54879	0.837
Mof_Cu	Cu	0.29905	0.0981	0.95095	0.836
Mof_Cu	Cu	0.45095	0.4019	0.79905	0.836
Mof_Cu	Cu	0.20095	0.75	0.70095	0.836
Mof_Cu	Cu	0.04905	0.75	0.54905	0.836
Mof_H 	H 	0.1852	0.1726	0.7612	-0.017
Mof_H 	H 	0.161	0.1013	0.7101	0.085
Mof_H 	H 	0.3574	0.132	0.668	0.069
Mof_H 	H 	0.3765	0.2062	0.7169	-0.006
Mof_H 	H 	0.3801	0.0632	0.8621	-0.008
Mof_H 	H 	0.3611	0.9906	0.8093	0.065
Mof_H 	H 	0.1562	0.9287	0.8815	0.076
Mof_H 	H 	0.1791	0.0015	0.9324	-0.011
Mof_H 	H 	0.5662	0.3274	0.9874	-0.017
Mof_H 	H 	0.6886	0.3987	0.9403	0.085
Mof_H 	H 	0.7	0.368	0.7746	0.069
Mof_H 	H 	0.5769	0.2938	0.8297	-0.006
Mof_H 	H 	0.5747	0.4368	0.6831	-0.009
Mof_H 	H 	0.7001	0.5094	0.6295	0.065
Mof_H 	H 	0.6898	0.5713	0.7725	0.075
Mof_H 	H 	0.5661	0.4985	0.8224	-0.009
Mof_H 	H 	0.0126	0.4464	0.8148	-0.017
Mof_H 	H 	0.0597	0.3711	0.839	0.085
Mof_H 	H 	0.2254	0.5254	0.6426	0.069
Mof_H 	H 	0.1703	0.5934	0.6235	-0.006
Mof_H 	H 	0.3169	0.7422	0.6199	-0.009
Mof_H 	H 	0.3705	0.6704	0.6389	0.065
Mof_H 	H 	0.2275	0.5377	0.8438	0.075
Mof_H 	H 	0.1776	0.6115	0.8209	-0.009
Mof_H 	H 	0.2388	0.0536	0.4338	-0.017
Mof_H 	H 	0.2899	0.1289	0.3114	0.085
Mof_H 	H 	0.332	0.9746	0.3	0.07
Mof_H 	H 	0.2831	0.9066	0.4231	-0.007
Mof_H 	H 	0.1379	0.7578	0.4253	-0.009
Mof_H 	H 	0.1907	0.8296	0.2999	0.065
Mof_H 	H 	0.1185	0.9623	0.3102	0.075
Mof_H 	H 	0.0676	0.8885	0.4339	-0.01
Mof_H 	H 	0.9338	0.4464	0.7388	-0.017
Mof_H 	H 	0.8114	0.3711	0.7899	0.085
Mof_H 	H 	0.8	0.5254	0.832	0.069
Mof_H 	H 	0.9231	0.5934	0.7831	-0.006
Mof_H 	H 	0.9253	0.7422	0.6379	-0.009
Mof_H 	H 	0.7999	0.6704	0.6907	0.065
Mof_H 	H 	0.8102	0.5377	0.6185	0.075
Mof_H 	H 	0.9339	0.6115	0.5676	-0.009
Mof_H 	H 	0.3148	0.0536	0.5126	-0.017
Mof_H 	H 	0.339	0.1289	0.5597	0.085
Mof_H 	H 	0.1426	0.9746	0.7254	0.069
Mof_H 	H 	0.1235	0.9066	0.6703	-0.007
Mof_H 	H 	0.1199	0.7578	0.8169	-0.009
Mof_H 	H 	0.1389	0.8296	0.8705	0.065
Mof_H 	H 	0.3438	0.9623	0.7275	0.075
Mof_H 	H 	0.3209	0.8885	0.6776	-0.009
Mof_H 	H 	0.2612	0.3274	0.6852	-0.017
Mof_H 	H 	0.2101	0.3987	0.661	0.085
Mof_H 	H 	0.168	0.368	0.8574	0.069
Mof_H 	H 	0.2169	0.2938	0.8765	-0.007
Mof_H 	H 	0.3621	0.4368	0.8801	-0.009
Mof_H 	H 	0.3093	0.5094	0.8611	0.065
Mof_H 	H 	0.3815	0.5713	0.6562	0.075
Mof_H 	H 	0.4324	0.4985	0.6791	-0.009
Mof_H 	H 	0.4874	0.1726	0.0662	-0.017
Mof_H 	H 	0.4403	0.1013	0.1886	0.085
Mof_H 	H 	0.2746	0.132	0.2	0.069
Mof_H 	H 	0.3297	0.2062	0.0769	-0.006
Mof_H 	H 	0.1831	0.0632	0.0747	-0.009
Mof_H 	H 	0.1295	0.9906	0.2001	0.066
Mof_H 	H 	0.2725	0.9287	0.1898	0.075
Mof_H 	H 	0.3224	0.0015	0.0661	-0.008
Mof_W 	W 	0.375	0.25	0.875	0.251
Mof_W 	W 	0.125	0.75	0.625	0.251
Mof_C 	C 	0.2202	0.1646	0.742	0.08
Mof_C 	C 	0.2059	0.1225	0.7098	-0.141
Mof_C 	C 	0.2554	0.1113	0.6779	0.056
Mof_C 	C 	0.3224	0.1412	0.6846	-0.121
Mof_C 	C 	0.3322	0.1835	0.7163	0.062
Mof_C 	C 	0.334	0.034	0.8678	0.07
Mof_C 	C 	0.3231	0.9914	0.8345	-0.121
Mof_C 	C 	0.2526	0.9495	0.8399	0.054
Mof_C 	C 	0.2024	0.9547	0.8769	-0.125
Mof_C 	C 	0.2156	0.9976	0.909	0.065
Mof_C 	C 	0.5934	0.3354	0.9444	0.08
Mof_C 	C 	0.6677	0.3775	0.9166	-0.141
Mof_C 	C 	0.7108	0.3887	0.8559	0.056
Mof_C 	C 	0.6742	0.3588	0.8188	-0.121
Mof_C 	C 	0.6002	0.3165	0.8513	0.062
Mof_C 	C 	0.5982	0.466	0.7	0.071
Mof_C 	C 	0.6741	0.5086	0.6683	-0.121
Mof_C 	C 	0.7106	0.5505	0.6969	0.054
Mof_C 	C 	0.6684	0.5453	0.7523	-0.124
Mof_C 	C 	0.5934	0.5024	0.782	0.063
Mof_C 	C 	0.0556	0.4622	0.7798	0.08
Mof_C 	C 	0.0834	0.4157	0.7941	-0.141
Mof_C 	C 	0.1441	0.4333	0.7446	0.056
Mof_C 	C 	0.1812	0.507	0.6776	-0.121
Mof_C 	C 	0.1487	0.5485	0.6678	0.062
Mof_C 	C 	0.3	0.7018	0.666	0.071
Mof_C 	C 	0.3317	0.6576	0.6769	-0.121
Mof_C 	C 	0.3031	0.5925	0.7474	0.054
Mof_C 	C 	0.2477	0.5793	0.7976	-0.124
Mof_C 	C 	0.218	0.6246	0.7844	0.063
Mof_C 	C 	0.258	0.0378	0.4066	0.081
Mof_C 	C 	0.2902	0.0843	0.3323	-0.141
Mof_C 	C 	0.3221	0.0667	0.2892	0.057
Mof_C 	C 	0.3154	0.993	0.3258	-0.122
Mof_C 	C 	0.2837	0.9515	0.3998	0.063
Mof_C 	C 	0.1322	0.7982	0.4018	0.071
Mof_C 	C 	0.1655	0.8424	0.3259	-0.122
Mof_C 	C 	0.1601	0.9075	0.2894	0.054
Mof_C 	C 	0.1231	0.9207	0.3316	-0.124
Mof_C 	C 	0.091	0.8754	0.4066	0.063
Mof_C 	C 	0.9066	0.4622	0.758	0.08
Mof_C 	C 	0.8323	0.4157	0.7902	-0.141
Mof_C 	C 	0.7892	0.4333	0.8221	0.056
Mof_C 	C 	0.8258	0.507	0.8154	-0.121
Mof_C 	C 	0.8998	0.5485	0.7837	0.062
Mof_C 	C 	0.9018	0.7018	0.6322	0.071
Mof_C 	C 	0.8259	0.6576	0.6655	-0.121
Mof_C 	C 	0.7894	0.5925	0.6601	0.054
Mof_C 	C 	0.8316	0.5793	0.6231	-0.124
Mof_C 	C 	0.9066	0.6246	0.591	0.063
Mof_C 	C 	0.2798	0.0378	0.5556	0.08
Mof_C 	C 	0.2941	0.0843	0.5834	-0.141
Mof_C 	C 	0.2446	0.0667	0.6441	0.056
Mof_C 	C 	0.1776	0.993	0.6812	-0.121
Mof_C 	C 	0.1678	0.9515	0.6487	0.062
Mof_C 	C 	0.166	0.7982	0.8	0.071
Mof_C 	C 	0.1769	0.8424	0.8317	-0.121
Mof_C 	C 	0.2474	0.9075	0.8031	0.053
Mof_C 	C 	0.2976	0.9207	0.7477	-0.124
Mof_C 	C 	0.2844	0.8754	0.718	0.063
Mof_C 	C 	0.242	0.3354	0.7202	0.08
Mof_C 	C 	0.2098	0.3775	0.7059	-0.141
Mof_C 	C 	0.1779	0.3887	0.7554	0.056
Mof_C 	C 	0.1846	0.3588	0.8224	-0.121
Mof_C 	C 	0.2163	0.3165	0.8322	0.062
Mof_C 	C 	0.3678	0.466	0.834	0.071
Mof_C 	C 	0.3345	0.5086	0.8231	-0.121
Mof_C 	C 	0.3399	0.5505	0.7526	0.054
Mof_C 	C 	0.3769	0.5453	0.7024	-0.124
Mof_C 	C 	0.409	0.5024	0.7156	0.063
Mof_C 	C 	0.4444	0.1646	0.0934	0.08
Mof_C 	C 	0.4166	0.1225	0.1677	-0.14
Mof_C 	C 	0.3559	0.1113	0.2108	0.055
Mof_C 	C 	0.3188	0.1412	0.1742	-0.121
Mof_C 	C 	0.3513	0.1835	0.1002	0.062
Mof_C 	C 	0.2	0.034	0.0982	0.072
Mof_C 	C 	0.1683	0.9914	0.1741	-0.123
Mof_C 	C 	0.1969	0.9495	0.2106	0.053
Mof_C 	C 	0.2523	0.9547	0.1684	-0.122
Mof_C 	C 	0.282	0.9976	0.0934	0.06
Mof_S 	S 	0.25563	0.17621	0.91992	-0.479
Mof_S 	S 	0.40387	0.32379	0.92058	-0.479
Mof_S 	S 	0.07942	0.67555	0.74437	-0.479
Mof_S 	S 	0.08008	0.82445	0.59613	-0.479
Mof_S 	S 	0.09613	0.67555	0.58008	-0.479
Mof_S 	S 	0.24437	0.82445	0.57942	-0.479
Mof_S 	S 	0.41992	0.32379	0.75563	-0.479
Mof_S 	S 	0.42058	0.17621	0.90387	-0.479
Mof_N 	N 	0.2819	0.1942	0.7463	-0.243
Mof_N 	N 	0.2813	0.0332	0.9061	-0.239
Mof_N 	N 	0.5595	0.3058	0.9123	-0.243
Mof_N 	N 	0.5607	0.4668	0.7519	-0.238
Mof_N 	N 	0.0877	0.5282	0.7181	-0.243
Mof_N 	N 	0.2481	0.6874	0.7187	-0.238
Mof_N 	N 	0.2537	0.9718	0.4405	-0.243
Mof_N 	N 	0.0939	0.8126	0.4393	-0.238
Mof_N 	N 	0.9405	0.5282	0.7537	-0.243
Mof_N 	N 	0.9393	0.6874	0.5939	-0.238
Mof_N 	N 	0.2181	0.9718	0.5877	-0.243
Mof_N 	N 	0.2187	0.8126	0.7481	-0.238
Mof_N 	N 	0.2463	0.3058	0.7819	-0.243
Mof_N 	N 	0.4061	0.4668	0.7813	-0.238
Mof_N 	N 	0.4123	0.1942	0.0595	-0.243
Mof_N 	N 	0.2519	0.0332	0.0607	-0.237
_end
