data_functionalizedCrystal
_audit_creation_method	'EQeq! by Chris Wilmer'
_symmetry_space_group_name_H-M	'P1'
_symmetry_Int_Tables_number	1
_symmetry_cell_setting	triclinic
loop_
_symmetry_equiv_pos_as_xyz
  x,y,z
_cell_length_a	9.489
_cell_length_b	26.246
_cell_length_c	9.898
_cell_angle_alpha	90
_cell_angle_beta	90
_cell_angle_gamma	90
loop_
_atom_site_label
_atom_site_type_symbol
_atom_site_fract_x
_atom_site_fract_y
_atom_site_fract_z
_atom_site_charge
Mof_N 	N 	0.5586	0.2969	0.2987	-0.237
Mof_C 	C 	0.4285	0.2764	0.2757	0.083
Mof_C 	C 	0.884	0.2044	0.192	-0.028
Mof_C 	C 	0.3078	0.3028	0.3037	-0.063
Mof_H 	H 	0.218	0.2873	0.2924	0.069
Mof_C 	C 	0.751	0.2793	0.0728	-1.935
Mof_C 	C 	0.3188	0.3522	0.3487	0.063
Mof_H 	H 	0.2358	0.3709	0.3693	0.032
Mof_C 	C 	0.4483	0.3749	0.3642	-0.143
Mof_C 	C 	0.5665	0.3462	0.3419	0.101
Mof_H 	H 	0.6565	0.361	0.3569	-0.001
Mof_C 	C 	0.4687	0.4301	0.4101	0.4
Mof_O 	O 	0.584	0.4386	0.464	-0.005
Mof_O 	O 	0.9719	0.1768	0.1596	-0.157
Mof_O 	O 	0.3573	0.4555	0.4108	-0.377
Mof_O 	O 	0.758	0.3003	0.9711	-1.187
Mof_Cl	Cl	0.6987	0.2905	0.0219	2.691
Mof_O 	O 	0.592	0.0513	0.094	-0.402
Mof_N 	N 	0.9414	0.7031	0.2987	-0.241
Mof_C 	C 	0.0715	0.7236	0.2757	0.086
Mof_C 	C 	0.616	0.7956	0.192	-0.026
Mof_C 	C 	0.1922	0.6972	0.3037	-0.064
Mof_H 	H 	0.282	0.7127	0.2924	0.069
Mof_C 	C 	0.749	0.7207	0.0728	-1.963
Mof_C 	C 	0.1812	0.6478	0.3487	0.062
Mof_H 	H 	0.2642	0.6291	0.3693	0.032
Mof_C 	C 	0.0517	0.6251	0.3642	-0.137
Mof_C 	C 	0.9335	0.6538	0.3419	0.093
Mof_H 	H 	0.8435	0.639	0.3569	0.001
Mof_C 	C 	0.0313	0.5699	0.4101	0.401
Mof_O 	O 	0.916	0.5614	0.464	-0.004
Mof_O 	O 	0.5281	0.8232	0.1596	-0.15
Mof_O 	O 	0.1427	0.5445	0.4108	-0.377
Mof_O 	O 	0.742	0.6997	0.9711	-1.204
Mof_Cl	Cl	0.8013	0.7095	0.0219	2.732
Mof_O 	O 	0.908	0.9487	0.094	-0.354
Mof_N 	N 	0.9414	0.7969	0.2013	-0.239
Mof_C 	C 	0.0715	0.7764	0.2243	0.085
Mof_C 	C 	0.616	0.7044	0.308	-0.027
Mof_C 	C 	0.1922	0.8028	0.1963	-0.057
Mof_H 	H 	0.282	0.7873	0.2076	0.067
Mof_C 	C 	0.749	0.7793	0.4272	-1.904
Mof_C 	C 	0.1812	0.8522	0.1513	0.055
Mof_H 	H 	0.2642	0.8709	0.1307	0.04
Mof_C 	C 	0.0517	0.8749	0.1358	-0.121
Mof_C 	C 	0.9335	0.8462	0.1581	0.084
Mof_H 	H 	0.8435	0.861	0.1431	0.007
Mof_C 	C 	0.0313	0.9301	0.0899	0.399
Mof_O 	O 	0.916	0.9386	0.036	-0.033
Mof_O 	O 	0.5281	0.6768	0.3404	-0.154
Mof_O 	O 	0.1427	0.9555	0.0892	-0.339
Mof_O 	O 	0.742	0.8003	0.5289	-1.175
Mof_Cl	Cl	0.8013	0.7905	0.4781	2.652
Mof_O 	O 	0.908	0.5513	0.406	-0.41
Mof_N 	N 	0.5586	0.2031	0.2013	-0.238
Mof_C 	C 	0.4285	0.2236	0.2243	0.082
Mof_C 	C 	0.884	0.2956	0.308	-0.028
Mof_C 	C 	0.3078	0.1972	0.1963	-0.062
Mof_H 	H 	0.218	0.2127	0.2076	0.069
Mof_C 	C 	0.751	0.2207	0.4272	-1.908
Mof_C 	C 	0.3188	0.1478	0.1513	0.061
Mof_H 	H 	0.2358	0.1291	0.1307	0.033
Mof_C 	C 	0.4483	0.1251	0.1358	-0.142
Mof_C 	C 	0.5665	0.1538	0.1581	0.1
Mof_H 	H 	0.6565	0.139	0.1431	-0.001
Mof_C 	C 	0.4687	0.0699	0.0899	0.395
Mof_O 	O 	0.584	0.0614	0.036	-0.01
Mof_O 	O 	0.9719	0.3232	0.3404	-0.155
Mof_O 	O 	0.3573	0.0445	0.0892	-0.379
Mof_O 	O 	0.758	0.1997	0.5289	-1.182
Mof_Cl	Cl	0.6987	0.2095	0.4781	2.658
Mof_O 	O 	0.592	0.4487	0.406	-0.407
Mof_N 	N 	0.4414	0.7031	0.7013	-0.238
Mof_C 	C 	0.5715	0.7236	0.7243	0.083
Mof_C 	C 	0.116	0.7956	0.808	-0.027
Mof_C 	C 	0.6922	0.6972	0.6963	-0.064
Mof_H 	H 	0.782	0.7127	0.7076	0.069
Mof_C 	C 	0.249	0.7207	0.9272	-1.934
Mof_C 	C 	0.6812	0.6478	0.6513	0.064
Mof_H 	H 	0.7642	0.6291	0.6307	0.032
Mof_C 	C 	0.5517	0.6251	0.6358	-0.143
Mof_C 	C 	0.4335	0.6538	0.6581	0.101
Mof_H 	H 	0.3435	0.639	0.6431	-0.001
Mof_C 	C 	0.5313	0.5699	0.5899	0.4
Mof_O 	O 	0.416	0.5614	0.536	-0.005
Mof_O 	O 	0.0281	0.8232	0.8404	-0.153
Mof_O 	O 	0.6427	0.5445	0.5892	-0.377
Mof_O 	O 	0.242	0.6997	0.0289	-1.187
Mof_Cl	Cl	0.3013	0.7095	0.9781	2.689
Mof_O 	O 	0.408	0.9487	0.906	-0.354
Mof_N 	N 	0.0586	0.2969	0.7013	-0.241
Mof_C 	C 	0.9285	0.2764	0.7243	0.085
Mof_C 	C 	0.384	0.2044	0.808	-0.027
Mof_C 	C 	0.8078	0.3028	0.6963	-0.063
Mof_H 	H 	0.718	0.2873	0.7076	0.069
Mof_C 	C 	0.251	0.2793	0.9272	-1.963
Mof_C 	C 	0.8188	0.3522	0.6513	0.061
Mof_H 	H 	0.7358	0.3709	0.6307	0.032
Mof_C 	C 	0.9483	0.3749	0.6358	-0.136
Mof_C 	C 	0.0665	0.3462	0.6581	0.093
Mof_H 	H 	0.1565	0.361	0.6431	0.002
Mof_C 	C 	0.9687	0.4301	0.5899	0.401
Mof_O 	O 	0.084	0.4386	0.536	-0.004
Mof_O 	O 	0.4719	0.1768	0.8404	-0.155
Mof_O 	O 	0.8573	0.4555	0.5892	-0.377
Mof_O 	O 	0.258	0.3003	0.0289	-1.204
Mof_Cl	Cl	0.1987	0.2905	0.9781	2.732
Mof_O 	O 	0.092	0.0513	0.906	-0.401
Mof_N 	N 	0.0586	0.2031	0.7987	-0.24
Mof_C 	C 	0.9285	0.2236	0.7757	0.086
Mof_C 	C 	0.384	0.2956	0.692	-0.027
Mof_C 	C 	0.8078	0.1972	0.8037	-0.062
Mof_H 	H 	0.718	0.2127	0.7924	0.068
Mof_C 	C 	0.251	0.2207	0.5728	-1.908
Mof_C 	C 	0.8188	0.1478	0.8487	0.059
Mof_H 	H 	0.7358	0.1291	0.8693	0.032
Mof_C 	C 	0.9483	0.1251	0.8642	-0.132
Mof_C 	C 	0.0665	0.1538	0.8419	0.087
Mof_H 	H 	0.1565	0.139	0.8569	0.002
Mof_C 	C 	0.9687	0.0699	0.9101	0.405
Mof_O 	O 	0.084	0.0614	0.964	-0.02
Mof_O 	O 	0.4719	0.3232	0.6596	-0.154
Mof_O 	O 	0.8573	0.0445	0.9108	-0.38
Mof_O 	O 	0.258	0.1997	0.4711	-1.182
Mof_Cl	Cl	0.1987	0.2095	0.5219	2.656
Mof_O 	O 	0.092	0.4487	0.594	-0.41
Mof_N 	N 	0.4414	0.7969	0.7987	-0.236
Mof_C 	C 	0.5715	0.7764	0.7757	0.081
Mof_C 	C 	0.116	0.7044	0.692	-0.028
Mof_C 	C 	0.6922	0.8028	0.8037	-0.057
Mof_H 	H 	0.782	0.7873	0.7924	0.068
Mof_C 	C 	0.249	0.7793	0.5728	-1.903
Mof_C 	C 	0.6812	0.8522	0.8487	0.057
Mof_H 	H 	0.7642	0.8709	0.8693	0.04
Mof_C 	C 	0.5517	0.8749	0.8642	-0.13
Mof_C 	C 	0.4335	0.8462	0.8419	0.097
Mof_H 	H 	0.3435	0.861	0.8569	0.004
Mof_C 	C 	0.5313	0.9301	0.9101	0.39
Mof_O 	O 	0.416	0.9386	0.964	-0.023
Mof_O 	O 	0.0281	0.6768	0.6596	-0.155
Mof_O 	O 	0.6427	0.9555	0.9108	-0.338
Mof_O 	O 	0.242	0.8003	0.4711	-1.175
Mof_Cl	Cl	0.3013	0.7905	0.5219	2.653
Mof_O 	O 	0.408	0.5513	0.594	-0.407
Mof_Re	Re	0.73836	0.25	0.25	1.276
Mof_Re	Re	0.76164	0.75	0.25	1.28
Mof_Re	Re	0.26164	0.75	0.75	1.276
Mof_Re	Re	0.23836	0.25	0.75	1.28
Mof_Mn	Mn	0.75	0.5	0.4404	0.921
Mof_Mn	Mn	0.75	-1.60007e-34	0.0596	0.847
Mof_Mn	Mn	0.25	0.5	0.5596	0.921
Mof_Mn	Mn	0.25	0	0.9404	0.846
_end
