data_functionalizedCrystal
_audit_creation_method	'EQeq! by Chris Wilmer'
_symmetry_space_group_name_H-M	'P1'
_symmetry_Int_Tables_number	1
_symmetry_cell_setting	triclinic
loop_
_symmetry_equiv_pos_as_xyz
  x,y,z
_cell_length_a	14.7164
_cell_length_b	14.7164
_cell_length_c	14.7164
_cell_angle_alpha	109.471
_cell_angle_beta	109.471
_cell_angle_gamma	109.471
loop_
_atom_site_label
_atom_site_type_symbol
_atom_site_fract_x
_atom_site_fract_y
_atom_site_fract_z
_atom_site_charge
Mof_H 	H 	0.7631	0.8991	0.42	0.007
Mof_C 	C 	0.7318	0.9439	0.4149	-0.029
Mof_N 	N 	0.6222	0.9064	0.3496	-0.294
Mof_H 	H 	0.4791	0.3431	0.58	0.001
Mof_C 	C 	0.529	0.3169	0.5851	-0.007
Mof_N 	N 	0.5568	0.2726	0.6504	-0.293
Mof_H 	H 	0.5209	0.1009	0.864	-0.003
Mof_C 	C 	0.471	0.0561	0.7879	0.013
Mof_N 	N 	0.4432	0.0936	0.7158	-0.295
Mof_H 	H 	0.2369	0.6569	0.136	0.003
Mof_C 	C 	0.2682	0.6831	0.2121	-0.008
Mof_N 	N 	0.3778	0.7274	0.2842	-0.292
Mof_H 	H 	0.42	0.7631	0.8991	0.004
Mof_C 	C 	0.4149	0.7318	0.9439	-0.015
Mof_N 	N 	0.3496	0.6222	0.9064	-0.293
Mof_H 	H 	0.58	0.4791	0.3431	0.003
Mof_C 	C 	0.5851	0.529	0.3169	-0.008
Mof_N 	N 	0.6504	0.5568	0.2726	-0.292
Mof_H 	H 	0.864	0.5209	0.1009	0
Mof_C 	C 	0.7879	0.471	0.0561	-0.002
Mof_N 	N 	0.7158	0.4432	0.0936	-0.294
Mof_H 	H 	0.136	0.2369	0.6569	0.004
Mof_C 	C 	0.2121	0.2682	0.6831	-0.007
Mof_N 	N 	0.2842	0.3778	0.7274	-0.292
Mof_H 	H 	0.8991	0.42	0.7631	0.004
Mof_C 	C 	0.9439	0.4149	0.7318	-0.014
Mof_N 	N 	0.9064	0.3496	0.6222	-0.293
Mof_H 	H 	0.3431	0.58	0.4791	0.002
Mof_C 	C 	0.3169	0.5851	0.529	-0.008
Mof_N 	N 	0.2726	0.6504	0.5568	-0.293
Mof_H 	H 	0.1009	0.864	0.5209	-0.002
Mof_C 	C 	0.0561	0.7879	0.471	-0.001
Mof_N 	N 	0.0936	0.7158	0.4432	-0.294
Mof_H 	H 	0.6569	0.136	0.2369	0.005
Mof_C 	C 	0.6831	0.2121	0.2682	-0.007
Mof_N 	N 	0.7274	0.2842	0.3778	-0.292
Mof_H 	H 	0.8991	0.7631	0.42	0.004
Mof_C 	C 	0.9439	0.7318	0.4149	-0.015
Mof_N 	N 	0.9064	0.6222	0.3496	-0.293
Mof_H 	H 	0.3431	0.4791	0.58	0.003
Mof_C 	C 	0.3169	0.529	0.5851	-0.008
Mof_N 	N 	0.2726	0.5568	0.6504	-0.292
Mof_H 	H 	0.1009	0.5209	0.864	0
Mof_C 	C 	0.0561	0.471	0.7879	-0.002
Mof_N 	N 	0.0936	0.4432	0.7158	-0.294
Mof_H 	H 	0.6569	0.2369	0.136	0.004
Mof_C 	C 	0.6831	0.2682	0.2121	-0.007
Mof_N 	N 	0.7274	0.3778	0.2842	-0.292
Mof_H 	H 	0.7631	0.42	0.8991	0.002
Mof_C 	C 	0.7318	0.4149	0.9439	-0.015
Mof_N 	N 	0.6222	0.3496	0.9064	-0.293
Mof_H 	H 	0.4791	0.58	0.3431	0.003
Mof_C 	C 	0.529	0.5851	0.3169	-0.007
Mof_N 	N 	0.5568	0.6504	0.2726	-0.292
Mof_H 	H 	0.5209	0.864	0.1009	-0.002
Mof_C 	C 	0.471	0.7879	0.0561	-0.001
Mof_N 	N 	0.4432	0.7158	0.0936	-0.294
Mof_H 	H 	0.2369	0.136	0.6569	0.005
Mof_C 	C 	0.2682	0.2121	0.6831	-0.007
Mof_N 	N 	0.3778	0.2842	0.7274	-0.292
Mof_H 	H 	0.42	0.8991	0.7631	0.007
Mof_C 	C 	0.4149	0.9439	0.7318	-0.03
Mof_N 	N 	0.3496	0.9064	0.6222	-0.294
Mof_H 	H 	0.58	0.3431	0.4791	0.002
Mof_C 	C 	0.5851	0.3169	0.529	-0.008
Mof_N 	N 	0.6504	0.2726	0.5568	-0.292
Mof_H 	H 	0.864	0.1009	0.5209	-0.003
Mof_C 	C 	0.7879	0.0561	0.471	0.013
Mof_N 	N 	0.7158	0.0936	0.4432	-0.295
Mof_H 	H 	0.136	0.6569	0.2369	0.003
Mof_C 	C 	0.2121	0.6831	0.2682	-0.008
Mof_N 	N 	0.2842	0.7274	0.3778	-0.293
Mof_Zn	Zn	0.5	0.75	0.25	1.176
Mof_Zn	Zn	0.5	0.25	0.75	1.176
Mof_Zn	Zn	0.25	0.5	0.75	1.176
Mof_Zn	Zn	0.75	0.5	0.25	1.176
Mof_Zn	Zn	0.75	0.25	0.5	1.177
Mof_Zn	Zn	0.25	0.75	0.5	1.176
Mof_C 	C 	0.6166	2.31683e-17	0.3698	0.13
Mof_C 	C 	0.5098	0	0.319	-0.209
Mof_C 	C 	0.6302	0.2468	0.6302	0.126
Mof_C 	C 	0.681	0.1908	0.681	-0.235
Mof_C 	C 	0.3698	0	0.6166	0.128
Mof_C 	C 	0.319	9.26731e-17	0.5098	-0.209
Mof_C 	C 	0.3834	0.7532	0.3834	0.124
Mof_C 	C 	0.4902	0.8092	0.4902	-0.234
Mof_C 	C 	0.3698	0.6166	-0	0.127
Mof_C 	C 	0.319	0.5098	-0	-0.229
Mof_C 	C 	0.6302	0.6302	0.2468	0.124
Mof_C 	C 	0.681	0.681	0.1908	-0.233
Mof_C 	C 	0.6166	0.3698	-0	0.126
Mof_C 	C 	0.5098	0.319	-0	-0.229
Mof_C 	C 	0.3834	0.3834	0.7532	0.124
Mof_C 	C 	0.4902	0.4902	0.8092	-0.234
Mof_C 	C 	-3.47524e-17	0.3698	0.6166	0.126
Mof_C 	C 	3.47524e-17	0.319	0.5098	-0.229
Mof_C 	C 	0.2468	0.6302	0.6302	0.123
Mof_C 	C 	0.1908	0.681	0.681	-0.233
Mof_C 	C 	1.15841e-17	0.6166	0.3698	0.127
Mof_C 	C 	1.15841e-17	0.5098	0.319	-0.229
Mof_C 	C 	0.7532	0.3834	0.3834	0.125
Mof_C 	C 	0.8092	0.4902	0.4902	-0.234
Mof_H 	H 	0.52805	0.08067	0.31692	0.03
Mof_H 	H 	0.61232	0.10738	0.65704	0.048
Mof_H 	H 	0.73072	0.24582	0.77545	0.044
Mof_H 	H 	0.73861	0.1766	0.64916	0.029
Mof_H 	H 	0.31692	0.08067	0.52805	0.03
Mof_H 	H 	0.48491	0.75418	0.52963	0.043
Mof_H 	H 	0.50493	0.89262	0.54966	0.043
Mof_H 	H 	0.56201	0.8234	0.47256	0.027
Mof_H 	H 	0.30793	0.52679	0.07592	0.034
Mof_H 	H 	0.37594	0.47266	0.003	0.049
Mof_H 	H 	0.69865	0.77052	0.22419	0.035
Mof_H 	H 	0.62087	0.63106	0.0972	0.049
Mof_H 	H 	0.76212	0.68007	0.20842	0.03
Mof_H 	H 	0.48188	0.38301	0.02081	0.048
Mof_H 	H 	0.52314	0.29157	0.06494	0.039
Mof_H 	H 	0.47301	0.5624	0.82635	0.027
Mof_H 	H 	0.52798	0.48614	0.75276	0.044
Mof_H 	H 	0.55085	0.5033	0.8911	0.044
Mof_H 	H 	0.02081	0.38301	0.48188	0.048
Mof_H 	H 	0.06494	0.29157	0.52314	0.039
Mof_H 	H 	0.0972	0.63106	0.62087	0.049
Mof_H 	H 	0.22419	0.77052	0.69865	0.035
Mof_H 	H 	0.20842	0.68007	0.76212	0.03
Mof_H 	H 	0.07592	0.52679	0.30793	0.034
Mof_H 	H 	0.003	0.47266	0.37594	0.049
Mof_H 	H 	0.75276	0.48614	0.52798	0.044
Mof_H 	H 	0.82635	0.5624	0.47301	0.027
Mof_H 	H 	0.8911	0.5033	0.55085	0.044
Mof_H 	H 	0.91426	0.24378	0.44314	0.028
Mof_H 	H 	0.92108	0.4487	0.23448	0.031
Mof_H 	H 	0.45235	0.9262	0.23059	0.025
Mof_H 	H 	0.46776	0.99313	0.37084	0.038
Mof_H 	H 	0.23059	0.9262	0.45235	0.025
Mof_H 	H 	0.37084	0.99313	0.46776	0.037
Mof_H 	H 	0.23448	0.4487	0.92108	0.031
Mof_H 	H 	0.44314	0.24378	0.91426	0.028
_end
