data_functionalizedCrystal
_audit_creation_method	'EQeq! by Chris Wilmer'
_symmetry_space_group_name_H-M	'P1'
_symmetry_Int_Tables_number	1
_symmetry_cell_setting	triclinic
loop_
_symmetry_equiv_pos_as_xyz
  x,y,z
_cell_length_a	16.994
_cell_length_b	18.914
_cell_length_c	18.948
_cell_angle_alpha	108.314
_cell_angle_beta	106.718
_cell_angle_gamma	109.066
loop_
_atom_site_label
_atom_site_type_symbol
_atom_site_fract_x
_atom_site_fract_y
_atom_site_fract_z
_atom_site_charge
Mof_Zn	Zn	0.94087	0.78929	0.14184	1.149
Mof_Zn	Zn	0.17716	0.93525	0.25885	1.197
Mof_Zn	Zn	0.5844	0.8372	0.19279	1.123
Mof_C 	C 	0.662	0.3847	0.3986	0.019
Mof_C 	C 	0.7165	0.4158	0.3624	-0.134
Mof_C 	C 	0.7895	0.4947	0.4077	0.284
Mof_C 	C 	0.83	0.531	0.4915	-1.833
Mof_C 	C 	0.7623	0.5061	0.5281	-0.206
Mof_C 	C 	0.6832	0.4311	0.4811	0.048
Mof_C 	C 	0.5797	0.2993	0.3484	0.037
Mof_C 	C 	0.4341	0.2403	0.2365	0.174
Mof_C 	C 	0.4017	0.1622	0.2354	-0.099
Mof_C 	C 	0.303	0.103	0.18	0.025
Mof_C 	C 	0.252	0.119	0.117	-0.009
Mof_C 	C 	0.3059	0.1866	0.1074	0.093
Mof_C 	C 	0.3852	0.2525	0.1728	-0.195
Mof_H 	H 	0.4063	0.3053	0.1745	0.078
Mof_C 	C 	0.178	0.1695	0.9883	-0.054
Mof_C 	C 	0.3136	0.2405	0.0064	0.029
Mof_C 	C 	0.6938	0.3656	0.2748	0.13
Mof_H 	H 	0.6295	0.347	0.24	-0.023
Mof_H 	H 	0.7321	0.3995	0.2569	-0.032
Mof_C 	C 	0.6813	0.2337	0.1914	0.194
Mof_C 	C 	0.6582	0.2438	0.1205	-0.117
Mof_C 	C 	0.606	0.092	0.031	-0.155
Mof_C 	C 	0.6549	0.0948	0.1143	0.096
Mof_C 	C 	0.6825	0.1598	0.1892	-0.2
Mof_H 	H 	0.7017	0.1545	0.2376	0.095
Mof_C 	C 	0.6157	0.9761	0.1501	0.031
Mof_C 	C 	0.7209	0.9883	0.1051	0.079
Mof_C 	C 	0.8511	0.5383	0.3731	0.01
Mof_C 	C 	0.009	0.5878	0.4025	0.323
Mof_C 	C 	0.0921	0.599	0.4569	-0.316
Mof_H 	H 	0.0941	0.567	0.4854	0.208
Mof_C 	C 	0.1744	0.6624	0.4665	0.22
Mof_H 	H 	0.2315	0.6721	0.5026	-0.051
Mof_C 	C 	0.1722	0.7092	0.4247	-0.304
Mof_H 	H 	0.2264	0.7498	0.4314	0.106
Mof_C 	C 	0.0881	0.6946	0.373	0.243
Mof_C 	C 	0.0063	0.6366	0.3631	-0.328
Mof_H 	H 	0.95	0.6308	0.3299	0.121
Mof_C 	C 	0.0114	0.7242	0.2613	0.026
Mof_C 	C 	0.1556	0.8128	0.3398	0.108
Mof_H 	H 	0.2157	0.8394	0.3811	-0.026
Mof_C 	C 	0.9946	0.7619	0.5972	0.431
Mof_C 	C 	0.0792	0.7789	0.5982	-0.337
Mof_H 	H 	0.0933	0.7354	0.578	0.184
Mof_C 	C 	0.146	0.8633	0.6302	0.211
Mof_H 	H 	0.2049	0.8763	0.6331	-0.092
Mof_C 	C 	0.1196	0.9281	0.6581	-0.334
Mof_H 	H 	0.1597	0.9841	0.677	0.104
Mof_C 	C 	0.0355	0.905	0.656	0.321
Mof_C 	C 	0.9701	0.8243	0.6253	-0.471
Mof_H 	H 	0.9116	0.812	0.6233	0.194
Mof_C 	C 	0.7944	0.5574	0.623	0.121
Mof_H 	H 	0.8509	0.6091	0.6465	-0.022
Mof_H 	H 	0.747	0.5709	0.6329	-0.003
Mof_C 	C 	0.797	0.5122	0.7299	0.266
Mof_C 	C 	0.788	0.5798	0.7761	-0.247
Mof_H 	H 	0.7924	0.6221	0.76	0.12
Mof_C 	C 	0.771	0.587	0.844	0.103
Mof_H 	H 	0.7683	0.633	0.8767	-0.036
Mof_C 	C 	0.758	0.509	0.86	-0.212
Mof_H 	H 	0.7484	0.508	0.9053	0.08
Mof_C 	C 	0.7606	0.4393	0.8065	0.21
Mof_C 	C 	0.7773	0.4399	0.741	-0.296
Mof_H 	H 	0.7754	0.3928	0.7038	0.133
Mof_C 	C 	0.69	0.3393	0.8546	0.086
Mof_H 	H 	0.6559	0.3638	0.873	0.01
Mof_C 	C 	0.7813	0.3167	0.8027	0.061
Mof_H 	H 	0.823	0.3206	0.7796	0.001
Mof_C 	C 	0.4768	0.3759	0.6604	0.236
Mof_C 	C 	0.5209	0.3788	0.6108	-0.343
Mof_H 	H 	0.536	0.3363	0.5894	0.119
Mof_C 	C 	0.5426	0.4463	0.593	0.334
Mof_C 	C 	0.5198	0.5079	0.6255	-0.341
Mof_H 	H 	0.5353	0.5537	0.6141	0.167
Mof_C 	C 	0.6222	0.3997	0.5204	0.04
Mof_H 	H 	0.5718	0.3445	0.481	-0.005
Mof_H 	H 	0.6579	0.3956	0.5678	0.023
Mof_C 	C 	0.4745	0.5036	0.6744	0.202
Mof_H 	H 	0.4594	0.5461	0.6955	-0.061
Mof_C 	C 	0.4512	0.4364	0.6927	-0.302
Mof_H 	H 	0.4197	0.4321	0.7253	0.094
Mof_C 	C 	0.4083	0.2227	0.615	0.126
Mof_H 	H 	0.3938	0.207	0.5594	-0.082
Mof_C 	C 	0.4572	0.2974	0.7435	0.106
Mof_H 	H 	0.4825	0.343	0.7948	-0.014
Mof_N 	N 	0.259	0.196	0.034	-0.067
Mof_N 	N 	0.1704	0.2042	0.9381	-0.243
Mof_N 	N 	0.2564	0.2432	0.9452	-0.211
Mof_N 	N 	0.676	0.0276	0.1277	-0.088
Mof_N 	N 	0.6298	0.9116	0.1416	-0.266
Mof_N 	N 	0.7108	0.924	0.1226	-0.106
Mof_N 	N 	0.0846	0.7424	0.3276	-0.172
Mof_N 	N 	0.1253	0.8369	0.2839	-0.25
Mof_N 	N 	0.029	0.791	0.255	-0.031
Mof_N 	N 	0.7453	0.3724	0.8226	-0.179
Mof_N 	N 	0.6874	0.2703	0.8581	-0.115
Mof_N 	N 	0.7445	0.2561	0.8231	-0.115
Mof_N 	N 	0.4477	0.3019	0.6732	-0.2
Mof_N 	N 	0.4253	0.2186	0.7294	-0.284
Mof_N 	N 	0.393	0.1706	0.6468	-0.242
Mof_O 	O 	0.5061	0.3106	0.3005	-0.147
Mof_O 	O 	0.7101	0.2957	0.2686	-0.245
Mof_O 	O 	0.936	0.517	0.388	-0.006
Mof_O 	O 	0.8097	0.5033	0.6575	-0.24
Mof_O 	O 	0.5871	0.4551	0.5451	-0.276
Mof_N 	N 	0.0134	0.972	0.6914	-0.188
Mof_C 	C 	0.0743	0.0526	0.7564	0.211
Mof_N 	N 	0.0219	0.0937	0.7737	-0.287
Mof_N 	N 	0.9285	0.0385	0.7194	-0.205
Mof_C 	C 	0.9233	0.9633	0.6685	0.07
Mof_H 	H 	0.8696	0.916	0.6269	-0.013
Mof_C 	C 	0.608	0.165	0.035	-0.046
Mof_O 	O 	0.912	0.6819	0.5728	0.946
Mof_C 	C 	0.9237	0.6062	0.5458	0.885
Mof_Mo	Mo	0.41913	0.46244	0.03582	1.455
Mof_Mo	Mo	0.46223	0.63887	0.00092	1.501
Mof_Mo	Mo	0.28643	0.29055	0.85496	0.887
Mof_Mo	Mo	0.6952	0.53675	0.15104	0.994
Mof_O 	O 	0.3029	0.41	0.9425	-0.615
Mof_O 	O 	0.4365	0.5662	0.0783	-0.569
Mof_O 	O 	0.5471	0.4844	0.0615	-0.7
Mof_O 	O 	0.4142	0.3523	0.9529	-0.705
Mof_O 	O 	0.3341	0.5669	0.9392	-0.608
Mof_O 	O 	0.4807	0.7232	0.0855	-0.674
Mof_O 	O 	0.3187	0.359	0.806	-0.554
Mof_Mo	Mo	0.54195	0.08982	0.59111	1.467
Mof_Mo	Mo	0.39674	0.07041	0.41989	1.477
Mof_Mo	Mo	0.42336	0.91072	0.61177	1.025
Mof_Mo	Mo	0.32998	0.03035	0.58724	0.933
Mof_O 	O 	0.3169	0.9225	0.549	-0.554
Mof_O 	O 	0.4768	0.0512	0.6478	-0.627
Mof_O 	O 	0.6384	0.0737	0.6247	-0.599
Mof_O 	O 	0.5232	0.0638	0.4779	-0.711
Mof_O 	O 	0.3992	0.0618	0.5208	-0.679
Mof_O 	O 	0.4449	0.0569	0.3407	-0.616
Mof_O 	O 	0.2797	0.0304	0.3586	-0.699
Mof_O 	O 	0.1368	0.964	0.1662	-0.462
Mof_O 	O 	0.027	0.8184	0.0899	-0.533
Mof_O 	O 	0.1404	0.8741	0.0452	-0.29
Mof_O 	O 	0.027	0.926	0.0366	-0.266
Mof_S 	S 	0.0789	0.8924	0.0791	0.666
Mof_C 	C 	0.798	0.551	0.491	1.734
Mof_C 	C 	0.856	0.655	0.536	-0.909
Mof_C 	C 	0.3283	0.0913	0.1623	-0.003
Mof_C 	C 	0.2736	0.1016	0.0976	-0.007
Mof_O 	O 	0.527	0.3074	0.2858	-0.072
Mof_O 	O 	0.496	0.316	0.317	-0.018
Mof_O 	O 	0.931	0.541	0.407	-0.223
Mof_O 	O 	0.948	0.673	0.5581	-1.12
Mof_C 	C 	0.649	0.1042	0.0455	0.121
Mof_C 	C 	0.65	0.184	0.05	0.061
Mof_C 	C 	0.095	0.068	0.731	-0.387
Mof_C 	C 	0.647	0.952	0.051	0.067
Mof_N 	N 	0.64	0.8923	0.0705	-0.088
Mof_N 	N 	0.6334	0.0089	0.1032	-0.068
Mof_N 	N 	0.0351	0.775	0.2301	-0.222
Mof_C 	C 	0.171	0.19	0.004	0.141
Mof_N 	N 	0.267	0.201	0.041	-0.05
Mof_C 	C 	0.062	0.0481	0.751	0.163
Mof_Zn	Zn	0.05913	0.21071	0.85816	1.148
Mof_Zn	Zn	0.82284	0.06475	0.74115	1.196
Mof_Zn	Zn	0.4156	0.1628	0.80721	1.122
Mof_C 	C 	0.338	0.6153	0.6014	0.018
Mof_C 	C 	0.2835	0.5842	0.6376	-0.135
Mof_C 	C 	0.2105	0.5053	0.5923	0.283
Mof_C 	C 	0.17	0.469	0.5085	-1.833
Mof_C 	C 	0.2377	0.4939	0.4719	-0.206
Mof_C 	C 	0.3168	0.5689	0.5189	0.048
Mof_C 	C 	0.4203	0.7007	0.6516	0.037
Mof_C 	C 	0.5659	0.7597	0.7635	0.174
Mof_C 	C 	0.5983	0.8378	0.7646	-0.099
Mof_C 	C 	0.697	0.897	0.82	0.025
Mof_C 	C 	0.748	0.881	0.883	-0.009
Mof_C 	C 	0.6941	0.8134	0.8926	0.093
Mof_C 	C 	0.6148	0.7475	0.8272	-0.195
Mof_H 	H 	0.5937	0.6947	0.8255	0.078
Mof_C 	C 	0.822	0.8305	0.0117	-0.054
Mof_C 	C 	0.6864	0.7595	0.9936	0.029
Mof_C 	C 	0.3062	0.6344	0.7252	0.13
Mof_H 	H 	0.3705	0.653	0.76	-0.023
Mof_H 	H 	0.2679	0.6005	0.7431	-0.032
Mof_C 	C 	0.3187	0.7663	0.8086	0.194
Mof_C 	C 	0.3418	0.7562	0.8795	-0.117
Mof_C 	C 	0.394	0.908	0.969	-0.155
Mof_C 	C 	0.3451	0.9052	0.8857	0.096
Mof_C 	C 	0.3175	0.8402	0.8108	-0.2
Mof_H 	H 	0.2983	0.8455	0.7624	0.095
Mof_C 	C 	0.3843	0.0239	0.8499	0.031
Mof_C 	C 	0.2791	0.0117	0.8949	0.079
Mof_C 	C 	0.1489	0.4617	0.6269	0.01
Mof_C 	C 	0.991	0.4122	0.5975	0.323
Mof_C 	C 	0.9079	0.401	0.5431	-0.316
Mof_H 	H 	0.9059	0.433	0.5146	0.208
Mof_C 	C 	0.8256	0.3376	0.5335	0.22
Mof_H 	H 	0.7685	0.3279	0.4974	-0.051
Mof_C 	C 	0.8278	0.2908	0.5753	-0.304
Mof_H 	H 	0.7736	0.2502	0.5686	0.106
Mof_C 	C 	0.9119	0.3054	0.627	0.243
Mof_C 	C 	0.9937	0.3634	0.6369	-0.328
Mof_H 	H 	0.05	0.3692	0.6701	0.121
Mof_C 	C 	0.9886	0.2758	0.7387	0.026
Mof_C 	C 	0.8444	0.1872	0.6602	0.108
Mof_H 	H 	0.7843	0.1606	0.6189	-0.026
Mof_C 	C 	0.0054	0.2381	0.4028	0.431
Mof_C 	C 	0.9208	0.2211	0.4018	-0.337
Mof_H 	H 	0.9067	0.2646	0.422	0.184
Mof_C 	C 	0.854	0.1367	0.3698	0.211
Mof_H 	H 	0.7951	0.1237	0.3669	-0.092
Mof_C 	C 	0.8804	0.0719	0.3419	-0.334
Mof_H 	H 	0.8403	0.0159	0.323	0.104
Mof_C 	C 	0.9645	0.095	0.344	0.321
Mof_C 	C 	0.0299	0.1757	0.3747	-0.471
Mof_H 	H 	0.0884	0.188	0.3767	0.194
Mof_C 	C 	0.2056	0.4426	0.377	0.121
Mof_H 	H 	0.1491	0.3909	0.3535	-0.022
Mof_H 	H 	0.253	0.4291	0.3671	-0.003
Mof_C 	C 	0.203	0.4878	0.2701	0.266
Mof_C 	C 	0.212	0.4202	0.2239	-0.247
Mof_H 	H 	0.2076	0.3779	0.24	0.12
Mof_C 	C 	0.229	0.413	0.156	0.103
Mof_H 	H 	0.2317	0.367	0.1233	-0.036
Mof_C 	C 	0.242	0.491	0.14	-0.212
Mof_H 	H 	0.2516	0.492	0.0947	0.08
Mof_C 	C 	0.2394	0.5607	0.1935	0.21
Mof_C 	C 	0.2227	0.5601	0.259	-0.296
Mof_H 	H 	0.2246	0.6072	0.2962	0.133
Mof_C 	C 	0.31	0.6607	0.1454	0.086
Mof_H 	H 	0.3441	0.6362	0.127	0.01
Mof_C 	C 	0.2187	0.6833	0.1973	0.061
Mof_H 	H 	0.177	0.6794	0.2204	0.001
Mof_C 	C 	0.5232	0.6241	0.3396	0.236
Mof_C 	C 	0.4791	0.6212	0.3892	-0.343
Mof_H 	H 	0.464	0.6637	0.4106	0.119
Mof_C 	C 	0.4574	0.5537	0.407	0.334
Mof_C 	C 	0.4802	0.4921	0.3745	-0.341
Mof_H 	H 	0.4647	0.4463	0.3859	0.167
Mof_C 	C 	0.3778	0.6003	0.4796	0.04
Mof_H 	H 	0.4282	0.6555	0.519	-0.005
Mof_H 	H 	0.3421	0.6044	0.4322	0.023
Mof_C 	C 	0.5255	0.4964	0.3256	0.202
Mof_H 	H 	0.5406	0.4539	0.3045	-0.061
Mof_C 	C 	0.5488	0.5636	0.3073	-0.302
Mof_H 	H 	0.5803	0.5679	0.2747	0.094
Mof_C 	C 	0.5917	0.7773	0.385	0.126
Mof_H 	H 	0.6062	0.793	0.4406	-0.082
Mof_C 	C 	0.5428	0.7026	0.2565	0.106
Mof_H 	H 	0.5175	0.657	0.2052	-0.014
Mof_N 	N 	0.741	0.804	0.966	-0.067
Mof_N 	N 	0.8296	0.7958	0.0619	-0.243
Mof_N 	N 	0.7436	0.7568	0.0548	-0.211
Mof_N 	N 	0.324	0.9724	0.8723	-0.088
Mof_N 	N 	0.3702	0.0884	0.8584	-0.266
Mof_N 	N 	0.2892	0.076	0.8774	-0.106
Mof_N 	N 	0.9154	0.2576	0.6724	-0.172
Mof_N 	N 	0.8747	0.1631	0.7161	-0.25
Mof_N 	N 	0.971	0.209	0.745	-0.031
Mof_N 	N 	0.2547	0.6276	0.1774	-0.179
Mof_N 	N 	0.3126	0.7297	0.1419	-0.115
Mof_N 	N 	0.2555	0.7439	0.1769	-0.115
Mof_N 	N 	0.5523	0.6981	0.3268	-0.2
Mof_N 	N 	0.5747	0.7814	0.2706	-0.284
Mof_N 	N 	0.607	0.8294	0.3532	-0.242
Mof_O 	O 	0.4939	0.6894	0.6995	-0.147
Mof_O 	O 	0.2899	0.7043	0.7314	-0.245
Mof_O 	O 	0.064	0.483	0.612	-0.006
Mof_O 	O 	0.1903	0.4967	0.3425	-0.24
Mof_O 	O 	0.4129	0.5449	0.4549	-0.276
Mof_N 	N 	0.9866	0.028	0.3086	-0.188
Mof_C 	C 	0.9257	0.9474	0.2436	0.211
Mof_N 	N 	0.9781	0.9063	0.2263	-0.287
Mof_N 	N 	0.0715	0.9615	0.2806	-0.205
Mof_C 	C 	0.0767	0.0367	0.3315	0.07
Mof_H 	H 	0.1304	0.084	0.3731	-0.013
Mof_C 	C 	0.392	0.835	0.965	-0.046
Mof_O 	O 	0.088	0.3181	0.4272	0.946
Mof_C 	C 	0.0763	0.3938	0.4542	0.885
Mof_Mo	Mo	0.58087	0.53756	0.96418	1.455
Mof_Mo	Mo	0.53777	0.36113	0.99908	1.501
Mof_Mo	Mo	0.71357	0.70945	0.14504	0.887
Mof_Mo	Mo	0.3048	0.46325	0.84896	0.994
Mof_O 	O 	0.6971	0.59	0.0575	-0.615
Mof_O 	O 	0.5635	0.4338	0.9217	-0.569
Mof_O 	O 	0.4529	0.5156	0.9385	-0.7
Mof_O 	O 	0.5858	0.6477	0.0471	-0.705
Mof_O 	O 	0.6659	0.4331	0.0608	-0.608
Mof_O 	O 	0.5193	0.2768	0.9145	-0.674
Mof_O 	O 	0.6813	0.641	0.194	-0.554
Mof_Mo	Mo	0.45805	0.91018	0.40889	1.467
Mof_Mo	Mo	0.60326	0.92959	0.58011	1.477
Mof_Mo	Mo	0.57664	0.08928	0.38823	1.025
Mof_Mo	Mo	0.67002	0.96965	0.41276	0.933
Mof_O 	O 	0.6831	0.0775	0.451	-0.554
Mof_O 	O 	0.5232	0.9488	0.3522	-0.627
Mof_O 	O 	0.3616	0.9263	0.3753	-0.599
Mof_O 	O 	0.4768	0.9362	0.5221	-0.711
Mof_O 	O 	0.6008	0.9382	0.4792	-0.679
Mof_O 	O 	0.5551	0.9431	0.6593	-0.616
Mof_O 	O 	0.7203	0.9696	0.6414	-0.699
Mof_O 	O 	0.8632	0.036	0.8338	-0.462
Mof_O 	O 	0.973	0.1816	0.9101	-0.533
Mof_O 	O 	0.8596	0.1259	0.9548	-0.29
Mof_O 	O 	0.973	0.074	0.9634	-0.266
Mof_S 	S 	0.9211	0.1076	0.9209	0.666
Mof_C 	C 	0.202	0.449	0.509	1.734
Mof_C 	C 	0.144	0.345	0.464	-0.909
Mof_C 	C 	0.6717	0.9087	0.8377	-0.003
Mof_C 	C 	0.7264	0.8984	0.9024	-0.007
Mof_O 	O 	0.473	0.6926	0.7142	-0.072
Mof_O 	O 	0.504	0.684	0.683	-0.018
Mof_O 	O 	0.069	0.459	0.593	-0.223
Mof_O 	O 	0.052	0.327	0.4419	-1.12
Mof_C 	C 	0.351	0.8958	0.9545	0.121
Mof_C 	C 	0.35	0.816	0.95	0.061
Mof_C 	C 	0.905	0.932	0.269	-0.387
Mof_C 	C 	0.353	0.048	0.949	0.067
Mof_N 	N 	0.36	0.1077	0.9295	-0.088
Mof_N 	N 	0.3666	0.9911	0.8968	-0.068
Mof_N 	N 	0.9649	0.225	0.7699	-0.222
Mof_C 	C 	0.829	0.81	0.996	0.141
Mof_N 	N 	0.733	0.799	0.959	-0.05
Mof_C 	C 	0.938	0.9519	0.249	0.163
_end
