# CIF file generated by openbabel 3.1.0, see https://openbabel.org
data_I
_chemical_name_common 'TEQVAO_clean5b'
_cell_length_a 13.7909
_cell_length_b 16.2879
_cell_length_c 22.017
_cell_angle_alpha 90
_cell_angle_beta 90
_cell_angle_gamma 90
_space_group_name_H-M_alt 'P 1'
_space_group_name_Hall 'P 1'
loop_
    _symmetry_equiv_pos_as_xyz
    x,y,z
loop_
    _atom_site_label
    _atom_site_type_symbol
    _atom_site_fract_x
    _atom_site_fract_y
    _atom_site_fract_z
    _atom_site_occupancy
    Mg1      Mg       0.22210    0.55091    0.75915    1.000
    Mg2      Mg       0.72210    0.44909    0.74085    1.000
    Mg3      Mg       0.77790    0.05091    0.24085    1.000
    Mg4      Mg       0.27790    0.94909    0.25915    1.000
    Mg5      Mg       0.77790    0.44909    0.24085    1.000
    Mg6      Mg       0.27790    0.55091    0.25915    1.000
    Mg7      Mg       0.22210    0.94909    0.75915    1.000
    Mg8      Mg       0.72210    0.05091    0.74085    1.000
    Zn9      Zn       0.97979    0.49791    0.66883    1.000
    Zn10     Zn       0.47979    0.50209    0.83117    1.000
    Zn11     Zn       0.02021    0.99791    0.33117    1.000
    Zn12     Zn       0.52021    0.00209    0.16883    1.000
    Zn13     Zn       0.02021    0.50209    0.33117    1.000
    Zn14     Zn       0.52021    0.49791    0.16883    1.000
    Zn15     Zn       0.97979    0.00209    0.66883    1.000
    Zn16     Zn       0.47979    0.99791    0.83117    1.000
    H17      H        0.35922    0.58260    0.61746    1.000
    H18      H        0.49485    0.66489    0.56438    1.000
    H19      H        0.52094    0.63673    0.48408    1.000
    H20      H        0.53433    0.55869    0.54528    1.000
    H21      H        0.39295    0.58444    0.42097    1.000
    H22      H        0.11382    0.51897    0.50132    1.000
    H23      H        0.75801    0.61662    0.84483    1.000
    H24      H        0.66695    0.68407    0.91755    1.000
    H25      H        0.17861    0.38409    0.85997    1.000
    H26      H        0.31499    0.28393    0.91498    1.000
    H27      H        0.85922    0.41740    0.88254    1.000
    H28      H        0.01247    0.39652    0.92159    1.000
    H29      H        0.03856    0.42468    0.00189    1.000
    H30      H        0.99909    0.31848    0.98279    1.000
    H31      H        0.89295    0.41556    0.07903    1.000
    H32      H        0.61382    0.48103    0.99868    1.000
    H33      H        0.25801    0.38338    0.65517    1.000
    H34      H        0.16180    0.18407    0.58511    1.000
    H35      H        0.67861    0.61591    0.64003    1.000
    H36      H        0.75835    0.68402    0.56131    1.000
    H37      H        0.64078    0.08260    0.38254    1.000
    H38      H        0.46038    0.05932    0.48120    1.000
    H39      H        0.49782    0.13450    0.42199    1.000
    H40      H        0.49168    0.16650    0.50308    1.000
    H41      H        0.60705    0.08444    0.57903    1.000
    H42      H        0.88618    0.01897    0.49868    1.000
    H43      H        0.24199    0.11662    0.15517    1.000
    H44      H        0.28230    0.28052    0.05625    1.000
    H45      H        0.82139    0.88409    0.14003    1.000
    H46      H        0.79616    0.78393    0.03848    1.000
    H47      H        0.14078    0.91740    0.11746    1.000
    H48      H        0.96877    0.89429    0.98448    1.000
    H49      H        0.97491    0.92628    0.06556    1.000
    H50      H        0.00620    0.81911    0.04369    1.000
    H51      H        0.10705    0.91556    0.92097    1.000
    H52      H        0.38618    0.98103    0.00132    1.000
    H53      H        0.74199    0.88338    0.34483    1.000
    H54      H        0.83305    0.68407    0.41755    1.000
    H55      H        0.32139    0.11591    0.35997    1.000
    H56      H        0.23953    0.18402    0.43780    1.000
    H57      H        0.64078    0.41740    0.38254    1.000
    H58      H        0.50091    0.31848    0.48279    1.000
    H59      H        0.48753    0.39652    0.42159    1.000
    H60      H        0.46144    0.42468    0.50189    1.000
    H61      H        0.60705    0.41556    0.57903    1.000
    H62      H        0.88618    0.48103    0.49868    1.000
    H63      H        0.24199    0.38338    0.15517    1.000
    H64      H        0.33820    0.18407    0.08511    1.000
    H65      H        0.82139    0.61591    0.14003    1.000
    H66      H        0.74165    0.68402    0.06131    1.000
    H67      H        0.14078    0.58260    0.11746    1.000
    H68      H        0.97906    0.63673    0.98408    1.000
    H69      H        0.00515    0.66489    0.06438    1.000
    H70      H        0.96567    0.55869    0.04528    1.000
    H71      H        0.10705    0.58444    0.92097    1.000
    H72      H        0.38618    0.51897    0.00132    1.000
    H73      H        0.74199    0.61662    0.34483    1.000
    H74      H        0.88895    0.78052    0.38869    1.000
    H75      H        0.32139    0.38409    0.35997    1.000
    H76      H        0.18501    0.28393    0.41498    1.000
    H77      H        0.35922    0.91740    0.61746    1.000
    H78      H        0.52509    0.92628    0.56556    1.000
    H79      H        0.53123    0.89429    0.48448    1.000
    H80      H        0.49380    0.81911    0.54369    1.000
    H81      H        0.39295    0.91556    0.42097    1.000
    H82      H        0.11382    0.98103    0.50132    1.000
    H83      H        0.75801    0.88338    0.84483    1.000
    H84      H        0.61105    0.78052    0.88869    1.000
    H85      H        0.17861    0.11591    0.85997    1.000
    H86      H        0.26047    0.18402    0.93780    1.000
    H87      H        0.85922    0.08260    0.88254    1.000
    H88      H        0.00218    0.13450    0.92199    1.000
    H89      H        0.00832    0.16650    0.00308    1.000
    H90      H        0.03962    0.05932    0.98120    1.000
    H91      H        0.89295    0.08444    0.07903    1.000
    H92      H        0.61382    0.01897    0.99868    1.000
    H93      H        0.25801    0.11662    0.65517    1.000
    H94      H        0.21770    0.28052    0.55625    1.000
    H95      H        0.67861    0.88409    0.64003    1.000
    H96      H        0.70384    0.78393    0.53848    1.000
    H97      H        0.93136    0.74960    0.71100    1.000
    H98      H        0.43136    0.25040    0.78900    1.000
    H99      H        0.06864    0.25040    0.28900    1.000
    H100     H        0.56864    0.74960    0.21100    1.000
    H101     H        0.01763    0.24972    0.72112    1.000
    H102     H        0.51763    0.75028    0.77888    1.000
    H103     H        0.98237    0.75028    0.27888    1.000
    H104     H        0.48237    0.24972    0.22112    1.000
    C105     C        0.16790    0.53980    0.61940    1.000
    C106     C        0.23070    0.55090    0.56415    1.000
    C107     C        0.32650    0.57440    0.57030    1.000
    C108     C        0.38360    0.58820    0.52040    1.000
    C109     C        0.49040    0.61380    0.52910    1.000
    C110     C        0.34540    0.57540    0.46280    1.000
    C111     C        0.24850    0.55140    0.45610    1.000
    C112     C        0.20660    0.54250    0.39390    1.000
    C113     C        0.19250    0.53910    0.50681    1.000
    C114     C        0.87470    0.59750    0.74555    1.000
    C115     C        0.84520    0.67610    0.77506    1.000
    C116     C        0.78390    0.67690    0.82410    1.000
    C117     C        0.07230    0.40270    0.75640    1.000
    C118     C        0.09670    0.32320    0.78742    1.000
    C119     C        0.15420    0.32340    0.83920    1.000
    C120     C        0.66790    0.46020    0.88060    1.000
    C121     C        0.73070    0.44910    0.93585    1.000
    C122     C        0.82650    0.42560    0.92970    1.000
    C123     C        0.88360    0.41180    0.97960    1.000
    C124     C        0.99040    0.38620    0.97090    1.000
    C125     C        0.84540    0.42460    0.03720    1.000
    C126     C        0.74850    0.44860    0.04390    1.000
    C127     C        0.70660    0.45750    0.10610    1.000
    C128     C        0.69250    0.46090    0.99319    1.000
    C129     C        0.37470    0.40250    0.75445    1.000
    C130     C        0.34520    0.32390    0.72494    1.000
    C131     C        0.28390    0.32310    0.67590    1.000
    C132     C        0.57230    0.59730    0.74360    1.000
    C133     C        0.59670    0.67680    0.71258    1.000
    C134     C        0.65420    0.67660    0.66080    1.000
    C135     C        0.83210    0.03980    0.38060    1.000
    C136     C        0.76930    0.05090    0.43585    1.000
    C137     C        0.67350    0.07440    0.42970    1.000
    C138     C        0.61640    0.08820    0.47960    1.000
    C139     C        0.50960    0.11380    0.47090    1.000
    C140     C        0.65460    0.07540    0.53720    1.000
    C141     C        0.75150    0.05140    0.54390    1.000
    C142     C        0.79340    0.04250    0.60610    1.000
    C143     C        0.80750    0.03910    0.49319    1.000
    C144     C        0.12530    0.09750    0.25445    1.000
    C145     C        0.15480    0.17610    0.22494    1.000
    C146     C        0.21610    0.17690    0.17590    1.000
    C147     C        0.92770    0.90270    0.24360    1.000
    C148     C        0.90330    0.82320    0.21258    1.000
    C149     C        0.84580    0.82340    0.16080    1.000
    C150     C        0.33210    0.96020    0.11940    1.000
    C151     C        0.26930    0.94910    0.06415    1.000
    C152     C        0.17350    0.92560    0.07030    1.000
    C153     C        0.11640    0.91180    0.02040    1.000
    C154     C        0.00960    0.88620    0.02910    1.000
    C155     C        0.15460    0.92460    0.96280    1.000
    C156     C        0.25150    0.94860    0.95610    1.000
    C157     C        0.29340    0.95750    0.89390    1.000
    C158     C        0.30750    0.96090    0.00681    1.000
    C159     C        0.62530    0.90250    0.24555    1.000
    C160     C        0.65480    0.82390    0.27506    1.000
    C161     C        0.71610    0.82310    0.32410    1.000
    C162     C        0.42770    0.09730    0.25640    1.000
    C163     C        0.40330    0.17680    0.28742    1.000
    C164     C        0.34580    0.17660    0.33920    1.000
    C165     C        0.83210    0.46020    0.38060    1.000
    C166     C        0.76930    0.44910    0.43585    1.000
    C167     C        0.67350    0.42560    0.42970    1.000
    C168     C        0.61640    0.41180    0.47960    1.000
    C169     C        0.50960    0.38620    0.47090    1.000
    C170     C        0.65460    0.42460    0.53720    1.000
    C171     C        0.75150    0.44860    0.54390    1.000
    C172     C        0.79340    0.45750    0.60610    1.000
    C173     C        0.80750    0.46090    0.49319    1.000
    C174     C        0.12530    0.40250    0.25445    1.000
    C175     C        0.15480    0.32390    0.22494    1.000
    C176     C        0.21610    0.32310    0.17590    1.000
    C177     C        0.92770    0.59730    0.24360    1.000
    C178     C        0.90330    0.67680    0.21258    1.000
    C179     C        0.84580    0.67660    0.16080    1.000
    C180     C        0.33210    0.53980    0.11940    1.000
    C181     C        0.26930    0.55090    0.06415    1.000
    C182     C        0.17350    0.57440    0.07030    1.000
    C183     C        0.11640    0.58820    0.02040    1.000
    C184     C        0.00960    0.61380    0.02910    1.000
    C185     C        0.15460    0.57540    0.96280    1.000
    C186     C        0.25150    0.55140    0.95610    1.000
    C187     C        0.29340    0.54250    0.89390    1.000
    C188     C        0.30750    0.53910    0.00681    1.000
    C189     C        0.62530    0.59750    0.24555    1.000
    C190     C        0.65480    0.67610    0.27506    1.000
    C191     C        0.71610    0.67690    0.32410    1.000
    C192     C        0.42770    0.40270    0.25640    1.000
    C193     C        0.40330    0.32320    0.28742    1.000
    C194     C        0.34580    0.32340    0.33920    1.000
    C195     C        0.16790    0.96020    0.61940    1.000
    C196     C        0.23070    0.94910    0.56415    1.000
    C197     C        0.32650    0.92560    0.57030    1.000
    C198     C        0.38360    0.91180    0.52040    1.000
    C199     C        0.49040    0.88620    0.52910    1.000
    C200     C        0.34540    0.92460    0.46280    1.000
    C201     C        0.24850    0.94860    0.45610    1.000
    C202     C        0.20660    0.95750    0.39390    1.000
    C203     C        0.19250    0.96090    0.50681    1.000
    C204     C        0.87470    0.90250    0.74555    1.000
    C205     C        0.84520    0.82390    0.77506    1.000
    C206     C        0.78390    0.82310    0.82410    1.000
    C207     C        0.07230    0.09730    0.75640    1.000
    C208     C        0.09670    0.17680    0.78742    1.000
    C209     C        0.15420    0.17660    0.83920    1.000
    C210     C        0.66790    0.03980    0.88060    1.000
    C211     C        0.73070    0.05090    0.93585    1.000
    C212     C        0.82650    0.07440    0.92970    1.000
    C213     C        0.88360    0.08820    0.97960    1.000
    C214     C        0.99040    0.11380    0.97090    1.000
    C215     C        0.84540    0.07540    0.03720    1.000
    C216     C        0.74850    0.05140    0.04390    1.000
    C217     C        0.70660    0.04250    0.10610    1.000
    C218     C        0.69250    0.03910    0.99319    1.000
    C219     C        0.37470    0.09750    0.75445    1.000
    C220     C        0.34520    0.17610    0.72494    1.000
    C221     C        0.28390    0.17690    0.67590    1.000
    C222     C        0.57230    0.90270    0.74360    1.000
    C223     C        0.59670    0.82320    0.71258    1.000
    C224     C        0.65420    0.82340    0.66080    1.000
    C225     C        0.87810    0.75000    0.75060    1.000
    C226     C        0.75150    0.75000    0.85000    1.000
    C227     C        0.68190    0.75000    0.90290    1.000
    C228     C        0.37810    0.25000    0.74940    1.000
    C229     C        0.25150    0.25000    0.65000    1.000
    C230     C        0.18190    0.25000    0.59710    1.000
    C231     C        0.12190    0.25000    0.24940    1.000
    C232     C        0.24850    0.25000    0.15000    1.000
    C233     C        0.31810    0.25000    0.09710    1.000
    C234     C        0.62190    0.75000    0.25060    1.000
    C235     C        0.74850    0.75000    0.35000    1.000
    C236     C        0.81810    0.75000    0.40290    1.000
    C237     C        0.18200    0.25000    0.86570    1.000
    C238     C        0.24410    0.25000    0.92390    1.000
    C239     C        0.06710    0.25000    0.76260    1.000
    C240     C        0.68200    0.75000    0.63430    1.000
    C241     C        0.74410    0.75000    0.57610    1.000
    C242     C        0.56710    0.75000    0.73740    1.000
    C243     C        0.81800    0.75000    0.13430    1.000
    C244     C        0.75590    0.75000    0.07610    1.000
    C245     C        0.93290    0.75000    0.23740    1.000
    C246     C        0.31800    0.25000    0.36570    1.000
    C247     C        0.25590    0.25000    0.42390    1.000
    C248     C        0.43290    0.25000    0.26260    1.000
    O249     O        0.08230    0.51450    0.61041    1.000
    O250     O        0.20060    0.55730    0.67012    1.000
    O251     O        0.11690    0.52580    0.39226    1.000
    O252     O        0.25800    0.55250    0.34946    1.000
    O253     O        0.95000    0.59998    0.71173    1.000
    O254     O        0.82800    0.53370    0.75437    1.000
    O255     O        0.00410    0.40010    0.71678    1.000
    O256     O        0.11470    0.46660    0.76944    1.000
    O257     O        0.58230    0.48550    0.88959    1.000
    O258     O        0.70060    0.44270    0.82988    1.000
    O259     O        0.61690    0.47420    0.10774    1.000
    O260     O        0.75800    0.44750    0.15054    1.000
    O261     O        0.45000    0.40002    0.78827    1.000
    O262     O        0.32800    0.46630    0.74563    1.000
    O263     O        0.50410    0.59990    0.78322    1.000
    O264     O        0.61470    0.53340    0.73056    1.000
    O265     O        0.91770    0.01450    0.38959    1.000
    O266     O        0.79940    0.05730    0.32988    1.000
    O267     O        0.88310    0.02580    0.60774    1.000
    O268     O        0.74200    0.05250    0.65054    1.000
    O269     O        0.05000    0.09998    0.28827    1.000
    O270     O        0.17200    0.03370    0.24563    1.000
    O271     O        0.99590    0.90010    0.28322    1.000
    O272     O        0.88530    0.96660    0.23056    1.000
    O273     O        0.41770    0.98550    0.11041    1.000
    O274     O        0.29940    0.94270    0.17012    1.000
    O275     O        0.38310    0.97420    0.89226    1.000
    O276     O        0.24200    0.94750    0.84946    1.000
    O277     O        0.55000    0.90002    0.21173    1.000
    O278     O        0.67200    0.96630    0.25437    1.000
    O279     O        0.49590    0.09990    0.21678    1.000
    O280     O        0.38530    0.03340    0.26944    1.000
    O281     O        0.91770    0.48550    0.38959    1.000
    O282     O        0.79940    0.44270    0.32988    1.000
    O283     O        0.88310    0.47420    0.60774    1.000
    O284     O        0.74200    0.44750    0.65054    1.000
    O285     O        0.05000    0.40002    0.28827    1.000
    O286     O        0.17200    0.46630    0.24563    1.000
    O287     O        0.99590    0.59990    0.28322    1.000
    O288     O        0.88530    0.53340    0.23056    1.000
    O289     O        0.41770    0.51450    0.11041    1.000
    O290     O        0.29940    0.55730    0.17012    1.000
    O291     O        0.38310    0.52580    0.89226    1.000
    O292     O        0.24200    0.55250    0.84946    1.000
    O293     O        0.55000    0.59998    0.21173    1.000
    O294     O        0.67200    0.53370    0.25437    1.000
    O295     O        0.49590    0.40010    0.21678    1.000
    O296     O        0.38530    0.46660    0.26944    1.000
    O297     O        0.08230    0.98550    0.61041    1.000
    O298     O        0.20060    0.94270    0.67012    1.000
    O299     O        0.11690    0.97420    0.39226    1.000
    O300     O        0.25800    0.94750    0.34946    1.000
    O301     O        0.95000    0.90002    0.71173    1.000
    O302     O        0.82800    0.96630    0.75437    1.000
    O303     O        0.00410    0.09990    0.71678    1.000
    O304     O        0.11470    0.03340    0.76944    1.000
    O305     O        0.58230    0.01450    0.88959    1.000
    O306     O        0.70060    0.05730    0.82988    1.000
    O307     O        0.61690    0.02580    0.10774    1.000
    O308     O        0.75800    0.05250    0.15054    1.000
    O309     O        0.45000    0.09998    0.78827    1.000
    O310     O        0.32800    0.03370    0.74563    1.000
    O311     O        0.50410    0.90010    0.78322    1.000
    O312     O        0.61470    0.96660    0.73056    1.000
    H313     H        0.71513    0.78541    0.94242    1.000
    H314     H        0.11363    0.28541    0.60998    1.000
    H315     H        0.38637    0.28541    0.10998    1.000
    H316     H        0.78487    0.78541    0.44242    1.000
    H317     H        0.20277    0.28205    0.96196    1.000
    H318     H        0.81605    0.78205    0.58546    1.000
    H319     H        0.68395    0.78205    0.08546    1.000
    H320     H        0.29723    0.28205    0.46196    1.000
