# CIF file generated by openbabel 3.1.0, see https://openbabel.org
data_I
_chemical_name_common 'MEXJAC_clean'
_cell_length_a 14.1341
_cell_length_b 14.1341
_cell_length_c 14.1341
_cell_angle_alpha 90
_cell_angle_beta 90
_cell_angle_gamma 90
_space_group_name_H-M_alt 'P 1'
_space_group_name_Hall 'P 1'
loop_
    _symmetry_equiv_pos_as_xyz
    x,y,z
loop_
    _atom_site_label
    _atom_site_type_symbol
    _atom_site_fract_x
    _atom_site_fract_y
    _atom_site_fract_z
    _atom_site_occupancy
    Sm1      Sm       0.00049    0.99951    0.49951    1.000
    Sm2      Sm       0.49951    0.00049    0.99951    1.000
    Sm3      Sm       0.99951    0.49951    0.00049    1.000
    Sm4      Sm       0.50049    0.50049    0.50049    1.000
    C1       C        0.09010    0.16400    0.57320    1.000
    C2       C        0.12900    0.25360    0.62040    1.000
    C3       C        0.08490    0.29140    0.70040    1.000
    C4       C        0.40990    0.83600    0.07320    1.000
    C5       C        0.37100    0.74640    0.12040    1.000
    C6       C        0.41510    0.70860    0.20040    1.000
    C7       C        0.90990    0.66400    0.92680    1.000
    C8       C        0.87100    0.75360    0.87960    1.000
    C9       C        0.91510    0.79140    0.79960    1.000
    C10      C        0.59010    0.33600    0.42680    1.000
    C11      C        0.62900    0.24640    0.37960    1.000
    C12      C        0.58490    0.20860    0.29960    1.000
    C13      C        0.57320    0.09010    0.16400    1.000
    C14      C        0.62040    0.12900    0.25360    1.000
    C15      C        0.70040    0.08490    0.29140    1.000
    C16      C        0.07320    0.40990    0.83600    1.000
    C17      C        0.12040    0.37100    0.74640    1.000
    C18      C        0.20040    0.41510    0.70860    1.000
    C19      C        0.92680    0.90990    0.66400    1.000
    C20      C        0.87960    0.87100    0.75360    1.000
    C21      C        0.79960    0.91510    0.79140    1.000
    C22      C        0.42680    0.59010    0.33600    1.000
    C23      C        0.37960    0.62900    0.24640    1.000
    C24      C        0.29960    0.58490    0.20860    1.000
    C25      C        0.16400    0.57320    0.09010    1.000
    C26      C        0.25360    0.62040    0.12900    1.000
    C27      C        0.29140    0.70040    0.08490    1.000
    C28      C        0.83600    0.07320    0.40990    1.000
    C29      C        0.74640    0.12040    0.37100    1.000
    C30      C        0.70860    0.20040    0.41510    1.000
    C31      C        0.66400    0.92680    0.90990    1.000
    C32      C        0.75360    0.87960    0.87100    1.000
    C33      C        0.79140    0.79960    0.91510    1.000
    C34      C        0.33600    0.42680    0.59010    1.000
    C35      C        0.24640    0.37960    0.62900    1.000
    C36      C        0.20860    0.29960    0.58490    1.000
    I1       I        0.96194    0.22509    0.75131    1.000
    I2       I        0.53806    0.77491    0.25131    1.000
    I3       I        0.03806    0.72509    0.74869    1.000
    I4       I        0.46194    0.27491    0.24869    1.000
    I5       I        0.75131    0.96194    0.22509    1.000
    I6       I        0.25131    0.53806    0.77491    1.000
    I7       I        0.74869    0.03806    0.72509    1.000
    I8       I        0.24869    0.46194    0.27491    1.000
    I9       I        0.22509    0.75131    0.96194    1.000
    I10      I        0.77491    0.25131    0.53806    1.000
    I11      I        0.72509    0.74869    0.03806    1.000
    I12      I        0.27491    0.24869    0.46194    1.000
    O1       O        0.01630    0.17185    0.52560    1.000
    O2       O        0.13260    0.08834    0.58610    1.000
    O3       O        0.48370    0.82815    0.02560    1.000
    O4       O        0.36740    0.91166    0.08610    1.000
    O5       O        0.98370    0.67185    0.97440    1.000
    O6       O        0.86740    0.58834    0.91390    1.000
    O7       O        0.51630    0.32815    0.47440    1.000
    O8       O        0.63260    0.41166    0.41390    1.000
    O9       O        0.52560    0.01630    0.17185    1.000
    O10      O        0.58610    0.13260    0.08834    1.000
    O11      O        0.02560    0.48370    0.82815    1.000
    O12      O        0.08610    0.36740    0.91166    1.000
    O13      O        0.97440    0.98370    0.67185    1.000
    O14      O        0.91390    0.86740    0.58834    1.000
    O15      O        0.47440    0.51630    0.32815    1.000
    O16      O        0.41390    0.63260    0.41166    1.000
    O17      O        0.17185    0.52560    0.01630    1.000
    O18      O        0.08834    0.58610    0.13260    1.000
    O19      O        0.82815    0.02560    0.48370    1.000
    O20      O        0.91166    0.08610    0.36740    1.000
    O21      O        0.67185    0.97440    0.98370    1.000
    O22      O        0.58834    0.91390    0.86740    1.000
    O23      O        0.32815    0.47440    0.51630    1.000
    O24      O        0.41166    0.41390    0.63260    1.000
