# CIF file generated by openbabel 3.1.0, see https://openbabel.org
data_I
_chemical_name_common 'image0'
_cell_length_a 34.533
_cell_length_b 34.533
_cell_length_c 8.473
_cell_angle_alpha 90
_cell_angle_beta 90
_cell_angle_gamma 120
_space_group_name_H-M_alt 'P 1'
_space_group_name_Hall 'P 1'
loop_
    _symmetry_equiv_pos_as_xyz
    x,y,z
loop_
    _atom_site_label
    _atom_site_type_symbol
    _atom_site_fract_x
    _atom_site_fract_y
    _atom_site_fract_z
    _atom_site_occupancy
    Ag1      Ag       0.14518    0.31774    0.50581    1.000
    O1       O        0.33328    0.32880    0.75160    1.000
    N1       N        0.20470    0.33780    0.65470    1.000
    N2       N        0.27650    0.19750    0.60360    1.000
    C1       C        0.21810    0.37280    0.75080    1.000
    H1       H        0.20150    0.38740    0.75420    1.000
    C2       C        0.25550    0.38840    0.84560    1.000
    H2       H        0.26380    0.41280    0.91180    1.000
    C3       C        0.28000    0.36750    0.84080    1.000
    H3       H        0.30570    0.37790    0.90160    1.000
    C4       C        0.26600    0.33010    0.74380    1.000
    C5       C        0.22800    0.31710    0.65280    1.000
    H4       H        0.21840    0.29240    0.58710    1.000
    C6       C        0.29280    0.30740    0.73440    1.000
    C7       C        0.27050    0.25850    0.70860    1.000
    C8       C        0.22840    0.22880    0.77440    1.000
    H5       H        0.21250    0.23920    0.83170    1.000
    C9       C        0.21180    0.18400    0.75080    1.000
    H6       H        0.18400    0.16330    0.79160    1.000
    C10      C        0.23650    0.16940    0.66620    1.000
    H7       H        0.22470    0.13890    0.65210    1.000
    C11      C        0.29330    0.24120    0.62860    1.000
    H8       H        0.32170    0.26090    0.59020    1.000
    Ag2      Ag       0.68226    0.82744    0.50581    1.000
    O2       O        0.67120    0.00448    0.75160    1.000
    N3       N        0.66220    0.86690    0.65470    1.000
    N4       N        0.80250    0.07900    0.60360    1.000
    C12      C        0.62720    0.84530    0.75080    1.000
    H9       H        0.61260    0.81410    0.75420    1.000
    C13      C        0.61160    0.86710    0.84560    1.000
    H10      H        0.58720    0.85100    0.91180    1.000
    C14      C        0.63250    0.91250    0.84080    1.000
    H11      H        0.62210    0.92780    0.90160    1.000
    C15      C        0.66990    0.93590    0.74380    1.000
    C16      C        0.68290    0.91090    0.65280    1.000
    H12      H        0.70760    0.92600    0.58710    1.000
    C17      C        0.69260    0.98540    0.73440    1.000
    C18      C        0.74150    0.01200    0.70860    1.000
    C19      C        0.77120    0.99960    0.77440    1.000
    H13      H        0.76080    0.97330    0.83170    1.000
    C20      C        0.81600    0.02780    0.75080    1.000
    H14      H        0.83670    0.02070    0.79160    1.000
    C21      C        0.83060    0.06710    0.66620    1.000
    H15      H        0.86110    0.08580    0.65210    1.000
    C22      C        0.75880    0.05210    0.62860    1.000
    H16      H        0.73910    0.06080    0.59020    1.000
    Ag3      Ag       0.17256    0.85482    0.50581    1.000
    O3       O        0.99552    0.66672    0.75160    1.000
    N5       N        0.13310    0.79530    0.65470    1.000
    N6       N        0.92100    0.72350    0.60360    1.000
    C23      C        0.15470    0.78190    0.75080    1.000
    H17      H        0.18590    0.79850    0.75420    1.000
    C24      C        0.13290    0.74450    0.84560    1.000
    H18      H        0.14900    0.73620    0.91180    1.000
    C25      C        0.08750    0.72000    0.84080    1.000
    H19      H        0.07220    0.69430    0.90160    1.000
    C26      C        0.06410    0.73400    0.74380    1.000
    C27      C        0.08910    0.77200    0.65280    1.000
    H20      H        0.07400    0.78160    0.58710    1.000
    C28      C        0.01460    0.70720    0.73440    1.000
    C29      C        0.98800    0.72950    0.70860    1.000
    C30      C        0.00040    0.77160    0.77440    1.000
    H21      H        0.02670    0.78750    0.83170    1.000
    C31      C        0.97220    0.78820    0.75080    1.000
    H22      H        0.97930    0.81600    0.79160    1.000
    C32      C        0.93290    0.76350    0.66620    1.000
    H23      H        0.91420    0.77530    0.65210    1.000
    C33      C        0.94790    0.70670    0.62860    1.000
    H24      H        0.93920    0.67830    0.59020    1.000
    Ag4      Ag       0.85482    0.68226    0.49419    1.000
    O4       O        0.66672    0.67120    0.24840    1.000
    N7       N        0.79530    0.66220    0.34530    1.000
    N8       N        0.72350    0.80250    0.39640    1.000
    C34      C        0.78190    0.62720    0.24920    1.000
    H25      H        0.79850    0.61260    0.24580    1.000
    C35      C        0.74450    0.61160    0.15440    1.000
    H26      H        0.73620    0.58720    0.08820    1.000
    C36      C        0.72000    0.63250    0.15920    1.000
    H27      H        0.69430    0.62210    0.09840    1.000
    C37      C        0.73400    0.66990    0.25620    1.000
    C38      C        0.77200    0.68290    0.34720    1.000
    H28      H        0.78160    0.70760    0.41290    1.000
    C39      C        0.70720    0.69260    0.26560    1.000
    C40      C        0.72950    0.74150    0.29140    1.000
    C41      C        0.77160    0.77120    0.22560    1.000
    H29      H        0.78750    0.76080    0.16830    1.000
    C42      C        0.78820    0.81600    0.24920    1.000
    H30      H        0.81600    0.83670    0.20840    1.000
    C43      C        0.76350    0.83060    0.33380    1.000
    H31      H        0.77530    0.86110    0.34790    1.000
    C44      C        0.70670    0.75880    0.37140    1.000
    H32      H        0.67830    0.73910    0.40980    1.000
    Ag5      Ag       0.31774    0.17256    0.49419    1.000
    O5       O        0.32880    0.99552    0.24840    1.000
    N9       N        0.33780    0.13310    0.34530    1.000
    N10      N        0.19750    0.92100    0.39640    1.000
    C45      C        0.37280    0.15470    0.24920    1.000
    H33      H        0.38740    0.18590    0.24580    1.000
    C46      C        0.38840    0.13290    0.15440    1.000
    H34      H        0.41280    0.14900    0.08820    1.000
    C47      C        0.36750    0.08750    0.15920    1.000
    H35      H        0.37790    0.07220    0.09840    1.000
    C48      C        0.33010    0.06410    0.25620    1.000
    C49      C        0.31710    0.08910    0.34720    1.000
    H36      H        0.29240    0.07400    0.41290    1.000
    C50      C        0.30740    0.01460    0.26560    1.000
    C51      C        0.25850    0.98800    0.29140    1.000
    C52      C        0.22880    0.00040    0.22560    1.000
    H37      H        0.23920    0.02670    0.16830    1.000
    C53      C        0.18400    0.97220    0.24920    1.000
    H38      H        0.16330    0.97930    0.20840    1.000
    C54      C        0.16940    0.93290    0.33380    1.000
    H39      H        0.13890    0.91420    0.34790    1.000
    C55      C        0.24120    0.94790    0.37140    1.000
    H40      H        0.26090    0.93920    0.40980    1.000
    Ag6      Ag       0.82744    0.14518    0.49419    1.000
    O6       O        0.00448    0.33328    0.24840    1.000
    N11      N        0.86690    0.20470    0.34530    1.000
    N12      N        0.07900    0.27650    0.39640    1.000
    C56      C        0.84530    0.21810    0.24920    1.000
    H41      H        0.81410    0.20150    0.24580    1.000
    C57      C        0.86710    0.25550    0.15440    1.000
    H42      H        0.85100    0.26380    0.08820    1.000
    C58      C        0.91250    0.28000    0.15920    1.000
    H43      H        0.92780    0.30570    0.09840    1.000
    C59      C        0.93590    0.26600    0.25620    1.000
    C60      C        0.91090    0.22800    0.34720    1.000
    H44      H        0.92600    0.21840    0.41290    1.000
    C61      C        0.98540    0.29280    0.26560    1.000
    C62      C        0.01200    0.27050    0.29140    1.000
    C63      C        0.99960    0.22840    0.22560    1.000
    H45      H        0.97330    0.21250    0.16830    1.000
    C64      C        0.02780    0.21180    0.24920    1.000
    H46      H        0.02070    0.18400    0.20840    1.000
    C65      C        0.06710    0.23650    0.33380    1.000
    H47      H        0.08580    0.22470    0.34790    1.000
    C66      C        0.05210    0.29330    0.37140    1.000
    H48      H        0.06080    0.32170    0.40980    1.000
    Ag7      Ag       0.81185    0.65107    0.83914    1.000
    O7       O        0.99995    0.66213    0.08493    1.000
    N13      N        0.87137    0.67113    0.98803    1.000
    N14      N        0.94317    0.53083    0.93693    1.000
    C67      C        0.88477    0.70613    0.08413    1.000
    H49      H        0.86817    0.72073    0.08753    1.000
    C68      C        0.92217    0.72173    0.17893    1.000
    H50      H        0.93047    0.74613    0.24513    1.000
    C69      C        0.94667    0.70083    0.17413    1.000
    H51      H        0.97237    0.71123    0.23493    1.000
    C70      C        0.93267    0.66343    0.07713    1.000
    C71      C        0.89467    0.65043    0.98613    1.000
    H52      H        0.88507    0.62573    0.92043    1.000
    C72      C        0.95947    0.64073    0.06773    1.000
    C73      C        0.93717    0.59183    0.04193    1.000
    C74      C        0.89507    0.56213    0.10773    1.000
    H53      H        0.87917    0.57253    0.16503    1.000
    C75      C        0.87847    0.51733    0.08413    1.000
    H54      H        0.85067    0.49663    0.12493    1.000
    C76      C        0.90317    0.50273    0.99953    1.000
    H55      H        0.89137    0.47223    0.98543    1.000
    C77      C        0.95997    0.57453    0.96193    1.000
    H56      H        0.98837    0.59423    0.92353    1.000
    Ag8      Ag       0.34893    0.16077    0.83914    1.000
    O8       O        0.33787    0.33781    0.08493    1.000
    N15      N        0.32887    0.20023    0.98803    1.000
    N16      N        0.46917    0.41233    0.93693    1.000
    C78      C        0.29387    0.17863    0.08413    1.000
    H57      H        0.27927    0.14743    0.08753    1.000
    C79      C        0.27827    0.20043    0.17893    1.000
    H58      H        0.25387    0.18433    0.24513    1.000
    C80      C        0.29917    0.24583    0.17413    1.000
    H59      H        0.28877    0.26113    0.23493    1.000
    C81      C        0.33657    0.26923    0.07713    1.000
    C82      C        0.34957    0.24423    0.98613    1.000
    H60      H        0.37427    0.25933    0.92043    1.000
    C83      C        0.35927    0.31873    0.06773    1.000
    C84      C        0.40817    0.34533    0.04193    1.000
    C85      C        0.43787    0.33293    0.10773    1.000
    H61      H        0.42747    0.30663    0.16503    1.000
    C86      C        0.48267    0.36113    0.08413    1.000
    H62      H        0.50337    0.35403    0.12493    1.000
    C87      C        0.49727    0.40043    0.99953    1.000
    H63      H        0.52777    0.41913    0.98543    1.000
    C88      C        0.42547    0.38543    0.96193    1.000
    H64      H        0.40577    0.39413    0.92353    1.000
    Ag9      Ag       0.83923    0.18815    0.83914    1.000
    O9       O        0.66219    0.00005    0.08493    1.000
    N17      N        0.79977    0.12863    0.98803    1.000
    N18      N        0.58767    0.05683    0.93693    1.000
    C89      C        0.82137    0.11523    0.08413    1.000
    H65      H        0.85257    0.13183    0.08753    1.000
    C90      C        0.79957    0.07783    0.17893    1.000
    H66      H        0.81567    0.06953    0.24513    1.000
    C91      C        0.75417    0.05333    0.17413    1.000
    H67      H        0.73887    0.02763    0.23493    1.000
    C92      C        0.73077    0.06733    0.07713    1.000
    C93      C        0.75577    0.10533    0.98613    1.000
    H68      H        0.74067    0.11493    0.92043    1.000
    C94      C        0.68127    0.04053    0.06773    1.000
    C95      C        0.65467    0.06283    0.04193    1.000
    C96      C        0.66707    0.10493    0.10773    1.000
    H69      H        0.69337    0.12083    0.16503    1.000
    C97      C        0.63887    0.12153    0.08413    1.000
    H70      H        0.64597    0.14933    0.12493    1.000
    C98      C        0.59957    0.09683    0.99953    1.000
    H71      H        0.58087    0.10863    0.98543    1.000
    C99      C        0.61457    0.04003    0.96193    1.000
    H72      H        0.60587    0.01163    0.92353    1.000
    Ag10     Ag       0.52149    0.01559    0.82752    1.000
    O10      O        0.33339    0.00453    0.58173    1.000
    N19      N        0.46197    0.99553    0.67863    1.000
    N20      N        0.39017    0.13583    0.72973    1.000
    C100     C        0.44857    0.96053    0.58253    1.000
    H73      H        0.46517    0.94593    0.57913    1.000
    C101     C        0.41117    0.94493    0.48773    1.000
    H74      H        0.40287    0.92053    0.42153    1.000
    C102     C        0.38667    0.96583    0.49253    1.000
    H75      H        0.36097    0.95543    0.43173    1.000
    C103     C        0.40067    0.00323    0.58953    1.000
    C104     C        0.43867    0.01623    0.68053    1.000
    H76      H        0.44827    0.04093    0.74623    1.000
    C105     C        0.37387    0.02593    0.59893    1.000
    C106     C        0.39617    0.07483    0.62473    1.000
    C107     C        0.43827    0.10453    0.55893    1.000
    H77      H        0.45417    0.09413    0.50163    1.000
    C108     C        0.45487    0.14933    0.58253    1.000
    H78      H        0.48267    0.17003    0.54173    1.000
    C109     C        0.43017    0.16393    0.66713    1.000
    H79      H        0.44197    0.19443    0.68123    1.000
    C110     C        0.37337    0.09213    0.70473    1.000
    H80      H        0.34497    0.07243    0.74313    1.000
    Ag11     Ag       0.98441    0.50589    0.82752    1.000
    O11      O        0.99547    0.32885    0.58173    1.000
    N21      N        0.00447    0.46643    0.67863    1.000
    N22      N        0.86417    0.25433    0.72973    1.000
    C111     C        0.03947    0.48803    0.58253    1.000
    H81      H        0.05407    0.51923    0.57913    1.000
    C112     C        0.05507    0.46623    0.48773    1.000
    H82      H        0.07947    0.48233    0.42153    1.000
    C113     C        0.03417    0.42083    0.49253    1.000
    H83      H        0.04457    0.40553    0.43173    1.000
    C114     C        0.99677    0.39743    0.58953    1.000
    C115     C        0.98377    0.42243    0.68053    1.000
    H84      H        0.95907    0.40733    0.74623    1.000
    C116     C        0.97407    0.34793    0.59893    1.000
    C117     C        0.92517    0.32133    0.62473    1.000
    C118     C        0.89547    0.33373    0.55893    1.000
    H85      H        0.90587    0.36003    0.50163    1.000
    C119     C        0.85067    0.30553    0.58253    1.000
    H86      H        0.82997    0.31263    0.54173    1.000
    C120     C        0.83607    0.26623    0.66713    1.000
    H87      H        0.80557    0.24753    0.68123    1.000
    C121     C        0.90787    0.28123    0.70473    1.000
    H88      H        0.92757    0.27253    0.74313    1.000
    Ag12     Ag       0.49411    0.47851    0.82752    1.000
    O12      O        0.67115    0.66661    0.58173    1.000
    N23      N        0.53357    0.53803    0.67863    1.000
    N24      N        0.74567    0.60983    0.72973    1.000
    C122     C        0.51197    0.55143    0.58253    1.000
    H89      H        0.48077    0.53483    0.57913    1.000
    C123     C        0.53377    0.58883    0.48773    1.000
    H90      H        0.51767    0.59713    0.42153    1.000
    C124     C        0.57917    0.61333    0.49253    1.000
    H91      H        0.59447    0.63903    0.43173    1.000
    C125     C        0.60257    0.59933    0.58953    1.000
    C126     C        0.57757    0.56133    0.68053    1.000
    H92      H        0.59267    0.55173    0.74623    1.000
    C127     C        0.65207    0.62613    0.59893    1.000
    C128     C        0.67867    0.60383    0.62473    1.000
    C129     C        0.66627    0.56173    0.55893    1.000
    H93      H        0.63997    0.54583    0.50163    1.000
    C130     C        0.69447    0.54513    0.58253    1.000
    H94      H        0.68737    0.51733    0.54173    1.000
    C131     C        0.73377    0.56983    0.66713    1.000
    H95      H        0.75247    0.55803    0.68123    1.000
    C132     C        0.71877    0.62663    0.70473    1.000
    H96      H        0.72747    0.65503    0.74313    1.000
    Ag13     Ag       0.47851    0.98441    0.17248    1.000
    O13      O        0.66661    0.99547    0.41827    1.000
    N25      N        0.53803    0.00447    0.32137    1.000
    N26      N        0.60983    0.86417    0.27027    1.000
    C133     C        0.55143    0.03947    0.41747    1.000
    H97      H        0.53483    0.05407    0.42087    1.000
    C134     C        0.58883    0.05507    0.51227    1.000
    H98      H        0.59713    0.07947    0.57847    1.000
    C135     C        0.61333    0.03417    0.50747    1.000
    H99      H        0.63903    0.04457    0.56827    1.000
    C136     C        0.59933    0.99677    0.41047    1.000
    C137     C        0.56133    0.98377    0.31947    1.000
    H100     H        0.55173    0.95907    0.25377    1.000
    C138     C        0.62613    0.97407    0.40107    1.000
    C139     C        0.60383    0.92517    0.37527    1.000
    C140     C        0.56173    0.89547    0.44107    1.000
    H101     H        0.54583    0.90587    0.49837    1.000
    C141     C        0.54513    0.85067    0.41747    1.000
    H102     H        0.51733    0.82997    0.45827    1.000
    C142     C        0.56983    0.83607    0.33287    1.000
    H103     H        0.55803    0.80557    0.31877    1.000
    C143     C        0.62663    0.90787    0.29527    1.000
    H104     H        0.65503    0.92757    0.25687    1.000
    Ag14     Ag       0.01559    0.49411    0.17248    1.000
    O14      O        0.00453    0.67115    0.41827    1.000
    N27      N        0.99553    0.53357    0.32137    1.000
    N28      N        0.13583    0.74567    0.27027    1.000
    C144     C        0.96053    0.51197    0.41747    1.000
    H105     H        0.94593    0.48077    0.42087    1.000
    C145     C        0.94493    0.53377    0.51227    1.000
    H106     H        0.92053    0.51767    0.57847    1.000
    C146     C        0.96583    0.57917    0.50747    1.000
    H107     H        0.95543    0.59447    0.56827    1.000
    C147     C        0.00323    0.60257    0.41047    1.000
    C148     C        0.01623    0.57757    0.31947    1.000
    H108     H        0.04093    0.59267    0.25377    1.000
    C149     C        0.02593    0.65207    0.40107    1.000
    C150     C        0.07483    0.67867    0.37527    1.000
    C151     C        0.10453    0.66627    0.44107    1.000
    H109     H        0.09413    0.63997    0.49837    1.000
    C152     C        0.14933    0.69447    0.41747    1.000
    H110     H        0.17003    0.68737    0.45827    1.000
    C153     C        0.16393    0.73377    0.33287    1.000
    H111     H        0.19443    0.75247    0.31877    1.000
    C154     C        0.09213    0.71877    0.29527    1.000
    H112     H        0.07243    0.72747    0.25687    1.000
    Ag15     Ag       0.50589    0.52149    0.17248    1.000
    O15      O        0.32885    0.33339    0.41827    1.000
    N29      N        0.46643    0.46197    0.32137    1.000
    N30      N        0.25433    0.39017    0.27027    1.000
    C155     C        0.48803    0.44857    0.41747    1.000
    H113     H        0.51923    0.46517    0.42087    1.000
    C156     C        0.46623    0.41117    0.51227    1.000
    H114     H        0.48233    0.40287    0.57847    1.000
    C157     C        0.42083    0.38667    0.50747    1.000
    H115     H        0.40553    0.36097    0.56827    1.000
    C158     C        0.39743    0.40067    0.41047    1.000
    C159     C        0.42243    0.43867    0.31947    1.000
    H116     H        0.40733    0.44827    0.25377    1.000
    C160     C        0.34793    0.37387    0.40107    1.000
    C161     C        0.32133    0.39617    0.37527    1.000
    C162     C        0.33373    0.43827    0.44107    1.000
    H117     H        0.36003    0.45417    0.49837    1.000
    C163     C        0.30553    0.45487    0.41747    1.000
    H118     H        0.31263    0.48267    0.45827    1.000
    C164     C        0.26623    0.43017    0.33287    1.000
    H119     H        0.24753    0.44197    0.31877    1.000
    C165     C        0.28123    0.37337    0.29527    1.000
    H120     H        0.27253    0.34497    0.25687    1.000
    Ag16     Ag       0.18815    0.34893    0.16086    1.000
    O16      O        0.00005    0.33787    0.91507    1.000
    N31      N        0.12863    0.32887    0.01197    1.000
    N32      N        0.05683    0.46917    0.06307    1.000
    C166     C        0.11523    0.29387    0.91587    1.000
    H121     H        0.13183    0.27927    0.91247    1.000
    C167     C        0.07783    0.27827    0.82107    1.000
    H122     H        0.06953    0.25387    0.75487    1.000
    C168     C        0.05333    0.29917    0.82587    1.000
    H123     H        0.02763    0.28877    0.76507    1.000
    C169     C        0.06733    0.33657    0.92287    1.000
    C170     C        0.10533    0.34957    0.01387    1.000
    H124     H        0.11493    0.37427    0.07957    1.000
    C171     C        0.04053    0.35927    0.93227    1.000
    C172     C        0.06283    0.40817    0.95807    1.000
    C173     C        0.10493    0.43787    0.89227    1.000
    H125     H        0.12083    0.42747    0.83497    1.000
    C174     C        0.12153    0.48267    0.91587    1.000
    H126     H        0.14933    0.50337    0.87507    1.000
    C175     C        0.09683    0.49727    0.00047    1.000
    H127     H        0.10863    0.52777    0.01457    1.000
    C176     C        0.04003    0.42547    0.03807    1.000
    H128     H        0.01163    0.40577    0.07647    1.000
    Ag17     Ag       0.65107    0.83923    0.16086    1.000
    O17      O        0.66213    0.66219    0.91507    1.000
    N33      N        0.67113    0.79977    0.01197    1.000
    N34      N        0.53083    0.58767    0.06307    1.000
    C177     C        0.70613    0.82137    0.91587    1.000
    H129     H        0.72073    0.85257    0.91247    1.000
    C178     C        0.72173    0.79957    0.82107    1.000
    H130     H        0.74613    0.81567    0.75487    1.000
    C179     C        0.70083    0.75417    0.82587    1.000
    H131     H        0.71123    0.73887    0.76507    1.000
    C180     C        0.66343    0.73077    0.92287    1.000
    C181     C        0.65043    0.75577    0.01387    1.000
    H132     H        0.62573    0.74067    0.07957    1.000
    C182     C        0.64073    0.68127    0.93227    1.000
    C183     C        0.59183    0.65467    0.95807    1.000
    C184     C        0.56213    0.66707    0.89227    1.000
    H133     H        0.57253    0.69337    0.83497    1.000
    C185     C        0.51733    0.63887    0.91587    1.000
    H134     H        0.49663    0.64597    0.87507    1.000
    C186     C        0.50273    0.59957    0.00047    1.000
    H135     H        0.47223    0.58087    0.01457    1.000
    C187     C        0.57453    0.61457    0.03807    1.000
    H136     H        0.59423    0.60587    0.07647    1.000
    Ag18     Ag       0.16077    0.81185    0.16086    1.000
    O18      O        0.33781    0.99995    0.91507    1.000
    N35      N        0.20023    0.87137    0.01197    1.000
    N36      N        0.41233    0.94317    0.06307    1.000
    C188     C        0.17863    0.88477    0.91587    1.000
    H137     H        0.14743    0.86817    0.91247    1.000
    C189     C        0.20043    0.92217    0.82107    1.000
    H138     H        0.18433    0.93047    0.75487    1.000
    C190     C        0.24583    0.94667    0.82587    1.000
    H139     H        0.26113    0.97237    0.76507    1.000
    C191     C        0.26923    0.93267    0.92287    1.000
    C192     C        0.24423    0.89467    0.01387    1.000
    H140     H        0.25933    0.88507    0.07957    1.000
    C193     C        0.31873    0.95947    0.93227    1.000
    C194     C        0.34533    0.93717    0.95807    1.000
    C195     C        0.33293    0.89507    0.89227    1.000
    H141     H        0.30663    0.87917    0.83497    1.000
    C196     C        0.36113    0.87847    0.91587    1.000
    H142     H        0.35403    0.85067    0.87507    1.000
    C197     C        0.40043    0.90317    0.00047    1.000
    H143     H        0.41913    0.89137    0.01457    1.000
    C198     C        0.38543    0.95997    0.03807    1.000
    H144     H        0.39413    0.98837    0.07647    1.000
