# CIF file generated by openbabel 3.1.0, see https://openbabel.org
data_I
_chemical_name_common 'image0'
_cell_length_a 12.4736
_cell_length_b 12.4736
_cell_length_c 70.2884
_cell_angle_alpha 90
_cell_angle_beta 90
_cell_angle_gamma 90
_space_group_name_H-M_alt 'P 1'
_space_group_name_Hall 'P 1'
loop_
    _symmetry_equiv_pos_as_xyz
    x,y,z
loop_
    _atom_site_label
    _atom_site_type_symbol
    _atom_site_fract_x
    _atom_site_fract_y
    _atom_site_fract_z
    _atom_site_occupancy
    Cu1      Cu       0.31190    0.42238    0.11676    1.000
    Cu2      Cu       0.38252    0.36155    0.08271    1.000
    Cu3      Cu       0.96480    0.33602    0.99928    1.000
    Cu4      Cu       0.76736    0.38250    0.00471    1.000
    O1       O        0.22790    0.33710    0.07828    1.000
    O2       O        0.39800    0.22180    0.09453    1.000
    O3       O        0.30140    0.56070    0.10222    1.000
    O4       O        0.45390    0.46490    0.12404    1.000
    O5       O        0.17090    0.37980    0.10762    1.000
    O6       O        0.34950    0.27400    0.12381    1.000
    O7       O        0.36360    0.50690    0.07366    1.000
    O8       O        0.25530    0.99300    0.10818    1.000
    O9       O        0.51770    0.41160    0.09542    1.000
    C1       C        0.33410    0.57860    0.08577    1.000
    C2       C        0.15530    0.35480    0.09082    1.000
    C3       C        0.33800    0.77360    0.09248    1.000
    H1       H        0.32780    0.75780    0.10530    1.000
    N1       N        0.43470    0.01680    0.10603    1.000
    C4       C        0.95900    0.36870    0.09702    1.000
    H2       H        0.97410    0.37400    0.10990    1.000
    C5       C        0.89290    0.34910    0.03759    1.000
    C6       C        0.35070    0.88050    0.08661    1.000
    C7       C        0.36180    0.84490    0.03296    1.000
    C8       C        0.34420    0.96780    0.10121    1.000
    C9       C        0.35780    0.90490    0.06719    1.000
    H3       H        0.36370    0.97550    0.06310    1.000
    C10      C        0.34060    0.69210    0.07925    1.000
    C11      C        0.52570    0.45840    0.11158    1.000
    C12      C        0.85300    0.37820    0.09055    1.000
    O10      O        0.79930    0.36600    0.03210    1.000
    O11      O        0.96830    0.33000    0.02682    1.000
    C13      C        0.04080    0.35150    0.08415    1.000
    C14      C        0.02050    0.34100    0.06456    1.000
    H4       H        0.07600    0.32880    0.05600    1.000
    N2       N        0.71490    0.49360    0.10259    1.000
    C15      C        0.38830    0.20860    0.11191    1.000
    C16      C        0.76490    0.40440    0.10501    1.000
    C17      C        0.34980    0.71540    0.06006    1.000
    H5       H        0.35180    0.66040    0.05120    1.000
    O12      O        0.75000    0.34260    0.11838    1.000
    O13      O        0.75520    0.21730    0.00502    1.000
    O14      O        0.37790    0.76640    0.02259    1.000
    C18      C        0.91580    0.34940    0.05848    1.000
    O15      O        0.35390    0.93920    0.02813    1.000
    C19      C        0.83170    0.36900    0.07138    1.000
    H6       H        0.76170    0.37580    0.06700    1.000
    C20      C        0.62590    0.52100    0.11589    1.000
    H7       H        0.64810    0.51020    0.12910    1.000
    C21      C        0.35580    0.82090    0.05423    1.000
    O16      O        0.93990    0.18540    0.99802    1.000
    C22      C        0.55290    0.12280    0.12463    1.000
    H8       H        0.56660    0.19720    0.12780    1.000
    H9       H        0.57700    0.07750    0.13500    1.000
    C23      C        0.43270    0.10390    0.12017    1.000
    H10      H        0.39320    0.08250    0.13160    1.000
    C24      C        0.54200    0.99810    0.09851    1.000
    H11      H        0.54100    0.99620    0.08470    1.000
    H12      H        0.57080    0.93090    0.10320    1.000
    O17      O        0.49930    0.96420    0.99877    1.000
    C25      C        0.73230    0.57870    0.08831    1.000
    H13      H        0.72560    0.55190    0.07540    1.000
    H14      H        0.80130    0.61350    0.08990    1.000
    C26      C        0.60800    0.09130    0.10554    1.000
    H15      H        0.68190    0.07020    0.10760    1.000
    H16      H        0.60620    0.15030    0.09660    1.000
    C27      C        0.70480    0.00670    0.99900    1.000
    C28      C        0.60840    0.64050    0.11170    1.000
    H17      H        0.53400    0.65970    0.11380    1.000
    H18      H        0.65280    0.68400    0.12000    1.000
    C29      C        0.68290    0.91560    0.99850    1.000
    C30      C        0.63490    0.65580    0.09401    1.000
    H19      H        0.65580    0.73000    0.09220    1.000
    H20      H        0.57380    0.64120    0.08590    1.000
    C31      C        0.54430    0.89150    0.99630    1.000
    C32      C        0.81790    0.04310    0.99960    1.000
    C33      C        0.84200    0.16410    0.00149    1.000
    O18      O        0.53160    0.78720    0.99487    1.000
    C34      C        0.88710    0.95760    0.99882    1.000
    C35      C        0.76180    0.83440    0.99626    1.000
    Cu5      Cu       0.68810    0.57762    0.61676    1.000
    Cu6      Cu       0.61748    0.63845    0.58271    1.000
    Cu7      Cu       0.03520    0.66398    0.49928    1.000
    Cu8      Cu       0.23264    0.61750    0.50471    1.000
    O19      O        0.77210    0.66290    0.57828    1.000
    O20      O        0.60200    0.77820    0.59453    1.000
    O21      O        0.69860    0.43930    0.60222    1.000
    O22      O        0.54610    0.53510    0.62404    1.000
    O23      O        0.82910    0.62020    0.60762    1.000
    O24      O        0.65050    0.72600    0.62381    1.000
    O25      O        0.63640    0.49310    0.57366    1.000
    O26      O        0.74470    0.00700    0.60818    1.000
    O27      O        0.48230    0.58840    0.59542    1.000
    C36      C        0.66590    0.42140    0.58577    1.000
    C37      C        0.84470    0.64520    0.59082    1.000
    C38      C        0.66200    0.22640    0.59248    1.000
    H21      H        0.67220    0.24220    0.60530    1.000
    N3       N        0.56530    0.98320    0.60603    1.000
    C39      C        0.04100    0.63130    0.59702    1.000
    H22      H        0.02590    0.62600    0.60990    1.000
    C40      C        0.10710    0.65090    0.53759    1.000
    C41      C        0.64930    0.11950    0.58661    1.000
    C42      C        0.63820    0.15510    0.53296    1.000
    C43      C        0.65580    0.03220    0.60121    1.000
    C44      C        0.64220    0.09510    0.56719    1.000
    H23      H        0.63630    0.02450    0.56310    1.000
    C45      C        0.65940    0.30790    0.57925    1.000
    C46      C        0.47430    0.54160    0.61158    1.000
    C47      C        0.14700    0.62180    0.59055    1.000
    O28      O        0.20070    0.63400    0.53210    1.000
    O29      O        0.03170    0.67000    0.52682    1.000
    C48      C        0.95920    0.64850    0.58415    1.000
    C49      C        0.97950    0.65900    0.56456    1.000
    H24      H        0.92400    0.67120    0.55600    1.000
    N4       N        0.28510    0.50640    0.60259    1.000
    C50      C        0.61170    0.79140    0.61191    1.000
    C51      C        0.23510    0.59560    0.60501    1.000
    C52      C        0.65020    0.28460    0.56006    1.000
    H25      H        0.64820    0.33960    0.55120    1.000
    O30      O        0.25000    0.65740    0.61838    1.000
    O31      O        0.24480    0.78270    0.50502    1.000
    O32      O        0.62210    0.23360    0.52259    1.000
    C53      C        0.08420    0.65060    0.55848    1.000
    O33      O        0.64610    0.06080    0.52813    1.000
    C54      C        0.16830    0.63100    0.57138    1.000
    H26      H        0.23830    0.62420    0.56700    1.000
    C55      C        0.37410    0.47900    0.61589    1.000
    H27      H        0.35190    0.48980    0.62910    1.000
    C56      C        0.64420    0.17910    0.55423    1.000
    O34      O        0.06010    0.81460    0.49802    1.000
    C57      C        0.44710    0.87720    0.62463    1.000
    H28      H        0.43340    0.80280    0.62780    1.000
    H29      H        0.42300    0.92250    0.63500    1.000
    C58      C        0.56730    0.89610    0.62017    1.000
    H30      H        0.60680    0.91750    0.63160    1.000
    C59      C        0.45800    0.00190    0.59851    1.000
    H31      H        0.45900    0.00380    0.58470    1.000
    H32      H        0.42920    0.06910    0.60320    1.000
    O35      O        0.50070    0.03580    0.49877    1.000
    C60      C        0.26770    0.42130    0.58831    1.000
    H33      H        0.27440    0.44810    0.57540    1.000
    H34      H        0.19870    0.38650    0.58990    1.000
    C61      C        0.39200    0.90870    0.60554    1.000
    H35      H        0.31810    0.92980    0.60760    1.000
    H36      H        0.39380    0.84970    0.59660    1.000
    C62      C        0.29520    0.99330    0.49900    1.000
    C63      C        0.39160    0.35950    0.61170    1.000
    H37      H        0.46600    0.34030    0.61380    1.000
    H38      H        0.34720    0.31600    0.62000    1.000
    C64      C        0.31710    0.08440    0.49850    1.000
    C65      C        0.36510    0.34420    0.59401    1.000
    H39      H        0.34420    0.27000    0.59220    1.000
    H40      H        0.42620    0.35880    0.58590    1.000
    C66      C        0.45570    0.10850    0.49630    1.000
    C67      C        0.18210    0.95690    0.49960    1.000
    C68      C        0.15800    0.83590    0.50149    1.000
    O36      O        0.46840    0.21280    0.49487    1.000
    C69      C        0.11290    0.04240    0.49882    1.000
    C70      C        0.23820    0.16560    0.49626    1.000
    Cu9      Cu       0.07762    0.81190    0.36676    1.000
    Cu10     Cu       0.13845    0.88252    0.33271    1.000
    Cu11     Cu       0.16398    0.46480    0.24928    1.000
    Cu12     Cu       0.11750    0.26736    0.25471    1.000
    O37      O        0.16290    0.72790    0.32828    1.000
    O38      O        0.27820    0.89800    0.34453    1.000
    O39      O        0.93930    0.80140    0.35222    1.000
    O40      O        0.03510    0.95390    0.37404    1.000
    O41      O        0.12020    0.67090    0.35762    1.000
    O42      O        0.22600    0.84950    0.37381    1.000
    O43      O        0.99310    0.86360    0.32366    1.000
    O44      O        0.50700    0.75530    0.35818    1.000
    O45      O        0.08840    0.01770    0.34542    1.000
    C71      C        0.92140    0.83410    0.33577    1.000
    C72      C        0.14520    0.65530    0.34082    1.000
    C73      C        0.72640    0.83800    0.34248    1.000
    H41      H        0.74220    0.82780    0.35530    1.000
    N5       N        0.48320    0.93470    0.35603    1.000
    C74      C        0.13130    0.45900    0.34702    1.000
    H42      H        0.12600    0.47410    0.35990    1.000
    C75      C        0.15090    0.39290    0.28759    1.000
    C76      C        0.61950    0.85070    0.33661    1.000
    C77      C        0.65510    0.86180    0.28296    1.000
    C78      C        0.53220    0.84420    0.35121    1.000
    C79      C        0.59510    0.85780    0.31719    1.000
    H43      H        0.52450    0.86370    0.31310    1.000
    C80      C        0.80790    0.84060    0.32925    1.000
    C81      C        0.04160    0.02570    0.36158    1.000
    C82      C        0.12180    0.35300    0.34055    1.000
    O46      O        0.13400    0.29930    0.28210    1.000
    O47      O        0.17000    0.46830    0.27682    1.000
    C83      C        0.14850    0.54080    0.33415    1.000
    C84      C        0.15900    0.52050    0.31456    1.000
    H44      H        0.17120    0.57600    0.30600    1.000
    N6       N        0.00640    0.21490    0.35259    1.000
    C85      C        0.29140    0.88830    0.36191    1.000
    C86      C        0.09560    0.26490    0.35501    1.000
    C87      C        0.78460    0.84980    0.31006    1.000
    H45      H        0.83960    0.85180    0.30120    1.000
    O48      O        0.15740    0.25000    0.36838    1.000
    O49      O        0.28270    0.25520    0.25502    1.000
    O50      O        0.73360    0.87790    0.27259    1.000
    C88      C        0.15060    0.41580    0.30848    1.000
    O51      O        0.56080    0.85390    0.27813    1.000
    C89      C        0.13100    0.33170    0.32138    1.000
    H46      H        0.12420    0.26170    0.31700    1.000
    C90      C        0.97900    0.12590    0.36589    1.000
    H47      H        0.98980    0.14810    0.37910    1.000
    C91      C        0.67910    0.85580    0.30423    1.000
    O52      O        0.31460    0.43990    0.24802    1.000
    C92      C        0.37720    0.05290    0.37463    1.000
    H48      H        0.30280    0.06660    0.37780    1.000
    H49      H        0.42250    0.07700    0.38500    1.000
    C93      C        0.39610    0.93270    0.37017    1.000
    H50      H        0.41750    0.89320    0.38160    1.000
    C94      C        0.50190    0.04200    0.34851    1.000
    H51      H        0.50380    0.04100    0.33470    1.000
    H52      H        0.56910    0.07080    0.35320    1.000
    O53      O        0.53580    0.99930    0.24877    1.000
    C95      C        0.92130    0.23230    0.33831    1.000
    H53      H        0.94810    0.22560    0.32540    1.000
    H54      H        0.88650    0.30130    0.33990    1.000
    C96      C        0.40870    0.10800    0.35554    1.000
    H55      H        0.42980    0.18190    0.35760    1.000
    H56      H        0.34970    0.10620    0.34660    1.000
    C97      C        0.49330    0.20480    0.24900    1.000
    C98      C        0.85950    0.10840    0.36170    1.000
    H57      H        0.84030    0.03400    0.36380    1.000
    H58      H        0.81600    0.15280    0.37000    1.000
    C99      C        0.58440    0.18290    0.24850    1.000
    C100     C        0.84420    0.13490    0.34401    1.000
    H59      H        0.77000    0.15580    0.34220    1.000
    H60      H        0.85880    0.07380    0.33590    1.000
    C101     C        0.60850    0.04430    0.24630    1.000
    C102     C        0.45690    0.31790    0.24960    1.000
    C103     C        0.33590    0.34200    0.25149    1.000
    O54      O        0.71280    0.03160    0.24487    1.000
    C104     C        0.54240    0.38710    0.24882    1.000
    C105     C        0.66560    0.26180    0.24626    1.000
    Cu13     Cu       0.92238    0.18810    0.86676    1.000
    Cu14     Cu       0.86155    0.11748    0.83271    1.000
    Cu15     Cu       0.83602    0.53520    0.74928    1.000
    Cu16     Cu       0.88250    0.73264    0.75471    1.000
    O55      O        0.83710    0.27210    0.82828    1.000
    O56      O        0.72180    0.10200    0.84453    1.000
    O57      O        0.06070    0.19860    0.85222    1.000
    O58      O        0.96490    0.04610    0.87404    1.000
    O59      O        0.87980    0.32910    0.85762    1.000
    O60      O        0.77400    0.15050    0.87381    1.000
    O61      O        0.00690    0.13640    0.82366    1.000
    O62      O        0.49300    0.24470    0.85818    1.000
    O63      O        0.91160    0.98230    0.84542    1.000
    C106     C        0.07860    0.16590    0.83577    1.000
    C107     C        0.85480    0.34470    0.84082    1.000
    C108     C        0.27360    0.16200    0.84248    1.000
    H61      H        0.25780    0.17220    0.85530    1.000
    N7       N        0.51680    0.06530    0.85603    1.000
    C109     C        0.86870    0.54100    0.84702    1.000
    H62      H        0.87400    0.52590    0.85990    1.000
    C110     C        0.84910    0.60710    0.78759    1.000
    C111     C        0.38050    0.14930    0.83661    1.000
    C112     C        0.34490    0.13820    0.78296    1.000
    C113     C        0.46780    0.15580    0.85121    1.000
    C114     C        0.40490    0.14220    0.81719    1.000
    H63      H        0.47550    0.13630    0.81310    1.000
    C115     C        0.19210    0.15940    0.82925    1.000
    C116     C        0.95840    0.97430    0.86158    1.000
    C117     C        0.87820    0.64700    0.84055    1.000
    O64      O        0.86600    0.70070    0.78210    1.000
    O65      O        0.83000    0.53170    0.77682    1.000
    C118     C        0.85150    0.45920    0.83415    1.000
    C119     C        0.84100    0.47950    0.81456    1.000
    H64      H        0.82880    0.42400    0.80600    1.000
    N8       N        0.99360    0.78510    0.85259    1.000
    C120     C        0.70860    0.11170    0.86191    1.000
    C121     C        0.90440    0.73510    0.85501    1.000
    C122     C        0.21540    0.15020    0.81006    1.000
    H65      H        0.16040    0.14820    0.80120    1.000
    O66      O        0.84260    0.75000    0.86838    1.000
    O67      O        0.71730    0.74480    0.75502    1.000
    O68      O        0.26640    0.12210    0.77259    1.000
    C123     C        0.84940    0.58420    0.80848    1.000
    O69      O        0.43920    0.14610    0.77813    1.000
    C124     C        0.86900    0.66830    0.82138    1.000
    H66      H        0.87580    0.73830    0.81700    1.000
    C125     C        0.02100    0.87410    0.86589    1.000
    H67      H        0.01020    0.85190    0.87910    1.000
    C126     C        0.32090    0.14420    0.80423    1.000
    O70      O        0.68540    0.56010    0.74802    1.000
    C127     C        0.62280    0.94710    0.87463    1.000
    H68      H        0.69720    0.93340    0.87780    1.000
    H69      H        0.57750    0.92300    0.88500    1.000
    C128     C        0.60390    0.06730    0.87017    1.000
    H70      H        0.58250    0.10680    0.88160    1.000
    C129     C        0.49810    0.95800    0.84851    1.000
    H71      H        0.49620    0.95900    0.83470    1.000
    H72      H        0.43090    0.92920    0.85320    1.000
    O71      O        0.46420    0.00070    0.74877    1.000
    C130     C        0.07870    0.76770    0.83831    1.000
    H73      H        0.05190    0.77440    0.82540    1.000
    H74      H        0.11350    0.69870    0.83990    1.000
    C131     C        0.59130    0.89200    0.85554    1.000
    H75      H        0.57020    0.81810    0.85760    1.000
    H76      H        0.65030    0.89380    0.84660    1.000
    C132     C        0.50670    0.79520    0.74900    1.000
    C133     C        0.14050    0.89160    0.86170    1.000
    H77      H        0.15970    0.96600    0.86380    1.000
    H78      H        0.18400    0.84720    0.87000    1.000
    C134     C        0.41560    0.81710    0.74850    1.000
    C135     C        0.15580    0.86510    0.84401    1.000
    H79      H        0.23000    0.84420    0.84220    1.000
    H80      H        0.14120    0.92620    0.83590    1.000
    C136     C        0.39150    0.95570    0.74630    1.000
    C137     C        0.54310    0.68210    0.74960    1.000
    C138     C        0.66410    0.65800    0.75149    1.000
    O72      O        0.28720    0.96840    0.74487    1.000
    C139     C        0.45760    0.61290    0.74882    1.000
    C140     C        0.33440    0.73820    0.74626    1.000
    Cu17     Cu       0.18810    0.92238    0.13324    1.000
    Cu18     Cu       0.11748    0.86155    0.16729    1.000
    Cu19     Cu       0.53520    0.83602    0.25072    1.000
    Cu20     Cu       0.73264    0.88250    0.24529    1.000
    O73      O        0.27210    0.83710    0.17172    1.000
    O74      O        0.10200    0.72180    0.15547    1.000
    O75      O        0.19860    0.06070    0.14778    1.000
    O76      O        0.04610    0.96490    0.12596    1.000
    O77      O        0.32910    0.87980    0.14238    1.000
    O78      O        0.15050    0.77400    0.12619    1.000
    O79      O        0.13640    0.00690    0.17634    1.000
    O80      O        0.24470    0.49300    0.14182    1.000
    O81      O        0.98230    0.91160    0.15458    1.000
    C141     C        0.16590    0.07860    0.16423    1.000
    C142     C        0.34470    0.85480    0.15918    1.000
    C143     C        0.16200    0.27360    0.15752    1.000
    H81      H        0.17220    0.25780    0.14470    1.000
    N9       N        0.06530    0.51680    0.14397    1.000
    C144     C        0.54100    0.86870    0.15298    1.000
    H82      H        0.52590    0.87400    0.14010    1.000
    C145     C        0.60710    0.84910    0.21241    1.000
    C146     C        0.14930    0.38050    0.16339    1.000
    C147     C        0.13820    0.34490    0.21704    1.000
    C148     C        0.15580    0.46780    0.14879    1.000
    C149     C        0.14220    0.40490    0.18281    1.000
    H83      H        0.13630    0.47550    0.18690    1.000
    C150     C        0.15940    0.19210    0.17075    1.000
    C151     C        0.97430    0.95840    0.13842    1.000
    C152     C        0.64700    0.87820    0.15945    1.000
    O82      O        0.70070    0.86600    0.21790    1.000
    O83      O        0.53170    0.83000    0.22318    1.000
    C153     C        0.45920    0.85150    0.16585    1.000
    C154     C        0.47950    0.84100    0.18544    1.000
    H84      H        0.42400    0.82880    0.19400    1.000
    N10      N        0.78510    0.99360    0.14741    1.000
    C155     C        0.11170    0.70860    0.13809    1.000
    C156     C        0.73510    0.90440    0.14499    1.000
    C157     C        0.15020    0.21540    0.18994    1.000
    H85      H        0.14820    0.16040    0.19880    1.000
    O84      O        0.75000    0.84260    0.13162    1.000
    O85      O        0.74480    0.71730    0.24498    1.000
    O86      O        0.12210    0.26640    0.22741    1.000
    C158     C        0.58420    0.84940    0.19152    1.000
    O87      O        0.14610    0.43920    0.22187    1.000
    C159     C        0.66830    0.86900    0.17862    1.000
    H86      H        0.73830    0.87580    0.18300    1.000
    C160     C        0.87410    0.02100    0.13411    1.000
    H87      H        0.85190    0.01020    0.12090    1.000
    C161     C        0.14420    0.32090    0.19577    1.000
    O88      O        0.56010    0.68540    0.25198    1.000
    C162     C        0.94710    0.62280    0.12537    1.000
    H88      H        0.93340    0.69720    0.12220    1.000
    H89      H        0.92300    0.57750    0.11500    1.000
    C163     C        0.06730    0.60390    0.12983    1.000
    H90      H        0.10680    0.58250    0.11840    1.000
    C164     C        0.95800    0.49810    0.15149    1.000
    H91      H        0.95900    0.49620    0.16530    1.000
    H92      H        0.92920    0.43090    0.14680    1.000
    O89      O        0.00070    0.46420    0.25123    1.000
    C165     C        0.76770    0.07870    0.16169    1.000
    H93      H        0.77440    0.05190    0.17460    1.000
    H94      H        0.69870    0.11350    0.16010    1.000
    C166     C        0.89200    0.59130    0.14446    1.000
    H95      H        0.81810    0.57020    0.14240    1.000
    H96      H        0.89380    0.65030    0.15340    1.000
    C167     C        0.79520    0.50670    0.25100    1.000
    C168     C        0.89160    0.14050    0.13830    1.000
    H97      H        0.96600    0.15970    0.13620    1.000
    H98      H        0.84720    0.18400    0.13000    1.000
    C169     C        0.81710    0.41560    0.25150    1.000
    C170     C        0.86510    0.15580    0.15599    1.000
    H99      H        0.84420    0.23000    0.15780    1.000
    H100     H        0.92620    0.14120    0.16410    1.000
    C171     C        0.95570    0.39150    0.25370    1.000
    C172     C        0.68210    0.54310    0.25040    1.000
    C173     C        0.65800    0.66410    0.24851    1.000
    O90      O        0.96840    0.28720    0.25513    1.000
    C174     C        0.61290    0.45760    0.25118    1.000
    C175     C        0.73820    0.33440    0.25374    1.000
    Cu21     Cu       0.81190    0.07762    0.63324    1.000
    Cu22     Cu       0.88252    0.13845    0.66729    1.000
    Cu23     Cu       0.46480    0.16398    0.75072    1.000
    Cu24     Cu       0.26736    0.11750    0.74529    1.000
    O91      O        0.72790    0.16290    0.67172    1.000
    O92      O        0.89800    0.27820    0.65547    1.000
    O93      O        0.80140    0.93930    0.64778    1.000
    O94      O        0.95390    0.03510    0.62596    1.000
    O95      O        0.67090    0.12020    0.64238    1.000
    O96      O        0.84950    0.22600    0.62619    1.000
    O97      O        0.86360    0.99310    0.67634    1.000
    O98      O        0.75530    0.50700    0.64182    1.000
    O99      O        0.01770    0.08840    0.65458    1.000
    C176     C        0.83410    0.92140    0.66423    1.000
    C177     C        0.65530    0.14520    0.65918    1.000
    C178     C        0.83800    0.72640    0.65752    1.000
    H101     H        0.82780    0.74220    0.64470    1.000
    N11      N        0.93470    0.48320    0.64397    1.000
    C179     C        0.45900    0.13130    0.65298    1.000
    H102     H        0.47410    0.12600    0.64010    1.000
    C180     C        0.39290    0.15090    0.71241    1.000
    C181     C        0.85070    0.61950    0.66339    1.000
    C182     C        0.86180    0.65510    0.71704    1.000
    C183     C        0.84420    0.53220    0.64879    1.000
    C184     C        0.85780    0.59510    0.68281    1.000
    H103     H        0.86370    0.52450    0.68690    1.000
    C185     C        0.84060    0.80790    0.67075    1.000
    C186     C        0.02570    0.04160    0.63842    1.000
    C187     C        0.35300    0.12180    0.65945    1.000
    O100     O        0.29930    0.13400    0.71790    1.000
    O101     O        0.46830    0.17000    0.72318    1.000
    C188     C        0.54080    0.14850    0.66585    1.000
    C189     C        0.52050    0.15900    0.68544    1.000
    H104     H        0.57600    0.17120    0.69400    1.000
    N12      N        0.21490    0.00640    0.64741    1.000
    C190     C        0.88830    0.29140    0.63809    1.000
    C191     C        0.26490    0.09560    0.64499    1.000
    C192     C        0.84980    0.78460    0.68994    1.000
    H105     H        0.85180    0.83960    0.69880    1.000
    O102     O        0.25000    0.15740    0.63162    1.000
    O103     O        0.25520    0.28270    0.74498    1.000
    O104     O        0.87790    0.73360    0.72741    1.000
    C193     C        0.41580    0.15060    0.69152    1.000
    O105     O        0.85390    0.56080    0.72187    1.000
    C194     C        0.33170    0.13100    0.67862    1.000
    H106     H        0.26170    0.12420    0.68300    1.000
    C195     C        0.12590    0.97900    0.63411    1.000
    H107     H        0.14810    0.98980    0.62090    1.000
    C196     C        0.85580    0.67910    0.69577    1.000
    O106     O        0.43990    0.31460    0.75198    1.000
    C197     C        0.05290    0.37720    0.62537    1.000
    H108     H        0.06660    0.30280    0.62220    1.000
    H109     H        0.07700    0.42250    0.61500    1.000
    C198     C        0.93270    0.39610    0.62983    1.000
    H110     H        0.89320    0.41750    0.61840    1.000
    C199     C        0.04200    0.50190    0.65149    1.000
    H111     H        0.04100    0.50380    0.66530    1.000
    H112     H        0.07080    0.56910    0.64680    1.000
    O107     O        0.99930    0.53580    0.75123    1.000
    C200     C        0.23230    0.92130    0.66169    1.000
    H113     H        0.22560    0.94810    0.67460    1.000
    H114     H        0.30130    0.88650    0.66010    1.000
    C201     C        0.10800    0.40870    0.64446    1.000
    H115     H        0.18190    0.42980    0.64240    1.000
    H116     H        0.10620    0.34970    0.65340    1.000
    C202     C        0.20480    0.49330    0.75100    1.000
    C203     C        0.10840    0.85950    0.63830    1.000
    H117     H        0.03400    0.84030    0.63620    1.000
    H118     H        0.15280    0.81600    0.63000    1.000
    C204     C        0.18290    0.58440    0.75150    1.000
    C205     C        0.13490    0.84420    0.65599    1.000
    H119     H        0.15580    0.77000    0.65780    1.000
    H120     H        0.07380    0.85880    0.66410    1.000
    C206     C        0.04430    0.60850    0.75370    1.000
    C207     C        0.31790    0.45690    0.75040    1.000
    C208     C        0.34200    0.33590    0.74851    1.000
    O108     O        0.03160    0.71280    0.75513    1.000
    C209     C        0.38710    0.54240    0.75118    1.000
    C210     C        0.26180    0.66560    0.75374    1.000
    Cu25     Cu       0.42238    0.31190    0.88324    1.000
    Cu26     Cu       0.36155    0.38252    0.91729    1.000
    Cu27     Cu       0.33602    0.96480    0.00072    1.000
    Cu28     Cu       0.38250    0.76736    0.99529    1.000
    O109     O        0.33710    0.22790    0.92172    1.000
    O110     O        0.22180    0.39800    0.90547    1.000
    O111     O        0.56070    0.30140    0.89778    1.000
    O112     O        0.46490    0.45390    0.87596    1.000
    O113     O        0.37980    0.17090    0.89238    1.000
    O114     O        0.27400    0.34950    0.87619    1.000
    O115     O        0.50690    0.36360    0.92634    1.000
    O116     O        0.99300    0.25530    0.89182    1.000
    O117     O        0.41160    0.51770    0.90458    1.000
    C211     C        0.57860    0.33410    0.91423    1.000
    C212     C        0.35480    0.15530    0.90918    1.000
    C213     C        0.77360    0.33800    0.90752    1.000
    H121     H        0.75780    0.32780    0.89470    1.000
    N13      N        0.01680    0.43470    0.89397    1.000
    C214     C        0.36870    0.95900    0.90298    1.000
    H122     H        0.37400    0.97410    0.89010    1.000
    C215     C        0.34910    0.89290    0.96241    1.000
    C216     C        0.88050    0.35070    0.91339    1.000
    C217     C        0.84490    0.36180    0.96704    1.000
    C218     C        0.96780    0.34420    0.89879    1.000
    C219     C        0.90490    0.35780    0.93281    1.000
    H123     H        0.97550    0.36370    0.93690    1.000
    C220     C        0.69210    0.34060    0.92075    1.000
    C221     C        0.45840    0.52570    0.88842    1.000
    C222     C        0.37820    0.85300    0.90945    1.000
    O118     O        0.36600    0.79930    0.96790    1.000
    O119     O        0.33000    0.96830    0.97318    1.000
    C223     C        0.35150    0.04080    0.91585    1.000
    C224     C        0.34100    0.02050    0.93544    1.000
    H124     H        0.32880    0.07600    0.94400    1.000
    N14      N        0.49360    0.71490    0.89741    1.000
    C225     C        0.20860    0.38830    0.88809    1.000
    C226     C        0.40440    0.76490    0.89499    1.000
    C227     C        0.71540    0.34980    0.93994    1.000
    H125     H        0.66040    0.35180    0.94880    1.000
    O120     O        0.34260    0.75000    0.88162    1.000
    O121     O        0.21730    0.75520    0.99498    1.000
    O122     O        0.76640    0.37790    0.97741    1.000
    C228     C        0.34940    0.91580    0.94152    1.000
    O123     O        0.93920    0.35390    0.97187    1.000
    C229     C        0.36900    0.83170    0.92862    1.000
    H126     H        0.37580    0.76170    0.93300    1.000
    C230     C        0.52100    0.62590    0.88411    1.000
    H127     H        0.51020    0.64810    0.87090    1.000
    C231     C        0.82090    0.35580    0.94577    1.000
    O124     O        0.18540    0.93990    0.00198    1.000
    C232     C        0.12280    0.55290    0.87537    1.000
    H128     H        0.19720    0.56660    0.87220    1.000
    H129     H        0.07750    0.57700    0.86500    1.000
    C233     C        0.10390    0.43270    0.87983    1.000
    H130     H        0.08250    0.39320    0.86840    1.000
    C234     C        0.99810    0.54200    0.90149    1.000
    H131     H        0.99620    0.54100    0.91530    1.000
    H132     H        0.93090    0.57080    0.89680    1.000
    O125     O        0.96420    0.49930    0.00123    1.000
    C235     C        0.57870    0.73230    0.91169    1.000
    H133     H        0.55190    0.72560    0.92460    1.000
    H134     H        0.61350    0.80130    0.91010    1.000
    C236     C        0.09130    0.60800    0.89446    1.000
    H135     H        0.07020    0.68190    0.89240    1.000
    H136     H        0.15030    0.60620    0.90340    1.000
    C237     C        0.00670    0.70480    0.00100    1.000
    C238     C        0.64050    0.60840    0.88830    1.000
    H137     H        0.65970    0.53400    0.88620    1.000
    H138     H        0.68400    0.65280    0.88000    1.000
    C239     C        0.91560    0.68290    0.00150    1.000
    C240     C        0.65580    0.63490    0.90599    1.000
    H139     H        0.73000    0.65580    0.90780    1.000
    H140     H        0.64120    0.57380    0.91410    1.000
    C241     C        0.89150    0.54430    0.00370    1.000
    C242     C        0.04310    0.81790    0.00040    1.000
    C243     C        0.16410    0.84200    0.99851    1.000
    O126     O        0.78720    0.53160    0.00513    1.000
    C244     C        0.95760    0.88710    0.00118    1.000
    C245     C        0.83440    0.76180    0.00374    1.000
    Cu29     Cu       0.57762    0.68810    0.38324    1.000
    Cu30     Cu       0.63845    0.61748    0.41729    1.000
    Cu31     Cu       0.66398    0.03520    0.50072    1.000
    Cu32     Cu       0.61750    0.23264    0.49529    1.000
    O127     O        0.66290    0.77210    0.42172    1.000
    O128     O        0.77820    0.60200    0.40547    1.000
    O129     O        0.43930    0.69860    0.39778    1.000
    O130     O        0.53510    0.54610    0.37596    1.000
    O131     O        0.62020    0.82910    0.39238    1.000
    O132     O        0.72600    0.65050    0.37619    1.000
    O133     O        0.49310    0.63640    0.42634    1.000
    O134     O        0.00700    0.74470    0.39182    1.000
    O135     O        0.58840    0.48230    0.40458    1.000
    C246     C        0.42140    0.66590    0.41423    1.000
    C247     C        0.64520    0.84470    0.40918    1.000
    C248     C        0.22640    0.66200    0.40752    1.000
    H141     H        0.24220    0.67220    0.39470    1.000
    N15      N        0.98320    0.56530    0.39397    1.000
    C249     C        0.63130    0.04100    0.40298    1.000
    H142     H        0.62600    0.02590    0.39010    1.000
    C250     C        0.65090    0.10710    0.46241    1.000
    C251     C        0.11950    0.64930    0.41339    1.000
    C252     C        0.15510    0.63820    0.46704    1.000
    C253     C        0.03220    0.65580    0.39879    1.000
    C254     C        0.09510    0.64220    0.43281    1.000
    H143     H        0.02450    0.63630    0.43690    1.000
    C255     C        0.30790    0.65940    0.42075    1.000
    C256     C        0.54160    0.47430    0.38842    1.000
    C257     C        0.62180    0.14700    0.40945    1.000
    O136     O        0.63400    0.20070    0.46790    1.000
    O137     O        0.67000    0.03170    0.47318    1.000
    C258     C        0.64850    0.95920    0.41585    1.000
    C259     C        0.65900    0.97950    0.43544    1.000
    H144     H        0.67120    0.92400    0.44400    1.000
    N16      N        0.50640    0.28510    0.39741    1.000
    C260     C        0.79140    0.61170    0.38809    1.000
    C261     C        0.59560    0.23510    0.39499    1.000
    C262     C        0.28460    0.65020    0.43994    1.000
    H145     H        0.33960    0.64820    0.44880    1.000
    O138     O        0.65740    0.25000    0.38162    1.000
    O139     O        0.78270    0.24480    0.49498    1.000
    O140     O        0.23360    0.62210    0.47741    1.000
    C263     C        0.65060    0.08420    0.44152    1.000
    O141     O        0.06080    0.64610    0.47187    1.000
    C264     C        0.63100    0.16830    0.42862    1.000
    H146     H        0.62420    0.23830    0.43300    1.000
    C265     C        0.47900    0.37410    0.38411    1.000
    H147     H        0.48980    0.35190    0.37090    1.000
    C266     C        0.17910    0.64420    0.44577    1.000
    O142     O        0.81460    0.06010    0.50198    1.000
    C267     C        0.87720    0.44710    0.37537    1.000
    H148     H        0.80280    0.43340    0.37220    1.000
    H149     H        0.92250    0.42300    0.36500    1.000
    C268     C        0.89610    0.56730    0.37983    1.000
    H150     H        0.91750    0.60680    0.36840    1.000
    C269     C        0.00190    0.45800    0.40149    1.000
    H151     H        0.00380    0.45900    0.41530    1.000
    H152     H        0.06910    0.42920    0.39680    1.000
    O143     O        0.03580    0.50070    0.50123    1.000
    C270     C        0.42130    0.26770    0.41169    1.000
    H153     H        0.44810    0.27440    0.42460    1.000
    H154     H        0.38650    0.19870    0.41010    1.000
    C271     C        0.90870    0.39200    0.39446    1.000
    H155     H        0.92980    0.31810    0.39240    1.000
    H156     H        0.84970    0.39380    0.40340    1.000
    C272     C        0.99330    0.29520    0.50100    1.000
    C273     C        0.35950    0.39160    0.38830    1.000
    H157     H        0.34030    0.46600    0.38620    1.000
    H158     H        0.31600    0.34720    0.38000    1.000
    C274     C        0.08440    0.31710    0.50150    1.000
    C275     C        0.34420    0.36510    0.40599    1.000
    H159     H        0.27000    0.34420    0.40780    1.000
    H160     H        0.35880    0.42620    0.41410    1.000
    C276     C        0.10850    0.45570    0.50370    1.000
    C277     C        0.95690    0.18210    0.50040    1.000
    C278     C        0.83590    0.15800    0.49851    1.000
    O144     O        0.21280    0.46840    0.50513    1.000
    C279     C        0.04240    0.11290    0.50118    1.000
    C280     C        0.16560    0.23820    0.50374    1.000
    C281     C        0.86540    0.86540    0.00000    1.000
    C282     C        0.13460    0.13460    0.50000    1.000
    C283     C        0.63460    0.36540    0.25000    1.000
    C284     C        0.36540    0.63460    0.75000    1.000
