data_functionalizedCrystal
_audit_creation_method	'EQeq! by Chris Wilmer'
_symmetry_space_group_name_H-M	'P1'
_symmetry_Int_Tables_number	1
_symmetry_cell_setting	triclinic
loop_
_symmetry_equiv_pos_as_xyz
  x,y,z
_cell_length_a	18.3194
_cell_length_b	18.3194
_cell_length_c	65.6209
_cell_angle_alpha	90
_cell_angle_beta	90
_cell_angle_gamma	120
loop_
_atom_site_label
_atom_site_type_symbol
_atom_site_fract_x
_atom_site_fract_y
_atom_site_fract_z
_atom_site_charge
Mof_Cu	Cu	0.94951	0.47484	0.48369	0.899
Mof_O 	O 	0.0249	0.588	0.47313	-0.423
Mof_O 	O 	0.8886	0.5186	0.49959	-0.404
Mof_O 	O 	0.0263	0.4384	0.47315	-0.422
Mof_O 	O 	0.8882	0.3693	0.49962	-0.4
Mof_C 	C 	0.0903	0.449	0.4823	0.368
Mof_C 	C 	0.1478	0.4294	0.4727	-0.129
Mof_C 	C 	0.2116	0.4255	0.4823	0.061
Mof_C 	C 	0.1373	0.4028	0.4529	-0.006
Mof_C 	C 	0.2829	0.4278	0.4724	-0.122
Mof_H 	H 	0.2091	0.4212	0.4965	0.03
Mof_H 	H 	0.0924	0.3992	0.4455	0.039
Mof_C 	C 	0.1912	0.3812	0.4436	-0.018
Mof_C 	C 	0.268	0.4037	0.4518	-0.01
Mof_C 	C 	0.3597	0.4487	0.4822	0.366
Mof_C 	C 	0.1828	0.3594	0.4208	-0.021
Mof_H 	H 	0.3099	0.4032	0.4439	0.04
Mof_C 	C 	0.185	0.291	0.4125	0.068
Mof_C 	C 	0.1753	0.4169	0.4082	-0.241
Mof_C 	C 	0.193	0.229	0.4259	-0.545
Mof_C 	C 	0.1796	0.2792	0.3913	-0.031
Mof_C 	C 	0.1701	0.4052	0.3871	0.31
Mof_H 	H 	0.1737	0.4626	0.4139	0.111
Mof_H 	H 	0.242	0.2261	0.422	0.175
Mof_H 	H 	0.1438	0.1747	0.4246	0.17
Mof_H 	H 	0.1992	0.2477	0.4398	0.185
Mof_C 	C 	0.1731	0.3369	0.3787	-0.056
Mof_H 	H 	0.1805	0.2331	0.3857	0.006
Mof_C 	C 	0.162	0.467	0.3736	-0.968
Mof_C 	C 	0.177	0.344	0.3551	-0.046
Mof_H 	H 	0.1109	0.4668	0.3769	0.307
Mof_H 	H 	0.1599	0.4501	0.3596	0.387
Mof_H 	H 	0.2093	0.522	0.3756	0.299
Mof_C 	C 	0.1418	0.3857	0.3442	-0.083
Mof_C 	C 	0.2032	0.2897	0.3446	0.132
Mof_H 	H 	0.1259	0.4196	0.3512	-0.098
Mof_C 	C 	0.2404	0.2461	0.3565	-0.606
Mof_H 	H 	0.2979	0.2675	0.3525	0.191
Mof_H 	H 	0.2383	0.2562	0.3708	0.206
Mof_H 	H 	0.2086	0.1865	0.3539	0.188
Mof_C 	C 	0.165	0.7502	0.4085	-0.017
Mof_H 	H 	0.1616	0.7023	0.4143	0.032
Mof_C 	C 	0.1584	0.7551	0.3874	0.029
Mof_C 	C 	0.1752	0.8939	0.391	-0.174
Mof_H 	H 	0.1786	0.9418	0.3852	0.082
Mof_C 	C 	0.1814	0.8887	0.4122	0.189
Mof_C 	C 	0.194	0.9614	0.4252	-0.655
Mof_H 	H 	0.1882	0.9453	0.4393	0.218
Mof_H 	H 	0.1527	0.9769	0.4218	0.204
Mof_H 	H 	0.2495	0.0085	0.4229	0.206
Mof_C 	C 	0.1457	0.6831	0.3742	-0.473
Mof_H 	H 	0.1443	0.6971	0.3601	0.16
Mof_H 	H 	0.0934	0.6337	0.3776	0.152
Mof_H 	H 	0.1913	0.6722	0.3762	0.14
Mof_Cu	Cu	0.61618	0.80817	0.81702	0.9
Mof_O 	O 	0.69157	0.92133	0.80646	-0.421
Mof_O 	O 	0.55527	0.85193	0.83292	-0.404
Mof_O 	O 	0.69297	0.77173	0.80648	-0.422
Mof_O 	O 	0.55487	0.70263	0.83295	-0.399
Mof_C 	C 	0.75697	0.78233	0.81563	0.367
Mof_C 	C 	0.81447	0.76273	0.80603	-0.123
Mof_C 	C 	0.87827	0.75883	0.81563	0.053
Mof_C 	C 	0.80397	0.73613	0.78623	-0.013
Mof_C 	C 	0.94957	0.76113	0.80573	-0.107
Mof_H 	H 	0.87577	0.75453	0.82983	0.034
Mof_H 	H 	0.75907	0.73253	0.77883	0.04
Mof_C 	C 	0.85787	0.71453	0.77693	-0.01
Mof_C 	C 	0.93467	0.73703	0.78513	-0.02
Mof_C 	C 	0.02637	0.78203	0.81553	0.354
Mof_C 	C 	0.84947	0.69273	0.75413	-0.031
Mof_H 	H 	0.97657	0.73653	0.77723	0.046
Mof_C 	C 	0.85167	0.62433	0.74583	0.054
Mof_C 	C 	0.84197	0.75023	0.74153	-0.261
Mof_C 	C 	0.85967	0.56233	0.75923	-0.531
Mof_C 	C 	0.84627	0.61253	0.72463	-0.014
Mof_C 	C 	0.83677	0.73853	0.72043	0.333
Mof_H 	H 	0.84037	0.79593	0.74723	0.117
Mof_H 	H 	0.90867	0.55943	0.75533	0.172
Mof_H 	H 	0.81047	0.50803	0.75793	0.166
Mof_H 	H 	0.86587	0.58103	0.77313	0.181
Mof_C 	C 	0.83977	0.67023	0.71203	-0.047
Mof_H 	H 	0.84717	0.56643	0.71903	-0
Mof_C 	C 	0.82867	0.80033	0.70693	-1.002
Mof_C 	C 	0.84367	0.67733	0.68843	-0.054
Mof_H 	H 	0.77757	0.80013	0.71023	0.316
Mof_H 	H 	0.82657	0.78343	0.69293	0.402
Mof_H 	H 	0.87597	0.85533	0.70893	0.309
Mof_C 	C 	0.80847	0.71903	0.67753	-0.072
Mof_C 	C 	0.86987	0.62303	0.67793	0.142
Mof_H 	H 	0.79257	0.75293	0.68453	-0.109
Mof_C 	C 	0.90707	0.57943	0.68983	-0.622
Mof_H 	H 	0.96457	0.60083	0.68583	0.198
Mof_H 	H 	0.90497	0.58953	0.70413	0.212
Mof_H 	H 	0.87527	0.51983	0.68723	0.194
Mof_C 	C 	0.83167	0.08353	0.74183	-0.007
Mof_H 	H 	0.82827	0.03563	0.74763	0.031
Mof_C 	C 	0.82507	0.08843	0.72073	0.015
Mof_C 	C 	0.84187	0.22723	0.72433	-0.184
Mof_H 	H 	0.84527	0.27513	0.71853	0.084
Mof_C 	C 	0.84807	0.22203	0.74553	0.201
Mof_C 	C 	0.86067	0.29473	0.75853	-0.688
Mof_H 	H 	0.85487	0.27863	0.77263	0.227
Mof_H 	H 	0.81937	0.31023	0.75513	0.212
Mof_H 	H 	0.91617	0.34183	0.75623	0.221
Mof_C 	C 	0.81237	0.01643	0.70753	-0.426
Mof_H 	H 	0.81097	0.03043	0.69343	0.148
Mof_H 	H 	0.76007	0.96703	0.71093	0.129
Mof_H 	H 	0.85797	0.00553	0.70953	0.13
Mof_Cu	Cu	0.28284	0.14151	0.15036	0.9
Mof_O 	O 	0.35823	0.25467	0.1398	-0.422
Mof_O 	O 	0.22193	0.18527	0.16626	-0.402
Mof_O 	O 	0.35963	0.10507	0.13982	-0.423
Mof_O 	O 	0.22153	0.03597	0.16629	-0.398
Mof_C 	C 	0.42363	0.11567	0.14897	0.369
Mof_C 	C 	0.48113	0.09607	0.13937	-0.129
Mof_C 	C 	0.54493	0.09217	0.14897	0.06
Mof_C 	C 	0.47063	0.06947	0.11957	-0.009
Mof_C 	C 	0.61623	0.09447	0.13907	-0.122
Mof_H 	H 	0.54243	0.08787	0.16317	0.029
Mof_H 	H 	0.42573	0.06587	0.11217	0.039
Mof_C 	C 	0.52453	0.04787	0.11027	-0.015
Mof_C 	C 	0.60133	0.07037	0.11847	-0.013
Mof_C 	C 	0.69303	0.11537	0.14887	0.366
Mof_C 	C 	0.51613	0.02607	0.08747	-0.033
Mof_H 	H 	0.64323	0.06987	0.11057	0.04
Mof_C 	C 	0.51833	0.95767	0.07917	0.066
Mof_C 	C 	0.50863	0.08357	0.07487	-0.245
Mof_C 	C 	0.52633	0.89567	0.09257	-0.543
Mof_C 	C 	0.51293	0.94587	0.05797	-0.023
Mof_C 	C 	0.50343	0.07187	0.05377	0.314
Mof_H 	H 	0.50703	0.12927	0.08057	0.112
Mof_H 	H 	0.57533	0.89277	0.08867	0.175
Mof_H 	H 	0.47713	0.84137	0.09127	0.17
Mof_H 	H 	0.53253	0.91437	0.10647	0.186
Mof_C 	C 	0.50643	0.00357	0.04537	-0.055
Mof_H 	H 	0.51383	0.89977	0.05237	0.003
Mof_C 	C 	0.49533	0.13367	0.04027	-0.976
Mof_C 	C 	0.51033	0.01067	0.02177	-0.05
Mof_H 	H 	0.44423	0.13347	0.04357	0.308
Mof_H 	H 	0.49323	0.11677	0.02627	0.39
Mof_H 	H 	0.54263	0.18867	0.04227	0.301
Mof_C 	C 	0.47513	0.05237	0.01087	-0.079
Mof_C 	C 	0.53653	0.95637	0.01127	0.137
Mof_H 	H 	0.45923	0.08627	0.01787	-0.102
Mof_C 	C 	0.57373	0.91277	0.02317	-0.614
Mof_H 	H 	0.63123	0.93417	0.01917	0.194
Mof_H 	H 	0.57163	0.92287	0.03747	0.209
Mof_H 	H 	0.54193	0.85317	0.02057	0.191
Mof_C 	C 	0.49833	0.41687	0.07517	-0.01
Mof_H 	H 	0.49493	0.36897	0.08097	0.029
Mof_C 	C 	0.49173	0.42177	0.05407	0.02
Mof_C 	C 	0.50853	0.56057	0.05767	-0.182
Mof_H 	H 	0.51193	0.60847	0.05187	0.083
Mof_C 	C 	0.51473	0.55537	0.07887	0.198
Mof_C 	C 	0.52733	0.62807	0.09187	-0.683
Mof_H 	H 	0.52153	0.61197	0.10597	0.225
Mof_H 	H 	0.48603	0.64357	0.08847	0.211
Mof_H 	H 	0.58283	0.67517	0.08957	0.218
Mof_C 	C 	0.47903	0.34977	0.04087	-0.463
Mof_H 	H 	0.47763	0.36377	0.02677	0.156
Mof_H 	H 	0.42673	0.30037	0.04427	0.148
Mof_H 	H 	0.52463	0.33887	0.04287	0.137
Mof_Cu	Cu	0.52516	0.47467	0.48369	0.9
Mof_O 	O 	0.412	0.4369	0.47313	-0.423
Mof_O 	O 	0.4814	0.37	0.49959	-0.403
Mof_O 	O 	0.5616	0.5879	0.47315	-0.422
Mof_O 	O 	0.6307	0.5189	0.49962	-0.399
Mof_C 	C 	0.551	0.6413	0.4823	0.37
Mof_C 	C 	0.5706	0.7184	0.4727	-0.129
Mof_C 	C 	0.5745	0.7861	0.4823	0.061
Mof_C 	C 	0.5972	0.7345	0.4529	-0.006
Mof_C 	C 	0.5722	0.8551	0.4724	-0.122
Mof_H 	H 	0.5788	0.7879	0.4965	0.03
Mof_H 	H 	0.6008	0.6932	0.4455	0.038
Mof_C 	C 	0.6188	0.81	0.4436	-0.019
Mof_C 	C 	0.5963	0.8643	0.4518	-0.01
Mof_C 	C 	0.5513	0.911	0.4822	0.366
Mof_C 	C 	0.6406	0.8234	0.4208	-0.019
Mof_H 	H 	0.5968	0.9067	0.4439	0.041
Mof_C 	C 	0.709	0.894	0.4125	0.047
Mof_C 	C 	0.5831	0.7584	0.4082	-0.252
Mof_C 	C 	0.771	0.964	0.4259	-0.503
Mof_C 	C 	0.7208	0.9004	0.3913	-0.013
Mof_C 	C 	0.5948	0.7649	0.3871	0.319
Mof_H 	H 	0.5374	0.7111	0.4139	0.114
Mof_H 	H 	0.7739	0.0159	0.422	0.159
Mof_H 	H 	0.8253	0.9691	0.4246	0.158
Mof_H 	H 	0.7523	0.9515	0.4398	0.173
Mof_C 	C 	0.6631	0.8362	0.3787	-0.06
Mof_H 	H 	0.7669	0.9474	0.3857	0.004
Mof_C 	C 	0.533	0.695	0.3736	-0.98
Mof_C 	C 	0.656	0.833	0.3551	-0.039
Mof_H 	H 	0.5332	0.6441	0.3769	0.309
Mof_H 	H 	0.5499	0.7098	0.3596	0.391
Mof_H 	H 	0.478	0.6873	0.3756	0.302
Mof_C 	C 	0.6143	0.7561	0.3442	-0.085
Mof_C 	C 	0.7103	0.9135	0.3446	0.113
Mof_H 	H 	0.5804	0.7063	0.3512	-0.1
Mof_C 	C 	0.7539	0.9943	0.3565	-0.525
Mof_H 	H 	0.7325	0.0304	0.3525	0.161
Mof_H 	H 	0.7438	0.9821	0.3708	0.183
Mof_H 	H 	0.8135	0.0221	0.3539	0.159
Mof_C 	C 	0.2498	0.4148	0.4085	-0.018
Mof_H 	H 	0.2977	0.4593	0.4143	0.032
Mof_C 	C 	0.2449	0.4033	0.3874	0.027
Mof_C 	C 	0.1061	0.2813	0.391	-0.17
Mof_H 	H 	0.0582	0.2368	0.3852	0.08
Mof_C 	C 	0.1113	0.2927	0.4122	0.183
Mof_C 	C 	0.0386	0.2326	0.4252	-0.648
Mof_H 	H 	0.0547	0.2429	0.4393	0.215
Mof_H 	H 	0.0231	0.1758	0.4218	0.201
Mof_H 	H 	0.9915	0.241	0.4229	0.204
Mof_C 	C 	0.3169	0.4626	0.3742	-0.47
Mof_H 	H 	0.3029	0.4472	0.3601	0.158
Mof_H 	H 	0.3663	0.4597	0.3776	0.149
Mof_H 	H 	0.3278	0.5191	0.3762	0.139
Mof_Cu	Cu	0.19183	0.808	0.81702	0.9
Mof_O 	O 	0.07867	0.77023	0.80646	-0.423
Mof_O 	O 	0.14807	0.70333	0.83292	-0.404
Mof_O 	O 	0.22827	0.92123	0.80648	-0.422
Mof_O 	O 	0.29737	0.85223	0.83295	-0.4
Mof_C 	C 	0.21767	0.97463	0.81563	0.356
Mof_C 	C 	0.23727	0.05173	0.80603	-0.112
Mof_C 	C 	0.24117	0.11943	0.81563	0.051
Mof_C 	C 	0.26387	0.06783	0.78623	-0.019
Mof_C 	C 	0.23887	0.18843	0.80573	-0.115
Mof_H 	H 	0.24547	0.12123	0.82983	0.035
Mof_H 	H 	0.26747	0.02653	0.77883	0.045
Mof_C 	C 	0.28547	0.14333	0.77693	-0.008
Mof_C 	C 	0.26297	0.19763	0.78513	-0.018
Mof_C 	C 	0.21797	0.24433	0.81553	0.363
Mof_C 	C 	0.30727	0.15673	0.75413	-0.035
Mof_H 	H 	0.26347	0.24003	0.77723	0.042
Mof_C 	C 	0.37567	0.22733	0.74583	0.082
Mof_C 	C 	0.24977	0.09173	0.74153	-0.206
Mof_C 	C 	0.43767	0.29733	0.75923	-0.56
Mof_C 	C 	0.38747	0.23373	0.72463	-0.049
Mof_C 	C 	0.26147	0.09823	0.72043	0.263
Mof_H 	H 	0.20407	0.04443	0.74723	0.1
Mof_H 	H 	0.44057	0.34923	0.75533	0.179
Mof_H 	H 	0.49197	0.30243	0.75793	0.175
Mof_H 	H 	0.41897	0.28483	0.77313	0.189
Mof_C 	C 	0.32977	0.16953	0.71203	-0.041
Mof_H 	H 	0.43357	0.28073	0.71903	0.012
Mof_C 	C 	0.19967	0.02833	0.70693	-0.859
Mof_C 	C 	0.32267	0.16633	0.68843	-0.055
Mof_H 	H 	0.19987	0.97743	0.71023	0.266
Mof_H 	H 	0.21657	0.04313	0.69293	0.346
Mof_H 	H 	0.14467	0.02063	0.70893	0.267
Mof_C 	C 	0.28097	0.08943	0.67753	-0.072
Mof_C 	C 	0.37697	0.24683	0.67793	0.14
Mof_H 	H 	0.24707	0.03963	0.68453	-0.085
Mof_C 	C 	0.42057	0.32763	0.68983	-0.615
Mof_H 	H 	0.39917	0.36373	0.68583	0.194
Mof_H 	H 	0.41047	0.31543	0.70413	0.208
Mof_H 	H 	0.48017	0.35543	0.68723	0.191
Mof_C 	C 	0.91647	0.74813	0.74183	0.014
Mof_H 	H 	0.96437	0.79263	0.74763	0.022
Mof_C 	C 	0.91157	0.73663	0.72073	-0.01
Mof_C 	C 	0.77277	0.61463	0.72433	-0.197
Mof_H 	H 	0.72487	0.57013	0.71853	0.088
Mof_C 	C 	0.77797	0.62603	0.74553	0.21
Mof_C 	C 	0.70527	0.56593	0.75853	-0.695
Mof_H 	H 	0.72137	0.57623	0.77263	0.229
Mof_H 	H 	0.68977	0.50913	0.75513	0.214
Mof_H 	H 	0.65817	0.57433	0.75623	0.221
Mof_C 	C 	0.98357	0.79593	0.70753	-0.396
Mof_H 	H 	0.96957	0.78053	0.69343	0.138
Mof_H 	H 	0.03297	0.79303	0.71093	0.121
Mof_H 	H 	0.99447	0.85243	0.70953	0.119
Mof_Cu	Cu	0.85849	0.14134	0.15036	0.9
Mof_O 	O 	0.74533	0.10357	0.1398	-0.424
Mof_O 	O 	0.81473	0.03667	0.16626	-0.403
Mof_O 	O 	0.89493	0.25457	0.13982	-0.423
Mof_O 	O 	0.96403	0.18557	0.16629	-0.4
Mof_C 	C 	0.88433	0.30797	0.14897	0.369
Mof_C 	C 	0.90393	0.38507	0.13937	-0.129
Mof_C 	C 	0.90783	0.45277	0.14897	0.06
Mof_C 	C 	0.93053	0.40117	0.11957	-0.009
Mof_C 	C 	0.90553	0.52177	0.13907	-0.122
Mof_H 	H 	0.91213	0.45457	0.16317	0.029
Mof_H 	H 	0.93413	0.35987	0.11217	0.038
Mof_C 	C 	0.95213	0.47667	0.11027	-0.015
Mof_C 	C 	0.92963	0.53097	0.11847	-0.013
Mof_C 	C 	0.88463	0.57767	0.14887	0.366
Mof_C 	C 	0.97393	0.49007	0.08747	-0.034
Mof_H 	H 	0.93013	0.57337	0.11057	0.04
Mof_C 	C 	0.04233	0.56067	0.07917	0.067
Mof_C 	C 	0.91643	0.42507	0.07487	-0.244
Mof_C 	C 	0.10433	0.63067	0.09257	-0.546
Mof_C 	C 	0.05413	0.56707	0.05797	-0.025
Mof_C 	C 	0.92813	0.43157	0.05377	0.313
Mof_H 	H 	0.87073	0.37777	0.08057	0.111
Mof_H 	H 	0.10723	0.68257	0.08867	0.176
Mof_H 	H 	0.15863	0.63577	0.09127	0.171
Mof_H 	H 	0.08563	0.61817	0.10647	0.187
Mof_C 	C 	0.99643	0.50287	0.04537	-0.055
Mof_H 	H 	0.10023	0.61407	0.05237	0.004
Mof_C 	C 	0.86633	0.36167	0.04027	-0.973
Mof_C 	C 	0.98933	0.49967	0.02177	-0.05
Mof_H 	H 	0.86653	0.31077	0.04357	0.307
Mof_H 	H 	0.88323	0.37647	0.02627	0.39
Mof_H 	H 	0.81133	0.35397	0.04227	0.3
Mof_C 	C 	0.94763	0.42277	0.01087	-0.079
Mof_C 	C 	0.04363	0.58017	0.01127	0.137
Mof_H 	H 	0.91373	0.37297	0.01787	-0.101
Mof_C 	C 	0.08723	0.66097	0.02317	-0.615
Mof_H 	H 	0.06583	0.69707	0.01917	0.194
Mof_H 	H 	0.07713	0.64877	0.03747	0.209
Mof_H 	H 	0.14683	0.68877	0.02057	0.191
Mof_C 	C 	0.58313	0.08147	0.07517	-0.008
Mof_H 	H 	0.63103	0.12597	0.08097	0.028
Mof_C 	C 	0.57823	0.06997	0.05407	0.018
Mof_C 	C 	0.43943	0.94797	0.05767	-0.183
Mof_H 	H 	0.39153	0.90347	0.05187	0.084
Mof_C 	C 	0.44463	0.95937	0.07887	0.205
Mof_C 	C 	0.37193	0.89927	0.09187	-0.691
Mof_H 	H 	0.38803	0.90957	0.10597	0.229
Mof_H 	H 	0.35643	0.84247	0.08847	0.213
Mof_H 	H 	0.32483	0.90767	0.08957	0.221
Mof_C 	C 	0.65023	0.12927	0.04087	-0.461
Mof_H 	H 	0.63623	0.11387	0.02677	0.156
Mof_H 	H 	0.69963	0.12637	0.04427	0.146
Mof_H 	H 	0.66113	0.18577	0.04287	0.136
Mof_Cu	Cu	0.52533	0.05049	0.48369	0.9
Mof_O 	O 	0.5631	0.9751	0.47313	-0.422
Mof_O 	O 	0.63	0.1114	0.49959	-0.403
Mof_O 	O 	0.4121	0.9737	0.47315	-0.421
Mof_O 	O 	0.4811	0.1118	0.49962	-0.399
Mof_C 	C 	0.3587	0.9097	0.4823	0.369
Mof_C 	C 	0.2816	0.8522	0.4727	-0.129
Mof_C 	C 	0.2139	0.7884	0.4823	0.062
Mof_C 	C 	0.2655	0.8627	0.4529	-0.006
Mof_C 	C 	0.1449	0.7171	0.4724	-0.122
Mof_H 	H 	0.2121	0.7909	0.4965	0.03
Mof_H 	H 	0.3068	0.9076	0.4455	0.039
Mof_C 	C 	0.19	0.8088	0.4436	-0.019
Mof_C 	C 	0.1357	0.732	0.4518	-0.009
Mof_C 	C 	0.089	0.6403	0.4822	0.366
Mof_C 	C 	0.1766	0.8172	0.4208	-0.017
Mof_H 	H 	0.0933	0.6901	0.4439	0.04
Mof_C 	C 	0.106	0.815	0.4125	0.056
Mof_C 	C 	0.2416	0.8247	0.4082	-0.245
Mof_C 	C 	0.036	0.807	0.4259	-0.515
Mof_C 	C 	0.0996	0.8204	0.3913	-0.022
Mof_C 	C 	0.2351	0.8299	0.3871	0.314
Mof_H 	H 	0.2889	0.8263	0.4139	0.112
Mof_H 	H 	0.9841	0.758	0.422	0.163
Mof_H 	H 	0.0309	0.8562	0.4246	0.163
Mof_H 	H 	0.0485	0.8008	0.4398	0.177
Mof_C 	C 	0.1638	0.8269	0.3787	-0.061
Mof_H 	H 	0.0526	0.8195	0.3857	0.008
Mof_C 	C 	0.305	0.838	0.3736	-0.972
Mof_C 	C 	0.167	0.823	0.3551	-0.036
Mof_H 	H 	0.3559	0.8891	0.3769	0.308
Mof_H 	H 	0.2902	0.8401	0.3596	0.387
Mof_H 	H 	0.3127	0.7907	0.3756	0.3
Mof_C 	C 	0.2439	0.8582	0.3442	-0.088
Mof_C 	C 	0.0865	0.7968	0.3446	0.111
Mof_H 	H 	0.2937	0.8741	0.3512	-0.096
Mof_C 	C 	0.0057	0.7596	0.3565	-0.524
Mof_H 	H 	0.9696	0.7021	0.3525	0.162
Mof_H 	H 	0.0179	0.7617	0.3708	0.183
Mof_H 	H 	0.9779	0.7914	0.3539	0.16
Mof_C 	C 	0.5852	0.835	0.4085	-0.009
Mof_H 	H 	0.5407	0.8384	0.4143	0.029
Mof_C 	C 	0.5967	0.8416	0.3874	0.022
Mof_C 	C 	0.7187	0.8248	0.391	-0.186
Mof_H 	H 	0.7632	0.8214	0.3852	0.085
Mof_C 	C 	0.7073	0.8186	0.4122	0.203
Mof_C 	C 	0.7674	0.806	0.4252	-0.688
Mof_H 	H 	0.7571	0.8118	0.4393	0.227
Mof_H 	H 	0.8242	0.8473	0.4218	0.212
Mof_H 	H 	0.759	0.7505	0.4229	0.219
Mof_C 	C 	0.5374	0.8543	0.3742	-0.466
Mof_H 	H 	0.5528	0.8557	0.3601	0.158
Mof_H 	H 	0.5403	0.9066	0.3776	0.15
Mof_H 	H 	0.4809	0.8087	0.3762	0.138
Mof_Cu	Cu	0.192	0.38382	0.81702	0.9
Mof_O 	O 	0.22977	0.30843	0.80646	-0.423
Mof_O 	O 	0.29667	0.44473	0.83292	-0.403
Mof_O 	O 	0.07877	0.30703	0.80648	-0.421
Mof_O 	O 	0.14777	0.44513	0.83295	-0.4
Mof_C 	C 	0.02537	0.24303	0.81563	0.353
Mof_C 	C 	0.94827	0.18553	0.80603	-0.105
Mof_C 	C 	0.88057	0.12173	0.81563	0.043
Mof_C 	C 	0.93217	0.19603	0.78623	-0.025
Mof_C 	C 	0.81157	0.05043	0.80573	-0.099
Mof_H 	H 	0.87877	0.12423	0.82983	0.039
Mof_H 	H 	0.97347	0.24093	0.77883	0.047
Mof_C 	C 	0.85667	0.14213	0.77693	-0
Mof_C 	C 	0.80237	0.06533	0.78513	-0.027
Mof_C 	C 	0.75567	0.97363	0.81553	0.351
Mof_C 	C 	0.84327	0.15053	0.75413	-0.041
Mof_H 	H 	0.75997	0.02343	0.77723	0.048
Mof_C 	C 	0.77267	0.14833	0.74583	0.074
Mof_C 	C 	0.90827	0.15803	0.74153	-0.226
Mof_C 	C 	0.70267	0.14033	0.75923	-0.554
Mof_C 	C 	0.76627	0.15373	0.72463	-0.037
Mof_C 	C 	0.90177	0.16323	0.72043	0.287
Mof_H 	H 	0.95557	0.15963	0.74723	0.107
Mof_H 	H 	0.65077	0.09133	0.75533	0.179
Mof_H 	H 	0.69757	0.18953	0.75793	0.173
Mof_H 	H 	0.71517	0.13413	0.77313	0.188
Mof_C 	C 	0.83047	0.16023	0.71203	-0.036
Mof_H 	H 	0.71927	0.15283	0.71903	0.008
Mof_C 	C 	0.97167	0.17133	0.70693	-0.898
Mof_C 	C 	0.83367	0.15633	0.68843	-0.059
Mof_H 	H 	0.02257	0.22243	0.71023	0.278
Mof_H 	H 	0.95687	0.17343	0.69293	0.363
Mof_H 	H 	0.97937	0.12403	0.70893	0.282
Mof_C 	C 	0.91057	0.19153	0.67753	-0.065
Mof_C 	C 	0.75317	0.13013	0.67793	0.146
Mof_H 	H 	0.96037	0.20743	0.68453	-0.093
Mof_C 	C 	0.67237	0.09293	0.68983	-0.626
Mof_H 	H 	0.63627	0.03543	0.68583	0.199
Mof_H 	H 	0.68457	0.09503	0.70413	0.212
Mof_H 	H 	0.64457	0.12473	0.68723	0.195
Mof_C 	C 	0.25187	0.16833	0.74183	-0.033
Mof_H 	H 	0.20737	0.17173	0.74763	0.037
Mof_C 	C 	0.26337	0.17493	0.72073	0.046
Mof_C 	C 	0.38537	0.15813	0.72433	-0.167
Mof_H 	H 	0.42987	0.15473	0.71853	0.078
Mof_C 	C 	0.37397	0.15193	0.74553	0.187
Mof_C 	C 	0.43407	0.13933	0.75853	-0.672
Mof_H 	H 	0.42377	0.14513	0.77263	0.222
Mof_H 	H 	0.49087	0.18063	0.75513	0.207
Mof_H 	H 	0.42567	0.08383	0.75623	0.216
Mof_C 	C 	0.20407	0.18763	0.70753	-0.491
Mof_H 	H 	0.21947	0.18903	0.69343	0.165
Mof_H 	H 	0.20697	0.23993	0.71093	0.155
Mof_H 	H 	0.14757	0.14203	0.70953	0.146
Mof_Cu	Cu	0.85866	0.71716	0.15036	0.9
Mof_O 	O 	0.89643	0.64177	0.1398	-0.423
Mof_O 	O 	0.96333	0.77807	0.16626	-0.401
Mof_O 	O 	0.74543	0.64037	0.13982	-0.422
Mof_O 	O 	0.81443	0.77847	0.16629	-0.399
Mof_C 	C 	0.69203	0.57637	0.14897	0.369
Mof_C 	C 	0.61493	0.51887	0.13937	-0.129
Mof_C 	C 	0.54723	0.45507	0.14897	0.061
Mof_C 	C 	0.59883	0.52937	0.11957	-0.007
Mof_C 	C 	0.47823	0.38377	0.13907	-0.121
Mof_H 	H 	0.54543	0.45757	0.16317	0.03
Mof_H 	H 	0.64013	0.57427	0.11217	0.039
Mof_C 	C 	0.52333	0.47547	0.11027	-0.017
Mof_C 	C 	0.46903	0.39867	0.11847	-0.011
Mof_C 	C 	0.42233	0.30697	0.14887	0.366
Mof_C 	C 	0.50993	0.48387	0.08747	-0.024
Mof_H 	H 	0.42663	0.35677	0.11057	0.04
Mof_C 	C 	0.43933	0.48167	0.07917	0.06
Mof_C 	C 	0.57493	0.49137	0.07487	-0.247
Mof_C 	C 	0.36933	0.47367	0.09257	-0.537
Mof_C 	C 	0.43293	0.48707	0.05797	-0.024
Mof_C 	C 	0.56843	0.49657	0.05377	0.315
Mof_H 	H 	0.62223	0.49297	0.08057	0.112
Mof_H 	H 	0.31743	0.42467	0.08867	0.173
Mof_H 	H 	0.36423	0.52287	0.09127	0.168
Mof_H 	H 	0.38183	0.46747	0.10647	0.182
Mof_C 	C 	0.49713	0.49357	0.04537	-0.054
Mof_H 	H 	0.38593	0.48617	0.05237	0.003
Mof_C 	C 	0.63833	0.50467	0.04027	-0.976
Mof_C 	C 	0.50033	0.48967	0.02177	-0.05
Mof_H 	H 	0.68923	0.55577	0.04357	0.309
Mof_H 	H 	0.62353	0.50677	0.02627	0.391
Mof_H 	H 	0.64603	0.45737	0.04227	0.301
Mof_C 	C 	0.57723	0.52487	0.01087	-0.079
Mof_C 	C 	0.41983	0.46347	0.01127	0.136
Mof_H 	H 	0.62703	0.54077	0.01787	-0.102
Mof_C 	C 	0.33903	0.42627	0.02317	-0.613
Mof_H 	H 	0.30293	0.36877	0.01917	0.194
Mof_H 	H 	0.35123	0.42837	0.03747	0.208
Mof_H 	H 	0.31123	0.45807	0.02057	0.191
Mof_C 	C 	0.91853	0.50167	0.07517	-0.009
Mof_H 	H 	0.87403	0.50507	0.08097	0.029
Mof_C 	C 	0.93003	0.50827	0.05407	0.02
Mof_C 	C 	0.05203	0.49147	0.05767	-0.182
Mof_H 	H 	0.09653	0.48807	0.05187	0.083
Mof_C 	C 	0.04063	0.48527	0.07887	0.203
Mof_C 	C 	0.10073	0.47267	0.09187	-0.689
Mof_H 	H 	0.09043	0.47847	0.10597	0.229
Mof_H 	H 	0.15753	0.51397	0.08847	0.212
Mof_H 	H 	0.09233	0.41717	0.08957	0.22
Mof_C 	C 	0.87073	0.52097	0.04087	-0.462
Mof_H 	H 	0.88613	0.52237	0.02677	0.156
Mof_H 	H 	0.87363	0.57327	0.04427	0.147
Mof_H 	H 	0.81423	0.47537	0.04287	0.137
Mof_Cu	Cu	0.05049	0.52516	0.51631	0.9
Mof_O 	O 	0.9751	0.412	0.52687	-0.422
Mof_O 	O 	0.1114	0.4814	0.50041	-0.403
Mof_O 	O 	0.9737	0.5616	0.52685	-0.421
Mof_O 	O 	0.1118	0.6307	0.50038	-0.399
Mof_C 	C 	0.9097	0.551	0.5177	0.369
Mof_C 	C 	0.8522	0.5706	0.5273	-0.129
Mof_C 	C 	0.7884	0.5745	0.5177	0.061
Mof_C 	C 	0.8627	0.5972	0.5471	-0.006
Mof_C 	C 	0.7171	0.5722	0.5276	-0.122
Mof_H 	H 	0.7909	0.5788	0.5035	0.03
Mof_H 	H 	0.9076	0.6008	0.5545	0.039
Mof_C 	C 	0.8088	0.6188	0.5564	-0.018
Mof_C 	C 	0.732	0.5963	0.5482	-0.01
Mof_C 	C 	0.6403	0.5513	0.5178	0.366
Mof_C 	C 	0.8172	0.6406	0.5792	-0.021
Mof_H 	H 	0.6901	0.5968	0.5561	0.04
Mof_C 	C 	0.815	0.709	0.5875	0.068
Mof_C 	C 	0.8247	0.5831	0.5918	-0.241
Mof_C 	C 	0.807	0.771	0.5741	-0.545
Mof_C 	C 	0.8204	0.7208	0.6087	-0.031
Mof_C 	C 	0.8299	0.5948	0.6129	0.31
Mof_H 	H 	0.8263	0.5374	0.5861	0.111
Mof_H 	H 	0.758	0.7739	0.578	0.175
Mof_H 	H 	0.8562	0.8253	0.5754	0.17
Mof_H 	H 	0.8008	0.7523	0.5602	0.185
Mof_C 	C 	0.8269	0.6631	0.6213	-0.056
Mof_H 	H 	0.8195	0.7669	0.6143	0.006
Mof_C 	C 	0.838	0.533	0.6264	-0.968
Mof_C 	C 	0.823	0.656	0.6449	-0.046
Mof_H 	H 	0.8891	0.5332	0.6231	0.307
Mof_H 	H 	0.8401	0.5499	0.6404	0.387
Mof_H 	H 	0.7907	0.478	0.6244	0.299
Mof_C 	C 	0.8582	0.6143	0.6558	-0.083
Mof_C 	C 	0.7968	0.7103	0.6554	0.132
Mof_H 	H 	0.8741	0.5804	0.6488	-0.098
Mof_C 	C 	0.7596	0.7539	0.6435	-0.606
Mof_H 	H 	0.7021	0.7325	0.6475	0.191
Mof_H 	H 	0.7617	0.7438	0.6292	0.206
Mof_H 	H 	0.7914	0.8135	0.6461	0.188
Mof_C 	C 	0.835	0.2498	0.5915	-0.017
Mof_H 	H 	0.8384	0.2977	0.5857	0.032
Mof_C 	C 	0.8416	0.2449	0.6126	0.029
Mof_C 	C 	0.8248	0.1061	0.609	-0.174
Mof_H 	H 	0.8214	0.0582	0.6148	0.082
Mof_C 	C 	0.8186	0.1113	0.5878	0.189
Mof_C 	C 	0.806	0.0386	0.5748	-0.655
Mof_H 	H 	0.8118	0.0547	0.5607	0.218
Mof_H 	H 	0.8473	0.0231	0.5782	0.204
Mof_H 	H 	0.7505	0.9915	0.5771	0.206
Mof_C 	C 	0.8543	0.3169	0.6258	-0.473
Mof_H 	H 	0.8557	0.3029	0.6399	0.16
Mof_H 	H 	0.9066	0.3663	0.6224	0.152
Mof_H 	H 	0.8087	0.3278	0.6238	0.14
Mof_Cu	Cu	0.71716	0.85849	0.84964	0.9
Mof_O 	O 	0.64177	0.74533	0.8602	-0.422
Mof_O 	O 	0.77807	0.81473	0.83374	-0.402
Mof_O 	O 	0.64037	0.89493	0.86018	-0.423
Mof_O 	O 	0.77847	0.96403	0.83371	-0.398
Mof_C 	C 	0.57637	0.88433	0.85103	0.369
Mof_C 	C 	0.51887	0.90393	0.86063	-0.129
Mof_C 	C 	0.45507	0.90783	0.85103	0.06
Mof_C 	C 	0.52937	0.93053	0.88043	-0.009
Mof_C 	C 	0.38377	0.90553	0.86093	-0.122
Mof_H 	H 	0.45757	0.91213	0.83683	0.029
Mof_H 	H 	0.57427	0.93413	0.88783	0.039
Mof_C 	C 	0.47547	0.95213	0.88973	-0.015
Mof_C 	C 	0.39867	0.92963	0.88153	-0.013
Mof_C 	C 	0.30697	0.88463	0.85113	0.366
Mof_C 	C 	0.48387	0.97393	0.91253	-0.033
Mof_H 	H 	0.35677	0.93013	0.88943	0.04
Mof_C 	C 	0.48167	0.04233	0.92083	0.066
Mof_C 	C 	0.49137	0.91643	0.92513	-0.245
Mof_C 	C 	0.47367	0.10433	0.90743	-0.543
Mof_C 	C 	0.48707	0.05413	0.94203	-0.023
Mof_C 	C 	0.49657	0.92813	0.94623	0.314
Mof_H 	H 	0.49297	0.87073	0.91943	0.112
Mof_H 	H 	0.42467	0.10723	0.91133	0.175
Mof_H 	H 	0.52287	0.15863	0.90873	0.17
Mof_H 	H 	0.46747	0.08563	0.89353	0.186
Mof_C 	C 	0.49357	0.99643	0.95463	-0.055
Mof_H 	H 	0.48617	0.10023	0.94763	0.003
Mof_C 	C 	0.50467	0.86633	0.95973	-0.976
Mof_C 	C 	0.48967	0.98933	0.97823	-0.05
Mof_H 	H 	0.55577	0.86653	0.95643	0.308
Mof_H 	H 	0.50677	0.88323	0.97373	0.39
Mof_H 	H 	0.45737	0.81133	0.95773	0.301
Mof_C 	C 	0.52487	0.94763	0.98913	-0.079
Mof_C 	C 	0.46347	0.04363	0.98873	0.137
Mof_H 	H 	0.54077	0.91373	0.98213	-0.102
Mof_C 	C 	0.42627	0.08723	0.97683	-0.614
Mof_H 	H 	0.36877	0.06583	0.98083	0.194
Mof_H 	H 	0.42837	0.07713	0.96253	0.209
Mof_H 	H 	0.45807	0.14683	0.97943	0.191
Mof_C 	C 	0.50167	0.58313	0.92483	-0.01
Mof_H 	H 	0.50507	0.63103	0.91903	0.029
Mof_C 	C 	0.50827	0.57823	0.94593	0.02
Mof_C 	C 	0.49147	0.43943	0.94233	-0.182
Mof_H 	H 	0.48807	0.39153	0.94813	0.083
Mof_C 	C 	0.48527	0.44463	0.92113	0.198
Mof_C 	C 	0.47267	0.37193	0.90813	-0.683
Mof_H 	H 	0.47847	0.38803	0.89403	0.225
Mof_H 	H 	0.51397	0.35643	0.91153	0.211
Mof_H 	H 	0.41717	0.32483	0.91043	0.218
Mof_C 	C 	0.52097	0.65023	0.95913	-0.463
Mof_H 	H 	0.52237	0.63623	0.97323	0.156
Mof_H 	H 	0.57327	0.69963	0.95573	0.148
Mof_H 	H 	0.47537	0.66113	0.95713	0.137
Mof_Cu	Cu	0.38382	0.19183	0.18298	0.9
Mof_O 	O 	0.30843	0.07867	0.19354	-0.421
Mof_O 	O 	0.44473	0.14807	0.16708	-0.404
Mof_O 	O 	0.30703	0.22827	0.19352	-0.422
Mof_O 	O 	0.44513	0.29737	0.16705	-0.399
Mof_C 	C 	0.24303	0.21767	0.18437	0.367
Mof_C 	C 	0.18553	0.23727	0.19397	-0.123
Mof_C 	C 	0.12173	0.24117	0.18437	0.053
Mof_C 	C 	0.19603	0.26387	0.21377	-0.013
Mof_C 	C 	0.05043	0.23887	0.19427	-0.107
Mof_H 	H 	0.12423	0.24547	0.17017	0.034
Mof_H 	H 	0.24093	0.26747	0.22117	0.04
Mof_C 	C 	0.14213	0.28547	0.22307	-0.01
Mof_C 	C 	0.06533	0.26297	0.21487	-0.02
Mof_C 	C 	0.97363	0.21797	0.18447	0.354
Mof_C 	C 	0.15053	0.30727	0.24587	-0.031
Mof_H 	H 	0.02343	0.26347	0.22277	0.046
Mof_C 	C 	0.14833	0.37567	0.25417	0.054
Mof_C 	C 	0.15803	0.24977	0.25847	-0.261
Mof_C 	C 	0.14033	0.43767	0.24077	-0.531
Mof_C 	C 	0.15373	0.38747	0.27537	-0.014
Mof_C 	C 	0.16323	0.26147	0.27957	0.333
Mof_H 	H 	0.15963	0.20407	0.25277	0.117
Mof_H 	H 	0.09133	0.44057	0.24467	0.172
Mof_H 	H 	0.18953	0.49197	0.24207	0.166
Mof_H 	H 	0.13413	0.41897	0.22687	0.181
Mof_C 	C 	0.16023	0.32977	0.28797	-0.047
Mof_H 	H 	0.15283	0.43357	0.28097	-0
Mof_C 	C 	0.17133	0.19967	0.29307	-1.002
Mof_C 	C 	0.15633	0.32267	0.31157	-0.054
Mof_H 	H 	0.22243	0.19987	0.28977	0.316
Mof_H 	H 	0.17343	0.21657	0.30707	0.402
Mof_H 	H 	0.12403	0.14467	0.29107	0.309
Mof_C 	C 	0.19153	0.28097	0.32247	-0.072
Mof_C 	C 	0.13013	0.37697	0.32207	0.142
Mof_H 	H 	0.20743	0.24707	0.31547	-0.109
Mof_C 	C 	0.09293	0.42057	0.31017	-0.622
Mof_H 	H 	0.03543	0.39917	0.31417	0.198
Mof_H 	H 	0.09503	0.41047	0.29587	0.212
Mof_H 	H 	0.12473	0.48017	0.31277	0.194
Mof_C 	C 	0.16833	0.91647	0.25817	-0.007
Mof_H 	H 	0.17173	0.96437	0.25237	0.031
Mof_C 	C 	0.17493	0.91157	0.27927	0.015
Mof_C 	C 	0.15813	0.77277	0.27567	-0.184
Mof_H 	H 	0.15473	0.72487	0.28147	0.084
Mof_C 	C 	0.15193	0.77797	0.25447	0.201
Mof_C 	C 	0.13933	0.70527	0.24147	-0.688
Mof_H 	H 	0.14513	0.72137	0.22737	0.227
Mof_H 	H 	0.18063	0.68977	0.24487	0.212
Mof_H 	H 	0.08383	0.65817	0.24377	0.221
Mof_C 	C 	0.18763	0.98357	0.29247	-0.426
Mof_H 	H 	0.18903	0.96957	0.30657	0.148
Mof_H 	H 	0.23993	0.03297	0.28907	0.129
Mof_H 	H 	0.14203	0.99447	0.29047	0.13
Mof_Cu	Cu	0.47484	0.52533	0.51631	0.9
Mof_O 	O 	0.588	0.5631	0.52687	-0.423
Mof_O 	O 	0.5186	0.63	0.50041	-0.403
Mof_O 	O 	0.4384	0.4121	0.52685	-0.422
Mof_O 	O 	0.3693	0.4811	0.50038	-0.399
Mof_C 	C 	0.449	0.3587	0.5177	0.37
Mof_C 	C 	0.4294	0.2816	0.5273	-0.129
Mof_C 	C 	0.4255	0.2139	0.5177	0.061
Mof_C 	C 	0.4028	0.2655	0.5471	-0.006
Mof_C 	C 	0.4278	0.1449	0.5276	-0.122
Mof_H 	H 	0.4212	0.2121	0.5035	0.03
Mof_H 	H 	0.3992	0.3068	0.5545	0.038
Mof_C 	C 	0.3812	0.19	0.5564	-0.019
Mof_C 	C 	0.4037	0.1357	0.5482	-0.01
Mof_C 	C 	0.4487	0.089	0.5178	0.366
Mof_C 	C 	0.3594	0.1766	0.5792	-0.019
Mof_H 	H 	0.4032	0.0933	0.5561	0.041
Mof_C 	C 	0.291	0.106	0.5875	0.047
Mof_C 	C 	0.4169	0.2416	0.5918	-0.252
Mof_C 	C 	0.229	0.036	0.5741	-0.503
Mof_C 	C 	0.2792	0.0996	0.6087	-0.013
Mof_C 	C 	0.4052	0.2351	0.6129	0.319
Mof_H 	H 	0.4626	0.2889	0.5861	0.114
Mof_H 	H 	0.2261	0.9841	0.578	0.159
Mof_H 	H 	0.1747	0.0309	0.5754	0.158
Mof_H 	H 	0.2477	0.0485	0.5602	0.173
Mof_C 	C 	0.3369	0.1638	0.6213	-0.06
Mof_H 	H 	0.2331	0.0526	0.6143	0.004
Mof_C 	C 	0.467	0.305	0.6264	-0.98
Mof_C 	C 	0.344	0.167	0.6449	-0.039
Mof_H 	H 	0.4668	0.3559	0.6231	0.309
Mof_H 	H 	0.4501	0.2902	0.6404	0.391
Mof_H 	H 	0.522	0.3127	0.6244	0.302
Mof_C 	C 	0.3857	0.2439	0.6558	-0.085
Mof_C 	C 	0.2897	0.0865	0.6554	0.113
Mof_H 	H 	0.4196	0.2937	0.6488	-0.1
Mof_C 	C 	0.2461	0.0057	0.6435	-0.525
Mof_H 	H 	0.2675	0.9696	0.6475	0.161
Mof_H 	H 	0.2562	0.0179	0.6292	0.183
Mof_H 	H 	0.1865	0.9779	0.6461	0.159
Mof_C 	C 	0.7502	0.5852	0.5915	-0.018
Mof_H 	H 	0.7023	0.5407	0.5857	0.032
Mof_C 	C 	0.7551	0.5967	0.6126	0.027
Mof_C 	C 	0.8939	0.7187	0.609	-0.17
Mof_H 	H 	0.9418	0.7632	0.6148	0.08
Mof_C 	C 	0.8887	0.7073	0.5878	0.183
Mof_C 	C 	0.9614	0.7674	0.5748	-0.648
Mof_H 	H 	0.9453	0.7571	0.5607	0.215
Mof_H 	H 	0.9769	0.8242	0.5782	0.201
Mof_H 	H 	0.0085	0.759	0.5771	0.204
Mof_C 	C 	0.6831	0.5374	0.6258	-0.47
Mof_H 	H 	0.6971	0.5528	0.6399	0.158
Mof_H 	H 	0.6337	0.5403	0.6224	0.149
Mof_H 	H 	0.6722	0.4809	0.6238	0.139
Mof_Cu	Cu	0.14151	0.85866	0.84964	0.9
Mof_O 	O 	0.25467	0.89643	0.8602	-0.424
Mof_O 	O 	0.18527	0.96333	0.83374	-0.403
Mof_O 	O 	0.10507	0.74543	0.86018	-0.423
Mof_O 	O 	0.03597	0.81443	0.83371	-0.4
Mof_C 	C 	0.11567	0.69203	0.85103	0.369
Mof_C 	C 	0.09607	0.61493	0.86063	-0.129
Mof_C 	C 	0.09217	0.54723	0.85103	0.06
Mof_C 	C 	0.06947	0.59883	0.88043	-0.009
Mof_C 	C 	0.09447	0.47823	0.86093	-0.122
Mof_H 	H 	0.08787	0.54543	0.83683	0.029
Mof_H 	H 	0.06587	0.64013	0.88783	0.038
Mof_C 	C 	0.04787	0.52333	0.88973	-0.015
Mof_C 	C 	0.07037	0.46903	0.88153	-0.013
Mof_C 	C 	0.11537	0.42233	0.85113	0.366
Mof_C 	C 	0.02607	0.50993	0.91253	-0.034
Mof_H 	H 	0.06987	0.42663	0.88943	0.04
Mof_C 	C 	0.95767	0.43933	0.92083	0.067
Mof_C 	C 	0.08357	0.57493	0.92513	-0.244
Mof_C 	C 	0.89567	0.36933	0.90743	-0.546
Mof_C 	C 	0.94587	0.43293	0.94203	-0.025
Mof_C 	C 	0.07187	0.56843	0.94623	0.313
Mof_H 	H 	0.12927	0.62223	0.91943	0.111
Mof_H 	H 	0.89277	0.31743	0.91133	0.176
Mof_H 	H 	0.84137	0.36423	0.90873	0.171
Mof_H 	H 	0.91437	0.38183	0.89353	0.187
Mof_C 	C 	0.00357	0.49713	0.95463	-0.055
Mof_H 	H 	0.89977	0.38593	0.94763	0.004
Mof_C 	C 	0.13367	0.63833	0.95973	-0.973
Mof_C 	C 	0.01067	0.50033	0.97823	-0.05
Mof_H 	H 	0.13347	0.68923	0.95643	0.307
Mof_H 	H 	0.11677	0.62353	0.97373	0.39
Mof_H 	H 	0.18867	0.64603	0.95773	0.3
Mof_C 	C 	0.05237	0.57723	0.98913	-0.079
Mof_C 	C 	0.95637	0.41983	0.98873	0.137
Mof_H 	H 	0.08627	0.62703	0.98213	-0.101
Mof_C 	C 	0.91277	0.33903	0.97683	-0.615
Mof_H 	H 	0.93417	0.30293	0.98083	0.194
Mof_H 	H 	0.92287	0.35123	0.96253	0.209
Mof_H 	H 	0.85317	0.31123	0.97943	0.191
Mof_C 	C 	0.41687	0.91853	0.92483	-0.008
Mof_H 	H 	0.36897	0.87403	0.91903	0.028
Mof_C 	C 	0.42177	0.93003	0.94593	0.018
Mof_C 	C 	0.56057	0.05203	0.94233	-0.183
Mof_H 	H 	0.60847	0.09653	0.94813	0.084
Mof_C 	C 	0.55537	0.04063	0.92113	0.205
Mof_C 	C 	0.62807	0.10073	0.90813	-0.691
Mof_H 	H 	0.61197	0.09043	0.89403	0.229
Mof_H 	H 	0.64357	0.15753	0.91153	0.213
Mof_H 	H 	0.67517	0.09233	0.91043	0.221
Mof_C 	C 	0.34977	0.87073	0.95913	-0.461
Mof_H 	H 	0.36377	0.88613	0.97323	0.156
Mof_H 	H 	0.30037	0.87363	0.95573	0.146
Mof_H 	H 	0.33887	0.81423	0.95713	0.136
Mof_Cu	Cu	0.80817	0.192	0.18298	0.9
Mof_O 	O 	0.92133	0.22977	0.19354	-0.423
Mof_O 	O 	0.85193	0.29667	0.16708	-0.404
Mof_O 	O 	0.77173	0.07877	0.19352	-0.422
Mof_O 	O 	0.70263	0.14777	0.16705	-0.4
Mof_C 	C 	0.78233	0.02537	0.18437	0.356
Mof_C 	C 	0.76273	0.94827	0.19397	-0.112
Mof_C 	C 	0.75883	0.88057	0.18437	0.051
Mof_C 	C 	0.73613	0.93217	0.21377	-0.019
Mof_C 	C 	0.76113	0.81157	0.19427	-0.115
Mof_H 	H 	0.75453	0.87877	0.17017	0.035
Mof_H 	H 	0.73253	0.97347	0.22117	0.045
Mof_C 	C 	0.71453	0.85667	0.22307	-0.008
Mof_C 	C 	0.73703	0.80237	0.21487	-0.018
Mof_C 	C 	0.78203	0.75567	0.18447	0.363
Mof_C 	C 	0.69273	0.84327	0.24587	-0.035
Mof_H 	H 	0.73653	0.75997	0.22277	0.042
Mof_C 	C 	0.62433	0.77267	0.25417	0.082
Mof_C 	C 	0.75023	0.90827	0.25847	-0.206
Mof_C 	C 	0.56233	0.70267	0.24077	-0.56
Mof_C 	C 	0.61253	0.76627	0.27537	-0.049
Mof_C 	C 	0.73853	0.90177	0.27957	0.263
Mof_H 	H 	0.79593	0.95557	0.25277	0.1
Mof_H 	H 	0.55943	0.65077	0.24467	0.179
Mof_H 	H 	0.50803	0.69757	0.24207	0.175
Mof_H 	H 	0.58103	0.71517	0.22687	0.189
Mof_C 	C 	0.67023	0.83047	0.28797	-0.041
Mof_H 	H 	0.56643	0.71927	0.28097	0.012
Mof_C 	C 	0.80033	0.97167	0.29307	-0.859
Mof_C 	C 	0.67733	0.83367	0.31157	-0.055
Mof_H 	H 	0.80013	0.02257	0.28977	0.266
Mof_H 	H 	0.78343	0.95687	0.30707	0.346
Mof_H 	H 	0.85533	0.97937	0.29107	0.267
Mof_C 	C 	0.71903	0.91057	0.32247	-0.072
Mof_C 	C 	0.62303	0.75317	0.32207	0.14
Mof_H 	H 	0.75293	0.96037	0.31547	-0.085
Mof_C 	C 	0.57943	0.67237	0.31017	-0.615
Mof_H 	H 	0.60083	0.63627	0.31417	0.194
Mof_H 	H 	0.58953	0.68457	0.29587	0.208
Mof_H 	H 	0.51983	0.64457	0.31277	0.191
Mof_C 	C 	0.08353	0.25187	0.25817	0.014
Mof_H 	H 	0.03563	0.20737	0.25237	0.022
Mof_C 	C 	0.08843	0.26337	0.27927	-0.01
Mof_C 	C 	0.22723	0.38537	0.27567	-0.197
Mof_H 	H 	0.27513	0.42987	0.28147	0.088
Mof_C 	C 	0.22203	0.37397	0.25447	0.21
Mof_C 	C 	0.29473	0.43407	0.24147	-0.695
Mof_H 	H 	0.27863	0.42377	0.22737	0.229
Mof_H 	H 	0.31023	0.49087	0.24487	0.214
Mof_H 	H 	0.34183	0.42567	0.24377	0.221
Mof_C 	C 	0.01643	0.20407	0.29247	-0.396
Mof_H 	H 	0.03043	0.21947	0.30657	0.138
Mof_H 	H 	0.96703	0.20697	0.28907	0.121
Mof_H 	H 	0.00553	0.14757	0.29047	0.119
Mof_Cu	Cu	0.47467	0.94951	0.51631	0.9
Mof_O 	O 	0.4369	0.0249	0.52687	-0.422
Mof_O 	O 	0.37	0.8886	0.50041	-0.403
Mof_O 	O 	0.5879	0.0263	0.52685	-0.421
Mof_O 	O 	0.5189	0.8882	0.50038	-0.399
Mof_C 	C 	0.6413	0.0903	0.5177	0.369
Mof_C 	C 	0.7184	0.1478	0.5273	-0.129
Mof_C 	C 	0.7861	0.2116	0.5177	0.062
Mof_C 	C 	0.7345	0.1373	0.5471	-0.006
Mof_C 	C 	0.8551	0.2829	0.5276	-0.122
Mof_H 	H 	0.7879	0.2091	0.5035	0.03
Mof_H 	H 	0.6932	0.0924	0.5545	0.039
Mof_C 	C 	0.81	0.1912	0.5564	-0.019
Mof_C 	C 	0.8643	0.268	0.5482	-0.009
Mof_C 	C 	0.911	0.3597	0.5178	0.366
Mof_C 	C 	0.8234	0.1828	0.5792	-0.017
Mof_H 	H 	0.9067	0.3099	0.5561	0.04
Mof_C 	C 	0.894	0.185	0.5875	0.056
Mof_C 	C 	0.7584	0.1753	0.5918	-0.245
Mof_C 	C 	0.964	0.193	0.5741	-0.515
Mof_C 	C 	0.9004	0.1796	0.6087	-0.022
Mof_C 	C 	0.7649	0.1701	0.6129	0.314
Mof_H 	H 	0.7111	0.1737	0.5861	0.112
Mof_H 	H 	0.0159	0.242	0.578	0.163
Mof_H 	H 	0.9691	0.1438	0.5754	0.163
Mof_H 	H 	0.9515	0.1992	0.5602	0.177
Mof_C 	C 	0.8362	0.1731	0.6213	-0.061
Mof_H 	H 	0.9474	0.1805	0.6143	0.008
Mof_C 	C 	0.695	0.162	0.6264	-0.972
Mof_C 	C 	0.833	0.177	0.6449	-0.036
Mof_H 	H 	0.6441	0.1109	0.6231	0.308
Mof_H 	H 	0.7098	0.1599	0.6404	0.387
Mof_H 	H 	0.6873	0.2093	0.6244	0.3
Mof_C 	C 	0.7561	0.1418	0.6558	-0.088
Mof_C 	C 	0.9135	0.2032	0.6554	0.111
Mof_H 	H 	0.7063	0.1259	0.6488	-0.096
Mof_C 	C 	0.9943	0.2404	0.6435	-0.524
Mof_H 	H 	0.0304	0.2979	0.6475	0.162
Mof_H 	H 	0.9821	0.2383	0.6292	0.183
Mof_H 	H 	0.0221	0.2086	0.6461	0.16
Mof_C 	C 	0.4148	0.165	0.5915	-0.009
Mof_H 	H 	0.4593	0.1616	0.5857	0.029
Mof_C 	C 	0.4033	0.1584	0.6126	0.022
Mof_C 	C 	0.2813	0.1752	0.609	-0.186
Mof_H 	H 	0.2368	0.1786	0.6148	0.085
Mof_C 	C 	0.2927	0.1814	0.5878	0.203
Mof_C 	C 	0.2326	0.194	0.5748	-0.688
Mof_H 	H 	0.2429	0.1882	0.5607	0.227
Mof_H 	H 	0.1758	0.1527	0.5782	0.212
Mof_H 	H 	0.241	0.2495	0.5771	0.219
Mof_C 	C 	0.4626	0.1457	0.6258	-0.466
Mof_H 	H 	0.4472	0.1443	0.6399	0.158
Mof_H 	H 	0.4597	0.0934	0.6224	0.15
Mof_H 	H 	0.5191	0.1913	0.6238	0.138
Mof_Cu	Cu	0.14134	0.28284	0.84964	0.9
Mof_O 	O 	0.10357	0.35823	0.8602	-0.423
Mof_O 	O 	0.03667	0.22193	0.83374	-0.401
Mof_O 	O 	0.25457	0.35963	0.86018	-0.422
Mof_O 	O 	0.18557	0.22153	0.83371	-0.399
Mof_C 	C 	0.30797	0.42363	0.85103	0.369
Mof_C 	C 	0.38507	0.48113	0.86063	-0.129
Mof_C 	C 	0.45277	0.54493	0.85103	0.061
Mof_C 	C 	0.40117	0.47063	0.88043	-0.007
Mof_C 	C 	0.52177	0.61623	0.86093	-0.121
Mof_H 	H 	0.45457	0.54243	0.83683	0.03
Mof_H 	H 	0.35987	0.42573	0.88783	0.039
Mof_C 	C 	0.47667	0.52453	0.88973	-0.017
Mof_C 	C 	0.53097	0.60133	0.88153	-0.011
Mof_C 	C 	0.57767	0.69303	0.85113	0.366
Mof_C 	C 	0.49007	0.51613	0.91253	-0.024
Mof_H 	H 	0.57337	0.64323	0.88943	0.04
Mof_C 	C 	0.56067	0.51833	0.92083	0.06
Mof_C 	C 	0.42507	0.50863	0.92513	-0.247
Mof_C 	C 	0.63067	0.52633	0.90743	-0.537
Mof_C 	C 	0.56707	0.51293	0.94203	-0.024
Mof_C 	C 	0.43157	0.50343	0.94623	0.315
Mof_H 	H 	0.37777	0.50703	0.91943	0.112
Mof_H 	H 	0.68257	0.57533	0.91133	0.173
Mof_H 	H 	0.63577	0.47713	0.90873	0.168
Mof_H 	H 	0.61817	0.53253	0.89353	0.182
Mof_C 	C 	0.50287	0.50643	0.95463	-0.054
Mof_H 	H 	0.61407	0.51383	0.94763	0.003
Mof_C 	C 	0.36167	0.49533	0.95973	-0.976
Mof_C 	C 	0.49967	0.51033	0.97823	-0.05
Mof_H 	H 	0.31077	0.44423	0.95643	0.309
Mof_H 	H 	0.37647	0.49323	0.97373	0.391
Mof_H 	H 	0.35397	0.54263	0.95773	0.301
Mof_C 	C 	0.42277	0.47513	0.98913	-0.079
Mof_C 	C 	0.58017	0.53653	0.98873	0.136
Mof_H 	H 	0.37297	0.45923	0.98213	-0.102
Mof_C 	C 	0.66097	0.57373	0.97683	-0.613
Mof_H 	H 	0.69707	0.63123	0.98083	0.194
Mof_H 	H 	0.64877	0.57163	0.96253	0.208
Mof_H 	H 	0.68877	0.54193	0.97943	0.191
Mof_C 	C 	0.08147	0.49833	0.92483	-0.009
Mof_H 	H 	0.12597	0.49493	0.91903	0.029
Mof_C 	C 	0.06997	0.49173	0.94593	0.02
Mof_C 	C 	0.94797	0.50853	0.94233	-0.182
Mof_H 	H 	0.90347	0.51193	0.94813	0.083
Mof_C 	C 	0.95937	0.51473	0.92113	0.203
Mof_C 	C 	0.89927	0.52733	0.90813	-0.689
Mof_H 	H 	0.90957	0.52153	0.89403	0.229
Mof_H 	H 	0.84247	0.48603	0.91153	0.212
Mof_H 	H 	0.90767	0.58283	0.91043	0.22
Mof_C 	C 	0.12927	0.47903	0.95913	-0.462
Mof_H 	H 	0.11387	0.47763	0.97323	0.156
Mof_H 	H 	0.12637	0.42673	0.95573	0.147
Mof_H 	H 	0.18577	0.52463	0.95713	0.137
Mof_Cu	Cu	0.808	0.61618	0.18298	0.9
Mof_O 	O 	0.77023	0.69157	0.19354	-0.423
Mof_O 	O 	0.70333	0.55527	0.16708	-0.403
Mof_O 	O 	0.92123	0.69297	0.19352	-0.421
Mof_O 	O 	0.85223	0.55487	0.16705	-0.4
Mof_C 	C 	0.97463	0.75697	0.18437	0.353
Mof_C 	C 	0.05173	0.81447	0.19397	-0.105
Mof_C 	C 	0.11943	0.87827	0.18437	0.043
Mof_C 	C 	0.06783	0.80397	0.21377	-0.025
Mof_C 	C 	0.18843	0.94957	0.19427	-0.099
Mof_H 	H 	0.12123	0.87577	0.17017	0.039
Mof_H 	H 	0.02653	0.75907	0.22117	0.047
Mof_C 	C 	0.14333	0.85787	0.22307	-0
Mof_C 	C 	0.19763	0.93467	0.21487	-0.027
Mof_C 	C 	0.24433	0.02637	0.18447	0.351
Mof_C 	C 	0.15673	0.84947	0.24587	-0.041
Mof_H 	H 	0.24003	0.97657	0.22277	0.048
Mof_C 	C 	0.22733	0.85167	0.25417	0.074
Mof_C 	C 	0.09173	0.84197	0.25847	-0.226
Mof_C 	C 	0.29733	0.85967	0.24077	-0.554
Mof_C 	C 	0.23373	0.84627	0.27537	-0.037
Mof_C 	C 	0.09823	0.83677	0.27957	0.287
Mof_H 	H 	0.04443	0.84037	0.25277	0.107
Mof_H 	H 	0.34923	0.90867	0.24467	0.179
Mof_H 	H 	0.30243	0.81047	0.24207	0.173
Mof_H 	H 	0.28483	0.86587	0.22687	0.188
Mof_C 	C 	0.16953	0.83977	0.28797	-0.036
Mof_H 	H 	0.28073	0.84717	0.28097	0.008
Mof_C 	C 	0.02833	0.82867	0.29307	-0.898
Mof_C 	C 	0.16633	0.84367	0.31157	-0.059
Mof_H 	H 	0.97743	0.77757	0.28977	0.278
Mof_H 	H 	0.04313	0.82657	0.30707	0.363
Mof_H 	H 	0.02063	0.87597	0.29107	0.282
Mof_C 	C 	0.08943	0.80847	0.32247	-0.065
Mof_C 	C 	0.24683	0.86987	0.32207	0.146
Mof_H 	H 	0.03963	0.79257	0.31547	-0.093
Mof_C 	C 	0.32763	0.90707	0.31017	-0.626
Mof_H 	H 	0.36373	0.96457	0.31417	0.199
Mof_H 	H 	0.31543	0.90497	0.29587	0.212
Mof_H 	H 	0.35543	0.87527	0.31277	0.195
Mof_C 	C 	0.74813	0.83167	0.25817	-0.033
Mof_H 	H 	0.79263	0.82827	0.25237	0.037
Mof_C 	C 	0.73663	0.82507	0.27927	0.046
Mof_C 	C 	0.61463	0.84187	0.27567	-0.167
Mof_H 	H 	0.57013	0.84527	0.28147	0.078
Mof_C 	C 	0.62603	0.84807	0.25447	0.187
Mof_C 	C 	0.56593	0.86067	0.24147	-0.672
Mof_H 	H 	0.57623	0.85487	0.22737	0.222
Mof_H 	H 	0.50913	0.81937	0.24487	0.207
Mof_H 	H 	0.57433	0.91617	0.24377	0.216
Mof_C 	C 	0.79593	0.81237	0.29247	-0.491
Mof_H 	H 	0.78053	0.81097	0.30657	0.165
Mof_H 	H 	0.79303	0.76007	0.28907	0.155
Mof_H 	H 	0.85243	0.85797	0.29047	0.146
_end
