data_functionalizedCrystal
_audit_creation_method	'EQeq! by Chris Wilmer'
_symmetry_space_group_name_H-M	'P1'
_symmetry_Int_Tables_number	1
_symmetry_cell_setting	triclinic
loop_
_symmetry_equiv_pos_as_xyz
  x,y,z
_cell_length_a	13.327
_cell_length_b	14.151
_cell_length_c	26.532
_cell_angle_alpha	90
_cell_angle_beta	101.512
_cell_angle_gamma	90
loop_
_atom_site_label
_atom_site_type_symbol
_atom_site_fract_x
_atom_site_fract_y
_atom_site_fract_z
_atom_site_charge
Mof_Co	Co	0.01706	0.86675	0.26907	1.077
Mof_Co	Co	0.01055	0.11352	0.24393	1.076
Mof_Co	Co	0.98294	0.36675	0.23093	1.076
Mof_Co	Co	0.98945	0.61352	0.25607	1.075
Mof_Co	Co	0.98294	0.13325	0.73093	1.076
Mof_Co	Co	0.98945	0.88648	0.75607	1.075
Mof_Co	Co	0.01706	0.63325	0.76907	1.076
Mof_Co	Co	0.01055	0.38648	0.74393	1.075
Mof_H 	H 	0.2698	0.8593	0.2955	-0.006
Mof_H 	H 	0.2422	0.1189	0.2328	-0.007
Mof_H 	H 	0.7938	0.8652	0.2945	-0.008
Mof_H 	H 	0.7655	0.1226	0.2298	-0.017
Mof_H 	H 	0.6186	0.8647	0.299	0.045
Mof_H 	H 	0.4469	0.8709	0.3028	0.042
Mof_H 	H 	0.415	0.1174	0.2265	0.043
Mof_H 	H 	0.5893	0.1221	0.2297	0.044
Mof_H 	H 	0.9752	0.5843	0.3763	0.002
Mof_H 	H 	0.017	0.8626	0.389	-0.001
Mof_H 	H 	0.9287	0.8563	0.4573	0.044
Mof_H 	H 	0.9243	0.8646	0.5459	0.045
Mof_H 	H 	0.0156	0.5933	0.5621	0.044
Mof_H 	H 	0.0307	0.5879	0.4751	0.045
Mof_H 	H 	0.007	0.601	0.6499	-0.018
Mof_H 	H 	0.9307	0.8761	0.6319	-0.013
Mof_H 	H 	0.7302	0.3593	0.2045	-0.006
Mof_H 	H 	0.7578	0.6189	0.2672	-0.007
Mof_H 	H 	0.2062	0.3652	0.2055	-0.008
Mof_H 	H 	0.2345	0.6226	0.2702	-0.017
Mof_H 	H 	0.3814	0.3647	0.201	0.045
Mof_H 	H 	0.5531	0.3709	0.1972	0.042
Mof_H 	H 	0.585	0.6174	0.2735	0.043
Mof_H 	H 	0.4107	0.6221	0.2703	0.044
Mof_H 	H 	0.0248	0.0843	0.1237	0.002
Mof_H 	H 	0.983	0.3626	0.111	-0.001
Mof_H 	H 	0.0713	0.3563	0.0427	0.044
Mof_H 	H 	0.0757	0.3646	0.9541	0.045
Mof_H 	H 	0.9844	0.0933	0.9379	0.044
Mof_H 	H 	0.9693	0.0879	0.0249	0.045
Mof_H 	H 	0.993	0.101	0.8501	-0.019
Mof_H 	H 	0.0693	0.3761	0.8681	-0.013
Mof_H 	H 	0.7302	0.1407	0.7045	-0.006
Mof_H 	H 	0.7578	0.8811	0.7672	-0.007
Mof_H 	H 	0.2062	0.1348	0.7055	-0.008
Mof_H 	H 	0.2345	0.8774	0.7702	-0.017
Mof_H 	H 	0.3814	0.1353	0.701	0.045
Mof_H 	H 	0.5531	0.1291	0.6972	0.042
Mof_H 	H 	0.585	0.8826	0.7735	0.043
Mof_H 	H 	0.4107	0.8779	0.7703	0.044
Mof_H 	H 	0.0248	0.4157	0.6237	0.002
Mof_H 	H 	0.983	0.1374	0.611	-0.001
Mof_H 	H 	0.0713	0.1437	0.5427	0.044
Mof_H 	H 	0.0757	0.1354	0.4541	0.045
Mof_H 	H 	0.9844	0.4067	0.4379	0.044
Mof_H 	H 	0.9693	0.4121	0.5249	0.045
Mof_H 	H 	0.993	0.399	0.3501	-0.018
Mof_H 	H 	0.0693	0.1239	0.3681	-0.013
Mof_H 	H 	0.2698	0.6407	0.7955	-0.006
Mof_H 	H 	0.2422	0.3811	0.7328	-0.007
Mof_H 	H 	0.7938	0.6348	0.7945	-0.008
Mof_H 	H 	0.7655	0.3774	0.7298	-0.017
Mof_H 	H 	0.6186	0.6353	0.799	0.045
Mof_H 	H 	0.4469	0.6291	0.8028	0.042
Mof_H 	H 	0.415	0.3826	0.7265	0.043
Mof_H 	H 	0.5893	0.3779	0.7297	0.044
Mof_H 	H 	0.9752	0.9157	0.8763	0.002
Mof_H 	H 	0.017	0.6374	0.889	-0.001
Mof_H 	H 	0.9287	0.6437	0.9573	0.044
Mof_H 	H 	0.9243	0.6354	0.0459	0.045
Mof_H 	H 	0.0156	0.9067	0.0621	0.044
Mof_H 	H 	0.0307	0.9121	0.9751	0.045
Mof_H 	H 	0.007	0.899	0.1499	-0.019
Mof_H 	H 	0.9307	0.6239	0.1319	-0.013
Mof_C 	C 	0.2428	0.9173	0.2805	0.009
Mof_C 	C 	0.2993	0.992	0.2635	-0.039
Mof_C 	C 	0.2276	0.0595	0.2464	0.02
Mof_C 	C 	0.8079	0.9227	0.2788	0.031
Mof_C 	C 	0.732	0.9939	0.2612	-0.051
Mof_C 	C 	0.7913	0.0634	0.2435	0.027
Mof_C 	C 	0.6245	0.9935	0.2647	0.033
Mof_C 	C 	0.5788	0.918	0.2855	-0.064
Mof_C 	C 	0.4756	0.9211	0.2865	-0.056
Mof_C 	C 	0.4128	0.9932	0.2653	0.024
Mof_C 	C 	0.457	0.0674	0.2427	-0.056
Mof_C 	C 	0.5604	0.0691	0.2436	-0.062
Mof_C 	C 	0.9841	0.6488	0.3684	-0.002
Mof_C 	C 	0.9887	0.7236	0.403	-0.026
Mof_C 	C 	0.0072	0.8004	0.3754	-0.003
Mof_C 	C 	0.9814	0.7227	0.4589	0.025
Mof_C 	C 	0.9488	0.8032	0.4788	-0.059
Mof_C 	C 	0.9447	0.8076	0.5319	-0.065
Mof_C 	C 	0.9696	0.732	0.5625	0.033
Mof_C 	C 	0.0001	0.6477	0.5411	-0.062
Mof_C 	C 	0.0078	0.6438	0.4891	-0.06
Mof_C 	C 	0.9936	0.6654	0.6563	0.02
Mof_C 	C 	0.971	0.7386	0.6184	-0.045
Mof_C 	C 	0.9526	0.8163	0.6462	0.026
Mof_C 	C 	0.7572	0.4173	0.2195	0.008
Mof_C 	C 	0.7007	0.492	0.2365	-0.037
Mof_C 	C 	0.7724	0.5595	0.2536	0.019
Mof_C 	C 	0.1921	0.4227	0.2212	0.032
Mof_C 	C 	0.268	0.4939	0.2388	-0.052
Mof_C 	C 	0.2087	0.5634	0.2565	0.028
Mof_C 	C 	0.3755	0.4935	0.2353	0.033
Mof_C 	C 	0.4212	0.418	0.2145	-0.064
Mof_C 	C 	0.5244	0.4211	0.2135	-0.056
Mof_C 	C 	0.5872	0.4932	0.2347	0.024
Mof_C 	C 	0.543	0.5674	0.2573	-0.056
Mof_C 	C 	0.4396	0.5691	0.2564	-0.062
Mof_C 	C 	0.0159	0.1488	0.1316	-0.002
Mof_C 	C 	0.0113	0.2236	0.097	-0.026
Mof_C 	C 	0.9928	0.3004	0.1246	-0.003
Mof_C 	C 	0.0186	0.2227	0.0411	0.026
Mof_C 	C 	0.0512	0.3032	0.0212	-0.06
Mof_C 	C 	0.0553	0.3076	0.9681	-0.065
Mof_C 	C 	0.0304	0.232	0.9375	0.033
Mof_C 	C 	0.9999	0.1477	0.9589	-0.062
Mof_C 	C 	0.9922	0.1438	0.0109	-0.061
Mof_C 	C 	0.0064	0.1654	0.8437	0.022
Mof_C 	C 	0.029	0.2386	0.8816	-0.046
Mof_C 	C 	0.0474	0.3163	0.8538	0.026
Mof_C 	C 	0.7572	0.0827	0.7195	0.009
Mof_C 	C 	0.7007	0.008	0.7365	-0.039
Mof_C 	C 	0.7724	0.9405	0.7536	0.02
Mof_C 	C 	0.1921	0.0773	0.7212	0.031
Mof_C 	C 	0.268	0.0061	0.7388	-0.051
Mof_C 	C 	0.2087	0.9366	0.7565	0.027
Mof_C 	C 	0.3755	0.0065	0.7353	0.033
Mof_C 	C 	0.4212	0.082	0.7145	-0.064
Mof_C 	C 	0.5244	0.0789	0.7135	-0.056
Mof_C 	C 	0.5872	0.0068	0.7347	0.024
Mof_C 	C 	0.543	0.9326	0.7573	-0.056
Mof_C 	C 	0.4396	0.9309	0.7564	-0.062
Mof_C 	C 	0.0159	0.3512	0.6316	-0.002
Mof_C 	C 	0.0113	0.2764	0.597	-0.026
Mof_C 	C 	0.9928	0.1996	0.6246	-0.003
Mof_C 	C 	0.0186	0.2773	0.5411	0.025
Mof_C 	C 	0.0512	0.1968	0.5212	-0.059
Mof_C 	C 	0.0553	0.1924	0.4681	-0.065
Mof_C 	C 	0.0304	0.268	0.4375	0.033
Mof_C 	C 	0.9999	0.3523	0.4589	-0.062
Mof_C 	C 	0.9922	0.3562	0.5109	-0.06
Mof_C 	C 	0.0064	0.3346	0.3437	0.02
Mof_C 	C 	0.029	0.2614	0.3816	-0.045
Mof_C 	C 	0.0474	0.1837	0.3538	0.026
Mof_C 	C 	0.2428	0.5827	0.7805	0.008
Mof_C 	C 	0.2993	0.508	0.7635	-0.037
Mof_C 	C 	0.2276	0.4405	0.7464	0.019
Mof_C 	C 	0.8079	0.5773	0.7788	0.032
Mof_C 	C 	0.732	0.5061	0.7612	-0.052
Mof_C 	C 	0.7913	0.4366	0.7435	0.028
Mof_C 	C 	0.6245	0.5065	0.7647	0.033
Mof_C 	C 	0.5788	0.582	0.7855	-0.064
Mof_C 	C 	0.4756	0.5789	0.7865	-0.056
Mof_C 	C 	0.4128	0.5068	0.7653	0.024
Mof_C 	C 	0.457	0.4326	0.7427	-0.056
Mof_C 	C 	0.5604	0.4309	0.7436	-0.062
Mof_C 	C 	0.9841	0.8512	0.8684	-0.002
Mof_C 	C 	0.9887	0.7764	0.903	-0.026
Mof_C 	C 	0.0072	0.6996	0.8754	-0.003
Mof_C 	C 	0.9814	0.7773	0.9589	0.026
Mof_C 	C 	0.9488	0.6968	0.9788	-0.06
Mof_C 	C 	0.9447	0.6924	0.0319	-0.065
Mof_C 	C 	0.9696	0.768	0.0625	0.033
Mof_C 	C 	0.0001	0.8523	0.0411	-0.062
Mof_C 	C 	0.0078	0.8562	0.9891	-0.061
Mof_C 	C 	0.9936	0.8346	0.1563	0.022
Mof_C 	C 	0.971	0.7614	0.1184	-0.046
Mof_C 	C 	0.9526	0.6837	0.1462	0.026
Mof_N 	N 	0.1433	0.9444	0.2714	-0.249
Mof_N 	N 	0.1337	0.0314	0.2511	-0.255
Mof_N 	N 	0.8992	0.946	0.2706	-0.266
Mof_N 	N 	0.8884	0.0363	0.2482	-0.263
Mof_N 	N 	0.9946	0.6832	0.3201	-0.251
Mof_N 	N 	0.0101	0.7763	0.3241	-0.255
Mof_N 	N 	0.9925	0.7039	0.7018	-0.249
Mof_N 	N 	0.9698	0.7957	0.696	-0.246
Mof_N 	N 	0.8567	0.4444	0.2286	-0.249
Mof_N 	N 	0.8663	0.5314	0.2489	-0.255
Mof_N 	N 	0.1008	0.446	0.2294	-0.266
Mof_N 	N 	0.1116	0.5363	0.2518	-0.262
Mof_N 	N 	0.0054	0.1832	0.1799	-0.251
Mof_N 	N 	0.9899	0.2763	0.1759	-0.255
Mof_N 	N 	0.0075	0.2039	0.7982	-0.249
Mof_N 	N 	0.0302	0.2957	0.804	-0.246
Mof_N 	N 	0.8567	0.0556	0.7286	-0.249
Mof_N 	N 	0.8663	0.9686	0.7489	-0.255
Mof_N 	N 	0.1008	0.054	0.7294	-0.266
Mof_N 	N 	0.1116	0.9637	0.7518	-0.263
Mof_N 	N 	0.0054	0.3168	0.6799	-0.251
Mof_N 	N 	0.9899	0.2237	0.6759	-0.255
Mof_N 	N 	0.0075	0.2961	0.2982	-0.249
Mof_N 	N 	0.0302	0.2043	0.304	-0.246
Mof_N 	N 	0.1433	0.5556	0.7714	-0.249
Mof_N 	N 	0.1337	0.4686	0.7511	-0.255
Mof_N 	N 	0.8992	0.554	0.7706	-0.266
Mof_N 	N 	0.8884	0.4637	0.7482	-0.262
Mof_N 	N 	0.9946	0.8168	0.8201	-0.251
Mof_N 	N 	0.0101	0.7237	0.8241	-0.255
Mof_N 	N 	0.9925	0.7961	0.2018	-0.249
Mof_N 	N 	0.9698	0.7043	0.196	-0.246
_end
