# CIF file generated by openbabel 3.1.0, see https://openbabel.org
data_I
_chemical_name_common 'image0'
_cell_length_a 13.6376
_cell_length_b 13.6376
_cell_length_c 6.2054
_cell_angle_alpha 90
_cell_angle_beta 90
_cell_angle_gamma 90
_space_group_name_H-M_alt 'P 1'
_space_group_name_Hall 'P 1'
loop_
    _symmetry_equiv_pos_as_xyz
    x,y,z
loop_
    _atom_site_label
    _atom_site_type_symbol
    _atom_site_fract_x
    _atom_site_fract_y
    _atom_site_fract_z
    _atom_site_occupancy
    S1       S        0.47262    0.60431    0.24374    1.000
    N1       N        0.32630    0.65270    0.74980    1.000
    C1       C        0.38030    0.55840    0.08440    1.000
    C2       C        0.34740    0.46910    0.15460    1.000
    H1       H        0.29740    0.43230    0.08520    1.000
    C3       C        0.39660    0.43870    0.34170    1.000
    H2       H        0.38240    0.37930    0.41500    1.000
    C4       C        0.46710    0.50330    0.40780    1.000
    C5       C        0.34970    0.61030    0.89840    1.000
    S2       S        0.02738    0.89569    0.24374    1.000
    N2       N        0.17370    0.84730    0.74980    1.000
    C6       C        0.11970    0.94160    0.08440    1.000
    C7       C        0.15260    0.03090    0.15460    1.000
    H3       H        0.20260    0.06770    0.08520    1.000
    C8       C        0.10340    0.06130    0.34170    1.000
    H4       H        0.11760    0.12070    0.41500    1.000
    C9       C        0.03290    0.99670    0.40780    1.000
    C10      C        0.15030    0.88970    0.89840    1.000
    S3       S        0.89569    0.47262    0.24374    1.000
    N3       N        0.84730    0.32630    0.74980    1.000
    C11      C        0.94160    0.38030    0.08440    1.000
    C12      C        0.03090    0.34740    0.15460    1.000
    H5       H        0.06770    0.29740    0.08520    1.000
    C13      C        0.06130    0.39660    0.34170    1.000
    H6       H        0.12070    0.38240    0.41500    1.000
    C14      C        0.99670    0.46710    0.40780    1.000
    C15      C        0.88970    0.34970    0.89840    1.000
    S4       S        0.60431    0.02738    0.24374    1.000
    N4       N        0.65270    0.17370    0.74980    1.000
    C16      C        0.55840    0.11970    0.08440    1.000
    C17      C        0.46910    0.15260    0.15460    1.000
    H7       H        0.43230    0.20260    0.08520    1.000
    C18      C        0.43870    0.10340    0.34170    1.000
    H8       H        0.37930    0.11760    0.41500    1.000
    C19      C        0.50330    0.03290    0.40780    1.000
    C20      C        0.61030    0.15030    0.89840    1.000
    S5       S        0.52738    0.39569    0.75626    1.000
    N5       N        0.67370    0.34730    0.25020    1.000
    C21      C        0.61970    0.44160    0.91560    1.000
    C22      C        0.65260    0.53090    0.84540    1.000
    H9       H        0.70260    0.56770    0.91480    1.000
    C23      C        0.60340    0.56130    0.65830    1.000
    H10      H        0.61760    0.62070    0.58500    1.000
    C24      C        0.53290    0.49670    0.59220    1.000
    C25      C        0.65030    0.38970    0.10160    1.000
    S6       S        0.97262    0.10431    0.75626    1.000
    N6       N        0.82630    0.15270    0.25020    1.000
    C26      C        0.88030    0.05840    0.91560    1.000
    C27      C        0.84740    0.96910    0.84540    1.000
    H11      H        0.79740    0.93230    0.91480    1.000
    C28      C        0.89660    0.93870    0.65830    1.000
    H12      H        0.88240    0.87930    0.58500    1.000
    C29      C        0.96710    0.00330    0.59220    1.000
    C30      C        0.84970    0.11030    0.10160    1.000
    S7       S        0.10431    0.52738    0.75626    1.000
    N7       N        0.15270    0.67370    0.25020    1.000
    C31      C        0.05840    0.61970    0.91560    1.000
    C32      C        0.96910    0.65260    0.84540    1.000
    H13      H        0.93230    0.70260    0.91480    1.000
    C33      C        0.93870    0.60340    0.65830    1.000
    H14      H        0.87930    0.61760    0.58500    1.000
    C34      C        0.00330    0.53290    0.59220    1.000
    C35      C        0.11030    0.65030    0.10160    1.000
    S8       S        0.39569    0.97262    0.75626    1.000
    N8       N        0.34730    0.82630    0.25020    1.000
    C36      C        0.44160    0.88030    0.91560    1.000
    C37      C        0.53090    0.84740    0.84540    1.000
    H15      H        0.56770    0.79740    0.91480    1.000
    C38      C        0.56130    0.89660    0.65830    1.000
    H16      H        0.62070    0.88240    0.58500    1.000
    C39      C        0.49670    0.96710    0.59220    1.000
    C40      C        0.38970    0.84970    0.10160    1.000
    Ag1      Ag       0.25000    0.75000    0.50000    1.000
    Ag2      Ag       0.75000    0.25000    0.50000    1.000
