data_functionalizedCrystal
_audit_creation_method	'EQeq! by Chris Wilmer'
_symmetry_space_group_name_H-M	'P1'
_symmetry_Int_Tables_number	1
_symmetry_cell_setting	triclinic
loop_
_symmetry_equiv_pos_as_xyz
  x,y,z
_cell_length_a	13.8392
_cell_length_b	13.8392
_cell_length_c	23.269
_cell_angle_alpha	90
_cell_angle_beta	90
_cell_angle_gamma	120
loop_
_atom_site_label
_atom_site_type_symbol
_atom_site_fract_x
_atom_site_fract_y
_atom_site_fract_z
_atom_site_charge
Mof_O 	O 	0.6502	0.1373	0.3175	-0.734
Mof_O 	O 	0.8625	0.349	0.3174	-0.72
Mof_C 	C 	0.8748	0.1251	0.2946	0.164
Mof_C 	C 	0.5594	0.1188	0.3391	0.558
Mof_N 	N 	0.9281	0.0719	0.2793	-0.215
Mof_H 	H 	0.8629	0.1369	0.3327	-0.037
Mof_C 	C 	0.5577	0.0662	0.4004	-0.107
Mof_C 	C 	0.6409	0.0447	0.4186	0.105
Mof_C 	C 	0.4682	0.0519	0.4334	0.009
Mof_C 	C 	0.6304	0.0055	0.4749	-0.325
Mof_C 	C 	0.4588	0.0107	0.4896	0.198
Mof_C 	C 	0.5097	0.0674	0.3996	-0.106
Mof_C 	C 	0.5838	0.051	0.4327	0.03
Mof_C 	C 	0.5512	0.0104	0.4889	0.182
Mof_C 	C 	0.3756	0.0054	0.4756	-0.352
Mof_C 	C 	0.4059	0.0455	0.4196	0.113
Mof_Cl	Cl	0.847	0.924	0.3919	-0.32
Mof_O 	O 	0.8627	0.5129	0.3175	-0.716
Mof_O 	O 	0.651	0.5135	0.3174	-0.725
Mof_C 	C 	0.8749	0.7497	0.2946	0.189
Mof_C 	C 	0.8812	0.4406	0.3391	0.638
Mof_N 	N 	0.9281	0.8562	0.2793	-0.155
Mof_H 	H 	0.8631	0.726	0.3327	-0.002
Mof_C 	C 	0.9338	0.4915	0.4004	-0.206
Mof_C 	C 	0.9553	0.5962	0.4186	-0.157
Mof_C 	C 	0.9481	0.4163	0.4334	0.382
Mof_C 	C 	0.9945	0.6249	0.4749	0.351
Mof_C 	C 	0.9893	0.4481	0.4896	-0.256
Mof_C 	C 	0.9326	0.4423	0.3996	-0.151
Mof_C 	C 	0.949	0.5328	0.4327	0.288
Mof_C 	C 	0.9896	0.5408	0.4889	-0.248
Mof_C 	C 	0.9946	0.3702	0.4756	0.361
Mof_C 	C 	0.9545	0.3604	0.4196	-0.286
Mof_Cl	Cl	0.076	0.923	0.3919	-0.429
Mof_O 	O 	0.4871	0.3498	0.3175	-0.732
Mof_O 	O 	0.4865	0.1375	0.3174	-0.733
Mof_C 	C 	0.2503	0.1252	0.2946	0.152
Mof_C 	C 	0.5594	0.4406	0.3391	0.602
Mof_N 	N 	0.1438	0.0719	0.2793	-0.26
Mof_H 	H 	0.274	0.1371	0.3327	-0.053
Mof_C 	C 	0.5085	0.4423	0.4004	-0.113
Mof_C 	C 	0.4038	0.3591	0.4186	-0.121
Mof_C 	C 	0.5837	0.5318	0.4334	0.156
Mof_C 	C 	0.3751	0.3696	0.4749	-0.008
Mof_C 	C 	0.5519	0.5412	0.4896	-0.036
Mof_C 	C 	0.5577	0.4903	0.3996	-0.183
Mof_C 	C 	0.4672	0.4162	0.4327	0.221
Mof_C 	C 	0.4592	0.4488	0.4889	-0.032
Mof_C 	C 	0.6298	0.6244	0.4756	0.019
Mof_C 	C 	0.6396	0.5941	0.4196	-0.014
Mof_O 	O 	0.8627	0.3498	0.1825	-0.716
Mof_O 	O 	0.651	0.1375	0.1826	-0.735
Mof_C 	C 	0.8749	0.1252	0.2054	0.168
Mof_C 	C 	0.8812	0.4406	0.1609	0.632
Mof_N 	N 	0.9281	0.0719	0.2207	-0.205
Mof_H 	H 	0.8631	0.1371	0.1673	-0.026
Mof_C 	C 	0.9338	0.4423	0.0996	-0.169
Mof_C 	C 	0.9553	0.3591	0.0814	-0.19
Mof_C 	C 	0.9481	0.5318	0.0666	0.324
Mof_C 	C 	0.9945	0.3696	0.0251	0.363
Mof_C 	C 	0.9893	0.5412	0.0104	-0.263
Mof_C 	C 	0.9326	0.4903	0.1004	-0.166
Mof_C 	C 	0.949	0.4162	0.0673	0.299
Mof_C 	C 	0.9896	0.4488	0.0111	-0.249
Mof_C 	C 	0.9946	0.6244	0.0244	0.375
Mof_C 	C 	0.9545	0.5941	0.0804	-0.208
Mof_Cl	Cl	0.076	0.153	0.1081	-0.55
Mof_O 	O 	0.4871	0.1373	0.1825	-0.734
Mof_O 	O 	0.4865	0.349	0.1826	-0.726
Mof_C 	C 	0.2503	0.1251	0.2054	0.158
Mof_C 	C 	0.5594	0.1188	0.1609	0.565
Mof_N 	N 	0.1438	0.0719	0.2207	-0.24
Mof_H 	H 	0.274	0.1369	0.1673	-0.03
Mof_C 	C 	0.5085	0.0662	0.0996	-0.103
Mof_C 	C 	0.4038	0.0447	0.0814	0.075
Mof_C 	C 	0.5837	0.0519	0.0666	0.026
Mof_C 	C 	0.3751	0.0055	0.0251	-0.33
Mof_C 	C 	0.5519	0.0107	0.0104	0.189
Mof_C 	C 	0.5577	0.0674	0.1004	-0.128
Mof_C 	C 	0.4672	0.051	0.0673	0.057
Mof_C 	C 	0.4592	0.0104	0.0111	0.162
Mof_C 	C 	0.6298	0.0054	0.0244	-0.327
Mof_C 	C 	0.6396	0.0455	0.0804	0.103
Mof_Cl	Cl	0.077	0.924	0.1081	-0.409
Mof_O 	O 	0.6502	0.5129	0.1825	-0.727
Mof_O 	O 	0.8625	0.5135	0.1826	-0.714
Mof_C 	C 	0.8748	0.7497	0.2054	0.186
Mof_C 	C 	0.5594	0.4406	0.1609	0.601
Mof_N 	N 	0.9281	0.8562	0.2207	-0.166
Mof_H 	H 	0.8629	0.726	0.1673	-0.014
Mof_C 	C 	0.5577	0.4915	0.0996	-0.152
Mof_C 	C 	0.6409	0.5962	0.0814	-0.049
Mof_C 	C 	0.4682	0.4163	0.0666	0.195
Mof_C 	C 	0.6304	0.6249	0.0251	0.022
Mof_C 	C 	0.4588	0.4481	0.0104	-0.047
Mof_C 	C 	0.5097	0.4423	0.1004	-0.14
Mof_C 	C 	0.5838	0.5328	0.0673	0.178
Mof_C 	C 	0.5512	0.5408	0.0111	-0.037
Mof_C 	C 	0.3756	0.3702	0.0244	0.017
Mof_C 	C 	0.4059	0.3604	0.0804	-0.08
Mof_O 	O 	0.3498	0.8627	0.6825	-0.716
Mof_O 	O 	0.1375	0.651	0.6826	-0.735
Mof_C 	C 	0.1252	0.8749	0.7054	0.169
Mof_C 	C 	0.4406	0.8812	0.6609	0.631
Mof_N 	N 	0.0719	0.9281	0.7207	-0.205
Mof_H 	H 	0.1371	0.8631	0.6673	-0.026
Mof_C 	C 	0.4423	0.9338	0.5996	-0.169
Mof_C 	C 	0.3591	0.9553	0.5814	-0.189
Mof_C 	C 	0.5318	0.9481	0.5666	0.321
Mof_C 	C 	0.3696	0.9945	0.5251	0.361
Mof_C 	C 	0.5412	0.9893	0.5104	-0.262
Mof_C 	C 	0.4903	0.9326	0.6004	-0.165
Mof_C 	C 	0.4162	0.949	0.5673	0.297
Mof_C 	C 	0.4488	0.9896	0.5111	-0.248
Mof_C 	C 	0.6244	0.9946	0.5244	0.373
Mof_C 	C 	0.5941	0.9545	0.5804	-0.205
Mof_Cl	Cl	0.153	0.076	0.6081	-0.551
Mof_O 	O 	0.1373	0.4871	0.6825	-0.734
Mof_O 	O 	0.349	0.4865	0.6826	-0.726
Mof_C 	C 	0.1251	0.2503	0.7054	0.158
Mof_C 	C 	0.1188	0.5594	0.6609	0.564
Mof_N 	N 	0.0719	0.1438	0.7207	-0.241
Mof_H 	H 	0.1369	0.274	0.6673	-0.03
Mof_C 	C 	0.0662	0.5085	0.5996	-0.101
Mof_C 	C 	0.0447	0.4038	0.5814	0.079
Mof_C 	C 	0.0519	0.5837	0.5666	0.021
Mof_C 	C 	0.0055	0.3751	0.5251	-0.339
Mof_C 	C 	0.0107	0.5519	0.5104	0.194
Mof_C 	C 	0.0674	0.5577	0.6004	-0.127
Mof_C 	C 	0.051	0.4672	0.5673	0.053
Mof_C 	C 	0.0104	0.4592	0.5111	0.167
Mof_C 	C 	0.0054	0.6298	0.5244	-0.335
Mof_C 	C 	0.0455	0.6396	0.5804	0.108
Mof_Cl	Cl	0.924	0.077	0.6081	-0.411
Mof_O 	O 	0.5129	0.6502	0.6825	-0.727
Mof_O 	O 	0.5135	0.8625	0.6826	-0.714
Mof_C 	C 	0.7497	0.8748	0.7054	0.186
Mof_C 	C 	0.4406	0.5594	0.6609	0.6
Mof_N 	N 	0.8562	0.9281	0.7207	-0.166
Mof_H 	H 	0.726	0.8629	0.6673	-0.014
Mof_C 	C 	0.4915	0.5577	0.5996	-0.151
Mof_C 	C 	0.5962	0.6409	0.5814	-0.046
Mof_C 	C 	0.4163	0.4682	0.5666	0.191
Mof_C 	C 	0.6249	0.6304	0.5251	0.016
Mof_C 	C 	0.4481	0.4588	0.5104	-0.042
Mof_C 	C 	0.4423	0.5097	0.6004	-0.138
Mof_C 	C 	0.5328	0.5838	0.5673	0.175
Mof_C 	C 	0.5408	0.5512	0.5111	-0.033
Mof_C 	C 	0.3702	0.3756	0.5244	0.009
Mof_C 	C 	0.3604	0.4059	0.5804	-0.076
Mof_O 	O 	0.1373	0.6502	0.8175	-0.733
Mof_O 	O 	0.349	0.8625	0.8174	-0.719
Mof_C 	C 	0.1251	0.8748	0.7946	0.165
Mof_C 	C 	0.1188	0.5594	0.8391	0.559
Mof_N 	N 	0.0719	0.9281	0.7793	-0.214
Mof_H 	H 	0.1369	0.8629	0.8327	-0.036
Mof_C 	C 	0.0662	0.5577	0.9004	-0.106
Mof_C 	C 	0.0447	0.6409	0.9186	0.106
Mof_C 	C 	0.0519	0.4682	0.9334	0.008
Mof_C 	C 	0.0055	0.6304	0.9749	-0.328
Mof_C 	C 	0.0107	0.4588	0.9896	0.2
Mof_C 	C 	0.0674	0.5097	0.8996	-0.106
Mof_C 	C 	0.051	0.5838	0.9327	0.029
Mof_C 	C 	0.0104	0.5512	0.9889	0.184
Mof_C 	C 	0.0054	0.3756	0.9756	-0.354
Mof_C 	C 	0.0455	0.4059	0.9196	0.114
Mof_Cl	Cl	0.924	0.847	0.8919	-0.321
Mof_O 	O 	0.5129	0.8627	0.8175	-0.716
Mof_O 	O 	0.5135	0.651	0.8174	-0.725
Mof_C 	C 	0.7497	0.8749	0.7946	0.189
Mof_C 	C 	0.4406	0.8812	0.8391	0.637
Mof_N 	N 	0.8562	0.9281	0.7793	-0.155
Mof_H 	H 	0.726	0.8631	0.8327	-0.002
Mof_C 	C 	0.4915	0.9338	0.9004	-0.205
Mof_C 	C 	0.5962	0.9553	0.9186	-0.154
Mof_C 	C 	0.4163	0.9481	0.9334	0.377
Mof_C 	C 	0.6249	0.9945	0.9749	0.344
Mof_C 	C 	0.4481	0.9893	0.9896	-0.251
Mof_C 	C 	0.4423	0.9326	0.8996	-0.15
Mof_C 	C 	0.5328	0.949	0.9327	0.284
Mof_C 	C 	0.5408	0.9896	0.9889	-0.243
Mof_C 	C 	0.3702	0.9946	0.9756	0.352
Mof_C 	C 	0.3604	0.9545	0.9196	-0.281
Mof_Cl	Cl	0.923	0.076	0.8919	-0.43
Mof_O 	O 	0.3498	0.4871	0.8175	-0.732
Mof_O 	O 	0.1375	0.4865	0.8174	-0.733
Mof_C 	C 	0.1252	0.2503	0.7946	0.152
Mof_C 	C 	0.4406	0.5594	0.8391	0.601
Mof_N 	N 	0.0719	0.1438	0.7793	-0.26
Mof_H 	H 	0.1371	0.274	0.8327	-0.054
Mof_C 	C 	0.4423	0.5085	0.9004	-0.112
Mof_C 	C 	0.3591	0.4038	0.9186	-0.118
Mof_C 	C 	0.5318	0.5837	0.9334	0.152
Mof_C 	C 	0.3696	0.3751	0.9749	-0.015
Mof_C 	C 	0.5412	0.5519	0.9896	-0.031
Mof_C 	C 	0.4903	0.5577	0.8996	-0.182
Mof_C 	C 	0.4162	0.4672	0.9327	0.217
Mof_C 	C 	0.4488	0.4592	0.9889	-0.028
Mof_C 	C 	0.6244	0.6298	0.9756	0.012
Mof_C 	C 	0.5941	0.6396	0.9196	-0.01
Mof_In	In	0.7512	0.2488	0.25	2.791
Mof_N 	N 	0.8402	0.1598	0.25	-0.417
Mof_In	In	0.7512	0.5024	0.25	2.814
Mof_N 	N 	0.8402	0.6804	0.25	-0.414
Mof_In	In	0.4976	0.2488	0.25	2.771
Mof_N 	N 	0.3196	0.1598	0.25	-0.419
Mof_In	In	0.2488	0.7512	0.75	2.79
Mof_N 	N 	0.1598	0.8402	0.75	-0.417
Mof_In	In	0.2488	0.4976	0.75	2.771
Mof_N 	N 	0.1598	0.3196	0.75	-0.419
Mof_In	In	0.5024	0.7512	0.75	2.813
Mof_N 	N 	0.6804	0.8402	0.75	-0.414
Mof_O 	O 	0.66667	0.33333	0.25	-1.47
Mof_O 	O 	0.33333	0.66667	0.75	-1.47
Mof_Co	Co	-1.30813e-32	0	0.33266	1.041
Mof_Co	Co	-6.54064e-33	-6.54064e-33	0.16734	1.064
Mof_Co	Co	-1.30813e-32	0	0.66734	1.064
Mof_Co	Co	-2.61626e-32	0	0.83266	1.041
_end
