# CIF file generated by openbabel 3.1.0, see https://openbabel.org
data_I
_chemical_name_common 'image0'
_cell_length_a 26.2911
_cell_length_b 13.5761
_cell_length_c 6.762
_cell_angle_alpha 90
_cell_angle_beta 92.443
_cell_angle_gamma 90
_space_group_name_H-M_alt 'P 1'
_space_group_name_Hall 'P 1'
loop_
    _symmetry_equiv_pos_as_xyz
    x,y,z
loop_
    _atom_site_label
    _atom_site_type_symbol
    _atom_site_fract_x
    _atom_site_fract_y
    _atom_site_fract_z
    _atom_site_occupancy
    Tb1      Tb       0.89641    0.19315    0.98843    1.000
    C1       C        0.82160    0.54710    0.93090    1.000
    H1       H        0.85690    0.55100    0.94830    1.000
    C2       C        0.79950    0.45480    0.93310    1.000
    C3       C        0.74660    0.44870    0.91070    1.000
    H2       H        0.73030    0.38790    0.91040    1.000
    C4       C        0.71864    0.53550    0.88880    1.000
    C5       C        0.74490    0.62430    0.88460    1.000
    H3       H        0.72620    0.68200    0.86630    1.000
    C6       C        0.83220    0.36460    0.95500    1.000
    C7       C        0.66140    0.53620    0.86460    1.000
    N1       N        0.79571    0.63120    0.90560    1.000
    O1       O        0.87857    0.37530    0.00730    1.000
    O2       O        0.81320    0.28080    0.92280    1.000
    O3       O        0.63805    0.45970    0.90410    1.000
    O4       O        0.64042    0.61550    0.80910    1.000
    O5       O        0.95545    0.13980    0.29070    1.000
    O6       O        0.98452    0.26050    0.07810    1.000
    Tb2      Tb       0.39641    0.69315    0.98843    1.000
    C8       C        0.32160    0.04710    0.93090    1.000
    H4       H        0.35690    0.05100    0.94830    1.000
    C9       C        0.29950    0.95480    0.93310    1.000
    C10      C        0.24660    0.94870    0.91070    1.000
    H5       H        0.23030    0.88790    0.91040    1.000
    C11      C        0.21864    0.03550    0.88880    1.000
    C12      C        0.24490    0.12430    0.88460    1.000
    H6       H        0.22620    0.18200    0.86630    1.000
    C13      C        0.33220    0.86460    0.95500    1.000
    C14      C        0.16140    0.03620    0.86460    1.000
    N2       N        0.29571    0.13120    0.90560    1.000
    O7       O        0.37857    0.87530    0.00730    1.000
    O8       O        0.31320    0.78080    0.92280    1.000
    O9       O        0.13805    0.95970    0.90410    1.000
    O10      O        0.14042    0.11550    0.80910    1.000
    O11      O        0.45545    0.63980    0.29070    1.000
    O12      O        0.48452    0.76050    0.07810    1.000
    Tb3      Tb       0.10359    0.19315    0.51157    1.000
    C15      C        0.17840    0.54710    0.56910    1.000
    H7       H        0.14310    0.55100    0.55170    1.000
    C16      C        0.20050    0.45480    0.56690    1.000
    C17      C        0.25340    0.44870    0.58930    1.000
    H8       H        0.26970    0.38790    0.58960    1.000
    C18      C        0.28136    0.53550    0.61120    1.000
    C19      C        0.25510    0.62430    0.61540    1.000
    H9       H        0.27380    0.68200    0.63370    1.000
    C20      C        0.16780    0.36460    0.54500    1.000
    C21      C        0.33860    0.53620    0.63540    1.000
    N3       N        0.20429    0.63120    0.59440    1.000
    O13      O        0.12143    0.37530    0.49270    1.000
    O14      O        0.18680    0.28080    0.57720    1.000
    O15      O        0.36195    0.45970    0.59590    1.000
    O16      O        0.35958    0.61550    0.69090    1.000
    O17      O        0.04455    0.13980    0.20930    1.000
    O18      O        0.01548    0.26050    0.42190    1.000
    Tb4      Tb       0.60359    0.69315    0.51157    1.000
    C22      C        0.67840    0.04710    0.56910    1.000
    H10      H        0.64310    0.05100    0.55170    1.000
    C23      C        0.70050    0.95480    0.56690    1.000
    C24      C        0.75340    0.94870    0.58930    1.000
    H11      H        0.76970    0.88790    0.58960    1.000
    C25      C        0.78136    0.03550    0.61120    1.000
    C26      C        0.75510    0.12430    0.61540    1.000
    H12      H        0.77380    0.18200    0.63370    1.000
    C27      C        0.66780    0.86460    0.54500    1.000
    C28      C        0.83860    0.03620    0.63540    1.000
    N4       N        0.70429    0.13120    0.59440    1.000
    O19      O        0.62143    0.87530    0.49270    1.000
    O20      O        0.68680    0.78080    0.57720    1.000
    O21      O        0.86195    0.95970    0.59590    1.000
    O22      O        0.85958    0.11550    0.69090    1.000
    O23      O        0.54455    0.63980    0.20930    1.000
    O24      O        0.51548    0.76050    0.42190    1.000
    Tb5      Tb       0.10359    0.80685    0.01157    1.000
    C29      C        0.17840    0.45290    0.06910    1.000
    H13      H        0.14310    0.44900    0.05170    1.000
    C30      C        0.20050    0.54520    0.06690    1.000
    C31      C        0.25340    0.55130    0.08930    1.000
    H14      H        0.26970    0.61210    0.08960    1.000
    C32      C        0.28136    0.46450    0.11120    1.000
    C33      C        0.25510    0.37570    0.11540    1.000
    H15      H        0.27380    0.31800    0.13370    1.000
    C34      C        0.16780    0.63540    0.04500    1.000
    C35      C        0.33860    0.46380    0.13540    1.000
    N5       N        0.20429    0.36880    0.09440    1.000
    O25      O        0.12143    0.62470    0.99270    1.000
    O26      O        0.18680    0.71920    0.07720    1.000
    O27      O        0.36195    0.54030    0.09590    1.000
    O28      O        0.35958    0.38450    0.19090    1.000
    O29      O        0.04455    0.86020    0.70930    1.000
    O30      O        0.01548    0.73950    0.92190    1.000
    Tb6      Tb       0.60359    0.30685    0.01157    1.000
    C36      C        0.67840    0.95290    0.06910    1.000
    H16      H        0.64310    0.94900    0.05170    1.000
    C37      C        0.70050    0.04520    0.06690    1.000
    C38      C        0.75340    0.05130    0.08930    1.000
    H17      H        0.76970    0.11210    0.08960    1.000
    C39      C        0.78136    0.96450    0.11120    1.000
    C40      C        0.75510    0.87570    0.11540    1.000
    H18      H        0.77380    0.81800    0.13370    1.000
    C41      C        0.66780    0.13540    0.04500    1.000
    C42      C        0.83860    0.96380    0.13540    1.000
    N6       N        0.70429    0.86880    0.09440    1.000
    O31      O        0.62143    0.12470    0.99270    1.000
    O32      O        0.68680    0.21920    0.07720    1.000
    O33      O        0.86195    0.04030    0.09590    1.000
    O34      O        0.85958    0.88450    0.19090    1.000
    O35      O        0.54455    0.36020    0.70930    1.000
    O36      O        0.51548    0.23950    0.92190    1.000
    Tb7      Tb       0.89641    0.80685    0.48843    1.000
    C43      C        0.82160    0.45290    0.43090    1.000
    H19      H        0.85690    0.44900    0.44830    1.000
    C44      C        0.79950    0.54520    0.43310    1.000
    C45      C        0.74660    0.55130    0.41070    1.000
    H20      H        0.73030    0.61210    0.41040    1.000
    C46      C        0.71864    0.46450    0.38880    1.000
    C47      C        0.74490    0.37570    0.38460    1.000
    H21      H        0.72620    0.31800    0.36630    1.000
    C48      C        0.83220    0.63540    0.45500    1.000
    C49      C        0.66140    0.46380    0.36460    1.000
    N7       N        0.79571    0.36880    0.40560    1.000
    O37      O        0.87857    0.62470    0.50730    1.000
    O38      O        0.81320    0.71920    0.42280    1.000
    O39      O        0.63805    0.54030    0.40410    1.000
    O40      O        0.64042    0.38450    0.30910    1.000
    O41      O        0.95545    0.86020    0.79070    1.000
    O42      O        0.98452    0.73950    0.57810    1.000
    Tb8      Tb       0.39641    0.30685    0.48843    1.000
    C50      C        0.32160    0.95290    0.43090    1.000
    H22      H        0.35690    0.94900    0.44830    1.000
    C51      C        0.29950    0.04520    0.43310    1.000
    C52      C        0.24660    0.05130    0.41070    1.000
    H23      H        0.23030    0.11210    0.41040    1.000
    C53      C        0.21864    0.96450    0.38880    1.000
    C54      C        0.24490    0.87570    0.38460    1.000
    H24      H        0.22620    0.81800    0.36630    1.000
    C55      C        0.33220    0.13540    0.45500    1.000
    C56      C        0.16140    0.96380    0.36460    1.000
    N8       N        0.29571    0.86880    0.40560    1.000
    O43      O        0.37857    0.12470    0.50730    1.000
    O44      O        0.31320    0.21920    0.42280    1.000
    O45      O        0.13805    0.04030    0.40410    1.000
    O46      O        0.14042    0.88450    0.30910    1.000
    O47      O        0.45545    0.36020    0.79070    1.000
    O48      O        0.48452    0.23950    0.57810    1.000
    S1       S        0.00000    0.20132    0.25000    1.000
    S2       S        0.50000    0.70132    0.25000    1.000
    S3       S        0.00000    0.79868    0.75000    1.000
    S4       S        0.50000    0.29868    0.75000    1.000
