# CIF file generated by openbabel 3.1.0, see https://openbabel.org
data_I
_chemical_name_common 'image0'
_cell_length_a 16.791
_cell_length_b 14.107
_cell_length_c 12.228
_cell_angle_alpha 90
_cell_angle_beta 119.02
_cell_angle_gamma 90
_space_group_name_H-M_alt 'P 1'
_space_group_name_Hall 'P 1'
loop_
    _symmetry_equiv_pos_as_xyz
    x,y,z
loop_
    _atom_site_label
    _atom_site_type_symbol
    _atom_site_fract_x
    _atom_site_fract_y
    _atom_site_fract_z
    _atom_site_occupancy
    Co1      Co       0.09662    0.16872    0.89762    1.000
    C1       C        0.42340    0.78580    0.82210    1.000
    C2       C        0.39880    0.85980    0.88910    1.000
    C3       C        0.31600    0.90790    0.83300    1.000
    H1       H        0.27330    0.89580    0.75020    1.000
    C4       C        0.29770    0.97400    0.90170    1.000
    C5       C        0.36130    0.99300    0.02580    1.000
    H2       H        0.34870    0.03790    0.07090    1.000
    C6       C        0.44360    0.94460    0.08180    1.000
    C7       C        0.46090    0.87820    0.01280    1.000
    H3       H        0.51570    0.84510    0.05050    1.000
    C8       C        0.20640    0.02220    0.84750    1.000
    O1       O        0.48824    0.73200    0.89220    1.000
    O2       O        0.38117    0.77881    0.70610    1.000
    O3       O        0.13965    0.98680    0.75590    1.000
    O4       O        0.20370    0.09694    0.90190    1.000
    O5       O        0.50036    0.93346    0.20424    1.000
    H4       H        0.03440    0.04130    0.73620    1.000
    C9       C        0.51750    0.98230    0.21160    1.000
    H5       H        0.57830    0.96850    0.22540    1.000
    H6       H        0.51160    0.05020    0.21830    1.000
    Co2      Co       0.59662    0.66872    0.89762    1.000
    C10      C        0.92340    0.28580    0.82210    1.000
    C11      C        0.89880    0.35980    0.88910    1.000
    C12      C        0.81600    0.40790    0.83300    1.000
    H7       H        0.77330    0.39580    0.75020    1.000
    C13      C        0.79770    0.47400    0.90170    1.000
    C14      C        0.86130    0.49300    0.02580    1.000
    H8       H        0.84870    0.53790    0.07090    1.000
    C15      C        0.94360    0.44460    0.08180    1.000
    C16      C        0.96090    0.37820    0.01280    1.000
    H9       H        0.01570    0.34510    0.05050    1.000
    C17      C        0.70640    0.52220    0.84750    1.000
    O6       O        0.98824    0.23200    0.89220    1.000
    O7       O        0.88117    0.27881    0.70610    1.000
    O8       O        0.63965    0.48680    0.75590    1.000
    O9       O        0.70370    0.59694    0.90190    1.000
    O10      O        0.00036    0.43346    0.20424    1.000
    H10      H        0.53440    0.54130    0.73620    1.000
    C18      C        0.01750    0.48230    0.21160    1.000
    H11      H        0.07830    0.46850    0.22540    1.000
    H12      H        0.01160    0.55020    0.21830    1.000
    Co3      Co       0.90338    0.16872    0.60238    1.000
    C19      C        0.57660    0.78580    0.67790    1.000
    C20      C        0.60120    0.85980    0.61090    1.000
    C21      C        0.68400    0.90790    0.66700    1.000
    H13      H        0.72670    0.89580    0.74980    1.000
    C22      C        0.70230    0.97400    0.59830    1.000
    C23      C        0.63870    0.99300    0.47420    1.000
    H14      H        0.65130    0.03790    0.42910    1.000
    C24      C        0.55640    0.94460    0.41820    1.000
    C25      C        0.53910    0.87820    0.48720    1.000
    H15      H        0.48430    0.84510    0.44950    1.000
    C26      C        0.79360    0.02220    0.65250    1.000
    O11      O        0.51176    0.73200    0.60780    1.000
    O12      O        0.61883    0.77881    0.79390    1.000
    O13      O        0.86035    0.98680    0.74410    1.000
    O14      O        0.79630    0.09694    0.59810    1.000
    O15      O        0.49964    0.93346    0.29576    1.000
    H16      H        0.96560    0.04130    0.76380    1.000
    C27      C        0.48250    0.98230    0.28840    1.000
    H17      H        0.42170    0.96850    0.27460    1.000
    H18      H        0.48840    0.05020    0.28170    1.000
    Co4      Co       0.40338    0.66872    0.60238    1.000
    C28      C        0.07660    0.28580    0.67790    1.000
    C29      C        0.10120    0.35980    0.61090    1.000
    C30      C        0.18400    0.40790    0.66700    1.000
    H19      H        0.22670    0.39580    0.74980    1.000
    C31      C        0.20230    0.47400    0.59830    1.000
    C32      C        0.13870    0.49300    0.47420    1.000
    H20      H        0.15130    0.53790    0.42910    1.000
    C33      C        0.05640    0.44460    0.41820    1.000
    C34      C        0.03910    0.37820    0.48720    1.000
    H21      H        0.98430    0.34510    0.44950    1.000
    C35      C        0.29360    0.52220    0.65250    1.000
    O16      O        0.01176    0.23200    0.60780    1.000
    O17      O        0.11883    0.27881    0.79390    1.000
    O18      O        0.36035    0.48680    0.74410    1.000
    O19      O        0.29630    0.59694    0.59810    1.000
    O20      O        0.99964    0.43346    0.29576    1.000
    H22      H        0.46560    0.54130    0.76380    1.000
    C36      C        0.98250    0.48230    0.28840    1.000
    H23      H        0.92170    0.46850    0.27460    1.000
    H24      H        0.98840    0.55020    0.28170    1.000
    O21      O        0.00000    0.07962    0.75000    1.000
    O22      O        0.50000    0.57962    0.75000    1.000
    Co5      Co       0.90338    0.83128    0.10238    1.000
    C37      C        0.57660    0.21420    0.17790    1.000
    C38      C        0.60120    0.14020    0.11090    1.000
    C39      C        0.68400    0.09210    0.16700    1.000
    H25      H        0.72670    0.10420    0.24980    1.000
    C40      C        0.70230    0.02600    0.09830    1.000
    C41      C        0.63870    0.00700    0.97420    1.000
    H26      H        0.65130    0.96210    0.92910    1.000
    C42      C        0.55640    0.05540    0.91820    1.000
    C43      C        0.53910    0.12180    0.98720    1.000
    H27      H        0.48430    0.15490    0.94950    1.000
    C44      C        0.79360    0.97780    0.15250    1.000
    O23      O        0.51176    0.26800    0.10780    1.000
    O24      O        0.61883    0.22119    0.29390    1.000
    O25      O        0.86035    0.01320    0.24410    1.000
    O26      O        0.79630    0.90306    0.09810    1.000
    O27      O        0.49964    0.06654    0.79576    1.000
    H28      H        0.96560    0.95870    0.26380    1.000
    C45      C        0.48250    0.01770    0.78840    1.000
    H29      H        0.42170    0.03150    0.77460    1.000
    H30      H        0.48840    0.94980    0.78170    1.000
    Co6      Co       0.40338    0.33128    0.10238    1.000
    C46      C        0.07660    0.71420    0.17790    1.000
    C47      C        0.10120    0.64020    0.11090    1.000
    C48      C        0.18400    0.59210    0.16700    1.000
    H31      H        0.22670    0.60420    0.24980    1.000
    C49      C        0.20230    0.52600    0.09830    1.000
    C50      C        0.13870    0.50700    0.97420    1.000
    H32      H        0.15130    0.46210    0.92910    1.000
    C51      C        0.05640    0.55540    0.91820    1.000
    C52      C        0.03910    0.62180    0.98720    1.000
    H33      H        0.98430    0.65490    0.94950    1.000
    C53      C        0.29360    0.47780    0.15250    1.000
    O28      O        0.01176    0.76800    0.10780    1.000
    O29      O        0.11883    0.72119    0.29390    1.000
    O30      O        0.36035    0.51320    0.24410    1.000
    O31      O        0.29630    0.40306    0.09810    1.000
    O32      O        0.99964    0.56654    0.79576    1.000
    H34      H        0.46560    0.45870    0.26380    1.000
    C54      C        0.98250    0.51770    0.78840    1.000
    H35      H        0.92170    0.53150    0.77460    1.000
    H36      H        0.98840    0.44980    0.78170    1.000
    Co7      Co       0.09662    0.83128    0.39762    1.000
    C55      C        0.42340    0.21420    0.32210    1.000
    C56      C        0.39880    0.14020    0.38910    1.000
    C57      C        0.31600    0.09210    0.33300    1.000
    H37      H        0.27330    0.10420    0.25020    1.000
    C58      C        0.29770    0.02600    0.40170    1.000
    C59      C        0.36130    0.00700    0.52580    1.000
    H38      H        0.34870    0.96210    0.57090    1.000
    C60      C        0.44360    0.05540    0.58180    1.000
    C61      C        0.46090    0.12180    0.51280    1.000
    H39      H        0.51570    0.15490    0.55050    1.000
    C62      C        0.20640    0.97780    0.34750    1.000
    O33      O        0.48824    0.26800    0.39220    1.000
    O34      O        0.38117    0.22119    0.20610    1.000
    O35      O        0.13965    0.01320    0.25590    1.000
    O36      O        0.20370    0.90306    0.40190    1.000
    O37      O        0.50036    0.06654    0.70424    1.000
    H40      H        0.03440    0.95870    0.23620    1.000
    C63      C        0.51750    0.01770    0.71160    1.000
    H41      H        0.57830    0.03150    0.72540    1.000
    H42      H        0.51160    0.94980    0.71830    1.000
    Co8      Co       0.59662    0.33128    0.39762    1.000
    C64      C        0.92340    0.71420    0.32210    1.000
    C65      C        0.89880    0.64020    0.38910    1.000
    C66      C        0.81600    0.59210    0.33300    1.000
    H43      H        0.77330    0.60420    0.25020    1.000
    C67      C        0.79770    0.52600    0.40170    1.000
    C68      C        0.86130    0.50700    0.52580    1.000
    H44      H        0.84870    0.46210    0.57090    1.000
    C69      C        0.94360    0.55540    0.58180    1.000
    C70      C        0.96090    0.62180    0.51280    1.000
    H45      H        0.01570    0.65490    0.55050    1.000
    C71      C        0.70640    0.47780    0.34750    1.000
    O38      O        0.98824    0.76800    0.39220    1.000
    O39      O        0.88117    0.72119    0.20610    1.000
    O40      O        0.63965    0.51320    0.25590    1.000
    O41      O        0.70370    0.40306    0.40190    1.000
    O42      O        0.00036    0.56654    0.70424    1.000
    H46      H        0.53440    0.45870    0.23620    1.000
    C72      C        0.01750    0.51770    0.71160    1.000
    H47      H        0.07830    0.53150    0.72540    1.000
    H48      H        0.01160    0.44980    0.71830    1.000
    O43      O        0.00000    0.92038    0.25000    1.000
    O44      O        0.50000    0.42038    0.25000    1.000
