# CIF file generated by openbabel 3.1.0, see https://openbabel.org
data_I
_chemical_name_common 'image0'
_cell_length_a 12.572
_cell_length_b 12.572
_cell_length_c 8.2184
_cell_angle_alpha 90
_cell_angle_beta 90
_cell_angle_gamma 120
_space_group_name_H-M_alt 'P 1'
_space_group_name_Hall 'P 1'
loop_
    _symmetry_equiv_pos_as_xyz
    x,y,z
loop_
    _atom_site_label
    _atom_site_type_symbol
    _atom_site_fract_x
    _atom_site_fract_y
    _atom_site_fract_z
    _atom_site_occupancy
    Mg1      Mg       0.33402    0.33274    0.58666    1.000
    O1       O        0.42331    0.26519    0.44191    1.000
    O2       O        0.42395    0.15618    0.22978    1.000
    O3       O        0.40022    0.48946    0.44121    1.000
    O4       O        0.50832    0.59961    0.22919    1.000
    O5       O        0.17599    0.24136    0.44338    1.000
    O6       O        0.06814    0.24438    0.23118    1.000
    C1       C        0.37318    0.18678    0.33470    1.000
    H1       H        0.28780    0.14600    0.33210    1.000
    C2       C        0.47762    0.51740    0.33210    1.000
    H2       H        0.51710    0.47160    0.32680    1.000
    C3       C        0.14461    0.29339    0.34190    1.000
    H3       H        0.18250    0.37840    0.34960    1.000
    Mg2      Mg       0.66726    0.00128    0.58666    1.000
    O7       O        0.73481    0.15812    0.44191    1.000
    O8       O        0.84382    0.26777    0.22978    1.000
    O9       O        0.51054    0.91076    0.44121    1.000
    O10      O        0.40039    0.90871    0.22919    1.000
    O11      O        0.75864    0.93463    0.44338    1.000
    O12      O        0.75562    0.82376    0.23118    1.000
    C4       C        0.81322    0.18640    0.33470    1.000
    H4       H        0.85400    0.14180    0.33210    1.000
    C5       C        0.48260    0.96022    0.33210    1.000
    H5       H        0.52840    0.04550    0.32680    1.000
    C6       C        0.70661    0.85122    0.34190    1.000
    H6       H        0.62160    0.80410    0.34960    1.000
    Mg3      Mg       0.99872    0.66598    0.58666    1.000
    O13      O        0.84188    0.57669    0.44191    1.000
    O14      O        0.73223    0.57605    0.22978    1.000
    O15      O        0.08924    0.59978    0.44121    1.000
    O16      O        0.09129    0.49168    0.22919    1.000
    O17      O        0.06537    0.82401    0.44338    1.000
    O18      O        0.17624    0.93186    0.23118    1.000
    C7       C        0.81360    0.62682    0.33470    1.000
    H7       H        0.85820    0.71220    0.33210    1.000
    C8       C        0.03978    0.52238    0.33210    1.000
    H8       H        0.95450    0.48290    0.32680    1.000
    C9       C        0.14878    0.85539    0.34190    1.000
    H9       H        0.19590    0.81750    0.34960    1.000
    Mg4      Mg       0.66598    0.66726    0.08666    1.000
    O19      O        0.57669    0.73481    0.94191    1.000
    O20      O        0.57605    0.84382    0.72978    1.000
    O21      O        0.59978    0.51054    0.94121    1.000
    O22      O        0.49168    0.40039    0.72919    1.000
    O23      O        0.82401    0.75864    0.94338    1.000
    O24      O        0.93186    0.75562    0.73118    1.000
    C10      C        0.62682    0.81322    0.83470    1.000
    H10      H        0.71220    0.85400    0.83210    1.000
    C11      C        0.52238    0.48260    0.83210    1.000
    H11      H        0.48290    0.52840    0.82680    1.000
    C12      C        0.85539    0.70661    0.84190    1.000
    H12      H        0.81750    0.62160    0.84960    1.000
    Mg5      Mg       0.33274    0.99872    0.08666    1.000
    O25      O        0.26519    0.84188    0.94191    1.000
    O26      O        0.15618    0.73223    0.72978    1.000
    O27      O        0.48946    0.08924    0.94121    1.000
    O28      O        0.59961    0.09129    0.72919    1.000
    O29      O        0.24136    0.06537    0.94338    1.000
    O30      O        0.24438    0.17624    0.73118    1.000
    C13      C        0.18678    0.81360    0.83470    1.000
    H13      H        0.14600    0.85820    0.83210    1.000
    C14      C        0.51740    0.03978    0.83210    1.000
    H14      H        0.47160    0.95450    0.82680    1.000
    C15      C        0.29339    0.14878    0.84190    1.000
    H15      H        0.37840    0.19590    0.84960    1.000
    Mg6      Mg       0.00128    0.33402    0.08666    1.000
    O31      O        0.15812    0.42331    0.94191    1.000
    O32      O        0.26777    0.42395    0.72978    1.000
    O33      O        0.91076    0.40022    0.94121    1.000
    O34      O        0.90871    0.50832    0.72919    1.000
    O35      O        0.93463    0.17599    0.94338    1.000
    O36      O        0.82376    0.06814    0.73118    1.000
    C16      C        0.18640    0.37318    0.83470    1.000
    H16      H        0.14180    0.28780    0.83210    1.000
    C17      C        0.96022    0.47762    0.83210    1.000
    H17      H        0.04550    0.51710    0.82680    1.000
    C18      C        0.85122    0.14461    0.84190    1.000
    H18      H        0.80410    0.18250    0.84960    1.000
