data_functionalizedCrystal
_audit_creation_method	'EQeq! by Chris Wilmer'
_symmetry_space_group_name_H-M	'P1'
_symmetry_Int_Tables_number	1
_symmetry_cell_setting	triclinic
loop_
_symmetry_equiv_pos_as_xyz
  x,y,z
_cell_length_a	12.7711
_cell_length_b	14.229
_cell_length_c	16.003
_cell_angle_alpha	106.64
_cell_angle_beta	103.935
_cell_angle_gamma	106.606
loop_
_atom_site_label
_atom_site_type_symbol
_atom_site_fract_x
_atom_site_fract_y
_atom_site_fract_z
_atom_site_charge
Mof_Cu	Cu	0.53293	0.1332	0.26529	0.888
Mof_Cu	Cu	0.72625	0.95689	0.05242	0.886
Mof_Cu	Cu	0.58567	0.77373	0.26605	0.885
Mof_Cu	Cu	0.69114	0.96234	0.49056	0.885
Mof_Cu	Cu	0.48326	0.10961	0.84338	0.907
Mof_Cu	Cu	0.78889	0.39541	0.14359	0.911
Mof_H 	H 	0.7427	0.895	0.6439	0.147
Mof_H 	H 	0.4152	0.1109	0.0691	0.141
Mof_H 	H 	0.9365	0.528	0.3345	0.132
Mof_H 	H 	0.3123	0.8898	0.7337	0.128
Mof_H 	H 	0.8911	0.1835	0.1343	0.136
Mof_H 	H 	0.5296	0.6434	0.3711	0.135
Mof_H 	H 	0.3964	0.8684	0.4002	0.074
Mof_H 	H 	0.8162	0.1254	0.2791	0.073
Mof_H 	H 	0.8263	0.8453	0.7631	0.194
Mof_H 	H 	0.9383	0.8184	0.7569	0.18
Mof_H 	H 	0.9545	0.932	0.8265	0.179
Mof_H 	H 	0.9399	0.0587	0.4913	0.14
Mof_H 	H 	0.062	0.1161	0.5761	0.105
Mof_H 	H 	0.0313	0.002	0.4994	0.117
Mof_H 	H 	0.3448	0.1407	0.3399	0.179
Mof_H 	H 	0.2553	0.1972	0.3189	0.173
Mof_H 	H 	0.2078	0.0713	0.2901	0.19
Mof_H 	H 	0.2746	0.0887	0.9303	0.203
Mof_H 	H 	0.1461	0.0176	0.9196	0.178
Mof_H 	H 	0.184	0.143	0.948	0.186
Mof_H 	H 	0.4905	0.3353	0.1156	0.084
Mof_H 	H 	0.7782	0.1284	0.9074	0.087
Mof_H 	H 	0.3195	0.2248	0.8081	0.196
Mof_H 	H 	0.2086	0.1933	0.7183	0.193
Mof_H 	H 	0.1915	0.1922	0.8139	0.195
Mof_H 	H 	0.1401	0.7354	0.6478	0.189
Mof_H 	H 	0.0293	0.752	0.6696	0.182
Mof_H 	H 	0.0467	0.7543	0.5744	0.198
Mof_H 	H 	0.1012	0.6362	0.4809	0.188
Mof_H 	H 	0.2151	0.6114	0.4777	0.193
Mof_H 	H 	0.2044	0.7162	0.4652	0.221
Mof_H 	H 	0.9796	0.4237	0.0566	0.248
Mof_H 	H 	0.0912	0.5292	0.0855	0.211
Mof_H 	H 	0.1081	0.4258	0.0969	0.218
Mof_H 	H 	0.4492	0.9432	0.0745	0.062
Mof_H 	H 	0.8914	0.8796	0.32	0.078
Mof_H 	H 	0.3444	0.7741	0.1809	0.206
Mof_H 	H 	0.2233	0.6738	0.1364	0.19
Mof_H 	H 	0.2458	0.7729	0.2267	0.201
Mof_H 	H 	0.4376	0.5216	0.4273	0.205
Mof_H 	H 	0.3292	0.5432	0.4498	0.192
Mof_H 	H 	0.3072	0.4448	0.3591	0.186
Mof_H 	H 	0.0721	0.3354	0.2256	0.178
Mof_H 	H 	0.1693	0.2961	0.2701	0.165
Mof_H 	H 	0.1731	0.3305	0.1837	0.177
Mof_H 	H 	0.8735	0.8574	0.9777	0.155
Mof_H 	H 	0.9931	0.897	0.9591	0.176
Mof_H 	H 	0.9937	0.8748	0.0517	0.2
Mof_C 	C 	0.4873	0.8678	0.5155	0.336
Mof_C 	C 	0.4524	0.9272	0.4601	-0.134
Mof_C 	C 	0.5508	0.0227	0.3772	0.119
Mof_C 	C 	0.6721	0.0644	0.3712	0.107
Mof_C 	C 	0.7769	0.1743	0.3006	-0.118
Mof_C 	C 	0.7295	0.2102	0.2237	0.309
Mof_C 	C 	0.8651	0.2744	0.3863	0.005
Mof_C 	C 	0.907	0.8744	0.7657	-0.554
Mof_C 	C 	0.9098	0.9176	0.6888	0.216
Mof_C 	C 	0.9967	0.9646	0.6616	-0.072
Mof_C 	C 	0.9448	0.9951	0.5916	0.165
Mof_C 	C 	0.9993	0.0476	0.5346	-0.365
Mof_C 	C 	0.2719	0.1334	0.296	-0.56
Mof_C 	C 	0.2837	0.1193	0.2014	0.198
Mof_C 	C 	0.1985	0.1062	0.1192	-0.12
Mof_C 	C 	0.2538	0.1032	0.0559	0.234
Mof_C 	C 	0.2109	0.0867	0.9546	-0.588
Mof_C 	C 	0.636	0.4366	0.231	0.3
Mof_C 	C 	0.564	0.3961	0.1299	-0.105
Mof_C 	C 	0.5331	0.4878	0.1116	-0.011
Mof_C 	C 	0.4336	0.4555	0.0238	0.014
Mof_C 	C 	0.422	0.552	0.004	-0.04
Mof_C 	C 	0.324	0.404	0.017	-0.045
Mof_C 	C 	0.5906	0.2911	0.9931	0.127
Mof_C 	C 	0.6901	0.2634	0.9661	0.129
Mof_C 	C 	0.7168	0.1252	0.8532	-0.109
Mof_C 	C 	0.7741	0.1642	0.7893	0.008
Mof_C 	C 	0.8862	0.2558	0.8349	-0.003
Mof_C 	C 	0.935	0.295	0.765	-0.027
Mof_C 	C 	0.9835	0.227	0.8901	-0.028
Mof_C 	C 	0.6297	0.0106	0.7989	0.305
Mof_C 	C 	0.2371	0.1786	0.7739	-0.614
Mof_C 	C 	0.2247	0.0671	0.7458	0.228
Mof_C 	C 	0.1198	0.9747	0.6958	-0.165
Mof_C 	C 	0.1553	0.8902	0.6873	0.241
Mof_C 	C 	0.0869	0.7728	0.6407	-0.594
Mof_C 	C 	0.1611	0.642	0.4521	-0.601
Mof_C 	C 	0.1048	0.5821	0.3499	0.216
Mof_C 	C 	0.1506	0.5677	0.2799	-0.136
Mof_C 	C 	0.0567	0.505	0.1982	0.219
Mof_C 	C 	0.0591	0.4676	0.1008	-0.686
Mof_C 	C 	0.5313	0.0018	0.9905	0.321
Mof_C 	C 	0.4859	0.9168	0.029	-0.1
Mof_C 	C 	0.3948	0.8122	0.9477	-0
Mof_C 	C 	0.2868	0.771	0.934	0.004
Mof_C 	C 	0.22	0.666	0.847	-0.048
Mof_C 	C 	0.2195	0.8069	0.9918	-0.055
Mof_C 	C 	0.5948	0.861	0.1395	0.115
Mof_C 	C 	0.7189	0.8639	0.1759	0.134
Mof_C 	C 	0.8265	0.808	0.2902	-0.11
Mof_C 	C 	0.7911	0.7736	0.3675	0.333
Mof_C 	C 	0.866	0.729	0.2362	0.015
Mof_C 	C 	0.93	0.761	0.177	0.026
Mof_C 	C 	0.944	0.674	0.11	-0.045
Mof_C 	C 	0.047	0.851	0.234	-0.069
Mof_C 	C 	0.2822	0.7293	0.1947	-0.594
Mof_C 	C 	0.3337	0.6783	0.2569	0.212
Mof_C 	C 	0.2779	0.6091	0.2931	-0.138
Mof_C 	C 	0.361	0.587	0.3447	0.251
Mof_C 	C 	0.3585	0.518	0.4	-0.599
Mof_C 	C 	0.1219	0.2962	0.2121	-0.548
Mof_C 	C 	0.0458	0.1825	0.145	0.203
Mof_C 	C 	0.0789	0.1006	0.1073	-0.156
Mof_C 	C 	0.9748	0.0158	0.0576	0.249
Mof_C 	C 	0.9572	0.901	0.007	-0.556
Mof_C 	C 	0.456	0.086	0.5741	-0.005
Mof_C 	C 	0.379	0.987	0.485	0.023
Mof_C 	C 	0.382	0.156	0.587	-0.051
Mof_C 	C 	0.562	0.149	0.557	-0.041
Mof_N 	N 	0.8112	0.92	0.6386	-0.2
Mof_N 	N 	0.8324	0.9677	0.5769	-0.205
Mof_N 	N 	0.5488	0.9736	0.4321	-0.229
Mof_N 	N 	0.6753	0.1185	0.3189	-0.219
Mof_N 	N 	0.3821	0.1214	0.1863	-0.214
Mof_N 	N 	0.3634	0.1116	0.0967	-0.202
Mof_N 	N 	0.9872	0.5293	0.3057	-0.186
Mof_N 	N 	0.9575	0.4797	0.2136	-0.202
Mof_N 	N 	0.6282	0.3611	0.0745	-0.209
Mof_N 	N 	0.6485	0.1846	0.8875	-0.213
Mof_N 	N 	0.3162	0.0378	0.7663	-0.215
Mof_N 	N 	0.2706	0.9291	0.7297	-0.203
Mof_N 	N 	0.8858	0.0419	0.0633	-0.214
Mof_N 	N 	0.932	0.1456	0.1184	-0.19
Mof_N 	N 	0.585	0.8998	0.0752	-0.221
Mof_N 	N 	0.7217	0.8155	0.2365	-0.224
Mof_N 	N 	0.4489	0.6987	0.2893	-0.218
Mof_N 	N 	0.4618	0.6432	0.3416	-0.204
Mof_O 	O 	0.4126	0.8103	0.5346	-0.267
Mof_O 	O 	0.5928	0.8764	0.5387	-0.385
Mof_O 	O 	0.7521	0.0386	0.4132	-0.352
Mof_O 	O 	0.4699	0.0431	0.3301	-0.35
Mof_O 	O 	0.6209	0.1961	0.1973	-0.392
Mof_O 	O 	0.7984	0.2533	0.1896	-0.336
Mof_O 	O 	0.5888	0.4533	0.292	-0.252
Mof_O 	O 	0.7449	0.4557	0.2512	-0.363
Mof_O 	O 	0.7934	0.3133	0.023	-0.337
Mof_O 	O 	0.4866	0.2404	0.9356	-0.343
Mof_O 	O 	0.5197	0.9909	0.778	-0.36
Mof_O 	O 	0.6665	0.9372	0.7768	-0.256
Mof_O 	O 	0.4647	0.0402	0.9587	-0.346
Mof_O 	O 	0.6372	0.0269	0.9928	-0.395
Mof_O 	O 	0.7933	0.9043	0.1475	-0.347
Mof_O 	O 	0.5177	0.8244	0.1717	-0.361
Mof_O 	O 	0.6909	0.7619	0.3677	-0.431
Mof_O 	O 	0.8637	0.7577	0.4216	-0.257
_end
