data_functionalizedCrystal
_audit_creation_method	'EQeq! by Chris Wilmer'
_symmetry_space_group_name_H-M	'P1'
_symmetry_Int_Tables_number	1
_symmetry_cell_setting	triclinic
loop_
_symmetry_equiv_pos_as_xyz
  x,y,z
_cell_length_a	35.2775
_cell_length_b	35.2775
_cell_length_c	20.3382
_cell_angle_alpha	90
_cell_angle_beta	90
_cell_angle_gamma	120
loop_
_atom_site_label
_atom_site_type_symbol
_atom_site_fract_x
_atom_site_fract_y
_atom_site_fract_z
_atom_site_charge
Mof_O 	O 	0.52433	0.97077	0.42402	-0.407
Mof_O 	O 	0.51147	0.94488	0.52779	-0.405
Mof_C 	C 	0.52324	0.94555	0.46867	0.361
Mof_C 	C 	0.53745	0.91326	0.45029	-0.118
Mof_C 	C 	0.53772	0.88498	0.49872	0.054
Mof_H 	H 	0.5286	0.8858	0.5424	0.03
Mof_C 	C 	0.55169	0.8556	0.48127	-0.13
Mof_H 	H 	0.5515	0.8359	0.5133	0.088
Mof_C 	C 	0.56575	0.85467	0.4186	0.097
Mof_C 	C 	0.56445	0.88276	0.37099	-0.135
Mof_H 	H 	0.573	0.8817	0.327	0.078
Mof_C 	C 	0.55076	0.91202	0.38776	0.059
Mof_H 	H 	0.5506	0.9314	0.3555	0.028
Mof_C 	C 	0.58556	0.82713	0.40148	-0.056
Mof_C 	C 	0.62425	0.84582	0.36775	-0.045
Mof_H 	H 	0.6374	0.8759	0.3562	0.047
Mof_H 	H 	0.489	0.7218	0.3832	0.082
Mof_O 	O 	0.191	0.3041	0.75735	-0.407
Mof_O 	O 	0.17814	0.27821	0.86112	-0.405
Mof_C 	C 	0.18991	0.27888	0.802	0.361
Mof_C 	C 	0.20412	0.24659	0.78362	-0.118
Mof_C 	C 	0.20439	0.21831	0.83205	0.054
Mof_H 	H 	0.19527	0.21913	0.87573	0.03
Mof_C 	C 	0.21836	0.18893	0.8146	-0.13
Mof_H 	H 	0.21817	0.16923	0.84663	0.088
Mof_C 	C 	0.23242	0.188	0.75193	0.097
Mof_C 	C 	0.23112	0.21609	0.70432	-0.135
Mof_H 	H 	0.23967	0.21503	0.66033	0.078
Mof_C 	C 	0.21743	0.24535	0.72109	0.059
Mof_H 	H 	0.21727	0.26473	0.68883	0.028
Mof_C 	C 	0.25223	0.16046	0.73481	-0.056
Mof_C 	C 	0.29092	0.17915	0.70108	-0.045
Mof_H 	H 	0.30407	0.20923	0.68953	0.047
Mof_H 	H 	0.15567	0.05513	0.71653	0.082
Mof_O 	O 	0.85766	0.63744	0.09069	-0.407
Mof_O 	O 	0.8448	0.61155	0.19446	-0.405
Mof_C 	C 	0.85657	0.61222	0.13534	0.361
Mof_C 	C 	0.87078	0.57993	0.11696	-0.118
Mof_C 	C 	0.87105	0.55165	0.16539	0.054
Mof_H 	H 	0.86193	0.55247	0.20907	0.03
Mof_C 	C 	0.88502	0.52227	0.14794	-0.13
Mof_H 	H 	0.88483	0.50257	0.17997	0.088
Mof_C 	C 	0.89908	0.52134	0.08527	0.097
Mof_C 	C 	0.89778	0.54943	0.03766	-0.135
Mof_H 	H 	0.90633	0.54837	0.99367	0.077
Mof_C 	C 	0.88409	0.57869	0.05443	0.058
Mof_H 	H 	0.88393	0.59807	0.02217	0.027
Mof_C 	C 	0.91889	0.4938	0.06815	-0.057
Mof_C 	C 	0.95758	0.51249	0.03442	-0.046
Mof_H 	H 	0.97073	0.54257	0.02287	0.046
Mof_H 	H 	0.82233	0.38847	0.04987	0.081
Mof_O 	O 	0.02923	0.55356	0.42402	-0.408
Mof_O 	O 	0.05512	0.56659	0.52779	-0.406
Mof_C 	C 	0.05445	0.57769	0.46867	0.36
Mof_C 	C 	0.08674	0.62419	0.45029	-0.119
Mof_C 	C 	0.11502	0.65274	0.49872	0.053
Mof_H 	H 	0.1142	0.6428	0.5424	0.029
Mof_C 	C 	0.1444	0.69609	0.48127	-0.131
Mof_H 	H 	0.1641	0.7156	0.5133	0.087
Mof_C 	C 	0.14533	0.71108	0.4186	0.096
Mof_C 	C 	0.11724	0.68169	0.37099	-0.136
Mof_H 	H 	0.1183	0.6913	0.327	0.077
Mof_C 	C 	0.08798	0.63874	0.38776	0.058
Mof_H 	H 	0.0686	0.6192	0.3555	0.027
Mof_C 	C 	0.17287	0.75843	0.40148	-0.057
Mof_C 	C 	0.15418	0.77843	0.36775	-0.046
Mof_H 	H 	0.1241	0.7615	0.3562	0.046
Mof_H 	H 	0.2782	0.7672	0.3832	0.081
Mof_O 	O 	0.6959	0.88689	0.75735	-0.408
Mof_O 	O 	0.72179	0.89992	0.86112	-0.406
Mof_C 	C 	0.72112	0.91102	0.802	0.36
Mof_C 	C 	0.75341	0.95752	0.78362	-0.119
Mof_C 	C 	0.78169	0.98607	0.83205	0.053
Mof_H 	H 	0.78087	0.97613	0.87573	0.029
Mof_C 	C 	0.81107	0.02942	0.8146	-0.131
Mof_H 	H 	0.83077	0.04893	0.84663	0.087
Mof_C 	C 	0.812	0.04441	0.75193	0.096
Mof_C 	C 	0.78391	0.01502	0.70432	-0.136
Mof_H 	H 	0.78497	0.02463	0.66033	0.077
Mof_C 	C 	0.75465	0.97207	0.72109	0.058
Mof_H 	H 	0.73527	0.95253	0.68883	0.027
Mof_C 	C 	0.83954	0.09176	0.73481	-0.057
Mof_C 	C 	0.82085	0.11176	0.70108	-0.046
Mof_H 	H 	0.79077	0.09483	0.68953	0.046
Mof_H 	H 	0.94487	0.10053	0.71653	0.081
Mof_O 	O 	0.36256	0.22023	0.09069	-0.408
Mof_O 	O 	0.38845	0.23326	0.19446	-0.406
Mof_C 	C 	0.38778	0.24436	0.13534	0.36
Mof_C 	C 	0.42007	0.29086	0.11696	-0.119
Mof_C 	C 	0.44835	0.31941	0.16539	0.053
Mof_H 	H 	0.44753	0.30947	0.20907	0.029
Mof_C 	C 	0.47773	0.36276	0.14794	-0.131
Mof_H 	H 	0.49743	0.38227	0.17997	0.087
Mof_C 	C 	0.47866	0.37775	0.08527	0.096
Mof_C 	C 	0.45057	0.34836	0.03766	-0.136
Mof_H 	H 	0.45163	0.35797	0.99367	0.077
Mof_C 	C 	0.42131	0.30541	0.05443	0.058
Mof_H 	H 	0.40193	0.28587	0.02217	0.027
Mof_C 	C 	0.5062	0.4251	0.06815	-0.057
Mof_C 	C 	0.48751	0.4451	0.03442	-0.046
Mof_H 	H 	0.45743	0.42817	0.02287	0.046
Mof_H 	H 	0.61153	0.43387	0.04987	0.081
Mof_O 	O 	0.44644	0.47567	0.42402	-0.408
Mof_O 	O 	0.43341	0.48853	0.52779	-0.406
Mof_C 	C 	0.42231	0.47676	0.46867	0.36
Mof_C 	C 	0.37581	0.46255	0.45029	-0.119
Mof_C 	C 	0.34726	0.46228	0.49872	0.053
Mof_H 	H 	0.3572	0.4714	0.5424	0.029
Mof_C 	C 	0.30391	0.44831	0.48127	-0.131
Mof_H 	H 	0.2844	0.4485	0.5133	0.087
Mof_C 	C 	0.28892	0.43425	0.4186	0.096
Mof_C 	C 	0.31831	0.43555	0.37099	-0.136
Mof_H 	H 	0.3087	0.427	0.327	0.077
Mof_C 	C 	0.36126	0.44924	0.38776	0.058
Mof_H 	H 	0.3808	0.4494	0.3555	0.027
Mof_C 	C 	0.24157	0.41444	0.40148	-0.057
Mof_C 	C 	0.22157	0.37575	0.36775	-0.046
Mof_H 	H 	0.2385	0.3626	0.3562	0.046
Mof_H 	H 	0.2328	0.511	0.3832	0.081
Mof_O 	O 	0.11311	0.809	0.75735	-0.408
Mof_O 	O 	0.10008	0.82186	0.86112	-0.406
Mof_C 	C 	0.08898	0.81009	0.802	0.36
Mof_C 	C 	0.04248	0.79588	0.78362	-0.119
Mof_C 	C 	0.01393	0.79561	0.83205	0.053
Mof_H 	H 	0.02387	0.80473	0.87573	0.029
Mof_C 	C 	0.97058	0.78164	0.8146	-0.131
Mof_H 	H 	0.95107	0.78183	0.84663	0.087
Mof_C 	C 	0.95559	0.76758	0.75193	0.096
Mof_C 	C 	0.98498	0.76888	0.70432	-0.136
Mof_H 	H 	0.97537	0.76033	0.66033	0.077
Mof_C 	C 	0.02793	0.78257	0.72109	0.058
Mof_H 	H 	0.04747	0.78273	0.68883	0.027
Mof_C 	C 	0.90824	0.74777	0.73481	-0.057
Mof_C 	C 	0.88824	0.70908	0.70108	-0.046
Mof_H 	H 	0.90517	0.69593	0.68953	0.046
Mof_H 	H 	0.89947	0.84433	0.71653	0.081
Mof_O 	O 	0.77977	0.14234	0.09069	-0.408
Mof_O 	O 	0.76674	0.1552	0.19446	-0.406
Mof_C 	C 	0.75564	0.14343	0.13534	0.36
Mof_C 	C 	0.70914	0.12922	0.11696	-0.119
Mof_C 	C 	0.68059	0.12895	0.16539	0.053
Mof_H 	H 	0.69053	0.13807	0.20907	0.029
Mof_C 	C 	0.63724	0.11498	0.14794	-0.131
Mof_H 	H 	0.61773	0.11517	0.17997	0.087
Mof_C 	C 	0.62225	0.10092	0.08527	0.096
Mof_C 	C 	0.65164	0.10222	0.03766	-0.136
Mof_H 	H 	0.64203	0.09367	0.99367	0.077
Mof_C 	C 	0.69459	0.11591	0.05443	0.058
Mof_H 	H 	0.71413	0.11607	0.02217	0.027
Mof_C 	C 	0.5749	0.08111	0.06815	-0.057
Mof_C 	C 	0.5549	0.04242	0.03442	-0.046
Mof_H 	H 	0.57183	0.02927	0.02287	0.046
Mof_H 	H 	0.56613	0.17767	0.04987	0.081
Mof_O 	O 	0.97077	0.52433	0.57598	-0.408
Mof_O 	O 	0.94488	0.51147	0.47221	-0.406
Mof_C 	C 	0.94555	0.52324	0.53133	0.36
Mof_C 	C 	0.91326	0.53745	0.54971	-0.119
Mof_C 	C 	0.88498	0.53772	0.50128	0.053
Mof_H 	H 	0.8858	0.5286	0.4576	0.029
Mof_C 	C 	0.8556	0.55169	0.51873	-0.131
Mof_H 	H 	0.8359	0.5515	0.4867	0.087
Mof_C 	C 	0.85467	0.56575	0.5814	0.096
Mof_C 	C 	0.88276	0.56445	0.62901	-0.136
Mof_H 	H 	0.8817	0.573	0.673	0.077
Mof_C 	C 	0.91202	0.55076	0.61224	0.058
Mof_H 	H 	0.9314	0.5506	0.6445	0.027
Mof_C 	C 	0.82713	0.58556	0.59852	-0.057
Mof_C 	C 	0.84582	0.62425	0.63225	-0.046
Mof_H 	H 	0.8759	0.6374	0.6438	0.046
Mof_H 	H 	0.7218	0.489	0.6168	0.081
Mof_O 	O 	0.63744	0.85766	0.90931	-0.408
Mof_O 	O 	0.61155	0.8448	0.80554	-0.406
Mof_C 	C 	0.61222	0.85657	0.86466	0.36
Mof_C 	C 	0.57993	0.87078	0.88304	-0.119
Mof_C 	C 	0.55165	0.87105	0.83461	0.053
Mof_H 	H 	0.55247	0.86193	0.79093	0.029
Mof_C 	C 	0.52227	0.88502	0.85206	-0.131
Mof_H 	H 	0.50257	0.88483	0.82003	0.087
Mof_C 	C 	0.52134	0.89908	0.91473	0.096
Mof_C 	C 	0.54943	0.89778	0.96234	-0.136
Mof_H 	H 	0.54837	0.90633	0.00633	0.077
Mof_C 	C 	0.57869	0.88409	0.94557	0.058
Mof_H 	H 	0.59807	0.88393	0.97783	0.027
Mof_C 	C 	0.4938	0.91889	0.93185	-0.057
Mof_C 	C 	0.51249	0.95758	0.96558	-0.046
Mof_H 	H 	0.54257	0.97073	0.97713	0.046
Mof_H 	H 	0.38847	0.82233	0.95013	0.081
Mof_O 	O 	0.3041	0.191	0.24265	-0.408
Mof_O 	O 	0.27821	0.17814	0.13888	-0.406
Mof_C 	C 	0.27888	0.18991	0.198	0.36
Mof_C 	C 	0.24659	0.20412	0.21638	-0.119
Mof_C 	C 	0.21831	0.20439	0.16795	0.053
Mof_H 	H 	0.21913	0.19527	0.12427	0.029
Mof_C 	C 	0.18893	0.21836	0.1854	-0.131
Mof_H 	H 	0.16923	0.21817	0.15337	0.087
Mof_C 	C 	0.188	0.23242	0.24807	0.096
Mof_C 	C 	0.21609	0.23112	0.29568	-0.136
Mof_H 	H 	0.21503	0.23967	0.33967	0.077
Mof_C 	C 	0.24535	0.21743	0.27891	0.058
Mof_H 	H 	0.26473	0.21727	0.31117	0.027
Mof_C 	C 	0.16046	0.25223	0.26519	-0.057
Mof_C 	C 	0.17915	0.29092	0.29892	-0.046
Mof_H 	H 	0.20923	0.30407	0.31047	0.046
Mof_H 	H 	0.05513	0.15567	0.28347	0.081
Mof_O 	O 	0.55356	0.02923	0.57598	-0.408
Mof_O 	O 	0.56659	0.05512	0.47221	-0.406
Mof_C 	C 	0.57769	0.05445	0.53133	0.36
Mof_C 	C 	0.62419	0.08674	0.54971	-0.119
Mof_C 	C 	0.65274	0.11502	0.50128	0.053
Mof_H 	H 	0.6428	0.1142	0.4576	0.029
Mof_C 	C 	0.69609	0.1444	0.51873	-0.131
Mof_H 	H 	0.7156	0.1641	0.4867	0.087
Mof_C 	C 	0.71108	0.14533	0.5814	0.096
Mof_C 	C 	0.68169	0.11724	0.62901	-0.136
Mof_H 	H 	0.6913	0.1183	0.673	0.077
Mof_C 	C 	0.63874	0.08798	0.61224	0.058
Mof_H 	H 	0.6192	0.0686	0.6445	0.027
Mof_C 	C 	0.75843	0.17287	0.59852	-0.057
Mof_C 	C 	0.77843	0.15418	0.63225	-0.046
Mof_H 	H 	0.7615	0.1241	0.6438	0.046
Mof_H 	H 	0.7672	0.2782	0.6168	0.081
Mof_O 	O 	0.22023	0.36256	0.90931	-0.408
Mof_O 	O 	0.23326	0.38845	0.80554	-0.406
Mof_C 	C 	0.24436	0.38778	0.86466	0.36
Mof_C 	C 	0.29086	0.42007	0.88304	-0.119
Mof_C 	C 	0.31941	0.44835	0.83461	0.053
Mof_H 	H 	0.30947	0.44753	0.79093	0.029
Mof_C 	C 	0.36276	0.47773	0.85206	-0.131
Mof_H 	H 	0.38227	0.49743	0.82003	0.087
Mof_C 	C 	0.37775	0.47866	0.91473	0.096
Mof_C 	C 	0.34836	0.45057	0.96234	-0.136
Mof_H 	H 	0.35797	0.45163	0.00633	0.077
Mof_C 	C 	0.30541	0.42131	0.94557	0.058
Mof_H 	H 	0.28587	0.40193	0.97783	0.027
Mof_C 	C 	0.4251	0.5062	0.93185	-0.057
Mof_C 	C 	0.4451	0.48751	0.96558	-0.046
Mof_H 	H 	0.42817	0.45743	0.97713	0.046
Mof_H 	H 	0.43387	0.61153	0.95013	0.081
Mof_O 	O 	0.88689	0.6959	0.24265	-0.408
Mof_O 	O 	0.89992	0.72179	0.13888	-0.406
Mof_C 	C 	0.91102	0.72112	0.198	0.36
Mof_C 	C 	0.95752	0.75341	0.21638	-0.119
Mof_C 	C 	0.98607	0.78169	0.16795	0.053
Mof_H 	H 	0.97613	0.78087	0.12427	0.029
Mof_C 	C 	0.02942	0.81107	0.1854	-0.131
Mof_H 	H 	0.04893	0.83077	0.15337	0.087
Mof_C 	C 	0.04441	0.812	0.24807	0.096
Mof_C 	C 	0.01502	0.78391	0.29568	-0.136
Mof_H 	H 	0.02463	0.78497	0.33967	0.077
Mof_C 	C 	0.97207	0.75465	0.27891	0.058
Mof_H 	H 	0.95253	0.73527	0.31117	0.027
Mof_C 	C 	0.09176	0.83954	0.26519	-0.057
Mof_C 	C 	0.11176	0.82085	0.29892	-0.046
Mof_H 	H 	0.09483	0.79077	0.31047	0.046
Mof_H 	H 	0.10053	0.94487	0.28347	0.081
Mof_O 	O 	0.47567	0.44644	0.57598	-0.408
Mof_O 	O 	0.48853	0.43341	0.47221	-0.406
Mof_C 	C 	0.47676	0.42231	0.53133	0.36
Mof_C 	C 	0.46255	0.37581	0.54971	-0.119
Mof_C 	C 	0.46228	0.34726	0.50128	0.053
Mof_H 	H 	0.4714	0.3572	0.4576	0.029
Mof_C 	C 	0.44831	0.30391	0.51873	-0.131
Mof_H 	H 	0.4485	0.2844	0.4867	0.087
Mof_C 	C 	0.43425	0.28892	0.5814	0.096
Mof_C 	C 	0.43555	0.31831	0.62901	-0.136
Mof_H 	H 	0.427	0.3087	0.673	0.077
Mof_C 	C 	0.44924	0.36126	0.61224	0.058
Mof_H 	H 	0.4494	0.3808	0.6445	0.027
Mof_C 	C 	0.41444	0.24157	0.59852	-0.057
Mof_C 	C 	0.37575	0.22157	0.63225	-0.046
Mof_H 	H 	0.3626	0.2385	0.6438	0.046
Mof_H 	H 	0.511	0.2328	0.6168	0.081
Mof_O 	O 	0.14234	0.77977	0.90931	-0.408
Mof_O 	O 	0.1552	0.76674	0.80554	-0.406
Mof_C 	C 	0.14343	0.75564	0.86466	0.36
Mof_C 	C 	0.12922	0.70914	0.88304	-0.119
Mof_C 	C 	0.12895	0.68059	0.83461	0.053
Mof_H 	H 	0.13807	0.69053	0.79093	0.029
Mof_C 	C 	0.11498	0.63724	0.85206	-0.131
Mof_H 	H 	0.11517	0.61773	0.82003	0.087
Mof_C 	C 	0.10092	0.62225	0.91473	0.096
Mof_C 	C 	0.10222	0.65164	0.96234	-0.136
Mof_H 	H 	0.09367	0.64203	0.00633	0.077
Mof_C 	C 	0.11591	0.69459	0.94557	0.058
Mof_H 	H 	0.11607	0.71413	0.97783	0.027
Mof_C 	C 	0.08111	0.5749	0.93185	-0.057
Mof_C 	C 	0.04242	0.5549	0.96558	-0.046
Mof_H 	H 	0.02927	0.57183	0.97713	0.046
Mof_H 	H 	0.17767	0.56613	0.95013	0.081
Mof_O 	O 	0.809	0.11311	0.24265	-0.408
Mof_O 	O 	0.82186	0.10008	0.13888	-0.406
Mof_C 	C 	0.81009	0.08898	0.198	0.36
Mof_C 	C 	0.79588	0.04248	0.21638	-0.119
Mof_C 	C 	0.79561	0.01393	0.16795	0.053
Mof_H 	H 	0.80473	0.02387	0.12427	0.029
Mof_C 	C 	0.78164	0.97058	0.1854	-0.131
Mof_H 	H 	0.78183	0.95107	0.15337	0.087
Mof_C 	C 	0.76758	0.95559	0.24807	0.096
Mof_C 	C 	0.76888	0.98498	0.29568	-0.136
Mof_H 	H 	0.76033	0.97537	0.33967	0.077
Mof_C 	C 	0.78257	0.02793	0.27891	0.058
Mof_H 	H 	0.78273	0.04747	0.31117	0.027
Mof_C 	C 	0.74777	0.90824	0.26519	-0.057
Mof_C 	C 	0.70908	0.88824	0.29892	-0.046
Mof_H 	H 	0.69593	0.90517	0.31047	0.046
Mof_H 	H 	0.84433	0.89947	0.28347	0.081
Mof_O 	O 	0.47567	0.02923	0.57598	-0.408
Mof_O 	O 	0.48853	0.05512	0.47221	-0.406
Mof_C 	C 	0.47676	0.05445	0.53133	0.36
Mof_C 	C 	0.46255	0.08674	0.54971	-0.119
Mof_C 	C 	0.46228	0.11502	0.50128	0.053
Mof_H 	H 	0.4714	0.1142	0.4576	0.029
Mof_C 	C 	0.44831	0.1444	0.51873	-0.131
Mof_H 	H 	0.4485	0.1641	0.4867	0.087
Mof_C 	C 	0.43425	0.14533	0.5814	0.096
Mof_C 	C 	0.43555	0.11724	0.62901	-0.136
Mof_H 	H 	0.427	0.1183	0.673	0.077
Mof_C 	C 	0.44924	0.08798	0.61224	0.058
Mof_H 	H 	0.4494	0.0686	0.6445	0.027
Mof_C 	C 	0.41444	0.17287	0.59852	-0.057
Mof_C 	C 	0.37575	0.15418	0.63225	-0.046
Mof_H 	H 	0.3626	0.1241	0.6438	0.046
Mof_H 	H 	0.511	0.2782	0.6168	0.081
Mof_O 	O 	0.14234	0.36256	0.90931	-0.408
Mof_O 	O 	0.1552	0.38845	0.80554	-0.406
Mof_C 	C 	0.14343	0.38778	0.86466	0.36
Mof_C 	C 	0.12922	0.42007	0.88304	-0.119
Mof_C 	C 	0.12895	0.44835	0.83461	0.053
Mof_H 	H 	0.13807	0.44753	0.79093	0.029
Mof_C 	C 	0.11498	0.47773	0.85206	-0.131
Mof_H 	H 	0.11517	0.49743	0.82003	0.087
Mof_C 	C 	0.10092	0.47866	0.91473	0.096
Mof_C 	C 	0.10222	0.45057	0.96234	-0.136
Mof_H 	H 	0.09367	0.45163	0.00633	0.077
Mof_C 	C 	0.11591	0.42131	0.94557	0.058
Mof_H 	H 	0.11607	0.40193	0.97783	0.027
Mof_C 	C 	0.08111	0.5062	0.93185	-0.057
Mof_C 	C 	0.04242	0.48751	0.96558	-0.046
Mof_H 	H 	0.02927	0.45743	0.97713	0.046
Mof_H 	H 	0.17767	0.61153	0.95013	0.081
Mof_O 	O 	0.809	0.6959	0.24265	-0.408
Mof_O 	O 	0.82186	0.72179	0.13888	-0.406
Mof_C 	C 	0.81009	0.72112	0.198	0.36
Mof_C 	C 	0.79588	0.75341	0.21638	-0.119
Mof_C 	C 	0.79561	0.78169	0.16795	0.053
Mof_H 	H 	0.80473	0.78087	0.12427	0.029
Mof_C 	C 	0.78164	0.81107	0.1854	-0.131
Mof_H 	H 	0.78183	0.83077	0.15337	0.087
Mof_C 	C 	0.76758	0.812	0.24807	0.096
Mof_C 	C 	0.76888	0.78391	0.29568	-0.136
Mof_H 	H 	0.76033	0.78497	0.33967	0.077
Mof_C 	C 	0.78257	0.75465	0.27891	0.058
Mof_H 	H 	0.78273	0.73527	0.31117	0.027
Mof_C 	C 	0.74777	0.83954	0.26519	-0.057
Mof_C 	C 	0.70908	0.82085	0.29892	-0.046
Mof_H 	H 	0.69593	0.79077	0.31047	0.046
Mof_H 	H 	0.84433	0.94487	0.28347	0.081
Mof_O 	O 	0.97077	0.44644	0.57598	-0.408
Mof_O 	O 	0.94488	0.43341	0.47221	-0.406
Mof_C 	C 	0.94555	0.42231	0.53133	0.36
Mof_C 	C 	0.91326	0.37581	0.54971	-0.119
Mof_C 	C 	0.88498	0.34726	0.50128	0.053
Mof_H 	H 	0.8858	0.3572	0.4576	0.029
Mof_C 	C 	0.8556	0.30391	0.51873	-0.131
Mof_H 	H 	0.8359	0.2844	0.4867	0.087
Mof_C 	C 	0.85467	0.28892	0.5814	0.096
Mof_C 	C 	0.88276	0.31831	0.62901	-0.136
Mof_H 	H 	0.8817	0.3087	0.673	0.077
Mof_C 	C 	0.91202	0.36126	0.61224	0.058
Mof_H 	H 	0.9314	0.3808	0.6445	0.027
Mof_C 	C 	0.82713	0.24157	0.59852	-0.057
Mof_C 	C 	0.84582	0.22157	0.63225	-0.046
Mof_H 	H 	0.8759	0.2385	0.6438	0.046
Mof_H 	H 	0.7218	0.2328	0.6168	0.081
Mof_O 	O 	0.63744	0.77977	0.90931	-0.408
Mof_O 	O 	0.61155	0.76674	0.80554	-0.406
Mof_C 	C 	0.61222	0.75564	0.86466	0.36
Mof_C 	C 	0.57993	0.70914	0.88304	-0.119
Mof_C 	C 	0.55165	0.68059	0.83461	0.053
Mof_H 	H 	0.55247	0.69053	0.79093	0.029
Mof_C 	C 	0.52227	0.63724	0.85206	-0.131
Mof_H 	H 	0.50257	0.61773	0.82003	0.087
Mof_C 	C 	0.52134	0.62225	0.91473	0.096
Mof_C 	C 	0.54943	0.65164	0.96234	-0.136
Mof_H 	H 	0.54837	0.64203	0.00633	0.077
Mof_C 	C 	0.57869	0.69459	0.94557	0.058
Mof_H 	H 	0.59807	0.71413	0.97783	0.027
Mof_C 	C 	0.4938	0.5749	0.93185	-0.057
Mof_C 	C 	0.51249	0.5549	0.96558	-0.046
Mof_H 	H 	0.54257	0.57183	0.97713	0.046
Mof_H 	H 	0.38847	0.56613	0.95013	0.081
Mof_O 	O 	0.3041	0.11311	0.24265	-0.408
Mof_O 	O 	0.27821	0.10008	0.13888	-0.406
Mof_C 	C 	0.27888	0.08898	0.198	0.36
Mof_C 	C 	0.24659	0.04248	0.21638	-0.119
Mof_C 	C 	0.21831	0.01393	0.16795	0.053
Mof_H 	H 	0.21913	0.02387	0.12427	0.029
Mof_C 	C 	0.18893	0.97058	0.1854	-0.131
Mof_H 	H 	0.16923	0.95107	0.15337	0.087
Mof_C 	C 	0.188	0.95559	0.24807	0.096
Mof_C 	C 	0.21609	0.98498	0.29568	-0.136
Mof_H 	H 	0.21503	0.97537	0.33967	0.077
Mof_C 	C 	0.24535	0.02793	0.27891	0.058
Mof_H 	H 	0.26473	0.04747	0.31117	0.027
Mof_C 	C 	0.16046	0.90824	0.26519	-0.057
Mof_C 	C 	0.17915	0.88824	0.29892	-0.046
Mof_H 	H 	0.20923	0.90517	0.31047	0.046
Mof_H 	H 	0.05513	0.89947	0.28347	0.081
Mof_O 	O 	0.55356	0.52433	0.57598	-0.408
Mof_O 	O 	0.56659	0.51147	0.47221	-0.406
Mof_C 	C 	0.57769	0.52324	0.53133	0.36
Mof_C 	C 	0.62419	0.53745	0.54971	-0.119
Mof_C 	C 	0.65274	0.53772	0.50128	0.053
Mof_H 	H 	0.6428	0.5286	0.4576	0.029
Mof_C 	C 	0.69609	0.55169	0.51873	-0.131
Mof_H 	H 	0.7156	0.5515	0.4867	0.087
Mof_C 	C 	0.71108	0.56575	0.5814	0.096
Mof_C 	C 	0.68169	0.56445	0.62901	-0.136
Mof_H 	H 	0.6913	0.573	0.673	0.077
Mof_C 	C 	0.63874	0.55076	0.61224	0.058
Mof_H 	H 	0.6192	0.5506	0.6445	0.027
Mof_C 	C 	0.75843	0.58556	0.59852	-0.057
Mof_C 	C 	0.77843	0.62425	0.63225	-0.046
Mof_H 	H 	0.7615	0.6374	0.6438	0.046
Mof_H 	H 	0.7672	0.489	0.6168	0.081
Mof_O 	O 	0.22023	0.85766	0.90931	-0.408
Mof_O 	O 	0.23326	0.8448	0.80554	-0.406
Mof_C 	C 	0.24436	0.85657	0.86466	0.36
Mof_C 	C 	0.29086	0.87078	0.88304	-0.119
Mof_C 	C 	0.31941	0.87105	0.83461	0.053
Mof_H 	H 	0.30947	0.86193	0.79093	0.029
Mof_C 	C 	0.36276	0.88502	0.85206	-0.131
Mof_H 	H 	0.38227	0.88483	0.82003	0.087
Mof_C 	C 	0.37775	0.89908	0.91473	0.096
Mof_C 	C 	0.34836	0.89778	0.96234	-0.136
Mof_H 	H 	0.35797	0.90633	0.00633	0.077
Mof_C 	C 	0.30541	0.88409	0.94557	0.058
Mof_H 	H 	0.28587	0.88393	0.97783	0.027
Mof_C 	C 	0.4251	0.91889	0.93185	-0.057
Mof_C 	C 	0.4451	0.95758	0.96558	-0.046
Mof_H 	H 	0.42817	0.97073	0.97713	0.046
Mof_H 	H 	0.43387	0.82233	0.95013	0.081
Mof_O 	O 	0.88689	0.191	0.24265	-0.408
Mof_O 	O 	0.89992	0.17814	0.13888	-0.406
Mof_C 	C 	0.91102	0.18991	0.198	0.36
Mof_C 	C 	0.95752	0.20412	0.21638	-0.119
Mof_C 	C 	0.98607	0.20439	0.16795	0.053
Mof_H 	H 	0.97613	0.19527	0.12427	0.029
Mof_C 	C 	0.02942	0.21836	0.1854	-0.131
Mof_H 	H 	0.04893	0.21817	0.15337	0.087
Mof_C 	C 	0.04441	0.23242	0.24807	0.096
Mof_C 	C 	0.01502	0.23112	0.29568	-0.136
Mof_H 	H 	0.02463	0.23967	0.33967	0.077
Mof_C 	C 	0.97207	0.21743	0.27891	0.058
Mof_H 	H 	0.95253	0.21727	0.31117	0.027
Mof_C 	C 	0.09176	0.25223	0.26519	-0.057
Mof_C 	C 	0.11176	0.29092	0.29892	-0.046
Mof_H 	H 	0.09483	0.30407	0.31047	0.046
Mof_H 	H 	0.10053	0.15567	0.28347	0.081
Mof_O 	O 	0.02923	0.47567	0.42402	-0.408
Mof_O 	O 	0.05512	0.48853	0.52779	-0.406
Mof_C 	C 	0.05445	0.47676	0.46867	0.36
Mof_C 	C 	0.08674	0.46255	0.45029	-0.119
Mof_C 	C 	0.11502	0.46228	0.49872	0.053
Mof_H 	H 	0.1142	0.4714	0.5424	0.029
Mof_C 	C 	0.1444	0.44831	0.48127	-0.131
Mof_H 	H 	0.1641	0.4485	0.5133	0.087
Mof_C 	C 	0.14533	0.43425	0.4186	0.096
Mof_C 	C 	0.11724	0.43555	0.37099	-0.136
Mof_H 	H 	0.1183	0.427	0.327	0.077
Mof_C 	C 	0.08798	0.44924	0.38776	0.058
Mof_H 	H 	0.0686	0.4494	0.3555	0.027
Mof_C 	C 	0.17287	0.41444	0.40148	-0.057
Mof_C 	C 	0.15418	0.37575	0.36775	-0.046
Mof_H 	H 	0.1241	0.3626	0.3562	0.046
Mof_H 	H 	0.2782	0.511	0.3832	0.081
Mof_O 	O 	0.6959	0.809	0.75735	-0.408
Mof_O 	O 	0.72179	0.82186	0.86112	-0.406
Mof_C 	C 	0.72112	0.81009	0.802	0.36
Mof_C 	C 	0.75341	0.79588	0.78362	-0.119
Mof_C 	C 	0.78169	0.79561	0.83205	0.053
Mof_H 	H 	0.78087	0.80473	0.87573	0.029
Mof_C 	C 	0.81107	0.78164	0.8146	-0.131
Mof_H 	H 	0.83077	0.78183	0.84663	0.087
Mof_C 	C 	0.812	0.76758	0.75193	0.096
Mof_C 	C 	0.78391	0.76888	0.70432	-0.136
Mof_H 	H 	0.78497	0.76033	0.66033	0.077
Mof_C 	C 	0.75465	0.78257	0.72109	0.058
Mof_H 	H 	0.73527	0.78273	0.68883	0.027
Mof_C 	C 	0.83954	0.74777	0.73481	-0.057
Mof_C 	C 	0.82085	0.70908	0.70108	-0.046
Mof_H 	H 	0.79077	0.69593	0.68953	0.046
Mof_H 	H 	0.94487	0.84433	0.71653	0.081
Mof_O 	O 	0.36256	0.14234	0.09069	-0.408
Mof_O 	O 	0.38845	0.1552	0.19446	-0.406
Mof_C 	C 	0.38778	0.14343	0.13534	0.36
Mof_C 	C 	0.42007	0.12922	0.11696	-0.119
Mof_C 	C 	0.44835	0.12895	0.16539	0.053
Mof_H 	H 	0.44753	0.13807	0.20907	0.029
Mof_C 	C 	0.47773	0.11498	0.14794	-0.131
Mof_H 	H 	0.49743	0.11517	0.17997	0.087
Mof_C 	C 	0.47866	0.10092	0.08527	0.096
Mof_C 	C 	0.45057	0.10222	0.03766	-0.136
Mof_H 	H 	0.45163	0.09367	0.99367	0.077
Mof_C 	C 	0.42131	0.11591	0.05443	0.058
Mof_H 	H 	0.40193	0.11607	0.02217	0.027
Mof_C 	C 	0.5062	0.08111	0.06815	-0.057
Mof_C 	C 	0.48751	0.04242	0.03442	-0.046
Mof_H 	H 	0.45743	0.02927	0.02287	0.046
Mof_H 	H 	0.61153	0.17767	0.04987	0.081
Mof_O 	O 	0.44644	0.97077	0.42402	-0.408
Mof_O 	O 	0.43341	0.94488	0.52779	-0.406
Mof_C 	C 	0.42231	0.94555	0.46867	0.36
Mof_C 	C 	0.37581	0.91326	0.45029	-0.119
Mof_C 	C 	0.34726	0.88498	0.49872	0.053
Mof_H 	H 	0.3572	0.8858	0.5424	0.029
Mof_C 	C 	0.30391	0.8556	0.48127	-0.131
Mof_H 	H 	0.2844	0.8359	0.5133	0.087
Mof_C 	C 	0.28892	0.85467	0.4186	0.096
Mof_C 	C 	0.31831	0.88276	0.37099	-0.136
Mof_H 	H 	0.3087	0.8817	0.327	0.077
Mof_C 	C 	0.36126	0.91202	0.38776	0.058
Mof_H 	H 	0.3808	0.9314	0.3555	0.027
Mof_C 	C 	0.24157	0.82713	0.40148	-0.057
Mof_C 	C 	0.22157	0.84582	0.36775	-0.046
Mof_H 	H 	0.2385	0.8759	0.3562	0.046
Mof_H 	H 	0.2328	0.7218	0.3832	0.081
Mof_O 	O 	0.11311	0.3041	0.75735	-0.408
Mof_O 	O 	0.10008	0.27821	0.86112	-0.406
Mof_C 	C 	0.08898	0.27888	0.802	0.36
Mof_C 	C 	0.04248	0.24659	0.78362	-0.119
Mof_C 	C 	0.01393	0.21831	0.83205	0.053
Mof_H 	H 	0.02387	0.21913	0.87573	0.029
Mof_C 	C 	0.97058	0.18893	0.8146	-0.131
Mof_H 	H 	0.95107	0.16923	0.84663	0.087
Mof_C 	C 	0.95559	0.188	0.75193	0.096
Mof_C 	C 	0.98498	0.21609	0.70432	-0.136
Mof_H 	H 	0.97537	0.21503	0.66033	0.077
Mof_C 	C 	0.02793	0.24535	0.72109	0.058
Mof_H 	H 	0.04747	0.26473	0.68883	0.027
Mof_C 	C 	0.90824	0.16046	0.73481	-0.057
Mof_C 	C 	0.88824	0.17915	0.70108	-0.046
Mof_H 	H 	0.90517	0.20923	0.68953	0.046
Mof_H 	H 	0.89947	0.05513	0.71653	0.081
Mof_O 	O 	0.77977	0.63744	0.09069	-0.408
Mof_O 	O 	0.76674	0.61155	0.19446	-0.406
Mof_C 	C 	0.75564	0.61222	0.13534	0.36
Mof_C 	C 	0.70914	0.57993	0.11696	-0.119
Mof_C 	C 	0.68059	0.55165	0.16539	0.053
Mof_H 	H 	0.69053	0.55247	0.20907	0.029
Mof_C 	C 	0.63724	0.52227	0.14794	-0.131
Mof_H 	H 	0.61773	0.50257	0.17997	0.087
Mof_C 	C 	0.62225	0.52134	0.08527	0.096
Mof_C 	C 	0.65164	0.54943	0.03766	-0.136
Mof_H 	H 	0.64203	0.54837	0.99367	0.077
Mof_C 	C 	0.69459	0.57869	0.05443	0.058
Mof_H 	H 	0.71413	0.59807	0.02217	0.027
Mof_C 	C 	0.5749	0.4938	0.06815	-0.057
Mof_C 	C 	0.5549	0.51249	0.03442	-0.046
Mof_H 	H 	0.57183	0.54257	0.02287	0.046
Mof_H 	H 	0.56613	0.38847	0.04987	0.081
Mof_O 	O 	0.52433	0.55356	0.42402	-0.408
Mof_O 	O 	0.51147	0.56659	0.52779	-0.406
Mof_C 	C 	0.52324	0.57769	0.46867	0.36
Mof_C 	C 	0.53745	0.62419	0.45029	-0.119
Mof_C 	C 	0.53772	0.65274	0.49872	0.053
Mof_H 	H 	0.5286	0.6428	0.5424	0.029
Mof_C 	C 	0.55169	0.69609	0.48127	-0.131
Mof_H 	H 	0.5515	0.7156	0.5133	0.087
Mof_C 	C 	0.56575	0.71108	0.4186	0.096
Mof_C 	C 	0.56445	0.68169	0.37099	-0.136
Mof_H 	H 	0.573	0.6913	0.327	0.077
Mof_C 	C 	0.55076	0.63874	0.38776	0.058
Mof_H 	H 	0.5506	0.6192	0.3555	0.027
Mof_C 	C 	0.58556	0.75843	0.40148	-0.057
Mof_C 	C 	0.62425	0.77843	0.36775	-0.046
Mof_H 	H 	0.6374	0.7615	0.3562	0.046
Mof_H 	H 	0.489	0.7672	0.3832	0.081
Mof_O 	O 	0.191	0.88689	0.75735	-0.408
Mof_O 	O 	0.17814	0.89992	0.86112	-0.406
Mof_C 	C 	0.18991	0.91102	0.802	0.36
Mof_C 	C 	0.20412	0.95752	0.78362	-0.119
Mof_C 	C 	0.20439	0.98607	0.83205	0.053
Mof_H 	H 	0.19527	0.97613	0.87573	0.029
Mof_C 	C 	0.21836	0.02942	0.8146	-0.131
Mof_H 	H 	0.21817	0.04893	0.84663	0.087
Mof_C 	C 	0.23242	0.04441	0.75193	0.096
Mof_C 	C 	0.23112	0.01502	0.70432	-0.136
Mof_H 	H 	0.23967	0.02463	0.66033	0.077
Mof_C 	C 	0.21743	0.97207	0.72109	0.058
Mof_H 	H 	0.21727	0.95253	0.68883	0.027
Mof_C 	C 	0.25223	0.09176	0.73481	-0.057
Mof_C 	C 	0.29092	0.11176	0.70108	-0.046
Mof_H 	H 	0.30407	0.09483	0.68953	0.046
Mof_H 	H 	0.15567	0.10053	0.71653	0.081
Mof_O 	O 	0.85766	0.22023	0.09069	-0.408
Mof_O 	O 	0.8448	0.23326	0.19446	-0.406
Mof_C 	C 	0.85657	0.24436	0.13534	0.36
Mof_C 	C 	0.87078	0.29086	0.11696	-0.119
Mof_C 	C 	0.87105	0.31941	0.16539	0.053
Mof_H 	H 	0.86193	0.30947	0.20907	0.029
Mof_C 	C 	0.88502	0.36276	0.14794	-0.131
Mof_H 	H 	0.88483	0.38227	0.17997	0.087
Mof_C 	C 	0.89908	0.37775	0.08527	0.096
Mof_C 	C 	0.89778	0.34836	0.03766	-0.136
Mof_H 	H 	0.90633	0.35797	0.99367	0.077
Mof_C 	C 	0.88409	0.30541	0.05443	0.058
Mof_H 	H 	0.88393	0.28587	0.02217	0.027
Mof_C 	C 	0.91889	0.4251	0.06815	-0.057
Mof_C 	C 	0.95758	0.4451	0.03442	-0.046
Mof_H 	H 	0.97073	0.42817	0.02287	0.046
Mof_H 	H 	0.82233	0.43387	0.04987	0.081
Mof_Cu	Cu	0.50762	0.01523	0.43926	0.904
Mof_Cu	Cu	0.17428	0.34856	0.77259	0.904
Mof_Cu	Cu	0.84095	0.6819	0.10593	0.904
Mof_Cu	Cu	0.98477	0.49238	0.43926	0.904
Mof_Cu	Cu	0.65144	0.82572	0.77259	0.904
Mof_Cu	Cu	0.3181	0.15905	0.10593	0.904
Mof_Cu	Cu	0.50762	0.49238	0.43926	0.904
Mof_Cu	Cu	0.17428	0.82572	0.77259	0.904
Mof_Cu	Cu	0.84095	0.15905	0.10593	0.904
Mof_Cu	Cu	0.01523	0.50761	0.56074	0.904
Mof_Cu	Cu	0.6819	0.84095	0.89407	0.904
Mof_Cu	Cu	0.34856	0.17428	0.22741	0.904
Mof_Cu	Cu	0.49238	0.98477	0.56074	0.904
Mof_Cu	Cu	0.15905	0.3181	0.89407	0.904
Mof_Cu	Cu	0.82572	0.65144	0.22741	0.904
Mof_Cu	Cu	0.49238	0.50762	0.56074	0.904
Mof_Cu	Cu	0.15905	0.84095	0.89407	0.904
Mof_Cu	Cu	0.82572	0.17428	0.22741	0.904
Mof_O 	O 	0.52643	0.76321	0.45314	-0.18
Mof_C 	C 	0.64548	0.82274	0.34926	0.008
Mof_C 	C 	0.56551	0.78275	0.41898	0.115
Mof_C 	C 	0.48861	0.7443	0.4111	-0.154
Mof_H 	H 	0.462	0.731	0.438	0.083
Mof_O 	O 	0.1931	0.09655	0.78647	-0.18
Mof_C 	C 	0.31215	0.15607	0.68259	0.008
Mof_C 	C 	0.23218	0.11609	0.75231	0.115
Mof_C 	C 	0.15528	0.07764	0.74443	-0.155
Mof_H 	H 	0.12867	0.06433	0.77133	0.083
Mof_O 	O 	0.85976	0.42988	0.11981	-0.18
Mof_C 	C 	0.97881	0.48941	0.01593	0.008
Mof_C 	C 	0.89884	0.44942	0.08565	0.115
Mof_C 	C 	0.82194	0.41097	0.07777	-0.155
Mof_H 	H 	0.79533	0.39767	0.10467	0.083
Mof_O 	O 	0.23679	0.76321	0.45314	-0.18
Mof_C 	C 	0.17726	0.82274	0.34926	0.008
Mof_C 	C 	0.21725	0.78275	0.41898	0.115
Mof_C 	C 	0.2557	0.7443	0.4111	-0.155
Mof_H 	H 	0.269	0.731	0.438	0.084
Mof_O 	O 	0.90345	0.09655	0.78647	-0.18
Mof_C 	C 	0.84393	0.15607	0.68259	0.008
Mof_C 	C 	0.88391	0.11609	0.75231	0.115
Mof_C 	C 	0.92236	0.07764	0.74443	-0.154
Mof_H 	H 	0.93567	0.06433	0.77133	0.083
Mof_O 	O 	0.57012	0.42988	0.11981	-0.18
Mof_C 	C 	0.51059	0.48941	0.01593	0.008
Mof_C 	C 	0.55058	0.44942	0.08565	0.115
Mof_C 	C 	0.58903	0.41097	0.07777	-0.155
Mof_H 	H 	0.60233	0.39767	0.10467	0.084
Mof_O 	O 	0.23679	0.47357	0.45314	-0.18
Mof_C 	C 	0.17726	0.35452	0.34926	0.008
Mof_C 	C 	0.21724	0.43449	0.41898	0.115
Mof_C 	C 	0.2557	0.51139	0.4111	-0.154
Mof_H 	H 	0.269	0.538	0.438	0.083
Mof_O 	O 	0.90345	0.8069	0.78647	-0.18
Mof_C 	C 	0.84393	0.68785	0.68259	0.008
Mof_C 	C 	0.88391	0.76782	0.75231	0.115
Mof_C 	C 	0.92236	0.84472	0.74443	-0.155
Mof_H 	H 	0.93567	0.87133	0.77133	0.083
Mof_O 	O 	0.57012	0.14024	0.11981	-0.18
Mof_C 	C 	0.51059	0.02119	0.01593	0.008
Mof_C 	C 	0.55058	0.10116	0.08565	0.115
Mof_C 	C 	0.58903	0.17806	0.07777	-0.155
Mof_H 	H 	0.60233	0.20467	0.10467	0.083
Mof_O 	O 	0.76321	0.52643	0.54686	-0.18
Mof_C 	C 	0.82274	0.64548	0.65074	0.008
Mof_C 	C 	0.78275	0.56551	0.58102	0.115
Mof_C 	C 	0.7443	0.48861	0.5889	-0.154
Mof_H 	H 	0.731	0.462	0.562	0.083
Mof_O 	O 	0.42988	0.85976	0.88019	-0.18
Mof_C 	C 	0.48941	0.97881	0.98407	0.008
Mof_C 	C 	0.44942	0.89884	0.91435	0.115
Mof_C 	C 	0.41097	0.82194	0.92223	-0.155
Mof_H 	H 	0.39767	0.79533	0.89533	0.083
Mof_O 	O 	0.09655	0.1931	0.21353	-0.18
Mof_C 	C 	0.15607	0.31215	0.31741	0.008
Mof_C 	C 	0.11609	0.23218	0.24769	0.115
Mof_C 	C 	0.07764	0.15528	0.25557	-0.155
Mof_H 	H 	0.06433	0.12867	0.22867	0.083
Mof_O 	O 	0.76321	0.23679	0.54686	-0.18
Mof_C 	C 	0.82274	0.17726	0.65074	0.008
Mof_C 	C 	0.78275	0.21725	0.58102	0.115
Mof_C 	C 	0.7443	0.2557	0.5889	-0.155
Mof_H 	H 	0.731	0.269	0.562	0.084
Mof_O 	O 	0.42988	0.57012	0.88019	-0.18
Mof_C 	C 	0.48941	0.51059	0.98407	0.008
Mof_C 	C 	0.44942	0.55058	0.91435	0.115
Mof_C 	C 	0.41097	0.58903	0.92223	-0.155
Mof_H 	H 	0.39767	0.60233	0.89533	0.084
Mof_O 	O 	0.09655	0.90345	0.21353	-0.18
Mof_C 	C 	0.15607	0.84393	0.31741	0.008
Mof_C 	C 	0.11609	0.88391	0.24769	0.115
Mof_C 	C 	0.07764	0.92236	0.25557	-0.154
Mof_H 	H 	0.06433	0.93567	0.22867	0.083
Mof_O 	O 	0.47357	0.23679	0.54686	-0.18
Mof_C 	C 	0.35452	0.17726	0.65074	0.008
Mof_C 	C 	0.43449	0.21725	0.58102	0.115
Mof_C 	C 	0.51139	0.2557	0.5889	-0.154
Mof_H 	H 	0.538	0.269	0.562	0.083
Mof_O 	O 	0.14024	0.57012	0.88019	-0.18
Mof_C 	C 	0.02119	0.51059	0.98407	0.008
Mof_C 	C 	0.10116	0.55058	0.91435	0.115
Mof_C 	C 	0.17806	0.58903	0.92223	-0.155
Mof_H 	H 	0.20467	0.60233	0.89533	0.083
Mof_O 	O 	0.8069	0.90345	0.21353	-0.18
Mof_C 	C 	0.68785	0.84393	0.31741	0.008
Mof_C 	C 	0.76782	0.88391	0.24769	0.115
Mof_C 	C 	0.84472	0.92236	0.25557	-0.155
Mof_H 	H 	0.87133	0.93567	0.22867	0.083
_end
