data_functionalizedCrystal
_audit_creation_method	'EQeq! by Chris Wilmer'
_symmetry_space_group_name_H-M	'P1'
_symmetry_Int_Tables_number	1
_symmetry_cell_setting	triclinic
loop_
_symmetry_equiv_pos_as_xyz
  x,y,z
_cell_length_a	9.7306
_cell_length_b	10.53
_cell_length_c	16.416
_cell_angle_alpha	90
_cell_angle_beta	112.13
_cell_angle_gamma	90
loop_
_atom_site_label
_atom_site_type_symbol
_atom_site_fract_x
_atom_site_fract_y
_atom_site_fract_z
_atom_site_charge
Mof_C 	C 	0.6771	0.0539	0.9693	0.057
Mof_H 	H 	0.6074	0.1102	0.9327	0.028
Mof_C 	C 	0.6421	0.9271	0.9705	-0.147
Mof_H 	H 	0.5494	0.8972	0.9339	0.08
Mof_C 	C 	0.7442	0.8458	0.0257	0.102
Mof_H 	H 	0.7202	0.7606	0.0276	0.01
Mof_C 	C 	0.8817	0.8891	0.0783	-0.214
Mof_H 	H 	0.9511	0.8332	0.1156	0.115
Mof_C 	C 	0.9183	0.0171	0.076	0.206
Mof_C 	C 	0.066	0.0714	0.128	-0.415
Mof_H 	H 	0.0903	0.1349	0.0928	0.182
Mof_H 	H 	0.1398	0.0046	0.141	0.156
Mof_C 	C 	0.9285	0.9674	0.468	0.26
Mof_C 	C 	0.5165	0.9399	0.5291	0.269
Mof_Gd	Gd	0.18022	0.88804	0.39342	1.721
Mof_N 	N 	0.8133	0.0962	0.0215	-0.104
Mof_O 	O 	0.062	0.042	0.29066	-0.443
Mof_O 	O 	0.2371	0.2032	0.26798	-0.467
Mof_H 	H 	0.284	0.173	0.3166	0.297
Mof_O 	O 	0.9615	0.2463	0.21048	-0.454
Mof_O 	O 	0.8454	0.2179	0.01707	-0.287
Mof_O 	O 	0.8143	0.9794	0.48541	-0.376
Mof_O 	O 	0.9381	0.909	0.40476	-0.354
Mof_O 	O 	0.4262	0.852	0.50717	-0.393
Mof_O 	O 	0.6373	0.9432	0.59488	-0.405
Mof_P 	P 	0.07588	0.14354	0.23021	0.569
Mof_C 	C 	0.3229	0.5539	0.5307	0.071
Mof_H 	H 	0.3926	0.6102	0.5673	0.024
Mof_C 	C 	0.3579	0.4271	0.5295	-0.167
Mof_H 	H 	0.4506	0.3972	0.5661	0.088
Mof_C 	C 	0.2558	0.3458	0.4743	0.126
Mof_H 	H 	0.2798	0.2606	0.4724	0.003
Mof_C 	C 	0.1183	0.3891	0.4217	-0.239
Mof_H 	H 	0.0489	0.3332	0.3844	0.126
Mof_C 	C 	0.0817	0.5171	0.424	0.23
Mof_C 	C 	0.934	0.5714	0.372	-0.435
Mof_H 	H 	0.9097	0.6349	0.4072	0.186
Mof_H 	H 	0.8602	0.5046	0.359	0.159
Mof_C 	C 	0.0715	0.4674	0.032	0.259
Mof_C 	C 	0.4835	0.4399	0.9709	0.269
Mof_Gd	Gd	0.81978	0.38804	0.10658	1.728
Mof_N 	N 	0.1867	0.5962	0.4785	-0.109
Mof_O 	O 	0.938	0.542	0.20934	-0.448
Mof_O 	O 	0.7629	0.7032	0.23202	-0.467
Mof_H 	H 	0.716	0.673	0.1834	0.297
Mof_O 	O 	0.0385	0.7463	0.28952	-0.451
Mof_O 	O 	0.1546	0.7179	0.48293	-0.285
Mof_O 	O 	0.1857	0.4794	0.01459	-0.377
Mof_O 	O 	0.0619	0.409	0.09524	-0.354
Mof_O 	O 	0.5738	0.352	0.99283	-0.393
Mof_O 	O 	0.3627	0.4432	0.90512	-0.407
Mof_P 	P 	0.92412	0.64354	0.26979	0.569
Mof_C 	C 	0.3229	0.9461	0.0307	0.058
Mof_H 	H 	0.3926	0.8898	0.0673	0.029
Mof_C 	C 	0.3579	0.0729	0.0295	-0.146
Mof_H 	H 	0.4506	0.1028	0.0661	0.081
Mof_C 	C 	0.2558	0.1542	0.9743	0.103
Mof_H 	H 	0.2798	0.2394	0.9724	0.011
Mof_C 	C 	0.1183	0.1109	0.9217	-0.213
Mof_H 	H 	0.0489	0.1668	0.8844	0.116
Mof_C 	C 	0.0817	0.9829	0.924	0.206
Mof_C 	C 	0.934	0.9286	0.872	-0.415
Mof_H 	H 	0.9097	0.8651	0.9072	0.182
Mof_H 	H 	0.8602	0.9954	0.859	0.156
Mof_C 	C 	0.0715	0.0326	0.532	0.26
Mof_C 	C 	0.4835	0.0601	0.4709	0.269
Mof_Gd	Gd	0.81978	0.11196	0.60658	1.721
Mof_N 	N 	0.1867	0.9038	0.9785	-0.104
Mof_O 	O 	0.938	0.958	0.70934	-0.443
Mof_O 	O 	0.7629	0.7968	0.73202	-0.467
Mof_H 	H 	0.716	0.827	0.6834	0.297
Mof_O 	O 	0.0385	0.7537	0.78952	-0.454
Mof_O 	O 	0.1546	0.7821	0.98293	-0.287
Mof_O 	O 	0.1857	0.0206	0.51459	-0.376
Mof_O 	O 	0.0619	0.091	0.59524	-0.354
Mof_O 	O 	0.5738	0.148	0.49283	-0.393
Mof_O 	O 	0.3627	0.0568	0.40512	-0.405
Mof_P 	P 	0.92412	0.85646	0.76979	0.569
Mof_C 	C 	0.6771	0.4461	0.4693	0.071
Mof_H 	H 	0.6074	0.3898	0.4327	0.024
Mof_C 	C 	0.6421	0.5729	0.4705	-0.167
Mof_H 	H 	0.5494	0.6028	0.4339	0.088
Mof_C 	C 	0.7442	0.6542	0.5257	0.126
Mof_H 	H 	0.7202	0.7394	0.5276	0.003
Mof_C 	C 	0.8817	0.6109	0.5783	-0.239
Mof_H 	H 	0.9511	0.6668	0.6156	0.126
Mof_C 	C 	0.9183	0.4829	0.576	0.23
Mof_C 	C 	0.066	0.4286	0.628	-0.435
Mof_H 	H 	0.0903	0.3651	0.5928	0.186
Mof_H 	H 	0.1398	0.4954	0.641	0.159
Mof_C 	C 	0.9285	0.5326	0.968	0.259
Mof_C 	C 	0.5165	0.5601	0.0291	0.269
Mof_Gd	Gd	0.18022	0.61196	0.89342	1.728
Mof_N 	N 	0.8133	0.4038	0.5215	-0.109
Mof_O 	O 	0.062	0.458	0.79066	-0.448
Mof_O 	O 	0.2371	0.2968	0.76798	-0.467
Mof_H 	H 	0.284	0.327	0.8166	0.297
Mof_O 	O 	0.9615	0.2537	0.71048	-0.451
Mof_O 	O 	0.8454	0.2821	0.51707	-0.285
Mof_O 	O 	0.8143	0.5206	0.98541	-0.377
Mof_O 	O 	0.9381	0.591	0.90476	-0.354
Mof_O 	O 	0.4262	0.648	0.00717	-0.393
Mof_O 	O 	0.6373	0.5568	0.09488	-0.407
Mof_P 	P 	0.07588	0.35646	0.73021	0.569
_end
