# CIF file generated by openbabel 3.1.0, see https://openbabel.org
data_I
_chemical_name_common 'image0'
_cell_length_a 12.083
_cell_length_b 14.893
_cell_length_c 11.784
_cell_angle_alpha 90
_cell_angle_beta 98.16
_cell_angle_gamma 90
_space_group_name_H-M_alt 'P 1'
_space_group_name_Hall 'P 1'
loop_
    _symmetry_equiv_pos_as_xyz
    x,y,z
loop_
    _atom_site_label
    _atom_site_type_symbol
    _atom_site_fract_x
    _atom_site_fract_y
    _atom_site_fract_z
    _atom_site_occupancy
    Zn1      Zn       0.40399    0.73576    0.08798    1.000
    Zn2      Zn       0.29531    0.61343    0.54504    1.000
    P1       P        0.33025    0.73789    0.34463    1.000
    P2       P        0.24860    0.91163    0.03598    1.000
    O1       O        0.26403    0.99241    0.96169    1.000
    O2       O        0.44014    0.75183    0.42348    1.000
    O3       O        0.33810    0.84333    0.01580    1.000
    O4       O        0.13247    0.86882    0.01236    1.000
    O5       O        0.25706    0.66877    0.39727    1.000
    O6       O        0.26477    0.82760    0.32788    1.000
    O7       O        0.26579    0.94480    0.16424    1.000
    O8       O        0.34927    0.70107    0.22692    1.000
    Zn3      Zn       0.90399    0.23576    0.08798    1.000
    Zn4      Zn       0.79531    0.11343    0.54504    1.000
    P3       P        0.83025    0.23789    0.34463    1.000
    P4       P        0.74860    0.41163    0.03598    1.000
    O9       O        0.76403    0.49241    0.96169    1.000
    O10      O        0.94014    0.25183    0.42348    1.000
    O11      O        0.83810    0.34333    0.01580    1.000
    O12      O        0.63247    0.36882    0.01236    1.000
    O13      O        0.75706    0.16877    0.39727    1.000
    O14      O        0.76477    0.32760    0.32788    1.000
    O15      O        0.76579    0.44480    0.16424    1.000
    O16      O        0.84927    0.20107    0.22692    1.000
    Zn5      Zn       0.59601    0.73576    0.41202    1.000
    Zn6      Zn       0.70469    0.61343    0.95496    1.000
    P5       P        0.66975    0.73789    0.15537    1.000
    P6       P        0.75140    0.91163    0.46402    1.000
    O17      O        0.73597    0.99241    0.53831    1.000
    O18      O        0.55986    0.75183    0.07652    1.000
    O19      O        0.66190    0.84333    0.48420    1.000
    O20      O        0.86753    0.86882    0.48764    1.000
    O21      O        0.74294    0.66877    0.10273    1.000
    O22      O        0.73523    0.82760    0.17212    1.000
    O23      O        0.73421    0.94480    0.33576    1.000
    O24      O        0.65073    0.70107    0.27308    1.000
    Zn7      Zn       0.09601    0.23576    0.41202    1.000
    Zn8      Zn       0.20469    0.11343    0.95496    1.000
    P7       P        0.16975    0.23789    0.15537    1.000
    P8       P        0.25140    0.41163    0.46402    1.000
    O25      O        0.23597    0.49241    0.53831    1.000
    O26      O        0.05986    0.25183    0.07652    1.000
    O27      O        0.16190    0.34333    0.48420    1.000
    O28      O        0.36753    0.36882    0.48764    1.000
    O29      O        0.24294    0.16877    0.10273    1.000
    O30      O        0.23523    0.32760    0.17212    1.000
    O31      O        0.23421    0.44480    0.33576    1.000
    O32      O        0.15073    0.20107    0.27308    1.000
    Zn9      Zn       0.59601    0.26424    0.91202    1.000
    Zn10     Zn       0.70469    0.38657    0.45496    1.000
    P9       P        0.66975    0.26211    0.65537    1.000
    P10      P        0.75140    0.08837    0.96402    1.000
    O33      O        0.73597    0.00759    0.03831    1.000
    O34      O        0.55986    0.24817    0.57652    1.000
    O35      O        0.66190    0.15667    0.98420    1.000
    O36      O        0.86753    0.13118    0.98764    1.000
    O37      O        0.74294    0.33123    0.60273    1.000
    O38      O        0.73523    0.17240    0.67212    1.000
    O39      O        0.73421    0.05520    0.83576    1.000
    O40      O        0.65073    0.29893    0.77308    1.000
    Zn11     Zn       0.09601    0.76424    0.91202    1.000
    Zn12     Zn       0.20469    0.88657    0.45496    1.000
    P11      P        0.16975    0.76211    0.65537    1.000
    P12      P        0.25140    0.58837    0.96402    1.000
    O41      O        0.23597    0.50759    0.03831    1.000
    O42      O        0.05986    0.74817    0.57652    1.000
    O43      O        0.16190    0.65667    0.98420    1.000
    O44      O        0.36753    0.63118    0.98764    1.000
    O45      O        0.24294    0.83123    0.60273    1.000
    O46      O        0.23523    0.67240    0.67212    1.000
    O47      O        0.23421    0.55520    0.83576    1.000
    O48      O        0.15073    0.79893    0.77308    1.000
    Zn13     Zn       0.40399    0.26424    0.58798    1.000
    Zn14     Zn       0.29531    0.38657    0.04504    1.000
    P13      P        0.33025    0.26211    0.84463    1.000
    P14      P        0.24860    0.08837    0.53598    1.000
    O49      O        0.26403    0.00759    0.46169    1.000
    O50      O        0.44014    0.24817    0.92348    1.000
    O51      O        0.33810    0.15667    0.51580    1.000
    O52      O        0.13247    0.13118    0.51236    1.000
    O53      O        0.25706    0.33123    0.89727    1.000
    O54      O        0.26477    0.17240    0.82788    1.000
    O55      O        0.26579    0.05520    0.66424    1.000
    O56      O        0.34927    0.29893    0.72692    1.000
    Zn15     Zn       0.90399    0.76424    0.58798    1.000
    Zn16     Zn       0.79531    0.88657    0.04504    1.000
    P15      P        0.83025    0.76211    0.84463    1.000
    P16      P        0.74860    0.58837    0.53598    1.000
    O57      O        0.76403    0.50759    0.46169    1.000
    O58      O        0.94014    0.74817    0.92348    1.000
    O59      O        0.83810    0.65667    0.51580    1.000
    O60      O        0.63247    0.63118    0.51236    1.000
    O61      O        0.75706    0.83123    0.89727    1.000
    O62      O        0.76477    0.67240    0.82788    1.000
    O63      O        0.76579    0.55520    0.66424    1.000
    O64      O        0.84927    0.79893    0.72692    1.000
