# CIF file generated by openbabel 3.1.0, see https://openbabel.org
data_I
_chemical_name_common 'image0'
_cell_length_a 14.7367
_cell_length_b 9.5763
_cell_length_c 9.892
_cell_angle_alpha 90
_cell_angle_beta 101.474
_cell_angle_gamma 90
_space_group_name_H-M_alt 'P 1'
_space_group_name_Hall 'P 1'
loop_
    _symmetry_equiv_pos_as_xyz
    x,y,z
loop_
    _atom_site_label
    _atom_site_type_symbol
    _atom_site_fract_x
    _atom_site_fract_y
    _atom_site_fract_z
    _atom_site_occupancy
    Zn1      Zn       0.08728    0.07361    0.63678    1.000
    C1       C        0.26780    0.09640    0.72740    1.000
    C2       C        0.36330    0.07310    0.81900    1.000
    C3       C        0.37260    0.99140    0.93160    1.000
    H1       H        0.32040    0.95000    0.95380    1.000
    C4       C        0.46120    0.96730    0.01750    1.000
    C5       C        0.44070    0.14040    0.78490    1.000
    H2       H        0.43350    0.19910    0.70850    1.000
    C6       C        0.00550    0.83260    0.76760    1.000
    H3       H        0.04260    0.84940    0.85370    1.000
    C7       C        0.90770    0.74350    0.60860    1.000
    H4       H        0.86240    0.68500    0.55950    1.000
    N1       N        0.00620    0.90980    0.65960    1.000
    N2       N        0.94130    0.85230    0.55450    1.000
    N3       N        0.94550    0.72620    0.74170    1.000
    O1       O        0.20610    0.00940    0.74440    1.000
    O2       O        0.25500    0.19420    0.64800    1.000
    C8       C        0.52620    0.11890    0.86450    1.000
    H5       H        0.57740    0.16190    0.84070    1.000
    Zn2      Zn       0.91272    0.57361    0.86322    1.000
    C9       C        0.73220    0.59640    0.77260    1.000
    C10      C        0.63670    0.57310    0.68100    1.000
    C11      C        0.62740    0.49140    0.56840    1.000
    H6       H        0.67960    0.45000    0.54620    1.000
    C12      C        0.53880    0.46730    0.48250    1.000
    C13      C        0.55930    0.64040    0.71510    1.000
    H7       H        0.56650    0.69910    0.79150    1.000
    C14      C        0.99450    0.33260    0.73240    1.000
    H8       H        0.95740    0.34940    0.64630    1.000
    C15      C        0.09230    0.24350    0.89140    1.000
    H9       H        0.13760    0.18500    0.94050    1.000
    N4       N        0.99380    0.40980    0.84040    1.000
    N5       N        0.05870    0.35230    0.94550    1.000
    N6       N        0.05450    0.22620    0.75830    1.000
    O3       O        0.79390    0.50940    0.75560    1.000
    O4       O        0.74500    0.69420    0.85200    1.000
    C16      C        0.47380    0.61890    0.63550    1.000
    H10      H        0.42260    0.66190    0.65930    1.000
    Zn3      Zn       0.91272    0.92639    0.36322    1.000
    C17      C        0.73220    0.90360    0.27260    1.000
    C18      C        0.63670    0.92690    0.18100    1.000
    C19      C        0.62740    0.00860    0.06840    1.000
    H11      H        0.67960    0.05000    0.04620    1.000
    C20      C        0.53880    0.03270    0.98250    1.000
    C21      C        0.55930    0.85960    0.21510    1.000
    H12      H        0.56650    0.80090    0.29150    1.000
    C22      C        0.99450    0.16740    0.23240    1.000
    H13      H        0.95740    0.15060    0.14630    1.000
    C23      C        0.09230    0.25650    0.39140    1.000
    H14      H        0.13760    0.31500    0.44050    1.000
    N7       N        0.99380    0.09020    0.34040    1.000
    N8       N        0.05870    0.14770    0.44550    1.000
    N9       N        0.05450    0.27380    0.25830    1.000
    O5       O        0.79390    0.99060    0.25560    1.000
    O6       O        0.74500    0.80580    0.35200    1.000
    C24      C        0.47380    0.88110    0.13550    1.000
    H15      H        0.42260    0.83810    0.15930    1.000
    Zn4      Zn       0.08728    0.42639    0.13678    1.000
    C25      C        0.26780    0.40360    0.22740    1.000
    C26      C        0.36330    0.42690    0.31900    1.000
    C27      C        0.37260    0.50860    0.43160    1.000
    H16      H        0.32040    0.55000    0.45380    1.000
    C28      C        0.46120    0.53270    0.51750    1.000
    C29      C        0.44070    0.35960    0.28490    1.000
    H17      H        0.43350    0.30090    0.20850    1.000
    C30      C        0.00550    0.66740    0.26760    1.000
    H18      H        0.04260    0.65060    0.35370    1.000
    C31      C        0.90770    0.75650    0.10860    1.000
    H19      H        0.86240    0.81500    0.05950    1.000
    N10      N        0.00620    0.59020    0.15960    1.000
    N11      N        0.94130    0.64770    0.05450    1.000
    N12      N        0.94550    0.77380    0.24170    1.000
    O7       O        0.20610    0.49060    0.24440    1.000
    O8       O        0.25500    0.30580    0.14800    1.000
    C32      C        0.52620    0.38110    0.36450    1.000
    H20      H        0.57740    0.33810    0.34070    1.000
