data_functionalizedCrystal
_audit_creation_method	'EQeq! by Chris Wilmer'
_symmetry_space_group_name_H-M	'P1'
_symmetry_Int_Tables_number	1
_symmetry_cell_setting	triclinic
loop_
_symmetry_equiv_pos_as_xyz
  x,y,z
_cell_length_a	31.928
_cell_length_b	16.003
_cell_length_c	10.329
_cell_angle_alpha	90
_cell_angle_beta	90
_cell_angle_gamma	90
loop_
_atom_site_label
_atom_site_type_symbol
_atom_site_fract_x
_atom_site_fract_y
_atom_site_fract_z
_atom_site_charge
Mof_Zn	Zn	0.29347	0.05792	0.39859	1.197
Mof_N 	N 	0.28311	0.1803	0.408	-0.261
Mof_C 	C 	0.37637	0.0443	0.4815	0.302
Mof_O 	O 	0.36358	0.0809	0.5835	-0.317
Mof_C 	C 	0.42213	0.0221	0.4676	-0.057
Mof_N 	N 	0.2471	0.209	0.3461	-0.068
Mof_H 	H 	0.3541	0.2013	0.5264	0.146
Mof_C 	C 	0.43779	0.9948	0.3496	-0.001
Mof_H 	H 	0.4197	0.9877	0.2798	0.047
Mof_N 	N 	0.26039	0.0038	0.5404	-0.261
Mof_C 	C 	0.44874	0.033	0.5705	-0.053
Mof_H 	H 	0.4381	0.0521	0.6489	0.063
Mof_N 	N 	0.22678	0.9548	0.5144	-0.073
Mof_C 	C 	0.49234	0.0149	0.5596	0.029
Mof_N 	N 	0.20756	0.9364	0.6216	-0.066
Mof_C 	C 	0.51988	0.0224	0.6643	-0.084
Mof_H 	H 	0.5097	0.0388	0.7447	0.063
Mof_N 	N 	0.2283	0.9734	0.7233	-0.254
Mof_N 	N 	0.28857	0.0638	0.7361	-0.307
Mof_H 	H 	0.2856	0.0706	0.8221	0.135
Mof_H 	H 	0.3097	0.0891	0.6941	0.139
Mof_C 	C 	0.26099	0.0144	0.6699	0.193
Mof_O 	O 	0.35261	0.0266	0.3857	-0.455
Mof_Zn	Zn	0.20653	0.94208	0.89859	1.194
Mof_N 	N 	0.21689	0.8197	0.908	-0.263
Mof_C 	C 	0.12363	0.9557	0.9815	0.296
Mof_O 	O 	0.13642	0.9191	0.0835	-0.313
Mof_C 	C 	0.07787	0.9779	0.9676	-0.063
Mof_N 	N 	0.2529	0.791	0.8461	-0.069
Mof_H 	H 	0.1459	0.7987	0.0264	0.147
Mof_C 	C 	0.06221	0.0052	0.8496	0.003
Mof_H 	H 	0.0803	0.0123	0.7798	0.045
Mof_N 	N 	0.23961	0.9962	0.0404	-0.258
Mof_C 	C 	0.05126	0.967	0.0705	-0.046
Mof_H 	H 	0.0619	0.9479	0.1489	0.062
Mof_N 	N 	0.27322	0.0452	0.0144	-0.072
Mof_C 	C 	0.00766	0.9851	0.0596	0.029
Mof_N 	N 	0.29244	0.0636	0.1216	-0.066
Mof_C 	C 	0.98012	0.9776	0.1643	-0.087
Mof_H 	H 	0.9903	0.9612	0.2447	0.063
Mof_N 	N 	0.2717	0.0266	0.2233	-0.253
Mof_N 	N 	0.21143	0.9362	0.2361	-0.308
Mof_H 	H 	0.2144	0.9294	0.3221	0.137
Mof_H 	H 	0.1903	0.9109	0.1941	0.14
Mof_C 	C 	0.23901	0.9856	0.1699	0.194
Mof_O 	O 	0.14739	0.9734	0.8857	-0.455
Mof_Zn	Zn	0.70653	0.55792	0.60141	1.196
Mof_N 	N 	0.71689	0.6803	0.592	-0.262
Mof_C 	C 	0.62363	0.5443	0.5185	0.301
Mof_O 	O 	0.63642	0.5809	0.4165	-0.318
Mof_C 	C 	0.57787	0.5221	0.5324	-0.056
Mof_N 	N 	0.7529	0.709	0.6539	-0.068
Mof_H 	H 	0.6459	0.7013	0.4736	0.146
Mof_C 	C 	0.56221	0.4948	0.6504	-0.002
Mof_H 	H 	0.5803	0.4877	0.7202	0.047
Mof_N 	N 	0.73961	0.5038	0.4596	-0.26
Mof_C 	C 	0.55126	0.533	0.4295	-0.053
Mof_H 	H 	0.5619	0.5521	0.3511	0.063
Mof_N 	N 	0.77322	0.4548	0.4856	-0.073
Mof_C 	C 	0.50766	0.5149	0.4404	0.029
Mof_N 	N 	0.79244	0.4364	0.3784	-0.066
Mof_C 	C 	0.48012	0.5224	0.3357	-0.084
Mof_H 	H 	0.4903	0.5388	0.2553	0.062
Mof_N 	N 	0.7717	0.4734	0.2767	-0.253
Mof_N 	N 	0.71143	0.5638	0.2639	-0.307
Mof_H 	H 	0.7144	0.5706	0.1779	0.135
Mof_H 	H 	0.6903	0.5891	0.3059	0.139
Mof_C 	C 	0.73901	0.5144	0.3301	0.192
Mof_O 	O 	0.64739	0.5266	0.6143	-0.455
Mof_Zn	Zn	0.79347	0.44208	0.10141	1.194
Mof_N 	N 	0.78311	0.3197	0.092	-0.263
Mof_C 	C 	0.87637	0.4557	0.0185	0.296
Mof_O 	O 	0.86358	0.4191	0.9165	-0.313
Mof_C 	C 	0.92213	0.4779	0.0324	-0.059
Mof_N 	N 	0.7471	0.291	0.1539	-0.069
Mof_H 	H 	0.8541	0.2987	0.9736	0.147
Mof_C 	C 	0.93779	0.5052	0.1504	-0
Mof_H 	H 	0.9197	0.5123	0.2202	0.046
Mof_N 	N 	0.76039	0.4962	0.9596	-0.259
Mof_C 	C 	0.94874	0.467	0.9295	-0.049
Mof_H 	H 	0.9381	0.4479	0.8511	0.063
Mof_N 	N 	0.72678	0.5452	0.9856	-0.071
Mof_C 	C 	0.99234	0.4851	0.9404	0.029
Mof_N 	N 	0.70756	0.5636	0.8784	-0.065
Mof_C 	C 	0.01988	0.4776	0.8357	-0.085
Mof_H 	H 	0.0097	0.4612	0.7553	0.063
Mof_N 	N 	0.7283	0.5266	0.7767	-0.253
Mof_N 	N 	0.78857	0.4362	0.7639	-0.308
Mof_H 	H 	0.7856	0.4294	0.6779	0.136
Mof_H 	H 	0.8097	0.4109	0.8059	0.14
Mof_C 	C 	0.76099	0.4856	0.8301	0.194
Mof_O 	O 	0.85261	0.4734	0.1143	-0.455
Mof_Zn	Zn	0.70653	0.94208	0.60141	1.196
Mof_N 	N 	0.71689	0.8197	0.592	-0.262
Mof_C 	C 	0.62363	0.9557	0.5185	0.301
Mof_O 	O 	0.63642	0.9191	0.4165	-0.318
Mof_C 	C 	0.57787	0.9779	0.5324	-0.057
Mof_N 	N 	0.7529	0.791	0.6539	-0.068
Mof_H 	H 	0.6459	0.7987	0.4736	0.146
Mof_C 	C 	0.56221	0.0052	0.6504	-0.001
Mof_H 	H 	0.5803	0.0123	0.7202	0.047
Mof_N 	N 	0.73961	0.9962	0.4596	-0.261
Mof_C 	C 	0.55126	0.967	0.4295	-0.053
Mof_H 	H 	0.5619	0.9479	0.3511	0.063
Mof_N 	N 	0.77322	0.0452	0.4856	-0.073
Mof_C 	C 	0.50766	0.9851	0.4404	0.029
Mof_N 	N 	0.79244	0.0636	0.3784	-0.066
Mof_C 	C 	0.48012	0.9776	0.3357	-0.084
Mof_H 	H 	0.4903	0.9612	0.2553	0.063
Mof_N 	N 	0.7717	0.0266	0.2767	-0.254
Mof_N 	N 	0.71143	0.9362	0.2639	-0.307
Mof_H 	H 	0.7144	0.9294	0.1779	0.135
Mof_H 	H 	0.6903	0.9109	0.3059	0.139
Mof_C 	C 	0.73901	0.9856	0.3301	0.193
Mof_O 	O 	0.64739	0.9734	0.6143	-0.455
Mof_Zn	Zn	0.79347	0.05792	0.10141	1.194
Mof_N 	N 	0.78311	0.1803	0.092	-0.263
Mof_C 	C 	0.87637	0.0443	0.0185	0.296
Mof_O 	O 	0.86358	0.0809	0.9165	-0.313
Mof_C 	C 	0.92213	0.0221	0.0324	-0.063
Mof_N 	N 	0.7471	0.209	0.1539	-0.069
Mof_H 	H 	0.8541	0.2013	0.9736	0.147
Mof_C 	C 	0.93779	0.9948	0.1504	0.003
Mof_H 	H 	0.9197	0.9877	0.2202	0.045
Mof_N 	N 	0.76039	0.0038	0.9596	-0.258
Mof_C 	C 	0.94874	0.033	0.9295	-0.046
Mof_H 	H 	0.9381	0.0521	0.8511	0.062
Mof_N 	N 	0.72678	0.9548	0.9856	-0.072
Mof_C 	C 	0.99234	0.0149	0.9404	0.029
Mof_N 	N 	0.70756	0.9364	0.8784	-0.066
Mof_C 	C 	0.01988	0.0224	0.8357	-0.087
Mof_H 	H 	0.0097	0.0388	0.7553	0.063
Mof_N 	N 	0.7283	0.9734	0.7767	-0.253
Mof_N 	N 	0.78857	0.0638	0.7639	-0.308
Mof_H 	H 	0.7856	0.0706	0.6779	0.137
Mof_H 	H 	0.8097	0.0891	0.8059	0.14
Mof_C 	C 	0.76099	0.0144	0.8301	0.194
Mof_O 	O 	0.85261	0.0266	0.1143	-0.455
Mof_Zn	Zn	0.29347	0.44208	0.39859	1.196
Mof_N 	N 	0.28311	0.3197	0.408	-0.262
Mof_C 	C 	0.37637	0.4557	0.4815	0.301
Mof_O 	O 	0.36358	0.4191	0.5835	-0.318
Mof_C 	C 	0.42213	0.4779	0.4676	-0.056
Mof_N 	N 	0.2471	0.291	0.3461	-0.068
Mof_H 	H 	0.3541	0.2987	0.5264	0.146
Mof_C 	C 	0.43779	0.5052	0.3496	-0.002
Mof_H 	H 	0.4197	0.5123	0.2798	0.047
Mof_N 	N 	0.26039	0.4962	0.5404	-0.26
Mof_C 	C 	0.44874	0.467	0.5705	-0.053
Mof_H 	H 	0.4381	0.4479	0.6489	0.063
Mof_N 	N 	0.22678	0.5452	0.5144	-0.073
Mof_C 	C 	0.49234	0.4851	0.5596	0.029
Mof_N 	N 	0.20756	0.5636	0.6216	-0.066
Mof_C 	C 	0.51988	0.4776	0.6643	-0.084
Mof_H 	H 	0.5097	0.4612	0.7447	0.062
Mof_N 	N 	0.2283	0.5266	0.7233	-0.253
Mof_N 	N 	0.28857	0.4362	0.7361	-0.307
Mof_H 	H 	0.2856	0.4294	0.8221	0.135
Mof_H 	H 	0.3097	0.4109	0.6941	0.139
Mof_C 	C 	0.26099	0.4856	0.6699	0.192
Mof_O 	O 	0.35261	0.4734	0.3857	-0.455
Mof_Zn	Zn	0.20653	0.55792	0.89859	1.194
Mof_N 	N 	0.21689	0.6803	0.908	-0.263
Mof_C 	C 	0.12363	0.5443	0.9815	0.296
Mof_O 	O 	0.13642	0.5809	0.0835	-0.313
Mof_C 	C 	0.07787	0.5221	0.9676	-0.059
Mof_N 	N 	0.2529	0.709	0.8461	-0.069
Mof_H 	H 	0.1459	0.7013	0.0264	0.147
Mof_C 	C 	0.06221	0.4948	0.8496	-0
Mof_H 	H 	0.0803	0.4877	0.7798	0.046
Mof_N 	N 	0.23961	0.5038	0.0404	-0.259
Mof_C 	C 	0.05126	0.533	0.0705	-0.049
Mof_H 	H 	0.0619	0.5521	0.1489	0.063
Mof_N 	N 	0.27322	0.4548	0.0144	-0.071
Mof_C 	C 	0.00766	0.5149	0.0596	0.029
Mof_N 	N 	0.29244	0.4364	0.1216	-0.065
Mof_C 	C 	0.98012	0.5224	0.1643	-0.085
Mof_H 	H 	0.9903	0.5388	0.2447	0.063
Mof_N 	N 	0.2717	0.4734	0.2233	-0.253
Mof_N 	N 	0.21143	0.5638	0.2361	-0.308
Mof_H 	H 	0.2144	0.5706	0.3221	0.136
Mof_H 	H 	0.1903	0.5891	0.1941	0.14
Mof_C 	C 	0.23901	0.5144	0.1699	0.194
Mof_O 	O 	0.14739	0.5266	0.8857	-0.455
Mof_N 	N 	0.34162	0.25	0.5063	-0.312
Mof_C 	C 	0.30371	0.25	0.4436	0.201
Mof_N 	N 	0.15838	0.75	0.0063	-0.309
Mof_C 	C 	0.19629	0.75	0.9436	0.196
Mof_N 	N 	0.65838	0.75	0.4937	-0.312
Mof_C 	C 	0.69629	0.75	0.5564	0.201
Mof_N 	N 	0.84162	0.25	0.9937	-0.309
Mof_C 	C 	0.80371	0.25	0.0564	0.196
_end
