data_functionalizedCrystal
_audit_creation_method	'EQeq! by Chris Wilmer'
_symmetry_space_group_name_H-M	'P1'
_symmetry_Int_Tables_number	1
_symmetry_cell_setting	triclinic
loop_
_symmetry_equiv_pos_as_xyz
  x,y,z
_cell_length_a	11.0317
_cell_length_b	13.8934
_cell_length_c	18.2911
_cell_angle_alpha	73.6588
_cell_angle_beta	72.4487
_cell_angle_gamma	66.6084
loop_
_atom_site_label
_atom_site_type_symbol
_atom_site_fract_x
_atom_site_fract_y
_atom_site_fract_z
_atom_site_charge
Mof_Cu	Cu	0.40765	0.73701	0.60499	0.831
Mof_Cu	Cu	0.59333	0.74092	0.74686	0.811
Mof_Cu	Cu	0.74965	0.76299	0.89501	0.83
Mof_Cu	Cu	0.08111	0.75908	0.75314	0.81
Mof_Cu	Cu	0.59235	0.26299	0.39501	0.83
Mof_Cu	Cu	0.40667	0.25908	0.25314	0.81
Mof_Cu	Cu	0.25035	0.23701	0.10499	0.83
Mof_Cu	Cu	0.91889	0.24092	0.24686	0.81
Mof_H 	H 	0.9477	0.7658	0.9876	-0.011
Mof_H 	H 	0.7666	0.5546	0.0378	0.024
Mof_H 	H 	0.901	0.5066	0.1356	0.019
Mof_H 	H 	0.1062	0.5679	0.1355	0.071
Mof_H 	H 	0.111	0.6783	0.0793	0.067
Mof_H 	H 	0.0025	0.565	0.2702	0.057
Mof_H 	H 	0.9326	0.8484	0.1246	0.06
Mof_H 	H 	0.4832	0.7802	0.0276	-0.014
Mof_H 	H 	0.5533	0.0104	0.8558	0.018
Mof_H 	H 	0.3224	0.0845	0.9323	0.032
Mof_H 	H 	0.2502	0.8676	0.097	0.063
Mof_H 	H 	0.2237	0.9903	0.0949	0.059
Mof_H 	H 	0.2001	0.8746	0.9496	0.062
Mof_H 	H 	0.9903	0.0784	0.0994	0.039
Mof_H 	H 	0.7011	0.7342	0.5124	-0.012
Mof_H 	H 	0.359	0.9454	0.4622	0.024
Mof_H 	H 	0.5432	0.9934	0.3644	0.019
Mof_H 	H 	0.8096	0.9321	0.3645	0.071
Mof_H 	H 	0.8686	0.8217	0.4207	0.067
Mof_H 	H 	0.8377	0.935	0.2298	0.057
Mof_H 	H 	0.9056	0.6516	0.3754	0.06
Mof_H 	H 	0.291	0.7198	0.4724	-0.013
Mof_H 	H 	0.4195	0.4896	0.6442	0.018
Mof_H 	H 	0.3392	0.4155	0.5677	0.032
Mof_H 	H 	0.2148	0.6324	0.403	0.063
Mof_H 	H 	0.3089	0.5097	0.4051	0.059
Mof_H 	H 	0.0243	0.6254	0.5504	0.062
Mof_H 	H 	0.1681	0.4216	0.4006	0.039
Mof_H 	H 	0.0523	0.2342	0.0124	-0.011
Mof_H 	H 	0.2334	0.4454	0.9622	0.024
Mof_H 	H 	0.099	0.4934	0.8644	0.019
Mof_H 	H 	0.8938	0.4321	0.8645	0.071
Mof_H 	H 	0.889	0.3217	0.9207	0.067
Mof_H 	H 	0.9975	0.435	0.7298	0.057
Mof_H 	H 	0.0674	0.1516	0.8754	0.06
Mof_H 	H 	0.5168	0.2198	0.9724	-0.014
Mof_H 	H 	0.4467	0.9896	0.1442	0.018
Mof_H 	H 	0.6776	0.9155	0.0677	0.032
Mof_H 	H 	0.7498	0.1324	0.903	0.063
Mof_H 	H 	0.7763	0.0097	0.9051	0.059
Mof_H 	H 	0.7999	0.1254	0.0504	0.062
Mof_H 	H 	0.0097	0.9216	0.9006	0.039
Mof_H 	H 	0.2989	0.2658	0.4876	-0.012
Mof_H 	H 	0.641	0.0546	0.5378	0.024
Mof_H 	H 	0.4568	0.0066	0.6356	0.019
Mof_H 	H 	0.1904	0.0679	0.6355	0.071
Mof_H 	H 	0.1314	0.1783	0.5793	0.067
Mof_H 	H 	0.1623	0.065	0.7702	0.057
Mof_H 	H 	0.0944	0.3484	0.6246	0.06
Mof_H 	H 	0.709	0.2802	0.5276	-0.013
Mof_H 	H 	0.5805	0.5104	0.3558	0.018
Mof_H 	H 	0.6608	0.5845	0.4323	0.032
Mof_H 	H 	0.7852	0.3676	0.597	0.063
Mof_H 	H 	0.6911	0.4903	0.5949	0.059
Mof_H 	H 	0.9757	0.3746	0.4496	0.062
Mof_H 	H 	0.8319	0.5784	0.5994	0.039
Mof_W 	W 	0.84438	0.74198	0.74474	0.367
Mof_W 	W 	0.3311	0.75802	0.75526	0.367
Mof_W 	W 	0.15562	0.25802	0.25526	0.367
Mof_W 	W 	0.6689	0.24198	0.24474	0.367
Mof_C 	C 	0.9177	0.7068	0.0124	0.078
Mof_C 	C 	0.8202	0.5925	0.0399	-0.003
Mof_C 	C 	0.8941	0.5655	0.0933	0.003
Mof_C 	C 	0.0498	0.6419	0.1167	-0.115
Mof_C 	C 	0.979	0.699	0.1858	0.058
Mof_C 	C 	0.9693	0.6408	0.2616	-0.067
Mof_C 	C 	0.9285	0.8074	0.176	-0.068
Mof_C 	C 	0.4722	0.8474	0.9938	0.082
Mof_C 	C 	0.5098	0.9725	0.9007	0.006
Mof_C 	C 	0.3833	0.0135	0.9423	-0.001
Mof_C 	C 	0.238	0.9385	0.0627	-0.109
Mof_C 	C 	0.1148	0.9715	0.0291	0.051
Mof_C 	C 	0.1183	0.9261	0.9703	-0.07
Mof_C 	C 	0.9946	0.0462	0.0588	-0.066
Mof_C 	C 	0.6369	0.7932	0.4876	0.079
Mof_C 	C 	0.4526	0.9075	0.4601	-0.003
Mof_C 	C 	0.5529	0.9345	0.4067	0.002
Mof_C 	C 	0.8084	0.8581	0.3833	-0.115
Mof_C 	C 	0.8638	0.801	0.3142	0.058
Mof_C 	C 	0.8717	0.8592	0.2384	-0.067
Mof_C 	C 	0.9119	0.6926	0.324	-0.068
Mof_C 	C 	0.3134	0.6526	0.5062	0.082
Mof_C 	C 	0.383	0.5275	0.5993	0.005
Mof_C 	C 	0.3391	0.4865	0.5577	-0
Mof_C 	C 	0.2392	0.5615	0.4373	-0.109
Mof_C 	C 	0.1154	0.5285	0.4709	0.051
Mof_C 	C 	0.0147	0.5739	0.5297	-0.07
Mof_C 	C 	0.0996	0.4538	0.4412	-0.066
Mof_C 	C 	0.0823	0.2932	0.9876	0.078
Mof_C 	C 	0.1798	0.4075	0.9601	-0.003
Mof_C 	C 	0.1059	0.4345	0.9067	0.003
Mof_C 	C 	0.9502	0.3581	0.8833	-0.115
Mof_C 	C 	0.021	0.301	0.8142	0.058
Mof_C 	C 	0.0307	0.3592	0.7384	-0.067
Mof_C 	C 	0.0715	0.1926	0.824	-0.068
Mof_C 	C 	0.5278	0.1526	0.0062	0.082
Mof_C 	C 	0.4902	0.0275	0.0993	0.006
Mof_C 	C 	0.6167	0.9865	0.0577	-0.001
Mof_C 	C 	0.762	0.0615	0.9373	-0.109
Mof_C 	C 	0.8852	0.0285	0.9709	0.051
Mof_C 	C 	0.8817	0.0739	0.0297	-0.07
Mof_C 	C 	0.0054	0.9538	0.9412	-0.066
Mof_C 	C 	0.3631	0.2068	0.5124	0.079
Mof_C 	C 	0.5474	0.0925	0.5399	-0.003
Mof_C 	C 	0.4471	0.0655	0.5933	0.002
Mof_C 	C 	0.1916	0.1419	0.6167	-0.115
Mof_C 	C 	0.1362	0.199	0.6858	0.058
Mof_C 	C 	0.1283	0.1408	0.7616	-0.067
Mof_C 	C 	0.0881	0.3074	0.676	-0.068
Mof_C 	C 	0.6866	0.3474	0.4938	0.082
Mof_C 	C 	0.617	0.4725	0.4007	0.005
Mof_C 	C 	0.6609	0.5135	0.4423	-0
Mof_C 	C 	0.7608	0.4385	0.5627	-0.109
Mof_C 	C 	0.8846	0.4715	0.5291	0.051
Mof_C 	C 	0.9853	0.4261	0.4703	-0.07
Mof_C 	C 	0.9004	0.5462	0.5588	-0.066
Mof_S 	S 	0.38784	0.86163	0.79921	-0.334
Mof_S 	S 	0.73161	0.64441	0.83679	-0.486
Mof_S 	S 	0.52133	0.6367	0.70284	-0.492
Mof_S 	S 	0.20534	0.67824	0.84922	-0.339
Mof_S 	S 	0.04868	0.63837	0.70079	-0.334
Mof_S 	S 	0.21281	0.85559	0.66321	-0.486
Mof_S 	S 	0.86087	0.8633	0.79716	-0.492
Mof_S 	S 	0.7328	0.82176	0.65078	-0.338
Mof_S 	S 	0.61216	0.13837	0.20079	-0.334
Mof_S 	S 	0.26839	0.35559	0.16321	-0.486
Mof_S 	S 	0.47867	0.3633	0.29716	-0.492
Mof_S 	S 	0.79466	0.32176	0.15078	-0.339
Mof_S 	S 	0.95132	0.36163	0.29921	-0.334
Mof_S 	S 	0.78719	0.14441	0.33679	-0.486
Mof_S 	S 	0.13913	0.1367	0.20284	-0.492
Mof_S 	S 	0.2672	0.17824	0.34922	-0.338
Mof_N 	N 	0.8332	0.6837	0.9883	-0.234
Mof_N 	N 	0.9569	0.6378	0.076	-0.107
Mof_N 	N 	0.565	0.8686	0.9332	-0.232
Mof_N 	N 	0.3601	0.9338	0.0012	-0.109
Mof_N 	N 	0.5052	0.8163	0.5117	-0.234
Mof_N 	N 	0.6707	0.8622	0.424	-0.107
Mof_N 	N 	0.3668	0.6314	0.5668	-0.232
Mof_N 	N 	0.2951	0.5662	0.4988	-0.109
Mof_N 	N 	0.1668	0.3163	0.0117	-0.234
Mof_N 	N 	0.0431	0.3622	0.924	-0.107
Mof_N 	N 	0.435	0.1314	0.0668	-0.232
Mof_N 	N 	0.6399	0.0662	0.9988	-0.109
Mof_N 	N 	0.4948	0.1837	0.4883	-0.234
Mof_N 	N 	0.3293	0.1378	0.576	-0.107
Mof_N 	N 	0.6332	0.3686	0.4332	-0.232
Mof_N 	N 	0.7049	0.4338	0.5012	-0.109
_end
