data_functionalizedCrystal
_audit_creation_method	'EQeq! by Chris Wilmer'
_symmetry_space_group_name_H-M	'P1'
_symmetry_Int_Tables_number	1
_symmetry_cell_setting	triclinic
loop_
_symmetry_equiv_pos_as_xyz
  x,y,z
_cell_length_a	14.882
_cell_length_b	31.2034
_cell_length_c	36.9609
_cell_angle_alpha	113.689
_cell_angle_beta	99.1303
_cell_angle_gamma	95.7977
loop_
_atom_site_label
_atom_site_type_symbol
_atom_site_fract_x
_atom_site_fract_y
_atom_site_fract_z
_atom_site_charge
Mof_Fe	Fe	0.93835	0.32725	0.94812	0.768
Mof_Fe	Fe	0.64832	0.55516	0.4425	0.766
Mof_Fe	Fe	0.50977	0.62087	0.94812	0.768
Mof_Fe	Fe	0.29418	0.88734	0.4425	0.766
Mof_Fe	Fe	0.21712	0.96712	0.93424	0.77
Mof_Fe	Fe	0.96044	0.21044	0.42088	0.767
Mof_Ag	Ag	0.05517	0.46918	0.24746	0.551
Mof_Ag	Ag	0.72474	0.70194	0.74166	0.548
Mof_Ag	Ag	0.69229	0.77828	0.24746	0.551
Mof_Ag	Ag	0.51692	0.03972	0.74166	0.548
Mof_Ag	Ag	0.36723	0.11723	0.23446	0.562
Mof_Ag	Ag	0.10938	0.35938	0.71876	0.56
Mof_H 	H 	0.9657	0.2194	0.9156	0.012
Mof_H 	H 	0.014	0.1751	0.8508	0.037
Mof_H 	H 	0.0554	0.2341	0.8232	0.062
Mof_H 	H 	0.0964	0.4277	0.8906	0.062
Mof_H 	H 	0.0801	0.4857	0.957	0.041
Mof_H 	H 	0.0081	0.4392	0.9906	0.014
Mof_H 	H 	0.9364	0.302	0.8034	0.103
Mof_H 	H 	0.9705	0.3067	0.7464	-0.037
Mof_H 	H 	0.2276	0.359	0.799	-0.034
Mof_H 	H 	0.2013	0.3568	0.8578	0.102
Mof_H 	H 	0.5321	0.5143	0.896	0.012
Mof_H 	H 	0.5839	0.4881	0.8292	0.036
Mof_H 	H 	0.6268	0.5603	0.8186	0.065
Mof_H 	H 	0.6898	0.747	0.9214	0.064
Mof_H 	H 	0.6654	0.7885	0.9928	0.04
Mof_H 	H 	0.5869	0.7273	0.0092	0.012
Mof_H 	H 	0.5213	0.6423	0.8186	0.093
Mof_H 	H 	0.5618	0.6607	0.7684	-0.029
Mof_H 	H 	0.8235	0.6978	0.824	-0.021
Mof_H 	H 	0.7888	0.6812	0.877	0.088
Mof_H 	H 	0.7714	0.3806	0.9548	0.013
Mof_H 	H 	0.7296	0.4338	0.019	0.048
Mof_H 	H 	0.8477	0.4353	0.076	0.063
Mof_H 	H 	0.168	0.3666	0.0792	0.067
Mof_H 	H 	0.2377	0.3153	0.025	0.049
Mof_H 	H 	0.1268	0.2933	0.9588	0.015
Mof_H 	H 	0.0069	0.343	0.1008	0.093
Mof_H 	H 	0.0259	0.3765	0.17	-0.034
Mof_H 	H 	0.0577	0.5048	0.177	-0.029
Mof_H 	H 	0.0315	0.4764	0.1082	0.094
Mof_H 	H 	0.6984	0.4527	0.3964	0.013
Mof_H 	H 	0.6051	0.3903	0.3292	0.034
Mof_H 	H 	0.4643	0.4203	0.3122	0.055
Mof_H 	H 	0.3184	0.5709	0.4008	0.065
Mof_H 	H 	0.382	0.6395	0.4692	0.039
Mof_H 	H 	0.5426	0.6319	0.4938	0.015
Mof_H 	H 	0.3128	0.4298	0.3398	0.086
Mof_H 	H 	0.1794	0.4111	0.2898	-0.028
Mof_H 	H 	0.2526	0.5309	0.2796	-0.023
Mof_H 	H 	0.3861	0.5527	0.3302	0.086
Mof_H 	H 	0.8009	0.5288	0.4936	0.013
Mof_H 	H 	0.9431	0.5001	0.4724	0.038
Mof_H 	H 	0.943	0.5018	0.4052	0.065
Mof_H 	H 	0.7233	0.5699	0.3178	0.055
Mof_H 	H 	0.5888	0.6127	0.3328	0.036
Mof_H 	H 	0.5567	0.6124	0.3966	0.011
Mof_H 	H 	0.7956	0.4535	0.321	0.095
Mof_H 	H 	0.8806	0.4323	0.2722	-0.032
Mof_H 	H 	0.0059	0.5633	0.3104	-0.039
Mof_H 	H 	0.9219	0.5901	0.3606	0.092
Mof_H 	H 	0.7315	0.6562	0.4536	0.01
Mof_H 	H 	0.7735	0.7298	0.5182	0.046
Mof_H 	H 	0.7518	0.7054	0.5732	0.066
Mof_H 	H 	0.6375	0.5336	0.571	0.067
Mof_H 	H 	0.5847	0.4525	0.5148	0.047
Mof_H 	H 	0.5854	0.4616	0.45	0.012
Mof_H 	H 	0.8363	0.6412	0.6062	0.092
Mof_H 	H 	0.8484	0.6738	0.675	-0.021
Mof_H 	H 	0.577	0.6613	0.6598	-0.028
Mof_H 	H 	0.5608	0.6267	0.5908	0.094
Mof_H 	H 	0.7317	0.8157	0.8046	-0.039
Mof_H 	H 	0.8392	0.8789	0.854	0.097
Mof_H 	H 	0.0402	0.8106	0.8088	0.095
Mof_H 	H 	0.9262	0.7505	0.761	-0.031
Mof_H 	H 	0.9873	0.8169	0.895	0.066
Mof_H 	H 	0.0868	0.8303	0.9604	0.035
Mof_H 	H 	0.2027	0.9055	0.9834	0.017
Mof_H 	H 	0.9596	0.924	0.8108	0.062
Mof_H 	H 	0.0386	0.0057	0.8262	0.036
Mof_H 	H 	0.1646	0.0315	0.8886	0.013
Mof_H 	H 	0.3952	0.9231	0.9424	0.016
Mof_H 	H 	0.5036	0.9393	0.009	0.043
Mof_H 	H 	0.4341	0.991	0.064	0.067
Mof_H 	H 	0.4028	0.0905	0.09	0.091
Mof_H 	H 	0.4316	0.1252	0.1602	-0.024
Mof_H 	H 	0.3413	0.2193	0.3	-0.04
Mof_H 	H 	0.2494	0.2471	0.3472	0.096
Mof_H 	H 	0.0748	0.1214	0.2892	0.092
Mof_H 	H 	0.1723	0.0962	0.2436	-0.028
Mof_H 	H 	0.8514	0.2642	0.3754	0.016
Mof_H 	H 	0.886	0.2705	0.3126	0.033
Mof_H 	H 	0.0222	0.2322	0.2976	0.065
Mof_H 	H 	0.256	0.165	0.3802	0.065
Mof_H 	H 	0.2635	0.1589	0.4454	0.037
Mof_H 	H 	0.1187	0.1833	0.4696	0.014
Mof_H 	H 	0.0246	0.3135	0.4294	0.014
Mof_H 	H 	0.0687	0.3878	0.4952	0.044
Mof_H 	H 	0.0644	0.3625	0.5506	0.067
Mof_H 	H 	0.1747	0.2974	0.5766	0.09
Mof_H 	H 	0.2072	0.331	0.6462	-0.023
Mof_H 	H 	0.4499	0.6962	0.9156	0.012
Mof_H 	H 	0.3368	0.6757	0.8508	0.037
Mof_H 	H 	0.2678	0.5891	0.8232	0.062
Mof_H 	H 	0.2942	0.4629	0.8906	0.062
Mof_H 	H 	0.3769	0.4713	0.957	0.041
Mof_H 	H 	0.4825	0.5514	0.9906	0.014
Mof_H 	H 	0.367	0.5014	0.8034	0.103
Mof_H 	H 	0.2759	0.4397	0.7464	-0.036
Mof_H 	H 	0.0714	0.44	0.799	-0.034
Mof_H 	H 	0.1565	0.501	0.8578	0.101
Mof_H 	H 	0.8639	0.3817	0.896	0.012
Mof_H 	H 	0.7453	0.3411	0.8292	0.036
Mof_H 	H 	0.6918	0.2583	0.8186	0.065
Mof_H 	H 	0.7316	0.1744	0.9214	0.064
Mof_H 	H 	0.8274	0.2043	0.9928	0.04
Mof_H 	H 	0.9223	0.2819	0.0092	0.012
Mof_H 	H 	0.7973	0.1763	0.8186	0.093
Mof_H 	H 	0.7066	0.1077	0.7684	-0.029
Mof_H 	H 	0.5005	0.1262	0.824	-0.021
Mof_H 	H 	0.5882	0.1958	0.877	0.088
Mof_H 	H 	0.6834	0.5742	0.9548	0.013
Mof_H 	H 	0.7894	0.5852	0.019	0.048
Mof_H 	H 	0.7283	0.6407	0.076	0.063
Mof_H 	H 	0.4112	0.7126	0.0792	0.067
Mof_H 	H 	0.2873	0.7097	0.025	0.049
Mof_H 	H 	0.332	0.6655	0.9588	0.015
Mof_H 	H 	0.5939	0.7578	0.1008	0.093
Mof_H 	H 	0.6441	0.7935	0.17	-0.034
Mof_H 	H 	0.6193	0.6722	0.177	-0.029
Mof_H 	H 	0.5767	0.6318	0.1082	0.094
Mof_H 	H 	0.198	0.9437	0.3964	0.013
Mof_H 	H 	0.2241	0.9389	0.3292	0.034
Mof_H 	H 	0.3479	0.8919	0.3122	0.055
Mof_H 	H 	0.5824	0.8299	0.4008	0.065
Mof_H 	H 	0.5872	0.8297	0.4692	0.039
Mof_H 	H 	0.4512	0.8619	0.4938	0.015
Mof_H 	H 	0.527	0.91	0.3398	0.086
Mof_H 	H 	0.6104	0.8787	0.2898	-0.028
Mof_H 	H 	0.527	0.7487	0.2796	-0.023
Mof_H 	H 	0.4441	0.7775	0.3302	0.086
Mof_H 	H 	0.1927	0.9648	0.4936	0.013
Mof_H 	H 	0.0293	0.9723	0.4724	0.038
Mof_H 	H 	0.9622	0.9034	0.4052	0.065
Mof_H 	H 	0.0945	0.7479	0.3178	0.055
Mof_H 	H 	0.244	0.7201	0.3328	0.036
Mof_H 	H 	0.3399	0.7842	0.3966	0.011
Mof_H 	H 	0.0254	0.8675	0.321	0.095
Mof_H 	H 	0.8916	0.8399	0.2722	-0.032
Mof_H 	H 	0.8045	0.7471	0.3104	-0.038
Mof_H 	H 	0.9387	0.7705	0.3606	0.092
Mof_H 	H 	0.2221	0.7974	0.4536	0.01
Mof_H 	H 	0.2447	0.7884	0.5182	0.046
Mof_H 	H 	0.3214	0.8678	0.5732	0.066
Mof_H 	H 	0.4335	0.0374	0.571	0.067
Mof_H 	H 	0.4301	0.0623	0.5148	0.047
Mof_H 	H 	0.3646	0.9884	0.45	0.012
Mof_H 	H 	0.2699	0.965	0.6062	0.092
Mof_H 	H 	0.3266	0.0012	0.675	-0.021
Mof_H 	H 	0.5828	0.9985	0.6598	-0.028
Mof_H 	H 	0.53	0.9641	0.5908	0.094
Mof_H 	H 	0.5729	0.9889	0.8046	-0.039
Mof_H 	H 	0.5148	0.9751	0.854	0.097
Mof_H 	H 	0.2686	0.9982	0.8088	0.095
Mof_H 	H 	0.3348	0.0105	0.761	-0.031
Mof_H 	H 	0.4077	0.0781	0.895	0.067
Mof_H 	H 	0.3736	0.1301	0.9604	0.035
Mof_H 	H 	0.2807	0.0779	0.9834	0.017
Mof_H 	H 	0.3512	0.8868	0.8108	0.062
Mof_H 	H 	0.2876	0.8205	0.8262	0.036
Mof_H 	H 	0.224	0.8571	0.8886	0.013
Mof_H 	H 	0.0472	0.0193	0.9424	0.016
Mof_H 	H 	0.0054	0.0697	0.009	0.043
Mof_H 	H 	0.1299	0.073	0.064	0.067
Mof_H 	H 	0.1872	0.9995	0.09	0.091
Mof_H 	H 	0.2286	0.035	0.1602	-0.024
Mof_H 	H 	0.4587	0.0807	0.3	-0.04
Mof_H 	H 	0.5978	0.1001	0.3472	0.096
Mof_H 	H 	0.7144	0.1678	0.2892	0.092
Mof_H 	H 	0.5713	0.1474	0.2436	-0.028
Mof_H 	H 	0.024	0.1112	0.3754	0.016
Mof_H 	H 	0.9266	0.0421	0.3126	0.033
Mof_H 	H 	0.7754	0.0654	0.2976	0.065
Mof_H 	H 	0.6242	0.2152	0.3802	0.065
Mof_H 	H 	0.6819	0.2865	0.4454	0.037
Mof_H 	H 	0.8509	0.2863	0.4696	0.014
Mof_H 	H 	0.9048	0.1159	0.4294	0.014
Mof_H 	H 	0.9265	0.1074	0.4952	0.044
Mof_H 	H 	0.9862	0.1881	0.5506	0.067
Mof_H 	H 	0.9019	0.2792	0.5766	0.09
Mof_H 	H 	0.939	0.3152	0.6462	-0.023
Mof_C 	C 	0.98435	0.23335	0.8987	0.043
Mof_C 	C 	0.01169	0.20819	0.86258	-0.049
Mof_C 	C 	0.03432	0.24032	0.84744	-0.11
Mof_C 	C 	0.01984	0.28474	0.87528	0.127
Mof_C 	C 	0.04195	0.32925	0.8753	-0.16
Mof_C 	C 	0.04298	0.37278	0.90616	0.122
Mof_C 	C 	0.07316	0.42016	0.91032	-0.106
Mof_C 	C 	0.06345	0.45205	0.9463	-0.046
Mof_C 	C 	0.02346	0.42556	0.96492	0.034
Mof_C 	C 	0.06759	0.32929	0.83758	0.173
Mof_C 	C 	0.99773	0.31393	0.80346	-0.223
Mof_C 	C 	0.01947	0.31647	0.76954	0.13
Mof_C 	C 	0.1671	0.3466	0.7996	0.124
Mof_C 	C 	0.15146	0.34566	0.83492	-0.23
Mof_C 	C 	0.55384	0.53494	0.88488	0.039
Mof_C 	C 	0.58238	0.51988	0.84696	-0.044
Mof_C 	C 	0.60662	0.55922	0.84144	-0.109
Mof_C 	C 	0.59644	0.59894	0.87628	0.125
Mof_C 	C 	0.62236	0.64626	0.88552	-0.152
Mof_C 	C 	0.62258	0.68348	0.92216	0.123
Mof_C 	C 	0.66099	0.73269	0.93598	-0.108
Mof_C 	C 	0.64751	0.75551	0.97542	-0.051
Mof_C 	C 	0.60357	0.72117	0.98414	0.038
Mof_C 	C 	0.65024	0.65814	0.85308	0.143
Mof_C 	C 	0.58457	0.65307	0.82034	-0.194
Mof_C 	C 	0.60943	0.66343	0.79006	0.101
Mof_C 	C 	0.76138	0.68518	0.82236	0.095
Mof_C 	C 	0.74099	0.67569	0.85438	-0.186
Mof_C 	C 	0.80618	0.38858	0.98116	0.042
Mof_C 	C 	0.78111	0.41791	0.01682	-0.048
Mof_C 	C 	0.84611	0.41901	0.04782	-0.105
Mof_C 	C 	0.91093	0.39103	0.03026	0.123
Mof_C 	C 	0.99123	0.38433	0.05106	-0.154
Mof_C 	C 	0.05541	0.35861	0.03262	0.121
Mof_C 	C 	0.14168	0.35298	0.05096	-0.108
Mof_C 	C 	0.17969	0.32509	0.02158	-0.045
Mof_C 	C 	0.11694	0.31304	0.98468	0.043
Mof_C 	C 	0.01047	0.40637	0.09554	0.152
Mof_C 	C 	0.01353	0.37653	0.11546	-0.2
Mof_C 	C 	0.02643	0.39733	0.15706	0.119
Mof_C 	C 	0.04372	0.47132	0.16104	0.111
Mof_C 	C 	0.02909	0.45459	0.12018	-0.204
Mof_C 	C 	0.64016	0.45476	0.38292	0.037
Mof_C 	C 	0.58864	0.41964	0.34508	-0.048
Mof_C 	C 	0.51148	0.43588	0.33616	-0.102
Mof_C 	C 	0.5128	0.4808	0.369	0.119
Mof_C 	C 	0.44544	0.50834	0.37408	-0.145
Mof_C 	C 	0.44848	0.55018	0.40936	0.121
Mof_C 	C 	0.37797	0.57717	0.41754	-0.111
Mof_C 	C 	0.41353	0.61513	0.45526	-0.047
Mof_C 	C 	0.50292	0.61062	0.46864	0.033
Mof_C 	C 	0.36116	0.49346	0.34132	0.136
Mof_C 	C 	0.30053	0.45143	0.32826	-0.186
Mof_C 	C 	0.22091	0.44021	0.29822	0.086
Mof_C 	C 	0.26394	0.51044	0.29248	0.086
Mof_C 	C 	0.34418	0.52388	0.32256	-0.178
Mof_C 	C 	0.81882	0.52652	0.46944	0.038
Mof_C 	C 	0.89823	0.51023	0.45786	-0.047
Mof_C 	C 	0.89856	0.51156	0.42132	-0.111
Mof_C 	C 	0.81958	0.53048	0.41216	0.128
Mof_C 	C 	0.79279	0.53879	0.37818	-0.154
Mof_C 	C 	0.71944	0.56084	0.37208	0.122
Mof_C 	C 	0.69491	0.57541	0.34022	-0.102
Mof_C 	C 	0.62113	0.59893	0.34846	-0.055
Mof_C 	C 	0.60403	0.59833	0.38406	0.042
Mof_C 	C 	0.84845	0.52425	0.3465	0.151
Mof_C 	C 	0.83841	0.47721	0.31962	-0.205
Mof_C 	C 	0.89049	0.46489	0.29078	0.116
Mof_C 	C 	0.96231	0.54061	0.31282	0.103
Mof_C 	C 	0.91246	0.55716	0.34292	-0.202
Mof_C 	C 	0.72908	0.65698	0.47936	0.046
Mof_C 	C 	0.75302	0.69852	0.51524	-0.046
Mof_C 	C 	0.74099	0.68499	0.54518	-0.106
Mof_C 	C 	0.70947	0.63517	0.52714	0.123
Mof_C 	C 	0.68591	0.60731	0.54582	-0.155
Mof_C 	C 	0.64967	0.55827	0.52574	0.121
Mof_C 	C 	0.63085	0.52565	0.5429	-0.104
Mof_C 	C 	0.60189	0.48119	0.51238	-0.043
Mof_C 	C 	0.60285	0.48685	0.4763	0.038
Mof_C 	C 	0.6956	0.6299	0.5906	0.151
Mof_C 	C 	0.78188	0.64458	0.61676	-0.194
Mof_C 	C 	0.78862	0.66382	0.65764	0.096
Mof_C 	C 	0.63092	0.65642	0.64904	0.106
Mof_C 	C 	0.62108	0.63628	0.60776	-0.203
Mof_C 	C 	0.79555	0.81445	0.8057	0.116
Mof_C 	C 	0.85936	0.85256	0.83532	-0.21
Mof_C 	C 	0.95171	0.85191	0.83742	0.154
Mof_C 	C 	0.97692	0.81262	0.80884	-0.203
Mof_C 	C 	0.90804	0.77684	0.78068	0.113
Mof_C 	C 	0.02601	0.88981	0.86922	-0.15
Mof_C 	C 	0.06422	0.88222	0.90324	0.125
Mof_C 	C 	0.03574	0.84314	0.91128	-0.115
Mof_C 	C 	0.09056	0.85026	0.94672	-0.038
Mof_C 	C 	0.1547	0.8929	0.9596	0.028
Mof_C 	C 	0.0527	0.9313	0.864	0.122
Mof_C 	C 	0.00939	0.94339	0.83298	-0.106
Mof_C 	C 	0.05267	0.98767	0.84114	-0.047
Mof_C 	C 	0.12309	0.00189	0.87638	0.038
Mof_C 	C 	0.38699	0.94279	0.96858	0.031
Mof_C 	C 	0.44817	0.95137	0.00594	-0.037
Mof_C 	C 	0.41049	0.97999	0.03578	-0.109
Mof_C 	C 	0.32948	0.99088	0.01756	0.123
Mof_C 	C 	0.36521	0.07891	0.10382	-0.191
Mof_C 	C 	0.3821	0.0988	0.1456	0.098
Mof_C 	C 	0.2878	0.1987	0.2984	0.114
Mof_C 	C 	0.23275	0.21545	0.3265	-0.206
Mof_C 	C 	0.15501	0.18651	0.32442	0.151
Mof_C 	C 	0.13052	0.14182	0.29264	-0.192
Mof_C 	C 	0.18896	0.12696	0.26552	0.096
Mof_C 	C 	0.90063	0.25273	0.36306	0.031
Mof_C 	C 	0.91945	0.25645	0.3277	-0.04
Mof_C 	C 	0.9944	0.2358	0.3198	-0.112
Mof_C 	C 	0.02435	0.22055	0.3505	0.128
Mof_C 	C 	0.10007	0.20117	0.35674	-0.159
Mof_C 	C 	0.13211	0.19141	0.38902	0.126
Mof_C 	C 	0.21221	0.17311	0.39682	-0.113
Mof_C 	C 	0.21596	0.16916	0.43212	-0.042
Mof_C 	C 	0.13488	0.18348	0.44576	0.036
Mof_C 	C 	0.02819	0.31419	0.45558	0.035
Mof_C 	C 	0.05323	0.35613	0.49226	-0.04
Mof_C 	C 	0.05065	0.34205	0.5225	-0.105
Mof_C 	C 	0.02367	0.29107	0.50474	0.122
Mof_C 	C 	0.12543	0.30043	0.59046	-0.187
Mof_C 	C 	0.14458	0.32068	0.63176	0.095
Mof_C 	C 	0.41435	0.66535	0.8987	0.044
Mof_C 	C 	0.35089	0.65439	0.86258	-0.049
Mof_C 	C 	0.31312	0.60712	0.84744	-0.11
Mof_C 	C 	0.35544	0.59054	0.87528	0.127
Mof_C 	C 	0.33335	0.54605	0.8753	-0.159
Mof_C 	C 	0.36318	0.53338	0.90616	0.121
Mof_C 	C 	0.33716	0.49016	0.91032	-0.106
Mof_C 	C 	0.38285	0.49425	0.9463	-0.046
Mof_C 	C 	0.44146	0.53936	0.96492	0.034
Mof_C 	C 	0.26999	0.50829	0.83758	0.172
Mof_C 	C 	0.30573	0.48953	0.80346	-0.222
Mof_C 	C 	0.25007	0.45307	0.76954	0.129
Mof_C 	C 	0.1325	0.453	0.7996	0.123
Mof_C 	C 	0.18346	0.48926	0.83492	-0.229
Mof_C 	C 	0.83104	0.34994	0.88488	0.039
Mof_C 	C 	0.76458	0.32708	0.84696	-0.044
Mof_C 	C 	0.73482	0.28222	0.84144	-0.109
Mof_C 	C 	0.77984	0.27734	0.87628	0.125
Mof_C 	C 	0.76316	0.23926	0.88552	-0.152
Mof_C 	C 	0.79958	0.23868	0.92216	0.123
Mof_C 	C 	0.77499	0.20329	0.93598	-0.108
Mof_C 	C 	0.82791	0.21991	0.97542	-0.051
Mof_C 	C 	0.88057	0.26297	0.98414	0.038
Mof_C 	C 	0.70284	0.19494	0.85308	0.143
Mof_C 	C 	0.73577	0.16727	0.82034	-0.194
Mof_C 	C 	0.68063	0.12663	0.79006	0.101
Mof_C 	C 	0.56098	0.13718	0.82236	0.095
Mof_C 	C 	0.61339	0.17869	0.85438	-0.186
Mof_C 	C 	0.67498	0.59258	0.98116	0.042
Mof_C 	C 	0.73571	0.59891	0.01682	-0.048
Mof_C 	C 	0.70171	0.62881	0.04782	-0.105
Mof_C 	C 	0.61933	0.63923	0.03026	0.123
Mof_C 	C 	0.55983	0.66673	0.05106	-0.155
Mof_C 	C 	0.47721	0.67401	0.03262	0.122
Mof_C 	C 	0.40928	0.69798	0.05096	-0.108
Mof_C 	C 	0.34189	0.69649	0.02158	-0.044
Mof_C 	C 	0.36774	0.67164	0.98468	0.043
Mof_C 	C 	0.58507	0.68917	0.09554	0.152
Mof_C 	C 	0.60193	0.73893	0.11546	-0.201
Mof_C 	C 	0.63063	0.75973	0.15706	0.119
Mof_C 	C 	0.61732	0.68972	0.16104	0.111
Mof_C 	C 	0.59109	0.66559	0.12018	-0.205
Mof_C 	C 	0.24276	0.92816	0.38292	0.037
Mof_C 	C 	0.25644	0.92544	0.34508	-0.048
Mof_C 	C 	0.32468	0.90028	0.33616	-0.102
Mof_C 	C 	0.3562	0.8882	0.369	0.119
Mof_C 	C 	0.42864	0.86574	0.37408	-0.145
Mof_C 	C 	0.46088	0.85918	0.40936	0.121
Mof_C 	C 	0.53957	0.84037	0.41754	-0.111
Mof_C 	C 	0.54173	0.84013	0.45526	-0.047
Mof_C 	C 	0.46572	0.85802	0.46864	0.033
Mof_C 	C 	0.48016	0.84786	0.34132	0.136
Mof_C 	C 	0.52773	0.87683	0.32826	-0.186
Mof_C 	C 	0.57731	0.85801	0.29822	0.086
Mof_C 	C 	0.52854	0.78204	0.29248	0.086
Mof_C 	C 	0.47838	0.79868	0.32256	-0.178
Mof_C 	C 	0.15062	0.94292	0.46944	0.038
Mof_C 	C 	0.05963	0.94763	0.45786	-0.047
Mof_C 	C 	0.02276	0.90976	0.42132	-0.111
Mof_C 	C 	0.09258	0.88168	0.41216	0.129
Mof_C 	C 	0.08539	0.83939	0.37818	-0.155
Mof_C 	C 	0.15264	0.81124	0.37208	0.122
Mof_C 	C 	0.14531	0.76481	0.34022	-0.102
Mof_C 	C 	0.22733	0.74953	0.34846	-0.055
Mof_C 	C 	0.28003	0.78573	0.38406	0.042
Mof_C 	C 	0.99805	0.82225	0.3465	0.151
Mof_C 	C 	0.98121	0.84241	0.31962	-0.205
Mof_C 	C 	0.90029	0.82589	0.29078	0.115
Mof_C 	C 	0.85051	0.77221	0.31282	0.103
Mof_C 	C 	0.93046	0.78576	0.34292	-0.202
Mof_C 	C 	0.25028	0.82238	0.47936	0.046
Mof_C 	C 	0.26222	0.81672	0.51524	-0.046
Mof_C 	C 	0.30419	0.86019	0.54518	-0.106
Mof_C 	C 	0.31767	0.89197	0.52714	0.123
Mof_C 	C 	0.35991	0.93851	0.54582	-0.155
Mof_C 	C 	0.37607	0.96747	0.52574	0.121
Mof_C 	C 	0.41205	0.01725	0.5429	-0.104
Mof_C 	C 	0.41049	0.03119	0.51238	-0.043
Mof_C 	C 	0.37345	0.98945	0.4763	0.038
Mof_C 	C 	0.395	0.9607	0.5906	0.151
Mof_C 	C 	0.33488	0.97218	0.61676	-0.194
Mof_C 	C 	0.36902	0.99382	0.65764	0.096
Mof_C 	C 	0.51812	0.99262	0.64904	0.107
Mof_C 	C 	0.48668	0.97148	0.60776	-0.203
Mof_C 	C 	0.51015	0.99125	0.8057	0.116
Mof_C 	C 	0.47596	0.98276	0.83532	-0.21
Mof_C 	C 	0.38571	0.98551	0.83742	0.154
Mof_C 	C 	0.33192	0.99622	0.80884	-0.202
Mof_C 	C 	0.37264	0.00384	0.78068	0.113
Mof_C 	C 	0.34321	0.97941	0.86922	-0.15
Mof_C 	C 	0.33902	0.02102	0.90324	0.125
Mof_C 	C 	0.37554	0.06814	0.91128	-0.116
Mof_C 	C 	0.35616	0.09646	0.94672	-0.038
Mof_C 	C 	0.3049	0.0667	0.9596	0.028
Mof_C 	C 	0.3113	0.9327	0.864	0.122
Mof_C 	C 	0.32359	0.88959	0.83298	-0.106
Mof_C 	C 	0.28847	0.85347	0.84114	-0.047
Mof_C 	C 	0.25329	0.87449	0.87638	0.038
Mof_C 	C 	0.08159	0.02579	0.96858	0.031
Mof_C 	C 	0.05777	0.05457	0.00594	-0.037
Mof_C 	C 	0.12529	0.05579	0.03578	-0.109
Mof_C 	C 	0.18808	0.02668	0.01756	0.123
Mof_C 	C 	0.23861	0.02491	0.10382	-0.191
Mof_C 	C 	0.2635	0.0468	0.1456	0.098
Mof_C 	C 	0.5106	0.0997	0.2984	0.114
Mof_C 	C 	0.59375	0.11105	0.3265	-0.206
Mof_C 	C 	0.66941	0.13791	0.32442	0.151
Mof_C 	C 	0.66212	0.15082	0.29264	-0.192
Mof_C 	C 	0.57656	0.13856	0.26552	0.096
Mof_C 	C 	0.96243	0.11033	0.36306	0.031
Mof_C 	C 	0.90825	0.07125	0.3277	-0.04
Mof_C 	C 	0.8254	0.084	0.3198	-0.113
Mof_C 	C 	0.82615	0.12995	0.3505	0.128
Mof_C 	C 	0.75667	0.15557	0.35674	-0.159
Mof_C 	C 	0.75691	0.19761	0.38902	0.126
Mof_C 	C 	0.68461	0.22371	0.39682	-0.113
Mof_C 	C 	0.71616	0.26296	0.43212	-0.042
Mof_C 	C 	0.81088	0.26228	0.44576	0.036
Mof_C 	C 	0.92739	0.14139	0.45558	0.035
Mof_C 	C 	0.93903	0.13613	0.49226	-0.04
Mof_C 	C 	0.97185	0.18045	0.5225	-0.105
Mof_C 	C 	0.98107	0.21367	0.50474	0.121
Mof_C 	C 	0.96503	0.29003	0.59046	-0.188
Mof_C 	C 	0.98718	0.31108	0.63176	0.095
Mof_C 	C 	0.26827	0.01827	0.03654	-0.147
Mof_C 	C 	0.29142	0.04142	0.08284	0.137
Mof_C 	C 	0.01177	0.26177	0.52354	-0.154
Mof_C 	C 	0.03428	0.28428	0.56856	0.14
Mof_N 	N 	0.98759	0.27869	0.90658	-0.206
Mof_N 	N 	0.01013	0.37833	0.94126	-0.205
Mof_N 	N 	0.10103	0.33113	0.76646	-0.223
Mof_N 	N 	0.56222	0.58152	0.90184	-0.203
Mof_N 	N 	0.58675	0.67765	0.9529	-0.21
Mof_N 	N 	0.69697	0.67707	0.78954	-0.209
Mof_N 	N 	0.88404	0.37324	0.98848	-0.21
Mof_N 	N 	0.04264	0.33264	0.99048	-0.207
Mof_N 	N 	0.03929	0.44259	0.18018	-0.219
Mof_N 	N 	0.59646	0.49136	0.39732	-0.201
Mof_N 	N 	0.52596	0.57176	0.441	-0.208
Mof_N 	N 	0.20133	0.47033	0.28046	-0.2
Mof_N 	N 	0.77138	0.53828	0.44236	-0.21
Mof_N 	N 	0.66093	0.57623	0.39906	-0.202
Mof_N 	N 	0.95308	0.49468	0.28696	-0.217
Mof_N 	N 	0.70251	0.61871	0.48484	-0.208
Mof_N 	N 	0.63173	0.53223	0.48388	-0.206
Mof_N 	N 	0.71286	0.66936	0.67462	-0.213
Mof_N 	N 	0.81877	0.77607	0.77854	-0.212
Mof_N 	N 	0.13841	0.91331	0.93362	-0.208
Mof_N 	N 	0.12365	0.96855	0.8901	-0.203
Mof_N 	N 	0.31613	0.96683	0.97586	-0.206
Mof_N 	N 	0.26767	0.15497	0.26954	-0.216
Mof_N 	N 	0.96226	0.23096	0.3766	-0.201
Mof_N 	N 	0.08516	0.19686	0.42052	-0.208
Mof_N 	N 	0.00994	0.27534	0.4625	-0.205
Mof_N 	N 	0.41899	0.62789	0.90658	-0.206
Mof_N 	N 	0.43113	0.56293	0.94126	-0.205
Mof_N 	N 	0.16543	0.43533	0.76646	-0.223
Mof_N 	N 	0.83962	0.32032	0.90184	-0.203
Mof_N 	N 	0.86615	0.27525	0.9529	-0.21
Mof_N 	N 	0.59257	0.11247	0.78954	-0.209
Mof_N 	N 	0.60444	0.61524	0.98848	-0.21
Mof_N 	N 	0.44784	0.65784	0.99048	-0.207
Mof_N 	N 	0.64089	0.73759	0.18018	-0.219
Mof_N 	N 	0.30086	0.90596	0.39732	-0.201
Mof_N 	N 	0.41504	0.86924	0.441	-0.208
Mof_N 	N 	0.57913	0.81013	0.28046	-0.2
Mof_N 	N 	0.17098	0.90408	0.44236	-0.21
Mof_N 	N 	0.23813	0.82283	0.39906	-0.202
Mof_N 	N 	0.83388	0.79228	0.28696	-0.217
Mof_N 	N 	0.28233	0.86613	0.48484	-0.208
Mof_N 	N 	0.35215	0.95165	0.48388	-0.206
Mof_N 	N 	0.46176	0.00526	0.67462	-0.213
Mof_N 	N 	0.45977	0.00247	0.77854	-0.212
Mof_N 	N 	0.29521	0.02031	0.93362	-0.208
Mof_N 	N 	0.26645	0.92155	0.8901	-0.203
Mof_N 	N 	0.15973	0.00903	0.97586	-0.206
Mof_N 	N 	0.50187	0.11457	0.26954	-0.216
Mof_N 	N 	0.91434	0.14564	0.3766	-0.201
Mof_N 	N 	0.83536	0.22366	0.42052	-0.208
Mof_N 	N 	0.95256	0.18716	0.4625	-0.205
Mof_N 	N 	0.33344	0.08344	0.16688	-0.213
Mof_N 	N 	0.07633	0.32633	0.65266	-0.215
Mof_Fe	Fe	0.06165	0.67275	0.05188	0.769
Mof_Fe	Fe	0.35168	0.44484	0.5575	0.767
Mof_Fe	Fe	0.49023	0.37913	0.05188	0.769
Mof_Fe	Fe	0.70582	0.11266	0.5575	0.767
Mof_Fe	Fe	0.78288	0.03288	0.06576	0.771
Mof_Fe	Fe	0.03956	0.78956	0.57912	0.768
Mof_Ag	Ag	0.94483	0.53082	0.75254	0.551
Mof_Ag	Ag	0.27526	0.29806	0.25834	0.548
Mof_Ag	Ag	0.30771	0.22172	0.75254	0.551
Mof_Ag	Ag	0.48308	0.96028	0.25834	0.548
Mof_Ag	Ag	0.63277	0.88277	0.76554	0.562
Mof_Ag	Ag	0.89062	0.64062	0.28124	0.56
Mof_H 	H 	0.0343	0.7806	0.0844	0.012
Mof_H 	H 	0.986	0.8249	0.1492	0.037
Mof_H 	H 	0.9446	0.7659	0.1768	0.062
Mof_H 	H 	0.9036	0.5723	0.1094	0.062
Mof_H 	H 	0.9199	0.5143	0.043	0.041
Mof_H 	H 	0.9919	0.5608	0.0094	0.014
Mof_H 	H 	0.0636	0.698	0.1966	0.103
Mof_H 	H 	0.0295	0.6933	0.2536	-0.037
Mof_H 	H 	0.7724	0.641	0.201	-0.034
Mof_H 	H 	0.7987	0.6432	0.1422	0.102
Mof_H 	H 	0.4679	0.4857	0.104	0.012
Mof_H 	H 	0.4161	0.5119	0.1708	0.036
Mof_H 	H 	0.3732	0.4397	0.1814	0.065
Mof_H 	H 	0.3102	0.253	0.0786	0.064
Mof_H 	H 	0.3346	0.2115	0.0072	0.04
Mof_H 	H 	0.4131	0.2727	0.9908	0.012
Mof_H 	H 	0.4787	0.3577	0.1814	0.093
Mof_H 	H 	0.4382	0.3393	0.2316	-0.029
Mof_H 	H 	0.1765	0.3022	0.176	-0.021
Mof_H 	H 	0.2112	0.3188	0.123	0.088
Mof_H 	H 	0.2286	0.6194	0.0452	0.013
Mof_H 	H 	0.2704	0.5662	0.981	0.048
Mof_H 	H 	0.1523	0.5647	0.924	0.063
Mof_H 	H 	0.832	0.6334	0.9208	0.067
Mof_H 	H 	0.7623	0.6847	0.975	0.049
Mof_H 	H 	0.8732	0.7067	0.0412	0.015
Mof_H 	H 	0.9931	0.657	0.8992	0.093
Mof_H 	H 	0.9741	0.6235	0.83	-0.034
Mof_H 	H 	0.9423	0.4952	0.823	-0.029
Mof_H 	H 	0.9685	0.5236	0.8918	0.094
Mof_H 	H 	0.3016	0.5473	0.6036	0.013
Mof_H 	H 	0.3949	0.6097	0.6708	0.034
Mof_H 	H 	0.5357	0.5797	0.6878	0.055
Mof_H 	H 	0.6816	0.4291	0.5992	0.065
Mof_H 	H 	0.618	0.3605	0.5308	0.039
Mof_H 	H 	0.4574	0.3681	0.5062	0.015
Mof_H 	H 	0.6872	0.5702	0.6602	0.086
Mof_H 	H 	0.8206	0.5889	0.7102	-0.028
Mof_H 	H 	0.7474	0.4691	0.7204	-0.023
Mof_H 	H 	0.6139	0.4473	0.6698	0.086
Mof_H 	H 	0.1991	0.4712	0.5064	0.013
Mof_H 	H 	0.0569	0.4999	0.5276	0.038
Mof_H 	H 	0.057	0.4982	0.5948	0.065
Mof_H 	H 	0.2767	0.4301	0.6822	0.055
Mof_H 	H 	0.4112	0.3873	0.6672	0.036
Mof_H 	H 	0.4433	0.3876	0.6034	0.011
Mof_H 	H 	0.2044	0.5465	0.679	0.095
Mof_H 	H 	0.1194	0.5677	0.7278	-0.032
Mof_H 	H 	0.9941	0.4367	0.6896	-0.039
Mof_H 	H 	0.0781	0.4099	0.6394	0.092
Mof_H 	H 	0.2685	0.3438	0.5464	0.01
Mof_H 	H 	0.2265	0.2702	0.4818	0.046
Mof_H 	H 	0.2482	0.2946	0.4268	0.066
Mof_H 	H 	0.3625	0.4664	0.429	0.067
Mof_H 	H 	0.4153	0.5475	0.4852	0.047
Mof_H 	H 	0.4146	0.5384	0.55	0.012
Mof_H 	H 	0.1637	0.3588	0.3938	0.092
Mof_H 	H 	0.1516	0.3262	0.325	-0.021
Mof_H 	H 	0.423	0.3387	0.3402	-0.028
Mof_H 	H 	0.4392	0.3733	0.4092	0.094
Mof_H 	H 	0.2683	0.1843	0.1954	-0.039
Mof_H 	H 	0.1608	0.1211	0.146	0.097
Mof_H 	H 	0.9598	0.1894	0.1912	0.095
Mof_H 	H 	0.0738	0.2495	0.239	-0.031
Mof_H 	H 	0.0127	0.1831	0.105	0.066
Mof_H 	H 	0.9132	0.1697	0.0396	0.035
Mof_H 	H 	0.7973	0.0945	0.0166	0.017
Mof_H 	H 	0.0404	0.076	0.1892	0.062
Mof_H 	H 	0.9614	0.9943	0.1738	0.036
Mof_H 	H 	0.8354	0.9685	0.1114	0.013
Mof_H 	H 	0.6048	0.0769	0.0576	0.016
Mof_H 	H 	0.4964	0.0607	0.991	0.043
Mof_H 	H 	0.5659	0.009	0.936	0.067
Mof_H 	H 	0.5972	0.9095	0.91	0.091
Mof_H 	H 	0.5684	0.8748	0.8398	-0.024
Mof_H 	H 	0.6587	0.7807	0.7	-0.04
Mof_H 	H 	0.7506	0.7529	0.6528	0.096
Mof_H 	H 	0.9252	0.8786	0.7108	0.092
Mof_H 	H 	0.8277	0.9038	0.7564	-0.028
Mof_H 	H 	0.1486	0.7358	0.6246	0.016
Mof_H 	H 	0.114	0.7295	0.6874	0.033
Mof_H 	H 	0.9778	0.7678	0.7024	0.065
Mof_H 	H 	0.744	0.835	0.6198	0.065
Mof_H 	H 	0.7365	0.8411	0.5546	0.037
Mof_H 	H 	0.8813	0.8167	0.5304	0.014
Mof_H 	H 	0.9754	0.6865	0.5706	0.014
Mof_H 	H 	0.9313	0.6122	0.5048	0.044
Mof_H 	H 	0.9356	0.6375	0.4494	0.067
Mof_H 	H 	0.8253	0.7026	0.4234	0.09
Mof_H 	H 	0.7928	0.669	0.3538	-0.023
Mof_H 	H 	0.5501	0.3038	0.0844	0.012
Mof_H 	H 	0.6632	0.3243	0.1492	0.037
Mof_H 	H 	0.7322	0.4109	0.1768	0.062
Mof_H 	H 	0.7058	0.5371	0.1094	0.062
Mof_H 	H 	0.6231	0.5287	0.043	0.041
Mof_H 	H 	0.5175	0.4486	0.0094	0.014
Mof_H 	H 	0.633	0.4986	0.1966	0.103
Mof_H 	H 	0.7241	0.5603	0.2536	-0.036
Mof_H 	H 	0.9286	0.56	0.201	-0.034
Mof_H 	H 	0.8435	0.499	0.1422	0.101
Mof_H 	H 	0.1361	0.6183	0.104	0.012
Mof_H 	H 	0.2547	0.6589	0.1708	0.036
Mof_H 	H 	0.3082	0.7417	0.1814	0.065
Mof_H 	H 	0.2684	0.8256	0.0786	0.064
Mof_H 	H 	0.1726	0.7957	0.0072	0.04
Mof_H 	H 	0.0777	0.7181	0.9908	0.012
Mof_H 	H 	0.2027	0.8237	0.1814	0.093
Mof_H 	H 	0.2934	0.8923	0.2316	-0.029
Mof_H 	H 	0.4995	0.8738	0.176	-0.021
Mof_H 	H 	0.4118	0.8042	0.123	0.088
Mof_H 	H 	0.3166	0.4258	0.0452	0.013
Mof_H 	H 	0.2106	0.4148	0.981	0.048
Mof_H 	H 	0.2717	0.3593	0.924	0.063
Mof_H 	H 	0.5888	0.2874	0.9208	0.067
Mof_H 	H 	0.7127	0.2903	0.975	0.049
Mof_H 	H 	0.668	0.3345	0.0412	0.015
Mof_H 	H 	0.4061	0.2422	0.8992	0.093
Mof_H 	H 	0.3559	0.2065	0.83	-0.034
Mof_H 	H 	0.3807	0.3278	0.823	-0.029
Mof_H 	H 	0.4233	0.3682	0.8918	0.094
Mof_H 	H 	0.802	0.0563	0.6036	0.013
Mof_H 	H 	0.7759	0.0611	0.6708	0.034
Mof_H 	H 	0.6521	0.1081	0.6878	0.055
Mof_H 	H 	0.4176	0.1701	0.5992	0.065
Mof_H 	H 	0.4128	0.1703	0.5308	0.039
Mof_H 	H 	0.5488	0.1381	0.5062	0.015
Mof_H 	H 	0.473	0.09	0.6602	0.086
Mof_H 	H 	0.3896	0.1213	0.7102	-0.028
Mof_H 	H 	0.473	0.2513	0.7204	-0.023
Mof_H 	H 	0.5559	0.2225	0.6698	0.086
Mof_H 	H 	0.8073	0.0352	0.5064	0.013
Mof_H 	H 	0.9707	0.0277	0.5276	0.038
Mof_H 	H 	0.0378	0.0966	0.5948	0.065
Mof_H 	H 	0.9055	0.2521	0.6822	0.055
Mof_H 	H 	0.756	0.2799	0.6672	0.036
Mof_H 	H 	0.6601	0.2158	0.6034	0.011
Mof_H 	H 	0.9746	0.1325	0.679	0.095
Mof_H 	H 	0.1084	0.1601	0.7278	-0.032
Mof_H 	H 	0.1955	0.2529	0.6896	-0.038
Mof_H 	H 	0.0613	0.2295	0.6394	0.092
Mof_H 	H 	0.7779	0.2026	0.5464	0.01
Mof_H 	H 	0.7553	0.2116	0.4818	0.046
Mof_H 	H 	0.6786	0.1322	0.4268	0.066
Mof_H 	H 	0.5665	0.9626	0.429	0.067
Mof_H 	H 	0.5699	0.9377	0.4852	0.047
Mof_H 	H 	0.6354	0.0116	0.55	0.012
Mof_H 	H 	0.7301	0.035	0.3938	0.092
Mof_H 	H 	0.6734	0.9988	0.325	-0.021
Mof_H 	H 	0.4172	0.0015	0.3402	-0.028
Mof_H 	H 	0.47	0.0359	0.4092	0.094
Mof_H 	H 	0.4271	0.0111	0.1954	-0.039
Mof_H 	H 	0.4852	0.0249	0.146	0.097
Mof_H 	H 	0.7314	0.0018	0.1912	0.095
Mof_H 	H 	0.6652	0.9895	0.239	-0.031
Mof_H 	H 	0.5923	0.9219	0.105	0.067
Mof_H 	H 	0.6264	0.8699	0.0396	0.035
Mof_H 	H 	0.7193	0.9221	0.0166	0.017
Mof_H 	H 	0.6488	0.1132	0.1892	0.062
Mof_H 	H 	0.7124	0.1795	0.1738	0.036
Mof_H 	H 	0.776	0.1429	0.1114	0.013
Mof_H 	H 	0.9528	0.9807	0.0576	0.016
Mof_H 	H 	0.9946	0.9303	0.991	0.043
Mof_H 	H 	0.8701	0.927	0.936	0.067
Mof_H 	H 	0.8128	0.0005	0.91	0.091
Mof_H 	H 	0.7714	0.965	0.8398	-0.024
Mof_H 	H 	0.5413	0.9193	0.7	-0.04
Mof_H 	H 	0.4022	0.8999	0.6528	0.096
Mof_H 	H 	0.2856	0.8322	0.7108	0.092
Mof_H 	H 	0.4287	0.8526	0.7564	-0.028
Mof_H 	H 	0.976	0.8888	0.6246	0.016
Mof_H 	H 	0.0734	0.9579	0.6874	0.033
Mof_H 	H 	0.2246	0.9346	0.7024	0.065
Mof_H 	H 	0.3758	0.7848	0.6198	0.065
Mof_H 	H 	0.3181	0.7135	0.5546	0.037
Mof_H 	H 	0.1491	0.7137	0.5304	0.014
Mof_H 	H 	0.0952	0.8841	0.5706	0.014
Mof_H 	H 	0.0735	0.8926	0.5048	0.044
Mof_H 	H 	0.0138	0.8119	0.4494	0.067
Mof_H 	H 	0.0981	0.7208	0.4234	0.09
Mof_H 	H 	0.061	0.6848	0.3538	-0.023
Mof_C 	C 	0.01565	0.76665	0.1013	0.043
Mof_C 	C 	0.98831	0.79181	0.13742	-0.049
Mof_C 	C 	0.96568	0.75968	0.15256	-0.11
Mof_C 	C 	0.98016	0.71526	0.12472	0.127
Mof_C 	C 	0.95805	0.67075	0.1247	-0.16
Mof_C 	C 	0.95702	0.62722	0.09384	0.122
Mof_C 	C 	0.92684	0.57984	0.08968	-0.106
Mof_C 	C 	0.93655	0.54795	0.0537	-0.046
Mof_C 	C 	0.97654	0.57444	0.03508	0.034
Mof_C 	C 	0.93241	0.67071	0.16242	0.173
Mof_C 	C 	0.00227	0.68607	0.19654	-0.223
Mof_C 	C 	0.98053	0.68353	0.23046	0.13
Mof_C 	C 	0.8329	0.6534	0.2004	0.124
Mof_C 	C 	0.84854	0.65434	0.16508	-0.23
Mof_C 	C 	0.44616	0.46506	0.11512	0.039
Mof_C 	C 	0.41762	0.48012	0.15304	-0.044
Mof_C 	C 	0.39338	0.44078	0.15856	-0.109
Mof_C 	C 	0.40356	0.40106	0.12372	0.125
Mof_C 	C 	0.37764	0.35374	0.11448	-0.152
Mof_C 	C 	0.37742	0.31652	0.07784	0.123
Mof_C 	C 	0.33901	0.26731	0.06402	-0.108
Mof_C 	C 	0.35249	0.24449	0.02458	-0.051
Mof_C 	C 	0.39643	0.27883	0.01586	0.038
Mof_C 	C 	0.34976	0.34186	0.14692	0.143
Mof_C 	C 	0.41543	0.34693	0.17966	-0.194
Mof_C 	C 	0.39057	0.33657	0.20994	0.101
Mof_C 	C 	0.23862	0.31482	0.17764	0.095
Mof_C 	C 	0.25901	0.32431	0.14562	-0.186
Mof_C 	C 	0.19382	0.61142	0.01884	0.042
Mof_C 	C 	0.21889	0.58209	0.98318	-0.048
Mof_C 	C 	0.15389	0.58099	0.95218	-0.105
Mof_C 	C 	0.08907	0.60897	0.96974	0.123
Mof_C 	C 	0.00877	0.61567	0.94894	-0.154
Mof_C 	C 	0.94459	0.64139	0.96738	0.121
Mof_C 	C 	0.85832	0.64702	0.94904	-0.108
Mof_C 	C 	0.82031	0.67491	0.97842	-0.045
Mof_C 	C 	0.88306	0.68696	0.01532	0.043
Mof_C 	C 	0.98953	0.59363	0.90446	0.152
Mof_C 	C 	0.98647	0.62347	0.88454	-0.2
Mof_C 	C 	0.97357	0.60267	0.84294	0.119
Mof_C 	C 	0.95628	0.52868	0.83896	0.111
Mof_C 	C 	0.97091	0.54541	0.87982	-0.204
Mof_C 	C 	0.35984	0.54524	0.61708	0.037
Mof_C 	C 	0.41136	0.58036	0.65492	-0.048
Mof_C 	C 	0.48852	0.56412	0.66384	-0.102
Mof_C 	C 	0.4872	0.5192	0.631	0.119
Mof_C 	C 	0.55456	0.49166	0.62592	-0.145
Mof_C 	C 	0.55152	0.44982	0.59064	0.121
Mof_C 	C 	0.62203	0.42283	0.58246	-0.111
Mof_C 	C 	0.58647	0.38487	0.54474	-0.047
Mof_C 	C 	0.49708	0.38938	0.53136	0.033
Mof_C 	C 	0.63884	0.50654	0.65868	0.136
Mof_C 	C 	0.69947	0.54857	0.67174	-0.186
Mof_C 	C 	0.77909	0.55979	0.70178	0.086
Mof_C 	C 	0.73606	0.48956	0.70752	0.086
Mof_C 	C 	0.65582	0.47612	0.67744	-0.178
Mof_C 	C 	0.18118	0.47348	0.53056	0.038
Mof_C 	C 	0.10177	0.48977	0.54214	-0.047
Mof_C 	C 	0.10144	0.48844	0.57868	-0.111
Mof_C 	C 	0.18042	0.46952	0.58784	0.128
Mof_C 	C 	0.20721	0.46121	0.62182	-0.154
Mof_C 	C 	0.28056	0.43916	0.62792	0.122
Mof_C 	C 	0.30509	0.42459	0.65978	-0.102
Mof_C 	C 	0.37887	0.40107	0.65154	-0.055
Mof_C 	C 	0.39597	0.40167	0.61594	0.042
Mof_C 	C 	0.15155	0.47575	0.6535	0.151
Mof_C 	C 	0.16159	0.52279	0.68038	-0.205
Mof_C 	C 	0.10951	0.53511	0.70922	0.116
Mof_C 	C 	0.03769	0.45939	0.68718	0.103
Mof_C 	C 	0.08754	0.44284	0.65708	-0.202
Mof_C 	C 	0.27092	0.34302	0.52064	0.046
Mof_C 	C 	0.24698	0.30148	0.48476	-0.046
Mof_C 	C 	0.25901	0.31501	0.45482	-0.106
Mof_C 	C 	0.29053	0.36483	0.47286	0.123
Mof_C 	C 	0.31409	0.39269	0.45418	-0.155
Mof_C 	C 	0.35033	0.44173	0.47426	0.121
Mof_C 	C 	0.36915	0.47435	0.4571	-0.104
Mof_C 	C 	0.39811	0.51881	0.48762	-0.043
Mof_C 	C 	0.39715	0.51315	0.5237	0.038
Mof_C 	C 	0.3044	0.3701	0.4094	0.151
Mof_C 	C 	0.21812	0.35542	0.38324	-0.194
Mof_C 	C 	0.21138	0.33618	0.34236	0.096
Mof_C 	C 	0.36908	0.34358	0.35096	0.106
Mof_C 	C 	0.37892	0.36372	0.39224	-0.203
Mof_C 	C 	0.20445	0.18555	0.1943	0.116
Mof_C 	C 	0.14064	0.14744	0.16468	-0.21
Mof_C 	C 	0.04829	0.14809	0.16258	0.154
Mof_C 	C 	0.02308	0.18738	0.19116	-0.203
Mof_C 	C 	0.09196	0.22316	0.21932	0.113
Mof_C 	C 	0.97399	0.11019	0.13078	-0.15
Mof_C 	C 	0.93578	0.11778	0.09676	0.125
Mof_C 	C 	0.96426	0.15686	0.08872	-0.115
Mof_C 	C 	0.90944	0.14974	0.05328	-0.038
Mof_C 	C 	0.8453	0.1071	0.0404	0.028
Mof_C 	C 	0.9473	0.0687	0.136	0.122
Mof_C 	C 	0.99061	0.05661	0.16702	-0.106
Mof_C 	C 	0.94733	0.01233	0.15886	-0.047
Mof_C 	C 	0.87691	0.99811	0.12362	0.038
Mof_C 	C 	0.61301	0.05721	0.03142	0.031
Mof_C 	C 	0.55183	0.04863	0.99406	-0.037
Mof_C 	C 	0.58951	0.02001	0.96422	-0.109
Mof_C 	C 	0.67052	0.00912	0.98244	0.123
Mof_C 	C 	0.63479	0.92109	0.89618	-0.191
Mof_C 	C 	0.6179	0.9012	0.8544	0.098
Mof_C 	C 	0.7122	0.8013	0.7016	0.114
Mof_C 	C 	0.76725	0.78455	0.6735	-0.206
Mof_C 	C 	0.84499	0.81349	0.67558	0.151
Mof_C 	C 	0.86948	0.85818	0.70736	-0.192
Mof_C 	C 	0.81104	0.87304	0.73448	0.096
Mof_C 	C 	0.09937	0.74727	0.63694	0.031
Mof_C 	C 	0.08055	0.74355	0.6723	-0.04
Mof_C 	C 	0.0056	0.7642	0.6802	-0.112
Mof_C 	C 	0.97565	0.77945	0.6495	0.128
Mof_C 	C 	0.89993	0.79883	0.64326	-0.159
Mof_C 	C 	0.86789	0.80859	0.61098	0.126
Mof_C 	C 	0.78779	0.82689	0.60318	-0.113
Mof_C 	C 	0.78404	0.83084	0.56788	-0.042
Mof_C 	C 	0.86512	0.81652	0.55424	0.036
Mof_C 	C 	0.97181	0.68581	0.54442	0.035
Mof_C 	C 	0.94677	0.64387	0.50774	-0.04
Mof_C 	C 	0.94935	0.65795	0.4775	-0.105
Mof_C 	C 	0.97633	0.70893	0.49526	0.122
Mof_C 	C 	0.87457	0.69957	0.40954	-0.187
Mof_C 	C 	0.85542	0.67932	0.36824	0.095
Mof_C 	C 	0.58565	0.33465	0.1013	0.044
Mof_C 	C 	0.64911	0.34561	0.13742	-0.049
Mof_C 	C 	0.68688	0.39288	0.15256	-0.11
Mof_C 	C 	0.64456	0.40946	0.12472	0.127
Mof_C 	C 	0.66665	0.45395	0.1247	-0.159
Mof_C 	C 	0.63682	0.46662	0.09384	0.121
Mof_C 	C 	0.66284	0.50984	0.08968	-0.106
Mof_C 	C 	0.61715	0.50575	0.0537	-0.046
Mof_C 	C 	0.55854	0.46064	0.03508	0.034
Mof_C 	C 	0.73001	0.49171	0.16242	0.172
Mof_C 	C 	0.69427	0.51047	0.19654	-0.222
Mof_C 	C 	0.74993	0.54693	0.23046	0.129
Mof_C 	C 	0.8675	0.547	0.2004	0.123
Mof_C 	C 	0.81654	0.51074	0.16508	-0.229
Mof_C 	C 	0.16896	0.65006	0.11512	0.039
Mof_C 	C 	0.23542	0.67292	0.15304	-0.044
Mof_C 	C 	0.26518	0.71778	0.15856	-0.109
Mof_C 	C 	0.22016	0.72266	0.12372	0.125
Mof_C 	C 	0.23684	0.76074	0.11448	-0.152
Mof_C 	C 	0.20042	0.76132	0.07784	0.123
Mof_C 	C 	0.22501	0.79671	0.06402	-0.108
Mof_C 	C 	0.17209	0.78009	0.02458	-0.051
Mof_C 	C 	0.11943	0.73703	0.01586	0.038
Mof_C 	C 	0.29716	0.80506	0.14692	0.143
Mof_C 	C 	0.26423	0.83273	0.17966	-0.194
Mof_C 	C 	0.31937	0.87337	0.20994	0.101
Mof_C 	C 	0.43902	0.86282	0.17764	0.095
Mof_C 	C 	0.38661	0.82131	0.14562	-0.186
Mof_C 	C 	0.32502	0.40742	0.01884	0.042
Mof_C 	C 	0.26429	0.40109	0.98318	-0.048
Mof_C 	C 	0.29829	0.37119	0.95218	-0.105
Mof_C 	C 	0.38067	0.36077	0.96974	0.123
Mof_C 	C 	0.44017	0.33327	0.94894	-0.155
Mof_C 	C 	0.52279	0.32599	0.96738	0.122
Mof_C 	C 	0.59072	0.30202	0.94904	-0.108
Mof_C 	C 	0.65811	0.30351	0.97842	-0.044
Mof_C 	C 	0.63226	0.32836	0.01532	0.043
Mof_C 	C 	0.41493	0.31083	0.90446	0.152
Mof_C 	C 	0.39807	0.26107	0.88454	-0.201
Mof_C 	C 	0.36937	0.24027	0.84294	0.119
Mof_C 	C 	0.38268	0.31028	0.83896	0.111
Mof_C 	C 	0.40891	0.33441	0.87982	-0.205
Mof_C 	C 	0.75724	0.07184	0.61708	0.037
Mof_C 	C 	0.74356	0.07456	0.65492	-0.048
Mof_C 	C 	0.67532	0.09972	0.66384	-0.102
Mof_C 	C 	0.6438	0.1118	0.631	0.119
Mof_C 	C 	0.57136	0.13426	0.62592	-0.145
Mof_C 	C 	0.53912	0.14082	0.59064	0.121
Mof_C 	C 	0.46043	0.15963	0.58246	-0.111
Mof_C 	C 	0.45827	0.15987	0.54474	-0.047
Mof_C 	C 	0.53428	0.14198	0.53136	0.033
Mof_C 	C 	0.51984	0.15214	0.65868	0.136
Mof_C 	C 	0.47227	0.12317	0.67174	-0.186
Mof_C 	C 	0.42269	0.14199	0.70178	0.086
Mof_C 	C 	0.47146	0.21796	0.70752	0.086
Mof_C 	C 	0.52162	0.20132	0.67744	-0.178
Mof_C 	C 	0.84938	0.05708	0.53056	0.038
Mof_C 	C 	0.94037	0.05237	0.54214	-0.047
Mof_C 	C 	0.97724	0.09024	0.57868	-0.111
Mof_C 	C 	0.90742	0.11832	0.58784	0.129
Mof_C 	C 	0.91461	0.16061	0.62182	-0.155
Mof_C 	C 	0.84736	0.18876	0.62792	0.122
Mof_C 	C 	0.85469	0.23519	0.65978	-0.102
Mof_C 	C 	0.77267	0.25047	0.65154	-0.055
Mof_C 	C 	0.71997	0.21427	0.61594	0.042
Mof_C 	C 	0.00195	0.17775	0.6535	0.151
Mof_C 	C 	0.01879	0.15759	0.68038	-0.205
Mof_C 	C 	0.09971	0.17411	0.70922	0.115
Mof_C 	C 	0.14949	0.22779	0.68718	0.103
Mof_C 	C 	0.06954	0.21424	0.65708	-0.202
Mof_C 	C 	0.74972	0.17762	0.52064	0.046
Mof_C 	C 	0.73778	0.18328	0.48476	-0.046
Mof_C 	C 	0.69581	0.13981	0.45482	-0.106
Mof_C 	C 	0.68233	0.10803	0.47286	0.123
Mof_C 	C 	0.64009	0.06149	0.45418	-0.155
Mof_C 	C 	0.62393	0.03253	0.47426	0.121
Mof_C 	C 	0.58795	0.98275	0.4571	-0.104
Mof_C 	C 	0.58951	0.96881	0.48762	-0.043
Mof_C 	C 	0.62655	0.01055	0.5237	0.038
Mof_C 	C 	0.605	0.0393	0.4094	0.151
Mof_C 	C 	0.66512	0.02782	0.38324	-0.194
Mof_C 	C 	0.63098	0.00618	0.34236	0.096
Mof_C 	C 	0.48188	0.00738	0.35096	0.107
Mof_C 	C 	0.51332	0.02852	0.39224	-0.203
Mof_C 	C 	0.48985	0.00875	0.1943	0.116
Mof_C 	C 	0.52404	0.01724	0.16468	-0.21
Mof_C 	C 	0.61429	0.01449	0.16258	0.154
Mof_C 	C 	0.66808	0.00378	0.19116	-0.202
Mof_C 	C 	0.62736	0.99616	0.21932	0.113
Mof_C 	C 	0.65679	0.02059	0.13078	-0.15
Mof_C 	C 	0.66098	0.97898	0.09676	0.125
Mof_C 	C 	0.62446	0.93186	0.08872	-0.116
Mof_C 	C 	0.64384	0.90354	0.05328	-0.038
Mof_C 	C 	0.6951	0.9333	0.0404	0.028
Mof_C 	C 	0.6887	0.0673	0.136	0.122
Mof_C 	C 	0.67641	0.11041	0.16702	-0.106
Mof_C 	C 	0.71153	0.14653	0.15886	-0.047
Mof_C 	C 	0.74671	0.12551	0.12362	0.038
Mof_C 	C 	0.91841	0.97421	0.03142	0.031
Mof_C 	C 	0.94223	0.94543	0.99406	-0.037
Mof_C 	C 	0.87471	0.94421	0.96422	-0.109
Mof_C 	C 	0.81192	0.97332	0.98244	0.123
Mof_C 	C 	0.76139	0.97509	0.89618	-0.191
Mof_C 	C 	0.7365	0.9532	0.8544	0.098
Mof_C 	C 	0.4894	0.9003	0.7016	0.114
Mof_C 	C 	0.40625	0.88895	0.6735	-0.206
Mof_C 	C 	0.33059	0.86209	0.67558	0.151
Mof_C 	C 	0.33788	0.84918	0.70736	-0.192
Mof_C 	C 	0.42344	0.86144	0.73448	0.096
Mof_C 	C 	0.03757	0.88967	0.63694	0.031
Mof_C 	C 	0.09175	0.92875	0.6723	-0.04
Mof_C 	C 	0.1746	0.916	0.6802	-0.113
Mof_C 	C 	0.17385	0.87005	0.6495	0.128
Mof_C 	C 	0.24333	0.84443	0.64326	-0.159
Mof_C 	C 	0.24309	0.80239	0.61098	0.126
Mof_C 	C 	0.31539	0.77629	0.60318	-0.113
Mof_C 	C 	0.28384	0.73704	0.56788	-0.042
Mof_C 	C 	0.18912	0.73772	0.55424	0.036
Mof_C 	C 	0.07261	0.85861	0.54442	0.035
Mof_C 	C 	0.06097	0.86387	0.50774	-0.04
Mof_C 	C 	0.02815	0.81955	0.4775	-0.105
Mof_C 	C 	0.01893	0.78633	0.49526	0.121
Mof_C 	C 	0.03497	0.70997	0.40954	-0.188
Mof_C 	C 	0.01282	0.68892	0.36824	0.095
Mof_C 	C 	0.73173	0.98173	0.96346	-0.147
Mof_C 	C 	0.70858	0.95858	0.91716	0.137
Mof_C 	C 	0.98823	0.73823	0.47646	-0.154
Mof_C 	C 	0.96572	0.71572	0.43144	0.14
Mof_N 	N 	0.01241	0.72131	0.09342	-0.206
Mof_N 	N 	0.98987	0.62167	0.05874	-0.205
Mof_N 	N 	0.89897	0.66887	0.23354	-0.223
Mof_N 	N 	0.43778	0.41848	0.09816	-0.203
Mof_N 	N 	0.41325	0.32235	0.0471	-0.21
Mof_N 	N 	0.30303	0.32293	0.21046	-0.209
Mof_N 	N 	0.11596	0.62676	0.01152	-0.21
Mof_N 	N 	0.95736	0.66736	0.00952	-0.207
Mof_N 	N 	0.96071	0.55741	0.81982	-0.219
Mof_N 	N 	0.40354	0.50864	0.60268	-0.201
Mof_N 	N 	0.47404	0.42824	0.559	-0.208
Mof_N 	N 	0.79867	0.52967	0.71954	-0.2
Mof_N 	N 	0.22862	0.46172	0.55764	-0.21
Mof_N 	N 	0.33907	0.42377	0.60094	-0.202
Mof_N 	N 	0.04692	0.50532	0.71304	-0.217
Mof_N 	N 	0.29749	0.38129	0.51516	-0.208
Mof_N 	N 	0.36827	0.46777	0.51612	-0.206
Mof_N 	N 	0.28714	0.33064	0.32538	-0.213
Mof_N 	N 	0.18123	0.22393	0.22146	-0.212
Mof_N 	N 	0.86159	0.08669	0.06638	-0.208
Mof_N 	N 	0.87635	0.03145	0.1099	-0.203
Mof_N 	N 	0.68387	0.03317	0.02414	-0.206
Mof_N 	N 	0.73233	0.84503	0.73046	-0.216
Mof_N 	N 	0.03774	0.76904	0.6234	-0.201
Mof_N 	N 	0.91484	0.80314	0.57948	-0.208
Mof_N 	N 	0.99006	0.72466	0.5375	-0.205
Mof_N 	N 	0.58101	0.37211	0.09342	-0.206
Mof_N 	N 	0.56887	0.43707	0.05874	-0.205
Mof_N 	N 	0.83457	0.56467	0.23354	-0.223
Mof_N 	N 	0.16038	0.67968	0.09816	-0.203
Mof_N 	N 	0.13385	0.72475	0.0471	-0.21
Mof_N 	N 	0.40743	0.88753	0.21046	-0.209
Mof_N 	N 	0.39556	0.38476	0.01152	-0.21
Mof_N 	N 	0.55216	0.34216	0.00952	-0.207
Mof_N 	N 	0.35911	0.26241	0.81982	-0.219
Mof_N 	N 	0.69914	0.09404	0.60268	-0.201
Mof_N 	N 	0.58496	0.13076	0.559	-0.208
Mof_N 	N 	0.42087	0.18987	0.71954	-0.2
Mof_N 	N 	0.82902	0.09592	0.55764	-0.21
Mof_N 	N 	0.76187	0.17717	0.60094	-0.202
Mof_N 	N 	0.16612	0.20772	0.71304	-0.217
Mof_N 	N 	0.71767	0.13387	0.51516	-0.208
Mof_N 	N 	0.64785	0.04835	0.51612	-0.206
Mof_N 	N 	0.53824	0.99474	0.32538	-0.213
Mof_N 	N 	0.54023	0.99753	0.22146	-0.212
Mof_N 	N 	0.70479	0.97969	0.06638	-0.208
Mof_N 	N 	0.73355	0.07845	0.1099	-0.203
Mof_N 	N 	0.84027	0.99097	0.02414	-0.206
Mof_N 	N 	0.49813	0.88543	0.73046	-0.216
Mof_N 	N 	0.08566	0.85436	0.6234	-0.201
Mof_N 	N 	0.16464	0.77634	0.57948	-0.208
Mof_N 	N 	0.04744	0.81284	0.5375	-0.205
Mof_N 	N 	0.66656	0.91656	0.83312	-0.213
Mof_N 	N 	0.92367	0.67367	0.34734	-0.215
_end
