data_functionalizedCrystal
_audit_creation_method	'EQeq! by Chris Wilmer'
_symmetry_space_group_name_H-M	'P1'
_symmetry_Int_Tables_number	1
_symmetry_cell_setting	triclinic
loop_
_symmetry_equiv_pos_as_xyz
  x,y,z
_cell_length_a	29.0354
_cell_length_b	22.1378
_cell_length_c	24.5583
_cell_angle_alpha	90
_cell_angle_beta	108.987
_cell_angle_gamma	90
loop_
_atom_site_label
_atom_site_type_symbol
_atom_site_fract_x
_atom_site_fract_y
_atom_site_fract_z
_atom_site_charge
Mof_W 	W 	0.80705	0.56855	0.18025	0.957
Mof_W 	W 	0.81473	0.89153	0.1801	1.356
Mof_W 	W 	0.90845	0.46252	0.17974	0.918
Mof_W 	W 	0.97642	0.61123	0.39647	1.023
Mof_W 	W 	0.93827	0.77237	0.39732	1.442
Mof_W 	W 	0.76903	0.73289	0.18193	0.941
Mof_W 	W 	0.03916	0.46173	0.17829	0.938
Mof_W 	W 	0.95712	0.86903	0.10501	1.446
Mof_W 	W 	0.85462	0.76688	0.10476	1.021
Mof_W 	W 	0.89517	0.6067	0.10486	1.351
Mof_W 	W 	0.81223	0.7188	0.32473	1.331
Mof_W 	W 	0.04924	0.98454	0.17803	1.373
Mof_W 	W 	0.85334	0.55558	0.32276	1.336
Mof_W 	W 	0.07942	0.99319	0.32039	0.954
Mof_W 	W 	0.84562	0.88252	0.32288	0.988
Mof_Sm	Sm	0.81515	0.44878	0.43628	1.291
Mof_Sm	Sm	0.92205	0.90311	0.93446	1.808
Mof_P 	P 	0.88638	0.7733	0.2513	0.606
Mof_P 	P 	0.92963	0.5977	0.2505	0.588
Mof_O 	O 	0.8989	0.7609	0.1975	-0.516
Mof_O 	O 	0.8061	0.7303	0.1303	-0.476
Mof_O 	O 	0.8346	0.8432	0.1311	-0.52
Mof_O 	O 	0.9123	0.8084	0.1016	-0.598
Mof_O 	O 	0.8823	0.6911	0.1003	-0.574
Mof_O 	O 	0.9579	0.6236	0.1004	-0.577
Mof_O 	O 	0.8649	0.5906	0.0328	-0.651
Mof_O 	O 	0.9311	0.627	0.1962	-0.53
Mof_O 	O 	0.8391	0.5969	0.1291	-0.504
Mof_O 	O 	0.9125	0.5254	0.1295	-0.511
Mof_O 	O 	0.0418	0.9261	0.2497	-0.404
Mof_O 	O 	0.9083	0.5972	0.3727	-0.525
Mof_O 	O 	0.8758	0.7309	0.3739	-0.562
Mof_O 	O 	0.9787	0.4483	0.1845	-0.484
Mof_O 	O 	0.9461	0.5295	0.2508	-0.341
Mof_O 	O 	0.8264	0.5246	0.3694	-0.637
Mof_O 	O 	0.011	0.9274	0.1289	-0.524
Mof_O 	O 	0.8691	0.8406	0.25	-0.388
Mof_O 	O 	0.7821	0.6418	0.1873	-0.468
Mof_O 	O 	0.7761	0.8152	0.1851	-0.482
Mof_O 	O 	0.9833	0.0125	0.1821	-0.506
Mof_O 	O 	0.9805	0.5278	0.3705	-0.479
Mof_O 	O 	0.8027	0.5388	0.2518	-0.486
Mof_O 	O 	0.1057	0.9475	0.1832	-0.51
Mof_O 	O 	0.8042	0.9143	0.2506	-0.491
Mof_O 	O 	0.968	0.6954	0.3996	-0.59
Mof_O 	O 	0.0799	0.9277	0.3711	-0.508
Mof_O 	O 	0.9259	0.4204	0.2517	-0.514
Mof_O 	O 	0.0755	0.0304	0.2492	-0.543
Mof_O 	O 	0.7571	0.7251	0.254	-0.501
Mof_O 	O 	0.8128	0.812	0.3195	-0.498
Mof_O 	O 	0.8604	0.9503	0.1856	-0.496
Mof_O 	O 	0.9437	0.7769	0.469	-0.743
Mof_O 	O 	0.936	0.89	0.0327	-0.656
Mof_O 	O 	0.8933	0.4937	0.3181	-0.51
Mof_O 	O 	0.0156	0.8456	0.304	-0.551
Mof_O 	O 	0.9032	0.845	0.3723	-0.511
Mof_O 	O 	0.8514	0.4928	0.1836	-0.475
Mof_O 	O 	0.0031	0.8094	0.0993	-0.608
Mof_O 	O 	0.8759	0.5969	0.2525	-0.379
Mof_O 	O 	0.9628	0.6308	0.3043	-0.509
Mof_O 	O 	0.0511	0.0448	0.1324	-0.697
Mof_O 	O 	0.7792	0.7208	0.372	-0.636
Mof_O 	O 	0.9353	0.0026	0.9721	-0.538
Mof_O 	O 	0.7631	0.9253	0.1334	-0.632
Mof_O 	O 	0.8195	0.638	0.318	-0.505
Mof_O 	O 	0.9925	0.073	0.0188	-0.514
Mof_O 	O 	0.8433	0.7336	0.2529	-0.388
Mof_O 	O 	0.9312	0.763	0.3054	-0.546
Mof_O 	O 	0.9643	0.8119	0.9485	-0.68
Mof_C 	C 	0.977	0.0248	0.997	0.346
Mof_K 	K 	0.76511	0.7181	0.4698	0.624
Mof_K 	K 	0.9555	0.7842	0.5754	1.802
Mof_Na	Na	0.9838	0.725	0.1919	1.809
Mof_W 	W 	0.30705	0.06855	0.18025	0.958
Mof_W 	W 	0.31473	0.39153	0.1801	1.357
Mof_W 	W 	0.40845	0.96252	0.17974	0.915
Mof_W 	W 	0.47642	0.11123	0.39647	1.015
Mof_W 	W 	0.43827	0.27237	0.39732	1.441
Mof_W 	W 	0.26903	0.23289	0.18193	0.941
Mof_W 	W 	0.53916	0.96173	0.17829	0.943
Mof_W 	W 	0.45712	0.36903	0.10501	1.437
Mof_W 	W 	0.35462	0.26688	0.10476	1.022
Mof_W 	W 	0.39517	0.1067	0.10486	1.352
Mof_W 	W 	0.31223	0.2188	0.32473	1.331
Mof_W 	W 	0.54924	0.48454	0.17803	1.382
Mof_W 	W 	0.35334	0.05558	0.32276	1.337
Mof_W 	W 	0.57942	0.49319	0.32039	0.958
Mof_W 	W 	0.34562	0.38252	0.32288	0.988
Mof_Sm	Sm	0.31515	0.94878	0.43628	1.288
Mof_Sm	Sm	0.42205	0.40311	0.93446	1.795
Mof_P 	P 	0.38638	0.2733	0.2513	0.606
Mof_P 	P 	0.42963	0.0977	0.2505	0.588
Mof_O 	O 	0.3989	0.2609	0.1975	-0.513
Mof_O 	O 	0.3061	0.2303	0.1303	-0.476
Mof_O 	O 	0.3346	0.3432	0.1311	-0.519
Mof_O 	O 	0.4123	0.3084	0.1016	-0.595
Mof_O 	O 	0.3823	0.1911	0.1003	-0.572
Mof_O 	O 	0.4579	0.1236	0.1004	-0.58
Mof_O 	O 	0.3649	0.0906	0.0328	-0.65
Mof_O 	O 	0.4311	0.127	0.1962	-0.528
Mof_O 	O 	0.3391	0.0969	0.1291	-0.504
Mof_O 	O 	0.4125	0.0254	0.1295	-0.51
Mof_O 	O 	0.5418	0.4261	0.2497	-0.404
Mof_O 	O 	0.4083	0.0972	0.3727	-0.524
Mof_O 	O 	0.3758	0.2309	0.3739	-0.562
Mof_O 	O 	0.4787	0.9483	0.1845	-0.49
Mof_O 	O 	0.4461	0.0295	0.2508	-0.341
Mof_O 	O 	0.3264	0.0246	0.3694	-0.637
Mof_O 	O 	0.511	0.4274	0.1289	-0.519
Mof_O 	O 	0.3691	0.3406	0.25	-0.388
Mof_O 	O 	0.2821	0.1418	0.1873	-0.468
Mof_O 	O 	0.2761	0.3152	0.1851	-0.482
Mof_O 	O 	0.4833	0.5125	0.1821	-0.513
Mof_O 	O 	0.4805	0.0278	0.3705	-0.48
Mof_O 	O 	0.3027	0.0388	0.2518	-0.486
Mof_O 	O 	0.6057	0.4475	0.1832	-0.511
Mof_O 	O 	0.3042	0.4143	0.2506	-0.491
Mof_O 	O 	0.468	0.1954	0.3996	-0.593
Mof_O 	O 	0.5799	0.4277	0.3711	-0.509
Mof_O 	O 	0.4259	0.9204	0.2517	-0.514
Mof_O 	O 	0.5755	0.5304	0.2492	-0.544
Mof_O 	O 	0.2571	0.2251	0.254	-0.502
Mof_O 	O 	0.3128	0.312	0.3195	-0.497
Mof_O 	O 	0.3604	0.4503	0.1856	-0.495
Mof_O 	O 	0.4437	0.2769	0.469	-0.742
Mof_O 	O 	0.436	0.39	0.0327	-0.653
Mof_O 	O 	0.3933	0.9937	0.3181	-0.51
Mof_O 	O 	0.5156	0.3456	0.304	-0.553
Mof_O 	O 	0.4032	0.345	0.3723	-0.511
Mof_O 	O 	0.3514	0.9928	0.1836	-0.476
Mof_O 	O 	0.5031	0.3094	0.0993	-0.6
Mof_O 	O 	0.3759	0.0969	0.2525	-0.378
Mof_O 	O 	0.4628	0.1308	0.3043	-0.514
Mof_O 	O 	0.5511	0.5448	0.1324	-0.697
Mof_O 	O 	0.2792	0.2208	0.372	-0.636
Mof_O 	O 	0.4353	0.5026	0.9721	-0.536
Mof_O 	O 	0.2631	0.4253	0.1334	-0.632
Mof_O 	O 	0.3195	0.138	0.318	-0.505
Mof_O 	O 	0.4925	0.573	0.0188	-0.52
Mof_O 	O 	0.3433	0.2336	0.2529	-0.388
Mof_O 	O 	0.4312	0.263	0.3054	-0.551
Mof_O 	O 	0.4643	0.3119	0.9485	-0.685
Mof_C 	C 	0.477	0.5248	0.997	0.343
Mof_K 	K 	0.26511	0.2181	0.4698	0.625
Mof_K 	K 	0.4555	0.2842	0.5754	1.784
Mof_Na	Na	0.4838	0.225	0.1919	1.762
Mof_W 	W 	0.19295	0.56855	0.31975	0.956
Mof_W 	W 	0.18527	0.89153	0.3199	1.357
Mof_W 	W 	0.09155	0.46252	0.32026	0.917
Mof_W 	W 	0.02358	0.61123	0.10353	1.007
Mof_W 	W 	0.06173	0.77237	0.10268	1.439
Mof_W 	W 	0.23097	0.73289	0.31807	0.941
Mof_W 	W 	0.96084	0.46173	0.32171	0.955
Mof_W 	W 	0.04288	0.86903	0.39499	1.426
Mof_W 	W 	0.14538	0.76688	0.39524	1.021
Mof_W 	W 	0.10483	0.6067	0.39514	1.352
Mof_W 	W 	0.18777	0.7188	0.17527	1.331
Mof_W 	W 	0.95076	0.98454	0.32197	1.383
Mof_W 	W 	0.14666	0.55558	0.17724	1.335
Mof_W 	W 	0.92058	0.99319	0.17961	0.953
Mof_W 	W 	0.15438	0.88252	0.17712	0.987
Mof_Sm	Sm	0.18485	0.44878	0.06372	1.29
Mof_Sm	Sm	0.07795	0.90311	0.56554	1.789
Mof_P 	P 	0.11362	0.7733	0.2487	0.606
Mof_P 	P 	0.07037	0.5977	0.2495	0.587
Mof_O 	O 	0.1011	0.7609	0.3025	-0.51
Mof_O 	O 	0.1939	0.7303	0.3697	-0.476
Mof_O 	O 	0.1654	0.8432	0.3689	-0.519
Mof_O 	O 	0.0877	0.8084	0.3984	-0.593
Mof_O 	O 	0.1177	0.6911	0.3997	-0.572
Mof_O 	O 	0.0421	0.6236	0.3996	-0.584
Mof_O 	O 	0.1351	0.5906	0.4672	-0.652
Mof_O 	O 	0.0689	0.627	0.3038	-0.527
Mof_O 	O 	0.1609	0.5969	0.3709	-0.504
Mof_O 	O 	0.0875	0.5254	0.3705	-0.513
Mof_O 	O 	0.9582	0.9261	0.2503	-0.399
Mof_O 	O 	0.0917	0.5972	0.1273	-0.522
Mof_O 	O 	0.1242	0.7309	0.1261	-0.561
Mof_O 	O 	0.0213	0.4483	0.3155	-0.495
Mof_O 	O 	0.0539	0.5295	0.2492	-0.343
Mof_O 	O 	0.1736	0.5246	0.1306	-0.637
Mof_O 	O 	0.989	0.9274	0.3711	-0.514
Mof_O 	O 	0.1309	0.8406	0.25	-0.388
Mof_O 	O 	0.2179	0.6418	0.3127	-0.468
Mof_O 	O 	0.2239	0.8152	0.3149	-0.482
Mof_O 	O 	0.0167	0.0125	0.3179	-0.517
Mof_O 	O 	0.0195	0.5278	0.1295	-0.481
Mof_O 	O 	0.1973	0.5388	0.2482	-0.486
Mof_O 	O 	0.8943	0.9475	0.3168	-0.511
Mof_O 	O 	0.1958	0.9143	0.2494	-0.491
Mof_O 	O 	0.032	0.6954	0.1004	-0.595
Mof_O 	O 	0.9201	0.9277	0.1289	-0.509
Mof_O 	O 	0.0741	0.4204	0.2483	-0.515
Mof_O 	O 	0.9245	0.0304	0.2508	-0.541
Mof_O 	O 	0.2429	0.7251	0.246	-0.501
Mof_O 	O 	0.1872	0.812	0.1805	-0.497
Mof_O 	O 	0.1396	0.9503	0.3144	-0.495
Mof_O 	O 	0.0563	0.7769	0.031	-0.742
Mof_O 	O 	0.064	0.89	0.4673	-0.654
Mof_O 	O 	0.1067	0.4937	0.1819	-0.508
Mof_O 	O 	0.9844	0.8456	0.196	-0.549
Mof_O 	O 	0.0968	0.845	0.1277	-0.511
Mof_O 	O 	0.1486	0.4928	0.3164	-0.475
Mof_O 	O 	0.9969	0.8094	0.4007	-0.592
Mof_O 	O 	0.1241	0.5969	0.2475	-0.378
Mof_O 	O 	0.0372	0.6308	0.1957	-0.519
Mof_O 	O 	0.9489	0.0448	0.3676	-0.695
Mof_O 	O 	0.2208	0.7208	0.128	-0.634
Mof_O 	O 	0.0647	0.0026	0.5279	-0.535
Mof_O 	O 	0.2369	0.9253	0.3666	-0.632
Mof_O 	O 	0.1805	0.638	0.182	-0.505
Mof_O 	O 	0.0075	0.073	0.4812	-0.523
Mof_O 	O 	0.1567	0.7336	0.2471	-0.388
Mof_O 	O 	0.0688	0.763	0.1946	-0.555
Mof_O 	O 	0.0357	0.8119	0.5515	-0.691
Mof_C 	C 	0.023	0.0248	0.503	0.338
Mof_K 	K 	0.23489	0.7181	0.0302	0.609
Mof_K 	K 	0.0445	0.7842	0.9246	1.77
Mof_Na	Na	0.0162	0.725	0.3081	1.716
Mof_W 	W 	0.69295	0.06855	0.31975	0.956
Mof_W 	W 	0.68527	0.39153	0.3199	1.357
Mof_W 	W 	0.59155	0.96252	0.32026	0.916
Mof_W 	W 	0.52358	0.11123	0.10353	1.016
Mof_W 	W 	0.56173	0.27237	0.10268	1.441
Mof_W 	W 	0.73097	0.23289	0.31807	0.941
Mof_W 	W 	0.46084	0.96173	0.32171	0.944
Mof_W 	W 	0.54288	0.36903	0.39499	1.437
Mof_W 	W 	0.64538	0.26688	0.39524	1.021
Mof_W 	W 	0.60483	0.1067	0.39514	1.352
Mof_W 	W 	0.68777	0.2188	0.17527	1.332
Mof_W 	W 	0.45076	0.48454	0.32197	1.382
Mof_W 	W 	0.64666	0.05558	0.17724	1.337
Mof_W 	W 	0.42058	0.49319	0.17961	0.958
Mof_W 	W 	0.65438	0.38252	0.17712	0.988
Mof_Sm	Sm	0.68485	0.94878	0.06372	1.282
Mof_Sm	Sm	0.57795	0.40311	0.56554	1.796
Mof_P 	P 	0.61362	0.2733	0.2487	0.606
Mof_P 	P 	0.57037	0.0977	0.2495	0.588
Mof_O 	O 	0.6011	0.2609	0.3025	-0.513
Mof_O 	O 	0.6939	0.2303	0.3697	-0.476
Mof_O 	O 	0.6654	0.3432	0.3689	-0.52
Mof_O 	O 	0.5877	0.3084	0.3984	-0.595
Mof_O 	O 	0.6177	0.1911	0.3997	-0.573
Mof_O 	O 	0.5421	0.1236	0.3996	-0.58
Mof_O 	O 	0.6351	0.0906	0.4672	-0.652
Mof_O 	O 	0.5689	0.127	0.3038	-0.528
Mof_O 	O 	0.6609	0.0969	0.3709	-0.504
Mof_O 	O 	0.5875	0.0254	0.3705	-0.511
Mof_O 	O 	0.4582	0.4261	0.2503	-0.404
Mof_O 	O 	0.5917	0.0972	0.1273	-0.523
Mof_O 	O 	0.6242	0.2309	0.1261	-0.562
Mof_O 	O 	0.5213	0.9483	0.3155	-0.49
Mof_O 	O 	0.5539	0.0295	0.2492	-0.341
Mof_O 	O 	0.6736	0.0246	0.1306	-0.635
Mof_O 	O 	0.489	0.4274	0.3711	-0.519
Mof_O 	O 	0.6309	0.3406	0.25	-0.388
Mof_O 	O 	0.7179	0.1418	0.3127	-0.469
Mof_O 	O 	0.7239	0.3152	0.3149	-0.482
Mof_O 	O 	0.5167	0.5125	0.3179	-0.513
Mof_O 	O 	0.5195	0.0278	0.1295	-0.479
Mof_O 	O 	0.6973	0.0388	0.2482	-0.486
Mof_O 	O 	0.3943	0.4475	0.3168	-0.511
Mof_O 	O 	0.6958	0.4143	0.2494	-0.491
Mof_O 	O 	0.532	0.1954	0.1004	-0.592
Mof_O 	O 	0.4201	0.4277	0.1289	-0.509
Mof_O 	O 	0.5741	0.9204	0.2483	-0.514
Mof_O 	O 	0.4245	0.5304	0.2508	-0.544
Mof_O 	O 	0.7429	0.2251	0.246	-0.502
Mof_O 	O 	0.6872	0.312	0.1805	-0.498
Mof_O 	O 	0.6396	0.4503	0.3144	-0.495
Mof_O 	O 	0.5563	0.2769	0.031	-0.741
Mof_O 	O 	0.564	0.39	0.4673	-0.654
Mof_O 	O 	0.6067	0.9937	0.1819	-0.511
Mof_O 	O 	0.4844	0.3456	0.196	-0.553
Mof_O 	O 	0.5968	0.345	0.1277	-0.511
Mof_O 	O 	0.6486	0.9928	0.3164	-0.476
Mof_O 	O 	0.4969	0.3094	0.4007	-0.6
Mof_O 	O 	0.6241	0.0969	0.2475	-0.378
Mof_O 	O 	0.5372	0.1308	0.1957	-0.514
Mof_O 	O 	0.4489	0.5448	0.3676	-0.697
Mof_O 	O 	0.7208	0.2208	0.128	-0.639
Mof_O 	O 	0.5647	0.5026	0.5279	-0.536
Mof_O 	O 	0.7369	0.4253	0.3666	-0.632
Mof_O 	O 	0.6805	0.138	0.182	-0.505
Mof_O 	O 	0.5075	0.573	0.4812	-0.52
Mof_O 	O 	0.6567	0.2336	0.2471	-0.388
Mof_O 	O 	0.5688	0.263	0.1946	-0.551
Mof_O 	O 	0.5357	0.3119	0.5515	-0.685
Mof_C 	C 	0.523	0.5248	0.503	0.343
Mof_K 	K 	0.73489	0.2181	0.0302	0.652
Mof_K 	K 	0.5445	0.2842	0.9246	1.78
Mof_Na	Na	0.5162	0.225	0.3081	1.762
Mof_W 	W 	0.19295	0.43145	0.81975	0.956
Mof_W 	W 	0.18527	0.10847	0.8199	1.356
Mof_W 	W 	0.09155	0.53748	0.82026	0.918
Mof_W 	W 	0.02358	0.38877	0.60353	1.006
Mof_W 	W 	0.06173	0.22763	0.60268	1.439
Mof_W 	W 	0.23097	0.26711	0.81807	0.941
Mof_W 	W 	0.96084	0.53827	0.82171	0.955
Mof_W 	W 	0.04288	0.13097	0.89499	1.426
Mof_W 	W 	0.14538	0.23312	0.89524	1.021
Mof_W 	W 	0.10483	0.3933	0.89514	1.353
Mof_W 	W 	0.18777	0.2812	0.67527	1.331
Mof_W 	W 	0.95076	0.01546	0.82197	1.382
Mof_W 	W 	0.14666	0.44442	0.67724	1.335
Mof_W 	W 	0.92058	0.00681	0.67961	0.955
Mof_W 	W 	0.15438	0.11748	0.67712	0.988
Mof_Sm	Sm	0.18485	0.55122	0.56372	1.288
Mof_Sm	Sm	0.07795	0.09689	0.06554	1.794
Mof_P 	P 	0.11362	0.2267	0.7487	0.606
Mof_P 	P 	0.07037	0.4023	0.7495	0.587
Mof_O 	O 	0.1011	0.2391	0.8025	-0.51
Mof_O 	O 	0.1939	0.2697	0.8697	-0.476
Mof_O 	O 	0.1654	0.1568	0.8689	-0.519
Mof_O 	O 	0.0877	0.1916	0.8984	-0.593
Mof_O 	O 	0.1177	0.3089	0.8997	-0.572
Mof_O 	O 	0.0421	0.3764	0.8996	-0.584
Mof_O 	O 	0.1351	0.4094	0.9672	-0.653
Mof_O 	O 	0.0689	0.373	0.8038	-0.527
Mof_O 	O 	0.1609	0.4031	0.8709	-0.504
Mof_O 	O 	0.0875	0.4746	0.8705	-0.513
Mof_O 	O 	0.9582	0.0739	0.7503	-0.398
Mof_O 	O 	0.0917	0.4028	0.6273	-0.522
Mof_O 	O 	0.1242	0.2691	0.6261	-0.562
Mof_O 	O 	0.0213	0.5517	0.8155	-0.496
Mof_O 	O 	0.0539	0.4705	0.7492	-0.343
Mof_O 	O 	0.1736	0.4754	0.6306	-0.637
Mof_O 	O 	0.989	0.0726	0.8711	-0.513
Mof_O 	O 	0.1309	0.1594	0.75	-0.388
Mof_O 	O 	0.2179	0.3582	0.8127	-0.468
Mof_O 	O 	0.2239	0.1848	0.8149	-0.482
Mof_O 	O 	0.0167	0.9875	0.8179	-0.515
Mof_O 	O 	0.0195	0.4722	0.6295	-0.482
Mof_O 	O 	0.1973	0.4612	0.7482	-0.486
Mof_O 	O 	0.8943	0.0525	0.8168	-0.511
Mof_O 	O 	0.1958	0.0857	0.7494	-0.491
Mof_O 	O 	0.032	0.3046	0.6004	-0.595
Mof_O 	O 	0.9201	0.0723	0.6289	-0.509
Mof_O 	O 	0.0741	0.5796	0.7483	-0.515
Mof_O 	O 	0.9245	0.9696	0.7508	-0.541
Mof_O 	O 	0.2429	0.2749	0.746	-0.501
Mof_O 	O 	0.1872	0.188	0.6805	-0.497
Mof_O 	O 	0.1396	0.0497	0.8144	-0.495
Mof_O 	O 	0.0563	0.2231	0.531	-0.741
Mof_O 	O 	0.064	0.11	0.9673	-0.655
Mof_O 	O 	0.1067	0.5063	0.6819	-0.508
Mof_O 	O 	0.9844	0.1544	0.696	-0.549
Mof_O 	O 	0.0968	0.155	0.6277	-0.511
Mof_O 	O 	0.1486	0.5072	0.8164	-0.475
Mof_O 	O 	0.9969	0.1906	0.9007	-0.592
Mof_O 	O 	0.1241	0.4031	0.7475	-0.378
Mof_O 	O 	0.0372	0.3692	0.6957	-0.52
Mof_O 	O 	0.9489	0.9552	0.8676	-0.695
Mof_O 	O 	0.2208	0.2792	0.628	-0.637
Mof_O 	O 	0.0647	0.9974	0.0279	-0.536
Mof_O 	O 	0.2369	0.0747	0.8666	-0.632
Mof_O 	O 	0.1805	0.362	0.682	-0.505
Mof_O 	O 	0.0075	0.927	0.9812	-0.52
Mof_O 	O 	0.1567	0.2664	0.7471	-0.388
Mof_O 	O 	0.0688	0.237	0.6946	-0.556
Mof_O 	O 	0.0357	0.1881	0.0515	-0.691
Mof_C 	C 	0.023	0.9752	0.003	0.336
Mof_K 	K 	0.23489	0.2819	0.5302	0.627
Mof_K 	K 	0.0445	0.2158	0.4246	1.765
Mof_Na	Na	0.0162	0.275	0.8081	1.713
Mof_W 	W 	0.69295	0.93145	0.81975	0.957
Mof_W 	W 	0.68527	0.60847	0.8199	1.357
Mof_W 	W 	0.59155	0.03748	0.82026	0.915
Mof_W 	W 	0.52358	0.88877	0.60353	1.015
Mof_W 	W 	0.56173	0.72763	0.60268	1.441
Mof_W 	W 	0.73097	0.76711	0.81807	0.941
Mof_W 	W 	0.46084	0.03827	0.82171	0.943
Mof_W 	W 	0.54288	0.63097	0.89499	1.437
Mof_W 	W 	0.64538	0.73312	0.89524	1.022
Mof_W 	W 	0.60483	0.8933	0.89514	1.352
Mof_W 	W 	0.68777	0.7812	0.67527	1.331
Mof_W 	W 	0.45076	0.51546	0.82197	1.382
Mof_W 	W 	0.64666	0.94442	0.67724	1.337
Mof_W 	W 	0.42058	0.50681	0.67961	0.958
Mof_W 	W 	0.65438	0.61748	0.67712	0.988
Mof_Sm	Sm	0.68485	0.05122	0.56372	1.287
Mof_Sm	Sm	0.57795	0.59689	0.06554	1.796
Mof_P 	P 	0.61362	0.7267	0.7487	0.606
Mof_P 	P 	0.57037	0.9023	0.7495	0.588
Mof_O 	O 	0.6011	0.7391	0.8025	-0.513
Mof_O 	O 	0.6939	0.7697	0.8697	-0.476
Mof_O 	O 	0.6654	0.6568	0.8689	-0.519
Mof_O 	O 	0.5877	0.6916	0.8984	-0.595
Mof_O 	O 	0.6177	0.8089	0.8997	-0.573
Mof_O 	O 	0.5421	0.8764	0.8996	-0.58
Mof_O 	O 	0.6351	0.9094	0.9672	-0.65
Mof_O 	O 	0.5689	0.873	0.8038	-0.528
Mof_O 	O 	0.6609	0.9031	0.8709	-0.504
Mof_O 	O 	0.5875	0.9746	0.8705	-0.51
Mof_O 	O 	0.4582	0.5739	0.7503	-0.404
Mof_O 	O 	0.5917	0.9028	0.6273	-0.524
Mof_O 	O 	0.6242	0.7691	0.6261	-0.562
Mof_O 	O 	0.5213	0.0517	0.8155	-0.49
Mof_O 	O 	0.5539	0.9705	0.7492	-0.341
Mof_O 	O 	0.6736	0.9754	0.6306	-0.637
Mof_O 	O 	0.489	0.5726	0.8711	-0.519
Mof_O 	O 	0.6309	0.6594	0.75	-0.388
Mof_O 	O 	0.7179	0.8582	0.8127	-0.468
Mof_O 	O 	0.7239	0.6848	0.8149	-0.482
Mof_O 	O 	0.5167	0.4875	0.8179	-0.513
Mof_O 	O 	0.5195	0.9722	0.6295	-0.48
Mof_O 	O 	0.6973	0.9612	0.7482	-0.486
Mof_O 	O 	0.3943	0.5525	0.8168	-0.511
Mof_O 	O 	0.6958	0.5857	0.7494	-0.491
Mof_O 	O 	0.532	0.8046	0.6004	-0.593
Mof_O 	O 	0.4201	0.5723	0.6289	-0.509
Mof_O 	O 	0.5741	0.0796	0.7483	-0.514
Mof_O 	O 	0.4245	0.4696	0.7508	-0.544
Mof_O 	O 	0.7429	0.7749	0.746	-0.501
Mof_O 	O 	0.6872	0.688	0.6805	-0.497
Mof_O 	O 	0.6396	0.5497	0.8144	-0.495
Mof_O 	O 	0.5563	0.7231	0.531	-0.742
Mof_O 	O 	0.564	0.61	0.9673	-0.653
Mof_O 	O 	0.6067	0.0063	0.6819	-0.51
Mof_O 	O 	0.4844	0.6544	0.696	-0.553
Mof_O 	O 	0.5968	0.655	0.6277	-0.511
Mof_O 	O 	0.6486	0.0072	0.8164	-0.476
Mof_O 	O 	0.4969	0.6906	0.9007	-0.6
Mof_O 	O 	0.6241	0.9031	0.7475	-0.378
Mof_O 	O 	0.5372	0.8692	0.6957	-0.514
Mof_O 	O 	0.4489	0.4552	0.8676	-0.697
Mof_O 	O 	0.7208	0.7792	0.628	-0.636
Mof_O 	O 	0.5647	0.4974	0.0279	-0.536
Mof_O 	O 	0.7369	0.5747	0.8666	-0.632
Mof_O 	O 	0.6805	0.862	0.682	-0.505
Mof_O 	O 	0.5075	0.427	0.9812	-0.52
Mof_O 	O 	0.6567	0.7664	0.7471	-0.388
Mof_O 	O 	0.5688	0.737	0.6946	-0.551
Mof_O 	O 	0.5357	0.6881	0.0515	-0.685
Mof_C 	C 	0.523	0.4752	0.003	0.344
Mof_K 	K 	0.73489	0.7819	0.5302	0.626
Mof_K 	K 	0.5445	0.7158	0.4246	1.784
Mof_Na	Na	0.5162	0.775	0.8081	1.762
Mof_W 	W 	0.80705	0.43145	0.68025	0.956
Mof_W 	W 	0.81473	0.10847	0.6801	1.357
Mof_W 	W 	0.90845	0.53748	0.67974	0.918
Mof_W 	W 	0.97642	0.38877	0.89647	1.024
Mof_W 	W 	0.93827	0.22763	0.89732	1.442
Mof_W 	W 	0.76903	0.26711	0.68193	0.941
Mof_W 	W 	0.03916	0.53827	0.67829	0.937
Mof_W 	W 	0.95712	0.13097	0.60501	1.447
Mof_W 	W 	0.85462	0.23312	0.60476	1.021
Mof_W 	W 	0.89517	0.3933	0.60486	1.351
Mof_W 	W 	0.81223	0.2812	0.82473	1.33
Mof_W 	W 	0.04924	0.01546	0.67803	1.374
Mof_W 	W 	0.85334	0.44442	0.82276	1.336
Mof_W 	W 	0.07942	0.00681	0.82039	0.952
Mof_W 	W 	0.84562	0.11748	0.82288	0.987
Mof_Sm	Sm	0.81515	0.55122	0.93628	1.293
Mof_Sm	Sm	0.92205	0.09689	0.43446	1.803
Mof_P 	P 	0.88638	0.2267	0.7513	0.606
Mof_P 	P 	0.92963	0.4023	0.7505	0.588
Mof_O 	O 	0.8989	0.2391	0.6975	-0.516
Mof_O 	O 	0.8061	0.2697	0.6303	-0.476
Mof_O 	O 	0.8346	0.1568	0.6311	-0.52
Mof_O 	O 	0.9123	0.1916	0.6016	-0.598
Mof_O 	O 	0.8823	0.3089	0.6003	-0.574
Mof_O 	O 	0.9579	0.3764	0.6004	-0.576
Mof_O 	O 	0.8649	0.4094	0.5328	-0.651
Mof_O 	O 	0.9311	0.373	0.6962	-0.53
Mof_O 	O 	0.8391	0.4031	0.6291	-0.504
Mof_O 	O 	0.9125	0.4746	0.6295	-0.511
Mof_O 	O 	0.0418	0.0739	0.7497	-0.403
Mof_O 	O 	0.9083	0.4028	0.8727	-0.525
Mof_O 	O 	0.8758	0.2691	0.8739	-0.562
Mof_O 	O 	0.9787	0.5517	0.6845	-0.484
Mof_O 	O 	0.9461	0.4705	0.7508	-0.341
Mof_O 	O 	0.8264	0.4754	0.8694	-0.636
Mof_O 	O 	0.011	0.0726	0.6289	-0.524
Mof_O 	O 	0.8691	0.1594	0.75	-0.388
Mof_O 	O 	0.7821	0.3582	0.6873	-0.468
Mof_O 	O 	0.7761	0.1848	0.6851	-0.482
Mof_O 	O 	0.9833	0.9875	0.6821	-0.507
Mof_O 	O 	0.9805	0.4722	0.8705	-0.479
Mof_O 	O 	0.8027	0.4612	0.7518	-0.486
Mof_O 	O 	0.1057	0.0525	0.6832	-0.51
Mof_O 	O 	0.8042	0.0857	0.7506	-0.491
Mof_O 	O 	0.968	0.3046	0.8996	-0.59
Mof_O 	O 	0.0799	0.0723	0.8711	-0.508
Mof_O 	O 	0.9259	0.5796	0.7517	-0.514
Mof_O 	O 	0.0755	0.9696	0.7492	-0.542
Mof_O 	O 	0.7571	0.2749	0.754	-0.501
Mof_O 	O 	0.8128	0.188	0.8195	-0.497
Mof_O 	O 	0.8604	0.0497	0.6856	-0.495
Mof_O 	O 	0.9437	0.2231	0.969	-0.744
Mof_O 	O 	0.936	0.11	0.5327	-0.654
Mof_O 	O 	0.8933	0.5063	0.8181	-0.51
Mof_O 	O 	0.0156	0.1544	0.804	-0.551
Mof_O 	O 	0.9032	0.155	0.8723	-0.512
Mof_O 	O 	0.8514	0.5072	0.6836	-0.475
Mof_O 	O 	0.0031	0.1906	0.5993	-0.608
Mof_O 	O 	0.8759	0.4031	0.7525	-0.379
Mof_O 	O 	0.9628	0.3692	0.8043	-0.509
Mof_O 	O 	0.0511	0.9552	0.6324	-0.698
Mof_O 	O 	0.7792	0.2792	0.872	-0.634
Mof_O 	O 	0.9353	0.9974	0.4721	-0.538
Mof_O 	O 	0.7631	0.0747	0.6334	-0.633
Mof_O 	O 	0.8195	0.362	0.818	-0.505
Mof_O 	O 	0.9925	0.927	0.5188	-0.517
Mof_O 	O 	0.8433	0.2664	0.7529	-0.388
Mof_O 	O 	0.9312	0.237	0.8054	-0.546
Mof_O 	O 	0.9643	0.1881	0.4485	-0.68
Mof_C 	C 	0.977	0.9752	0.497	0.349
Mof_K 	K 	0.76511	0.2819	0.9698	0.6
Mof_K 	K 	0.9555	0.2158	0.0754	1.807
Mof_Na	Na	0.9838	0.275	0.6919	1.812
Mof_W 	W 	0.30705	0.93145	0.68025	0.957
Mof_W 	W 	0.31473	0.60847	0.6801	1.357
Mof_W 	W 	0.40845	0.03748	0.67974	0.916
Mof_W 	W 	0.47642	0.88877	0.89647	1.016
Mof_W 	W 	0.43827	0.72763	0.89732	1.441
Mof_W 	W 	0.26903	0.76711	0.68193	0.941
Mof_W 	W 	0.53916	0.03827	0.67829	0.944
Mof_W 	W 	0.45712	0.63097	0.60501	1.437
Mof_W 	W 	0.35462	0.73312	0.60476	1.021
Mof_W 	W 	0.39517	0.8933	0.60486	1.352
Mof_W 	W 	0.31223	0.7812	0.82473	1.332
Mof_W 	W 	0.54924	0.51546	0.67803	1.382
Mof_W 	W 	0.35334	0.94442	0.82276	1.337
Mof_W 	W 	0.57942	0.50681	0.82039	0.958
Mof_W 	W 	0.34562	0.61748	0.82288	0.988
Mof_Sm	Sm	0.31515	0.05122	0.93628	1.282
Mof_Sm	Sm	0.42205	0.59689	0.43446	1.796
Mof_P 	P 	0.38638	0.7267	0.7513	0.606
Mof_P 	P 	0.42963	0.9023	0.7505	0.588
Mof_O 	O 	0.3989	0.7391	0.6975	-0.513
Mof_O 	O 	0.3061	0.7697	0.6303	-0.476
Mof_O 	O 	0.3346	0.6568	0.6311	-0.52
Mof_O 	O 	0.4123	0.6916	0.6016	-0.595
Mof_O 	O 	0.3823	0.8089	0.6003	-0.573
Mof_O 	O 	0.4579	0.8764	0.6004	-0.58
Mof_O 	O 	0.3649	0.9094	0.5328	-0.652
Mof_O 	O 	0.4311	0.873	0.6962	-0.528
Mof_O 	O 	0.3391	0.9031	0.6291	-0.504
Mof_O 	O 	0.4125	0.9746	0.6295	-0.511
Mof_O 	O 	0.5418	0.5739	0.7497	-0.404
Mof_O 	O 	0.4083	0.9028	0.8727	-0.523
Mof_O 	O 	0.3758	0.7691	0.8739	-0.562
Mof_O 	O 	0.4787	0.0517	0.6845	-0.49
Mof_O 	O 	0.4461	0.9705	0.7508	-0.341
Mof_O 	O 	0.3264	0.9754	0.8694	-0.635
Mof_O 	O 	0.511	0.5726	0.6289	-0.519
Mof_O 	O 	0.3691	0.6594	0.75	-0.388
Mof_O 	O 	0.2821	0.8582	0.6873	-0.468
Mof_O 	O 	0.2761	0.6848	0.6851	-0.482
Mof_O 	O 	0.4833	0.4875	0.6821	-0.513
Mof_O 	O 	0.4805	0.9722	0.8705	-0.479
Mof_O 	O 	0.3027	0.9612	0.7518	-0.486
Mof_O 	O 	0.6057	0.5525	0.6832	-0.511
Mof_O 	O 	0.3042	0.5857	0.7506	-0.491
Mof_O 	O 	0.468	0.8046	0.8996	-0.592
Mof_O 	O 	0.5799	0.5723	0.8711	-0.509
Mof_O 	O 	0.4259	0.0796	0.7517	-0.514
Mof_O 	O 	0.5755	0.4696	0.7492	-0.544
Mof_O 	O 	0.2571	0.7749	0.754	-0.502
Mof_O 	O 	0.3128	0.688	0.8195	-0.498
Mof_O 	O 	0.3604	0.5497	0.6856	-0.495
Mof_O 	O 	0.4437	0.7231	0.969	-0.741
Mof_O 	O 	0.436	0.61	0.5327	-0.654
Mof_O 	O 	0.3933	0.0063	0.8181	-0.511
Mof_O 	O 	0.5156	0.6544	0.804	-0.553
Mof_O 	O 	0.4032	0.655	0.8723	-0.511
Mof_O 	O 	0.3514	0.0072	0.6836	-0.476
Mof_O 	O 	0.5031	0.6906	0.5993	-0.6
Mof_O 	O 	0.3759	0.9031	0.7525	-0.378
Mof_O 	O 	0.4628	0.8692	0.8043	-0.514
Mof_O 	O 	0.5511	0.4552	0.6324	-0.697
Mof_O 	O 	0.2792	0.7792	0.872	-0.639
Mof_O 	O 	0.4353	0.4974	0.4721	-0.536
Mof_O 	O 	0.2631	0.5747	0.6334	-0.632
Mof_O 	O 	0.3195	0.862	0.818	-0.505
Mof_O 	O 	0.4925	0.427	0.5188	-0.52
Mof_O 	O 	0.3433	0.7664	0.7529	-0.388
Mof_O 	O 	0.4312	0.737	0.8054	-0.551
Mof_O 	O 	0.4643	0.6881	0.4485	-0.685
Mof_C 	C 	0.477	0.4752	0.497	0.343
Mof_K 	K 	0.26511	0.7819	0.9698	0.646
Mof_K 	K 	0.4555	0.7158	0.0754	1.781
Mof_Na	Na	0.4838	0.775	0.6919	1.762
Mof_P 	P 	1.05076e-33	0.8836	0.25	0.627
Mof_P 	P 	0.5	0.3836	0.25	0.638
Mof_P 	P 	3.04653e-17	0.1164	0.75	0.627
Mof_P 	P 	0.5	0.6164	0.75	0.638
_end
