data_functionalizedCrystal
_audit_creation_method	'EQeq! by Chris Wilmer'
_symmetry_space_group_name_H-M	'P1'
_symmetry_Int_Tables_number	1
_symmetry_cell_setting	triclinic
loop_
_symmetry_equiv_pos_as_xyz
  x,y,z
_cell_length_a	16.3261
_cell_length_b	16.3261
_cell_length_c	6.5495
_cell_angle_alpha	90
_cell_angle_beta	90
_cell_angle_gamma	90
loop_
_atom_site_label
_atom_site_type_symbol
_atom_site_fract_x
_atom_site_fract_y
_atom_site_fract_z
_atom_site_charge
Mof_N 	N 	0.9642	0.1817	0.2107	-0.255
Mof_H 	H 	0.8832	0.3054	0.5438	0.339
Mof_H 	H 	0.9232	0.2217	0.6056	0.355
Mof_H 	H 	0.8416	0.2228	0.4794	0.317
Mof_C 	C 	0.0048	0.2076	0.0395	-0.023
Mof_C 	C 	0.0362	0.1474	0.8912	0.267
Mof_O 	O 	0.01763	0.07389	0.923	-0.28
Mof_O 	O 	0.0768	0.171	0.7386	-0.205
Mof_N 	N 	0.5358	0.3183	0.2107	-0.251
Mof_H 	H 	0.6168	0.1946	0.5438	0.341
Mof_H 	H 	0.5768	0.2783	0.6056	0.357
Mof_H 	H 	0.6584	0.2772	0.4794	0.318
Mof_C 	C 	0.4952	0.2924	0.0395	-0.029
Mof_C 	C 	0.4638	0.3526	0.8912	0.27
Mof_O 	O 	0.48237	0.42611	0.923	-0.285
Mof_O 	O 	0.4232	0.329	0.7386	-0.207
Mof_N 	N 	0.3183	0.9642	0.7107	-0.238
Mof_H 	H 	0.1946	0.8832	0.0438	0.297
Mof_H 	H 	0.2783	0.9232	0.1056	0.306
Mof_H 	H 	0.2772	0.8416	0.9794	0.263
Mof_C 	C 	0.2924	0.0048	0.5395	-0.024
Mof_C 	C 	0.3526	0.0362	0.3912	0.269
Mof_O 	O 	0.42611	0.01763	0.423	-0.285
Mof_O 	O 	0.329	0.0768	0.2386	-0.204
Mof_N 	N 	0.1817	0.5358	0.7107	-0.24
Mof_H 	H 	0.3054	0.6168	0.0438	0.306
Mof_H 	H 	0.2217	0.5768	0.1056	0.317
Mof_H 	H 	0.2228	0.6584	0.9794	0.274
Mof_C 	C 	0.2076	0.4952	0.5395	-0.026
Mof_C 	C 	0.1474	0.4638	0.3912	0.269
Mof_O 	O 	0.07389	0.48237	0.423	-0.285
Mof_O 	O 	0.171	0.4232	0.2386	-0.204
Mof_N 	N 	0.0358	0.6817	0.7893	-0.254
Mof_H 	H 	0.1168	0.8054	0.4562	0.34
Mof_H 	H 	0.0768	0.7217	0.3944	0.356
Mof_H 	H 	0.1584	0.7228	0.5206	0.317
Mof_C 	C 	0.9952	0.7076	0.9605	-0.023
Mof_C 	C 	0.9638	0.6474	0.1088	0.266
Mof_O 	O 	0.98237	0.57389	0.077	-0.285
Mof_O 	O 	0.9232	0.671	0.2614	-0.206
Mof_N 	N 	0.4642	0.8183	0.7893	-0.251
Mof_H 	H 	0.3832	0.6946	0.4562	0.341
Mof_H 	H 	0.4232	0.7783	0.3944	0.357
Mof_H 	H 	0.3416	0.7772	0.5206	0.318
Mof_C 	C 	0.5048	0.7924	0.9605	-0.03
Mof_C 	C 	0.5362	0.8526	0.1088	0.271
Mof_O 	O 	0.51763	0.92611	0.077	-0.283
Mof_O 	O 	0.5768	0.829	0.2614	-0.207
Mof_N 	N 	0.6817	0.4642	0.2893	-0.24
Mof_H 	H 	0.8054	0.3832	0.9562	0.307
Mof_H 	H 	0.7217	0.4232	0.8944	0.317
Mof_H 	H 	0.7228	0.3416	0.0206	0.275
Mof_C 	C 	0.7076	0.5048	0.4605	-0.026
Mof_C 	C 	0.6474	0.5362	0.6088	0.269
Mof_O 	O 	0.57389	0.51763	0.577	-0.286
Mof_O 	O 	0.671	0.5768	0.7614	-0.204
Mof_N 	N 	0.8183	0.0358	0.2893	-0.239
Mof_H 	H 	0.6946	0.1168	0.9562	0.297
Mof_H 	H 	0.7783	0.0768	0.8944	0.306
Mof_H 	H 	0.7772	0.1584	0.0206	0.262
Mof_C 	C 	0.7924	0.9952	0.4605	-0.021
Mof_C 	C 	0.8526	0.9638	0.6088	0.268
Mof_O 	O 	0.92611	0.98237	0.577	-0.281
Mof_O 	O 	0.829	0.9232	0.7614	-0.203
Mof_N 	N 	0.0358	0.8183	0.7893	-0.254
Mof_H 	H 	0.1168	0.6946	0.4562	0.34
Mof_H 	H 	0.0768	0.7783	0.3944	0.356
Mof_H 	H 	0.1584	0.7772	0.5206	0.318
Mof_C 	C 	0.9952	0.7924	0.9605	-0.023
Mof_C 	C 	0.9638	0.8526	0.1088	0.267
Mof_O 	O 	0.98237	0.92611	0.077	-0.28
Mof_O 	O 	0.9232	0.829	0.2614	-0.205
Mof_N 	N 	0.4642	0.6817	0.7893	-0.251
Mof_H 	H 	0.3832	0.8054	0.4562	0.341
Mof_H 	H 	0.4232	0.7217	0.3944	0.357
Mof_H 	H 	0.3416	0.7228	0.5206	0.318
Mof_C 	C 	0.5048	0.7076	0.9605	-0.029
Mof_C 	C 	0.5362	0.6474	0.1088	0.27
Mof_O 	O 	0.51763	0.57389	0.077	-0.285
Mof_O 	O 	0.5768	0.671	0.2614	-0.207
Mof_N 	N 	0.6817	0.0358	0.2893	-0.238
Mof_H 	H 	0.8054	0.1168	0.9562	0.297
Mof_H 	H 	0.7217	0.0768	0.8944	0.306
Mof_H 	H 	0.7228	0.1584	0.0206	0.263
Mof_C 	C 	0.7076	0.9952	0.4605	-0.024
Mof_C 	C 	0.6474	0.9638	0.6088	0.269
Mof_O 	O 	0.57389	0.98237	0.577	-0.285
Mof_O 	O 	0.671	0.9232	0.7614	-0.204
Mof_N 	N 	0.8183	0.4642	0.2893	-0.24
Mof_H 	H 	0.6946	0.3832	0.9562	0.306
Mof_H 	H 	0.7783	0.4232	0.8944	0.317
Mof_H 	H 	0.7772	0.3416	0.0206	0.274
Mof_C 	C 	0.7924	0.5048	0.4605	-0.026
Mof_C 	C 	0.8526	0.5362	0.6088	0.269
Mof_O 	O 	0.92611	0.51763	0.577	-0.285
Mof_O 	O 	0.829	0.5768	0.7614	-0.204
Mof_N 	N 	0.9642	0.3183	0.2107	-0.254
Mof_H 	H 	0.8832	0.1946	0.5438	0.34
Mof_H 	H 	0.9232	0.2783	0.6056	0.356
Mof_H 	H 	0.8416	0.2772	0.4794	0.317
Mof_C 	C 	0.0048	0.2924	0.0395	-0.023
Mof_C 	C 	0.0362	0.3526	0.8912	0.266
Mof_O 	O 	0.01763	0.42611	0.923	-0.285
Mof_O 	O 	0.0768	0.329	0.7386	-0.206
Mof_N 	N 	0.5358	0.1817	0.2107	-0.251
Mof_H 	H 	0.6168	0.3054	0.5438	0.341
Mof_H 	H 	0.5768	0.2217	0.6056	0.357
Mof_H 	H 	0.6584	0.2228	0.4794	0.318
Mof_C 	C 	0.4952	0.2076	0.0395	-0.03
Mof_C 	C 	0.4638	0.1474	0.8912	0.271
Mof_O 	O 	0.48237	0.07389	0.923	-0.283
Mof_O 	O 	0.4232	0.171	0.7386	-0.207
Mof_N 	N 	0.3183	0.5358	0.7107	-0.24
Mof_H 	H 	0.1946	0.6168	0.0438	0.307
Mof_H 	H 	0.2783	0.5768	0.1056	0.317
Mof_H 	H 	0.2772	0.6584	0.9794	0.275
Mof_C 	C 	0.2924	0.4952	0.5395	-0.026
Mof_C 	C 	0.3526	0.4638	0.3912	0.269
Mof_O 	O 	0.42611	0.48237	0.423	-0.286
Mof_O 	O 	0.329	0.4232	0.2386	-0.204
Mof_N 	N 	0.1817	0.9642	0.7107	-0.239
Mof_H 	H 	0.3054	0.8832	0.0438	0.297
Mof_H 	H 	0.2217	0.9232	0.1056	0.306
Mof_H 	H 	0.2228	0.8416	0.9794	0.262
Mof_C 	C 	0.2076	0.0048	0.5395	-0.021
Mof_C 	C 	0.1474	0.0362	0.3912	0.268
Mof_O 	O 	0.07389	0.01763	0.423	-0.281
Mof_O 	O 	0.171	0.0768	0.2386	-0.203
Mof_Cd	Cd	0.9554	0.0446	0.25	0.431
Mof_Cd	Cd	0.5446	0.4554	0.25	0.44
Mof_Cd	Cd	0.4554	0.9554	0.75	0.438
Mof_Cd	Cd	0.0446	0.5446	0.75	0.438
Mof_Cd	Cd	0.0446	0.9554	0.75	0.431
Mof_Cd	Cd	0.4554	0.5446	0.75	0.44
Mof_Cd	Cd	0.5446	0.0446	0.25	0.438
Mof_Cd	Cd	0.9554	0.4554	0.25	0.438
Mof_C 	C 	0.9409	0.25	0.3087	0.603
Mof_C 	C 	0.893	0.25	0.5014	-2.045
Mof_C 	C 	0.5591	0.25	0.3087	0.605
Mof_C 	C 	0.607	0.25	0.5014	-2.05
Mof_C 	C 	0.25	0.9409	0.8087	0.523
Mof_C 	C 	0.25	0.893	0.0014	-1.757
Mof_C 	C 	0.25	0.5591	0.8087	0.542
Mof_C 	C 	0.25	0.607	0.0014	-1.822
Mof_C 	C 	0.0591	0.75	0.6913	0.603
Mof_C 	C 	0.107	0.75	0.4986	-2.045
Mof_C 	C 	0.4409	0.75	0.6913	0.605
Mof_C 	C 	0.393	0.75	0.4986	-2.05
Mof_C 	C 	0.75	0.4409	0.1913	0.542
Mof_C 	C 	0.75	0.393	0.9986	-1.822
Mof_C 	C 	0.75	0.0591	0.1913	0.523
Mof_C 	C 	0.75	0.107	0.9986	-1.757
_end
