data_functionalizedCrystal
_audit_creation_method	'EQeq! by Chris Wilmer'
_symmetry_space_group_name_H-M	'P1'
_symmetry_Int_Tables_number	1
_symmetry_cell_setting	triclinic
loop_
_symmetry_equiv_pos_as_xyz
  x,y,z
_cell_length_a	15.6702
_cell_length_b	15.6702
_cell_length_c	15.6702
_cell_angle_alpha	90
_cell_angle_beta	90
_cell_angle_gamma	90
loop_
_atom_site_label
_atom_site_type_symbol
_atom_site_fract_x
_atom_site_fract_y
_atom_site_fract_z
_atom_site_charge
Mof_N 	N 	0.4122	0.821	0.1945	-0.243
Mof_C 	C 	0.3915	0.902	0.2176	0.077
Mof_N 	N 	0.0878	0.679	0.1945	-0.25
Mof_C 	C 	0.1085	0.598	0.2176	0.038
Mof_N 	N 	0.0878	0.821	0.3055	-0.249
Mof_C 	C 	0.1085	0.902	0.2824	0.051
Mof_N 	N 	0.4122	0.679	0.3055	-0.241
Mof_C 	C 	0.3915	0.598	0.2824	0.062
Mof_N 	N 	0.1945	0.4122	0.821	-0.243
Mof_C 	C 	0.2176	0.3915	0.902	0.077
Mof_N 	N 	0.1945	0.0878	0.679	-0.25
Mof_C 	C 	0.2176	0.1085	0.598	0.038
Mof_N 	N 	0.3055	0.0878	0.821	-0.249
Mof_C 	C 	0.2824	0.1085	0.902	0.051
Mof_N 	N 	0.3055	0.4122	0.679	-0.241
Mof_C 	C 	0.2824	0.3915	0.598	0.062
Mof_N 	N 	0.821	0.1945	0.4122	-0.243
Mof_C 	C 	0.902	0.2176	0.3915	0.077
Mof_N 	N 	0.679	0.1945	0.0878	-0.25
Mof_C 	C 	0.598	0.2176	0.1085	0.038
Mof_N 	N 	0.821	0.3055	0.0878	-0.249
Mof_C 	C 	0.902	0.2824	0.1085	0.051
Mof_N 	N 	0.679	0.3055	0.4122	-0.241
Mof_C 	C 	0.598	0.2824	0.3915	0.062
Mof_N 	N 	0.321	0.9122	0.8055	-0.225
Mof_C 	C 	0.402	0.8915	0.7824	0.098
Mof_N 	N 	0.179	0.5878	0.8055	-0.241
Mof_C 	C 	0.098	0.6085	0.7824	0.058
Mof_N 	N 	0.321	0.5878	0.6945	-0.243
Mof_C 	C 	0.402	0.6085	0.7176	0.072
Mof_N 	N 	0.179	0.9122	0.6945	-0.226
Mof_C 	C 	0.098	0.8915	0.7176	0.086
Mof_N 	N 	0.9122	0.6945	0.179	-0.226
Mof_C 	C 	0.8915	0.7176	0.098	0.086
Mof_N 	N 	0.5878	0.6945	0.321	-0.243
Mof_C 	C 	0.6085	0.7176	0.402	0.072
Mof_N 	N 	0.5878	0.8055	0.179	-0.241
Mof_C 	C 	0.6085	0.7824	0.098	0.058
Mof_N 	N 	0.9122	0.8055	0.321	-0.225
Mof_C 	C 	0.8915	0.7824	0.402	0.098
Mof_N 	N 	0.6945	0.321	0.5878	-0.243
Mof_C 	C 	0.7176	0.402	0.6085	0.072
Mof_N 	N 	0.6945	0.179	0.9122	-0.226
Mof_C 	C 	0.7176	0.098	0.8915	0.086
Mof_N 	N 	0.8055	0.321	0.9122	-0.225
Mof_C 	C 	0.7824	0.402	0.8915	0.098
Mof_N 	N 	0.8055	0.179	0.5878	-0.241
Mof_C 	C 	0.7824	0.098	0.6085	0.058
Mof_N 	N 	0.5878	0.179	0.8055	-0.241
Mof_C 	C 	0.6085	0.098	0.7824	0.058
Mof_N 	N 	0.9122	0.321	0.8055	-0.225
Mof_C 	C 	0.8915	0.402	0.7824	0.098
Mof_N 	N 	0.9122	0.179	0.6945	-0.226
Mof_C 	C 	0.8915	0.098	0.7176	0.086
Mof_N 	N 	0.5878	0.321	0.6945	-0.243
Mof_C 	C 	0.6085	0.402	0.7176	0.072
Mof_N 	N 	0.8055	0.5878	0.179	-0.241
Mof_C 	C 	0.7824	0.6085	0.098	0.058
Mof_N 	N 	0.8055	0.9122	0.321	-0.225
Mof_C 	C 	0.7824	0.8915	0.402	0.098
Mof_N 	N 	0.6945	0.9122	0.179	-0.226
Mof_C 	C 	0.7176	0.8915	0.098	0.086
Mof_N 	N 	0.6945	0.5878	0.321	-0.243
Mof_C 	C 	0.7176	0.6085	0.402	0.072
Mof_N 	N 	0.179	0.8055	0.5878	-0.241
Mof_C 	C 	0.098	0.7824	0.6085	0.058
Mof_N 	N 	0.321	0.8055	0.9122	-0.225
Mof_C 	C 	0.402	0.7824	0.8915	0.098
Mof_N 	N 	0.179	0.6945	0.9122	-0.226
Mof_C 	C 	0.098	0.7176	0.8915	0.086
Mof_N 	N 	0.321	0.6945	0.5878	-0.243
Mof_C 	C 	0.402	0.7176	0.6085	0.072
Mof_N 	N 	0.679	0.0878	0.1945	-0.25
Mof_C 	C 	0.598	0.1085	0.2176	0.038
Mof_N 	N 	0.821	0.4122	0.1945	-0.243
Mof_C 	C 	0.902	0.3915	0.2176	0.077
Mof_N 	N 	0.679	0.4122	0.3055	-0.241
Mof_C 	C 	0.598	0.3915	0.2824	0.062
Mof_N 	N 	0.821	0.0878	0.3055	-0.249
Mof_C 	C 	0.902	0.1085	0.2824	0.051
Mof_N 	N 	0.0878	0.3055	0.821	-0.249
Mof_C 	C 	0.1085	0.2824	0.902	0.051
Mof_N 	N 	0.4122	0.3055	0.679	-0.241
Mof_C 	C 	0.3915	0.2824	0.598	0.062
Mof_N 	N 	0.4122	0.1945	0.821	-0.243
Mof_C 	C 	0.3915	0.2176	0.902	0.077
Mof_N 	N 	0.0878	0.1945	0.679	-0.25
Mof_C 	C 	0.1085	0.2176	0.598	0.038
Mof_N 	N 	0.3055	0.679	0.4122	-0.241
Mof_C 	C 	0.2824	0.598	0.3915	0.062
Mof_N 	N 	0.3055	0.821	0.0878	-0.249
Mof_C 	C 	0.2824	0.902	0.1085	0.051
Mof_N 	N 	0.1945	0.679	0.0878	-0.25
Mof_C 	C 	0.2176	0.598	0.1085	0.038
Mof_N 	N 	0.1945	0.821	0.4122	-0.243
Mof_C 	C 	0.2176	0.902	0.3915	0.077
Mof_Cu	Cu	0.5	0.75	0.25	0.895
Mof_Cu	Cu	7.4977e-33	0.75	0.25	0.86
Mof_Cu	Cu	0.25	0.5	0.75	0.895
Mof_Cu	Cu	0.25	0	0.75	0.86
Mof_Cu	Cu	0.75	0.25	0.5	0.895
Mof_Cu	Cu	0.75	0.25	-0	0.86
Mof_Cu	Cu	0.5	0.25	0.75	0.895
Mof_Cu	Cu	2.81205e-33	0.25	0.75	0.86
Mof_Cu	Cu	0.75	0.5	0.25	0.895
Mof_Cu	Cu	0.75	0	0.25	0.86
Mof_Cu	Cu	0.25	0.75	0.5	0.895
Mof_Cu	Cu	0.25	0.75	-0	0.86
Mof_C 	C 	0.3739	0.7783	0.1261	0.243
Mof_C 	C 	0.327	0.9471	0.173	-0.028
Mof_O 	O 	0.3952	0.7079	0.1048	-0.32
Mof_C 	C 	0.1261	0.7217	0.1261	0.234
Mof_C 	C 	0.173	0.5529	0.173	-0.058
Mof_O 	O 	0.1048	0.7921	0.1048	-0.33
Mof_C 	C 	0.1261	0.7783	0.3739	0.243
Mof_C 	C 	0.173	0.9471	0.327	-0.028
Mof_O 	O 	0.1048	0.7079	0.3952	-0.32
Mof_C 	C 	0.3739	0.7217	0.3739	0.243
Mof_C 	C 	0.327	0.5529	0.327	-0.048
Mof_O 	O 	0.3952	0.7921	0.3952	-0.295
Mof_C 	C 	0.1261	0.3739	0.7783	0.243
Mof_C 	C 	0.173	0.327	0.9471	-0.028
Mof_O 	O 	0.1048	0.3952	0.7079	-0.32
Mof_C 	C 	0.1261	0.1261	0.7217	0.234
Mof_C 	C 	0.173	0.173	0.5529	-0.058
Mof_O 	O 	0.1048	0.1048	0.7921	-0.33
Mof_C 	C 	0.3739	0.1261	0.7783	0.243
Mof_C 	C 	0.327	0.173	0.9471	-0.028
Mof_O 	O 	0.3952	0.1048	0.7079	-0.32
Mof_C 	C 	0.3739	0.3739	0.7217	0.243
Mof_C 	C 	0.327	0.327	0.5529	-0.048
Mof_O 	O 	0.3952	0.3952	0.7921	-0.295
Mof_C 	C 	0.7783	0.1261	0.3739	0.243
Mof_C 	C 	0.9471	0.173	0.327	-0.028
Mof_O 	O 	0.7079	0.1048	0.3952	-0.32
Mof_C 	C 	0.7217	0.1261	0.1261	0.234
Mof_C 	C 	0.5529	0.173	0.173	-0.058
Mof_O 	O 	0.7921	0.1048	0.1048	-0.33
Mof_C 	C 	0.7783	0.3739	0.1261	0.243
Mof_C 	C 	0.9471	0.327	0.173	-0.028
Mof_O 	O 	0.7079	0.3952	0.1048	-0.32
Mof_C 	C 	0.7217	0.3739	0.3739	0.243
Mof_C 	C 	0.5529	0.327	0.327	-0.048
Mof_O 	O 	0.7921	0.3952	0.3952	-0.295
Mof_C 	C 	0.2783	0.8739	0.8739	0.257
Mof_C 	C 	0.4471	0.827	0.827	-0.021
Mof_O 	O 	0.2079	0.8952	0.8952	-0.267
Mof_C 	C 	0.2217	0.6261	0.8739	0.247
Mof_C 	C 	0.0529	0.673	0.827	-0.05
Mof_O 	O 	0.2921	0.6048	0.8952	-0.281
Mof_C 	C 	0.2783	0.6261	0.6261	0.246
Mof_C 	C 	0.4471	0.673	0.673	-0.03
Mof_O 	O 	0.2079	0.6048	0.6048	-0.311
Mof_C 	C 	0.2217	0.8739	0.6261	0.247
Mof_C 	C 	0.0529	0.827	0.673	-0.05
Mof_O 	O 	0.2921	0.8952	0.6048	-0.281
Mof_C 	C 	0.8739	0.6261	0.2217	0.247
Mof_C 	C 	0.827	0.673	0.0529	-0.05
Mof_O 	O 	0.8952	0.6048	0.2921	-0.281
Mof_C 	C 	0.6261	0.6261	0.2783	0.246
Mof_C 	C 	0.673	0.673	0.4471	-0.03
Mof_O 	O 	0.6048	0.6048	0.2079	-0.311
Mof_C 	C 	0.6261	0.8739	0.2217	0.247
Mof_C 	C 	0.673	0.827	0.0529	-0.05
Mof_O 	O 	0.6048	0.8952	0.2921	-0.281
Mof_C 	C 	0.8739	0.8739	0.2783	0.257
Mof_C 	C 	0.827	0.827	0.4471	-0.021
Mof_O 	O 	0.8952	0.8952	0.2079	-0.267
Mof_C 	C 	0.6261	0.2783	0.6261	0.246
Mof_C 	C 	0.673	0.4471	0.673	-0.03
Mof_O 	O 	0.6048	0.2079	0.6048	-0.311
Mof_C 	C 	0.6261	0.2217	0.8739	0.247
Mof_C 	C 	0.673	0.0529	0.827	-0.05
Mof_O 	O 	0.6048	0.2921	0.8952	-0.281
Mof_C 	C 	0.8739	0.2783	0.8739	0.257
Mof_C 	C 	0.827	0.4471	0.827	-0.021
Mof_O 	O 	0.8952	0.2079	0.8952	-0.267
Mof_C 	C 	0.8739	0.2217	0.6261	0.247
Mof_C 	C 	0.827	0.0529	0.673	-0.05
Mof_O 	O 	0.8952	0.2921	0.6048	-0.281
_end
