data_functionalizedCrystal
_audit_creation_method	'EQeq! by Chris Wilmer'
_symmetry_space_group_name_H-M	'P1'
_symmetry_Int_Tables_number	1
_symmetry_cell_setting	triclinic
loop_
_symmetry_equiv_pos_as_xyz
  x,y,z
_cell_length_a	13.312
_cell_length_b	7.316
_cell_length_c	14.87
_cell_angle_alpha	90
_cell_angle_beta	91.315
_cell_angle_gamma	90
loop_
_atom_site_label
_atom_site_type_symbol
_atom_site_fract_x
_atom_site_fract_y
_atom_site_fract_z
_atom_site_charge
Mof_Cd	Cd	0.97959	0.18386	0.18541	0.39
Mof_N 	N 	0.1005	0.7956	0.3872	-0.17
Mof_O 	O 	0.529	0.6006	0.5821	-0.323
Mof_C 	C 	0.2176	0.3225	0.3972	-0.102
Mof_H 	H 	0.2088	0.2082	0.3708	0.076
Mof_C 	C 	0.3701	0.1466	0.5756	0.549
Mof_C 	C 	0.1662	0.637	0.4083	0.073
Mof_O 	O 	0.9318	0.4107	0.288	-0.293
Mof_N 	N 	0.0241	0.9967	0.2997	-0.186
Mof_O 	O 	0.6507	0.758	0.643	-0.298
Mof_N 	N 	0.4304	0.0025	0.5696	-0.244
Mof_C 	C 	0.3078	0.5298	0.5031	-0.11
Mof_H 	H 	0.3599	0.55	0.5447	0.077
Mof_N 	N 	0.3521	0.2133	0.4919	-0.225
Mof_C 	C 	0.7218	0.3036	0.4064	-0.048
Mof_H 	H 	0.6861	0.2144	0.3695	0.039
Mof_H 	H 	0.7748	0.2403	0.4396	0.039
Mof_C 	C 	0.8372	0.365	0.2847	0.296
Mof_C 	C 	0.6964	0.5503	0.5253	-0.094
Mof_H 	H 	0.7552	0.5103	0.5609	0.057
Mof_C 	C 	0.2417	0.659	0.4764	-0.051
Mof_H 	H 	0.2458	0.7725	0.5048	0.055
Mof_C 	C 	0.0448	0.884	0.4347	0.015
Mof_H 	H 	0.035	0.8596	0.4953	0.029
Mof_C 	C 	0.1574	0.471	0.3742	-0.077
Mof_H 	H 	0.1066	0.4517	0.3312	0.08
Mof_C 	C 	0.3278	0.2145	0.6503	-1.344
Mof_H 	H 	0.2567	0.1924	0.6477	0.426
Mof_H 	H 	0.3566	0.1555	0.7025	0.427
Mof_H 	H 	0.34	0.3436	0.6539	0.433
Mof_C 	C 	0.2886	0.355	0.4594	0.119
Mof_C 	C 	0.4599	0.977	0.4843	0.026
Mof_H 	H 	0.5066	0.8908	0.4661	0.022
Mof_C 	C 	0.4093	0.1006	0.4274	-0.03
Mof_H 	H 	0.411	0.1098	0.3651	0.039
Mof_C 	C 	0.7686	0.4503	0.3452	-0.15
Mof_H 	H 	0.7135	0.4997	0.3078	0.071
Mof_C 	C 	0.8126	0.6088	0.3965	-0.049
Mof_H 	H 	0.8365	0.701	0.3553	0.03
Mof_H 	H 	0.8689	0.5684	0.4341	0.049
Mof_C 	C 	0.0002	0.018	0.3897	0.028
Mof_H 	H 	0.9604	0.1097	0.4136	0.005
Mof_C 	C 	0.0877	0.862	0.3018	0.274
Mof_C 	C 	0.6144	0.639	0.5892	0.317
Mof_C 	C 	0.132	0.774	0.2155	-0.756
Mof_H 	H 	0.1548	0.8682	0.176	0.26
Mof_H 	H 	0.0816	0.7017	0.1853	0.265
Mof_H 	H 	0.1881	0.6967	0.2324	0.253
Mof_C 	C 	0.6512	0.387	0.4708	-0.1
Mof_H 	H 	0.63	0.2935	0.5126	0.051
Mof_H 	H 	0.5919	0.4287	0.4377	0.067
Mof_O 	O 	0.8129	0.249	0.2273	-0.304
Mof_C 	C 	0.7266	0.6906	0.4569	-0.096
Mof_H 	H 	0.7506	0.8	0.4873	0.054
Mof_H 	H 	0.6689	0.7234	0.4193	0.054
Mof_Cd	Cd	0.47959	0.81614	0.68541	0.414
Mof_N 	N 	0.6005	0.2044	0.8872	-0.174
Mof_O 	O 	0.029	0.3994	0.0821	-0.311
Mof_C 	C 	0.7176	0.6775	0.8972	-0.134
Mof_H 	H 	0.7088	0.7918	0.8708	0.086
Mof_C 	C 	0.8701	0.8534	0.0756	0.527
Mof_C 	C 	0.6662	0.363	0.9083	0.045
Mof_O 	O 	0.4318	0.5893	0.788	-0.282
Mof_N 	N 	0.5241	0.0033	0.7997	-0.185
Mof_O 	O 	0.1507	0.242	0.143	-0.293
Mof_N 	N 	0.9304	0.9975	0.0696	-0.239
Mof_C 	C 	0.8078	0.4702	0.0031	-0.166
Mof_H 	H 	0.8599	0.45	0.0447	0.091
Mof_N 	N 	0.8521	0.7867	0.9919	-0.225
Mof_C 	C 	0.2218	0.6964	0.9064	-0.074
Mof_H 	H 	0.1861	0.7856	0.8695	0.051
Mof_H 	H 	0.2748	0.7597	0.9396	0.05
Mof_C 	C 	0.3372	0.635	0.7847	0.287
Mof_C 	C 	0.1964	0.4497	0.0253	-0.119
Mof_H 	H 	0.2552	0.4897	0.0609	0.064
Mof_C 	C 	0.7417	0.341	0.9764	0.005
Mof_H 	H 	0.7458	0.2275	0.0048	0.029
Mof_C 	C 	0.5448	0.116	0.9347	0.048
Mof_H 	H 	0.535	0.1404	0.9953	0.013
Mof_C 	C 	0.6574	0.529	0.8742	-0.049
Mof_H 	H 	0.6066	0.5483	0.8312	0.064
Mof_C 	C 	0.8278	0.7855	0.1503	-1.306
Mof_H 	H 	0.7567	0.8076	0.1477	0.412
Mof_H 	H 	0.8566	0.8445	0.2025	0.412
Mof_H 	H 	0.84	0.6564	0.1539	0.418
Mof_C 	C 	0.7886	0.645	0.9594	0.148
Mof_C 	C 	0.9599	0.023	0.9843	-0.017
Mof_H 	H 	0.0066	0.1092	0.9661	0.055
Mof_C 	C 	0.9093	0.8994	0.9274	-0.011
Mof_H 	H 	0.911	0.8902	0.8651	0.027
Mof_C 	C 	0.2686	0.5497	0.8452	-0.13
Mof_H 	H 	0.2135	0.5003	0.8078	0.067
Mof_C 	C 	0.3126	0.3912	0.8965	-0.071
Mof_H 	H 	0.3365	0.299	0.8553	0.041
Mof_H 	H 	0.3689	0.4316	0.9341	0.061
Mof_C 	C 	0.5002	0.982	0.8897	-0.038
Mof_H 	H 	0.4604	0.8903	0.9136	0.045
Mof_C 	C 	0.5877	0.138	0.8018	0.268
Mof_C 	C 	0.1144	0.361	0.0892	0.32
Mof_C 	C 	0.632	0.226	0.7155	-0.746
Mof_H 	H 	0.6548	0.1318	0.676	0.254
Mof_H 	H 	0.5816	0.2983	0.6853	0.256
Mof_H 	H 	0.6881	0.3033	0.7324	0.249
Mof_C 	C 	0.1512	0.613	0.9708	-0.064
Mof_H 	H 	0.13	0.7065	0.0126	0.04
Mof_H 	H 	0.0919	0.5713	0.9377	0.062
Mof_O 	O 	0.3129	0.751	0.7273	-0.299
Mof_C 	C 	0.2266	0.3094	0.9569	-0.072
Mof_H 	H 	0.2506	0.2	0.9873	0.051
Mof_H 	H 	0.1689	0.2766	0.9193	0.05
_end
