# CIF file generated by openbabel 3.1.0, see https://openbabel.org
data_I
_chemical_name_common 'image0'
_cell_length_a 17.6956
_cell_length_b 6.8745
_cell_length_c 11.9303
_cell_angle_alpha 90
_cell_angle_beta 90
_cell_angle_gamma 90
_space_group_name_H-M_alt 'P 1'
_space_group_name_Hall 'P 1'
loop_
    _symmetry_equiv_pos_as_xyz
    x,y,z
loop_
    _atom_site_label
    _atom_site_type_symbol
    _atom_site_fract_x
    _atom_site_fract_y
    _atom_site_fract_z
    _atom_site_occupancy
    O1       O        0.07407    0.08640    0.88310    1.000
    O2       O        0.41147    0.08590    0.59100    1.000
    C1       C        0.20680    0.07430    0.76060    1.000
    C2       C        0.27430    0.07430    0.70290    1.000
    O3       O        0.42593    0.91360    0.38310    1.000
    O4       O        0.08853    0.91410    0.09100    1.000
    C3       C        0.29320    0.92570    0.26060    1.000
    C4       C        0.22570    0.92570    0.20290    1.000
    O5       O        0.92593    0.58640    0.11690    1.000
    O6       O        0.58853    0.58590    0.40900    1.000
    C5       C        0.79320    0.57430    0.23940    1.000
    C6       C        0.72570    0.57430    0.29710    1.000
    O7       O        0.57407    0.41360    0.61690    1.000
    O8       O        0.91147    0.41410    0.90900    1.000
    C7       C        0.70680    0.42570    0.73940    1.000
    C8       C        0.77430    0.42570    0.79710    1.000
    O9       O        0.92593    0.91360    0.11690    1.000
    O10      O        0.58853    0.91410    0.40900    1.000
    C9       C        0.79320    0.92570    0.23940    1.000
    C10      C        0.72570    0.92570    0.29710    1.000
    O11      O        0.57407    0.08640    0.61690    1.000
    O12      O        0.91147    0.08590    0.90900    1.000
    C11      C        0.70680    0.07430    0.73940    1.000
    C12      C        0.77430    0.07430    0.79710    1.000
    O13      O        0.07407    0.41360    0.88310    1.000
    O14      O        0.41147    0.41410    0.59100    1.000
    C13      C        0.20680    0.42570    0.76060    1.000
    C14      C        0.27430    0.42570    0.70290    1.000
    O15      O        0.42593    0.58640    0.38310    1.000
    O16      O        0.08853    0.58590    0.09100    1.000
    C15      C        0.29320    0.57430    0.26060    1.000
    C16      C        0.22570    0.57430    0.20290    1.000
    V1       V        0.00000    0.00000    0.00000    1.000
    V2       V        0.50000    0.00000    0.50000    1.000
    V3       V        0.00000    0.50000    0.00000    1.000
    V4       V        0.50000    0.50000    0.50000    1.000
    O17      O        0.00640    0.25000    0.07380    1.000
    C17      C        0.10090    0.25000    0.85710    1.000
    C18      C        0.17260    0.25000    0.78960    1.000
    C19      C        0.30830    0.25000    0.67470    1.000
    C20      C        0.38360    0.25000    0.61360    1.000
    O18      O        0.49360    0.75000    0.57380    1.000
    C21      C        0.39910    0.75000    0.35710    1.000
    C22      C        0.32740    0.75000    0.28960    1.000
    C23      C        0.19170    0.75000    0.17470    1.000
    C24      C        0.11640    0.75000    0.11360    1.000
    O19      O        0.99360    0.75000    0.92620    1.000
    C25      C        0.89910    0.75000    0.14290    1.000
    C26      C        0.82740    0.75000    0.21040    1.000
    C27      C        0.69170    0.75000    0.32530    1.000
    C28      C        0.61640    0.75000    0.38640    1.000
    O20      O        0.50640    0.25000    0.42620    1.000
    C29      C        0.60090    0.25000    0.64290    1.000
    C30      C        0.67260    0.25000    0.71040    1.000
    C31      C        0.80830    0.25000    0.82530    1.000
    C32      C        0.88360    0.25000    0.88640    1.000
