# CIF file generated by openbabel 3.1.0, see https://openbabel.org
data_I
_chemical_name_common 'image0'
_cell_length_a 5.1028
_cell_length_b 21.1626
_cell_length_c 8.8581
_cell_angle_alpha 90
_cell_angle_beta 89.9965
_cell_angle_gamma 90
_space_group_name_H-M_alt 'P 1'
_space_group_name_Hall 'P 1'
loop_
    _symmetry_equiv_pos_as_xyz
    x,y,z
loop_
    _atom_site_label
    _atom_site_type_symbol
    _atom_site_fract_x
    _atom_site_fract_y
    _atom_site_fract_z
    _atom_site_occupancy
    Ti1      Ti       0.27910    0.84165    0.52814    1.000
    Ti2      Ti       0.01680    0.93546    0.01000    1.000
    Ti3      Ti       0.72490    0.04166    0.48775    1.000
    Ga1      Ga       0.69380    0.69017    0.74802    1.000
    P1       P        0.79370    0.82584    0.77490    1.000
    P2       P        0.20610    0.05294    0.24230    1.000
    P3       P        0.23690    0.98796    0.67040    1.000
    P4       P        0.76230    0.89610    0.34620    1.000
    P5       P        0.20520    0.69133    0.55848    1.000
    O1       O        0.06120    0.82310    0.70150    1.000
    O2       O        0.28350    0.75180    0.47340    1.000
    O3       O        0.24820    0.92950    0.57200    1.000
    O4       O        0.74720    0.76210    0.85910    1.000
    O5       O        0.58120    0.83340    0.65580    1.000
    O6       O        0.78230    0.87830    0.89150    1.000
    O7       O        0.17730    0.97020    0.83510    1.000
    O8       O        0.50680    0.02280    0.66960    1.000
    O9       O        0.02360    0.03330    0.61720    1.000
    O10      O        0.26840    0.87440    0.04120    1.000
    O11      O        0.93110    0.05790    0.31190    1.000
    O12      O        0.29080    0.63270    0.46770    1.000
    O13      O        0.75280    0.95330    0.44940    1.000
    O14      O        0.26490    0.11510    0.15430    1.000
    O15      O        0.40820    0.04430    0.36580    1.000
    O16      O        0.22040    0.99810    0.12800    1.000
    O17      O        0.80030    0.91560    0.18130    1.000
    O18      O        0.50690    0.85940    0.35650    1.000
    O19      O        0.98610    0.85130    0.39240    1.000
    O20      O        0.90450    0.69090    0.58230    1.000
    O21      O        0.34160    0.69010    0.71360    1.000
    H1       H        0.41300    0.88400    0.00000    1.000
    Ti4      Ti       0.72090    0.34165    0.47186    1.000
    Ti5      Ti       0.98320    0.43546    0.99000    1.000
    Ti6      Ti       0.27510    0.54166    0.51225    1.000
    Ga2      Ga       0.30620    0.19017    0.25198    1.000
    P6       P        0.20630    0.32584    0.22510    1.000
    P7       P        0.79390    0.55294    0.75770    1.000
    P8       P        0.76310    0.48796    0.32960    1.000
    P9       P        0.23770    0.39610    0.65380    1.000
    P10      P        0.79480    0.19133    0.44152    1.000
    O22      O        0.93880    0.32310    0.29850    1.000
    O23      O        0.71650    0.25180    0.52660    1.000
    O24      O        0.75180    0.42950    0.42800    1.000
    O25      O        0.25280    0.26210    0.14090    1.000
    O26      O        0.41880    0.33340    0.34420    1.000
    O27      O        0.21770    0.37830    0.10850    1.000
    O28      O        0.82270    0.47020    0.16490    1.000
    O29      O        0.49320    0.52280    0.33040    1.000
    O30      O        0.97640    0.53330    0.38280    1.000
    O31      O        0.73160    0.37440    0.95880    1.000
    O32      O        0.06890    0.55790    0.68810    1.000
    O33      O        0.70920    0.13270    0.53230    1.000
    O34      O        0.24720    0.45330    0.55060    1.000
    O35      O        0.73510    0.61510    0.84570    1.000
    O36      O        0.59180    0.54430    0.63420    1.000
    O37      O        0.77960    0.49810    0.87200    1.000
    O38      O        0.19970    0.41560    0.81870    1.000
    O39      O        0.49310    0.35940    0.64350    1.000
    O40      O        0.01390    0.35130    0.60760    1.000
    O41      O        0.09550    0.19090    0.41770    1.000
    O42      O        0.65840    0.19010    0.28640    1.000
    H2       H        0.58700    0.38400    0.00000    1.000
