data_functionalizedCrystal
_audit_creation_method	'EQeq! by Chris Wilmer'
_symmetry_space_group_name_H-M	'P1'
_symmetry_Int_Tables_number	1
_symmetry_cell_setting	triclinic
loop_
_symmetry_equiv_pos_as_xyz
  x,y,z
_cell_length_a	9.3348
_cell_length_b	9.3606
_cell_length_c	13.0009
_cell_angle_alpha	90
_cell_angle_beta	90
_cell_angle_gamma	91.282
loop_
_atom_site_label
_atom_site_type_symbol
_atom_site_fract_x
_atom_site_fract_y
_atom_site_fract_z
_atom_site_charge
Mof_Mn	Mn	0.78361	0.51438	0.7573	0.739
Mof_Mn	Mn	0.71639	0.98562	0.2573	0.782
Mof_Mn	Mn	0.5	0	0.5	0.754
Mof_Mn	Mn	0.21639	0.48562	0.2427	0.717
Mof_Mn	Mn	0.28361	0.01438	0.7427	0.661
Mof_Mn	Mn	-1.56407e-18	0.5	-0	0.701
Mof_H 	H 	0.4858	0.4192	0.873	0.193
Mof_H 	H 	0.0194	0.1521	0.5915	0.136
Mof_H 	H 	0.3672	0.3105	0.8666	0.182
Mof_H 	H 	0.0142	0.0808	0.373	0.158
Mof_H 	H 	0.5194	0.6521	0.9085	0.198
Mof_H 	H 	0.1328	0.1895	0.3666	0.163
Mof_H 	H 	0.4806	0.3479	0.0915	0.165
Mof_H 	H 	0.0964	0.7413	0.4022	0.173
Mof_H 	H 	0.5964	0.2413	0.0978	0.144
Mof_H 	H 	0.8672	0.8105	0.6334	0.179
Mof_H 	H 	0.9036	0.2587	0.5978	0.156
Mof_H 	H 	0.9806	0.8479	0.4085	0.217
Mof_H 	H 	0.5142	0.5808	0.127	0.173
Mof_H 	H 	0.4036	0.7587	0.9022	0.189
Mof_H 	H 	0.6328	0.6895	0.1334	0.16
Mof_H 	H 	0.9858	0.9192	0.627	0.206
Mof_C 	C 	0.003	0.7947	0.7442	0.2
Mof_C 	C 	0.0147	0.2483	0.7232	0.165
Mof_C 	C 	0.9853	0.7517	0.2768	0.264
Mof_C 	C 	0.4853	0.2517	0.2232	0.208
Mof_C 	C 	0.5147	0.7483	0.7768	0.233
Mof_C 	C 	0.997	0.2053	0.2558	0.259
Mof_C 	C 	0.497	0.7053	0.2442	0.221
Mof_C 	C 	0.503	0.2947	0.7558	0.226
Mof_N 	N 	0.445	0.3479	0.8423	-0.356
Mof_N 	N 	0.6222	0.3471	0.71082	-0.177
Mof_N 	N 	0.1297	0.251	0.86567	-0.064
Mof_N 	N 	0.4717	0.1569	0.37169	-0.11
Mof_N 	N 	0.5477	0.1549	0.2828	-0.186
Mof_N 	N 	0.9615	0.3291	0.12065	-0.09
Mof_N 	N 	0.8778	0.1529	0.21082	-0.194
Mof_N 	N 	0.3778	0.6529	0.28918	-0.176
Mof_N 	N 	0.0513	0.3155	0.20207	-0.208
Mof_N 	N 	0.9487	0.6845	0.79793	-0.155
Mof_N 	N 	0.9743	0.2157	0.6256	-0.294
Mof_N 	N 	0.0477	0.6549	0.2172	-0.198
Mof_N 	N 	0.8757	0.8128	0.22752	-0.18
Mof_N 	N 	0.0283	0.3431	0.87169	-0.101
Mof_N 	N 	0.8703	0.749	0.13433	-0.073
Mof_N 	N 	0.945	0.8479	0.6577	-0.341
Mof_N 	N 	0.5283	0.8431	0.62831	-0.091
Mof_N 	N 	0.0385	0.6709	0.87935	-0.093
Mof_N 	N 	0.6413	0.2661	0.62564	-0.061
Mof_N 	N 	0.5513	0.8155	0.29793	-0.178
Mof_N 	N 	0.4615	0.8291	0.37935	-0.092
Mof_N 	N 	0.4743	0.7157	0.8744	-0.355
Mof_N 	N 	0.1243	0.1872	0.77248	-0.17
Mof_N 	N 	0.1222	0.8471	0.78918	-0.157
Mof_N 	N 	0.6297	0.751	0.63433	-0.064
Mof_N 	N 	0.1413	0.7661	0.87436	-0.047
Mof_N 	N 	0.0257	0.7843	0.3744	-0.388
Mof_N 	N 	0.3587	0.7339	0.37436	-0.062
Mof_N 	N 	0.555	0.6521	0.1577	-0.348
Mof_N 	N 	0.5385	0.1709	0.62065	-0.106
Mof_N 	N 	0.6243	0.6872	0.72752	-0.175
Mof_N 	N 	0.9523	0.3451	0.7828	-0.145
Mof_N 	N 	0.055	0.1521	0.3423	-0.367
Mof_N 	N 	0.3757	0.3128	0.27248	-0.176
Mof_N 	N 	0.3703	0.249	0.36567	-0.074
Mof_N 	N 	0.4523	0.8451	0.7172	-0.16
Mof_N 	N 	0.9717	0.6569	0.12831	-0.091
Mof_N 	N 	0.5257	0.2843	0.1256	-0.341
Mof_N 	N 	0.8587	0.2339	0.12564	-0.073
Mof_N 	N 	0.4487	0.1845	0.70207	-0.181
Mof_Cl	Cl	0.76598	0.00736	0.45163	-0.547
Mof_Cl	Cl	0.26598	0.50736	0.04837	-0.551
Mof_Cl	Cl	0.23402	0.99264	0.54837	-0.468
Mof_Cl	Cl	0.73402	0.49264	0.95163	-0.458
_end
