data_functionalizedCrystal
_audit_creation_method	'EQeq! by Chris Wilmer'
_symmetry_space_group_name_H-M	'P1'
_symmetry_Int_Tables_number	1
_symmetry_cell_setting	triclinic
loop_
_symmetry_equiv_pos_as_xyz
  x,y,z
_cell_length_a	14.7328
_cell_length_b	14.7328
_cell_length_c	14.7328
_cell_angle_alpha	109.471
_cell_angle_beta	109.471
_cell_angle_gamma	109.471
loop_
_atom_site_label
_atom_site_type_symbol
_atom_site_fract_x
_atom_site_fract_y
_atom_site_fract_z
_atom_site_charge
Mof_H 	H 	0.89702	0.42689	0.77938	0.002
Mof_C 	C 	0.9444	0.415	0.7332	-0.025
Mof_N 	N 	0.90717	0.3489	0.62133	-0.294
Mof_H 	H 	0.64751	0.11764	0.22062	0.002
Mof_C 	C 	0.6818	0.2112	0.2668	-0.01
Mof_N 	N 	0.72757	0.28584	0.37867	-0.292
Mof_H 	H 	0.35249	0.57311	0.47013	0.002
Mof_C 	C 	0.3182	0.585	0.5294	-0.009
Mof_N 	N 	0.27243	0.6511	0.55827	-0.292
Mof_H 	H 	0.10298	0.88236	0.52987	-0
Mof_C 	C 	0.0556	0.7888	0.4706	0.004
Mof_N 	N 	0.09283	0.71416	0.44173	-0.293
Mof_H 	H 	0.77938	0.89702	0.42689	0.001
Mof_C 	C 	0.7332	0.9444	0.415	-0.014
Mof_N 	N 	0.62133	0.90717	0.3489	-0.292
Mof_H 	H 	0.22062	0.64751	0.11764	0.004
Mof_C 	C 	0.2668	0.6818	0.2112	-0.009
Mof_N 	N 	0.37867	0.72757	0.28584	-0.291
Mof_H 	H 	0.47013	0.35249	0.57311	0.002
Mof_C 	C 	0.5294	0.3182	0.585	-0.01
Mof_N 	N 	0.55827	0.27243	0.6511	-0.292
Mof_H 	H 	0.52987	0.10298	0.88236	-0.002
Mof_C 	C 	0.4706	0.0556	0.7888	-0.007
Mof_N 	N 	0.44173	0.09283	0.71416	-0.293
Mof_H 	H 	0.42689	0.77938	0.89702	0.002
Mof_C 	C 	0.415	0.7332	0.9444	-0.02
Mof_N 	N 	0.3489	0.62133	0.90717	-0.294
Mof_H 	H 	0.11764	0.22062	0.64751	0.004
Mof_C 	C 	0.2112	0.2668	0.6818	-0.009
Mof_N 	N 	0.28584	0.37867	0.72757	-0.292
Mof_H 	H 	0.57311	0.47013	0.35249	0.002
Mof_C 	C 	0.585	0.5294	0.3182	-0.009
Mof_N 	N 	0.6511	0.55827	0.27243	-0.291
Mof_H 	H 	0.88236	0.52987	0.10298	-0.002
Mof_C 	C 	0.7888	0.4706	0.0556	-0.001
Mof_N 	N 	0.71416	0.44173	0.09283	-0.292
Mof_H 	H 	0.42689	0.89702	0.77938	-0
Mof_C 	C 	0.415	0.9444	0.7332	-0.014
Mof_N 	N 	0.3489	0.90717	0.62133	-0.292
Mof_H 	H 	0.11764	0.64751	0.22062	0.005
Mof_C 	C 	0.2112	0.6818	0.2668	-0.008
Mof_N 	N 	0.28584	0.72757	0.37867	-0.291
Mof_H 	H 	0.57311	0.35249	0.47013	0.002
Mof_C 	C 	0.585	0.3182	0.5294	-0.011
Mof_N 	N 	0.6511	0.27243	0.55827	-0.292
Mof_H 	H 	0.88236	0.10298	0.52987	-0.001
Mof_C 	C 	0.7888	0.0556	0.4706	-0.007
Mof_N 	N 	0.71416	0.09283	0.44173	-0.293
Mof_H 	H 	0.89702	0.77938	0.42689	0.003
Mof_C 	C 	0.9444	0.7332	0.415	-0.025
Mof_N 	N 	0.90717	0.62133	0.3489	-0.294
Mof_H 	H 	0.64751	0.22062	0.11764	0.003
Mof_C 	C 	0.6818	0.2668	0.2112	-0.009
Mof_N 	N 	0.72757	0.37867	0.28584	-0.291
Mof_H 	H 	0.35249	0.47013	0.57311	0.002
Mof_C 	C 	0.3182	0.5294	0.585	-0.01
Mof_N 	N 	0.27243	0.55827	0.6511	-0.291
Mof_H 	H 	0.10298	0.52987	0.88236	-0.001
Mof_C 	C 	0.0556	0.4706	0.7888	0.004
Mof_N 	N 	0.09283	0.44173	0.71416	-0.293
Mof_H 	H 	0.77938	0.42689	0.89702	0.002
Mof_C 	C 	0.7332	0.415	0.9444	-0.02
Mof_N 	N 	0.62133	0.3489	0.90717	-0.294
Mof_H 	H 	0.22062	0.11764	0.64751	0.002
Mof_C 	C 	0.2668	0.2112	0.6818	-0.01
Mof_N 	N 	0.37867	0.28584	0.72757	-0.292
Mof_H 	H 	0.47013	0.57311	0.35249	0.002
Mof_C 	C 	0.5294	0.585	0.3182	-0.01
Mof_N 	N 	0.55827	0.6511	0.27243	-0.291
Mof_H 	H 	0.52987	0.88236	0.10298	-0
Mof_C 	C 	0.4706	0.7888	0.0556	-0
Mof_N 	N 	0.44173	0.71416	0.09283	-0.293
Mof_Zn	Zn	0.75	0.25	0.5	1.175
Mof_Zn	Zn	0.25	0.75	0.5	1.176
Mof_Zn	Zn	0.5	0.75	0.25	1.176
Mof_Zn	Zn	0.5	0.25	0.75	1.175
Mof_Zn	Zn	0.25	0.5	0.75	1.176
Mof_Zn	Zn	0.75	0.5	0.25	1.176
Mof_C 	C 	-1.15455e-17	0.36875	0.61465	0.134
Mof_C 	C 	0.7541	0.38535	0.38535	0.128
Mof_C 	C 	0.2459	0.63125	0.63125	0.131
Mof_C 	C 	-1.15455e-17	0.61465	0.36875	0.133
Mof_C 	C 	0.61465	-2.3091e-17	0.36875	0.131
Mof_C 	C 	0.38535	0.7541	0.38535	0.13
Mof_C 	C 	0.63125	0.2459	0.63125	0.128
Mof_C 	C 	0.36875	0	0.61465	0.132
Mof_C 	C 	0.36875	0.61465	-0	0.134
Mof_C 	C 	0.38535	0.38535	0.7541	0.128
Mof_C 	C 	0.63125	0.63125	0.2459	0.129
Mof_C 	C 	0.61465	0.36875	-0	0.133
Mof_C 	C 	-8.08185e-17	0.319	0.5094	-0.213
Mof_C 	C 	0.8096	0.4906	0.4906	-0.236
Mof_C 	C 	0.1904	0.681	0.681	-0.239
Mof_C 	C 	-2.3091e-17	0.5094	0.319	-0.213
Mof_C 	C 	0.5094	0	0.319	-0.236
Mof_C 	C 	0.4906	0.8096	0.4906	-0.236
Mof_C 	C 	0.681	0.1904	0.681	-0.236
Mof_C 	C 	0.319	-4.6182e-17	0.5094	-0.236
Mof_C 	C 	0.319	0.5094	-0	-0.23
Mof_C 	C 	0.4906	0.4906	0.8096	-0.236
Mof_C 	C 	0.681	0.681	0.1904	-0.236
Mof_C 	C 	0.5094	0.319	-0	-0.222
Mof_H 	H 	0.55724	0.47162	0.80108	0.029
Mof_H 	H 	0.51832	0.53901	0.90142	0.046
Mof_H 	H 	0.47743	0.54236	0.76911	0.039
Mof_H 	H 	0.92398	0.23226	0.45027	0.025
Mof_H 	H 	0.07867	0.31311	0.52703	0.032
Mof_H 	H 	0.99736	0.37325	0.46971	0.038
Mof_H 	H 	0.90306	0.52379	0.53401	0.047
Mof_H 	H 	0.77638	0.47504	0.5468	0.036
Mof_H 	H 	0.79217	0.55415	0.47217	0.031
Mof_H 	H 	0.24638	0.77518	0.73297	0.046
Mof_H 	H 	0.17362	0.64698	0.73629	0.03
Mof_H 	H 	0.10839	0.65921	0.61212	0.048
Mof_H 	H 	0.97931	0.46099	0.3624	0.038
Mof_H 	H 	0.08562	0.52838	0.32946	0.028
Mof_H 	H 	0.93507	0.45764	0.22676	0.03
Mof_H 	H 	0.51447	0.04467	0.26931	0.047
Mof_H 	H 	0.49488	0.04467	0.38778	0.047
Mof_H 	H 	0.43766	0.91065	0.26153	0.028
Mof_H 	H 	0.54811	0.7788	0.47442	0.036
Mof_H 	H 	0.47248	0.78947	0.55308	0.032
Mof_H 	H 	0.5324	0.90334	0.52549	0.048
Mof_H 	H 	0.68301	0.21053	0.76361	0.032
Mof_H 	H 	0.76931	0.2212	0.69562	0.035
Mof_H 	H 	0.62905	0.09666	0.62215	0.049
Mof_H 	H 	0.38778	0.04467	0.49488	0.047
Mof_H 	H 	0.26931	0.04467	0.51447	0.047
Mof_H 	H 	0.26153	0.91065	0.43766	0.028
Mof_H 	H 	0.30134	0.52496	0.07176	0.038
Mof_H 	H 	0.37927	0.47621	0.01022	0.051
Mof_H 	H 	0.23802	0.44585	0.91802	0.028
Mof_H 	H 	0.76556	0.68689	0.21392	0.034
Mof_H 	H 	0.69172	0.76774	0.21801	0.035
Mof_H 	H 	0.6241	0.62675	0.09645	0.051
Mof_H 	H 	0.52663	0.35302	0.0893	0.028
Mof_H 	H 	0.4712	0.22482	0.95779	0.039
Mof_H 	H 	0.44918	0.34079	0.95291	0.039
_end
