data_functionalizedCrystal
_audit_creation_method	'EQeq! by Chris Wilmer'
_symmetry_space_group_name_H-M	'P1'
_symmetry_Int_Tables_number	1
_symmetry_cell_setting	triclinic
loop_
_symmetry_equiv_pos_as_xyz
  x,y,z
_cell_length_a	41.604
_cell_length_b	41.604
_cell_length_c	40.246
_cell_angle_alpha	90
_cell_angle_beta	90
_cell_angle_gamma	120
loop_
_atom_site_label
_atom_site_type_symbol
_atom_site_fract_x
_atom_site_fract_y
_atom_site_fract_z
_atom_site_charge
Mof_Eu	Eu	0.62701	0.0912	0.78837	3.491
Mof_In	In	0.86088	0.30441	0.13661	2.244
Mof_O 	O 	0.65686	0.14908	0.77182	-0.647
Mof_O 	O 	0.61173	0.1311	0.80662	-0.664
Mof_O 	O 	0.61558	0.07164	0.83896	-0.722
Mof_O 	O 	0.6704	0.11149	0.82791	-0.652
Mof_O 	O 	0.62496	0.92422	0.11118	-0.638
Mof_O 	O 	0.57227	0.90914	0.089	-0.642
Mof_O 	O 	0.5938	0.0811	0.74241	-0.652
Mof_O 	O 	0.5683	0.05378	0.7878	-0.694
Mof_O 	O 	0.8411	0.2552	0.118	-0.723
Mof_O 	O 	0.8248	0.2836	0.0887	-0.629
Mof_O 	O 	0.3348	0.8894	0.5179	-0.563
Mof_O 	O 	0.3897	0.9294	0.5078	-0.531
Mof_O 	O 	0.2487	0.9887	0.7844	-0.707
Mof_O 	O 	0.2436	0.0144	0.7403	-0.421
Mof_C 	C 	0.6371	0.1556	0.7903	0.406
Mof_C 	C 	0.6437	0.19229	0.7915	-0.174
Mof_C 	C 	0.6209	0.2004	0.8096	0.129
Mof_H 	H 	0.6013	0.1822	0.8219	0.01
Mof_C 	C 	0.6277	0.2363	0.8092	-0.218
Mof_H 	H 	0.6129	0.2423	0.8221	0.111
Mof_C 	C 	0.6552	0.2634	0.7907	0.162
Mof_C 	C 	0.6777	0.254	0.7728	-0.217
Mof_H 	H 	0.6973	0.2721	0.7604	0.107
Mof_C 	C 	0.6718	0.2189	0.7731	0.133
Mof_H 	H 	0.6869	0.2129	0.7607	0.012
Mof_C 	C 	0.6604	0.2983	0.7905	-0.099
Mof_C 	C 	0.6335	0.3048	0.7909	0.03
Mof_H 	H 	0.6095	0.2846	0.7916	0.02
Mof_C 	C 	0.6455	0.0908	0.8483	0.494
Mof_C 	C 	0.6571	0.0946	0.8805	-0.153
Mof_C 	C 	0.6923	0.1178	0.8909	0.045
Mof_H 	H 	0.7109	0.1319	0.8757	0.038
Mof_C 	C 	0.7005	0.1203	0.9256	-0.063
Mof_H 	H 	0.7245	0.1359	0.933	0.055
Mof_C 	C 	0.6735	0.1001	0.9474	-0.069
Mof_C 	C 	0.6367	0.0772	0.9371	-0.055
Mof_H 	H 	0.6181	0.0638	0.9525	0.048
Mof_C 	C 	0.6285	0.0749	0.9034	0.035
Mof_H 	H 	0.6041	0.0604	0.8961	0.045
Mof_C 	C 	0.6817	0.1003	0.9813	0.293
Mof_C 	C 	0.7046	0.1303	0.9968	-0.396
Mof_H 	H 	0.713	0.1529	0.9861	0.167
Mof_C 	C 	0.7165	0.13	0.0276	0.32
Mof_C 	C 	0.6989	0.0994	0.0439	-0.382
Mof_H 	H 	0.7047	0.0996	0.0663	0.161
Mof_C 	C 	0.6722	0.0669	0.0303	0.283
Mof_C 	C 	0.6639	0.0682	0.9979	-0.356
Mof_H 	H 	0.6459	0.0469	0.9873	0.156
Mof_C 	C 	0.6562	0.0325	0.0475	-0.14
Mof_C 	C 	0.6742	0.0238	0.0684	0.044
Mof_H 	H 	0.6988	0.0414	0.0728	0.016
Mof_C 	C 	0.6597	0.9912	0.0843	-0.086
Mof_H 	H 	0.6735	0.9854	0.0988	0.085
Mof_C 	C 	0.6227	0.9667	0.0774	0.003
Mof_C 	C 	0.6039	0.9747	0.0577	-0.083
Mof_H 	H 	0.5787	0.958	0.0548	0.085
Mof_C 	C 	0.6196	0.0063	0.0413	0.03
Mof_H 	H 	0.6062	0.0111	0.0255	0.015
Mof_C 	C 	0.6055	0.9311	0.0946	0.338
Mof_C 	C 	0.7419	0.1616	0.0425	-0.116
Mof_C 	C 	0.7491	0.1966	0.0321	-0.028
Mof_H 	H 	0.7384	0.1993	0.0127	0.033
Mof_C 	C 	0.7728	0.2279	0.0514	0.017
Mof_H 	H 	0.7744	0.2506	0.0471	0.035
Mof_C 	C 	0.7937	0.2252	0.0766	-0.142
Mof_C 	C 	0.7887	0.1903	0.0855	0.005
Mof_H 	H 	0.8018	0.188	0.1033	0.041
Mof_C 	C 	0.764	0.159	0.0673	-0.03
Mof_H 	H 	0.7622	0.1362	0.0717	0.036
Mof_C 	C 	0.8223	0.2573	0.0962	0.562
Mof_C 	C 	0.5659	0.0604	0.7591	0.436
Mof_C 	C 	0.5307	0.0427	0.7439	-0.175
Mof_C 	C 	0.4993	0.0227	0.7608	0.129
Mof_H 	H 	0.5009	0.0197	0.7835	0.009
Mof_C 	C 	0.4677	0.0078	0.7478	-0.168
Mof_H 	H 	0.447	0.995	0.7614	0.086
Mof_C 	C 	0.4628	0.0098	0.7146	0.022
Mof_C 	C 	0.4939	0.0314	0.6963	-0.135
Mof_H 	H 	0.4918	0.0355	0.6738	0.079
Mof_C 	C 	0.5274	0.0469	0.7108	0.09
Mof_H 	H 	0.5486	0.0606	0.698	0.022
Mof_C 	C 	0.4278	0.9941	0.6987	0.192
Mof_C 	C 	0.3995	0.9978	0.7157	-0.306
Mof_H 	H 	0.4034	0.0089	0.7366	0.136
Mof_C 	C 	0.3677	0.9844	0.6997	0.291
Mof_C 	C 	0.3622	0.9708	0.6712	-0.443
Mof_H 	H 	0.3394	0.9634	0.6613	0.19
Mof_C 	C 	0.3873	0.966	0.6537	0.38
Mof_C 	C 	0.4225	0.9792	0.6684	-0.34
Mof_H 	H 	0.4413	0.9775	0.6574	0.152
Mof_C 	C 	0.3807	0.95	0.6221	-0.413
Mof_C 	C 	0.3491	0.9271	0.6111	0.339
Mof_H 	H 	0.3286	0.9195	0.625	-0.09
Mof_C 	C 	0.3435	0.9134	0.5804	-0.341
Mof_H 	H 	0.3201	0.894	0.5748	0.155
Mof_C 	C 	0.3687	0.9256	0.5589	0.147
Mof_C 	C 	0.4029	0.9527	0.5687	-0.305
Mof_H 	H 	0.423	0.9625	0.5542	0.152
Mof_C 	C 	0.4063	0.9644	0.6	0.307
Mof_H 	H 	0.4289	0.9846	0.6063	-0.08
Mof_C 	C 	0.363	0.9135	0.5275	0.307
Mof_C 	C 	0.3288	0.9776	0.7465	-0.114
Mof_H 	H 	0.3413	0.9679	0.7582	0.067
Mof_C 	C 	0.3368	0.987	0.7133	-0.023
Mof_C 	C 	0.3181	0.0007	0.6948	-0.115
Mof_H 	H 	0.3246	0.0079	0.6728	0.07
Mof_C 	C 	0.2886	0.0033	0.7103	0.11
Mof_H 	H 	0.2742	0.0102	0.698	0.014
Mof_C 	C 	0.2818	0.9953	0.7439	-0.272
Mof_C 	C 	0.3012	0.9828	0.7625	0.126
Mof_H 	H 	0.2964	0.9779	0.785	0.014
Mof_C 	C 	0.2563	0.0003	0.7591	0.657
Mof_Eu	Eu	0.29368	0.42453	0.12171	3.493
Mof_In	In	0.52755	0.63774	0.46994	2.246
Mof_O 	O 	0.32353	0.48241	0.10515	-0.648
Mof_O 	O 	0.2784	0.46443	0.13995	-0.664
Mof_O 	O 	0.28225	0.40497	0.17229	-0.727
Mof_O 	O 	0.33707	0.44482	0.16124	-0.656
Mof_O 	O 	0.29163	0.25755	0.44451	-0.646
Mof_O 	O 	0.23894	0.24247	0.42233	-0.649
Mof_O 	O 	0.26047	0.41443	0.07574	-0.65
Mof_O 	O 	0.23497	0.38711	0.12113	-0.693
Mof_O 	O 	0.50777	0.58853	0.45133	-0.725
Mof_O 	O 	0.49147	0.61693	0.42203	-0.633
Mof_O 	O 	0.00147	0.22273	0.85123	-0.564
Mof_O 	O 	0.05637	0.26273	0.84113	-0.533
Mof_O 	O 	0.91537	0.32203	0.11773	-0.715
Mof_O 	O 	0.91027	0.34773	0.07363	-0.425
Mof_C 	C 	0.30377	0.48893	0.12363	0.407
Mof_C 	C 	0.31037	0.52562	0.12483	-0.174
Mof_C 	C 	0.28757	0.53373	0.14293	0.128
Mof_H 	H 	0.26797	0.51553	0.15523	0.01
Mof_C 	C 	0.29437	0.56963	0.14253	-0.217
Mof_H 	H 	0.27957	0.57563	0.15543	0.111
Mof_C 	C 	0.32187	0.59673	0.12403	0.161
Mof_C 	C 	0.34437	0.58733	0.10613	-0.216
Mof_H 	H 	0.36397	0.60543	0.09373	0.107
Mof_C 	C 	0.33847	0.55223	0.10643	0.133
Mof_H 	H 	0.35357	0.54623	0.09403	0.012
Mof_C 	C 	0.32707	0.63163	0.12383	-0.098
Mof_C 	C 	0.30017	0.63813	0.12423	0.029
Mof_H 	H 	0.27617	0.61793	0.12493	0.02
Mof_C 	C 	0.31217	0.42413	0.18163	0.507
Mof_C 	C 	0.32377	0.42793	0.21383	-0.179
Mof_C 	C 	0.35897	0.45113	0.22423	0.079
Mof_H 	H 	0.37757	0.46523	0.20903	0.026
Mof_C 	C 	0.36717	0.45363	0.25893	-0.11
Mof_H 	H 	0.39117	0.46923	0.26633	0.073
Mof_C 	C 	0.34017	0.43343	0.28073	-0.006
Mof_C 	C 	0.30337	0.41053	0.27043	-0.099
Mof_H 	H 	0.28477	0.39713	0.28583	0.064
Mof_C 	C 	0.29517	0.40823	0.23673	0.068
Mof_H 	H 	0.27077	0.39373	0.22943	0.034
Mof_C 	C 	0.34837	0.43363	0.31463	0.192
Mof_C 	C 	0.37127	0.46363	0.33013	-0.285
Mof_H 	H 	0.37967	0.48623	0.31943	0.128
Mof_C 	C 	0.38317	0.46333	0.36093	0.211
Mof_C 	C 	0.36557	0.43273	0.37723	-0.271
Mof_H 	H 	0.37137	0.43293	0.39963	0.122
Mof_C 	C 	0.33887	0.40023	0.36363	0.178
Mof_C 	C 	0.33057	0.40153	0.33123	-0.254
Mof_H 	H 	0.31257	0.38023	0.32063	0.119
Mof_C 	C 	0.32287	0.36583	0.38083	-0.039
Mof_C 	C 	0.34087	0.35713	0.40173	-0.049
Mof_H 	H 	0.36547	0.37473	0.40613	0.049
Mof_C 	C 	0.32637	0.32453	0.41763	-0.009
Mof_H 	H 	0.34017	0.31873	0.43213	0.058
Mof_C 	C 	0.28937	0.30003	0.41073	-0.065
Mof_C 	C 	0.27057	0.30803	0.39103	0.004
Mof_H 	H 	0.24537	0.29133	0.38813	0.056
Mof_C 	C 	0.28627	0.33963	0.37463	-0.061
Mof_H 	H 	0.27287	0.34443	0.35883	0.048
Mof_C 	C 	0.27217	0.26443	0.42793	0.365
Mof_C 	C 	0.40857	0.49493	0.37583	-0.047
Mof_C 	C 	0.41577	0.52993	0.36543	-0.074
Mof_H 	H 	0.40507	0.53263	0.34603	0.051
Mof_C 	C 	0.43947	0.56123	0.38473	0.049
Mof_H 	H 	0.44107	0.58393	0.38043	0.024
Mof_C 	C 	0.46037	0.55853	0.40993	-0.164
Mof_C 	C 	0.45537	0.52363	0.41883	0.035
Mof_H 	H 	0.46847	0.52133	0.43663	0.031
Mof_C 	C 	0.43067	0.49233	0.40063	-0.074
Mof_H 	H 	0.42887	0.46953	0.40503	0.053
Mof_C 	C 	0.48897	0.59063	0.42953	0.572
Mof_C 	C 	0.23257	0.39373	0.09243	0.429
Mof_C 	C 	0.19737	0.37603	0.07723	-0.16
Mof_C 	C 	0.16597	0.35603	0.09413	0.107
Mof_H 	H 	0.16757	0.35303	0.11683	0.017
Mof_C 	C 	0.13437	0.34113	0.08113	-0.144
Mof_H 	H 	0.11367	0.32833	0.09473	0.076
Mof_C 	C 	0.12947	0.34313	0.04793	0.008
Mof_C 	C 	0.16057	0.36473	0.02963	-0.121
Mof_H 	H 	0.15847	0.36883	0.00713	0.075
Mof_C 	C 	0.19407	0.38023	0.04413	0.076
Mof_H 	H 	0.21527	0.39393	0.03133	0.027
Mof_C 	C 	0.09447	0.32743	0.03203	0.198
Mof_C 	C 	0.06617	0.33113	0.04903	-0.313
Mof_H 	H 	0.07007	0.34223	0.06993	0.141
Mof_C 	C 	0.03437	0.31773	0.03303	0.29
Mof_C 	C 	0.02887	0.30413	0.00453	-0.445
Mof_H 	H 	0.00607	0.29673	0.99463	0.191
Mof_C 	C 	0.05397	0.29933	0.98703	0.38
Mof_C 	C 	0.08917	0.31253	0.00173	-0.345
Mof_H 	H 	0.10797	0.31083	0.99073	0.153
Mof_C 	C 	0.04737	0.28333	0.95543	-0.408
Mof_C 	C 	0.01577	0.26043	0.94443	0.332
Mof_H 	H 	0.99527	0.25283	0.95833	-0.09
Mof_C 	C 	0.01017	0.24673	0.91373	-0.326
Mof_H 	H 	0.98677	0.22733	0.90813	0.149
Mof_C 	C 	0.03537	0.25893	0.89223	0.136
Mof_C 	C 	0.06957	0.28603	0.90203	-0.296
Mof_H 	H 	0.08967	0.29583	0.88753	0.149
Mof_C 	C 	0.07297	0.29773	0.93333	0.298
Mof_H 	H 	0.09557	0.31793	0.93963	-0.079
Mof_C 	C 	0.02967	0.24683	0.86083	0.313
Mof_C 	C 	0.99547	0.31093	0.07983	-0.135
Mof_H 	H 	0.00797	0.30123	0.09153	0.075
Mof_C 	C 	0.00347	0.32033	0.04663	-0.01
Mof_C 	C 	0.98477	0.33403	0.02813	-0.127
Mof_H 	H 	0.99127	0.34123	0.00613	0.074
Mof_C 	C 	0.95527	0.33663	0.04363	0.128
Mof_H 	H 	0.94087	0.34353	0.03133	0.009
Mof_C 	C 	0.94847	0.32863	0.07723	-0.294
Mof_C 	C 	0.96787	0.31613	0.09583	0.144
Mof_H 	H 	0.96307	0.31123	0.11833	0.006
Mof_C 	C 	0.92297	0.33363	0.09243	0.675
Mof_Eu	Eu	0.96034	0.75786	0.45504	3.486
Mof_In	In	0.19421	0.97108	0.80328	2.248
Mof_O 	O 	0.99019	0.81575	0.43849	-0.646
Mof_O 	O 	0.94506	0.79777	0.47329	-0.661
Mof_O 	O 	0.94891	0.73831	0.50563	-0.735
Mof_O 	O 	0.00373	0.77816	0.49458	-0.659
Mof_O 	O 	0.95829	0.59089	0.77785	-0.664
Mof_O 	O 	0.9056	0.57581	0.75567	-0.665
Mof_O 	O 	0.92713	0.74777	0.40908	-0.649
Mof_O 	O 	0.90163	0.72045	0.45447	-0.691
Mof_O 	O 	0.17443	0.92187	0.78467	-0.732
Mof_O 	O 	0.15813	0.95027	0.75537	-0.639
Mof_O 	O 	0.66813	0.55607	0.18457	-0.564
Mof_O 	O 	0.72303	0.59607	0.17447	-0.533
Mof_O 	O 	0.58203	0.65537	0.45107	-0.713
Mof_O 	O 	0.57693	0.68107	0.40697	-0.423
Mof_C 	C 	0.97043	0.82227	0.45697	0.398
Mof_C 	C 	0.97703	0.85896	0.45817	-0.154
Mof_C 	C 	0.95423	0.86707	0.47627	0.099
Mof_H 	H 	0.93463	0.84887	0.48857	0.021
Mof_C 	C 	0.96103	0.90297	0.47587	-0.179
Mof_H 	H 	0.94623	0.90897	0.48877	0.097
Mof_C 	C 	0.98853	0.93007	0.45737	0.11
Mof_C 	C 	0.01103	0.92067	0.43947	-0.176
Mof_H 	H 	0.03063	0.93877	0.42707	0.093
Mof_C 	C 	0.00513	0.88557	0.43977	0.105
Mof_H 	H 	0.02023	0.87957	0.42737	0.023
Mof_C 	C 	0.99373	0.96497	0.45717	-0.035
Mof_C 	C 	0.96683	0.97147	0.45757	-0.034
Mof_H 	H 	0.94283	0.95127	0.45827	0.043
Mof_C 	C 	0.97883	0.75747	0.51497	0.535
Mof_C 	C 	0.99043	0.76127	0.54717	-0.244
Mof_C 	C 	0.02563	0.78447	0.55757	0.161
Mof_H 	H 	0.04423	0.79857	0.54237	-0.001
Mof_C 	C 	0.03383	0.78697	0.59227	-0.218
Mof_H 	H 	0.05783	0.80257	0.59967	0.113
Mof_C 	C 	0.00683	0.76677	0.61407	0.139
Mof_C 	C 	0.97003	0.74387	0.60377	-0.203
Mof_H 	H 	0.95143	0.73047	0.61917	0.102
Mof_C 	C 	0.96183	0.74157	0.57007	0.143
Mof_H 	H 	0.93743	0.72707	0.56277	0.008
Mof_C 	C 	0.01503	0.76697	0.64797	-0.027
Mof_C 	C 	0.03793	0.79697	0.66347	-0.043
Mof_H 	H 	0.04633	0.81957	0.65277	0.044
Mof_C 	C 	0.04983	0.79667	0.69427	-0.026
Mof_C 	C 	0.03223	0.76607	0.71057	-0.031
Mof_H 	H 	0.03803	0.76627	0.73297	0.038
Mof_C 	C 	0.00553	0.73357	0.69697	-0.049
Mof_C 	C 	0.99723	0.73487	0.66457	-0.038
Mof_H 	H 	0.97923	0.71357	0.65397	0.041
Mof_C 	C 	0.98953	0.69917	0.71417	0.184
Mof_C 	C 	0.00753	0.69047	0.73507	-0.26
Mof_H 	H 	0.03213	0.70807	0.73947	0.123
Mof_C 	C 	0.99303	0.65787	0.75097	0.17
Mof_H 	H 	0.00683	0.65207	0.76547	-0.002
Mof_C 	C 	0.95603	0.63337	0.74407	-0.224
Mof_C 	C 	0.93723	0.64137	0.72437	0.215
Mof_H 	H 	0.91203	0.62467	0.72147	-0.016
Mof_C 	C 	0.95293	0.67297	0.70797	-0.277
Mof_H 	H 	0.93953	0.67777	0.69217	0.125
Mof_C 	C 	0.93883	0.59777	0.76127	0.429
Mof_C 	C 	0.07523	0.82827	0.70917	0.101
Mof_C 	C 	0.08243	0.86327	0.69877	-0.175
Mof_H 	H 	0.07173	0.86597	0.67937	0.09
Mof_C 	C 	0.10613	0.89457	0.71807	0.117
Mof_H 	H 	0.10773	0.91727	0.71377	0.001
Mof_C 	C 	0.12703	0.89187	0.74327	-0.213
Mof_C 	C 	0.12203	0.85697	0.75217	0.101
Mof_H 	H 	0.13513	0.85467	0.76997	0.009
Mof_C 	C 	0.09733	0.82567	0.73397	-0.171
Mof_H 	H 	0.09553	0.80287	0.73837	0.089
Mof_C 	C 	0.15563	0.92397	0.76287	0.594
Mof_C 	C 	0.89923	0.72707	0.42577	0.428
Mof_C 	C 	0.86403	0.70937	0.41057	-0.158
Mof_C 	C 	0.83263	0.68937	0.42747	0.104
Mof_H 	H 	0.83423	0.68637	0.45017	0.018
Mof_C 	C 	0.80103	0.67447	0.41447	-0.141
Mof_H 	H 	0.78033	0.66167	0.42807	0.075
Mof_C 	C 	0.79613	0.67647	0.38127	0.006
Mof_C 	C 	0.82723	0.69807	0.36297	-0.118
Mof_H 	H 	0.82513	0.70217	0.34047	0.074
Mof_C 	C 	0.86073	0.71357	0.37747	0.073
Mof_H 	H 	0.88193	0.72727	0.36467	0.028
Mof_C 	C 	0.76113	0.66077	0.36537	0.2
Mof_C 	C 	0.73283	0.66447	0.38237	-0.318
Mof_H 	H 	0.73673	0.67557	0.40327	0.142
Mof_C 	C 	0.70103	0.65107	0.36637	0.297
Mof_C 	C 	0.69553	0.63747	0.33787	-0.448
Mof_H 	H 	0.67273	0.63007	0.32797	0.191
Mof_C 	C 	0.72063	0.63267	0.32037	0.38
Mof_C 	C 	0.75583	0.64587	0.33507	-0.345
Mof_H 	H 	0.77463	0.64417	0.32407	0.153
Mof_C 	C 	0.71403	0.61667	0.28877	-0.405
Mof_C 	C 	0.68243	0.59377	0.27777	0.328
Mof_H 	H 	0.66193	0.58617	0.29167	-0.086
Mof_C 	C 	0.67683	0.58007	0.24707	-0.329
Mof_H 	H 	0.65343	0.56067	0.24147	0.151
Mof_C 	C 	0.70203	0.59227	0.22557	0.136
Mof_C 	C 	0.73623	0.61937	0.23537	-0.296
Mof_H 	H 	0.75633	0.62917	0.22087	0.148
Mof_C 	C 	0.73963	0.63107	0.26667	0.297
Mof_H 	H 	0.76223	0.65127	0.27297	-0.078
Mof_C 	C 	0.69633	0.58017	0.19417	0.313
Mof_C 	C 	0.66213	0.64427	0.41317	-0.115
Mof_H 	H 	0.67463	0.63457	0.42487	0.067
Mof_C 	C 	0.67013	0.65367	0.37997	-0.027
Mof_C 	C 	0.65143	0.66737	0.36147	-0.113
Mof_H 	H 	0.65793	0.67457	0.33947	0.07
Mof_C 	C 	0.62193	0.66997	0.37697	0.118
Mof_H 	H 	0.60753	0.67687	0.36467	0.012
Mof_C 	C 	0.61513	0.66197	0.41057	-0.284
Mof_C 	C 	0.63453	0.64947	0.42917	0.131
Mof_H 	H 	0.62973	0.64457	0.45167	0.012
Mof_C 	C 	0.58963	0.66697	0.42577	0.67
Mof_Eu	Eu	0.9088	0.53582	0.78837	3.491
Mof_In	In	0.69559	0.55647	0.13661	2.244
Mof_O 	O 	0.85092	0.50778	0.77182	-0.647
Mof_O 	O 	0.8689	0.48063	0.80662	-0.664
Mof_O 	O 	0.92836	0.54394	0.83896	-0.722
Mof_O 	O 	0.88851	0.55891	0.82791	-0.653
Mof_O 	O 	0.07578	0.70074	0.11118	-0.638
Mof_O 	O 	0.09086	0.66313	0.089	-0.643
Mof_O 	O 	0.9189	0.5127	0.74241	-0.651
Mof_O 	O 	0.94622	0.51452	0.7878	-0.694
Mof_O 	O 	0.7448	0.5859	0.118	-0.723
Mof_O 	O 	0.7164	0.5412	0.0887	-0.629
Mof_O 	O 	0.1106	0.4454	0.5179	-0.563
Mof_O 	O 	0.0706	0.4603	0.5078	-0.531
Mof_O 	O 	0.0113	0.26	0.7844	-0.707
Mof_O 	O 	0.9856	0.2292	0.7403	-0.421
Mof_C 	C 	0.8444	0.4815	0.7903	0.406
Mof_C 	C 	0.80771	0.45141	0.7915	-0.174
Mof_C 	C 	0.7996	0.4205	0.8096	0.129
Mof_H 	H 	0.8178	0.4191	0.8219	0.01
Mof_C 	C 	0.7637	0.3914	0.8092	-0.218
Mof_H 	H 	0.7577	0.3706	0.8221	0.111
Mof_C 	C 	0.7366	0.3918	0.7907	0.162
Mof_C 	C 	0.746	0.4237	0.7728	-0.217
Mof_H 	H 	0.7279	0.4252	0.7604	0.107
Mof_C 	C 	0.7811	0.4529	0.7731	0.133
Mof_H 	H 	0.7871	0.474	0.7607	0.012
Mof_C 	C 	0.7017	0.3621	0.7905	-0.099
Mof_C 	C 	0.6952	0.3287	0.7909	0.03
Mof_H 	H 	0.7154	0.3249	0.7916	0.02
Mof_C 	C 	0.9092	0.5547	0.8483	0.494
Mof_C 	C 	0.9054	0.5625	0.8805	-0.153
Mof_C 	C 	0.8822	0.5745	0.8909	0.046
Mof_H 	H 	0.8681	0.579	0.8757	0.038
Mof_C 	C 	0.8797	0.5802	0.9256	-0.063
Mof_H 	H 	0.8641	0.5886	0.933	0.056
Mof_C 	C 	0.8999	0.5734	0.9474	-0.069
Mof_C 	C 	0.9228	0.5595	0.9371	-0.056
Mof_H 	H 	0.9362	0.5543	0.9525	0.048
Mof_C 	C 	0.9251	0.5536	0.9034	0.036
Mof_H 	H 	0.9396	0.5437	0.8961	0.045
Mof_C 	C 	0.8997	0.5814	0.9813	0.292
Mof_C 	C 	0.8697	0.5743	0.9968	-0.394
Mof_H 	H 	0.8471	0.5601	0.9861	0.167
Mof_C 	C 	0.87	0.5865	0.0276	0.319
Mof_C 	C 	0.9006	0.5995	0.0439	-0.38
Mof_H 	H 	0.9004	0.6051	0.0663	0.16
Mof_C 	C 	0.9331	0.6053	0.0303	0.282
Mof_C 	C 	0.9318	0.5957	0.9979	-0.354
Mof_H 	H 	0.9531	0.599	0.9873	0.155
Mof_C 	C 	0.9675	0.6237	0.0475	-0.138
Mof_C 	C 	0.9762	0.6504	0.0684	0.042
Mof_H 	H 	0.9586	0.6574	0.0728	0.017
Mof_C 	C 	0.0088	0.6685	0.0843	-0.085
Mof_H 	H 	0.0146	0.6881	0.0988	0.085
Mof_C 	C 	0.0333	0.656	0.0774	0.002
Mof_C 	C 	0.0253	0.6292	0.0577	-0.081
Mof_H 	H 	0.042	0.6207	0.0548	0.085
Mof_C 	C 	0.9937	0.6133	0.0413	0.028
Mof_H 	H 	0.9889	0.5951	0.0255	0.016
Mof_C 	C 	0.0689	0.6744	0.0946	0.339
Mof_C 	C 	0.8384	0.5803	0.0425	-0.115
Mof_C 	C 	0.8034	0.5525	0.0321	-0.029
Mof_H 	H 	0.8007	0.5391	0.0127	0.033
Mof_C 	C 	0.7721	0.5449	0.0514	0.018
Mof_H 	H 	0.7494	0.5238	0.0471	0.035
Mof_C 	C 	0.7748	0.5685	0.0766	-0.142
Mof_C 	C 	0.8097	0.5984	0.0855	0.005
Mof_H 	H 	0.812	0.6138	0.1033	0.042
Mof_C 	C 	0.841	0.605	0.0673	-0.03
Mof_H 	H 	0.8638	0.626	0.0717	0.036
Mof_C 	C 	0.7427	0.565	0.0962	0.562
Mof_C 	C 	0.9396	0.5055	0.7591	0.436
Mof_C 	C 	0.9573	0.488	0.7439	-0.175
Mof_C 	C 	0.9773	0.4766	0.7608	0.129
Mof_H 	H 	0.9803	0.4812	0.7835	0.009
Mof_C 	C 	0.9922	0.4599	0.7478	-0.168
Mof_H 	H 	0.005	0.452	0.7614	0.087
Mof_C 	C 	0.9902	0.453	0.7146	0.022
Mof_C 	C 	0.9686	0.4625	0.6963	-0.135
Mof_H 	H 	0.9645	0.4563	0.6738	0.079
Mof_C 	C 	0.9531	0.4805	0.7108	0.09
Mof_H 	H 	0.9394	0.488	0.698	0.022
Mof_C 	C 	0.0059	0.4337	0.6987	0.192
Mof_C 	C 	0.0022	0.4017	0.7157	-0.306
Mof_H 	H 	0.9911	0.3945	0.7366	0.136
Mof_C 	C 	0.0156	0.3833	0.6997	0.291
Mof_C 	C 	0.0292	0.3914	0.6712	-0.443
Mof_H 	H 	0.0366	0.376	0.6613	0.19
Mof_C 	C 	0.034	0.4213	0.6537	0.38
Mof_C 	C 	0.0208	0.4433	0.6684	-0.34
Mof_H 	H 	0.0225	0.4638	0.6574	0.152
Mof_C 	C 	0.05	0.4307	0.6221	-0.413
Mof_C 	C 	0.0729	0.422	0.6111	0.339
Mof_H 	H 	0.0805	0.4091	0.625	-0.09
Mof_C 	C 	0.0866	0.4301	0.5804	-0.342
Mof_H 	H 	0.106	0.4261	0.5748	0.155
Mof_C 	C 	0.0744	0.4431	0.5589	0.147
Mof_C 	C 	0.0473	0.4502	0.5687	-0.305
Mof_H 	H 	0.0375	0.4605	0.5542	0.152
Mof_C 	C 	0.0356	0.4419	0.6	0.307
Mof_H 	H 	0.0154	0.4443	0.6063	-0.08
Mof_C 	C 	0.0865	0.4495	0.5275	0.307
Mof_C 	C 	0.0224	0.3512	0.7465	-0.114
Mof_H 	H 	0.0321	0.3734	0.7582	0.067
Mof_C 	C 	0.013	0.3498	0.7133	-0.023
Mof_C 	C 	0.9993	0.3174	0.6948	-0.115
Mof_H 	H 	0.9921	0.3167	0.6728	0.07
Mof_C 	C 	0.9967	0.2853	0.7103	0.11
Mof_H 	H 	0.9898	0.264	0.698	0.014
Mof_C 	C 	0.0047	0.2865	0.7439	-0.272
Mof_C 	C 	0.0172	0.3184	0.7625	0.126
Mof_H 	H 	0.0221	0.3185	0.785	0.014
Mof_C 	C 	0.9997	0.256	0.7591	0.657
Mof_Eu	Eu	0.57547	0.86915	0.12171	3.493
Mof_In	In	0.36226	0.8898	0.46994	2.245
Mof_O 	O 	0.51759	0.84111	0.10515	-0.648
Mof_O 	O 	0.53557	0.81396	0.13995	-0.664
Mof_O 	O 	0.59503	0.87727	0.17229	-0.731
Mof_O 	O 	0.55518	0.89224	0.16124	-0.659
Mof_O 	O 	0.74245	0.03407	0.44451	-0.651
Mof_O 	O 	0.75753	0.99646	0.42233	-0.651
Mof_O 	O 	0.58557	0.84603	0.07574	-0.65
Mof_O 	O 	0.61289	0.84785	0.12113	-0.692
Mof_O 	O 	0.41147	0.91923	0.45133	-0.728
Mof_O 	O 	0.38307	0.87453	0.42203	-0.636
Mof_O 	O 	0.77727	0.77873	0.85123	-0.565
Mof_O 	O 	0.73727	0.79363	0.84113	-0.533
Mof_O 	O 	0.67797	0.59333	0.11773	-0.713
Mof_O 	O 	0.65227	0.56253	0.07363	-0.423
Mof_C 	C 	0.51107	0.81483	0.12363	0.407
Mof_C 	C 	0.47438	0.78474	0.12483	-0.174
Mof_C 	C 	0.46627	0.75383	0.14293	0.128
Mof_H 	H 	0.48447	0.75243	0.15523	0.01
Mof_C 	C 	0.43037	0.72473	0.14253	-0.217
Mof_H 	H 	0.42437	0.70393	0.15543	0.111
Mof_C 	C 	0.40327	0.72513	0.12403	0.161
Mof_C 	C 	0.41267	0.75703	0.10613	-0.216
Mof_H 	H 	0.39457	0.75853	0.09373	0.107
Mof_C 	C 	0.44777	0.78623	0.10643	0.133
Mof_H 	H 	0.45377	0.80733	0.09403	0.012
Mof_C 	C 	0.36837	0.69543	0.12383	-0.098
Mof_C 	C 	0.36187	0.66203	0.12423	0.029
Mof_H 	H 	0.38207	0.65823	0.12493	0.02
Mof_C 	C 	0.57587	0.88803	0.18163	0.521
Mof_C 	C 	0.57207	0.89583	0.21383	-0.208
Mof_C 	C 	0.54887	0.90783	0.22423	0.115
Mof_H 	H 	0.53477	0.91233	0.20903	0.014
Mof_C 	C 	0.54637	0.91353	0.25893	-0.161
Mof_H 	H 	0.53077	0.92193	0.26633	0.092
Mof_C 	C 	0.56657	0.90673	0.28073	0.063
Mof_C 	C 	0.58947	0.89283	0.27043	-0.147
Mof_H 	H 	0.60287	0.88763	0.28583	0.082
Mof_C 	C 	0.59177	0.88693	0.23673	0.102
Mof_H 	H 	0.60627	0.87703	0.22943	0.022
Mof_C 	C 	0.56637	0.91473	0.31463	0.083
Mof_C 	C 	0.53637	0.90763	0.33013	-0.164
Mof_H 	H 	0.51377	0.89343	0.31943	0.086
Mof_C 	C 	0.53667	0.91983	0.36093	0.094
Mof_C 	C 	0.56727	0.93283	0.37723	-0.153
Mof_H 	H 	0.56707	0.93843	0.39963	0.081
Mof_C 	C 	0.59977	0.93863	0.36363	0.066
Mof_C 	C 	0.59847	0.92903	0.33123	-0.144
Mof_H 	H 	0.61977	0.93233	0.32063	0.08
Mof_C 	C 	0.63417	0.95703	0.38083	0.064
Mof_C 	C 	0.64287	0.98373	0.40173	-0.141
Mof_H 	H 	0.62527	0.99073	0.40613	0.082
Mof_C 	C 	0.67547	0.00183	0.41763	0.063
Mof_H 	H 	0.68127	0.02143	0.43213	0.033
Mof_C 	C 	0.69997	0.98933	0.41073	-0.124
Mof_C 	C 	0.69197	0.96253	0.39103	0.09
Mof_H 	H 	0.70867	0.95403	0.38813	0.027
Mof_C 	C 	0.66037	0.94663	0.37463	-0.154
Mof_H 	H 	0.65557	0.92843	0.35883	0.082
Mof_C 	C 	0.73557	0.00773	0.42793	0.384
Mof_C 	C 	0.50507	0.91363	0.37583	0.026
Mof_C 	C 	0.47007	0.88583	0.36543	-0.124
Mof_H 	H 	0.46737	0.87243	0.34603	0.07
Mof_C 	C 	0.43877	0.87823	0.38473	0.083
Mof_H 	H 	0.41607	0.85713	0.38043	0.012
Mof_C 	C 	0.44147	0.90183	0.40993	-0.189
Mof_C 	C 	0.47637	0.93173	0.41883	0.068
Mof_H 	H 	0.47867	0.94713	0.43663	0.02
Mof_C 	C 	0.50767	0.93833	0.40063	-0.122
Mof_H 	H 	0.53047	0.95933	0.40503	0.071
Mof_C 	C 	0.40937	0.89833	0.42953	0.583
Mof_C 	C 	0.60627	0.83883	0.09243	0.427
Mof_C 	C 	0.62397	0.82133	0.07723	-0.156
Mof_C 	C 	0.64397	0.80993	0.09413	0.102
Mof_H 	H 	0.64697	0.81453	0.11683	0.019
Mof_C 	C 	0.65887	0.79323	0.08113	-0.138
Mof_H 	H 	0.67167	0.78533	0.09473	0.074
Mof_C 	C 	0.65687	0.78633	0.04793	0.004
Mof_C 	C 	0.63527	0.79583	0.02963	-0.116
Mof_H 	H 	0.63117	0.78963	0.00713	0.073
Mof_C 	C 	0.61977	0.81383	0.04413	0.072
Mof_H 	H 	0.60607	0.82133	0.03133	0.028
Mof_C 	C 	0.67257	0.76703	0.03203	0.202
Mof_C 	C 	0.66887	0.73503	0.04903	-0.32
Mof_H 	H 	0.65777	0.72783	0.06993	0.143
Mof_C 	C 	0.68227	0.71663	0.03303	0.299
Mof_C 	C 	0.69587	0.72473	0.00453	-0.45
Mof_H 	H 	0.70327	0.70933	0.99463	0.192
Mof_C 	C 	0.70067	0.75463	0.98703	0.38
Mof_C 	C 	0.68747	0.77663	0.00173	-0.347
Mof_H 	H 	0.68917	0.79713	0.99073	0.154
Mof_C 	C 	0.71667	0.76403	0.95543	-0.399
Mof_C 	C 	0.73957	0.75533	0.94443	0.32
Mof_H 	H 	0.74717	0.74243	0.95833	-0.084
Mof_C 	C 	0.75327	0.76343	0.91373	-0.321
Mof_H 	H 	0.77267	0.75943	0.90813	0.149
Mof_C 	C 	0.74107	0.77643	0.89223	0.129
Mof_C 	C 	0.71397	0.78353	0.90203	-0.288
Mof_H 	H 	0.70417	0.79383	0.88753	0.146
Mof_C 	C 	0.70227	0.77523	0.93333	0.289
Mof_H 	H 	0.68207	0.77763	0.93963	-0.076
Mof_C 	C 	0.75317	0.78283	0.86083	0.316
Mof_C 	C 	0.68907	0.68453	0.07983	-0.115
Mof_H 	H 	0.69877	0.70673	0.09153	0.067
Mof_C 	C 	0.67967	0.68313	0.04663	-0.028
Mof_C 	C 	0.66597	0.65073	0.02813	-0.112
Mof_H 	H 	0.65877	0.65003	0.00613	0.07
Mof_C 	C 	0.66337	0.61863	0.04363	0.117
Mof_H 	H 	0.65647	0.59733	0.03133	0.012
Mof_C 	C 	0.67137	0.61983	0.07723	-0.284
Mof_C 	C 	0.68387	0.65173	0.09583	0.131
Mof_H 	H 	0.68877	0.65183	0.11833	0.012
Mof_C 	C 	0.66637	0.58933	0.09243	0.67
Mof_Eu	Eu	0.24214	0.20248	0.45504	3.492
Mof_In	In	0.02892	0.22314	0.80328	2.247
Mof_O 	O 	0.18425	0.17445	0.43849	-0.645
Mof_O 	O 	0.20223	0.1473	0.47329	-0.661
Mof_O 	O 	0.26169	0.21061	0.50563	-0.727
Mof_O 	O 	0.22184	0.22558	0.49458	-0.656
Mof_O 	O 	0.40911	0.36741	0.77785	-0.646
Mof_O 	O 	0.42419	0.3298	0.75567	-0.649
Mof_O 	O 	0.25223	0.17937	0.40908	-0.65
Mof_O 	O 	0.27955	0.18119	0.45447	-0.693
Mof_O 	O 	0.07813	0.25257	0.78467	-0.725
Mof_O 	O 	0.04973	0.20787	0.75537	-0.632
Mof_O 	O 	0.44393	0.11207	0.18457	-0.565
Mof_O 	O 	0.40393	0.12697	0.17447	-0.532
Mof_O 	O 	0.34463	0.92667	0.45107	-0.713
Mof_O 	O 	0.31893	0.89587	0.40697	-0.423
Mof_C 	C 	0.17773	0.14817	0.45697	0.397
Mof_C 	C 	0.14104	0.11808	0.45817	-0.15
Mof_C 	C 	0.13293	0.08717	0.47627	0.098
Mof_H 	H 	0.15113	0.08577	0.48857	0.021
Mof_C 	C 	0.09703	0.05807	0.47587	-0.179
Mof_H 	H 	0.09103	0.03727	0.48877	0.096
Mof_C 	C 	0.06993	0.05847	0.45737	0.113
Mof_C 	C 	0.07933	0.09037	0.43947	-0.179
Mof_H 	H 	0.06123	0.09187	0.42707	0.093
Mof_C 	C 	0.11443	0.11957	0.43977	0.102
Mof_H 	H 	0.12043	0.14067	0.42737	0.023
Mof_C 	C 	0.03503	0.02877	0.45717	-0.036
Mof_C 	C 	0.02853	0.99537	0.45757	-0.031
Mof_H 	H 	0.04873	0.99157	0.45827	0.042
Mof_C 	C 	0.24253	0.22137	0.51497	0.507
Mof_C 	C 	0.23873	0.22917	0.54717	-0.18
Mof_C 	C 	0.21553	0.24117	0.55757	0.079
Mof_H 	H 	0.20143	0.24567	0.54237	0.026
Mof_C 	C 	0.21303	0.24687	0.59227	-0.11
Mof_H 	H 	0.19743	0.25527	0.59967	0.073
Mof_C 	C 	0.23323	0.24007	0.61407	-0.005
Mof_C 	C 	0.25613	0.22617	0.60377	-0.1
Mof_H 	H 	0.26953	0.22097	0.61917	0.064
Mof_C 	C 	0.25843	0.22027	0.57007	0.068
Mof_H 	H 	0.27293	0.21037	0.56277	0.034
Mof_C 	C 	0.23303	0.24807	0.64797	0.191
Mof_C 	C 	0.20303	0.24097	0.66347	-0.284
Mof_H 	H 	0.18043	0.22677	0.65277	0.128
Mof_C 	C 	0.20333	0.25317	0.69427	0.211
Mof_C 	C 	0.23393	0.26617	0.71057	-0.27
Mof_H 	H 	0.23373	0.27177	0.73297	0.122
Mof_C 	C 	0.26643	0.27197	0.69697	0.177
Mof_C 	C 	0.26513	0.26237	0.66457	-0.253
Mof_H 	H 	0.28643	0.26567	0.65397	0.119
Mof_C 	C 	0.30083	0.29037	0.71417	-0.038
Mof_C 	C 	0.30953	0.31707	0.73507	-0.05
Mof_H 	H 	0.29193	0.32407	0.73947	0.049
Mof_C 	C 	0.34213	0.33517	0.75097	-0.008
Mof_H 	H 	0.34793	0.35477	0.76547	0.057
Mof_C 	C 	0.36663	0.32267	0.74407	-0.065
Mof_C 	C 	0.35863	0.29587	0.72437	0.005
Mof_H 	H 	0.37533	0.28737	0.72147	0.055
Mof_C 	C 	0.32703	0.27997	0.70797	-0.061
Mof_H 	H 	0.32223	0.26177	0.69217	0.049
Mof_C 	C 	0.40223	0.34107	0.76127	0.365
Mof_C 	C 	0.17173	0.24697	0.70917	-0.047
Mof_C 	C 	0.13673	0.21917	0.69877	-0.075
Mof_H 	H 	0.13403	0.20577	0.67937	0.051
Mof_C 	C 	0.10543	0.21157	0.71807	0.049
Mof_H 	H 	0.08273	0.19047	0.71377	0.024
Mof_C 	C 	0.10813	0.23517	0.74327	-0.164
Mof_C 	C 	0.14303	0.26507	0.75217	0.035
Mof_H 	H 	0.14533	0.28047	0.76997	0.031
Mof_C 	C 	0.17433	0.27167	0.73397	-0.074
Mof_H 	H 	0.19713	0.29267	0.73837	0.053
Mof_C 	C 	0.07603	0.23167	0.76287	0.572
Mof_C 	C 	0.27293	0.17217	0.42577	0.428
Mof_C 	C 	0.29063	0.15467	0.41057	-0.158
Mof_C 	C 	0.31063	0.14327	0.42747	0.104
Mof_H 	H 	0.31363	0.14787	0.45017	0.018
Mof_C 	C 	0.32553	0.12657	0.41447	-0.141
Mof_H 	H 	0.33833	0.11867	0.42807	0.075
Mof_C 	C 	0.32353	0.11967	0.38127	0.007
Mof_C 	C 	0.30193	0.12917	0.36297	-0.118
Mof_H 	H 	0.29783	0.12297	0.34047	0.074
Mof_C 	C 	0.28643	0.14717	0.37747	0.074
Mof_H 	H 	0.27273	0.15467	0.36467	0.027
Mof_C 	C 	0.33923	0.10037	0.36537	0.2
Mof_C 	C 	0.33553	0.06837	0.38237	-0.318
Mof_H 	H 	0.32443	0.06117	0.40327	0.142
Mof_C 	C 	0.34893	0.04997	0.36637	0.298
Mof_C 	C 	0.36253	0.05807	0.33787	-0.448
Mof_H 	H 	0.36993	0.04267	0.32797	0.19
Mof_C 	C 	0.36733	0.08797	0.32037	0.381
Mof_C 	C 	0.35413	0.10997	0.33507	-0.345
Mof_H 	H 	0.35583	0.13047	0.32407	0.153
Mof_C 	C 	0.38333	0.09737	0.28877	-0.406
Mof_C 	C 	0.40623	0.08867	0.27777	0.329
Mof_H 	H 	0.41383	0.07577	0.29167	-0.088
Mof_C 	C 	0.41993	0.09677	0.24707	-0.331
Mof_H 	H 	0.43933	0.09277	0.24147	0.151
Mof_C 	C 	0.40773	0.10977	0.22557	0.137
Mof_C 	C 	0.38063	0.11687	0.23537	-0.296
Mof_H 	H 	0.37083	0.12717	0.22087	0.148
Mof_C 	C 	0.36893	0.10857	0.26667	0.299
Mof_H 	H 	0.34873	0.11097	0.27297	-0.077
Mof_C 	C 	0.41983	0.11617	0.19417	0.312
Mof_C 	C 	0.35573	0.01787	0.41317	-0.119
Mof_H 	H 	0.36543	0.04007	0.42487	0.067
Mof_C 	C 	0.34633	0.01647	0.37997	-0.029
Mof_C 	C 	0.33263	0.98407	0.36147	-0.111
Mof_H 	H 	0.32543	0.98337	0.33947	0.069
Mof_C 	C 	0.33003	0.95197	0.37697	0.117
Mof_H 	H 	0.32313	0.93067	0.36467	0.012
Mof_C 	C 	0.33803	0.95317	0.41057	-0.285
Mof_C 	C 	0.35053	0.98507	0.42917	0.135
Mof_H 	H 	0.35543	0.98517	0.45167	0.011
Mof_C 	C 	0.33303	0.92267	0.42577	0.671
Mof_Eu	Eu	0.46418	0.37299	0.78837	3.492
Mof_In	In	0.44353	0.13912	0.13661	2.245
Mof_O 	O 	0.49222	0.34314	0.77182	-0.648
Mof_O 	O 	0.51937	0.38827	0.80662	-0.664
Mof_O 	O 	0.45606	0.38442	0.83896	-0.726
Mof_O 	O 	0.44109	0.3296	0.82791	-0.655
Mof_O 	O 	0.29926	0.37504	0.11118	-0.645
Mof_O 	O 	0.33687	0.42773	0.089	-0.648
Mof_O 	O 	0.4873	0.4062	0.74241	-0.65
Mof_O 	O 	0.48548	0.4317	0.7878	-0.693
Mof_O 	O 	0.4141	0.1589	0.118	-0.725
Mof_O 	O 	0.4588	0.1752	0.0887	-0.632
Mof_O 	O 	0.5546	0.6652	0.5179	-0.564
Mof_O 	O 	0.5397	0.6103	0.5078	-0.533
Mof_O 	O 	0.74	0.7513	0.7844	-0.713
Mof_O 	O 	0.7708	0.7564	0.7403	-0.423
Mof_C 	C 	0.5185	0.3629	0.7903	0.407
Mof_C 	C 	0.54859	0.3563	0.7915	-0.175
Mof_C 	C 	0.5795	0.3791	0.8096	0.129
Mof_H 	H 	0.5809	0.3987	0.8219	0.01
Mof_C 	C 	0.6086	0.3723	0.8092	-0.218
Mof_H 	H 	0.6294	0.3871	0.8221	0.111
Mof_C 	C 	0.6082	0.3448	0.7907	0.162
Mof_C 	C 	0.5763	0.3223	0.7728	-0.217
Mof_H 	H 	0.5748	0.3027	0.7604	0.107
Mof_C 	C 	0.5471	0.3282	0.7731	0.134
Mof_H 	H 	0.526	0.3131	0.7607	0.012
Mof_C 	C 	0.6379	0.3396	0.7905	-0.099
Mof_C 	C 	0.6713	0.3665	0.7909	0.03
Mof_H 	H 	0.6751	0.3905	0.7916	0.02
Mof_C 	C 	0.4453	0.3545	0.8483	0.506
Mof_C 	C 	0.4375	0.3429	0.8805	-0.176
Mof_C 	C 	0.4255	0.3077	0.8909	0.075
Mof_H 	H 	0.421	0.2891	0.8757	0.028
Mof_C 	C 	0.4198	0.2995	0.9256	-0.104
Mof_H 	H 	0.4114	0.2755	0.933	0.071
Mof_C 	C 	0.4266	0.3265	0.9474	-0.013
Mof_C 	C 	0.4405	0.3633	0.9371	-0.094
Mof_H 	H 	0.4457	0.3819	0.9525	0.063
Mof_C 	C 	0.4464	0.3715	0.9034	0.064
Mof_H 	H 	0.4563	0.3959	0.8961	0.036
Mof_C 	C 	0.4186	0.3183	0.9813	0.204
Mof_C 	C 	0.4257	0.2954	0.9968	-0.297
Mof_H 	H 	0.4399	0.287	0.9861	0.133
Mof_C 	C 	0.4135	0.2835	0.0276	0.224
Mof_C 	C 	0.4005	0.3011	0.0439	-0.285
Mof_H 	H 	0.3949	0.2953	0.0663	0.127
Mof_C 	C 	0.3947	0.3278	0.0303	0.192
Mof_C 	C 	0.4043	0.3361	0.9979	-0.266
Mof_H 	H 	0.401	0.3541	0.9873	0.124
Mof_C 	C 	0.3763	0.3438	0.0475	-0.055
Mof_C 	C 	0.3496	0.3258	0.0684	-0.033
Mof_H 	H 	0.3426	0.3012	0.0728	0.043
Mof_C 	C 	0.3315	0.3403	0.0843	-0.023
Mof_H 	H 	0.3119	0.3265	0.0988	0.063
Mof_C 	C 	0.344	0.3773	0.0774	-0.053
Mof_C 	C 	0.3708	0.3961	0.0577	-0.012
Mof_H 	H 	0.3793	0.4213	0.0548	0.061
Mof_C 	C 	0.3867	0.3804	0.0413	-0.045
Mof_H 	H 	0.4049	0.3938	0.0255	0.043
Mof_C 	C 	0.3256	0.3945	0.0946	0.36
Mof_C 	C 	0.4197	0.2581	0.0425	-0.055
Mof_C 	C 	0.4475	0.2509	0.0321	-0.069
Mof_H 	H 	0.4609	0.2616	0.0127	0.049
Mof_C 	C 	0.4551	0.2272	0.0514	0.045
Mof_H 	H 	0.4762	0.2256	0.0471	0.025
Mof_C 	C 	0.4315	0.2063	0.0766	-0.162
Mof_C 	C 	0.4016	0.2113	0.0855	0.032
Mof_H 	H 	0.3862	0.1982	0.1033	0.032
Mof_C 	C 	0.395	0.236	0.0673	-0.069
Mof_H 	H 	0.374	0.2378	0.0717	0.051
Mof_C 	C 	0.435	0.1777	0.0962	0.571
Mof_C 	C 	0.4945	0.4341	0.7591	0.428
Mof_C 	C 	0.512	0.4693	0.7439	-0.158
Mof_C 	C 	0.5234	0.5007	0.7608	0.104
Mof_H 	H 	0.5188	0.4991	0.7835	0.018
Mof_C 	C 	0.5401	0.5323	0.7478	-0.141
Mof_H 	H 	0.548	0.553	0.7614	0.075
Mof_C 	C 	0.547	0.5372	0.7146	0.006
Mof_C 	C 	0.5375	0.5061	0.6963	-0.119
Mof_H 	H 	0.5437	0.5082	0.6738	0.074
Mof_C 	C 	0.5195	0.4726	0.7108	0.074
Mof_H 	H 	0.512	0.4514	0.698	0.027
Mof_C 	C 	0.5663	0.5722	0.6987	0.2
Mof_C 	C 	0.5983	0.6005	0.7157	-0.318
Mof_H 	H 	0.6055	0.5966	0.7366	0.142
Mof_C 	C 	0.6167	0.6323	0.6997	0.297
Mof_C 	C 	0.6086	0.6378	0.6712	-0.448
Mof_H 	H 	0.624	0.6606	0.6613	0.191
Mof_C 	C 	0.5787	0.6127	0.6537	0.38
Mof_C 	C 	0.5567	0.5775	0.6684	-0.345
Mof_H 	H 	0.5362	0.5587	0.6574	0.153
Mof_C 	C 	0.5693	0.6193	0.6221	-0.405
Mof_C 	C 	0.578	0.6509	0.6111	0.328
Mof_H 	H 	0.5909	0.6714	0.625	-0.086
Mof_C 	C 	0.5699	0.6565	0.5804	-0.329
Mof_H 	H 	0.5739	0.6799	0.5748	0.151
Mof_C 	C 	0.5569	0.6313	0.5589	0.136
Mof_C 	C 	0.5498	0.5971	0.5687	-0.295
Mof_H 	H 	0.5395	0.577	0.5542	0.148
Mof_C 	C 	0.5581	0.5937	0.6	0.297
Mof_H 	H 	0.5557	0.5711	0.6063	-0.078
Mof_C 	C 	0.5505	0.637	0.5275	0.313
Mof_C 	C 	0.6488	0.6712	0.7465	-0.115
Mof_H 	H 	0.6266	0.6587	0.7582	0.067
Mof_C 	C 	0.6502	0.6632	0.7133	-0.027
Mof_C 	C 	0.6826	0.6819	0.6948	-0.113
Mof_H 	H 	0.6833	0.6754	0.6728	0.07
Mof_C 	C 	0.7147	0.7114	0.7103	0.118
Mof_H 	H 	0.736	0.7258	0.698	0.012
Mof_C 	C 	0.7135	0.7182	0.7439	-0.284
Mof_C 	C 	0.6816	0.6988	0.7625	0.131
Mof_H 	H 	0.6815	0.7036	0.785	0.012
Mof_C 	C 	0.744	0.7437	0.7591	0.67
Mof_Eu	Eu	0.13085	0.70632	0.12171	3.493
Mof_In	In	0.1102	0.47245	0.46994	2.246
Mof_O 	O 	0.15889	0.67647	0.10515	-0.648
Mof_O 	O 	0.18604	0.7216	0.13995	-0.664
Mof_O 	O 	0.12273	0.71775	0.17229	-0.731
Mof_O 	O 	0.10776	0.66293	0.16124	-0.659
Mof_O 	O 	0.96593	0.70837	0.44451	-0.651
Mof_O 	O 	0.00354	0.76106	0.42233	-0.65
Mof_O 	O 	0.15397	0.73953	0.07574	-0.65
Mof_O 	O 	0.15215	0.76503	0.12113	-0.693
Mof_O 	O 	0.08077	0.49223	0.45133	-0.728
Mof_O 	O 	0.12547	0.50853	0.42203	-0.636
Mof_O 	O 	0.22127	0.99853	0.85123	-0.563
Mof_O 	O 	0.20637	0.94363	0.84113	-0.532
Mof_O 	O 	0.40667	0.08463	0.11773	-0.715
Mof_O 	O 	0.43747	0.08973	0.07363	-0.425
Mof_C 	C 	0.18517	0.69623	0.12363	0.407
Mof_C 	C 	0.21526	0.68963	0.12483	-0.174
Mof_C 	C 	0.24617	0.71243	0.14293	0.129
Mof_H 	H 	0.24757	0.73203	0.15523	0.01
Mof_C 	C 	0.27527	0.70563	0.14253	-0.217
Mof_H 	H 	0.29607	0.72043	0.15543	0.111
Mof_C 	C 	0.27487	0.67813	0.12403	0.161
Mof_C 	C 	0.24297	0.65563	0.10613	-0.216
Mof_H 	H 	0.24147	0.63603	0.09373	0.107
Mof_C 	C 	0.21377	0.66153	0.10643	0.133
Mof_H 	H 	0.19267	0.64643	0.09403	0.012
Mof_C 	C 	0.30457	0.67293	0.12383	-0.098
Mof_C 	C 	0.33797	0.69983	0.12423	0.029
Mof_H 	H 	0.34177	0.72383	0.12493	0.02
Mof_C 	C 	0.11197	0.68783	0.18163	0.521
Mof_C 	C 	0.10417	0.67623	0.21383	-0.208
Mof_C 	C 	0.09217	0.64103	0.22423	0.115
Mof_H 	H 	0.08767	0.62243	0.20903	0.014
Mof_C 	C 	0.08647	0.63283	0.25893	-0.16
Mof_H 	H 	0.07807	0.60883	0.26633	0.092
Mof_C 	C 	0.09327	0.65983	0.28073	0.063
Mof_C 	C 	0.10717	0.69663	0.27043	-0.146
Mof_H 	H 	0.11237	0.71523	0.28583	0.082
Mof_C 	C 	0.11307	0.70483	0.23673	0.102
Mof_H 	H 	0.12297	0.72923	0.22943	0.023
Mof_C 	C 	0.08527	0.65163	0.31463	0.084
Mof_C 	C 	0.09237	0.62873	0.33013	-0.165
Mof_H 	H 	0.10657	0.62033	0.31943	0.086
Mof_C 	C 	0.08017	0.61683	0.36093	0.095
Mof_C 	C 	0.06717	0.63443	0.37723	-0.153
Mof_H 	H 	0.06157	0.62863	0.39963	0.081
Mof_C 	C 	0.06137	0.66113	0.36363	0.067
Mof_C 	C 	0.07097	0.66943	0.33123	-0.145
Mof_H 	H 	0.06767	0.68743	0.32063	0.081
Mof_C 	C 	0.04297	0.67713	0.38083	0.063
Mof_C 	C 	0.01627	0.65913	0.40173	-0.141
Mof_H 	H 	0.00927	0.63453	0.40613	0.082
Mof_C 	C 	0.99817	0.67363	0.41763	0.062
Mof_H 	H 	0.97857	0.65983	0.43213	0.033
Mof_C 	C 	0.01067	0.71063	0.41073	-0.124
Mof_C 	C 	0.03747	0.72943	0.39103	0.09
Mof_H 	H 	0.04597	0.75463	0.38813	0.027
Mof_C 	C 	0.05337	0.71373	0.37463	-0.153
Mof_H 	H 	0.07157	0.72713	0.35883	0.082
Mof_C 	C 	0.99227	0.72783	0.42793	0.384
Mof_C 	C 	0.08637	0.59143	0.37583	0.026
Mof_C 	C 	0.11417	0.58423	0.36543	-0.124
Mof_H 	H 	0.12757	0.59493	0.34603	0.07
Mof_C 	C 	0.12177	0.56053	0.38473	0.083
Mof_H 	H 	0.14287	0.55893	0.38043	0.013
Mof_C 	C 	0.09817	0.53963	0.40993	-0.189
Mof_C 	C 	0.06827	0.54463	0.41883	0.068
Mof_H 	H 	0.05287	0.53153	0.43663	0.021
Mof_C 	C 	0.06167	0.56933	0.40063	-0.122
Mof_H 	H 	0.04067	0.57113	0.40503	0.071
Mof_C 	C 	0.10167	0.51103	0.42953	0.583
Mof_C 	C 	0.16117	0.76743	0.09243	0.429
Mof_C 	C 	0.17867	0.80263	0.07723	-0.16
Mof_C 	C 	0.19007	0.83403	0.09413	0.107
Mof_H 	H 	0.18547	0.83243	0.11683	0.017
Mof_C 	C 	0.20677	0.86563	0.08113	-0.144
Mof_H 	H 	0.21467	0.88633	0.09473	0.076
Mof_C 	C 	0.21367	0.87053	0.04793	0.008
Mof_C 	C 	0.20417	0.83943	0.02963	-0.121
Mof_H 	H 	0.21037	0.84153	0.00713	0.075
Mof_C 	C 	0.18617	0.80593	0.04413	0.076
Mof_H 	H 	0.17867	0.78473	0.03133	0.027
Mof_C 	C 	0.23297	0.90553	0.03203	0.198
Mof_C 	C 	0.26497	0.93383	0.04903	-0.313
Mof_H 	H 	0.27217	0.92993	0.06993	0.141
Mof_C 	C 	0.28337	0.96563	0.03303	0.289
Mof_C 	C 	0.27527	0.97113	0.00453	-0.444
Mof_H 	H 	0.29067	0.99393	0.99463	0.191
Mof_C 	C 	0.24537	0.94603	0.98703	0.38
Mof_C 	C 	0.22337	0.91083	0.00173	-0.345
Mof_H 	H 	0.20287	0.89203	0.99073	0.153
Mof_C 	C 	0.23597	0.95263	0.95543	-0.407
Mof_C 	C 	0.24467	0.98423	0.94443	0.332
Mof_H 	H 	0.25757	0.00473	0.95833	-0.089
Mof_C 	C 	0.23657	0.98983	0.91373	-0.326
Mof_H 	H 	0.24057	0.01323	0.90813	0.149
Mof_C 	C 	0.22357	0.96463	0.89223	0.136
Mof_C 	C 	0.21647	0.93043	0.90203	-0.296
Mof_H 	H 	0.20617	0.91033	0.88753	0.149
Mof_C 	C 	0.22477	0.92703	0.93333	0.297
Mof_H 	H 	0.22237	0.90443	0.93963	-0.079
Mof_C 	C 	0.21717	0.97033	0.86083	0.313
Mof_C 	C 	0.31547	0.00453	0.07983	-0.135
Mof_H 	H 	0.29327	0.99203	0.09153	0.075
Mof_C 	C 	0.31687	0.99653	0.04663	-0.01
Mof_C 	C 	0.34927	0.01523	0.02813	-0.127
Mof_H 	H 	0.34997	0.00873	0.00613	0.074
Mof_C 	C 	0.38137	0.04473	0.04363	0.128
Mof_H 	H 	0.40267	0.05913	0.03133	0.009
Mof_C 	C 	0.38017	0.05153	0.07723	-0.294
Mof_C 	C 	0.34827	0.03213	0.09583	0.144
Mof_H 	H 	0.34817	0.03693	0.11833	0.006
Mof_C 	C 	0.41067	0.07703	0.09243	0.675
Mof_Eu	Eu	0.79752	0.03966	0.45504	3.487
Mof_In	In	0.77686	0.80579	0.80328	2.247
Mof_O 	O 	0.82555	0.00981	0.43849	-0.646
Mof_O 	O 	0.8527	0.05494	0.47329	-0.661
Mof_O 	O 	0.78939	0.05109	0.50563	-0.735
Mof_O 	O 	0.77442	0.99627	0.49458	-0.659
Mof_O 	O 	0.63259	0.04171	0.77785	-0.664
Mof_O 	O 	0.6702	0.0944	0.75567	-0.665
Mof_O 	O 	0.82063	0.07287	0.40908	-0.65
Mof_O 	O 	0.81881	0.09837	0.45447	-0.691
Mof_O 	O 	0.74743	0.82557	0.78467	-0.732
Mof_O 	O 	0.79213	0.84187	0.75537	-0.64
Mof_O 	O 	0.88793	0.33187	0.18457	-0.565
Mof_O 	O 	0.87303	0.27697	0.17447	-0.533
Mof_O 	O 	0.07333	0.41797	0.45107	-0.713
Mof_O 	O 	0.10413	0.42307	0.40697	-0.423
Mof_C 	C 	0.85183	0.02957	0.45697	0.398
Mof_C 	C 	0.88192	0.02297	0.45817	-0.154
Mof_C 	C 	0.91283	0.04577	0.47627	0.099
Mof_H 	H 	0.91423	0.06537	0.48857	0.02
Mof_C 	C 	0.94193	0.03897	0.47587	-0.18
Mof_H 	H 	0.96273	0.05377	0.48877	0.096
Mof_C 	C 	0.94153	0.01147	0.45737	0.11
Mof_C 	C 	0.90963	0.98897	0.43947	-0.176
Mof_H 	H 	0.90813	0.96937	0.42707	0.093
Mof_C 	C 	0.88043	0.99487	0.43977	0.106
Mof_H 	H 	0.85933	0.97977	0.42737	0.022
Mof_C 	C 	0.97123	0.00627	0.45717	-0.037
Mof_C 	C 	0.00463	0.03317	0.45757	-0.033
Mof_H 	H 	0.00843	0.05717	0.45827	0.043
Mof_C 	C 	0.77863	0.02117	0.51497	0.535
Mof_C 	C 	0.77083	0.00957	0.54717	-0.245
Mof_C 	C 	0.75883	0.97437	0.55757	0.161
Mof_H 	H 	0.75433	0.95577	0.54237	-0.001
Mof_C 	C 	0.75313	0.96617	0.59227	-0.219
Mof_H 	H 	0.74473	0.94217	0.59967	0.113
Mof_C 	C 	0.75993	0.99317	0.61407	0.14
Mof_C 	C 	0.77383	0.02997	0.60377	-0.203
Mof_H 	H 	0.77903	0.04857	0.61917	0.102
Mof_C 	C 	0.77973	0.03817	0.57007	0.144
Mof_H 	H 	0.78963	0.06257	0.56277	0.008
Mof_C 	C 	0.75193	0.98497	0.64797	-0.027
Mof_C 	C 	0.75903	0.96207	0.66347	-0.042
Mof_H 	H 	0.77323	0.95367	0.65277	0.043
Mof_C 	C 	0.74683	0.95017	0.69427	-0.027
Mof_C 	C 	0.73383	0.96777	0.71057	-0.03
Mof_H 	H 	0.72823	0.96197	0.73297	0.038
Mof_C 	C 	0.72803	0.99447	0.69697	-0.05
Mof_C 	C 	0.73763	0.00277	0.66457	-0.037
Mof_H 	H 	0.73433	0.02077	0.65397	0.041
Mof_C 	C 	0.70963	0.01047	0.71417	0.184
Mof_C 	C 	0.68293	0.99247	0.73507	-0.261
Mof_H 	H 	0.67593	0.96787	0.73947	0.123
Mof_C 	C 	0.66483	0.00697	0.75097	0.17
Mof_H 	H 	0.64523	0.99317	0.76547	-0.002
Mof_C 	C 	0.67733	0.04397	0.74407	-0.225
Mof_C 	C 	0.70413	0.06277	0.72437	0.216
Mof_H 	H 	0.71263	0.08797	0.72147	-0.017
Mof_C 	C 	0.72003	0.04707	0.70797	-0.278
Mof_H 	H 	0.73823	0.06047	0.69217	0.125
Mof_C 	C 	0.65893	0.06117	0.76127	0.429
Mof_C 	C 	0.75303	0.92477	0.70917	0.102
Mof_C 	C 	0.78083	0.91757	0.69877	-0.176
Mof_H 	H 	0.79423	0.92827	0.67937	0.09
Mof_C 	C 	0.78843	0.89387	0.71807	0.118
Mof_H 	H 	0.80953	0.89227	0.71377	0.001
Mof_C 	C 	0.76483	0.87297	0.74327	-0.214
Mof_C 	C 	0.73493	0.87797	0.75217	0.102
Mof_H 	H 	0.71953	0.86487	0.76997	0.009
Mof_C 	C 	0.72833	0.90267	0.73397	-0.172
Mof_H 	H 	0.70733	0.90447	0.73837	0.09
Mof_C 	C 	0.76833	0.84437	0.76287	0.594
Mof_C 	C 	0.82783	0.10077	0.42577	0.428
Mof_C 	C 	0.84533	0.13597	0.41057	-0.158
Mof_C 	C 	0.85673	0.16737	0.42747	0.104
Mof_H 	H 	0.85213	0.16577	0.45017	0.018
Mof_C 	C 	0.87343	0.19897	0.41447	-0.14
Mof_H 	H 	0.88133	0.21967	0.42807	0.074
Mof_C 	C 	0.88033	0.20387	0.38127	0.006
Mof_C 	C 	0.87083	0.17277	0.36297	-0.118
Mof_H 	H 	0.87703	0.17487	0.34047	0.074
Mof_C 	C 	0.85283	0.13927	0.37747	0.073
Mof_H 	H 	0.84533	0.11807	0.36467	0.027
Mof_C 	C 	0.89963	0.23887	0.36537	0.2
Mof_C 	C 	0.93163	0.26717	0.38237	-0.318
Mof_H 	H 	0.93883	0.26327	0.40327	0.142
Mof_C 	C 	0.95003	0.29897	0.36637	0.298
Mof_C 	C 	0.94193	0.30447	0.33787	-0.448
Mof_H 	H 	0.95733	0.32727	0.32797	0.19
Mof_C 	C 	0.91203	0.27937	0.32037	0.381
Mof_C 	C 	0.89003	0.24417	0.33507	-0.345
Mof_H 	H 	0.86953	0.22537	0.32407	0.153
Mof_C 	C 	0.90263	0.28597	0.28877	-0.406
Mof_C 	C 	0.91133	0.31757	0.27777	0.329
Mof_H 	H 	0.92423	0.33807	0.29167	-0.088
Mof_C 	C 	0.90323	0.32317	0.24707	-0.331
Mof_H 	H 	0.90723	0.34657	0.24147	0.151
Mof_C 	C 	0.89023	0.29797	0.22557	0.137
Mof_C 	C 	0.88313	0.26377	0.23537	-0.296
Mof_H 	H 	0.87283	0.24367	0.22087	0.148
Mof_C 	C 	0.89143	0.26037	0.26667	0.299
Mof_H 	H 	0.88903	0.23777	0.27297	-0.077
Mof_C 	C 	0.88383	0.30367	0.19417	0.312
Mof_C 	C 	0.98213	0.33787	0.41317	-0.119
Mof_H 	H 	0.95993	0.32537	0.42487	0.067
Mof_C 	C 	0.98353	0.32987	0.37997	-0.029
Mof_C 	C 	0.01593	0.34857	0.36147	-0.11
Mof_H 	H 	0.01663	0.34207	0.33947	0.069
Mof_C 	C 	0.04803	0.37807	0.37697	0.117
Mof_H 	H 	0.06933	0.39247	0.36467	0.012
Mof_C 	C 	0.04683	0.38487	0.41057	-0.285
Mof_C 	C 	0.01493	0.36547	0.42917	0.135
Mof_H 	H 	0.01483	0.37027	0.45167	0.011
Mof_C 	C 	0.07733	0.41037	0.42577	0.671
Mof_Eu	Eu	0.37299	0.90881	0.21163	3.493
Mof_In	In	0.13912	0.69559	0.86339	2.246
Mof_O 	O 	0.34314	0.85092	0.22818	-0.649
Mof_O 	O 	0.38827	0.8689	0.19338	-0.664
Mof_O 	O 	0.38442	0.92836	0.16104	-0.731
Mof_O 	O 	0.3296	0.88851	0.17209	-0.659
Mof_O 	O 	0.37504	0.07578	0.88882	-0.653
Mof_O 	O 	0.42773	0.09086	0.911	-0.656
Mof_O 	O 	0.4062	0.9189	0.25759	-0.648
Mof_O 	O 	0.4317	0.94622	0.2122	-0.691
Mof_O 	O 	0.1589	0.7448	0.882	-0.728
Mof_O 	O 	0.1752	0.7164	0.9113	-0.636
Mof_O 	O 	0.6652	0.1106	0.4821	-0.565
Mof_O 	O 	0.6103	0.0706	0.4922	-0.534
Mof_O 	O 	0.7513	0.0113	0.2156	-0.719
Mof_O 	O 	0.7564	0.9856	0.2597	-0.425
Mof_C 	C 	0.3629	0.8444	0.2097	0.407
Mof_C 	C 	0.3563	0.80771	0.2085	-0.174
Mof_C 	C 	0.3791	0.7996	0.1904	0.128
Mof_H 	H 	0.3987	0.8178	0.1781	0.01
Mof_C 	C 	0.3723	0.7637	0.1908	-0.217
Mof_H 	H 	0.3871	0.7577	0.1779	0.11
Mof_C 	C 	0.3448	0.7366	0.2093	0.161
Mof_C 	C 	0.3223	0.746	0.2272	-0.216
Mof_H 	H 	0.3027	0.7279	0.2396	0.107
Mof_C 	C 	0.3282	0.7811	0.2269	0.133
Mof_H 	H 	0.3131	0.7871	0.2393	0.012
Mof_C 	C 	0.3396	0.7017	0.2095	-0.097
Mof_C 	C 	0.3665	0.6952	0.2091	0.028
Mof_H 	H 	0.3905	0.7154	0.2084	0.02
Mof_C 	C 	0.3545	0.9092	0.1517	0.52
Mof_C 	C 	0.3429	0.9054	0.1195	-0.205
Mof_C 	C 	0.3077	0.8822	0.1091	0.112
Mof_H 	H 	0.2891	0.8681	0.1243	0.015
Mof_C 	C 	0.2995	0.8797	0.0744	-0.156
Mof_H 	H 	0.2755	0.8641	0.067	0.09
Mof_C 	C 	0.3265	0.8999	0.0526	0.056
Mof_C 	C 	0.3633	0.9228	0.0629	-0.142
Mof_H 	H 	0.3819	0.9362	0.0475	0.08
Mof_C 	C 	0.3715	0.9251	0.0966	0.099
Mof_H 	H 	0.3959	0.9396	0.1039	0.024
Mof_C 	C 	0.3183	0.8997	0.0187	0.094
Mof_C 	C 	0.2954	0.8697	0.0032	-0.177
Mof_H 	H 	0.287	0.8471	0.0139	0.09
Mof_C 	C 	0.2835	0.87	0.9724	0.106
Mof_C 	C 	0.3011	0.9006	0.9561	-0.164
Mof_H 	H 	0.2953	0.9004	0.9337	0.084
Mof_C 	C 	0.3278	0.9331	0.9697	0.075
Mof_C 	C 	0.3361	0.9318	0.0021	-0.155
Mof_H 	H 	0.3541	0.9531	0.0127	0.084
Mof_C 	C 	0.3438	0.9675	0.9525	0.059
Mof_C 	C 	0.3258	0.9762	0.9316	-0.14
Mof_H 	H 	0.3012	0.9586	0.9272	0.081
Mof_C 	C 	0.3403	0.0088	0.9157	0.067
Mof_H 	H 	0.3265	0.0146	0.9012	0.031
Mof_C 	C 	0.3773	0.0333	0.9226	-0.13
Mof_C 	C 	0.3961	0.0253	0.9423	0.088
Mof_H 	H 	0.4213	0.042	0.9452	0.027
Mof_C 	C 	0.3804	0.9937	0.9587	-0.148
Mof_H 	H 	0.3938	0.9889	0.9745	0.081
Mof_C 	C 	0.3945	0.0689	0.9054	0.391
Mof_C 	C 	0.2581	0.8384	0.9575	0.019
Mof_C 	C 	0.2509	0.8034	0.9679	-0.119
Mof_H 	H 	0.2616	0.8007	0.9873	0.068
Mof_C 	C 	0.2272	0.7721	0.9486	0.079
Mof_H 	H 	0.2256	0.7494	0.9529	0.014
Mof_C 	C 	0.2063	0.7748	0.9234	-0.186
Mof_C 	C 	0.2113	0.8097	0.9145	0.065
Mof_H 	H 	0.1982	0.812	0.8967	0.021
Mof_C 	C 	0.236	0.841	0.9327	-0.118
Mof_H 	H 	0.2378	0.8638	0.9283	0.069
Mof_C 	C 	0.1777	0.7427	0.9038	0.582
Mof_C 	C 	0.4341	0.9396	0.2409	0.421
Mof_C 	C 	0.4693	0.9573	0.2561	-0.141
Mof_C 	C 	0.5007	0.9773	0.2392	0.079
Mof_H 	H 	0.4991	0.9803	0.2165	0.027
Mof_C 	C 	0.5323	0.9922	0.2522	-0.114
Mof_H 	H 	0.553	0.005	0.2386	0.064
Mof_C 	C 	0.5372	0.9902	0.2854	-0.009
Mof_C 	C 	0.5061	0.9686	0.3037	-0.103
Mof_H 	H 	0.5082	0.9645	0.3262	0.069
Mof_C 	C 	0.4726	0.9531	0.2892	0.057
Mof_H 	H 	0.4514	0.9394	0.302	0.033
Mof_C 	C 	0.5722	0.0059	0.3013	0.208
Mof_C 	C 	0.6005	0.0022	0.2843	-0.33
Mof_H 	H 	0.5966	0.9911	0.2634	0.149
Mof_C 	C 	0.6323	0.0156	0.3003	0.304
Mof_C 	C 	0.6378	0.0292	0.3288	-0.452
Mof_H 	H 	0.6606	0.0366	0.3387	0.191
Mof_C 	C 	0.6127	0.034	0.3463	0.379
Mof_C 	C 	0.5775	0.0208	0.3316	-0.35
Mof_H 	H 	0.5587	0.0225	0.3426	0.154
Mof_C 	C 	0.6193	0.05	0.3779	-0.397
Mof_C 	C 	0.6509	0.0729	0.3889	0.316
Mof_H 	H 	0.6714	0.0805	0.375	-0.083
Mof_C 	C 	0.6565	0.0866	0.4196	-0.317
Mof_H 	H 	0.6799	0.106	0.4252	0.147
Mof_C 	C 	0.6313	0.0744	0.4411	0.126
Mof_C 	C 	0.5971	0.0473	0.4313	-0.286
Mof_H 	H 	0.577	0.0375	0.4458	0.144
Mof_C 	C 	0.5937	0.0356	0.4	0.286
Mof_H 	H 	0.5711	0.0154	0.3937	-0.076
Mof_C 	C 	0.637	0.0865	0.4725	0.318
Mof_C 	C 	0.6712	0.0224	0.2535	-0.117
Mof_H 	H 	0.6587	0.0321	0.2418	0.067
Mof_C 	C 	0.6632	0.013	0.2867	-0.03
Mof_C 	C 	0.6819	0.9993	0.3052	-0.111
Mof_H 	H 	0.6754	0.9921	0.3272	0.071
Mof_C 	C 	0.7114	0.9967	0.2897	0.125
Mof_H 	H 	0.7258	0.9898	0.302	0.01
Mof_C 	C 	0.7182	0.0047	0.2561	-0.296
Mof_C 	C 	0.6988	0.0172	0.2375	0.137
Mof_H 	H 	0.7036	0.0221	0.215	0.009
Mof_C 	C 	0.7437	0.9997	0.2409	0.683
Mof_Eu	Eu	0.03966	0.24214	0.54496	3.496
Mof_In	In	0.80579	0.02892	0.19672	2.242
Mof_O 	O 	0.00981	0.18425	0.56151	-0.65
Mof_O 	O 	0.05494	0.20223	0.52671	-0.666
Mof_O 	O 	0.05109	0.26169	0.49437	-0.718
Mof_O 	O 	0.99627	0.22184	0.50542	-0.652
Mof_O 	O 	0.04171	0.40911	0.22215	-0.628
Mof_O 	O 	0.0944	0.42419	0.24433	-0.633
Mof_O 	O 	0.07287	0.25223	0.59092	-0.65
Mof_O 	O 	0.09837	0.27955	0.54553	-0.694
Mof_O 	O 	0.82557	0.07813	0.21533	-0.719
Mof_O 	O 	0.84187	0.04973	0.24463	-0.626
Mof_O 	O 	0.33187	0.44393	0.81543	-0.564
Mof_O 	O 	0.27697	0.40393	0.82553	-0.532
Mof_O 	O 	0.41797	0.34463	0.54893	-0.713
Mof_O 	O 	0.42307	0.31893	0.59303	-0.423
Mof_C 	C 	0.02957	0.17773	0.54303	0.416
Mof_C 	C 	0.02297	0.14104	0.54183	-0.195
Mof_C 	C 	0.04577	0.13293	0.52373	0.158
Mof_H 	H 	0.06537	0.15113	0.51143	0
Mof_C 	C 	0.03897	0.09703	0.52413	-0.256
Mof_H 	H 	0.05377	0.09103	0.51123	0.125
Mof_C 	C 	0.01147	0.06993	0.54263	0.213
Mof_C 	C 	0.98897	0.07933	0.56053	-0.257
Mof_H 	H 	0.96937	0.06123	0.57293	0.12
Mof_C 	C 	0.99487	0.11443	0.56023	0.161
Mof_H 	H 	0.97977	0.12043	0.57263	0.001
Mof_C 	C 	0.00627	0.03503	0.54283	-0.162
Mof_C 	C 	0.03317	0.02853	0.54243	0.093
Mof_H 	H 	0.05717	0.04873	0.54173	-0.002
Mof_C 	C 	0.02117	0.24253	0.48503	0.479
Mof_C 	C 	0.00957	0.23873	0.45283	-0.114
Mof_C 	C 	0.97437	0.21553	0.44243	-0.004
Mof_H 	H 	0.95577	0.20143	0.45763	0.054
Mof_C 	C 	0.96617	0.21303	0.40773	-0
Mof_H 	H 	0.94217	0.19743	0.40033	0.032
Mof_C 	C 	0.99317	0.23323	0.38593	-0.152
Mof_C 	C 	0.02997	0.25613	0.39623	0.005
Mof_H 	H 	0.04857	0.26953	0.38083	0.026
Mof_C 	C 	0.03817	0.25843	0.42993	-0.009
Mof_H 	H 	0.06257	0.27293	0.43723	0.061
Mof_C 	C 	0.98497	0.23303	0.35203	0.413
Mof_C 	C 	0.96207	0.20303	0.33653	-0.53
Mof_H 	H 	0.95367	0.18043	0.34723	0.214
Mof_C 	C 	0.95017	0.20333	0.30573	0.451
Mof_C 	C 	0.96777	0.23393	0.28943	-0.513
Mof_H 	H 	0.96197	0.23373	0.26703	0.206
Mof_C 	C 	0.99447	0.26643	0.30303	0.407
Mof_C 	C 	0.00277	0.26513	0.33543	-0.472
Mof_H 	H 	0.02077	0.28643	0.34603	0.198
Mof_C 	C 	0.01047	0.30083	0.28583	-0.264
Mof_C 	C 	0.99247	0.30953	0.26493	0.164
Mof_H 	H 	0.96787	0.29193	0.26053	-0.026
Mof_C 	C 	0.00697	0.34213	0.24903	-0.189
Mof_H 	H 	0.99317	0.34793	0.23453	0.118
Mof_C 	C 	0.04397	0.36663	0.25593	0.097
Mof_C 	C 	0.06277	0.35863	0.27563	-0.21
Mof_H 	H 	0.08797	0.37533	0.27853	0.128
Mof_C 	C 	0.04707	0.32703	0.29203	0.158
Mof_H 	H 	0.06047	0.32223	0.30783	-0.029
Mof_C 	C 	0.06117	0.40223	0.23873	0.301
Mof_C 	C 	0.92477	0.17173	0.29083	-0.198
Mof_C 	C 	0.91757	0.13673	0.30123	0.027
Mof_H 	H 	0.92827	0.13403	0.32063	0.011
Mof_C 	C 	0.89387	0.10543	0.28193	-0.02
Mof_H 	H 	0.89227	0.08273	0.28623	0.047
Mof_C 	C 	0.87297	0.10813	0.25673	-0.114
Mof_C 	C 	0.87797	0.14303	0.24783	-0.032
Mof_H 	H 	0.86487	0.14533	0.23003	0.054
Mof_C 	C 	0.90267	0.17433	0.26603	0.024
Mof_H 	H 	0.90447	0.19713	0.26163	0.015
Mof_C 	C 	0.84437	0.07603	0.23713	0.55
Mof_C 	C 	0.10077	0.27293	0.57423	0.429
Mof_C 	C 	0.13597	0.29063	0.58943	-0.159
Mof_C 	C 	0.16737	0.31063	0.57253	0.105
Mof_H 	H 	0.16577	0.31363	0.54983	0.017
Mof_C 	C 	0.19897	0.32553	0.58553	-0.142
Mof_H 	H 	0.21967	0.33833	0.57193	0.075
Mof_C 	C 	0.20387	0.32353	0.61873	0.007
Mof_C 	C 	0.17277	0.30193	0.63703	-0.119
Mof_H 	H 	0.17487	0.29783	0.65953	0.074
Mof_C 	C 	0.13927	0.28643	0.62253	0.074
Mof_H 	H 	0.11807	0.27273	0.63533	0.027
Mof_C 	C 	0.23887	0.33923	0.63463	0.2
Mof_C 	C 	0.26717	0.33553	0.61763	-0.317
Mof_H 	H 	0.26327	0.32443	0.59673	0.142
Mof_C 	C 	0.29897	0.34893	0.63363	0.297
Mof_C 	C 	0.30447	0.36253	0.66213	-0.447
Mof_H 	H 	0.32727	0.36993	0.67203	0.19
Mof_C 	C 	0.27937	0.36733	0.67963	0.38
Mof_C 	C 	0.24417	0.35413	0.66493	-0.344
Mof_H 	H 	0.22537	0.35583	0.67593	0.152
Mof_C 	C 	0.28597	0.38333	0.71123	-0.405
Mof_C 	C 	0.31757	0.40623	0.72223	0.328
Mof_H 	H 	0.33807	0.41383	0.70833	-0.086
Mof_C 	C 	0.32317	0.41993	0.75293	-0.329
Mof_H 	H 	0.34657	0.43933	0.75853	0.151
Mof_C 	C 	0.29797	0.40773	0.77443	0.136
Mof_C 	C 	0.26377	0.38063	0.76463	-0.296
Mof_H 	H 	0.24367	0.37083	0.77913	0.148
Mof_C 	C 	0.26037	0.36893	0.73333	0.297
Mof_H 	H 	0.23777	0.34873	0.72703	-0.078
Mof_C 	C 	0.30367	0.41983	0.80583	0.312
Mof_C 	C 	0.33787	0.35573	0.58683	-0.116
Mof_H 	H 	0.32537	0.36543	0.57513	0.067
Mof_C 	C 	0.32987	0.34633	0.62003	-0.026
Mof_C 	C 	0.34857	0.33263	0.63853	-0.113
Mof_H 	H 	0.34207	0.32543	0.66053	0.07
Mof_C 	C 	0.37807	0.33003	0.62303	0.118
Mof_H 	H 	0.39247	0.32313	0.63533	0.012
Mof_C 	C 	0.38487	0.33803	0.58943	-0.284
Mof_C 	C 	0.36547	0.35053	0.57083	0.131
Mof_H 	H 	0.37027	0.35543	0.54833	0.011
Mof_C 	C 	0.41037	0.33303	0.57423	0.67
Mof_Eu	Eu	0.70632	0.57547	0.87829	3.493
Mof_In	In	0.47245	0.36226	0.53006	2.246
Mof_O 	O 	0.67647	0.51759	0.89485	-0.648
Mof_O 	O 	0.7216	0.53557	0.86005	-0.664
Mof_O 	O 	0.71775	0.59503	0.82771	-0.727
Mof_O 	O 	0.66293	0.55518	0.83876	-0.656
Mof_O 	O 	0.70837	0.74245	0.55549	-0.646
Mof_O 	O 	0.76106	0.75753	0.57767	-0.649
Mof_O 	O 	0.73953	0.58557	0.92426	-0.65
Mof_O 	O 	0.76503	0.61289	0.87887	-0.692
Mof_O 	O 	0.49223	0.41147	0.54867	-0.725
Mof_O 	O 	0.50853	0.38307	0.57797	-0.633
Mof_O 	O 	0.99853	0.77727	0.14877	-0.565
Mof_O 	O 	0.94363	0.73727	0.15887	-0.532
Mof_O 	O 	0.08463	0.67797	0.88227	-0.711
Mof_O 	O 	0.08973	0.65227	0.92637	-0.421
Mof_C 	C 	0.69623	0.51107	0.87637	0.407
Mof_C 	C 	0.68963	0.47438	0.87517	-0.174
Mof_C 	C 	0.71243	0.46627	0.85707	0.129
Mof_H 	H 	0.73203	0.48447	0.84477	0.01
Mof_C 	C 	0.70563	0.43037	0.85747	-0.218
Mof_H 	H 	0.72043	0.42437	0.84457	0.111
Mof_C 	C 	0.67813	0.40327	0.87597	0.162
Mof_C 	C 	0.65563	0.41267	0.89387	-0.217
Mof_H 	H 	0.63603	0.39457	0.90627	0.107
Mof_C 	C 	0.66153	0.44777	0.89357	0.133
Mof_H 	H 	0.64643	0.45377	0.90597	0.012
Mof_C 	C 	0.67293	0.36837	0.87617	-0.099
Mof_C 	C 	0.69983	0.36187	0.87577	0.03
Mof_H 	H 	0.72383	0.38207	0.87507	0.02
Mof_C 	C 	0.68783	0.57587	0.81837	0.507
Mof_C 	C 	0.67623	0.57207	0.78617	-0.18
Mof_C 	C 	0.64103	0.54887	0.77577	0.079
Mof_H 	H 	0.62243	0.53477	0.79097	0.026
Mof_C 	C 	0.63283	0.54637	0.74107	-0.11
Mof_H 	H 	0.60883	0.53077	0.73367	0.073
Mof_C 	C 	0.65983	0.56657	0.71927	-0.005
Mof_C 	C 	0.69663	0.58947	0.72957	-0.1
Mof_H 	H 	0.71523	0.60287	0.71417	0.065
Mof_C 	C 	0.70483	0.59177	0.76327	0.068
Mof_H 	H 	0.72923	0.60627	0.77057	0.034
Mof_C 	C 	0.65163	0.56637	0.68537	0.191
Mof_C 	C 	0.62873	0.53637	0.66987	-0.284
Mof_H 	H 	0.62033	0.51377	0.68057	0.128
Mof_C 	C 	0.61683	0.53667	0.63907	0.21
Mof_C 	C 	0.63443	0.56727	0.62277	-0.27
Mof_H 	H 	0.62863	0.56707	0.60037	0.122
Mof_C 	C 	0.66113	0.59977	0.63637	0.177
Mof_C 	C 	0.66943	0.59847	0.66877	-0.253
Mof_H 	H 	0.68743	0.61977	0.67937	0.119
Mof_C 	C 	0.67713	0.63417	0.61917	-0.038
Mof_C 	C 	0.65913	0.64287	0.59827	-0.05
Mof_H 	H 	0.63453	0.62527	0.59387	0.049
Mof_C 	C 	0.67363	0.67547	0.58237	-0.008
Mof_H 	H 	0.65983	0.68127	0.56787	0.057
Mof_C 	C 	0.71063	0.69997	0.58927	-0.065
Mof_C 	C 	0.72943	0.69197	0.60897	0.005
Mof_H 	H 	0.75463	0.70867	0.61187	0.055
Mof_C 	C 	0.71373	0.66037	0.62537	-0.061
Mof_H 	H 	0.72713	0.65557	0.64117	0.049
Mof_C 	C 	0.72783	0.73557	0.57207	0.365
Mof_C 	C 	0.59143	0.50507	0.62417	-0.047
Mof_C 	C 	0.58423	0.47007	0.63457	-0.075
Mof_H 	H 	0.59493	0.46737	0.65397	0.051
Mof_C 	C 	0.56053	0.43877	0.61527	0.049
Mof_H 	H 	0.55893	0.41607	0.61957	0.024
Mof_C 	C 	0.53963	0.44147	0.59007	-0.164
Mof_C 	C 	0.54463	0.47637	0.58117	0.036
Mof_H 	H 	0.53153	0.47867	0.56337	0.031
Mof_C 	C 	0.56933	0.50767	0.59937	-0.075
Mof_H 	H 	0.57113	0.53047	0.59497	0.053
Mof_C 	C 	0.51103	0.40937	0.57047	0.572
Mof_C 	C 	0.76743	0.60627	0.90757	0.428
Mof_C 	C 	0.80263	0.62397	0.92277	-0.157
Mof_C 	C 	0.83403	0.64397	0.90587	0.103
Mof_H 	H 	0.83243	0.64697	0.88317	0.018
Mof_C 	C 	0.86563	0.65887	0.91887	-0.139
Mof_H 	H 	0.88633	0.67167	0.90527	0.074
Mof_C 	C 	0.87053	0.65687	0.95207	0.005
Mof_C 	C 	0.83943	0.63527	0.97037	-0.117
Mof_H 	H 	0.84153	0.63117	0.99287	0.074
Mof_C 	C 	0.80593	0.61977	0.95587	0.073
Mof_H 	H 	0.78473	0.60607	0.96867	0.028
Mof_C 	C 	0.90553	0.67257	0.96797	0.202
Mof_C 	C 	0.93383	0.66887	0.95097	-0.322
Mof_H 	H 	0.92993	0.65777	0.93007	0.144
Mof_C 	C 	0.96563	0.68227	0.96697	0.304
Mof_C 	C 	0.97113	0.69587	0.99547	-0.45
Mof_H 	H 	0.99393	0.70327	0.00537	0.19
Mof_C 	C 	0.94603	0.70067	0.01297	0.379
Mof_C 	C 	0.91083	0.68747	0.99827	-0.344
Mof_H 	H 	0.89203	0.68917	0.00927	0.152
Mof_C 	C 	0.95263	0.71667	0.04457	-0.403
Mof_C 	C 	0.98423	0.73957	0.05557	0.324
Mof_H 	H 	0.00473	0.74717	0.04167	-0.083
Mof_C 	C 	0.98983	0.75327	0.08627	-0.333
Mof_H 	H 	0.01323	0.77267	0.09187	0.155
Mof_C 	C 	0.96463	0.74107	0.10777	0.138
Mof_C 	C 	0.93043	0.71397	0.09797	-0.296
Mof_H 	H 	0.91033	0.70417	0.11247	0.148
Mof_C 	C 	0.92703	0.70227	0.06667	0.297
Mof_H 	H 	0.90443	0.68207	0.06037	-0.077
Mof_C 	C 	0.97033	0.75317	0.13917	0.311
Mof_C 	C 	0.00453	0.68907	0.92017	-0.096
Mof_H 	H 	0.99203	0.69877	0.90847	0.059
Mof_C 	C 	0.99653	0.67967	0.95337	-0.042
Mof_C 	C 	0.01523	0.66597	0.97187	-0.1
Mof_H 	H 	0.00873	0.65877	0.99387	0.067
Mof_C 	C 	0.04473	0.66337	0.95637	0.108
Mof_H 	H 	0.05913	0.65647	0.96867	0.016
Mof_C 	C 	0.05153	0.67137	0.92277	-0.274
Mof_C 	C 	0.03213	0.68387	0.90417	0.119
Mof_H 	H 	0.03693	0.68877	0.88167	0.017
Mof_C 	C 	0.07703	0.66637	0.90757	0.665
Mof_Eu	Eu	0.0912	0.46418	0.21163	3.493
Mof_In	In	0.30441	0.44353	0.86339	2.246
Mof_O 	O 	0.14908	0.49222	0.22818	-0.649
Mof_O 	O 	0.1311	0.51937	0.19338	-0.664
Mof_O 	O 	0.07164	0.45606	0.16104	-0.731
Mof_O 	O 	0.11149	0.44109	0.17209	-0.659
Mof_O 	O 	0.92422	0.29926	0.88882	-0.653
Mof_O 	O 	0.90914	0.33687	0.911	-0.656
Mof_O 	O 	0.0811	0.4873	0.25759	-0.648
Mof_O 	O 	0.05378	0.48548	0.2122	-0.69
Mof_O 	O 	0.2552	0.4141	0.882	-0.728
Mof_O 	O 	0.2836	0.4588	0.9113	-0.636
Mof_O 	O 	0.8894	0.5546	0.4821	-0.566
Mof_O 	O 	0.9294	0.5397	0.4922	-0.534
Mof_O 	O 	0.9887	0.74	0.2156	-0.719
Mof_O 	O 	0.0144	0.7708	0.2597	-0.425
Mof_C 	C 	0.1556	0.5185	0.2097	0.407
Mof_C 	C 	0.19229	0.54859	0.2085	-0.174
Mof_C 	C 	0.2004	0.5795	0.1904	0.128
Mof_H 	H 	0.1822	0.5809	0.1781	0.01
Mof_C 	C 	0.2363	0.6086	0.1908	-0.217
Mof_H 	H 	0.2423	0.6294	0.1779	0.11
Mof_C 	C 	0.2634	0.6082	0.2093	0.161
Mof_C 	C 	0.254	0.5763	0.2272	-0.216
Mof_H 	H 	0.2721	0.5748	0.2396	0.107
Mof_C 	C 	0.2189	0.5471	0.2269	0.133
Mof_H 	H 	0.2129	0.526	0.2393	0.012
Mof_C 	C 	0.2983	0.6379	0.2095	-0.097
Mof_C 	C 	0.3048	0.6713	0.2091	0.028
Mof_H 	H 	0.2846	0.6751	0.2084	0.02
Mof_C 	C 	0.0908	0.4453	0.1517	0.52
Mof_C 	C 	0.0946	0.4375	0.1195	-0.205
Mof_C 	C 	0.1178	0.4255	0.1091	0.112
Mof_H 	H 	0.1319	0.421	0.1243	0.015
Mof_C 	C 	0.1203	0.4198	0.0744	-0.156
Mof_H 	H 	0.1359	0.4114	0.067	0.09
Mof_C 	C 	0.1001	0.4266	0.0526	0.057
Mof_C 	C 	0.0772	0.4405	0.0629	-0.142
Mof_H 	H 	0.0638	0.4457	0.0475	0.08
Mof_C 	C 	0.0749	0.4464	0.0966	0.099
Mof_H 	H 	0.0604	0.4563	0.1039	0.024
Mof_C 	C 	0.1003	0.4186	0.0187	0.093
Mof_C 	C 	0.1303	0.4257	0.0032	-0.177
Mof_H 	H 	0.1529	0.4399	0.0139	0.09
Mof_C 	C 	0.13	0.4135	0.9724	0.105
Mof_C 	C 	0.0994	0.4005	0.9561	-0.163
Mof_H 	H 	0.0996	0.3949	0.9337	0.084
Mof_C 	C 	0.0669	0.3947	0.9697	0.075
Mof_C 	C 	0.0682	0.4043	0.0021	-0.155
Mof_H 	H 	0.0469	0.401	0.0127	0.084
Mof_C 	C 	0.0325	0.3763	0.9525	0.059
Mof_C 	C 	0.0238	0.3496	0.9316	-0.14
Mof_H 	H 	0.0414	0.3426	0.9272	0.081
Mof_C 	C 	0.9912	0.3315	0.9157	0.067
Mof_H 	H 	0.9854	0.3119	0.9012	0.031
Mof_C 	C 	0.9667	0.344	0.9226	-0.13
Mof_C 	C 	0.9747	0.3708	0.9423	0.088
Mof_H 	H 	0.958	0.3793	0.9452	0.027
Mof_C 	C 	0.0063	0.3867	0.9587	-0.148
Mof_H 	H 	0.0111	0.4049	0.9745	0.081
Mof_C 	C 	0.9311	0.3256	0.9054	0.391
Mof_C 	C 	0.1616	0.4197	0.9575	0.019
Mof_C 	C 	0.1966	0.4475	0.9679	-0.119
Mof_H 	H 	0.1993	0.4609	0.9873	0.068
Mof_C 	C 	0.2279	0.4551	0.9486	0.08
Mof_H 	H 	0.2506	0.4762	0.9529	0.014
Mof_C 	C 	0.2252	0.4315	0.9234	-0.186
Mof_C 	C 	0.1903	0.4016	0.9145	0.065
Mof_H 	H 	0.188	0.3862	0.8967	0.021
Mof_C 	C 	0.159	0.395	0.9327	-0.118
Mof_H 	H 	0.1362	0.374	0.9283	0.069
Mof_C 	C 	0.2573	0.435	0.9038	0.582
Mof_C 	C 	0.0604	0.4945	0.2409	0.421
Mof_C 	C 	0.0427	0.512	0.2561	-0.142
Mof_C 	C 	0.0227	0.5234	0.2392	0.08
Mof_H 	H 	0.0197	0.5188	0.2165	0.027
Mof_C 	C 	0.0078	0.5401	0.2522	-0.114
Mof_H 	H 	0.995	0.548	0.2386	0.064
Mof_C 	C 	0.0098	0.547	0.2854	-0.009
Mof_C 	C 	0.0314	0.5375	0.3037	-0.103
Mof_H 	H 	0.0355	0.5437	0.3262	0.069
Mof_C 	C 	0.0469	0.5195	0.2892	0.057
Mof_H 	H 	0.0606	0.512	0.302	0.033
Mof_C 	C 	0.9941	0.5663	0.3013	0.208
Mof_C 	C 	0.9978	0.5983	0.2843	-0.33
Mof_H 	H 	0.0089	0.6055	0.2634	0.149
Mof_C 	C 	0.9844	0.6167	0.3003	0.304
Mof_C 	C 	0.9708	0.6086	0.3288	-0.452
Mof_H 	H 	0.9634	0.624	0.3387	0.191
Mof_C 	C 	0.966	0.5787	0.3463	0.379
Mof_C 	C 	0.9792	0.5567	0.3316	-0.35
Mof_H 	H 	0.9775	0.5362	0.3426	0.154
Mof_C 	C 	0.95	0.5693	0.3779	-0.397
Mof_C 	C 	0.9271	0.578	0.3889	0.316
Mof_H 	H 	0.9195	0.5909	0.375	-0.083
Mof_C 	C 	0.9134	0.5699	0.4196	-0.317
Mof_H 	H 	0.894	0.5739	0.4252	0.147
Mof_C 	C 	0.9256	0.5569	0.4411	0.126
Mof_C 	C 	0.9527	0.5498	0.4313	-0.286
Mof_H 	H 	0.9625	0.5395	0.4458	0.144
Mof_C 	C 	0.9644	0.5581	0.4	0.286
Mof_H 	H 	0.9846	0.5557	0.3937	-0.076
Mof_C 	C 	0.9135	0.5505	0.4725	0.318
Mof_C 	C 	0.9776	0.6488	0.2535	-0.117
Mof_H 	H 	0.9679	0.6266	0.2418	0.067
Mof_C 	C 	0.987	0.6502	0.2867	-0.03
Mof_C 	C 	0.0007	0.6826	0.3052	-0.111
Mof_H 	H 	0.0079	0.6833	0.3272	0.071
Mof_C 	C 	0.0033	0.7147	0.2897	0.125
Mof_H 	H 	0.0102	0.736	0.302	0.01
Mof_C 	C 	0.9953	0.7135	0.2561	-0.296
Mof_C 	C 	0.9828	0.6816	0.2375	0.137
Mof_H 	H 	0.9779	0.6815	0.215	0.009
Mof_C 	C 	0.0003	0.744	0.2409	0.683
Mof_Eu	Eu	0.75786	0.79752	0.54496	3.492
Mof_In	In	0.97108	0.77686	0.19672	2.245
Mof_O 	O 	0.81575	0.82555	0.56151	-0.65
Mof_O 	O 	0.79777	0.8527	0.52671	-0.666
Mof_O 	O 	0.73831	0.78939	0.49437	-0.727
Mof_O 	O 	0.77816	0.77442	0.50542	-0.656
Mof_O 	O 	0.59089	0.63259	0.22215	-0.646
Mof_O 	O 	0.57581	0.6702	0.24433	-0.649
Mof_O 	O 	0.74777	0.82063	0.59092	-0.65
Mof_O 	O 	0.72045	0.81881	0.54553	-0.693
Mof_O 	O 	0.92187	0.74743	0.21533	-0.726
Mof_O 	O 	0.95027	0.79213	0.24463	-0.633
Mof_O 	O 	0.55607	0.88793	0.81543	-0.564
Mof_O 	O 	0.59607	0.87303	0.82553	-0.532
Mof_O 	O 	0.65537	0.07333	0.54893	-0.713
Mof_O 	O 	0.68107	0.10413	0.59303	-0.423
Mof_C 	C 	0.82227	0.85183	0.54303	0.417
Mof_C 	C 	0.85896	0.88192	0.54183	-0.198
Mof_C 	C 	0.86707	0.91283	0.52373	0.159
Mof_H 	H 	0.84887	0.91423	0.51143	0
Mof_C 	C 	0.90297	0.94193	0.52413	-0.255
Mof_H 	H 	0.90897	0.96273	0.51123	0.125
Mof_C 	C 	0.93007	0.94153	0.54263	0.21
Mof_C 	C 	0.92067	0.90963	0.56053	-0.254
Mof_H 	H 	0.93877	0.90813	0.57293	0.12
Mof_C 	C 	0.88557	0.88043	0.56023	0.164
Mof_H 	H 	0.87957	0.85933	0.57263	0.001
Mof_C 	C 	0.96497	0.97123	0.54283	-0.16
Mof_C 	C 	0.97147	0.00463	0.54243	0.089
Mof_H 	H 	0.95127	0.00843	0.54173	-0.002
Mof_C 	C 	0.75747	0.77863	0.48503	0.507
Mof_C 	C 	0.76127	0.77083	0.45283	-0.179
Mof_C 	C 	0.78447	0.75883	0.44243	0.079
Mof_H 	H 	0.79857	0.75433	0.45763	0.026
Mof_C 	C 	0.78697	0.75313	0.40773	-0.11
Mof_H 	H 	0.80257	0.74473	0.40033	0.073
Mof_C 	C 	0.76677	0.75993	0.38593	-0.005
Mof_C 	C 	0.74387	0.77383	0.39623	-0.099
Mof_H 	H 	0.73047	0.77903	0.38083	0.064
Mof_C 	C 	0.74157	0.77973	0.42993	0.068
Mof_H 	H 	0.72707	0.78963	0.43723	0.034
Mof_C 	C 	0.76697	0.75193	0.35203	0.192
Mof_C 	C 	0.79697	0.75903	0.33653	-0.284
Mof_H 	H 	0.81957	0.77323	0.34723	0.128
Mof_C 	C 	0.79667	0.74683	0.30573	0.211
Mof_C 	C 	0.76607	0.73383	0.28943	-0.271
Mof_H 	H 	0.76627	0.72823	0.26703	0.122
Mof_C 	C 	0.73357	0.72803	0.30303	0.178
Mof_C 	C 	0.73487	0.73763	0.33543	-0.254
Mof_H 	H 	0.71357	0.73433	0.34603	0.119
Mof_C 	C 	0.69917	0.70963	0.28583	-0.039
Mof_C 	C 	0.69047	0.68293	0.26493	-0.049
Mof_H 	H 	0.70807	0.67593	0.26053	0.049
Mof_C 	C 	0.65787	0.66483	0.24903	-0.009
Mof_H 	H 	0.65207	0.64523	0.23453	0.058
Mof_C 	C 	0.63337	0.67733	0.25593	-0.065
Mof_C 	C 	0.64137	0.70413	0.27563	0.004
Mof_H 	H 	0.62467	0.71263	0.27853	0.056
Mof_C 	C 	0.67297	0.72003	0.29203	-0.061
Mof_H 	H 	0.67777	0.73823	0.30783	0.048
Mof_C 	C 	0.59777	0.65893	0.23873	0.365
Mof_C 	C 	0.82827	0.75303	0.29083	-0.047
Mof_C 	C 	0.86327	0.78083	0.30123	-0.075
Mof_H 	H 	0.86597	0.79423	0.32063	0.051
Mof_C 	C 	0.89457	0.78843	0.28193	0.049
Mof_H 	H 	0.91727	0.80953	0.28623	0.024
Mof_C 	C 	0.89187	0.76483	0.25673	-0.164
Mof_C 	C 	0.85697	0.73493	0.24783	0.035
Mof_H 	H 	0.85467	0.71953	0.23003	0.031
Mof_C 	C 	0.82567	0.72833	0.26603	-0.074
Mof_H 	H 	0.80287	0.70733	0.26163	0.053
Mof_C 	C 	0.92397	0.76833	0.23713	0.572
Mof_C 	C 	0.72707	0.82783	0.57423	0.428
Mof_C 	C 	0.70937	0.84533	0.58943	-0.158
Mof_C 	C 	0.68937	0.85673	0.57253	0.104
Mof_H 	H 	0.68637	0.85213	0.54983	0.018
Mof_C 	C 	0.67447	0.87343	0.58553	-0.142
Mof_H 	H 	0.66167	0.88133	0.57193	0.076
Mof_C 	C 	0.67647	0.88033	0.61873	0.006
Mof_C 	C 	0.69807	0.87083	0.63703	-0.119
Mof_H 	H 	0.70217	0.87703	0.65953	0.074
Mof_C 	C 	0.71357	0.85283	0.62253	0.074
Mof_H 	H 	0.72727	0.84533	0.63533	0.028
Mof_C 	C 	0.66077	0.89963	0.63463	0.2
Mof_C 	C 	0.66447	0.93163	0.61763	-0.318
Mof_H 	H 	0.67557	0.93883	0.59673	0.143
Mof_C 	C 	0.65107	0.95003	0.63363	0.297
Mof_C 	C 	0.63747	0.94193	0.66213	-0.447
Mof_H 	H 	0.63007	0.95733	0.67203	0.191
Mof_C 	C 	0.63267	0.91203	0.67963	0.379
Mof_C 	C 	0.64587	0.89003	0.66493	-0.345
Mof_H 	H 	0.64417	0.86953	0.67593	0.153
Mof_C 	C 	0.61667	0.90263	0.71123	-0.404
Mof_C 	C 	0.59377	0.91133	0.72223	0.326
Mof_H 	H 	0.58617	0.92423	0.70833	-0.085
Mof_C 	C 	0.58007	0.90323	0.75293	-0.327
Mof_H 	H 	0.56067	0.90723	0.75853	0.152
Mof_C 	C 	0.59227	0.89023	0.77443	0.135
Mof_C 	C 	0.61937	0.88313	0.76463	-0.295
Mof_H 	H 	0.62917	0.87283	0.77913	0.148
Mof_C 	C 	0.63107	0.89143	0.73333	0.294
Mof_H 	H 	0.65127	0.88903	0.72703	-0.079
Mof_C 	C 	0.58017	0.88383	0.80583	0.313
Mof_C 	C 	0.64427	0.98213	0.58683	-0.112
Mof_H 	H 	0.63457	0.95993	0.57513	0.066
Mof_C 	C 	0.65367	0.98353	0.62003	-0.024
Mof_C 	C 	0.66737	0.01593	0.63853	-0.115
Mof_H 	H 	0.67457	0.01663	0.66053	0.072
Mof_C 	C 	0.66997	0.04803	0.62303	0.118
Mof_H 	H 	0.67687	0.06933	0.63533	0.013
Mof_C 	C 	0.66197	0.04683	0.58943	-0.283
Mof_C 	C 	0.64947	0.01493	0.57083	0.127
Mof_H 	H 	0.64457	0.01483	0.54833	0.012
Mof_C 	C 	0.66697	0.07733	0.57423	0.669
Mof_Eu	Eu	0.42453	0.13085	0.87829	3.491
Mof_In	In	0.63774	0.1102	0.53006	2.244
Mof_O 	O 	0.48241	0.15889	0.89485	-0.648
Mof_O 	O 	0.46443	0.18604	0.86005	-0.664
Mof_O 	O 	0.40497	0.12273	0.82771	-0.722
Mof_O 	O 	0.44482	0.10776	0.83876	-0.653
Mof_O 	O 	0.25755	0.96593	0.55549	-0.641
Mof_O 	O 	0.24247	0.00354	0.57767	-0.648
Mof_O 	O 	0.41443	0.15397	0.92426	-0.65
Mof_O 	O 	0.38711	0.15215	0.87887	-0.693
Mof_O 	O 	0.58853	0.08077	0.54867	-0.722
Mof_O 	O 	0.61693	0.12547	0.57797	-0.629
Mof_O 	O 	0.22273	0.22127	0.14877	-0.563
Mof_O 	O 	0.26273	0.20637	0.15887	-0.532
Mof_O 	O 	0.32203	0.40667	0.88227	-0.713
Mof_O 	O 	0.34773	0.43747	0.92637	-0.423
Mof_C 	C 	0.48893	0.18517	0.87637	0.407
Mof_C 	C 	0.52562	0.21526	0.87517	-0.174
Mof_C 	C 	0.53373	0.24617	0.85707	0.129
Mof_H 	H 	0.51553	0.24757	0.84477	0.01
Mof_C 	C 	0.56963	0.27527	0.85747	-0.217
Mof_H 	H 	0.57563	0.29607	0.84457	0.111
Mof_C 	C 	0.59673	0.27487	0.87597	0.162
Mof_C 	C 	0.58733	0.24297	0.89387	-0.216
Mof_H 	H 	0.60543	0.24147	0.90627	0.107
Mof_C 	C 	0.55223	0.21377	0.89357	0.133
Mof_H 	H 	0.54623	0.19267	0.90597	0.012
Mof_C 	C 	0.63163	0.30457	0.87617	-0.099
Mof_C 	C 	0.63813	0.33797	0.87577	0.03
Mof_H 	H 	0.61793	0.34177	0.87507	0.02
Mof_C 	C 	0.42413	0.11197	0.81837	0.494
Mof_C 	C 	0.42793	0.10417	0.78617	-0.151
Mof_C 	C 	0.45113	0.09217	0.77577	0.043
Mof_H 	H 	0.46523	0.08767	0.79097	0.038
Mof_C 	C 	0.45363	0.08647	0.74107	-0.06
Mof_H 	H 	0.46923	0.07807	0.73367	0.054
Mof_C 	C 	0.43343	0.09327	0.71927	-0.073
Mof_C 	C 	0.41053	0.10717	0.72957	-0.053
Mof_H 	H 	0.39713	0.11237	0.71417	0.047
Mof_C 	C 	0.40823	0.11307	0.76327	0.034
Mof_H 	H 	0.39373	0.12297	0.77057	0.046
Mof_C 	C 	0.43363	0.08527	0.68537	0.299
Mof_C 	C 	0.46363	0.09237	0.66987	-0.403
Mof_H 	H 	0.48623	0.10657	0.68057	0.17
Mof_C 	C 	0.46333	0.08017	0.63907	0.326
Mof_C 	C 	0.43273	0.06717	0.62277	-0.387
Mof_H 	H 	0.43293	0.06157	0.60037	0.162
Mof_C 	C 	0.40023	0.06137	0.63637	0.287
Mof_C 	C 	0.40153	0.07097	0.66877	-0.361
Mof_H 	H 	0.38023	0.06767	0.67937	0.158
Mof_C 	C 	0.36583	0.04297	0.61917	-0.14
Mof_C 	C 	0.35713	0.01627	0.59827	0.04
Mof_H 	H 	0.37473	0.00927	0.59387	0.016
Mof_C 	C 	0.32453	0.99817	0.58237	-0.078
Mof_H 	H 	0.31873	0.97857	0.56787	0.082
Mof_C 	C 	0.30003	0.01067	0.58927	-0.007
Mof_C 	C 	0.30803	0.03747	0.60897	-0.081
Mof_H 	H 	0.29133	0.04597	0.61187	0.084
Mof_C 	C 	0.33963	0.05337	0.62537	0.031
Mof_H 	H 	0.34443	0.07157	0.64117	0.016
Mof_C 	C 	0.26443	0.99227	0.57207	0.347
Mof_C 	C 	0.49493	0.08637	0.62417	-0.12
Mof_C 	C 	0.52993	0.11417	0.63457	-0.025
Mof_H 	H 	0.53263	0.12757	0.65397	0.032
Mof_C 	C 	0.56123	0.12177	0.61527	0.015
Mof_H 	H 	0.58393	0.14287	0.61957	0.035
Mof_C 	C 	0.55853	0.09817	0.59007	-0.14
Mof_C 	C 	0.52363	0.06827	0.58117	0.003
Mof_H 	H 	0.52133	0.05287	0.56337	0.042
Mof_C 	C 	0.49233	0.06167	0.59937	-0.027
Mof_H 	H 	0.46953	0.04067	0.59497	0.034
Mof_C 	C 	0.59063	0.10167	0.57047	0.561
Mof_C 	C 	0.39373	0.16117	0.90757	0.429
Mof_C 	C 	0.37603	0.17867	0.92277	-0.161
Mof_C 	C 	0.35603	0.19007	0.90587	0.108
Mof_H 	H 	0.35303	0.18547	0.88317	0.017
Mof_C 	C 	0.34113	0.20677	0.91887	-0.145
Mof_H 	H 	0.32833	0.21467	0.90527	0.076
Mof_C 	C 	0.34313	0.21367	0.95207	0.009
Mof_C 	C 	0.36473	0.20417	0.97037	-0.121
Mof_H 	H 	0.36883	0.21037	0.99287	0.075
Mof_C 	C 	0.38023	0.18617	0.95587	0.076
Mof_H 	H 	0.39393	0.17867	0.96867	0.027
Mof_C 	C 	0.32743	0.23297	0.96797	0.198
Mof_C 	C 	0.33113	0.26497	0.95097	-0.316
Mof_H 	H 	0.34223	0.27217	0.93007	0.142
Mof_C 	C 	0.31773	0.28337	0.96697	0.295
Mof_C 	C 	0.30413	0.27527	0.99547	-0.445
Mof_H 	H 	0.29673	0.29067	0.00537	0.19
Mof_C 	C 	0.29933	0.24537	0.01297	0.38
Mof_C 	C 	0.31253	0.22337	0.99827	-0.342
Mof_H 	H 	0.31083	0.20287	0.00927	0.151
Mof_C 	C 	0.28333	0.23597	0.04457	-0.411
Mof_C 	C 	0.26043	0.24467	0.05557	0.336
Mof_H 	H 	0.25283	0.25757	0.04167	-0.089
Mof_C 	C 	0.24673	0.23657	0.08627	-0.338
Mof_H 	H 	0.22733	0.24057	0.09187	0.154
Mof_C 	C 	0.25893	0.22357	0.10777	0.144
Mof_C 	C 	0.28603	0.21647	0.09797	-0.303
Mof_H 	H 	0.29583	0.20617	0.11247	0.151
Mof_C 	C 	0.29773	0.22477	0.06667	0.304
Mof_H 	H 	0.31793	0.22237	0.06037	-0.081
Mof_C 	C 	0.24683	0.21717	0.13917	0.309
Mof_C 	C 	0.31093	0.31547	0.92017	-0.116
Mof_H 	H 	0.30123	0.29327	0.90847	0.067
Mof_C 	C 	0.32033	0.31687	0.95337	-0.025
Mof_C 	C 	0.33403	0.34927	0.97187	-0.114
Mof_H 	H 	0.34123	0.34997	0.99387	0.071
Mof_C 	C 	0.33663	0.38137	0.95637	0.118
Mof_H 	H 	0.34353	0.40267	0.96867	0.012
Mof_C 	C 	0.32863	0.38017	0.92277	-0.284
Mof_C 	C 	0.31613	0.34827	0.90417	0.132
Mof_H 	H 	0.31123	0.34817	0.88167	0.011
Mof_C 	C 	0.33363	0.41067	0.90757	0.67
Mof_Eu	Eu	0.53582	0.62701	0.21163	3.492
Mof_In	In	0.55647	0.86088	0.86339	2.246
Mof_O 	O 	0.50778	0.65686	0.22818	-0.648
Mof_O 	O 	0.48063	0.61173	0.19338	-0.664
Mof_O 	O 	0.54394	0.61558	0.16104	-0.727
Mof_O 	O 	0.55891	0.6704	0.17209	-0.656
Mof_O 	O 	0.70074	0.62496	0.88882	-0.647
Mof_O 	O 	0.66313	0.57227	0.911	-0.65
Mof_O 	O 	0.5127	0.5938	0.25759	-0.65
Mof_O 	O 	0.51452	0.5683	0.2122	-0.693
Mof_O 	O 	0.5859	0.8411	0.882	-0.726
Mof_O 	O 	0.5412	0.8248	0.9113	-0.633
Mof_O 	O 	0.4454	0.3348	0.4821	-0.564
Mof_O 	O 	0.4603	0.3897	0.4922	-0.533
Mof_O 	O 	0.26	0.2487	0.2156	-0.713
Mof_O 	O 	0.2292	0.2436	0.2597	-0.423
Mof_C 	C 	0.4815	0.6371	0.2097	0.407
Mof_C 	C 	0.45141	0.6437	0.2085	-0.174
Mof_C 	C 	0.4205	0.6209	0.1904	0.128
Mof_H 	H 	0.4191	0.6013	0.1781	0.011
Mof_C 	C 	0.3914	0.6277	0.1908	-0.217
Mof_H 	H 	0.3706	0.6129	0.1779	0.11
Mof_C 	C 	0.3918	0.6552	0.2093	0.161
Mof_C 	C 	0.4237	0.6777	0.2272	-0.216
Mof_H 	H 	0.4252	0.6973	0.2396	0.106
Mof_C 	C 	0.4529	0.6718	0.2269	0.133
Mof_H 	H 	0.474	0.6869	0.2393	0.012
Mof_C 	C 	0.3621	0.6604	0.2095	-0.097
Mof_C 	C 	0.3287	0.6335	0.2091	0.028
Mof_H 	H 	0.3249	0.6095	0.2084	0.02
Mof_C 	C 	0.5547	0.6455	0.1517	0.509
Mof_C 	C 	0.5625	0.6571	0.1195	-0.183
Mof_C 	C 	0.5745	0.6923	0.1091	0.083
Mof_H 	H 	0.579	0.7109	0.1243	0.025
Mof_C 	C 	0.5802	0.7005	0.0744	-0.116
Mof_H 	H 	0.5886	0.7245	0.067	0.075
Mof_C 	C 	0.5734	0.6735	0.0526	0.003
Mof_C 	C 	0.5595	0.6367	0.0629	-0.105
Mof_H 	H 	0.5543	0.6181	0.0475	0.066
Mof_C 	C 	0.5536	0.6285	0.0966	0.072
Mof_H 	H 	0.5437	0.6041	0.1039	0.033
Mof_C 	C 	0.5814	0.6817	0.0187	0.178
Mof_C 	C 	0.5743	0.7046	0.0032	-0.27
Mof_H 	H 	0.5601	0.713	0.0139	0.123
Mof_C 	C 	0.5865	0.7165	0.9724	0.197
Mof_C 	C 	0.5995	0.6989	0.9561	-0.255
Mof_H 	H 	0.6051	0.7047	0.9337	0.116
Mof_C 	C 	0.6053	0.6722	0.9697	0.162
Mof_C 	C 	0.5957	0.6639	0.0021	-0.24
Mof_H 	H 	0.599	0.6459	0.0127	0.114
Mof_C 	C 	0.6237	0.6562	0.9525	-0.021
Mof_C 	C 	0.6504	0.6742	0.9316	-0.067
Mof_H 	H 	0.6574	0.6988	0.9272	0.055
Mof_C 	C 	0.6685	0.6597	0.9157	0.007
Mof_H 	H 	0.6881	0.6735	0.9012	0.052
Mof_C 	C 	0.656	0.6227	0.9226	-0.078
Mof_C 	C 	0.6292	0.6039	0.9423	0.021
Mof_H 	H 	0.6207	0.5787	0.9452	0.05
Mof_C 	C 	0.6133	0.6196	0.9587	-0.078
Mof_H 	H 	0.5951	0.6062	0.9745	0.055
Mof_C 	C 	0.6744	0.6055	0.9054	0.37
Mof_C 	C 	0.5803	0.7419	0.9575	-0.038
Mof_C 	C 	0.5525	0.7491	0.9679	-0.08
Mof_H 	H 	0.5391	0.7384	0.9873	0.053
Mof_C 	C 	0.5449	0.7728	0.9486	0.053
Mof_H 	H 	0.5238	0.7744	0.9529	0.023
Mof_C 	C 	0.5685	0.7937	0.9234	-0.167
Mof_C 	C 	0.5984	0.7887	0.9145	0.039
Mof_H 	H 	0.6138	0.8018	0.8967	0.03
Mof_C 	C 	0.605	0.764	0.9327	-0.08
Mof_H 	H 	0.626	0.7622	0.9283	0.055
Mof_C 	C 	0.565	0.8223	0.9038	0.573
Mof_C 	C 	0.5055	0.5659	0.2409	0.428
Mof_C 	C 	0.488	0.5307	0.2561	-0.158
Mof_C 	C 	0.4766	0.4993	0.2392	0.104
Mof_H 	H 	0.4812	0.5009	0.2165	0.018
Mof_C 	C 	0.4599	0.4677	0.2522	-0.141
Mof_H 	H 	0.452	0.447	0.2386	0.075
Mof_C 	C 	0.453	0.4628	0.2854	0.006
Mof_C 	C 	0.4625	0.4939	0.3037	-0.119
Mof_H 	H 	0.4563	0.4918	0.3262	0.074
Mof_C 	C 	0.4805	0.5274	0.2892	0.074
Mof_H 	H 	0.488	0.5486	0.302	0.027
Mof_C 	C 	0.4337	0.4278	0.3013	0.2
Mof_C 	C 	0.4017	0.3995	0.2843	-0.318
Mof_H 	H 	0.3945	0.4034	0.2634	0.142
Mof_C 	C 	0.3833	0.3677	0.3003	0.297
Mof_C 	C 	0.3914	0.3622	0.3288	-0.448
Mof_H 	H 	0.376	0.3394	0.3387	0.191
Mof_C 	C 	0.4213	0.3873	0.3463	0.38
Mof_C 	C 	0.4433	0.4225	0.3316	-0.345
Mof_H 	H 	0.4638	0.4413	0.3426	0.153
Mof_C 	C 	0.4307	0.3807	0.3779	-0.405
Mof_C 	C 	0.422	0.3491	0.3889	0.328
Mof_H 	H 	0.4091	0.3286	0.375	-0.086
Mof_C 	C 	0.4301	0.3435	0.4196	-0.329
Mof_H 	H 	0.4261	0.3201	0.4252	0.151
Mof_C 	C 	0.4431	0.3687	0.4411	0.136
Mof_C 	C 	0.4502	0.4029	0.4313	-0.296
Mof_H 	H 	0.4605	0.423	0.4458	0.148
Mof_C 	C 	0.4419	0.4063	0.4	0.297
Mof_H 	H 	0.4443	0.4289	0.3937	-0.078
Mof_C 	C 	0.4495	0.363	0.4725	0.313
Mof_C 	C 	0.3512	0.3288	0.2535	-0.116
Mof_H 	H 	0.3734	0.3413	0.2418	0.067
Mof_C 	C 	0.3498	0.3368	0.2867	-0.027
Mof_C 	C 	0.3174	0.3181	0.3052	-0.113
Mof_H 	H 	0.3167	0.3246	0.3272	0.07
Mof_C 	C 	0.2853	0.2886	0.2897	0.118
Mof_H 	H 	0.264	0.2742	0.302	0.012
Mof_C 	C 	0.2865	0.2818	0.2561	-0.284
Mof_C 	C 	0.3184	0.3012	0.2375	0.131
Mof_H 	H 	0.3185	0.2964	0.215	0.011
Mof_C 	C 	0.256	0.2563	0.2409	0.67
Mof_Eu	Eu	0.20248	0.96034	0.54496	3.497
Mof_In	In	0.22314	0.19421	0.19672	2.244
Mof_O 	O 	0.17445	0.99019	0.56151	-0.65
Mof_O 	O 	0.1473	0.94506	0.52671	-0.666
Mof_O 	O 	0.21061	0.94891	0.49437	-0.718
Mof_O 	O 	0.22558	0.00373	0.50542	-0.652
Mof_O 	O 	0.36741	0.95829	0.22215	-0.628
Mof_O 	O 	0.3298	0.9056	0.24433	-0.634
Mof_O 	O 	0.17937	0.92713	0.59092	-0.65
Mof_O 	O 	0.18119	0.90163	0.54553	-0.694
Mof_O 	O 	0.25257	0.17443	0.21533	-0.719
Mof_O 	O 	0.20787	0.15813	0.24463	-0.626
Mof_O 	O 	0.11207	0.66813	0.81543	-0.564
Mof_O 	O 	0.12697	0.72303	0.82553	-0.532
Mof_O 	O 	0.92667	0.58203	0.54893	-0.713
Mof_O 	O 	0.89587	0.57693	0.59303	-0.423
Mof_C 	C 	0.14817	0.97043	0.54303	0.416
Mof_C 	C 	0.11808	0.97703	0.54183	-0.194
Mof_C 	C 	0.08717	0.95423	0.52373	0.158
Mof_H 	H 	0.08577	0.93463	0.51143	0.001
Mof_C 	C 	0.05807	0.96103	0.52413	-0.255
Mof_H 	H 	0.03727	0.94623	0.51123	0.125
Mof_C 	C 	0.05847	0.98853	0.54263	0.213
Mof_C 	C 	0.09037	0.01103	0.56053	-0.256
Mof_H 	H 	0.09187	0.03063	0.57293	0.121
Mof_C 	C 	0.11957	0.00513	0.56023	0.161
Mof_H 	H 	0.14067	0.02023	0.57263	0.002
Mof_C 	C 	0.02877	0.99373	0.54283	-0.16
Mof_C 	C 	0.99537	0.96683	0.54243	0.092
Mof_H 	H 	0.99157	0.94283	0.54173	-0.002
Mof_C 	C 	0.22137	0.97883	0.48503	0.48
Mof_C 	C 	0.22917	0.99043	0.45283	-0.114
Mof_C 	C 	0.24117	0.02563	0.44243	-0.003
Mof_H 	H 	0.24567	0.04423	0.45763	0.054
Mof_C 	C 	0.24687	0.03383	0.40773	-0.001
Mof_H 	H 	0.25527	0.05783	0.40033	0.033
Mof_C 	C 	0.24007	0.00683	0.38593	-0.151
Mof_C 	C 	0.22617	0.97003	0.39623	0.004
Mof_H 	H 	0.22097	0.95143	0.38083	0.027
Mof_C 	C 	0.22027	0.96183	0.42993	-0.008
Mof_H 	H 	0.21037	0.93743	0.43723	0.06
Mof_C 	C 	0.24807	0.01503	0.35203	0.411
Mof_C 	C 	0.24097	0.03793	0.33653	-0.528
Mof_H 	H 	0.22677	0.04633	0.34723	0.213
Mof_C 	C 	0.25317	0.04983	0.30573	0.449
Mof_C 	C 	0.26617	0.03223	0.28943	-0.511
Mof_H 	H 	0.27177	0.03803	0.26703	0.206
Mof_C 	C 	0.27197	0.00553	0.30303	0.405
Mof_C 	C 	0.26237	0.99723	0.33543	-0.47
Mof_H 	H 	0.26567	0.97923	0.34603	0.198
Mof_C 	C 	0.29037	0.98953	0.28583	-0.262
Mof_C 	C 	0.31707	0.00753	0.26493	0.161
Mof_H 	H 	0.32407	0.03213	0.26053	-0.025
Mof_C 	C 	0.33517	0.99303	0.24903	-0.187
Mof_H 	H 	0.35477	0.00683	0.23453	0.118
Mof_C 	C 	0.32267	0.95603	0.25593	0.095
Mof_C 	C 	0.29587	0.93723	0.27563	-0.208
Mof_H 	H 	0.28737	0.91203	0.27853	0.128
Mof_C 	C 	0.27997	0.95293	0.29203	0.156
Mof_H 	H 	0.26177	0.93953	0.30783	-0.029
Mof_C 	C 	0.34107	0.93883	0.23873	0.301
Mof_C 	C 	0.24697	0.07523	0.29083	-0.197
Mof_C 	C 	0.21917	0.08243	0.30123	0.027
Mof_H 	H 	0.20577	0.07173	0.32063	0.012
Mof_C 	C 	0.21157	0.10613	0.28193	-0.02
Mof_H 	H 	0.19047	0.10773	0.28623	0.047
Mof_C 	C 	0.23517	0.12703	0.25673	-0.114
Mof_C 	C 	0.26507	0.12203	0.24783	-0.031
Mof_H 	H 	0.28047	0.13513	0.23003	0.054
Mof_C 	C 	0.27167	0.09733	0.26603	0.023
Mof_H 	H 	0.29267	0.09553	0.26163	0.016
Mof_C 	C 	0.23167	0.15563	0.23713	0.55
Mof_C 	C 	0.17217	0.89923	0.57423	0.429
Mof_C 	C 	0.15467	0.86403	0.58943	-0.159
Mof_C 	C 	0.14327	0.83263	0.57253	0.105
Mof_H 	H 	0.14787	0.83423	0.54983	0.018
Mof_C 	C 	0.12657	0.80103	0.58553	-0.143
Mof_H 	H 	0.11867	0.78033	0.57193	0.076
Mof_C 	C 	0.11967	0.79613	0.61873	0.006
Mof_C 	C 	0.12917	0.82723	0.63703	-0.12
Mof_H 	H 	0.12297	0.82513	0.65953	0.075
Mof_C 	C 	0.14717	0.86073	0.62253	0.074
Mof_H 	H 	0.15467	0.88193	0.63533	0.028
Mof_C 	C 	0.10037	0.76113	0.63463	0.2
Mof_C 	C 	0.06837	0.73283	0.61763	-0.317
Mof_H 	H 	0.06117	0.73673	0.59673	0.143
Mof_C 	C 	0.04997	0.70103	0.63363	0.297
Mof_C 	C 	0.05807	0.69553	0.66213	-0.447
Mof_H 	H 	0.04267	0.67273	0.67203	0.191
Mof_C 	C 	0.08797	0.72063	0.67963	0.379
Mof_C 	C 	0.10997	0.75583	0.66493	-0.344
Mof_H 	H 	0.13047	0.77463	0.67593	0.153
Mof_C 	C 	0.09737	0.71403	0.71123	-0.404
Mof_C 	C 	0.08867	0.68243	0.72223	0.326
Mof_H 	H 	0.07577	0.66193	0.70833	-0.085
Mof_C 	C 	0.09677	0.67683	0.75293	-0.327
Mof_H 	H 	0.09277	0.65343	0.75853	0.152
Mof_C 	C 	0.10977	0.70203	0.77443	0.135
Mof_C 	C 	0.11687	0.73623	0.76463	-0.295
Mof_H 	H 	0.12717	0.75633	0.77913	0.148
Mof_C 	C 	0.10857	0.73963	0.73333	0.294
Mof_H 	H 	0.11097	0.76223	0.72703	-0.079
Mof_C 	C 	0.11617	0.69633	0.80583	0.313
Mof_C 	C 	0.01787	0.66213	0.58683	-0.112
Mof_H 	H 	0.04007	0.67463	0.57513	0.066
Mof_C 	C 	0.01647	0.67013	0.62003	-0.024
Mof_C 	C 	0.98407	0.65143	0.63853	-0.115
Mof_H 	H 	0.98337	0.65793	0.66053	0.072
Mof_C 	C 	0.95197	0.62193	0.62303	0.118
Mof_H 	H 	0.93067	0.60753	0.63533	0.012
Mof_C 	C 	0.95317	0.61513	0.58943	-0.283
Mof_C 	C 	0.98507	0.63453	0.57083	0.128
Mof_H 	H 	0.98517	0.62973	0.54833	0.012
Mof_C 	C 	0.92267	0.58963	0.57423	0.67
Mof_Eu	Eu	0.86915	0.29368	0.87829	3.491
Mof_In	In	0.8898	0.52755	0.53006	2.245
Mof_O 	O 	0.84111	0.32353	0.89485	-0.647
Mof_O 	O 	0.81396	0.2784	0.86005	-0.664
Mof_O 	O 	0.87727	0.28225	0.82771	-0.722
Mof_O 	O 	0.89224	0.33707	0.83876	-0.653
Mof_O 	O 	0.03407	0.29163	0.55549	-0.641
Mof_O 	O 	0.99646	0.23894	0.57767	-0.648
Mof_O 	O 	0.84603	0.26047	0.92426	-0.649
Mof_O 	O 	0.84785	0.23497	0.87887	-0.693
Mof_O 	O 	0.91923	0.50777	0.54867	-0.722
Mof_O 	O 	0.87453	0.49147	0.57797	-0.629
Mof_O 	O 	0.77873	0.00147	0.14877	-0.565
Mof_O 	O 	0.79363	0.05637	0.15887	-0.532
Mof_O 	O 	0.59333	0.91537	0.88227	-0.711
Mof_O 	O 	0.56253	0.91027	0.92637	-0.421
Mof_C 	C 	0.81483	0.30377	0.87637	0.407
Mof_C 	C 	0.78474	0.31037	0.87517	-0.174
Mof_C 	C 	0.75383	0.28757	0.85707	0.129
Mof_H 	H 	0.75243	0.26797	0.84477	0.01
Mof_C 	C 	0.72473	0.29437	0.85747	-0.218
Mof_H 	H 	0.70393	0.27957	0.84457	0.111
Mof_C 	C 	0.72513	0.32187	0.87597	0.162
Mof_C 	C 	0.75703	0.34437	0.89387	-0.217
Mof_H 	H 	0.75853	0.36397	0.90627	0.107
Mof_C 	C 	0.78623	0.33847	0.89357	0.133
Mof_H 	H 	0.80733	0.35357	0.90597	0.012
Mof_C 	C 	0.69543	0.32707	0.87617	-0.099
Mof_C 	C 	0.66203	0.30017	0.87577	0.03
Mof_H 	H 	0.65823	0.27617	0.87507	0.02
Mof_C 	C 	0.88803	0.31217	0.81837	0.493
Mof_C 	C 	0.89583	0.32377	0.78617	-0.151
Mof_C 	C 	0.90783	0.35897	0.77577	0.043
Mof_H 	H 	0.91233	0.37757	0.79097	0.038
Mof_C 	C 	0.91353	0.36717	0.74107	-0.059
Mof_H 	H 	0.92193	0.39117	0.73367	0.054
Mof_C 	C 	0.90673	0.34017	0.71927	-0.074
Mof_C 	C 	0.89283	0.30337	0.72957	-0.052
Mof_H 	H 	0.88763	0.28477	0.71417	0.047
Mof_C 	C 	0.88693	0.29517	0.76327	0.033
Mof_H 	H 	0.87703	0.27077	0.77057	0.046
Mof_C 	C 	0.91473	0.34837	0.68537	0.3
Mof_C 	C 	0.90763	0.37127	0.66987	-0.404
Mof_H 	H 	0.89343	0.37967	0.68057	0.17
Mof_C 	C 	0.91983	0.38317	0.63907	0.328
Mof_C 	C 	0.93283	0.36557	0.62277	-0.389
Mof_H 	H 	0.93843	0.37137	0.60037	0.163
Mof_C 	C 	0.93863	0.33887	0.63637	0.288
Mof_C 	C 	0.92903	0.33057	0.66877	-0.363
Mof_H 	H 	0.93233	0.31257	0.67937	0.158
Mof_C 	C 	0.95703	0.32287	0.61917	-0.141
Mof_C 	C 	0.98373	0.34087	0.59827	0.041
Mof_H 	H 	0.99073	0.36547	0.59387	0.016
Mof_C 	C 	0.00183	0.32637	0.58237	-0.079
Mof_H 	H 	0.02143	0.34017	0.56787	0.083
Mof_C 	C 	0.98933	0.28937	0.58927	-0.006
Mof_C 	C 	0.96253	0.27057	0.60897	-0.082
Mof_H 	H 	0.95403	0.24537	0.61187	0.084
Mof_C 	C 	0.94663	0.28627	0.62537	0.032
Mof_H 	H 	0.92843	0.27287	0.64117	0.015
Mof_C 	C 	0.00773	0.27217	0.57207	0.347
Mof_C 	C 	0.91363	0.40857	0.62417	-0.121
Mof_C 	C 	0.88583	0.41577	0.63457	-0.025
Mof_H 	H 	0.87243	0.40507	0.65397	0.032
Mof_C 	C 	0.87823	0.43947	0.61527	0.015
Mof_H 	H 	0.85713	0.44107	0.61957	0.036
Mof_C 	C 	0.90183	0.46037	0.59007	-0.14
Mof_C 	C 	0.93173	0.45537	0.58117	0.002
Mof_H 	H 	0.94713	0.46847	0.56337	0.042
Mof_C 	C 	0.93833	0.43067	0.59937	-0.026
Mof_H 	H 	0.95933	0.42887	0.59497	0.034
Mof_C 	C 	0.89833	0.48897	0.57047	0.561
Mof_C 	C 	0.83883	0.23257	0.90757	0.428
Mof_C 	C 	0.82133	0.19737	0.92277	-0.157
Mof_C 	C 	0.80993	0.16597	0.90587	0.103
Mof_H 	H 	0.81453	0.16757	0.88317	0.018
Mof_C 	C 	0.79323	0.13437	0.91887	-0.139
Mof_H 	H 	0.78533	0.11367	0.90527	0.074
Mof_C 	C 	0.78633	0.12947	0.95207	0.005
Mof_C 	C 	0.79583	0.16057	0.97037	-0.117
Mof_H 	H 	0.78963	0.15847	0.99287	0.074
Mof_C 	C 	0.81383	0.19407	0.95587	0.073
Mof_H 	H 	0.82133	0.21527	0.96867	0.028
Mof_C 	C 	0.76703	0.09447	0.96797	0.202
Mof_C 	C 	0.73503	0.06617	0.95097	-0.322
Mof_H 	H 	0.72783	0.07007	0.93007	0.144
Mof_C 	C 	0.71663	0.03437	0.96697	0.304
Mof_C 	C 	0.72473	0.02887	0.99547	-0.45
Mof_H 	H 	0.70933	0.00607	0.00537	0.19
Mof_C 	C 	0.75463	0.05397	0.01297	0.379
Mof_C 	C 	0.77663	0.08917	0.99827	-0.344
Mof_H 	H 	0.79713	0.10797	0.00927	0.152
Mof_C 	C 	0.76403	0.04737	0.04457	-0.404
Mof_C 	C 	0.75533	0.01577	0.05557	0.325
Mof_H 	H 	0.74243	0.99527	0.04167	-0.084
Mof_C 	C 	0.76343	0.01017	0.08627	-0.335
Mof_H 	H 	0.75943	0.98677	0.09187	0.155
Mof_C 	C 	0.77643	0.03537	0.10777	0.139
Mof_C 	C 	0.78353	0.06957	0.09797	-0.297
Mof_H 	H 	0.79383	0.08967	0.11247	0.148
Mof_C 	C 	0.77523	0.07297	0.06667	0.298
Mof_H 	H 	0.77763	0.09557	0.06037	-0.078
Mof_C 	C 	0.78283	0.02967	0.13917	0.311
Mof_C 	C 	0.68453	0.99547	0.92017	-0.096
Mof_H 	H 	0.70673	0.00797	0.90847	0.059
Mof_C 	C 	0.68313	0.00347	0.95337	-0.042
Mof_C 	C 	0.65073	0.98477	0.97187	-0.1
Mof_H 	H 	0.65003	0.99127	0.99387	0.067
Mof_C 	C 	0.61863	0.95527	0.95637	0.107
Mof_H 	H 	0.59733	0.94087	0.96867	0.016
Mof_C 	C 	0.61983	0.94847	0.92277	-0.274
Mof_C 	C 	0.65173	0.96787	0.90417	0.119
Mof_H 	H 	0.65183	0.96307	0.88167	0.017
Mof_C 	C 	0.58933	0.92297	0.90757	0.665
_end
