# CIF file generated by openbabel 3.1.0, see https://openbabel.org
data_I
_chemical_name_common 'image0'
_cell_length_a 19.1035
_cell_length_b 9.543
_cell_length_c 17.6708
_cell_angle_alpha 90
_cell_angle_beta 90
_cell_angle_gamma 90
_space_group_name_H-M_alt 'P 1'
_space_group_name_Hall 'P 1'
loop_
    _symmetry_equiv_pos_as_xyz
    x,y,z
loop_
    _atom_site_label
    _atom_site_type_symbol
    _atom_site_fract_x
    _atom_site_fract_y
    _atom_site_fract_z
    _atom_site_occupancy
    C1       C        0.37477    0.25350    0.07669    1.000
    C2       C        0.34175    0.18730    0.00768    1.000
    C3       C        0.28901    0.08540    0.01035    1.000
    C4       C        0.26442    0.02760    0.94290    1.000
    H1       H        0.22990    0.95910    0.94490    1.000
    C5       C        0.29006    0.06940    0.87250    1.000
    C6       C        0.34352    0.17040    0.86970    1.000
    C7       C        0.36787    0.22680    0.93715    1.000
    H2       H        0.40310    0.29390    0.93520    1.000
    C8       C        0.25631    0.03190    0.08304    1.000
    C9       C        0.25915    0.99960    0.80274    1.000
    C10      C        0.37772    0.21970    0.79724    1.000
    Mn1      Mn       0.25721    0.26640    0.19574    1.000
    O1       O        0.42326    0.33690    0.06595    1.000
    O2       O        0.35284    0.21793    0.14150    1.000
    O3       O        0.21327    0.10893    0.11678    1.000
    O4       O        0.27194    0.90891    0.10158    1.000
    O5       O        0.20892    0.06073    0.76984    1.000
    O6       O        0.28375    0.88328    0.78531    1.000
    O7       O        0.34686    0.20067    0.73516    1.000
    O8       O        0.43643    0.27610    0.80432    1.000
    C11      C        0.12523    0.24650    0.57669    1.000
    C12      C        0.15825    0.31270    0.50768    1.000
    C13      C        0.21099    0.41460    0.51035    1.000
    C14      C        0.23558    0.47240    0.44290    1.000
    H3       H        0.27010    0.54090    0.44490    1.000
    C15      C        0.20994    0.43060    0.37250    1.000
    C16      C        0.15648    0.32960    0.36970    1.000
    C17      C        0.13213    0.27320    0.43715    1.000
    H4       H        0.09690    0.20610    0.43520    1.000
    C18      C        0.24369    0.46810    0.58304    1.000
    C19      C        0.24085    0.50040    0.30274    1.000
    C20      C        0.12228    0.28030    0.29724    1.000
    Mn2      Mn       0.24279    0.23360    0.69574    1.000
    O9       O        0.07674    0.16310    0.56595    1.000
    O10      O        0.14716    0.28207    0.64150    1.000
    O11      O        0.28673    0.39107    0.61678    1.000
    O12      O        0.22806    0.59109    0.60158    1.000
    O13      O        0.29108    0.43927    0.26984    1.000
    O14      O        0.21625    0.61672    0.28531    1.000
    O15      O        0.15314    0.29933    0.23516    1.000
    O16      O        0.06357    0.22390    0.30432    1.000
    C21      C        0.62523    0.25350    0.42331    1.000
    C22      C        0.65825    0.18730    0.49232    1.000
    C23      C        0.71099    0.08540    0.48965    1.000
    C24      C        0.73558    0.02760    0.55710    1.000
    H5       H        0.77010    0.95910    0.55510    1.000
    C25      C        0.70994    0.06940    0.62750    1.000
    C26      C        0.65648    0.17040    0.63030    1.000
    C27      C        0.63213    0.22680    0.56285    1.000
    H6       H        0.59690    0.29390    0.56480    1.000
    C28      C        0.74369    0.03190    0.41696    1.000
    C29      C        0.74085    0.99960    0.69726    1.000
    C30      C        0.62228    0.21970    0.70276    1.000
    Mn3      Mn       0.74279    0.26640    0.30426    1.000
    O17      O        0.57674    0.33690    0.43405    1.000
    O18      O        0.64716    0.21793    0.35850    1.000
    O19      O        0.78673    0.10893    0.38322    1.000
    O20      O        0.72806    0.90891    0.39842    1.000
    O21      O        0.79108    0.06073    0.73016    1.000
    O22      O        0.71625    0.88328    0.71469    1.000
    O23      O        0.65314    0.20067    0.76484    1.000
    O24      O        0.56357    0.27610    0.69568    1.000
    C31      C        0.87477    0.24650    0.92331    1.000
    C32      C        0.84175    0.31270    0.99232    1.000
    C33      C        0.78901    0.41460    0.98965    1.000
    C34      C        0.76442    0.47240    0.05710    1.000
    H7       H        0.72990    0.54090    0.05510    1.000
    C35      C        0.79006    0.43060    0.12750    1.000
    C36      C        0.84352    0.32960    0.13030    1.000
    C37      C        0.86787    0.27320    0.06285    1.000
    H8       H        0.90310    0.20610    0.06480    1.000
    C38      C        0.75631    0.46810    0.91696    1.000
    C39      C        0.75915    0.50040    0.19726    1.000
    C40      C        0.87772    0.28030    0.20276    1.000
    Mn4      Mn       0.75721    0.23360    0.80426    1.000
    O25      O        0.92326    0.16310    0.93405    1.000
    O26      O        0.85284    0.28207    0.85850    1.000
    O27      O        0.71327    0.39107    0.88322    1.000
    O28      O        0.77194    0.59109    0.89842    1.000
    O29      O        0.70892    0.43927    0.23016    1.000
    O30      O        0.78375    0.61672    0.21469    1.000
    O31      O        0.84686    0.29933    0.26484    1.000
    O32      O        0.93643    0.22390    0.19568    1.000
    C41      C        0.62523    0.74650    0.92331    1.000
    C42      C        0.65825    0.81270    0.99232    1.000
    C43      C        0.71099    0.91460    0.98965    1.000
    C44      C        0.73558    0.97240    0.05710    1.000
    H9       H        0.77010    0.04090    0.05510    1.000
    C45      C        0.70994    0.93060    0.12750    1.000
    C46      C        0.65648    0.82960    0.13030    1.000
    C47      C        0.63213    0.77320    0.06285    1.000
    H10      H        0.59690    0.70610    0.06480    1.000
    C48      C        0.74369    0.96810    0.91696    1.000
    C49      C        0.74085    0.00040    0.19726    1.000
    C50      C        0.62228    0.78030    0.20276    1.000
    Mn5      Mn       0.74279    0.73360    0.80426    1.000
    O33      O        0.57674    0.66310    0.93405    1.000
    O34      O        0.64716    0.78207    0.85850    1.000
    O35      O        0.78673    0.89107    0.88322    1.000
    O36      O        0.72806    0.09109    0.89842    1.000
    O37      O        0.79108    0.93927    0.23016    1.000
    O38      O        0.71625    0.11672    0.21469    1.000
    O39      O        0.65314    0.79933    0.26484    1.000
    O40      O        0.56357    0.72390    0.19568    1.000
    C51      C        0.87477    0.75350    0.42331    1.000
    C52      C        0.84175    0.68730    0.49232    1.000
    C53      C        0.78901    0.58540    0.48965    1.000
    C54      C        0.76442    0.52760    0.55710    1.000
    H11      H        0.72990    0.45910    0.55510    1.000
    C55      C        0.79006    0.56940    0.62750    1.000
    C56      C        0.84352    0.67040    0.63030    1.000
    C57      C        0.86787    0.72680    0.56285    1.000
    H12      H        0.90310    0.79390    0.56480    1.000
    C58      C        0.75631    0.53190    0.41696    1.000
    C59      C        0.75915    0.49960    0.69726    1.000
    C60      C        0.87772    0.71970    0.70276    1.000
    Mn6      Mn       0.75721    0.76640    0.30426    1.000
    O41      O        0.92326    0.83690    0.43405    1.000
    O42      O        0.85284    0.71793    0.35850    1.000
    O43      O        0.71327    0.60893    0.38322    1.000
    O44      O        0.77194    0.40891    0.39842    1.000
    O45      O        0.70892    0.56073    0.73016    1.000
    O46      O        0.78375    0.38328    0.71469    1.000
    O47      O        0.84686    0.70067    0.76484    1.000
    O48      O        0.93643    0.77610    0.69568    1.000
    C61      C        0.37477    0.74650    0.57669    1.000
    C62      C        0.34175    0.81270    0.50768    1.000
    C63      C        0.28901    0.91460    0.51035    1.000
    C64      C        0.26442    0.97240    0.44290    1.000
    H13      H        0.22990    0.04090    0.44490    1.000
    C65      C        0.29006    0.93060    0.37250    1.000
    C66      C        0.34352    0.82960    0.36970    1.000
    C67      C        0.36787    0.77320    0.43715    1.000
    H14      H        0.40310    0.70610    0.43520    1.000
    C68      C        0.25631    0.96810    0.58304    1.000
    C69      C        0.25915    0.00040    0.30274    1.000
    C70      C        0.37772    0.78030    0.29724    1.000
    Mn7      Mn       0.25721    0.73360    0.69574    1.000
    O49      O        0.42326    0.66310    0.56595    1.000
    O50      O        0.35284    0.78207    0.64150    1.000
    O51      O        0.21327    0.89107    0.61678    1.000
    O52      O        0.27194    0.09109    0.60158    1.000
    O53      O        0.20892    0.93927    0.26984    1.000
    O54      O        0.28375    0.11672    0.28531    1.000
    O55      O        0.34686    0.79933    0.23516    1.000
    O56      O        0.43643    0.72390    0.30432    1.000
    C71      C        0.12523    0.75350    0.07669    1.000
    C72      C        0.15825    0.68730    0.00768    1.000
    C73      C        0.21099    0.58540    0.01035    1.000
    C74      C        0.23558    0.52760    0.94290    1.000
    H15      H        0.27010    0.45910    0.94490    1.000
    C75      C        0.20994    0.56940    0.87250    1.000
    C76      C        0.15648    0.67040    0.86970    1.000
    C77      C        0.13213    0.72680    0.93715    1.000
    H16      H        0.09690    0.79390    0.93520    1.000
    C78      C        0.24369    0.53190    0.08304    1.000
    C79      C        0.24085    0.49960    0.80274    1.000
    C80      C        0.12228    0.71970    0.79724    1.000
    Mn8      Mn       0.24279    0.76640    0.19574    1.000
    O57      O        0.07674    0.83690    0.06595    1.000
    O58      O        0.14716    0.71793    0.14150    1.000
    O59      O        0.28673    0.60893    0.11678    1.000
    O60      O        0.22806    0.40891    0.10158    1.000
    O61      O        0.29108    0.56073    0.76984    1.000
    O62      O        0.21625    0.38328    0.78531    1.000
    O63      O        0.15314    0.70067    0.73516    1.000
    O64      O        0.06357    0.77610    0.80432    1.000
    Mn9      Mn       0.50000    0.42823    0.75000    1.000
    Mn10     Mn       0.00000    0.07177    0.25000    1.000
    Mn11     Mn       0.50000    0.57177    0.25000    1.000
    Mn12     Mn       0.00000    0.92823    0.75000    1.000
