# CIF file generated by openbabel 3.1.0, see https://openbabel.org
data_I
_chemical_name_common 'image0'
_cell_length_a 23.3019
_cell_length_b 23.3019
_cell_length_c 23.3019
_cell_angle_alpha 90
_cell_angle_beta 90
_cell_angle_gamma 90
_space_group_name_H-M_alt 'P 1'
_space_group_name_Hall 'P 1'
loop_
    _symmetry_equiv_pos_as_xyz
    x,y,z
loop_
    _atom_site_label
    _atom_site_type_symbol
    _atom_site_fract_x
    _atom_site_fract_y
    _atom_site_fract_z
    _atom_site_occupancy
    Cu1      Cu       0.26791    0.14492    0.93550    1.000
    O1       O        0.20650    0.10420    0.97120    1.000
    N1       N        0.34070    0.17360    0.90360    1.000
    N2       N        0.28400    0.08360    0.88070    1.000
    C1       C        0.25710    0.03470    0.87710    1.000
    H1       H        0.26730    0.00960    0.84660    1.000
    C2       C        0.21300    0.01590    0.91640    1.000
    C3       C        0.19010    0.05050    0.96180    1.000
    C4       C        0.14680    0.02790    0.99700    1.000
    H2       H        0.13050    0.05070    0.02650    1.000
    C5       C        0.12750    0.97110    0.98830    1.000
    H3       H        0.09930    0.95560    0.01330    1.000
    C6       C        0.14870    0.93780    0.94460    1.000
    H4       H        0.13500    0.89980    0.93900    1.000
    C7       C        0.19090    0.96070    0.90860    1.000
    H5       H        0.20490    0.93800    0.87770    1.000
    Cu2      Cu       0.21730    0.15836    0.05151    1.000
    Cl1      Cl       0.31220    0.13390    0.05890    1.000
    O2       O        0.31130    0.14120    0.04730    1.000
    O3       O        0.29140    0.01310    0.73980    1.000
    N3       N        0.38830    0.88670    0.68330    1.000
    N4       N        0.29770    0.93370    0.64710    1.000
    C8       C        0.25420    0.96360    0.62830    1.000
    H6       H        0.40870    0.73970    0.54560    1.000
    C9       C        0.22660    0.00920    0.65920    1.000
    C10      C        0.24560    0.03240    0.71260    1.000
    C11      C        0.26330    0.71410    0.42170    1.000
    H7       H        0.22870    0.72710    0.40460    1.000
    C12      C        0.28890    0.66500    0.40140    1.000
    H8       H        0.27040    0.64320    0.37240    1.000
    C13      C        0.34300    0.64660    0.42350    1.000
    H9       H        0.36230    0.61430    0.40760    1.000
    C14      C        0.36630    0.67660    0.46820    1.000
    H10      H        0.40110    0.66320    0.48460    1.000
    Cu3      Cu       0.23209    0.85508    0.43550    1.000
    O4       O        0.29350    0.89580    0.47120    1.000
    N5       N        0.15930    0.82640    0.40360    1.000
    N6       N        0.21600    0.91640    0.38070    1.000
    C15      C        0.24290    0.96530    0.37710    1.000
    H11      H        0.23270    0.99040    0.34660    1.000
    C16      C        0.28700    0.98410    0.41640    1.000
    C17      C        0.30990    0.94950    0.46180    1.000
    C18      C        0.35320    0.97210    0.49700    1.000
    H12      H        0.36950    0.94930    0.52650    1.000
    C19      C        0.37250    0.02890    0.48830    1.000
    H13      H        0.40070    0.04440    0.51330    1.000
    C20      C        0.35130    0.06220    0.44460    1.000
    H14      H        0.36500    0.10020    0.43900    1.000
    C21      C        0.30910    0.03930    0.40860    1.000
    H15      H        0.29510    0.06200    0.37770    1.000
    Cu4      Cu       0.28270    0.84164    0.55151    1.000
    Cl2      Cl       0.18780    0.86610    0.55890    1.000
    O5       O        0.18870    0.85880    0.54730    1.000
    O6       O        0.20860    0.98690    0.23980    1.000
    N7       N        0.11170    0.11330    0.18330    1.000
    N8       N        0.20230    0.06630    0.14710    1.000
    C22      C        0.24580    0.03640    0.12830    1.000
    H16      H        0.09130    0.26030    0.04560    1.000
    C23      C        0.27340    0.99080    0.15920    1.000
    C24      C        0.25440    0.96760    0.21260    1.000
    C25      C        0.23670    0.28590    0.92170    1.000
    H17      H        0.27130    0.27290    0.90460    1.000
    C26      C        0.21110    0.33500    0.90140    1.000
    H18      H        0.22960    0.35680    0.87240    1.000
    C27      C        0.15700    0.35340    0.92350    1.000
    H19      H        0.13770    0.38570    0.90760    1.000
    C28      C        0.13370    0.32340    0.96820    1.000
    H20      H        0.09890    0.33680    0.98460    1.000
    Cu5      Cu       0.73209    0.64492    0.56450    1.000
    O7       O        0.79350    0.60420    0.52880    1.000
    N9       N        0.65930    0.67360    0.59640    1.000
    N10      N        0.71600    0.58360    0.61930    1.000
    C29      C        0.74290    0.53470    0.62290    1.000
    H21      H        0.73270    0.50960    0.65340    1.000
    C30      C        0.78700    0.51590    0.58360    1.000
    C31      C        0.80990    0.55050    0.53820    1.000
    C32      C        0.85320    0.52790    0.50300    1.000
    H22      H        0.86950    0.55070    0.47350    1.000
    C33      C        0.87250    0.47110    0.51170    1.000
    H23      H        0.90070    0.45560    0.48670    1.000
    C34      C        0.85130    0.43780    0.55540    1.000
    H24      H        0.86500    0.39980    0.56100    1.000
    C35      C        0.80910    0.46070    0.59140    1.000
    H25      H        0.79510    0.43800    0.62230    1.000
    Cu6      Cu       0.78270    0.65836    0.44849    1.000
    Cl3      Cl       0.68780    0.63390    0.44110    1.000
    O8       O        0.68870    0.64120    0.45270    1.000
    O9       O        0.70860    0.51310    0.76020    1.000
    N11      N        0.61170    0.38670    0.81670    1.000
    N12      N        0.70230    0.43370    0.85290    1.000
    C36      C        0.74580    0.46360    0.87170    1.000
    H26      H        0.59130    0.23970    0.95440    1.000
    C37      C        0.77340    0.50920    0.84080    1.000
    C38      C        0.75440    0.53240    0.78740    1.000
    C39      C        0.73670    0.21410    0.07830    1.000
    H27      H        0.77130    0.22710    0.09540    1.000
    C40      C        0.71110    0.16500    0.09860    1.000
    H28      H        0.72960    0.14320    0.12760    1.000
    C41      C        0.65700    0.14660    0.07650    1.000
    H29      H        0.63770    0.11430    0.09240    1.000
    C42      C        0.63370    0.17660    0.03180    1.000
    H30      H        0.59890    0.16320    0.01540    1.000
    Cu7      Cu       0.76791    0.35508    0.06450    1.000
    O10      O        0.70650    0.39580    0.02880    1.000
    N13      N        0.84070    0.32640    0.09640    1.000
    N14      N        0.78400    0.41640    0.11930    1.000
    C43      C        0.75710    0.46530    0.12290    1.000
    H31      H        0.76730    0.49040    0.15340    1.000
    C44      C        0.71300    0.48410    0.08360    1.000
    C45      C        0.69010    0.44950    0.03820    1.000
    C46      C        0.64680    0.47210    0.00300    1.000
    H32      H        0.63050    0.44930    0.97350    1.000
    C47      C        0.62750    0.52890    0.01170    1.000
    H33      H        0.59930    0.54440    0.98670    1.000
    C48      C        0.64870    0.56220    0.05540    1.000
    H34      H        0.63500    0.60020    0.06100    1.000
    C49      C        0.69090    0.53930    0.09140    1.000
    H35      H        0.70490    0.56200    0.12230    1.000
    Cu8      Cu       0.71730    0.34164    0.94849    1.000
    Cl4      Cl       0.81220    0.36610    0.94110    1.000
    O11      O        0.81130    0.35880    0.95270    1.000
    O12      O        0.79140    0.48690    0.26020    1.000
    N15      N        0.88830    0.61330    0.31670    1.000
    N16      N        0.79770    0.56630    0.35290    1.000
    C50      C        0.75420    0.53640    0.37170    1.000
    H36      H        0.90870    0.76030    0.45440    1.000
    C51      C        0.72660    0.49080    0.34080    1.000
    C52      C        0.74560    0.46760    0.28740    1.000
    C53      C        0.76330    0.78590    0.57830    1.000
    H37      H        0.72870    0.77290    0.59540    1.000
    C54      C        0.78890    0.83500    0.59860    1.000
    H38      H        0.77040    0.85680    0.62760    1.000
    C55      C        0.84300    0.85340    0.57650    1.000
    H39      H        0.86230    0.88570    0.59240    1.000
    C56      C        0.86630    0.82340    0.53180    1.000
    H40      H        0.90110    0.83680    0.51540    1.000
    Cu9      Cu       0.93550    0.26791    0.14492    1.000
    O13      O        0.97120    0.20650    0.10420    1.000
    N17      N        0.90360    0.34070    0.17360    1.000
    N18      N        0.88070    0.28400    0.08360    1.000
    C57      C        0.87710    0.25710    0.03470    1.000
    H41      H        0.84660    0.26730    0.00960    1.000
    C58      C        0.91640    0.21300    0.01590    1.000
    C59      C        0.96180    0.19010    0.05050    1.000
    C60      C        0.99700    0.14680    0.02790    1.000
    H42      H        0.02650    0.13050    0.05070    1.000
    C61      C        0.98830    0.12750    0.97110    1.000
    H43      H        0.01330    0.09930    0.95560    1.000
    C62      C        0.94460    0.14870    0.93780    1.000
    H44      H        0.93900    0.13500    0.89980    1.000
    C63      C        0.90860    0.19090    0.96070    1.000
    H45      H        0.87770    0.20490    0.93800    1.000
    Cu10     Cu       0.05151    0.21730    0.15836    1.000
    Cl5      Cl       0.05890    0.31220    0.13390    1.000
    O14      O        0.04730    0.31130    0.14120    1.000
    O15      O        0.73980    0.29140    0.01310    1.000
    N19      N        0.68330    0.38830    0.88670    1.000
    N20      N        0.64710    0.29770    0.93370    1.000
    C64      C        0.62830    0.25420    0.96360    1.000
    H46      H        0.54560    0.40870    0.73970    1.000
    C65      C        0.65920    0.22660    0.00920    1.000
    C66      C        0.71260    0.24560    0.03240    1.000
    C67      C        0.42170    0.26330    0.71410    1.000
    H47      H        0.40460    0.22870    0.72710    1.000
    C68      C        0.40140    0.28890    0.66500    1.000
    H48      H        0.37240    0.27040    0.64320    1.000
    C69      C        0.42350    0.34300    0.64660    1.000
    H49      H        0.40760    0.36230    0.61430    1.000
    C70      C        0.46820    0.36630    0.67660    1.000
    H50      H        0.48460    0.40110    0.66320    1.000
    Cu11     Cu       0.43550    0.23209    0.85508    1.000
    O16      O        0.47120    0.29350    0.89580    1.000
    N21      N        0.40360    0.15930    0.82640    1.000
    N22      N        0.38070    0.21600    0.91640    1.000
    C71      C        0.37710    0.24290    0.96530    1.000
    H51      H        0.34660    0.23270    0.99040    1.000
    C72      C        0.41640    0.28700    0.98410    1.000
    C73      C        0.46180    0.30990    0.94950    1.000
    C74      C        0.49700    0.35320    0.97210    1.000
    H52      H        0.52650    0.36950    0.94930    1.000
    C75      C        0.48830    0.37250    0.02890    1.000
    H53      H        0.51330    0.40070    0.04440    1.000
    C76      C        0.44460    0.35130    0.06220    1.000
    H54      H        0.43900    0.36500    0.10020    1.000
    C77      C        0.40860    0.30910    0.03930    1.000
    H55      H        0.37770    0.29510    0.06200    1.000
    Cu12     Cu       0.55151    0.28270    0.84164    1.000
    Cl6      Cl       0.55890    0.18780    0.86610    1.000
    O17      O        0.54730    0.18870    0.85880    1.000
    O18      O        0.23980    0.20860    0.98690    1.000
    N23      N        0.18330    0.11170    0.11330    1.000
    N24      N        0.14710    0.20230    0.06630    1.000
    C78      C        0.12830    0.24580    0.03640    1.000
    H56      H        0.04560    0.09130    0.26030    1.000
    C79      C        0.15920    0.27340    0.99080    1.000
    C80      C        0.21260    0.25440    0.96760    1.000
    C81      C        0.92170    0.23670    0.28590    1.000
    H57      H        0.90460    0.27130    0.27290    1.000
    C82      C        0.90140    0.21110    0.33500    1.000
    H58      H        0.87240    0.22960    0.35680    1.000
    C83      C        0.92350    0.15700    0.35340    1.000
    H59      H        0.90760    0.13770    0.38570    1.000
    C84      C        0.96820    0.13370    0.32340    1.000
    H60      H        0.98460    0.09890    0.33680    1.000
    Cu13     Cu       0.56450    0.73209    0.64492    1.000
    O19      O        0.52880    0.79350    0.60420    1.000
    N25      N        0.59640    0.65930    0.67360    1.000
    N26      N        0.61930    0.71600    0.58360    1.000
    C85      C        0.62290    0.74290    0.53470    1.000
    H61      H        0.65340    0.73270    0.50960    1.000
    C86      C        0.58360    0.78700    0.51590    1.000
    C87      C        0.53820    0.80990    0.55050    1.000
    C88      C        0.50300    0.85320    0.52790    1.000
    H62      H        0.47350    0.86950    0.55070    1.000
    C89      C        0.51170    0.87250    0.47110    1.000
    H63      H        0.48670    0.90070    0.45560    1.000
    C90      C        0.55540    0.85130    0.43780    1.000
    H64      H        0.56100    0.86500    0.39980    1.000
    C91      C        0.59140    0.80910    0.46070    1.000
    H65      H        0.62230    0.79510    0.43800    1.000
    Cu14     Cu       0.44849    0.78270    0.65836    1.000
    Cl7      Cl       0.44110    0.68780    0.63390    1.000
    O20      O        0.45270    0.68870    0.64120    1.000
    O21      O        0.76020    0.70860    0.51310    1.000
    N27      N        0.81670    0.61170    0.38670    1.000
    N28      N        0.85290    0.70230    0.43370    1.000
    C92      C        0.87170    0.74580    0.46360    1.000
    H66      H        0.95440    0.59130    0.23970    1.000
    C93      C        0.84080    0.77340    0.50920    1.000
    C94      C        0.78740    0.75440    0.53240    1.000
    C95      C        0.07830    0.73670    0.21410    1.000
    H67      H        0.09540    0.77130    0.22710    1.000
    C96      C        0.09860    0.71110    0.16500    1.000
    H68      H        0.12760    0.72960    0.14320    1.000
    C97      C        0.07650    0.65700    0.14660    1.000
    H69      H        0.09240    0.63770    0.11430    1.000
    C98      C        0.03180    0.63370    0.17660    1.000
    H70      H        0.01540    0.59890    0.16320    1.000
    Cu15     Cu       0.06450    0.76791    0.35508    1.000
    O22      O        0.02880    0.70650    0.39580    1.000
    N29      N        0.09640    0.84070    0.32640    1.000
    N30      N        0.11930    0.78400    0.41640    1.000
    C99      C        0.12290    0.75710    0.46530    1.000
    H71      H        0.15340    0.76730    0.49040    1.000
    C100     C        0.08360    0.71300    0.48410    1.000
    C101     C        0.03820    0.69010    0.44950    1.000
    C102     C        0.00300    0.64680    0.47210    1.000
    H72      H        0.97350    0.63050    0.44930    1.000
    C103     C        0.01170    0.62750    0.52890    1.000
    H73      H        0.98670    0.59930    0.54440    1.000
    C104     C        0.05540    0.64870    0.56220    1.000
    H74      H        0.06100    0.63500    0.60020    1.000
    C105     C        0.09140    0.69090    0.53930    1.000
    H75      H        0.12230    0.70490    0.56200    1.000
    Cu16     Cu       0.94849    0.71730    0.34164    1.000
    Cl8      Cl       0.94110    0.81220    0.36610    1.000
    O23      O        0.95270    0.81130    0.35880    1.000
    O24      O        0.26020    0.79140    0.48690    1.000
    N31      N        0.31670    0.88830    0.61330    1.000
    N32      N        0.35290    0.79770    0.56630    1.000
    C106     C        0.37170    0.75420    0.53640    1.000
    H76      H        0.45440    0.90870    0.76030    1.000
    C107     C        0.34080    0.72660    0.49080    1.000
    C108     C        0.28740    0.74560    0.46760    1.000
    C109     C        0.57830    0.76330    0.78590    1.000
    H77      H        0.59540    0.72870    0.77290    1.000
    C110     C        0.59860    0.78890    0.83500    1.000
    H78      H        0.62760    0.77040    0.85680    1.000
    C111     C        0.57650    0.84300    0.85340    1.000
    H79      H        0.59240    0.86230    0.88570    1.000
    C112     C        0.53180    0.86630    0.82340    1.000
    H80      H        0.51540    0.90110    0.83680    1.000
    Cu17     Cu       0.14492    0.93550    0.26791    1.000
    O25      O        0.10420    0.97120    0.20650    1.000
    N33      N        0.17360    0.90360    0.34070    1.000
    N34      N        0.08360    0.88070    0.28400    1.000
    C113     C        0.03470    0.87710    0.25710    1.000
    H81      H        0.00960    0.84660    0.26730    1.000
    C114     C        0.01590    0.91640    0.21300    1.000
    C115     C        0.05050    0.96180    0.19010    1.000
    C116     C        0.02790    0.99700    0.14680    1.000
    H82      H        0.05070    0.02650    0.13050    1.000
    C117     C        0.97110    0.98830    0.12750    1.000
    H83      H        0.95560    0.01330    0.09930    1.000
    C118     C        0.93780    0.94460    0.14870    1.000
    H84      H        0.89980    0.93900    0.13500    1.000
    C119     C        0.96070    0.90860    0.19090    1.000
    H85      H        0.93800    0.87770    0.20490    1.000
    Cu18     Cu       0.15836    0.05151    0.21730    1.000
    Cl9      Cl       0.13390    0.05890    0.31220    1.000
    O26      O        0.14120    0.04730    0.31130    1.000
    O27      O        0.01310    0.73980    0.29140    1.000
    N35      N        0.88670    0.68330    0.38830    1.000
    N36      N        0.93370    0.64710    0.29770    1.000
    C120     C        0.96360    0.62830    0.25420    1.000
    H86      H        0.73970    0.54560    0.40870    1.000
    C121     C        0.00920    0.65920    0.22660    1.000
    C122     C        0.03240    0.71260    0.24560    1.000
    C123     C        0.71410    0.42170    0.26330    1.000
    H87      H        0.72710    0.40460    0.22870    1.000
    C124     C        0.66500    0.40140    0.28890    1.000
    H88      H        0.64320    0.37240    0.27040    1.000
    C125     C        0.64660    0.42350    0.34300    1.000
    H89      H        0.61430    0.40760    0.36230    1.000
    C126     C        0.67660    0.46820    0.36630    1.000
    H90      H        0.66320    0.48460    0.40110    1.000
    Cu19     Cu       0.85508    0.43550    0.23209    1.000
    O28      O        0.89580    0.47120    0.29350    1.000
    N37      N        0.82640    0.40360    0.15930    1.000
    N38      N        0.91640    0.38070    0.21600    1.000
    C127     C        0.96530    0.37710    0.24290    1.000
    H91      H        0.99040    0.34660    0.23270    1.000
    C128     C        0.98410    0.41640    0.28700    1.000
    C129     C        0.94950    0.46180    0.30990    1.000
    C130     C        0.97210    0.49700    0.35320    1.000
    H92      H        0.94930    0.52650    0.36950    1.000
    C131     C        0.02890    0.48830    0.37250    1.000
    H93      H        0.04440    0.51330    0.40070    1.000
    C132     C        0.06220    0.44460    0.35130    1.000
    H94      H        0.10020    0.43900    0.36500    1.000
    C133     C        0.03930    0.40860    0.30910    1.000
    H95      H        0.06200    0.37770    0.29510    1.000
    Cu20     Cu       0.84164    0.55151    0.28270    1.000
    Cl10     Cl       0.86610    0.55890    0.18780    1.000
    O29      O        0.85880    0.54730    0.18870    1.000
    O30      O        0.98690    0.23980    0.20860    1.000
    N39      N        0.11330    0.18330    0.11170    1.000
    N40      N        0.06630    0.14710    0.20230    1.000
    C134     C        0.03640    0.12830    0.24580    1.000
    H96      H        0.26030    0.04560    0.09130    1.000
    C135     C        0.99080    0.15920    0.27340    1.000
    C136     C        0.96760    0.21260    0.25440    1.000
    C137     C        0.28590    0.92170    0.23670    1.000
    H97      H        0.27290    0.90460    0.27130    1.000
    C138     C        0.33500    0.90140    0.21110    1.000
    H98      H        0.35680    0.87240    0.22960    1.000
    C139     C        0.35340    0.92350    0.15700    1.000
    H99      H        0.38570    0.90760    0.13770    1.000
    C140     C        0.32340    0.96820    0.13370    1.000
    H100     H        0.33680    0.98460    0.09890    1.000
    Cu21     Cu       0.64492    0.56450    0.73209    1.000
    O31      O        0.60420    0.52880    0.79350    1.000
    N41      N        0.67360    0.59640    0.65930    1.000
    N42      N        0.58360    0.61930    0.71600    1.000
    C141     C        0.53470    0.62290    0.74290    1.000
    H101     H        0.50960    0.65340    0.73270    1.000
    C142     C        0.51590    0.58360    0.78700    1.000
    C143     C        0.55050    0.53820    0.80990    1.000
    C144     C        0.52790    0.50300    0.85320    1.000
    H102     H        0.55070    0.47350    0.86950    1.000
    C145     C        0.47110    0.51170    0.87250    1.000
    H103     H        0.45560    0.48670    0.90070    1.000
    C146     C        0.43780    0.55540    0.85130    1.000
    H104     H        0.39980    0.56100    0.86500    1.000
    C147     C        0.46070    0.59140    0.80910    1.000
    H105     H        0.43800    0.62230    0.79510    1.000
    Cu22     Cu       0.65836    0.44849    0.78270    1.000
    Cl11     Cl       0.63390    0.44110    0.68780    1.000
    O32      O        0.64120    0.45270    0.68870    1.000
    O33      O        0.51310    0.76020    0.70860    1.000
    N43      N        0.38670    0.81670    0.61170    1.000
    N44      N        0.43370    0.85290    0.70230    1.000
    C148     C        0.46360    0.87170    0.74580    1.000
    H106     H        0.23970    0.95440    0.59130    1.000
    C149     C        0.50920    0.84080    0.77340    1.000
    C150     C        0.53240    0.78740    0.75440    1.000
    C151     C        0.21410    0.07830    0.73670    1.000
    H107     H        0.22710    0.09540    0.77130    1.000
    C152     C        0.16500    0.09860    0.71110    1.000
    H108     H        0.14320    0.12760    0.72960    1.000
    C153     C        0.14660    0.07650    0.65700    1.000
    H109     H        0.11430    0.09240    0.63770    1.000
    C154     C        0.17660    0.03180    0.63370    1.000
    H110     H        0.16320    0.01540    0.59890    1.000
    Cu23     Cu       0.35508    0.06450    0.76791    1.000
    O34      O        0.39580    0.02880    0.70650    1.000
    N45      N        0.32640    0.09640    0.84070    1.000
    N46      N        0.41640    0.11930    0.78400    1.000
    C155     C        0.46530    0.12290    0.75710    1.000
    H111     H        0.49040    0.15340    0.76730    1.000
    C156     C        0.48410    0.08360    0.71300    1.000
    C157     C        0.44950    0.03820    0.69010    1.000
    C158     C        0.47210    0.00300    0.64680    1.000
    H112     H        0.44930    0.97350    0.63050    1.000
    C159     C        0.52890    0.01170    0.62750    1.000
    H113     H        0.54440    0.98670    0.59930    1.000
    C160     C        0.56220    0.05540    0.64870    1.000
    H114     H        0.60020    0.06100    0.63500    1.000
    C161     C        0.53930    0.09140    0.69090    1.000
    H115     H        0.56200    0.12230    0.70490    1.000
    Cu24     Cu       0.34164    0.94849    0.71730    1.000
    Cl12     Cl       0.36610    0.94110    0.81220    1.000
    O35      O        0.35880    0.95270    0.81130    1.000
    O36      O        0.48690    0.26020    0.79140    1.000
    N47      N        0.61330    0.31670    0.88830    1.000
    N48      N        0.56630    0.35290    0.79770    1.000
    C162     C        0.53640    0.37170    0.75420    1.000
    H116     H        0.76030    0.45440    0.90870    1.000
    C163     C        0.49080    0.34080    0.72660    1.000
    C164     C        0.46760    0.28740    0.74560    1.000
    C165     C        0.78590    0.57830    0.76330    1.000
    H117     H        0.77290    0.59540    0.72870    1.000
    C166     C        0.83500    0.59860    0.78890    1.000
    H118     H        0.85680    0.62760    0.77040    1.000
    C167     C        0.85340    0.57650    0.84300    1.000
    H119     H        0.88570    0.59240    0.86230    1.000
    C168     C        0.82340    0.53180    0.86630    1.000
    H120     H        0.83680    0.51540    0.90110    1.000
    C169     C        0.35650    0.14350    0.85650    1.000
    C170     C        0.14350    0.85650    0.35650    1.000
    C171     C        0.64350    0.64350    0.64350    1.000
    C172     C        0.85650    0.35650    0.14350    1.000
    C173     C        0.36340    0.86340    0.63660    1.000
    C174     C        0.13660    0.13660    0.13660    1.000
    C175     C        0.63660    0.36340    0.86340    1.000
    C176     C        0.86340    0.63660    0.36340    1.000
    Cu25     Cu       0.73209    0.85508    0.06450    1.000
    O37      O        0.79350    0.89580    0.02880    1.000
    N49      N        0.65930    0.82640    0.09640    1.000
    N50      N        0.71600    0.91640    0.11930    1.000
    C177     C        0.74290    0.96530    0.12290    1.000
    H121     H        0.73270    0.99040    0.15340    1.000
    C178     C        0.78700    0.98410    0.08360    1.000
    C179     C        0.80990    0.94950    0.03820    1.000
    C180     C        0.85320    0.97210    0.00300    1.000
    H122     H        0.86950    0.94930    0.97350    1.000
    C181     C        0.87250    0.02890    0.01170    1.000
    H123     H        0.90070    0.04440    0.98670    1.000
    C182     C        0.85130    0.06220    0.05540    1.000
    H124     H        0.86500    0.10020    0.06100    1.000
    C183     C        0.80910    0.03930    0.09140    1.000
    H125     H        0.79510    0.06200    0.12230    1.000
    Cu26     Cu       0.78270    0.84164    0.94849    1.000
    Cl13     Cl       0.68780    0.86610    0.94110    1.000
    O38      O        0.68870    0.85880    0.95270    1.000
    O39      O        0.70860    0.98690    0.26020    1.000
    N51      N        0.61170    0.11330    0.31670    1.000
    N52      N        0.70230    0.06630    0.35290    1.000
    C184     C        0.74580    0.03640    0.37170    1.000
    H126     H        0.59130    0.26030    0.45440    1.000
    C185     C        0.77340    0.99080    0.34080    1.000
    C186     C        0.75440    0.96760    0.28740    1.000
    C187     C        0.73670    0.28590    0.57830    1.000
    H127     H        0.77130    0.27290    0.59540    1.000
    C188     C        0.71110    0.33500    0.59860    1.000
    H128     H        0.72960    0.35680    0.62760    1.000
    C189     C        0.65700    0.35340    0.57650    1.000
    H129     H        0.63770    0.38570    0.59240    1.000
    C190     C        0.63370    0.32340    0.53180    1.000
    H130     H        0.59890    0.33680    0.51540    1.000
    Cu27     Cu       0.76791    0.14492    0.56450    1.000
    O40      O        0.70650    0.10420    0.52880    1.000
    N53      N        0.84070    0.17360    0.59640    1.000
    N54      N        0.78400    0.08360    0.61930    1.000
    C191     C        0.75710    0.03470    0.62290    1.000
    H131     H        0.76730    0.00960    0.65340    1.000
    C192     C        0.71300    0.01590    0.58360    1.000
    C193     C        0.69010    0.05050    0.53820    1.000
    C194     C        0.64680    0.02790    0.50300    1.000
    H132     H        0.63050    0.05070    0.47350    1.000
    C195     C        0.62750    0.97110    0.51170    1.000
    H133     H        0.59930    0.95560    0.48670    1.000
    C196     C        0.64870    0.93780    0.55540    1.000
    H134     H        0.63500    0.89980    0.56100    1.000
    C197     C        0.69090    0.96070    0.59140    1.000
    H135     H        0.70490    0.93800    0.62230    1.000
    Cu28     Cu       0.71730    0.15836    0.44849    1.000
    Cl14     Cl       0.81220    0.13390    0.44110    1.000
    O41      O        0.81130    0.14120    0.45270    1.000
    O42      O        0.79140    0.01310    0.76020    1.000
    N55      N        0.88830    0.88670    0.81670    1.000
    N56      N        0.79770    0.93370    0.85290    1.000
    C198     C        0.75420    0.96360    0.87170    1.000
    H136     H        0.90870    0.73970    0.95440    1.000
    C199     C        0.72660    0.00920    0.84080    1.000
    C200     C        0.74560    0.03240    0.78740    1.000
    C201     C        0.76330    0.71410    0.07830    1.000
    H137     H        0.72870    0.72710    0.09540    1.000
    C202     C        0.78890    0.66500    0.09860    1.000
    H138     H        0.77040    0.64320    0.12760    1.000
    C203     C        0.84300    0.64660    0.07650    1.000
    H139     H        0.86230    0.61430    0.09240    1.000
    C204     C        0.86630    0.67660    0.03180    1.000
    H140     H        0.90110    0.66320    0.01540    1.000
    Cu29     Cu       0.26791    0.35508    0.43550    1.000
    O43      O        0.20650    0.39580    0.47120    1.000
    N57      N        0.34070    0.32640    0.40360    1.000
    N58      N        0.28400    0.41640    0.38070    1.000
    C205     C        0.25710    0.46530    0.37710    1.000
    H141     H        0.26730    0.49040    0.34660    1.000
    C206     C        0.21300    0.48410    0.41640    1.000
    C207     C        0.19010    0.44950    0.46180    1.000
    C208     C        0.14680    0.47210    0.49700    1.000
    H142     H        0.13050    0.44930    0.52650    1.000
    C209     C        0.12750    0.52890    0.48830    1.000
    H143     H        0.09930    0.54440    0.51330    1.000
    C210     C        0.14870    0.56220    0.44460    1.000
    H144     H        0.13500    0.60020    0.43900    1.000
    C211     C        0.19090    0.53930    0.40860    1.000
    H145     H        0.20490    0.56200    0.37770    1.000
    Cu30     Cu       0.21730    0.34164    0.55151    1.000
    Cl15     Cl       0.31220    0.36610    0.55890    1.000
    O44      O        0.31130    0.35880    0.54730    1.000
    O45      O        0.29140    0.48690    0.23980    1.000
    N59      N        0.38830    0.61330    0.18330    1.000
    N60      N        0.29770    0.56630    0.14710    1.000
    C212     C        0.25420    0.53640    0.12830    1.000
    H146     H        0.40870    0.76030    0.04560    1.000
    C213     C        0.22660    0.49080    0.15920    1.000
    C214     C        0.24560    0.46760    0.21260    1.000
    C215     C        0.26330    0.78590    0.92170    1.000
    H147     H        0.22870    0.77290    0.90460    1.000
    C216     C        0.28890    0.83500    0.90140    1.000
    H148     H        0.27040    0.85680    0.87240    1.000
    C217     C        0.34300    0.85340    0.92350    1.000
    H149     H        0.36230    0.88570    0.90760    1.000
    C218     C        0.36630    0.82340    0.96820    1.000
    H150     H        0.40110    0.83680    0.98460    1.000
    Cu31     Cu       0.23209    0.64492    0.93550    1.000
    O46      O        0.29350    0.60420    0.97120    1.000
    N61      N        0.15930    0.67360    0.90360    1.000
    N62      N        0.21600    0.58360    0.88070    1.000
    C219     C        0.24290    0.53470    0.87710    1.000
    H151     H        0.23270    0.50960    0.84660    1.000
    C220     C        0.28700    0.51590    0.91640    1.000
    C221     C        0.30990    0.55050    0.96180    1.000
    C222     C        0.35320    0.52790    0.99700    1.000
    H152     H        0.36950    0.55070    0.02650    1.000
    C223     C        0.37250    0.47110    0.98830    1.000
    H153     H        0.40070    0.45560    0.01330    1.000
    C224     C        0.35130    0.43780    0.94460    1.000
    H154     H        0.36500    0.39980    0.93900    1.000
    C225     C        0.30910    0.46070    0.90860    1.000
    H155     H        0.29510    0.43800    0.87770    1.000
    Cu32     Cu       0.28270    0.65836    0.05151    1.000
    Cl16     Cl       0.18780    0.63390    0.05890    1.000
    O47      O        0.18870    0.64120    0.04730    1.000
    O48      O        0.20860    0.51310    0.73980    1.000
    N63      N        0.11170    0.38670    0.68330    1.000
    N64      N        0.20230    0.43370    0.64710    1.000
    C226     C        0.24580    0.46360    0.62830    1.000
    H156     H        0.09130    0.23970    0.54560    1.000
    C227     C        0.27340    0.50920    0.65920    1.000
    C228     C        0.25440    0.53240    0.71260    1.000
    C229     C        0.23670    0.21410    0.42170    1.000
    H157     H        0.27130    0.22710    0.40460    1.000
    C230     C        0.21110    0.16500    0.40140    1.000
    H158     H        0.22960    0.14320    0.37240    1.000
    C231     C        0.15700    0.14660    0.42350    1.000
    H159     H        0.13770    0.11430    0.40760    1.000
    C232     C        0.13370    0.17660    0.46820    1.000
    H160     H        0.09890    0.16320    0.48460    1.000
    Cu33     Cu       0.06450    0.73209    0.85508    1.000
    O49      O        0.02880    0.79350    0.89580    1.000
    N65      N        0.09640    0.65930    0.82640    1.000
    N66      N        0.11930    0.71600    0.91640    1.000
    C233     C        0.12290    0.74290    0.96530    1.000
    H161     H        0.15340    0.73270    0.99040    1.000
    C234     C        0.08360    0.78700    0.98410    1.000
    C235     C        0.03820    0.80990    0.94950    1.000
    C236     C        0.00300    0.85320    0.97210    1.000
    H162     H        0.97350    0.86950    0.94930    1.000
    C237     C        0.01170    0.87250    0.02890    1.000
    H163     H        0.98670    0.90070    0.04440    1.000
    C238     C        0.05540    0.85130    0.06220    1.000
    H164     H        0.06100    0.86500    0.10020    1.000
    C239     C        0.09140    0.80910    0.03930    1.000
    H165     H        0.12230    0.79510    0.06200    1.000
    Cu34     Cu       0.94849    0.78270    0.84164    1.000
    Cl17     Cl       0.94110    0.68780    0.86610    1.000
    O50      O        0.95270    0.68870    0.85880    1.000
    O51      O        0.26020    0.70860    0.98690    1.000
    N67      N        0.31670    0.61170    0.11330    1.000
    N68      N        0.35290    0.70230    0.06630    1.000
    C240     C        0.37170    0.74580    0.03640    1.000
    H166     H        0.45440    0.59130    0.26030    1.000
    C241     C        0.34080    0.77340    0.99080    1.000
    C242     C        0.28740    0.75440    0.96760    1.000
    C243     C        0.57830    0.73670    0.28590    1.000
    H167     H        0.59540    0.77130    0.27290    1.000
    C244     C        0.59860    0.71110    0.33500    1.000
    H168     H        0.62760    0.72960    0.35680    1.000
    C245     C        0.57650    0.65700    0.35340    1.000
    H169     H        0.59240    0.63770    0.38570    1.000
    C246     C        0.53180    0.63370    0.32340    1.000
    H170     H        0.51540    0.59890    0.33680    1.000
    Cu35     Cu       0.56450    0.76791    0.14492    1.000
    O52      O        0.52880    0.70650    0.10420    1.000
    N69      N        0.59640    0.84070    0.17360    1.000
    N70      N        0.61930    0.78400    0.08360    1.000
    C247     C        0.62290    0.75710    0.03470    1.000
    H171     H        0.65340    0.76730    0.00960    1.000
    C248     C        0.58360    0.71300    0.01590    1.000
    C249     C        0.53820    0.69010    0.05050    1.000
    C250     C        0.50300    0.64680    0.02790    1.000
    H172     H        0.47350    0.63050    0.05070    1.000
    C251     C        0.51170    0.62750    0.97110    1.000
    H173     H        0.48670    0.59930    0.95560    1.000
    C252     C        0.55540    0.64870    0.93780    1.000
    H174     H        0.56100    0.63500    0.89980    1.000
    C253     C        0.59140    0.69090    0.96070    1.000
    H175     H        0.62230    0.70490    0.93800    1.000
    Cu36     Cu       0.44849    0.71730    0.15836    1.000
    Cl18     Cl       0.44110    0.81220    0.13390    1.000
    O53      O        0.45270    0.81130    0.14120    1.000
    O54      O        0.76020    0.79140    0.01310    1.000
    N71      N        0.81670    0.88830    0.88670    1.000
    N72      N        0.85290    0.79770    0.93370    1.000
    C254     C        0.87170    0.75420    0.96360    1.000
    H176     H        0.95440    0.90870    0.73970    1.000
    C255     C        0.84080    0.72660    0.00920    1.000
    C256     C        0.78740    0.74560    0.03240    1.000
    C257     C        0.07830    0.76330    0.71410    1.000
    H177     H        0.09540    0.72870    0.72710    1.000
    C258     C        0.09860    0.78890    0.66500    1.000
    H178     H        0.12760    0.77040    0.64320    1.000
    C259     C        0.07650    0.84300    0.64660    1.000
    H179     H        0.09240    0.86230    0.61430    1.000
    C260     C        0.03180    0.86630    0.67660    1.000
    H180     H        0.01540    0.90110    0.66320    1.000
    Cu37     Cu       0.43550    0.26791    0.35508    1.000
    O55      O        0.47120    0.20650    0.39580    1.000
    N73      N        0.40360    0.34070    0.32640    1.000
    N74      N        0.38070    0.28400    0.41640    1.000
    C261     C        0.37710    0.25710    0.46530    1.000
    H181     H        0.34660    0.26730    0.49040    1.000
    C262     C        0.41640    0.21300    0.48410    1.000
    C263     C        0.46180    0.19010    0.44950    1.000
    C264     C        0.49700    0.14680    0.47210    1.000
    H182     H        0.52650    0.13050    0.44930    1.000
    C265     C        0.48830    0.12750    0.52890    1.000
    H183     H        0.51330    0.09930    0.54440    1.000
    C266     C        0.44460    0.14870    0.56220    1.000
    H184     H        0.43900    0.13500    0.60020    1.000
    C267     C        0.40860    0.19090    0.53930    1.000
    H185     H        0.37770    0.20490    0.56200    1.000
    Cu38     Cu       0.55151    0.21730    0.34164    1.000
    Cl19     Cl       0.55890    0.31220    0.36610    1.000
    O56      O        0.54730    0.31130    0.35880    1.000
    O57      O        0.23980    0.29140    0.48690    1.000
    N75      N        0.18330    0.38830    0.61330    1.000
    N76      N        0.14710    0.29770    0.56630    1.000
    C268     C        0.12830    0.25420    0.53640    1.000
    H186     H        0.04560    0.40870    0.76030    1.000
    C269     C        0.15920    0.22660    0.49080    1.000
    C270     C        0.21260    0.24560    0.46760    1.000
    C271     C        0.92170    0.26330    0.78590    1.000
    H187     H        0.90460    0.22870    0.77290    1.000
    C272     C        0.90140    0.28890    0.83500    1.000
    H188     H        0.87240    0.27040    0.85680    1.000
    C273     C        0.92350    0.34300    0.85340    1.000
    H189     H        0.90760    0.36230    0.88570    1.000
    C274     C        0.96820    0.36630    0.82340    1.000
    H190     H        0.98460    0.40110    0.83680    1.000
    Cu39     Cu       0.93550    0.23209    0.64492    1.000
    O58      O        0.97120    0.29350    0.60420    1.000
    N77      N        0.90360    0.15930    0.67360    1.000
    N78      N        0.88070    0.21600    0.58360    1.000
    C275     C        0.87710    0.24290    0.53470    1.000
    H191     H        0.84660    0.23270    0.50960    1.000
    C276     C        0.91640    0.28700    0.51590    1.000
    C277     C        0.96180    0.30990    0.55050    1.000
    C278     C        0.99700    0.35320    0.52790    1.000
    H192     H        0.02650    0.36950    0.55070    1.000
    C279     C        0.98830    0.37250    0.47110    1.000
    H193     H        0.01330    0.40070    0.45560    1.000
    C280     C        0.94460    0.35130    0.43780    1.000
    H194     H        0.93900    0.36500    0.39980    1.000
    C281     C        0.90860    0.30910    0.46070    1.000
    H195     H        0.87770    0.29510    0.43800    1.000
    Cu40     Cu       0.05151    0.28270    0.65836    1.000
    Cl20     Cl       0.05890    0.18780    0.63390    1.000
    O59      O        0.04730    0.18870    0.64120    1.000
    O60      O        0.73980    0.20860    0.51310    1.000
    N79      N        0.68330    0.11170    0.38670    1.000
    N80      N        0.64710    0.20230    0.43370    1.000
    C282     C        0.62830    0.24580    0.46360    1.000
    H196     H        0.54560    0.09130    0.23970    1.000
    C283     C        0.65920    0.27340    0.50920    1.000
    C284     C        0.71260    0.25440    0.53240    1.000
    C285     C        0.42170    0.23670    0.21410    1.000
    H197     H        0.40460    0.27130    0.22710    1.000
    C286     C        0.40140    0.21110    0.16500    1.000
    H198     H        0.37240    0.22960    0.14320    1.000
    C287     C        0.42350    0.15700    0.14660    1.000
    H199     H        0.40760    0.13770    0.11430    1.000
    C288     C        0.46820    0.13370    0.17660    1.000
    H200     H        0.48460    0.09890    0.16320    1.000
    Cu41     Cu       0.85508    0.06450    0.73209    1.000
    O61      O        0.89580    0.02880    0.79350    1.000
    N81      N        0.82640    0.09640    0.65930    1.000
    N82      N        0.91640    0.11930    0.71600    1.000
    C289     C        0.96530    0.12290    0.74290    1.000
    H201     H        0.99040    0.15340    0.73270    1.000
    C290     C        0.98410    0.08360    0.78700    1.000
    C291     C        0.94950    0.03820    0.80990    1.000
    C292     C        0.97210    0.00300    0.85320    1.000
    H202     H        0.94930    0.97350    0.86950    1.000
    C293     C        0.02890    0.01170    0.87250    1.000
    H203     H        0.04440    0.98670    0.90070    1.000
    C294     C        0.06220    0.05540    0.85130    1.000
    H204     H        0.10020    0.06100    0.86500    1.000
    C295     C        0.03930    0.09140    0.80910    1.000
    H205     H        0.06200    0.12230    0.79510    1.000
    Cu42     Cu       0.84164    0.94849    0.78270    1.000
    Cl21     Cl       0.86610    0.94110    0.68780    1.000
    O62      O        0.85880    0.95270    0.68870    1.000
    O63      O        0.98690    0.26020    0.70860    1.000
    N83      N        0.11330    0.31670    0.61170    1.000
    N84      N        0.06630    0.35290    0.70230    1.000
    C296     C        0.03640    0.37170    0.74580    1.000
    H206     H        0.26030    0.45440    0.59130    1.000
    C297     C        0.99080    0.34080    0.77340    1.000
    C298     C        0.96760    0.28740    0.75440    1.000
    C299     C        0.28590    0.57830    0.73670    1.000
    H207     H        0.27290    0.59540    0.77130    1.000
    C300     C        0.33500    0.59860    0.71110    1.000
    H208     H        0.35680    0.62760    0.72960    1.000
    C301     C        0.35340    0.57650    0.65700    1.000
    H209     H        0.38570    0.59240    0.63770    1.000
    C302     C        0.32340    0.53180    0.63370    1.000
    H210     H        0.33680    0.51540    0.59890    1.000
    Cu43     Cu       0.14492    0.56450    0.76791    1.000
    O64      O        0.10420    0.52880    0.70650    1.000
    N85      N        0.17360    0.59640    0.84070    1.000
    N86      N        0.08360    0.61930    0.78400    1.000
    C303     C        0.03470    0.62290    0.75710    1.000
    H211     H        0.00960    0.65340    0.76730    1.000
    C304     C        0.01590    0.58360    0.71300    1.000
    C305     C        0.05050    0.53820    0.69010    1.000
    C306     C        0.02790    0.50300    0.64680    1.000
    H212     H        0.05070    0.47350    0.63050    1.000
    C307     C        0.97110    0.51170    0.62750    1.000
    H213     H        0.95560    0.48670    0.59930    1.000
    C308     C        0.93780    0.55540    0.64870    1.000
    H214     H        0.89980    0.56100    0.63500    1.000
    C309     C        0.96070    0.59140    0.69090    1.000
    H215     H        0.93800    0.62230    0.70490    1.000
    Cu44     Cu       0.15836    0.44849    0.71730    1.000
    Cl22     Cl       0.13390    0.44110    0.81220    1.000
    O65      O        0.14120    0.45270    0.81130    1.000
    O66      O        0.01310    0.76020    0.79140    1.000
    N87      N        0.88670    0.81670    0.88830    1.000
    N88      N        0.93370    0.85290    0.79770    1.000
    C310     C        0.96360    0.87170    0.75420    1.000
    H216     H        0.73970    0.95440    0.90870    1.000
    C311     C        0.00920    0.84080    0.72660    1.000
    C312     C        0.03240    0.78740    0.74560    1.000
    C313     C        0.71410    0.07830    0.76330    1.000
    H217     H        0.72710    0.09540    0.72870    1.000
    C314     C        0.66500    0.09860    0.78890    1.000
    H218     H        0.64320    0.12760    0.77040    1.000
    C315     C        0.64660    0.07650    0.84300    1.000
    H219     H        0.61430    0.09240    0.86230    1.000
    C316     C        0.67660    0.03180    0.86630    1.000
    H220     H        0.66320    0.01540    0.90110    1.000
    Cu45     Cu       0.35508    0.43550    0.26791    1.000
    O67      O        0.39580    0.47120    0.20650    1.000
    N89      N        0.32640    0.40360    0.34070    1.000
    N90      N        0.41640    0.38070    0.28400    1.000
    C317     C        0.46530    0.37710    0.25710    1.000
    H221     H        0.49040    0.34660    0.26730    1.000
    C318     C        0.48410    0.41640    0.21300    1.000
    C319     C        0.44950    0.46180    0.19010    1.000
    C320     C        0.47210    0.49700    0.14680    1.000
    H222     H        0.44930    0.52650    0.13050    1.000
    C321     C        0.52890    0.48830    0.12750    1.000
    H223     H        0.54440    0.51330    0.09930    1.000
    C322     C        0.56220    0.44460    0.14870    1.000
    H224     H        0.60020    0.43900    0.13500    1.000
    C323     C        0.53930    0.40860    0.19090    1.000
    H225     H        0.56200    0.37770    0.20490    1.000
    Cu46     Cu       0.34164    0.55151    0.21730    1.000
    Cl23     Cl       0.36610    0.55890    0.31220    1.000
    O68      O        0.35880    0.54730    0.31130    1.000
    O69      O        0.48690    0.23980    0.29140    1.000
    N91      N        0.61330    0.18330    0.38830    1.000
    N92      N        0.56630    0.14710    0.29770    1.000
    C324     C        0.53640    0.12830    0.25420    1.000
    H226     H        0.76030    0.04560    0.40870    1.000
    C325     C        0.49080    0.15920    0.22660    1.000
    C326     C        0.46760    0.21260    0.24560    1.000
    C327     C        0.78590    0.92170    0.26330    1.000
    H227     H        0.77290    0.90460    0.22870    1.000
    C328     C        0.83500    0.90140    0.28890    1.000
    H228     H        0.85680    0.87240    0.27040    1.000
    C329     C        0.85340    0.92350    0.34300    1.000
    H229     H        0.88570    0.90760    0.36230    1.000
    C330     C        0.82340    0.96820    0.36630    1.000
    H230     H        0.83680    0.98460    0.40110    1.000
    Cu47     Cu       0.64492    0.93550    0.23209    1.000
    O70      O        0.60420    0.97120    0.29350    1.000
    N93      N        0.67360    0.90360    0.15930    1.000
    N94      N        0.58360    0.88070    0.21600    1.000
    C331     C        0.53470    0.87710    0.24290    1.000
    H231     H        0.50960    0.84660    0.23270    1.000
    C332     C        0.51590    0.91640    0.28700    1.000
    C333     C        0.55050    0.96180    0.30990    1.000
    C334     C        0.52790    0.99700    0.35320    1.000
    H232     H        0.55070    0.02650    0.36950    1.000
    C335     C        0.47110    0.98830    0.37250    1.000
    H233     H        0.45560    0.01330    0.40070    1.000
    C336     C        0.43780    0.94460    0.35130    1.000
    H234     H        0.39980    0.93900    0.36500    1.000
    C337     C        0.46070    0.90860    0.30910    1.000
    H235     H        0.43800    0.87770    0.29510    1.000
    Cu48     Cu       0.65836    0.05151    0.28270    1.000
    Cl24     Cl       0.63390    0.05890    0.18780    1.000
    O71      O        0.64120    0.04730    0.18870    1.000
    O72      O        0.51310    0.73980    0.20860    1.000
    N95      N        0.38670    0.68330    0.11170    1.000
    N96      N        0.43370    0.64710    0.20230    1.000
    C338     C        0.46360    0.62830    0.24580    1.000
    H236     H        0.23970    0.54560    0.09130    1.000
    C339     C        0.50920    0.65920    0.27340    1.000
    C340     C        0.53240    0.71260    0.25440    1.000
    C341     C        0.21410    0.42170    0.23670    1.000
    H237     H        0.22710    0.40460    0.27130    1.000
    C342     C        0.16500    0.40140    0.21110    1.000
    H238     H        0.14320    0.37240    0.22960    1.000
    C343     C        0.14660    0.42350    0.15700    1.000
    H239     H        0.11430    0.40760    0.13770    1.000
    C344     C        0.17660    0.46820    0.13370    1.000
    H240     H        0.16320    0.48460    0.09890    1.000
    C345     C        0.64350    0.85650    0.14350    1.000
    C346     C        0.85650    0.14350    0.64350    1.000
    C347     C        0.35650    0.35650    0.35650    1.000
    C348     C        0.14350    0.64350    0.85650    1.000
    C349     C        0.63660    0.13660    0.36340    1.000
    C350     C        0.86340    0.86340    0.86340    1.000
    C351     C        0.36340    0.63660    0.13660    1.000
    C352     C        0.13660    0.36340    0.63660    1.000
