data_functionalizedCrystal
_audit_creation_method	'EQeq! by Chris Wilmer'
_symmetry_space_group_name_H-M	'P1'
_symmetry_Int_Tables_number	1
_symmetry_cell_setting	triclinic
loop_
_symmetry_equiv_pos_as_xyz
  x,y,z
_cell_length_a	21.8879
_cell_length_b	7.0573
_cell_length_c	19.2414
_cell_angle_alpha	90
_cell_angle_beta	122.344
_cell_angle_gamma	90
loop_
_atom_site_label
_atom_site_type_symbol
_atom_site_fract_x
_atom_site_fract_y
_atom_site_fract_z
_atom_site_charge
Mof_Cd	Cd	0.23585	0.4695	0.22143	0.444
Mof_O 	O 	0.1331	0.3917	0.0884	-0.289
Mof_O 	O 	0.1691	0.1686	0.181	-0.31
Mof_O 	O 	0.3192	0.3728	0.1964	-0.31
Mof_O 	O 	0.3396	0.0827	0.2442	-0.325
Mof_N 	N 	0.0071	0.359	0.9462	-0.329
Mof_H 	H 	0.9722	0.3964	0.8987	0.17
Mof_H 	H 	0.0427	0.4341	0.9765	0.187
Mof_N 	N 	0.441	0.579	0.249	-0.286
Mof_H 	H 	0.4021	0.5896	0.249	0.173
Mof_H 	H 	0.4656	0.6778	0.2527	0.109
Mof_N 	N 	0.448	0.887	0.261	-0.284
Mof_H 	H 	0.4116	0.8767	0.2667	0.167
Mof_H 	H 	0.4729	0.7888	0.2655	0.105
Mof_C 	C 	0.1246	0.2327	0.1101	0.321
Mof_C 	C 	0.0596	0.1156	0.0523	-0.102
Mof_C 	C 	0.0059	0.182	0.9736	0.153
Mof_C 	C 	0.0517	0.9356	0.076	-0.089
Mof_H 	H 	0.0871	0.8923	0.128	0.073
Mof_C 	C 	0.3571	0.23	0.2245	0.375
Mof_C 	C 	0.431	0.2339	0.2358	-0.163
Mof_C 	C 	0.4646	0.4015	0.2423	0.106
Mof_C 	C 	0.4658	0.061	0.2448	0.101
Mof_Cd	Cd	0.73585	0.9695	0.22143	0.444
Mof_O 	O 	0.6331	0.8917	0.0884	-0.288
Mof_O 	O 	0.6691	0.6686	0.181	-0.309
Mof_O 	O 	0.8192	0.8728	0.1964	-0.31
Mof_O 	O 	0.8396	0.5827	0.2442	-0.325
Mof_N 	N 	0.5071	0.859	0.9462	-0.329
Mof_H 	H 	0.4722	0.8964	0.8987	0.17
Mof_H 	H 	0.5427	0.9341	0.9765	0.187
Mof_N 	N 	0.941	0.079	0.249	-0.285
Mof_H 	H 	0.9021	0.0896	0.249	0.173
Mof_H 	H 	0.9656	0.1778	0.2527	0.109
Mof_N 	N 	0.948	0.387	0.261	-0.284
Mof_H 	H 	0.9116	0.3767	0.2667	0.167
Mof_H 	H 	0.9729	0.2888	0.2655	0.105
Mof_C 	C 	0.6246	0.7327	0.1101	0.321
Mof_C 	C 	0.5596	0.6156	0.0523	-0.104
Mof_C 	C 	0.5059	0.682	0.9736	0.154
Mof_C 	C 	0.5517	0.4356	0.076	-0.088
Mof_H 	H 	0.5871	0.3923	0.128	0.073
Mof_C 	C 	0.8571	0.73	0.2245	0.375
Mof_C 	C 	0.931	0.7339	0.2358	-0.163
Mof_C 	C 	0.9646	0.9015	0.2423	0.105
Mof_C 	C 	0.9658	0.561	0.2448	0.1
Mof_Cd	Cd	0.76415	0.4695	0.27857	0.445
Mof_O 	O 	0.8669	0.3917	0.4116	-0.288
Mof_O 	O 	0.8309	0.1686	0.319	-0.309
Mof_O 	O 	0.6808	0.3728	0.3036	-0.309
Mof_O 	O 	0.6604	0.0827	0.2558	-0.325
Mof_N 	N 	0.9929	0.359	0.5538	-0.329
Mof_H 	H 	0.0278	0.3964	0.6013	0.169
Mof_H 	H 	0.9573	0.4341	0.5235	0.187
Mof_N 	N 	0.559	0.579	0.251	-0.286
Mof_H 	H 	0.5979	0.5896	0.251	0.173
Mof_H 	H 	0.5344	0.6778	0.2473	0.109
Mof_N 	N 	0.552	0.887	0.239	-0.284
Mof_H 	H 	0.5884	0.8767	0.2333	0.167
Mof_H 	H 	0.5271	0.7888	0.2345	0.105
Mof_C 	C 	0.8754	0.2327	0.3899	0.321
Mof_C 	C 	0.9404	0.1156	0.4477	-0.103
Mof_C 	C 	0.9941	0.182	0.5264	0.154
Mof_C 	C 	0.9483	0.9356	0.424	-0.089
Mof_H 	H 	0.9129	0.8923	0.372	0.073
Mof_C 	C 	0.6429	0.23	0.2755	0.375
Mof_C 	C 	0.569	0.2339	0.2642	-0.163
Mof_C 	C 	0.5354	0.4015	0.2577	0.106
Mof_C 	C 	0.5342	0.061	0.2552	0.101
Mof_Cd	Cd	0.26415	0.9695	0.27857	0.445
Mof_O 	O 	0.3669	0.8917	0.4116	-0.288
Mof_O 	O 	0.3309	0.6686	0.319	-0.309
Mof_O 	O 	0.1808	0.8728	0.3036	-0.309
Mof_O 	O 	0.1604	0.5827	0.2558	-0.325
Mof_N 	N 	0.4929	0.859	0.5538	-0.329
Mof_H 	H 	0.5278	0.8964	0.6013	0.17
Mof_H 	H 	0.4573	0.9341	0.5235	0.187
Mof_N 	N 	0.059	0.079	0.251	-0.285
Mof_H 	H 	0.0979	0.0896	0.251	0.173
Mof_H 	H 	0.0344	0.1778	0.2473	0.109
Mof_N 	N 	0.052	0.387	0.239	-0.284
Mof_H 	H 	0.0884	0.3767	0.2333	0.167
Mof_H 	H 	0.0271	0.2888	0.2345	0.106
Mof_C 	C 	0.3754	0.7327	0.3899	0.321
Mof_C 	C 	0.4404	0.6156	0.4477	-0.103
Mof_C 	C 	0.4941	0.682	0.5264	0.154
Mof_C 	C 	0.4483	0.4356	0.424	-0.088
Mof_H 	H 	0.4129	0.3923	0.372	0.073
Mof_C 	C 	0.1429	0.73	0.2755	0.375
Mof_C 	C 	0.069	0.7339	0.2642	-0.163
Mof_C 	C 	0.0354	0.9015	0.2577	0.105
Mof_C 	C 	0.0342	0.561	0.2552	0.101
Mof_Cd	Cd	0.76415	0.5305	0.77857	0.445
Mof_O 	O 	0.8669	0.6083	0.9116	-0.288
Mof_O 	O 	0.8309	0.8314	0.819	-0.309
Mof_O 	O 	0.6808	0.6272	0.8036	-0.309
Mof_O 	O 	0.6604	0.9173	0.7558	-0.325
Mof_N 	N 	0.9929	0.641	0.0538	-0.329
Mof_H 	H 	0.0278	0.6036	0.1013	0.17
Mof_H 	H 	0.9573	0.5659	0.0235	0.187
Mof_N 	N 	0.559	0.421	0.751	-0.286
Mof_H 	H 	0.5979	0.4104	0.751	0.173
Mof_H 	H 	0.5344	0.3222	0.7473	0.109
Mof_N 	N 	0.552	0.113	0.739	-0.284
Mof_H 	H 	0.5884	0.1233	0.7333	0.167
Mof_H 	H 	0.5271	0.2112	0.7345	0.105
Mof_C 	C 	0.8754	0.7673	0.8899	0.321
Mof_C 	C 	0.9404	0.8844	0.9477	-0.102
Mof_C 	C 	0.9941	0.818	0.0264	0.153
Mof_C 	C 	0.9483	0.0644	0.924	-0.089
Mof_H 	H 	0.9129	0.1077	0.872	0.073
Mof_C 	C 	0.6429	0.77	0.7755	0.375
Mof_C 	C 	0.569	0.7661	0.7642	-0.163
Mof_C 	C 	0.5354	0.5985	0.7577	0.106
Mof_C 	C 	0.5342	0.939	0.7552	0.101
Mof_Cd	Cd	0.26415	0.0305	0.77857	0.444
Mof_O 	O 	0.3669	0.1083	0.9116	-0.288
Mof_O 	O 	0.3309	0.3314	0.819	-0.309
Mof_O 	O 	0.1808	0.1272	0.8036	-0.31
Mof_O 	O 	0.1604	0.4173	0.7558	-0.325
Mof_N 	N 	0.4929	0.141	0.0538	-0.329
Mof_H 	H 	0.5278	0.1036	0.1013	0.17
Mof_H 	H 	0.4573	0.0659	0.0235	0.187
Mof_N 	N 	0.059	0.921	0.751	-0.285
Mof_H 	H 	0.0979	0.9104	0.751	0.173
Mof_H 	H 	0.0344	0.8222	0.7473	0.109
Mof_N 	N 	0.052	0.613	0.739	-0.284
Mof_H 	H 	0.0884	0.6233	0.7333	0.167
Mof_H 	H 	0.0271	0.7112	0.7345	0.105
Mof_C 	C 	0.3754	0.2673	0.8899	0.321
Mof_C 	C 	0.4404	0.3844	0.9477	-0.104
Mof_C 	C 	0.4941	0.318	0.0264	0.154
Mof_C 	C 	0.4483	0.5644	0.924	-0.088
Mof_H 	H 	0.4129	0.6077	0.872	0.073
Mof_C 	C 	0.1429	0.27	0.7755	0.375
Mof_C 	C 	0.069	0.2661	0.7642	-0.163
Mof_C 	C 	0.0354	0.0985	0.7577	0.105
Mof_C 	C 	0.0342	0.439	0.7552	0.1
Mof_Cd	Cd	0.23585	0.5305	0.72143	0.445
Mof_O 	O 	0.1331	0.6083	0.5884	-0.288
Mof_O 	O 	0.1691	0.8314	0.681	-0.309
Mof_O 	O 	0.3192	0.6272	0.6964	-0.309
Mof_O 	O 	0.3396	0.9173	0.7442	-0.325
Mof_N 	N 	0.0071	0.641	0.4462	-0.329
Mof_H 	H 	0.9722	0.6036	0.3987	0.169
Mof_H 	H 	0.0427	0.5659	0.4765	0.187
Mof_N 	N 	0.441	0.421	0.749	-0.286
Mof_H 	H 	0.4021	0.4104	0.749	0.173
Mof_H 	H 	0.4656	0.3222	0.7527	0.109
Mof_N 	N 	0.448	0.113	0.761	-0.284
Mof_H 	H 	0.4116	0.1233	0.7667	0.167
Mof_H 	H 	0.4729	0.2112	0.7655	0.105
Mof_C 	C 	0.1246	0.7673	0.6101	0.321
Mof_C 	C 	0.0596	0.8844	0.5523	-0.103
Mof_C 	C 	0.0059	0.818	0.4736	0.154
Mof_C 	C 	0.0517	0.0644	0.576	-0.089
Mof_H 	H 	0.0871	0.1077	0.628	0.073
Mof_C 	C 	0.3571	0.77	0.7245	0.375
Mof_C 	C 	0.431	0.7661	0.7358	-0.163
Mof_C 	C 	0.4646	0.5985	0.7423	0.106
Mof_C 	C 	0.4658	0.939	0.7448	0.101
Mof_Cd	Cd	0.73585	0.0305	0.72143	0.445
Mof_O 	O 	0.6331	0.1083	0.5884	-0.288
Mof_O 	O 	0.6691	0.3314	0.681	-0.309
Mof_O 	O 	0.8192	0.1272	0.6964	-0.309
Mof_O 	O 	0.8396	0.4173	0.7442	-0.325
Mof_N 	N 	0.5071	0.141	0.4462	-0.329
Mof_H 	H 	0.4722	0.1036	0.3987	0.17
Mof_H 	H 	0.5427	0.0659	0.4765	0.187
Mof_N 	N 	0.941	0.921	0.749	-0.285
Mof_H 	H 	0.9021	0.9104	0.749	0.173
Mof_H 	H 	0.9656	0.8222	0.7527	0.109
Mof_N 	N 	0.948	0.613	0.761	-0.284
Mof_H 	H 	0.9116	0.6233	0.7667	0.167
Mof_H 	H 	0.9729	0.7112	0.7655	0.106
Mof_C 	C 	0.6246	0.2673	0.6101	0.321
Mof_C 	C 	0.5596	0.3844	0.5523	-0.103
Mof_C 	C 	0.5059	0.318	0.4736	0.154
Mof_C 	C 	0.5517	0.5644	0.576	-0.088
Mof_H 	H 	0.5871	0.6077	0.628	0.073
Mof_C 	C 	0.8571	0.27	0.7245	0.375
Mof_C 	C 	0.931	0.2661	0.7358	-0.163
Mof_C 	C 	0.9646	0.0985	0.7423	0.105
Mof_C 	C 	0.9658	0.439	0.7448	0.101
_end
