data_functionalizedCrystal
_audit_creation_method	'EQeq! by Chris Wilmer'
_symmetry_space_group_name_H-M	'P1'
_symmetry_Int_Tables_number	1
_symmetry_cell_setting	triclinic
loop_
_symmetry_equiv_pos_as_xyz
  x,y,z
_cell_length_a	11.878
_cell_length_b	12.419
_cell_length_c	12.489
_cell_angle_alpha	90
_cell_angle_beta	98.63
_cell_angle_gamma	90
loop_
_atom_site_label
_atom_site_type_symbol
_atom_site_fract_x
_atom_site_fract_y
_atom_site_fract_z
_atom_site_charge
Mof_C 	C 	0.5179	0.6605	0.5117	-0.007
Mof_C 	C 	0.6136	0.6252	0.4699	-0.203
Mof_H 	H 	0.6766	0.5989	0.5156	0.113
Mof_C 	C 	0.6132	0.63	0.3591	0.267
Mof_C 	C 	0.5194	0.6658	0.2894	-0.328
Mof_H 	H 	0.5209	0.6693	0.2152	0.153
Mof_C 	C 	0.4224	0.6964	0.3323	0.27
Mof_C 	C 	0.4224	0.6979	0.4426	-0.203
Mof_H 	H 	0.3595	0.7236	0.4708	0.116
Mof_C 	C 	0.5151	0.6591	0.6309	0.453
Mof_C 	C 	0.7213	0.6189	0.2131	0.053
Mof_H 	H 	0.6978	0.6932	0.1955	0.026
Mof_C 	C 	0.6435	0.5422	0.1374	0.476
Mof_C 	C 	0.8445	0.6065	0.1986	-0.48
Mof_H 	H 	0.8893	0.661	0.2396	0.18
Mof_H 	H 	0.8513	0.614	0.1233	0.165
Mof_H 	H 	0.8714	0.5367	0.2236	0.149
Mof_C 	C 	0.3099	0.7052	0.1572	0.074
Mof_H 	H 	0.3422	0.6341	0.1465	0.014
Mof_C 	C 	0.3694	0.7884	0.0939	0.464
Mof_C 	C 	0.1832	0.7011	0.1184	-0.507
Mof_H 	H 	0.1498	0.6445	0.1555	0.19
Mof_H 	H 	0.1698	0.6874	0.0418	0.163
Mof_H 	H 	0.1494	0.7687	0.133	0.184
Mof_C 	C 	0.9772	0.4532	0.9074	0.082
Mof_C 	C 	0.0354	0.4501	0.0116	-0.254
Mof_H 	H 	0.9973	0.4628	0.0703	0.118
Mof_C 	C 	0.1507	0.4281	0.0281	0.303
Mof_C 	C 	0.2078	0.4102	0.94	-0.347
Mof_H 	H 	0.2855	0.396	0.951	0.15
Mof_C 	C 	0.1477	0.4138	0.8357	0.299
Mof_C 	C 	0.0325	0.4347	0.8182	-0.245
Mof_H 	H 	0.9924	0.4364	0.7482	0.131
Mof_C 	C 	0.8523	0.4797	0.8892	0.249
Mof_C 	C 	0.3137	0.4285	0.7501	0.136
Mof_H 	H 	0.3624	0.3796	0.7982	-0.009
Mof_C 	C 	0.3311	0.5436	0.7913	0.338
Mof_C 	C 	0.3444	0.4214	0.6354	-0.56
Mof_H 	H 	0.326	0.3509	0.6063	0.207
Mof_H 	H 	0.4244	0.4344	0.6378	0.184
Mof_H 	H 	0.302	0.4744	0.5901	0.197
Mof_C 	C 	0.3166	0.4004	0.161	0.167
Mof_H 	H 	0.3639	0.4473	0.123	-0.024
Mof_C 	C 	0.3364	0.2827	0.1338	0.324
Mof_C 	C 	0.3458	0.4161	0.2814	-0.594
Mof_H 	H 	0.3264	0.4881	0.2998	0.216
Mof_H 	H 	0.426	0.4048	0.3031	0.191
Mof_H 	H 	0.3038	0.3656	0.3181	0.205
Mof_O 	O 	0.4404	0.7157	0.6647	-0.543
Mof_O 	O 	0.5873	0.602	0.6881	-0.567
Mof_O 	O 	0.7124	0.5995	0.3233	-0.271
Mof_O 	O 	0.6186	0.4531	0.1718	-0.595
Mof_O 	O 	0.6099	0.578	0.0447	-0.584
Mof_O 	O 	0.3237	0.727	0.2706	-0.261
Mof_O 	O 	0.3764	0.7628	0.9988	-0.59
Mof_O 	O 	0.4075	0.8732	0.1406	-0.533
Mof_O 	O 	0.8013	0.5041	0.7977	-0.424
Mof_O 	O 	0.7993	0.4779	0.9714	-0.461
Mof_O 	O 	0.2003	0.4286	0.1334	-0.292
Mof_O 	O 	0.2571	0.2174	0.1214	-0.45
Mof_O 	O 	0.4381	0.255	0.128	-0.592
Mof_O 	O 	0.1981	0.3971	0.7447	-0.274
Mof_O 	O 	0.2533	0.6115	0.7684	-0.478
Mof_O 	O 	0.4264	0.5693	0.8444	-0.612
Mof_O 	O 	0.2469	0.8394	0.6534	-0.892
Mof_H 	H 	0.2391	0.8962	0.6895	0.318
Mof_H 	H 	0.2062	0.8441	0.5915	0.389
Mof_Tb	Tb	0.62814	0.55439	0.868	2.321
Mof_Tb	Tb	0.36193	0.77053	0.81499	2.229
Mof_C 	C 	0.4821	0.1605	0.4883	-0.014
Mof_C 	C 	0.3864	0.1252	0.5301	-0.207
Mof_H 	H 	0.3234	0.0989	0.4844	0.105
Mof_C 	C 	0.3868	0.13	0.6409	0.262
Mof_C 	C 	0.4806	0.1658	0.7106	-0.334
Mof_H 	H 	0.4791	0.1693	0.7848	0.152
Mof_C 	C 	0.5776	0.1964	0.6677	0.262
Mof_C 	C 	0.5776	0.1979	0.5574	-0.209
Mof_H 	H 	0.6405	0.2236	0.5292	0.108
Mof_C 	C 	0.4849	0.1591	0.3691	0.444
Mof_C 	C 	0.2787	0.1189	0.7869	0.065
Mof_H 	H 	0.3022	0.1932	0.8045	0.023
Mof_C 	C 	0.3565	0.0422	0.8626	0.402
Mof_C 	C 	0.1555	0.1065	0.8014	-0.467
Mof_H 	H 	0.1107	0.161	0.7604	0.171
Mof_H 	H 	0.1487	0.114	0.8767	0.152
Mof_H 	H 	0.1286	0.0367	0.7764	0.127
Mof_C 	C 	0.6901	0.2052	0.8428	0.058
Mof_H 	H 	0.6578	0.1341	0.8535	0.005
Mof_C 	C 	0.6306	0.2884	0.9061	0.474
Mof_C 	C 	0.8168	0.2011	0.8816	-0.471
Mof_H 	H 	0.8502	0.1445	0.8445	0.164
Mof_H 	H 	0.8302	0.1874	0.9582	0.142
Mof_H 	H 	0.8506	0.2687	0.867	0.169
Mof_C 	C 	0.0228	0.9532	0.0926	0.082
Mof_C 	C 	0.9646	0.9501	0.9884	-0.251
Mof_H 	H 	0.0027	0.9628	0.9297	0.13
Mof_C 	C 	0.8493	0.9281	0.9719	0.311
Mof_C 	C 	0.7922	0.9102	0.06	-0.343
Mof_H 	H 	0.7145	0.896	0.049	0.158
Mof_C 	C 	0.8523	0.9138	0.1643	0.316
Mof_C 	C 	0.9675	0.9347	0.1818	-0.241
Mof_H 	H 	0.0076	0.9364	0.2518	0.145
Mof_C 	C 	0.1477	0.9797	0.1108	0.316
Mof_C 	C 	0.6863	0.9285	0.2499	0.242
Mof_H 	H 	0.6376	0.8796	0.2018	-0.034
Mof_C 	C 	0.6689	0.0436	0.2087	0.254
Mof_C 	C 	0.6556	0.9214	0.3646	-0.683
Mof_H 	H 	0.674	0.8509	0.3937	0.246
Mof_H 	H 	0.5756	0.9344	0.3622	0.238
Mof_H 	H 	0.698	0.9744	0.4099	0.252
Mof_C 	C 	0.6834	0.9004	0.839	0.178
Mof_H 	H 	0.6361	0.9473	0.877	-0.015
Mof_C 	C 	0.6636	0.7827	0.8662	0.32
Mof_C 	C 	0.6542	0.9161	0.7186	-0.628
Mof_H 	H 	0.6736	0.9881	0.7002	0.245
Mof_H 	H 	0.574	0.9048	0.6969	0.209
Mof_H 	H 	0.6962	0.8656	0.6819	0.219
Mof_O 	O 	0.5596	0.2157	0.3353	-0.544
Mof_O 	O 	0.4127	0.102	0.3119	-0.566
Mof_O 	O 	0.2876	0.0995	0.6767	-0.286
Mof_O 	O 	0.3814	0.9531	0.8282	-0.539
Mof_O 	O 	0.3901	0.078	0.9553	-0.567
Mof_O 	O 	0.6763	0.227	0.7294	-0.268
Mof_O 	O 	0.6236	0.2628	0.0012	-0.598
Mof_O 	O 	0.5925	0.3732	0.8594	-0.569
Mof_O 	O 	0.1987	0.0041	0.2023	-0.48
Mof_O 	O 	0.2007	0.9779	0.0286	-0.438
Mof_O 	O 	0.7997	0.9286	0.8666	-0.283
Mof_O 	O 	0.7429	0.7174	0.8786	-0.452
Mof_O 	O 	0.5619	0.755	0.872	-0.596
Mof_O 	O 	0.8019	0.8971	0.2553	-0.288
Mof_O 	O 	0.7467	0.1115	0.2316	-0.477
Mof_O 	O 	0.5736	0.0693	0.1556	-0.597
Mof_O 	O 	0.7531	0.3394	0.3466	-0.886
Mof_H 	H 	0.7609	0.3962	0.3105	0.301
Mof_H 	H 	0.7938	0.3441	0.4085	0.374
Mof_Tb	Tb	0.37186	0.05439	0.132	2.209
Mof_Tb	Tb	0.63807	0.27053	0.18501	2.217
_end
