data_functionalizedCrystal
_audit_creation_method	'EQeq! by Chris Wilmer'
_symmetry_space_group_name_H-M	'P1'
_symmetry_Int_Tables_number	1
_symmetry_cell_setting	triclinic
loop_
_symmetry_equiv_pos_as_xyz
  x,y,z
_cell_length_a	17.4259
_cell_length_b	17.4259
_cell_length_c	17.4259
_cell_angle_alpha	60
_cell_angle_beta	60
_cell_angle_gamma	60
loop_
_atom_site_label
_atom_site_type_symbol
_atom_site_fract_x
_atom_site_fract_y
_atom_site_fract_z
_atom_site_charge
Mof_Cu	Cu	0.86225	0.75	0.13775	0.846
Mof_Cu	Cu	0.75	0.13775	0.75	0.846
Mof_Cu	Cu	0.75	0.36225	0.13775	0.846
Mof_Cu	Cu	0.63775	0.25	0.36225	0.846
Mof_Cu	Cu	0.25	0.13775	0.36225	0.846
Mof_Cu	Cu	0.75	0.75	0.36225	0.846
Mof_Cu	Cu	0.25	0.63775	0.86225	0.846
Mof_Cu	Cu	0.75	0.86225	0.63775	0.846
Mof_Cu	Cu	0.25	0.86225	0.25	0.846
Mof_Cu	Cu	0.86225	0.13775	0.25	0.846
Mof_Cu	Cu	0.25	0.25	0.13775	0.847
Mof_Cu	Cu	0.86225	0.25	0.75	0.847
Mof_Cu	Cu	0.75	0.63775	0.75	0.847
Mof_Cu	Cu	0.36225	0.25	0.75	0.847
Mof_Cu	Cu	0.13775	0.75	0.25	0.847
Mof_Cu	Cu	0.63775	0.75	0.25	0.847
Mof_Cu	Cu	0.25	0.36225	0.25	0.847
Mof_Cu	Cu	0.13775	0.86225	0.75	0.847
Mof_Cu	Cu	0.25	0.25	0.63775	0.847
Mof_Cu	Cu	0.36225	0.63775	0.25	0.847
Mof_Cu	Cu	0.36225	0.75	0.63775	0.847
Mof_Cu	Cu	0.63775	0.36225	0.75	0.847
Mof_Cu	Cu	0.13775	0.25	0.86225	0.847
Mof_Cu	Cu	0.75	0.75	0.86225	0.847
Mof_H 	H 	0.2672	0.1166	0.5496	-0.049
Mof_H 	H 	0.6166	0.0666	0.5496	-0.049
Mof_H 	H 	0.6166	0.5496	0.7672	-0.048
Mof_H 	H 	0.0666	0.2672	0.6166	-0.048
Mof_H 	H 	0.5666	0.1166	0.7672	-0.048
Mof_H 	H 	0.2328	0.4334	0.9504	-0.048
Mof_H 	H 	0.1166	0.0496	0.5666	-0.048
Mof_H 	H 	0.9334	0.9504	0.7328	-0.048
Mof_H 	H 	0.1166	0.2672	0.0496	-0.048
Mof_H 	H 	0.4504	0.4334	0.3834	-0.048
Mof_H 	H 	0.7672	0.5666	0.0496	-0.048
Mof_H 	H 	0.0666	0.6166	0.0496	-0.048
Mof_H 	H 	0.0496	0.1166	0.0666	-0.048
Mof_H 	H 	0.8834	0.4334	0.7328	-0.048
Mof_H 	H 	0.7328	0.4504	0.9334	-0.048
Mof_H 	H 	0.7672	0.6166	0.5666	-0.048
Mof_H 	H 	0.7328	0.9334	0.8834	-0.048
Mof_H 	H 	0.8834	0.7328	0.9504	-0.048
Mof_H 	H 	0.3834	0.2328	0.9334	-0.049
Mof_H 	H 	0.0496	0.0666	0.7672	-0.048
Mof_H 	H 	0.5666	0.5496	0.1166	-0.048
Mof_H 	H 	0.5666	0.7672	0.5496	-0.048
Mof_H 	H 	0.2672	0.5496	0.0666	-0.048
Mof_H 	H 	0.4504	0.7328	0.4334	-0.048
Mof_H 	H 	0.4334	0.8834	0.2328	-0.048
Mof_H 	H 	0.3834	0.9334	0.4504	-0.049
Mof_H 	H 	0.4334	0.2328	0.4504	-0.048
Mof_H 	H 	0.9334	0.3834	0.9504	-0.048
Mof_H 	H 	0.7672	0.0496	0.6166	-0.049
Mof_H 	H 	0.4504	0.3834	0.7328	-0.048
Mof_H 	H 	0.5496	0.5666	0.6166	-0.048
Mof_H 	H 	0.9504	0.9334	0.2328	-0.048
Mof_H 	H 	0.2328	0.3834	0.4334	-0.048
Mof_H 	H 	0.5496	0.6166	0.2672	-0.048
Mof_H 	H 	0.5496	0.2672	0.5666	-0.048
Mof_H 	H 	0.3834	0.4504	0.2328	-0.048
Mof_H 	H 	0.7328	0.8834	0.4504	-0.049
Mof_H 	H 	0.2672	0.0666	0.1166	-0.048
Mof_H 	H 	0.9504	0.8834	0.9334	-0.048
Mof_H 	H 	0.1166	0.5666	0.2672	-0.048
Mof_H 	H 	0.8834	0.9504	0.4334	-0.048
Mof_H 	H 	0.9334	0.7328	0.3834	-0.048
Mof_H 	H 	0.6166	0.7672	0.0666	-0.049
Mof_H 	H 	0.0666	0.0496	0.2672	-0.048
Mof_H 	H 	0.2328	0.9504	0.3834	-0.049
Mof_H 	H 	0.0496	0.7672	0.1166	-0.048
Mof_H 	H 	0.9504	0.2328	0.8834	-0.048
Mof_H 	H 	0.4334	0.4504	0.8834	-0.048
Mof_C 	C 	0.50694	0.25916	0.55634	0.087
Mof_C 	C 	0.05634	0.00694	0.25916	0.084
Mof_C 	C 	0.44366	0.49306	0.82244	0.087
Mof_C 	C 	0.75916	0.55634	0.00694	0.088
Mof_C 	C 	0.50694	0.67756	0.25916	0.087
Mof_C 	C 	0.99306	0.94366	0.24084	0.086
Mof_C 	C 	0.74084	0.82244	0.49306	0.087
Mof_C 	C 	0.49306	0.32244	0.74084	0.087
Mof_C 	C 	0.94366	0.74084	0.32244	0.087
Mof_C 	C 	0.44366	0.82244	0.24084	0.087
Mof_C 	C 	0.05634	0.25916	0.67756	0.087
Mof_C 	C 	0.00694	0.17756	0.05634	0.084
Mof_C 	C 	0.17756	0.55634	0.25916	0.087
Mof_C 	C 	0.00694	0.75916	0.17756	0.087
Mof_C 	C 	0.67756	0.50694	0.75916	0.087
Mof_C 	C 	0.99306	0.24084	0.82244	0.087
Mof_C 	C 	0.82244	0.44366	0.74084	0.087
Mof_C 	C 	0.24084	0.99306	0.32244	0.088
Mof_C 	C 	0.32244	0.24084	0.94366	0.088
Mof_C 	C 	0.24084	0.44366	0.99306	0.088
Mof_C 	C 	0.94366	0.32244	0.99306	0.086
Mof_C 	C 	0.17756	0.25916	0.00694	0.086
Mof_C 	C 	0.25916	0.50694	0.05634	0.087
Mof_C 	C 	0.50694	0.55634	0.67756	0.087
Mof_C 	C 	0.05634	0.67756	0.00694	0.086
Mof_C 	C 	0.17756	0.00694	0.55634	0.086
Mof_C 	C 	0.74084	0.49306	0.94366	0.087
Mof_C 	C 	0.24084	0.32244	0.44366	0.087
Mof_C 	C 	0.49306	0.74084	0.44366	0.087
Mof_C 	C 	0.74084	0.94366	0.82244	0.086
Mof_C 	C 	0.94366	0.99306	0.74084	0.084
Mof_C 	C 	0.25916	0.05634	0.17756	0.086
Mof_C 	C 	0.25916	0.17756	0.50694	0.087
Mof_C 	C 	0.44366	0.24084	0.49306	0.087
Mof_C 	C 	0.00694	0.05634	0.75916	0.086
Mof_C 	C 	0.82244	0.99306	0.44366	0.086
Mof_C 	C 	0.49306	0.44366	0.32244	0.087
Mof_C 	C 	0.75916	0.67756	0.55634	0.087
Mof_C 	C 	0.32244	0.94366	0.49306	0.088
Mof_C 	C 	0.99306	0.82244	0.94366	0.084
Mof_C 	C 	0.67756	0.05634	0.50694	0.088
Mof_C 	C 	0.82244	0.74084	0.99306	0.086
Mof_C 	C 	0.67756	0.75916	0.05634	0.088
Mof_C 	C 	0.55634	0.75916	0.50694	0.087
Mof_C 	C 	0.55634	0.50694	0.17756	0.087
Mof_C 	C 	0.32244	0.49306	0.24084	0.087
Mof_C 	C 	0.55634	0.17756	0.75916	0.087
Mof_C 	C 	0.75916	0.00694	0.67756	0.088
Mof_N 	N 	0.75	0.97688	0.52312	-0.259
Mof_N 	N 	0.75	0.02312	0.75	-0.258
Mof_N 	N 	0.38228	0.57626	0.79674	-0.229
Mof_N 	N 	0.79674	0.38228	0.74472	-0.229
Mof_N 	N 	0.11772	0.92374	0.25528	-0.228
Mof_N 	N 	0.20326	0.25528	0.92374	-0.229
Mof_N 	N 	0.38228	0.24472	0.57626	-0.229
Mof_N 	N 	0.25	0.25	0.52312	-0.258
Mof_N 	N 	0.42374	0.25528	0.61772	-0.229
Mof_N 	N 	0.02312	0.97688	0.75	-0.257
Mof_N 	N 	0.42374	0.61772	0.70326	-0.229
Mof_N 	N 	0.25528	0.20326	0.42374	-0.229
Mof_N 	N 	0.02312	0.75	0.25	-0.258
Mof_N 	N 	0.75528	0.70326	0.61772	-0.229
Mof_N 	N 	0.79674	0.07626	0.38228	-0.229
Mof_N 	N 	0.70326	0.11772	0.42374	-0.229
Mof_N 	N 	0.24472	0.07626	0.29674	-0.23
Mof_N 	N 	0.74472	0.88228	0.79674	-0.229
Mof_N 	N 	0.07626	0.88228	0.24472	-0.229
Mof_N 	N 	0.25	0.02312	0.47688	-0.259
Mof_N 	N 	0.42374	0.70326	0.25528	-0.229
Mof_N 	N 	0.07626	0.24472	0.79674	-0.229
Mof_N 	N 	0.97688	0.75	0.02312	-0.257
Mof_N 	N 	0.29674	0.57626	0.24472	-0.229
Mof_N 	N 	0.29674	0.88228	0.57626	-0.229
Mof_N 	N 	0.38228	0.79674	0.24472	-0.229
Mof_N 	N 	0.74472	0.57626	0.88228	-0.229
Mof_N 	N 	0.75528	0.92374	0.70326	-0.23
Mof_N 	N 	0.25528	0.42374	0.11772	-0.229
Mof_N 	N 	0.52312	0.47688	0.75	-0.258
Mof_N 	N 	0.79674	0.74472	0.07626	-0.229
Mof_N 	N 	0.47688	0.75	0.52312	-0.258
Mof_N 	N 	0.47688	0.52312	0.25	-0.258
Mof_N 	N 	0.24472	0.29674	0.38228	-0.229
Mof_N 	N 	0.61772	0.20326	0.75528	-0.229
Mof_N 	N 	0.75	0.52312	0.75	-0.258
Mof_N 	N 	0.75	0.75	0.97688	-0.259
Mof_N 	N 	0.25	0.25	0.02312	-0.259
Mof_N 	N 	0.70326	0.42374	0.75528	-0.229
Mof_N 	N 	0.52312	0.25	0.47688	-0.258
Mof_N 	N 	0.92374	0.75528	0.20326	-0.229
Mof_N 	N 	0.29674	0.24472	0.88228	-0.229
Mof_N 	N 	0.11772	0.25528	0.70326	-0.229
Mof_N 	N 	0.88228	0.74472	0.29674	-0.229
Mof_N 	N 	0.25528	0.11772	0.20326	-0.229
Mof_N 	N 	0.92374	0.11772	0.75528	-0.229
Mof_N 	N 	0.25	0.52312	0.97688	-0.258
Mof_N 	N 	0.02312	0.25	0.97688	-0.257
Mof_N 	N 	0.47688	0.25	0.75	-0.258
Mof_N 	N 	0.75	0.75	0.47688	-0.258
Mof_N 	N 	0.88228	0.07626	0.74472	-0.228
Mof_N 	N 	0.25	0.97688	0.25	-0.258
Mof_N 	N 	0.92374	0.20326	0.11772	-0.228
Mof_N 	N 	0.07626	0.79674	0.88228	-0.228
Mof_N 	N 	0.57626	0.38228	0.29674	-0.229
Mof_N 	N 	0.20326	0.92374	0.61772	-0.229
Mof_N 	N 	0.20326	0.61772	0.25528	-0.229
Mof_N 	N 	0.24472	0.38228	0.07626	-0.23
Mof_N 	N 	0.57626	0.74472	0.38228	-0.229
Mof_N 	N 	0.74472	0.79674	0.57626	-0.229
Mof_N 	N 	0.57626	0.29674	0.74472	-0.229
Mof_N 	N 	0.61772	0.42374	0.20326	-0.229
Mof_N 	N 	0.11772	0.70326	0.92374	-0.229
Mof_N 	N 	0.88228	0.29674	0.07626	-0.229
Mof_N 	N 	0.97688	0.02312	0.25	-0.257
Mof_N 	N 	0.75	0.47688	0.02312	-0.258
Mof_N 	N 	0.75528	0.61772	0.92374	-0.23
Mof_N 	N 	0.70326	0.75528	0.11772	-0.229
Mof_N 	N 	0.52312	0.75	0.25	-0.258
Mof_N 	N 	0.61772	0.75528	0.42374	-0.229
Mof_N 	N 	0.97688	0.25	0.75	-0.258
Mof_N 	N 	0.25	0.47688	0.25	-0.258
Mof_O 	O 	0.25	0.25	0.25	-0.623
Mof_O 	O 	0.25	0.75	0.75	-0.623
Mof_O 	O 	0.75	0.25	0.25	-0.623
Mof_O 	O 	0.25	0.25	0.75	-0.623
Mof_O 	O 	0.25	0.75	0.25	-0.623
Mof_O 	O 	0.75	0.75	0.75	-0.623
Mof_O 	O 	0.75	0.25	0.75	-0.623
Mof_O 	O 	0.75	0.75	0.25	-0.623
_end
