data_functionalizedCrystal
_audit_creation_method	'EQeq! by Chris Wilmer'
_symmetry_space_group_name_H-M	'P1'
_symmetry_Int_Tables_number	1
_symmetry_cell_setting	triclinic
loop_
_symmetry_equiv_pos_as_xyz
  x,y,z
_cell_length_a	7.3888
_cell_length_b	7.3888
_cell_length_c	22.1438
_cell_angle_alpha	90
_cell_angle_beta	90
_cell_angle_gamma	90
loop_
_atom_site_label
_atom_site_type_symbol
_atom_site_fract_x
_atom_site_fract_y
_atom_site_fract_z
_atom_site_charge
Mof_F 	F 	0.8115	0.9341	0.94124	-0.283
Mof_C 	C 	0.653	0.9626	0.96889	0.42
Mof_F 	F 	0.1885	0.0659	0.94124	-0.162
Mof_C 	C 	0.347	0.0374	0.96889	-0.128
Mof_F 	F 	0.0659	0.8115	0.44124	-0.152
Mof_C 	C 	0.0374	0.653	0.46889	-0.153
Mof_F 	F 	0.9341	0.1885	0.44124	-0.271
Mof_C 	C 	0.9626	0.347	0.46889	0.393
Mof_F 	F 	0.1885	0.9341	0.05876	-0.271
Mof_C 	C 	0.347	0.9626	0.03111	0.395
Mof_F 	F 	0.8115	0.0659	0.05876	-0.151
Mof_C 	C 	0.653	0.0374	0.03111	-0.154
Mof_F 	F 	0.9341	0.8115	0.55876	-0.282
Mof_C 	C 	0.9626	0.653	0.53111	0.419
Mof_F 	F 	0.0659	0.1885	0.55876	-0.161
Mof_C 	C 	0.0374	0.347	0.53111	-0.125
Mof_F 	F 	0.1885	0.0659	0.05876	-0.161
Mof_C 	C 	0.347	0.0374	0.03111	-0.127
Mof_F 	F 	0.8115	0.9341	0.05876	-0.282
Mof_C 	C 	0.653	0.9626	0.03111	0.421
Mof_F 	F 	0.9341	0.1885	0.55876	-0.271
Mof_C 	C 	0.9626	0.347	0.53111	0.393
Mof_F 	F 	0.0659	0.8115	0.55876	-0.151
Mof_C 	C 	0.0374	0.653	0.53111	-0.152
Mof_F 	F 	0.8115	0.0659	0.94124	-0.151
Mof_C 	C 	0.653	0.0374	0.96889	-0.154
Mof_F 	F 	0.1885	0.9341	0.94124	-0.271
Mof_C 	C 	0.347	0.9626	0.96889	0.395
Mof_F 	F 	0.0659	0.1885	0.44124	-0.161
Mof_C 	C 	0.0374	0.347	0.46889	-0.125
Mof_F 	F 	0.9341	0.8115	0.44124	-0.282
Mof_C 	C 	0.9626	0.653	0.46889	0.419
Mof_Cu	Cu	8.42755e-33	2.0881e-32	0.75	0.905
Mof_Cu	Cu	-2.41106e-33	0	0.25	0.905
Mof_N 	N 	0.784	0	0.80295	-0.224
Mof_C 	C 	0.6588	-2.0881e-32	0.83381	0.201
Mof_N 	N 	0.216	0	0.80295	-0.224
Mof_C 	C 	0.3412	-2.0881e-32	0.83381	0.2
Mof_N 	N 	3.40417e-33	0.784	0.30295	-0.224
Mof_C 	C 	-1.713e-32	0.6588	0.33381	0.201
Mof_N 	N 	-7.03631e-33	0.216	0.30295	-0.224
Mof_C 	C 	3.75093e-33	0.3412	0.33381	0.2
Mof_N 	N 	0.216	5.22024e-33	0.19705	-0.224
Mof_C 	C 	0.3412	0	0.16619	0.2
Mof_N 	N 	0.784	5.22024e-33	0.19705	-0.224
Mof_C 	C 	0.6588	0	0.16619	0.201
Mof_N 	N 	-1.30484e-32	0.784	0.69705	-0.224
Mof_C 	C 	-3.42761e-32	0.6588	0.66619	0.201
Mof_N 	N 	-1.30484e-32	0.216	0.69705	-0.224
Mof_C 	C 	-3.42761e-32	0.3412	0.66619	0.2
Mof_C 	C 	0.5	0	0.868	-0.036
Mof_C 	C 	0.5	0	0.9345	-0.038
Mof_C 	C 	-6.30536e-33	0.5	0.368	-0.036
Mof_C 	C 	4.88236e-33	0.5	0.4345	-0.038
Mof_C 	C 	0.5	0	0.132	-0.036
Mof_C 	C 	0.5	0	0.0655	-0.038
Mof_C 	C 	7.10161e-33	0.5	0.632	-0.036
Mof_C 	C 	6.35437e-33	0.5	0.5655	-0.038
_end
