data_functionalizedCrystal
_audit_creation_method	'EQeq! by Chris Wilmer'
_symmetry_space_group_name_H-M	'P1'
_symmetry_Int_Tables_number	1
_symmetry_cell_setting	triclinic
loop_
_symmetry_equiv_pos_as_xyz
  x,y,z
_cell_length_a	22.5053
_cell_length_b	22.5053
_cell_length_c	36.444
_cell_angle_alpha	90
_cell_angle_beta	90
_cell_angle_gamma	120
loop_
_atom_site_label
_atom_site_type_symbol
_atom_site_fract_x
_atom_site_fract_y
_atom_site_fract_z
_atom_site_charge
Mof_Cu	Cu	0.04755	0.68325	0.01345	0.689
Mof_O 	O 	0.3548	0.7862	0.18991	-0.323
Mof_O 	O 	0.24246	0.72754	0.19696	-0.452
Mof_O 	O 	0.09777	0.63035	0.08877	-0.468
Mof_O 	O 	0.12709	0.69406	0.03794	-0.503
Mof_C 	C 	0.3801	0.9652	0.09623	-0.079
Mof_H 	H 	0.3462	0.9371	0.1128	0.028
Mof_C 	C 	0.4048	0.9432	0.06644	0.054
Mof_C 	C 	0.38	0.8753	0.0564	-0.121
Mof_C 	C 	0.4018	0.8548	0.02558	0.106
Mof_C 	C 	0.3771	0.7847	0.01569	-0.086
Mof_H 	H 	0.3457	0.7462	0.0288	0.066
Mof_C 	C 	0.3251	0.8206	0.07969	0.029
Mof_C 	C 	0.3368	0.8118	0.11598	-0.048
Mof_H 	H 	0.3801	0.8392	0.1261	0.06
Mof_C 	C 	0.2848	0.7625	0.13745	-0.088
Mof_C 	C 	0.2213	0.7191	0.12191	0.022
Mof_H 	H 	0.1866	0.6854	0.1362	0.033
Mof_C 	C 	0.2091	0.7256	0.08536	-0.115
Mof_C 	C 	0.2608	0.7769	0.06458	-0.049
Mof_H 	H 	0.2525	0.7823	0.0402	0.03
Mof_C 	C 	0.2956	0.758	0.17777	0.345
Mof_C 	C 	0.1394	0.6801	0.06877	0.377
Mof_Cu	Cu	0.31675	0.3643	0.01345	0.692
Mof_O 	O 	0.2138	0.5686	0.18991	-0.325
Mof_O 	O 	0.27246	0.51492	0.19696	-0.452
Mof_O 	O 	0.36965	0.46742	0.08877	-0.466
Mof_O 	O 	0.30594	0.43303	0.03794	-0.503
Mof_C 	C 	0.0348	0.4149	0.09623	-0.149
Mof_H 	H 	0.0629	0.4091	0.1128	0.046
Mof_C 	C 	0.0568	0.4616	0.06644	0.059
Mof_C 	C 	0.1247	0.5047	0.0564	-0.125
Mof_C 	C 	0.1452	0.547	0.02558	0.107
Mof_C 	C 	0.2153	0.5924	0.01569	-0.085
Mof_H 	H 	0.2538	0.5995	0.0288	0.067
Mof_C 	C 	0.1794	0.5045	0.07969	0.031
Mof_C 	C 	0.1882	0.525	0.11598	-0.05
Mof_H 	H 	0.1608	0.5409	0.1261	0.058
Mof_C 	C 	0.2375	0.5223	0.13745	-0.089
Mof_C 	C 	0.2809	0.5022	0.12191	0.021
Mof_H 	H 	0.3146	0.5012	0.1362	0.033
Mof_C 	C 	0.2744	0.4835	0.08536	-0.115
Mof_C 	C 	0.2231	0.4839	0.06458	-0.051
Mof_H 	H 	0.2177	0.4702	0.0402	0.03
Mof_C 	C 	0.242	0.5376	0.17777	0.344
Mof_C 	C 	0.3199	0.4593	0.06877	0.376
Mof_Cu	Cu	0.6357	0.95245	0.01345	0.702
Mof_O 	O 	0.4314	0.6452	0.18991	-0.323
Mof_O 	O 	0.48508	0.75754	0.19696	-0.449
Mof_O 	O 	0.53258	0.90223	0.08877	-0.457
Mof_O 	O 	0.56697	0.87291	0.03794	-0.497
Mof_C 	C 	0.5851	0.6199	0.09623	-0.111
Mof_H 	H 	0.5909	0.6538	0.1128	0.039
Mof_C 	C 	0.5384	0.5952	0.06644	0.051
Mof_C 	C 	0.4953	0.62	0.0564	-0.121
Mof_C 	C 	0.453	0.5982	0.02558	0.105
Mof_C 	C 	0.4076	0.6229	0.01569	-0.085
Mof_H 	H 	0.4005	0.6543	0.0288	0.067
Mof_C 	C 	0.4955	0.6749	0.07969	0.031
Mof_C 	C 	0.475	0.6632	0.11598	-0.049
Mof_H 	H 	0.4591	0.6199	0.1261	0.059
Mof_C 	C 	0.4777	0.7152	0.13745	-0.087
Mof_C 	C 	0.4978	0.7787	0.12191	0.021
Mof_H 	H 	0.4988	0.8134	0.1362	0.036
Mof_C 	C 	0.5165	0.7909	0.08536	-0.112
Mof_C 	C 	0.5161	0.7392	0.06458	-0.051
Mof_H 	H 	0.5298	0.7475	0.0402	0.031
Mof_C 	C 	0.4624	0.7044	0.17777	0.344
Mof_C 	C 	0.5407	0.8606	0.06877	0.376
Mof_Cu	Cu	0.95245	0.31675	0.51345	0.701
Mof_O 	O 	0.6452	0.2138	0.68991	-0.325
Mof_O 	O 	0.75754	0.27246	0.69696	-0.45
Mof_O 	O 	0.90223	0.36965	0.58877	-0.458
Mof_O 	O 	0.87291	0.30594	0.53794	-0.497
Mof_C 	C 	0.6199	0.0348	0.59623	-0.147
Mof_H 	H 	0.6538	0.0629	0.6128	0.048
Mof_C 	C 	0.5952	0.0568	0.56644	0.06
Mof_C 	C 	0.62	0.1247	0.5564	-0.124
Mof_C 	C 	0.5982	0.1452	0.52558	0.105
Mof_C 	C 	0.6229	0.2153	0.51569	-0.078
Mof_H 	H 	0.6543	0.2538	0.5288	0.065
Mof_C 	C 	0.6749	0.1794	0.57969	0.032
Mof_C 	C 	0.6632	0.1882	0.61598	-0.051
Mof_H 	H 	0.6199	0.1608	0.6261	0.059
Mof_C 	C 	0.7152	0.2375	0.63745	-0.087
Mof_C 	C 	0.7787	0.2809	0.62191	0.02
Mof_H 	H 	0.8134	0.3146	0.6362	0.035
Mof_C 	C 	0.7909	0.2744	0.58536	-0.112
Mof_C 	C 	0.7392	0.2231	0.56458	-0.052
Mof_H 	H 	0.7475	0.2177	0.5402	0.032
Mof_C 	C 	0.7044	0.242	0.67777	0.344
Mof_C 	C 	0.8606	0.3199	0.56877	0.375
Mof_Cu	Cu	0.68325	0.6357	0.51345	0.696
Mof_O 	O 	0.7862	0.4314	0.68991	-0.322
Mof_O 	O 	0.72754	0.48508	0.69696	-0.449
Mof_O 	O 	0.63035	0.53258	0.58877	-0.464
Mof_O 	O 	0.69406	0.56697	0.53794	-0.5
Mof_C 	C 	0.9652	0.5851	0.59623	-0.078
Mof_H 	H 	0.9371	0.5909	0.6128	0.03
Mof_C 	C 	0.9432	0.5384	0.56644	0.055
Mof_C 	C 	0.8753	0.4953	0.5564	-0.119
Mof_C 	C 	0.8548	0.453	0.52558	0.105
Mof_C 	C 	0.7847	0.4076	0.51569	-0.077
Mof_H 	H 	0.7462	0.4005	0.5288	0.065
Mof_C 	C 	0.8206	0.4955	0.57969	0.03
Mof_C 	C 	0.8118	0.475	0.61598	-0.049
Mof_H 	H 	0.8392	0.4591	0.6261	0.06
Mof_C 	C 	0.7625	0.4777	0.63745	-0.087
Mof_C 	C 	0.7191	0.4978	0.62191	0.021
Mof_H 	H 	0.6854	0.4988	0.6362	0.034
Mof_C 	C 	0.7256	0.5165	0.58536	-0.113
Mof_C 	C 	0.7769	0.5161	0.56458	-0.05
Mof_H 	H 	0.7823	0.5298	0.5402	0.032
Mof_C 	C 	0.758	0.4624	0.67777	0.344
Mof_C 	C 	0.6801	0.5407	0.56877	0.377
Mof_Cu	Cu	0.3643	0.04755	0.51345	0.689
Mof_O 	O 	0.5686	0.3548	0.68991	-0.324
Mof_O 	O 	0.51492	0.24246	0.69696	-0.453
Mof_O 	O 	0.46742	0.09777	0.58877	-0.467
Mof_O 	O 	0.43303	0.12709	0.53794	-0.502
Mof_C 	C 	0.4149	0.3801	0.59623	-0.112
Mof_H 	H 	0.4091	0.3462	0.6128	0.036
Mof_C 	C 	0.4616	0.4048	0.56644	0.05
Mof_C 	C 	0.5047	0.38	0.5564	-0.12
Mof_C 	C 	0.547	0.4018	0.52558	0.103
Mof_C 	C 	0.5924	0.3771	0.51569	-0.077
Mof_H 	H 	0.5995	0.3457	0.5288	0.065
Mof_C 	C 	0.5045	0.3251	0.57969	0.029
Mof_C 	C 	0.525	0.3368	0.61598	-0.048
Mof_H 	H 	0.5409	0.3801	0.6261	0.059
Mof_C 	C 	0.5223	0.2848	0.63745	-0.089
Mof_C 	C 	0.5022	0.2213	0.62191	0.022
Mof_H 	H 	0.5012	0.1866	0.6362	0.032
Mof_C 	C 	0.4835	0.2091	0.58536	-0.115
Mof_C 	C 	0.4839	0.2608	0.56458	-0.05
Mof_H 	H 	0.4702	0.2525	0.5402	0.03
Mof_C 	C 	0.5376	0.2956	0.67777	0.345
Mof_C 	C 	0.4593	0.1394	0.56877	0.377
Mof_Cu	Cu	0.68325	0.04755	0.48655	0.691
Mof_O 	O 	0.7862	0.3548	0.31009	-0.322
Mof_O 	O 	0.72754	0.24246	0.30304	-0.451
Mof_O 	O 	0.63035	0.09777	0.41123	-0.466
Mof_O 	O 	0.69406	0.12709	0.46206	-0.501
Mof_C 	C 	0.9652	0.3801	0.40377	-0.078
Mof_H 	H 	0.9371	0.3462	0.3872	0.029
Mof_C 	C 	0.9432	0.4048	0.43356	0.055
Mof_C 	C 	0.8753	0.38	0.4436	-0.119
Mof_C 	C 	0.8548	0.4018	0.47442	0.105
Mof_C 	C 	0.7847	0.3771	0.48431	-0.077
Mof_H 	H 	0.7462	0.3457	0.4712	0.065
Mof_C 	C 	0.8206	0.3251	0.42031	0.029
Mof_C 	C 	0.8118	0.3368	0.38402	-0.048
Mof_H 	H 	0.8392	0.3801	0.3739	0.06
Mof_C 	C 	0.7625	0.2848	0.36255	-0.088
Mof_C 	C 	0.7191	0.2213	0.37809	0.022
Mof_H 	H 	0.6854	0.1866	0.3638	0.033
Mof_C 	C 	0.7256	0.2091	0.41464	-0.114
Mof_C 	C 	0.7769	0.2608	0.43542	-0.049
Mof_H 	H 	0.7823	0.2525	0.4598	0.031
Mof_C 	C 	0.758	0.2956	0.32223	0.345
Mof_C 	C 	0.6801	0.1394	0.43123	0.377
Mof_Cu	Cu	0.3643	0.31675	0.48655	0.693
Mof_O 	O 	0.5686	0.2138	0.31009	-0.325
Mof_O 	O 	0.51492	0.27246	0.30304	-0.452
Mof_O 	O 	0.46742	0.36965	0.41123	-0.465
Mof_O 	O 	0.43303	0.30594	0.46206	-0.502
Mof_C 	C 	0.4149	0.0348	0.40377	-0.149
Mof_H 	H 	0.4091	0.0629	0.3872	0.046
Mof_C 	C 	0.4616	0.0568	0.43356	0.059
Mof_C 	C 	0.5047	0.1247	0.4436	-0.124
Mof_C 	C 	0.547	0.1452	0.47442	0.105
Mof_C 	C 	0.5924	0.2153	0.48431	-0.078
Mof_H 	H 	0.5995	0.2538	0.4712	0.065
Mof_C 	C 	0.5045	0.1794	0.42031	0.031
Mof_C 	C 	0.525	0.1882	0.38402	-0.05
Mof_H 	H 	0.5409	0.1608	0.3739	0.058
Mof_C 	C 	0.5223	0.2375	0.36255	-0.089
Mof_C 	C 	0.5022	0.2809	0.37809	0.021
Mof_H 	H 	0.5012	0.3146	0.3638	0.033
Mof_C 	C 	0.4835	0.2744	0.41464	-0.114
Mof_C 	C 	0.4839	0.2231	0.43542	-0.051
Mof_H 	H 	0.4702	0.2177	0.4598	0.031
Mof_C 	C 	0.5376	0.242	0.32223	0.344
Mof_C 	C 	0.4593	0.3199	0.43123	0.376
Mof_Cu	Cu	0.95245	0.6357	0.48655	0.702
Mof_O 	O 	0.6452	0.4314	0.31009	-0.323
Mof_O 	O 	0.75754	0.48508	0.30304	-0.449
Mof_O 	O 	0.90223	0.53258	0.41123	-0.457
Mof_O 	O 	0.87291	0.56697	0.46206	-0.496
Mof_C 	C 	0.6199	0.5851	0.40377	-0.111
Mof_H 	H 	0.6538	0.5909	0.3872	0.039
Mof_C 	C 	0.5952	0.5384	0.43356	0.051
Mof_C 	C 	0.62	0.4953	0.4436	-0.12
Mof_C 	C 	0.5982	0.453	0.47442	0.104
Mof_C 	C 	0.6229	0.4076	0.48431	-0.077
Mof_H 	H 	0.6543	0.4005	0.4712	0.065
Mof_C 	C 	0.6749	0.4955	0.42031	0.031
Mof_C 	C 	0.6632	0.475	0.38402	-0.049
Mof_H 	H 	0.6199	0.4591	0.3739	0.059
Mof_C 	C 	0.7152	0.4777	0.36255	-0.086
Mof_C 	C 	0.7787	0.4978	0.37809	0.02
Mof_H 	H 	0.8134	0.4988	0.3638	0.036
Mof_C 	C 	0.7909	0.5165	0.41464	-0.111
Mof_C 	C 	0.7392	0.5161	0.43542	-0.051
Mof_H 	H 	0.7475	0.5298	0.4598	0.032
Mof_C 	C 	0.7044	0.4624	0.32223	0.344
Mof_C 	C 	0.8606	0.5407	0.43123	0.376
Mof_Cu	Cu	0.31675	0.95245	0.98655	0.702
Mof_O 	O 	0.2138	0.6452	0.81009	-0.325
Mof_O 	O 	0.27246	0.75754	0.80304	-0.45
Mof_O 	O 	0.36965	0.90223	0.91123	-0.458
Mof_O 	O 	0.30594	0.87291	0.96206	-0.496
Mof_C 	C 	0.0348	0.6199	0.90377	-0.147
Mof_H 	H 	0.0629	0.6538	0.8872	0.048
Mof_C 	C 	0.0568	0.5952	0.93356	0.06
Mof_C 	C 	0.1247	0.62	0.9436	-0.124
Mof_C 	C 	0.1452	0.5982	0.97442	0.106
Mof_C 	C 	0.2153	0.6229	0.98431	-0.07
Mof_H 	H 	0.2538	0.6543	0.9712	0.063
Mof_C 	C 	0.1794	0.6749	0.92031	0.032
Mof_C 	C 	0.1882	0.6632	0.88402	-0.051
Mof_H 	H 	0.1608	0.6199	0.8739	0.059
Mof_C 	C 	0.2375	0.7152	0.86255	-0.087
Mof_C 	C 	0.2809	0.7787	0.87809	0.02
Mof_H 	H 	0.3146	0.8134	0.8638	0.036
Mof_C 	C 	0.2744	0.7909	0.91464	-0.111
Mof_C 	C 	0.2231	0.7392	0.93542	-0.052
Mof_H 	H 	0.2177	0.7475	0.9598	0.033
Mof_C 	C 	0.242	0.7044	0.82223	0.344
Mof_C 	C 	0.3199	0.8606	0.93123	0.375
Mof_Cu	Cu	0.6357	0.68325	0.98655	0.697
Mof_O 	O 	0.4314	0.7862	0.81009	-0.322
Mof_O 	O 	0.48508	0.72754	0.80304	-0.449
Mof_O 	O 	0.53258	0.63035	0.91123	-0.464
Mof_O 	O 	0.56697	0.69406	0.96206	-0.498
Mof_C 	C 	0.5851	0.9652	0.90377	-0.078
Mof_H 	H 	0.5909	0.9371	0.8872	0.031
Mof_C 	C 	0.5384	0.9432	0.93356	0.056
Mof_C 	C 	0.4953	0.8753	0.9436	-0.118
Mof_C 	C 	0.453	0.8548	0.97442	0.106
Mof_C 	C 	0.4076	0.7847	0.98431	-0.07
Mof_H 	H 	0.4005	0.7462	0.9712	0.063
Mof_C 	C 	0.4955	0.8206	0.92031	0.03
Mof_C 	C 	0.475	0.8118	0.88402	-0.049
Mof_H 	H 	0.4591	0.8392	0.8739	0.06
Mof_C 	C 	0.4777	0.7625	0.86255	-0.087
Mof_C 	C 	0.4978	0.7191	0.87809	0.021
Mof_H 	H 	0.4988	0.6854	0.8638	0.035
Mof_C 	C 	0.5165	0.7256	0.91464	-0.112
Mof_C 	C 	0.5161	0.7769	0.93542	-0.05
Mof_H 	H 	0.5298	0.7823	0.9598	0.033
Mof_C 	C 	0.4624	0.758	0.82223	0.344
Mof_C 	C 	0.5407	0.6801	0.93123	0.377
Mof_Cu	Cu	0.04755	0.3643	0.98655	0.69
Mof_O 	O 	0.3548	0.5686	0.81009	-0.324
Mof_O 	O 	0.24246	0.51492	0.80304	-0.453
Mof_O 	O 	0.09777	0.46742	0.91123	-0.467
Mof_O 	O 	0.12709	0.43303	0.96206	-0.501
Mof_C 	C 	0.3801	0.4149	0.90377	-0.112
Mof_H 	H 	0.3462	0.4091	0.8872	0.037
Mof_C 	C 	0.4048	0.4616	0.93356	0.05
Mof_C 	C 	0.38	0.5047	0.9436	-0.119
Mof_C 	C 	0.4018	0.547	0.97442	0.104
Mof_C 	C 	0.3771	0.5924	0.98431	-0.07
Mof_H 	H 	0.3457	0.5995	0.9712	0.063
Mof_C 	C 	0.3251	0.5045	0.92031	0.029
Mof_C 	C 	0.3368	0.525	0.88402	-0.048
Mof_H 	H 	0.3801	0.5409	0.8739	0.059
Mof_C 	C 	0.2848	0.5223	0.86255	-0.089
Mof_C 	C 	0.2213	0.5022	0.87809	0.022
Mof_H 	H 	0.1866	0.5012	0.8638	0.032
Mof_C 	C 	0.2091	0.4835	0.91464	-0.115
Mof_C 	C 	0.2608	0.4839	0.93542	-0.05
Mof_H 	H 	0.2525	0.4702	0.9598	0.031
Mof_C 	C 	0.2956	0.5376	0.82223	0.345
Mof_C 	C 	0.1394	0.4593	0.93123	0.377
Mof_Cu	Cu	0.95245	0.31675	0.98655	0.702
Mof_O 	O 	0.6452	0.2138	0.81009	-0.325
Mof_O 	O 	0.75754	0.27246	0.80304	-0.45
Mof_O 	O 	0.90223	0.36965	0.91123	-0.458
Mof_O 	O 	0.87291	0.30594	0.96206	-0.496
Mof_C 	C 	0.6199	0.0348	0.90377	-0.147
Mof_H 	H 	0.6538	0.0629	0.8872	0.048
Mof_C 	C 	0.5952	0.0568	0.93356	0.06
Mof_C 	C 	0.62	0.1247	0.9436	-0.124
Mof_C 	C 	0.5982	0.1452	0.97442	0.106
Mof_C 	C 	0.6229	0.2153	0.98431	-0.07
Mof_H 	H 	0.6543	0.2538	0.9712	0.063
Mof_C 	C 	0.6749	0.1794	0.92031	0.032
Mof_C 	C 	0.6632	0.1882	0.88402	-0.051
Mof_H 	H 	0.6199	0.1608	0.8739	0.059
Mof_C 	C 	0.7152	0.2375	0.86255	-0.087
Mof_C 	C 	0.7787	0.2809	0.87809	0.02
Mof_H 	H 	0.8134	0.3146	0.8638	0.036
Mof_C 	C 	0.7909	0.2744	0.91464	-0.111
Mof_C 	C 	0.7392	0.2231	0.93542	-0.052
Mof_H 	H 	0.7475	0.2177	0.9598	0.033
Mof_C 	C 	0.7044	0.242	0.82223	0.344
Mof_C 	C 	0.8606	0.3199	0.93123	0.375
Mof_Cu	Cu	0.68325	0.6357	0.98655	0.697
Mof_O 	O 	0.7862	0.4314	0.81009	-0.322
Mof_O 	O 	0.72754	0.48508	0.80304	-0.449
Mof_O 	O 	0.63035	0.53258	0.91123	-0.464
Mof_O 	O 	0.69406	0.56697	0.96206	-0.498
Mof_C 	C 	0.9652	0.5851	0.90377	-0.078
Mof_H 	H 	0.9371	0.5909	0.8872	0.031
Mof_C 	C 	0.9432	0.5384	0.93356	0.056
Mof_C 	C 	0.8753	0.4953	0.9436	-0.118
Mof_C 	C 	0.8548	0.453	0.97442	0.106
Mof_C 	C 	0.7847	0.4076	0.98431	-0.07
Mof_H 	H 	0.7462	0.4005	0.9712	0.063
Mof_C 	C 	0.8206	0.4955	0.92031	0.03
Mof_C 	C 	0.8118	0.475	0.88402	-0.049
Mof_H 	H 	0.8392	0.4591	0.8739	0.06
Mof_C 	C 	0.7625	0.4777	0.86255	-0.087
Mof_C 	C 	0.7191	0.4978	0.87809	0.021
Mof_H 	H 	0.6854	0.4988	0.8638	0.035
Mof_C 	C 	0.7256	0.5165	0.91464	-0.112
Mof_C 	C 	0.7769	0.5161	0.93542	-0.05
Mof_H 	H 	0.7823	0.5298	0.9598	0.033
Mof_C 	C 	0.758	0.4624	0.82223	0.344
Mof_C 	C 	0.6801	0.5407	0.93123	0.377
Mof_Cu	Cu	0.3643	0.04755	0.98655	0.69
Mof_O 	O 	0.5686	0.3548	0.81009	-0.324
Mof_O 	O 	0.51492	0.24246	0.80304	-0.453
Mof_O 	O 	0.46742	0.09777	0.91123	-0.467
Mof_O 	O 	0.43303	0.12709	0.96206	-0.501
Mof_C 	C 	0.4149	0.3801	0.90377	-0.112
Mof_H 	H 	0.4091	0.3462	0.8872	0.037
Mof_C 	C 	0.4616	0.4048	0.93356	0.05
Mof_C 	C 	0.5047	0.38	0.9436	-0.119
Mof_C 	C 	0.547	0.4018	0.97442	0.104
Mof_C 	C 	0.5924	0.3771	0.98431	-0.07
Mof_H 	H 	0.5995	0.3457	0.9712	0.063
Mof_C 	C 	0.5045	0.3251	0.92031	0.029
Mof_C 	C 	0.525	0.3368	0.88402	-0.048
Mof_H 	H 	0.5409	0.3801	0.8739	0.059
Mof_C 	C 	0.5223	0.2848	0.86255	-0.089
Mof_C 	C 	0.5022	0.2213	0.87809	0.022
Mof_H 	H 	0.5012	0.1866	0.8638	0.032
Mof_C 	C 	0.4835	0.2091	0.91464	-0.115
Mof_C 	C 	0.4839	0.2608	0.93542	-0.05
Mof_H 	H 	0.4702	0.2525	0.9598	0.031
Mof_C 	C 	0.5376	0.2956	0.82223	0.345
Mof_C 	C 	0.4593	0.1394	0.93123	0.377
Mof_Cu	Cu	0.04755	0.68325	0.48655	0.691
Mof_O 	O 	0.3548	0.7862	0.31009	-0.322
Mof_O 	O 	0.24246	0.72754	0.30304	-0.451
Mof_O 	O 	0.09777	0.63035	0.41123	-0.466
Mof_O 	O 	0.12709	0.69406	0.46206	-0.501
Mof_C 	C 	0.3801	0.9652	0.40377	-0.078
Mof_H 	H 	0.3462	0.9371	0.3872	0.029
Mof_C 	C 	0.4048	0.9432	0.43356	0.055
Mof_C 	C 	0.38	0.8753	0.4436	-0.119
Mof_C 	C 	0.4018	0.8548	0.47442	0.105
Mof_C 	C 	0.3771	0.7847	0.48431	-0.077
Mof_H 	H 	0.3457	0.7462	0.4712	0.065
Mof_C 	C 	0.3251	0.8206	0.42031	0.029
Mof_C 	C 	0.3368	0.8118	0.38402	-0.048
Mof_H 	H 	0.3801	0.8392	0.3739	0.06
Mof_C 	C 	0.2848	0.7625	0.36255	-0.088
Mof_C 	C 	0.2213	0.7191	0.37809	0.022
Mof_H 	H 	0.1866	0.6854	0.3638	0.033
Mof_C 	C 	0.2091	0.7256	0.41464	-0.114
Mof_C 	C 	0.2608	0.7769	0.43542	-0.049
Mof_H 	H 	0.2525	0.7823	0.4598	0.031
Mof_C 	C 	0.2956	0.758	0.32223	0.345
Mof_C 	C 	0.1394	0.6801	0.43123	0.377
Mof_Cu	Cu	0.31675	0.3643	0.48655	0.693
Mof_O 	O 	0.2138	0.5686	0.31009	-0.325
Mof_O 	O 	0.27246	0.51492	0.30304	-0.452
Mof_O 	O 	0.36965	0.46742	0.41123	-0.465
Mof_O 	O 	0.30594	0.43303	0.46206	-0.502
Mof_C 	C 	0.0348	0.4149	0.40377	-0.149
Mof_H 	H 	0.0629	0.4091	0.3872	0.046
Mof_C 	C 	0.0568	0.4616	0.43356	0.059
Mof_C 	C 	0.1247	0.5047	0.4436	-0.124
Mof_C 	C 	0.1452	0.547	0.47442	0.105
Mof_C 	C 	0.2153	0.5924	0.48431	-0.078
Mof_H 	H 	0.2538	0.5995	0.4712	0.065
Mof_C 	C 	0.1794	0.5045	0.42031	0.031
Mof_C 	C 	0.1882	0.525	0.38402	-0.05
Mof_H 	H 	0.1608	0.5409	0.3739	0.058
Mof_C 	C 	0.2375	0.5223	0.36255	-0.089
Mof_C 	C 	0.2809	0.5022	0.37809	0.021
Mof_H 	H 	0.3146	0.5012	0.3638	0.033
Mof_C 	C 	0.2744	0.4835	0.41464	-0.114
Mof_C 	C 	0.2231	0.4839	0.43542	-0.051
Mof_H 	H 	0.2177	0.4702	0.4598	0.031
Mof_C 	C 	0.242	0.5376	0.32223	0.344
Mof_C 	C 	0.3199	0.4593	0.43123	0.376
Mof_Cu	Cu	0.6357	0.95245	0.48655	0.702
Mof_O 	O 	0.4314	0.6452	0.31009	-0.323
Mof_O 	O 	0.48508	0.75754	0.30304	-0.449
Mof_O 	O 	0.53258	0.90223	0.41123	-0.457
Mof_O 	O 	0.56697	0.87291	0.46206	-0.496
Mof_C 	C 	0.5851	0.6199	0.40377	-0.111
Mof_H 	H 	0.5909	0.6538	0.3872	0.039
Mof_C 	C 	0.5384	0.5952	0.43356	0.051
Mof_C 	C 	0.4953	0.62	0.4436	-0.12
Mof_C 	C 	0.453	0.5982	0.47442	0.104
Mof_C 	C 	0.4076	0.6229	0.48431	-0.077
Mof_H 	H 	0.4005	0.6543	0.4712	0.065
Mof_C 	C 	0.4955	0.6749	0.42031	0.031
Mof_C 	C 	0.475	0.6632	0.38402	-0.049
Mof_H 	H 	0.4591	0.6199	0.3739	0.059
Mof_C 	C 	0.4777	0.7152	0.36255	-0.086
Mof_C 	C 	0.4978	0.7787	0.37809	0.02
Mof_H 	H 	0.4988	0.8134	0.3638	0.036
Mof_C 	C 	0.5165	0.7909	0.41464	-0.111
Mof_C 	C 	0.5161	0.7392	0.43542	-0.051
Mof_H 	H 	0.5298	0.7475	0.4598	0.032
Mof_C 	C 	0.4624	0.7044	0.32223	0.344
Mof_C 	C 	0.5407	0.8606	0.43123	0.376
Mof_Cu	Cu	0.31675	0.95245	0.51345	0.701
Mof_O 	O 	0.2138	0.6452	0.68991	-0.325
Mof_O 	O 	0.27246	0.75754	0.69696	-0.45
Mof_O 	O 	0.36965	0.90223	0.58877	-0.458
Mof_O 	O 	0.30594	0.87291	0.53794	-0.497
Mof_C 	C 	0.0348	0.6199	0.59623	-0.147
Mof_H 	H 	0.0629	0.6538	0.6128	0.048
Mof_C 	C 	0.0568	0.5952	0.56644	0.06
Mof_C 	C 	0.1247	0.62	0.5564	-0.124
Mof_C 	C 	0.1452	0.5982	0.52558	0.105
Mof_C 	C 	0.2153	0.6229	0.51569	-0.078
Mof_H 	H 	0.2538	0.6543	0.5288	0.065
Mof_C 	C 	0.1794	0.6749	0.57969	0.032
Mof_C 	C 	0.1882	0.6632	0.61598	-0.051
Mof_H 	H 	0.1608	0.6199	0.6261	0.059
Mof_C 	C 	0.2375	0.7152	0.63745	-0.087
Mof_C 	C 	0.2809	0.7787	0.62191	0.02
Mof_H 	H 	0.3146	0.8134	0.6362	0.035
Mof_C 	C 	0.2744	0.7909	0.58536	-0.112
Mof_C 	C 	0.2231	0.7392	0.56458	-0.052
Mof_H 	H 	0.2177	0.7475	0.5402	0.032
Mof_C 	C 	0.242	0.7044	0.67777	0.344
Mof_C 	C 	0.3199	0.8606	0.56877	0.375
Mof_Cu	Cu	0.6357	0.68325	0.51345	0.696
Mof_O 	O 	0.4314	0.7862	0.68991	-0.322
Mof_O 	O 	0.48508	0.72754	0.69696	-0.449
Mof_O 	O 	0.53258	0.63035	0.58877	-0.464
Mof_O 	O 	0.56697	0.69406	0.53794	-0.5
Mof_C 	C 	0.5851	0.9652	0.59623	-0.078
Mof_H 	H 	0.5909	0.9371	0.6128	0.03
Mof_C 	C 	0.5384	0.9432	0.56644	0.055
Mof_C 	C 	0.4953	0.8753	0.5564	-0.119
Mof_C 	C 	0.453	0.8548	0.52558	0.105
Mof_C 	C 	0.4076	0.7847	0.51569	-0.077
Mof_H 	H 	0.4005	0.7462	0.5288	0.065
Mof_C 	C 	0.4955	0.8206	0.57969	0.03
Mof_C 	C 	0.475	0.8118	0.61598	-0.049
Mof_H 	H 	0.4591	0.8392	0.6261	0.06
Mof_C 	C 	0.4777	0.7625	0.63745	-0.087
Mof_C 	C 	0.4978	0.7191	0.62191	0.021
Mof_H 	H 	0.4988	0.6854	0.6362	0.034
Mof_C 	C 	0.5165	0.7256	0.58536	-0.113
Mof_C 	C 	0.5161	0.7769	0.56458	-0.05
Mof_H 	H 	0.5298	0.7823	0.5402	0.032
Mof_C 	C 	0.4624	0.758	0.67777	0.344
Mof_C 	C 	0.5407	0.6801	0.56877	0.377
Mof_Cu	Cu	0.04755	0.3643	0.51345	0.689
Mof_O 	O 	0.3548	0.5686	0.68991	-0.324
Mof_O 	O 	0.24246	0.51492	0.69696	-0.453
Mof_O 	O 	0.09777	0.46742	0.58877	-0.467
Mof_O 	O 	0.12709	0.43303	0.53794	-0.502
Mof_C 	C 	0.3801	0.4149	0.59623	-0.112
Mof_H 	H 	0.3462	0.4091	0.6128	0.036
Mof_C 	C 	0.4048	0.4616	0.56644	0.05
Mof_C 	C 	0.38	0.5047	0.5564	-0.12
Mof_C 	C 	0.4018	0.547	0.52558	0.103
Mof_C 	C 	0.3771	0.5924	0.51569	-0.077
Mof_H 	H 	0.3457	0.5995	0.5288	0.065
Mof_C 	C 	0.3251	0.5045	0.57969	0.029
Mof_C 	C 	0.3368	0.525	0.61598	-0.048
Mof_H 	H 	0.3801	0.5409	0.6261	0.059
Mof_C 	C 	0.2848	0.5223	0.63745	-0.089
Mof_C 	C 	0.2213	0.5022	0.62191	0.022
Mof_H 	H 	0.1866	0.5012	0.6362	0.032
Mof_C 	C 	0.2091	0.4835	0.58536	-0.115
Mof_C 	C 	0.2608	0.4839	0.56458	-0.05
Mof_H 	H 	0.2525	0.4702	0.5402	0.03
Mof_C 	C 	0.2956	0.5376	0.67777	0.345
Mof_C 	C 	0.1394	0.4593	0.56877	0.377
Mof_Cu	Cu	0.68325	0.04755	0.01345	0.69
Mof_O 	O 	0.7862	0.3548	0.18991	-0.322
Mof_O 	O 	0.72754	0.24246	0.19696	-0.451
Mof_O 	O 	0.63035	0.09777	0.08877	-0.467
Mof_O 	O 	0.69406	0.12709	0.03794	-0.502
Mof_C 	C 	0.9652	0.3801	0.09623	-0.078
Mof_H 	H 	0.9371	0.3462	0.1128	0.029
Mof_C 	C 	0.9432	0.4048	0.06644	0.055
Mof_C 	C 	0.8753	0.38	0.0564	-0.12
Mof_C 	C 	0.8548	0.4018	0.02558	0.107
Mof_C 	C 	0.7847	0.3771	0.01569	-0.085
Mof_H 	H 	0.7462	0.3457	0.0288	0.067
Mof_C 	C 	0.8206	0.3251	0.07969	0.029
Mof_C 	C 	0.8118	0.3368	0.11598	-0.048
Mof_H 	H 	0.8392	0.3801	0.1261	0.06
Mof_C 	C 	0.7625	0.2848	0.13745	-0.088
Mof_C 	C 	0.7191	0.2213	0.12191	0.022
Mof_H 	H 	0.6854	0.1866	0.1362	0.033
Mof_C 	C 	0.7256	0.2091	0.08536	-0.115
Mof_C 	C 	0.7769	0.2608	0.06458	-0.049
Mof_H 	H 	0.7823	0.2525	0.0402	0.03
Mof_C 	C 	0.758	0.2956	0.17777	0.345
Mof_C 	C 	0.6801	0.1394	0.06877	0.377
Mof_Cu	Cu	0.3643	0.31675	0.01345	0.692
Mof_O 	O 	0.5686	0.2138	0.18991	-0.325
Mof_O 	O 	0.51492	0.27246	0.19696	-0.452
Mof_O 	O 	0.46742	0.36965	0.08877	-0.466
Mof_O 	O 	0.43303	0.30594	0.03794	-0.503
Mof_C 	C 	0.4149	0.0348	0.09623	-0.149
Mof_H 	H 	0.4091	0.0629	0.1128	0.046
Mof_C 	C 	0.4616	0.0568	0.06644	0.059
Mof_C 	C 	0.5047	0.1247	0.0564	-0.125
Mof_C 	C 	0.547	0.1452	0.02558	0.107
Mof_C 	C 	0.5924	0.2153	0.01569	-0.085
Mof_H 	H 	0.5995	0.2538	0.0288	0.067
Mof_C 	C 	0.5045	0.1794	0.07969	0.031
Mof_C 	C 	0.525	0.1882	0.11598	-0.05
Mof_H 	H 	0.5409	0.1608	0.1261	0.058
Mof_C 	C 	0.5223	0.2375	0.13745	-0.089
Mof_C 	C 	0.5022	0.2809	0.12191	0.021
Mof_H 	H 	0.5012	0.3146	0.1362	0.033
Mof_C 	C 	0.4835	0.2744	0.08536	-0.115
Mof_C 	C 	0.4839	0.2231	0.06458	-0.051
Mof_H 	H 	0.4702	0.2177	0.0402	0.03
Mof_C 	C 	0.5376	0.242	0.17777	0.344
Mof_C 	C 	0.4593	0.3199	0.06877	0.376
Mof_Cu	Cu	0.95245	0.6357	0.01345	0.702
Mof_O 	O 	0.6452	0.4314	0.18991	-0.323
Mof_O 	O 	0.75754	0.48508	0.19696	-0.449
Mof_O 	O 	0.90223	0.53258	0.08877	-0.457
Mof_O 	O 	0.87291	0.56697	0.03794	-0.497
Mof_C 	C 	0.6199	0.5851	0.09623	-0.111
Mof_H 	H 	0.6538	0.5909	0.1128	0.039
Mof_C 	C 	0.5952	0.5384	0.06644	0.051
Mof_C 	C 	0.62	0.4953	0.0564	-0.121
Mof_C 	C 	0.5982	0.453	0.02558	0.105
Mof_C 	C 	0.6229	0.4076	0.01569	-0.085
Mof_H 	H 	0.6543	0.4005	0.0288	0.067
Mof_C 	C 	0.6749	0.4955	0.07969	0.031
Mof_C 	C 	0.6632	0.475	0.11598	-0.049
Mof_H 	H 	0.6199	0.4591	0.1261	0.059
Mof_C 	C 	0.7152	0.4777	0.13745	-0.087
Mof_C 	C 	0.7787	0.4978	0.12191	0.021
Mof_H 	H 	0.8134	0.4988	0.1362	0.036
Mof_C 	C 	0.7909	0.5165	0.08536	-0.112
Mof_C 	C 	0.7392	0.5161	0.06458	-0.051
Mof_H 	H 	0.7475	0.5298	0.0402	0.031
Mof_C 	C 	0.7044	0.4624	0.17777	0.344
Mof_C 	C 	0.8606	0.5407	0.06877	0.376
Mof_Cu	Cu	4.01355e-17	0.57961	0.08451	0.858
Mof_Cu	Cu	0.42039	0.42039	0.08451	0.863
Mof_Cu	Cu	0.57961	0	0.08451	0.858
Mof_Cu	Cu	-3.05737e-17	0.42039	0.58451	0.858
Mof_Cu	Cu	0.57961	0.57961	0.58451	0.864
Mof_Cu	Cu	0.42039	0	0.58451	0.858
Mof_Cu	Cu	0.57961	0	0.41549	0.858
Mof_Cu	Cu	0.42039	0.42039	0.41549	0.863
Mof_Cu	Cu	3.13927e-17	0.57961	0.41549	0.858
Mof_Cu	Cu	0.42039	2.52664e-32	0.91549	0.858
Mof_Cu	Cu	0.57961	0.57961	0.91549	0.864
Mof_Cu	Cu	-3.93165e-17	0.42039	0.91549	0.858
Mof_Cu	Cu	0.24419	0.72968	0.25	0.842
Mof_Cu	Cu	0.27032	0.51451	0.25	0.841
Mof_Cu	Cu	0.48549	0.75581	0.25	0.844
Mof_Cu	Cu	0.75581	0.27032	0.75	0.843
Mof_Cu	Cu	0.72968	0.48549	0.75	0.843
Mof_Cu	Cu	0.51451	0.24419	0.75	0.841
Mof_Cu	Cu	0.72968	0.24419	0.25	0.842
Mof_Cu	Cu	0.51451	0.27032	0.25	0.841
Mof_Cu	Cu	0.75581	0.48549	0.25	0.844
Mof_Cu	Cu	0.27032	0.75581	0.75	0.843
Mof_Cu	Cu	0.48549	0.72968	0.75	0.843
Mof_Cu	Cu	0.24419	0.51451	0.75	0.841
Mof_Mn	Mn	0.5	0	-0	0.767
Mof_Mn	Mn	2.84475e-17	0.5	-0	0.767
Mof_Mn	Mn	0.5	0.5	-0	0.779
Mof_Mn	Mn	0.5	1.26332e-32	0.5	0.771
Mof_Mn	Mn	-1.38142e-17	0.5	0.5	0.771
Mof_Mn	Mn	0.5	0.5	0.5	0.783
Mof_O 	O 	0.58919	0	0.03094	-0.632
Mof_N 	N 	0.4552	0	0.04807	-0.252
Mof_O 	O 	5.07592e-17	0.58919	0.03094	-0.632
Mof_N 	N 	-9.53293e-18	0.4552	0.04807	-0.252
Mof_O 	O 	0.41081	0.41081	0.03094	-0.626
Mof_N 	N 	0.5448	0.5448	0.04807	-0.244
Mof_O 	O 	0.41081	0	0.53094	-0.632
Mof_N 	N 	0.5448	0	0.54807	-0.252
Mof_O 	O 	-1.99501e-17	0.41081	0.53094	-0.632
Mof_N 	N 	5.10031e-18	0.5448	0.54807	-0.252
Mof_O 	O 	0.58919	0.58919	0.53094	-0.625
Mof_N 	N 	0.4552	0.4552	0.54807	-0.244
Mof_O 	O 	-3.61259e-17	0.58919	0.46906	-0.632
Mof_N 	N 	-4.28132e-18	0.4552	0.45193	-0.252
Mof_O 	O 	0.58919	0	0.46906	-0.632
Mof_N 	N 	0.4552	0	0.45193	-0.252
Mof_O 	O 	0.41081	0.41081	0.46906	-0.625
Mof_N 	N 	0.5448	0.5448	0.45193	-0.244
Mof_O 	O 	-2.14927e-17	0.41081	0.96906	-0.631
Mof_N 	N 	-1.80956e-17	0.5448	0.95193	-0.251
Mof_O 	O 	0.41081	2.52664e-32	0.96906	-0.631
Mof_N 	N 	0.5448	2.52664e-32	0.95193	-0.251
Mof_O 	O 	0.58919	0.58919	0.96906	-0.623
Mof_N 	N 	0.4552	0.4552	0.95193	-0.243
Mof_N 	N 	0.4483	0.8966	-0	-0.22
Mof_N 	N 	0.1034	0.5517	-0	-0.226
Mof_N 	N 	0.4483	0.5517	-0	-0.226
Mof_N 	N 	0.5517	0.1034	0.5	-0.224
Mof_N 	N 	0.8966	0.4483	0.5	-0.219
Mof_N 	N 	0.5517	0.4483	0.5	-0.224
Mof_N 	N 	0.5517	0.1034	-0	-0.226
Mof_N 	N 	0.8966	0.4483	-0	-0.22
Mof_N 	N 	0.5517	0.4483	-0	-0.226
Mof_N 	N 	0.4483	0.8966	0.5	-0.219
Mof_N 	N 	0.1034	0.5517	0.5	-0.224
Mof_N 	N 	0.4483	0.5517	0.5	-0.224
_end
