data_functionalizedCrystal
_audit_creation_method	'EQeq! by Chris Wilmer'
_symmetry_space_group_name_H-M	'P1'
_symmetry_Int_Tables_number	1
_symmetry_cell_setting	triclinic
loop_
_symmetry_equiv_pos_as_xyz
  x,y,z
_cell_length_a	12.8387
_cell_length_b	12.8387
_cell_length_c	64.3824
_cell_angle_alpha	90
_cell_angle_beta	90
_cell_angle_gamma	120
loop_
_atom_site_label
_atom_site_type_symbol
_atom_site_fract_x
_atom_site_fract_y
_atom_site_fract_z
_atom_site_charge
Mof_Ag	Ag	0.96984	0.65218	0.07818	0.522
Mof_Ag	Ag	0.62473	0.50863	0.16428	0.538
Mof_Si	Si	0.9787	0.1194	0.09675	0.92
Mof_Si	Si	0.4265	0.6535	0.07594	0.912
Mof_Si	Si	0.5195	0.1923	0.07218	0.972
Mof_N 	N 	0.9831	0.4823	0.0845	-0.158
Mof_N 	N 	0.8933	0.9193	0.03245	-0.165
Mof_N 	N 	0.7938	0.654	0.07945	-0.157
Mof_N 	N 	0.2276	0.5503	0.14034	-0.162
Mof_N 	N 	0.1498	0.8307	0.07697	-0.154
Mof_N 	N 	0.5922	0.4194	0.13331	-0.161
Mof_N 	N 	0.5846	0.6613	0.16439	-0.165
Mof_C 	C 	0.9865	0.4153	0.06868	-0.055
Mof_H 	H 	0.991	0.4427	0.0551	0.019
Mof_C 	C 	0.9835	0.308	0.07182	0.08
Mof_H 	H 	0.9838	0.2642	0.0603	-0.024
Mof_C 	C 	0.9802	0.2641	0.09096	-0.317
Mof_C 	C 	0.9794	0.3358	0.10785	0.046
Mof_H 	H 	0.9779	0.3114	0.1215	-0.016
Mof_C 	C 	0.981	0.4415	0.10357	-0.023
Mof_H 	H 	0.9805	0.4874	0.1147	0.008
Mof_C 	C 	0.1185	0.1423	0.10995	-0.58
Mof_H 	H 	0.1499	0.0958	0.1033	0.179
Mof_H 	H 	0.1803	0.2266	0.1101	0.176
Mof_C 	C 	0.0726	0.0964	0.1318	0.02
Mof_H 	H 	0.1177	0.0605	0.1373	0.004
Mof_H 	H 	0.0898	0.1648	0.1405	0.001
Mof_C 	C 	0.9503	0.0125	0.1335	0.06
Mof_H 	H 	0.924	0.0155	0.1475	-0.006
Mof_H 	H 	0.9389	0.9326	0.1314	-0.005
Mof_C 	C 	0.8723	0.0315	0.11838	-0.605
Mof_H 	H 	0.8386	0.0767	0.1247	0.183
Mof_H 	H 	0.8073	0.9553	0.1134	0.187
Mof_C 	C 	0.9432	0.0316	0.07162	-0.329
Mof_C 	C 	0.83	0.9801	0.06223	0.091
Mof_H 	H 	0.7678	0.9837	0.069	-0.038
Mof_C 	C 	0.8094	0.9257	0.0437	-0.05
Mof_H 	H 	0.7318	0.8902	0.0384	0.017
Mof_C 	C 	0.0012	0.9649	0.04106	-0.046
Mof_H 	H 	0.0611	0.9584	0.0341	0.012
Mof_C 	C 	0.0279	0.0238	0.06075	0.082
Mof_H 	H 	0.1054	0.0571	0.0661	-0.032
Mof_C 	C 	0.7503	0.6854	0.09588	-0.037
Mof_H 	H 	0.7968	0.7116	0.1079	0.014
Mof_C 	C 	0.6414	0.6807	0.09585	0.072
Mof_H 	H 	0.6145	0.6997	0.1079	-0.021
Mof_C 	C 	0.5717	0.6484	0.07835	-0.309
Mof_C 	C 	0.6169	0.6169	0.06146	0.066
Mof_H 	H 	0.573	0.5933	0.0492	-0.035
Mof_C 	C 	0.7244	0.6199	0.06247	-0.04
Mof_H 	H 	0.7508	0.5972	0.0508	0.006
Mof_C 	C 	0.4576	0.8034	0.06572	-0.563
Mof_H 	H 	0.4142	0.8341	0.0736	0.175
Mof_H 	H 	0.5429	0.8618	0.0661	0.166
Mof_C 	C 	0.411	0.7731	0.0432	0.012
Mof_H 	H 	0.3939	0.8336	0.0378	0.01
Mof_H 	H 	0.471	0.7708	0.0343	0.001
Mof_C 	C 	0.2992	0.6532	0.0435	0.073
Mof_H 	H 	0.2722	0.6271	0.0294	-0.014
Mof_H 	H 	0.2361	0.6587	0.0508	-0.016
Mof_C 	C 	0.3244	0.563	0.0542	-0.6
Mof_H 	H 	0.3638	0.534	0.0449	0.177
Mof_H 	H 	0.251	0.4951	0.0594	0.182
Mof_C 	C 	0.3515	0.6161	0.10194	-0.316
Mof_C 	C 	0.3039	0.6799	0.1112	0.072
Mof_H 	H 	0.3121	0.7479	0.1046	-0.029
Mof_C 	C 	0.2439	0.646	0.13017	-0.036
Mof_H 	H 	0.2143	0.6927	0.1358	0.007
Mof_C 	C 	0.2733	0.4851	0.13181	-0.041
Mof_H 	H 	0.2631	0.4172	0.1388	0.012
Mof_C 	C 	0.3337	0.5154	0.11337	0.068
Mof_H 	H 	0.3639	0.4681	0.1082	-0.024
Mof_C 	C 	0.2074	0.8907	0.09381	-0.054
Mof_H 	H 	0.1739	0.8587	0.1067	0.02
Mof_C 	C 	0.3149	0.9988	0.09329	0.092
Mof_H 	H 	0.3517	0.0375	0.1056	-0.035
Mof_C 	C 	0.3673	0.0492	0.07444	-0.344
Mof_C 	C 	0.3052	0.9867	0.05659	0.089
Mof_H 	H 	0.3349	0.0177	0.0435	-0.038
Mof_C 	C 	0.1998	0.8787	0.05866	-0.05
Mof_H 	H 	0.1613	0.8369	0.0467	0.016
Mof_C 	C 	0.6417	0.1545	0.0691	-0.723
Mof_H 	H 	0.7122	0.2087	0.0771	0.223
Mof_H 	H 	0.6146	0.0725	0.0734	0.211
Mof_C 	C 	0.667	0.169	0.0474	0.236
Mof_H 	H 	0.6066	0.0986	0.0401	-0.063
Mof_H 	H 	0.7447	0.1759	0.0449	-0.061
Mof_C 	C 	0.5449	0.2687	0.04688	-0.568
Mof_H 	H 	0.48	0.2213	0.0373	0.169
Mof_H 	H 	0.5528	0.3475	0.0484	0.166
Mof_C 	C 	0.6677	0.279	0.0394	-0.087
Mof_H 	H 	0.6726	0.2818	0.0243	0.036
Mof_H 	H 	0.7358	0.3512	0.0449	0.031
Mof_C 	C 	0.5454	0.2866	0.09586	-0.347
Mof_C 	C 	0.6598	0.3652	0.10229	0.088
Mof_H 	H 	0.7249	0.375	0.0944	-0.036
Mof_C 	C 	0.6797	0.4306	0.12052	-0.042
Mof_H 	H 	0.7587	0.4858	0.1241	0.011
Mof_C 	C 	0.4823	0.344	0.12692	-0.042
Mof_H 	H 	0.4188	0.3332	0.1353	0.016
Mof_C 	C 	0.4547	0.2797	0.10861	0.085
Mof_H 	H 	0.3747	0.2314	0.1048	-0.031
Mof_C 	C 	0.6622	0.7651	0.15616	-0.027
Mof_H 	H 	0.7311	0.7713	0.1502	0.012
Mof_C 	C 	0.6495	0.867	0.15562	0.059
Mof_H 	H 	0.7055	0.9356	0.1486	-0.014
Mof_C 	C 	0.5528	0.8654	0.16568	-0.316
Mof_C 	C 	0.4732	0.7566	0.17461	0.065
Mof_H 	H 	0.4061	0.7487	0.1815	-0.023
Mof_C 	C 	0.4908	0.6582	0.17353	-0.028
Mof_H 	H 	0.4334	0.5863	0.1796	0.006
Mof_C 	C 	0.4419	0.0072	0.1449	-0.61
Mof_H 	H 	0.491	0.0711	0.1352	0.184
Mof_H 	H 	0.4008	0.9315	0.1374	0.19
Mof_C 	C 	0.3533	0.0329	0.15606	0.051
Mof_H 	H 	0.2813	0.0052	0.1477	-0.006
Mof_H 	H 	0.3887	0.1188	0.1582	-0.009
Mof_Ag	Ag	0.34782	0.31766	0.74485	0.519
Mof_Ag	Ag	0.49137	0.1161	0.83095	0.534
Mof_Si	Si	0.8806	0.8593	0.76342	0.906
Mof_Si	Si	0.3465	0.773	0.74261	0.906
Mof_Si	Si	0.8077	0.3272	0.73885	0.927
Mof_N 	N 	0.5177	0.5008	0.75117	-0.16
Mof_N 	N 	0.0807	0.974	0.69912	-0.161
Mof_N 	N 	0.346	0.1398	0.74612	-0.161
Mof_N 	N 	0.4497	0.6773	0.80701	-0.164
Mof_N 	N 	0.1693	0.3191	0.74364	-0.176
Mof_N 	N 	0.5806	0.1728	0.79998	-0.163
Mof_N 	N 	0.3387	0.9233	0.83106	-0.162
Mof_C 	C 	0.5847	0.5712	0.73535	-0.053
Mof_H 	H 	0.5573	0.5483	0.72177	0.018
Mof_C 	C 	0.692	0.6755	0.73849	0.076
Mof_H 	H 	0.7358	0.7196	0.72697	-0.02
Mof_C 	C 	0.7359	0.7161	0.75763	-0.311
Mof_C 	C 	0.6642	0.6436	0.77452	0.043
Mof_H 	H 	0.6886	0.6665	0.78817	-0.016
Mof_C 	C 	0.5585	0.5395	0.77024	-0.021
Mof_H 	H 	0.5126	0.4931	0.78137	0.007
Mof_C 	C 	0.8577	0.9762	0.77662	-0.548
Mof_H 	H 	0.9042	0.0541	0.76997	0.171
Mof_H 	H 	0.7734	0.9537	0.77677	0.168
Mof_C 	C 	0.9036	0.9762	0.79847	-0.019
Mof_H 	H 	0.9395	0.0572	0.80397	0.019
Mof_H 	H 	0.8352	0.925	0.80717	0.014
Mof_C 	C 	0.9875	0.9378	0.80017	0.117
Mof_H 	H 	0.9845	0.9085	0.81417	-0.017
Mof_H 	H 	0.0674	0.0063	0.79807	-0.037
Mof_C 	C 	0.9685	0.8408	0.78505	-0.591
Mof_H 	H 	0.9233	0.7619	0.79137	0.183
Mof_H 	H 	0.0447	0.852	0.78007	0.173
Mof_C 	C 	0.9684	0.9116	0.73829	-0.302
Mof_C 	C 	0.0199	0.8499	0.7289	0.061
Mof_H 	H 	0.0163	0.7841	0.73567	-0.033
Mof_C 	C 	0.0743	0.8837	0.71037	-0.039
Mof_H 	H 	0.1098	0.8416	0.70507	0.013
Mof_C 	C 	0.0351	0.0363	0.70773	-0.07
Mof_H 	H 	0.0416	0.1027	0.70077	0.017
Mof_C 	C 	0.9762	0.0041	0.72742	0.092
Mof_H 	H 	0.9429	0.0483	0.73277	-0.031
Mof_C 	C 	0.3146	0.0649	0.76255	-0.042
Mof_H 	H 	0.2884	0.0852	0.77457	0.014
Mof_C 	C 	0.3193	0.9607	0.76252	0.073
Mof_H 	H 	0.3003	0.9148	0.77457	-0.021
Mof_C 	C 	0.3516	0.9233	0.74502	-0.297
Mof_C 	C 	0.3831	0	0.72813	0.041
Mof_H 	H 	0.4067	0.9797	0.71587	-0.022
Mof_C 	C 	0.3801	0.1045	0.72914	-0.029
Mof_H 	H 	0.4028	0.1536	0.71747	0.002
Mof_C 	C 	0.1966	0.6542	0.73239	-0.56
Mof_H 	H 	0.1659	0.5801	0.74027	0.172
Mof_H 	H 	0.1382	0.6811	0.73277	0.162
Mof_C 	C 	0.2269	0.6379	0.70987	0.011
Mof_H 	H 	0.1664	0.5603	0.70447	0.008
Mof_H 	H 	0.2292	0.7002	0.70097	0.001
Mof_C 	C 	0.3468	0.646	0.71017	0.073
Mof_H 	H 	0.3729	0.6451	0.69607	-0.014
Mof_H 	H 	0.3413	0.5774	0.71747	-0.015
Mof_C 	C 	0.437	0.7614	0.72087	-0.598
Mof_H 	H 	0.466	0.8298	0.71157	0.177
Mof_H 	H 	0.5049	0.7559	0.72607	0.183
Mof_C 	C 	0.3839	0.7354	0.76861	-0.314
Mof_C 	C 	0.3201	0.624	0.77787	0.071
Mof_H 	H 	0.2521	0.5642	0.77127	-0.029
Mof_C 	C 	0.354	0.5979	0.79684	-0.035
Mof_H 	H 	0.3073	0.5216	0.80247	0.007
Mof_C 	C 	0.5149	0.7882	0.79848	-0.04
Mof_H 	H 	0.5828	0.8459	0.80547	0.012
Mof_C 	C 	0.4846	0.8183	0.78004	0.067
Mof_H 	H 	0.5319	0.8958	0.77487	-0.022
Mof_C 	C 	0.1093	0.3167	0.76048	0.004
Mof_H 	H 	0.1413	0.3152	0.77337	-0.003
Mof_C 	C 	0.0012	0.3161	0.75996	-0.028
Mof_H 	H 	0.9625	0.3142	0.77227	0.018
Mof_C 	C 	0.9508	0.3181	0.74111	-0.243
Mof_C 	C 	0.0133	0.3185	0.72326	-0.026
Mof_H 	H 	0.9823	0.3172	0.71017	0.014
Mof_C 	C 	0.1213	0.3211	0.72533	0.007
Mof_H 	H 	0.1631	0.3244	0.71337	-0.006
Mof_C 	C 	0.8455	0.4872	0.73577	-0.698
Mof_H 	H 	0.7913	0.5035	0.74377	0.218
Mof_H 	H 	0.9275	0.5421	0.74007	0.209
Mof_C 	C 	0.831	0.498	0.71407	0.221
Mof_H 	H 	0.9014	0.508	0.70677	-0.055
Mof_H 	H 	0.8241	0.5688	0.71157	-0.053
Mof_C 	C 	0.7313	0.2762	0.71355	-0.55
Mof_H 	H 	0.7787	0.2587	0.70397	0.164
Mof_H 	H 	0.6525	0.2053	0.71507	0.161
Mof_C 	C 	0.721	0.3887	0.70607	-0.086
Mof_H 	H 	0.7182	0.3908	0.69097	0.036
Mof_H 	H 	0.6488	0.3846	0.71157	0.031
Mof_C 	C 	0.7134	0.2588	0.76253	-0.331
Mof_C 	C 	0.6348	0.2946	0.76896	0.078
Mof_H 	H 	0.625	0.3499	0.76107	-0.032
Mof_C 	C 	0.5694	0.2491	0.78719	-0.037
Mof_H 	H 	0.5142	0.2729	0.79077	0.01
Mof_C 	C 	0.656	0.1383	0.79359	-0.037
Mof_H 	H 	0.6668	0.0856	0.80197	0.013
Mof_C 	C 	0.7203	0.175	0.77528	0.073
Mof_H 	H 	0.7686	0.1433	0.77147	-0.027
Mof_C 	C 	0.2349	0.8971	0.82283	-0.031
Mof_H 	H 	0.2287	0.9598	0.81687	0.013
Mof_C 	C 	0.133	0.7825	0.82229	0.064
Mof_H 	H 	0.0644	0.7699	0.81527	-0.023
Mof_C 	C 	0.1346	0.6874	0.83235	-0.327
Mof_C 	C 	0.2434	0.7166	0.84128	0.07
Mof_H 	H 	0.2513	0.6574	0.84817	-0.025
Mof_C 	C 	0.3418	0.8326	0.8402	-0.031
Mof_H 	H 	0.4137	0.8471	0.84627	0.008
Mof_C 	C 	0.9928	0.4347	0.81157	-0.559
Mof_H 	H 	0.9289	0.4199	0.80187	0.17
Mof_H 	H 	0.0685	0.4693	0.80407	0.163
Mof_C 	C 	0.9671	0.3204	0.82273	0.036
Mof_H 	H 	0.9948	0.2761	0.81437	0.005
Mof_H 	H 	0.8812	0.2699	0.82487	-0.003
Mof_Ag	Ag	0.68234	0.03016	0.41151	0.507
Mof_Ag	Ag	0.8839	0.37527	0.49761	0.547
Mof_Si	Si	0.1407	0.0213	0.43008	0.902
Mof_Si	Si	0.227	0.5735	0.40927	0.904
Mof_Si	Si	0.6728	0.4805	0.40551	0.962
Mof_N 	N 	0.4992	0.0169	0.41783	-0.16
Mof_N 	N 	0.026	0.1067	0.36578	-0.173
Mof_N 	N 	0.8602	0.2062	0.41278	-0.165
Mof_N 	N 	0.3227	0.7724	0.47367	-0.164
Mof_N 	N 	0.6809	0.8502	0.4103	-0.155
Mof_N 	N 	0.8272	0.4078	0.46664	-0.162
Mof_N 	N 	0.0767	0.4154	0.49772	-0.166
Mof_C 	C 	0.4288	0.0135	0.40201	-0.056
Mof_H 	H 	0.4517	0.009	0.38843	0.016
Mof_C 	C 	0.3245	0.0165	0.40515	0.077
Mof_H 	H 	0.2804	0.0162	0.39363	-0.025
Mof_C 	C 	0.2839	0.0198	0.42429	-0.315
Mof_C 	C 	0.3564	0.0206	0.44118	0.043
Mof_H 	H 	0.3335	0.0221	0.45483	-0.018
Mof_C 	C 	0.4605	0.019	0.4369	-0.024
Mof_H 	H 	0.5069	0.0195	0.44803	0.006
Mof_C 	C 	0.0238	0.8815	0.44328	-0.598
Mof_H 	H 	0.9459	0.8501	0.43663	0.193
Mof_H 	H 	0.0463	0.8197	0.44343	0.182
Mof_C 	C 	0.0238	0.9274	0.46513	0.059
Mof_H 	H 	0.9428	0.8823	0.47063	0.001
Mof_H 	H 	0.075	0.9102	0.47383	-0.009
Mof_C 	C 	0.0622	0.0497	0.46683	0.001
Mof_H 	H 	0.0915	0.076	0.48083	0.01
Mof_H 	H 	0.9937	0.0611	0.46473	0.012
Mof_C 	C 	0.1592	0.1277	0.45171	-0.561
Mof_H 	H 	0.2381	0.1614	0.45803	0.171
Mof_H 	H 	0.148	0.1927	0.44673	0.168
Mof_C 	C 	0.0884	0.0568	0.40495	-0.349
Mof_C 	C 	0.1501	0.17	0.39556	0.094
Mof_H 	H 	0.2159	0.2322	0.40233	-0.041
Mof_C 	C 	0.1163	0.1906	0.37703	-0.057
Mof_H 	H 	0.1584	0.2682	0.37173	0.019
Mof_C 	C 	0.9637	0.9988	0.37439	-0.038
Mof_H 	H 	0.8973	0.9389	0.36743	0.015
Mof_C 	C 	0.9959	0.9721	0.39408	0.115
Mof_H 	H 	0.9517	0.8946	0.39943	-0.038
Mof_C 	C 	0.9351	0.2497	0.42921	-0.016
Mof_H 	H 	0.9148	0.2032	0.44123	0.008
Mof_C 	C 	0.0393	0.3586	0.42918	0.047
Mof_H 	H 	0.0852	0.3855	0.44123	-0.014
Mof_C 	C 	0.0767	0.4283	0.41168	-0.294
Mof_C 	C 	-1.97902e-17	0.3831	0.39479	0.041
Mof_H 	H 	0.0203	0.427	0.38253	-0.028
Mof_C 	C 	0.8955	0.2756	0.3958	-0.019
Mof_H 	H 	0.8464	0.2492	0.38413	0
Mof_C 	C 	0.3458	0.5424	0.39905	-0.56
Mof_H 	H 	0.4199	0.5858	0.40693	0.174
Mof_H 	H 	0.3189	0.4571	0.39943	0.164
Mof_C 	C 	0.3621	0.589	0.37653	0.013
Mof_H 	H 	0.4397	0.6061	0.37113	0.01
Mof_H 	H 	0.2998	0.529	0.36763	0.001
Mof_C 	C 	0.354	0.7008	0.37683	0.069
Mof_H 	H 	0.3549	0.7278	0.36273	-0.012
Mof_H 	H 	0.4226	0.7639	0.38413	-0.012
Mof_C 	C 	0.2386	0.6756	0.38753	-0.595
Mof_H 	H 	0.1702	0.6362	0.37823	0.175
Mof_H 	H 	0.2441	0.749	0.39273	0.183
Mof_C 	C 	0.2646	0.6485	0.43527	-0.313
Mof_C 	C 	0.376	0.6961	0.44453	0.071
Mof_H 	H 	0.4358	0.6879	0.43793	-0.028
Mof_C 	C 	0.4021	0.7561	0.4635	-0.034
Mof_H 	H 	0.4784	0.7857	0.46913	0.008
Mof_C 	C 	0.2118	0.7267	0.46514	-0.039
Mof_H 	H 	0.1541	0.7369	0.47213	0.01
Mof_C 	C 	0.1817	0.6663	0.4467	0.067
Mof_H 	H 	0.1042	0.6361	0.44153	-0.025
Mof_C 	C 	0.6833	0.7926	0.42714	-0.038
Mof_H 	H 	0.6848	0.8261	0.44003	0.016
Mof_C 	C 	0.6839	0.6851	0.42662	0.058
Mof_H 	H 	0.6858	0.6483	0.43893	-0.019
Mof_C 	C 	0.6819	0.6327	0.40777	-0.317
Mof_C 	C 	0.6815	0.6948	0.38992	0.062
Mof_H 	H 	0.6828	0.6651	0.37683	-0.025
Mof_C 	C 	0.6789	0.8002	0.39199	-0.036
Mof_H 	H 	0.6756	0.8387	0.38003	0.014
Mof_C 	C 	0.5128	0.3583	0.40243	-0.718
Mof_H 	H 	0.4965	0.2878	0.41043	0.223
Mof_H 	H 	0.4579	0.3854	0.40673	0.211
Mof_C 	C 	0.502	0.333	0.38073	0.234
Mof_H 	H 	0.492	0.3934	0.37343	-0.062
Mof_H 	H 	0.4312	0.2553	0.37823	-0.06
Mof_C 	C 	0.7238	0.4551	0.38021	-0.565
Mof_H 	H 	0.7413	0.52	0.37063	0.17
Mof_H 	H 	0.7947	0.4472	0.38173	0.167
Mof_C 	C 	0.6113	0.3323	0.37273	-0.087
Mof_H 	H 	0.6092	0.3274	0.35763	0.035
Mof_H 	H 	0.6154	0.2642	0.37823	0.031
Mof_C 	C 	0.7412	0.4546	0.42919	-0.343
Mof_C 	C 	0.7054	0.3402	0.43562	0.086
Mof_H 	H 	0.6501	0.2751	0.42773	-0.035
Mof_C 	C 	0.7509	0.3203	0.45385	-0.039
Mof_H 	H 	0.7271	0.2413	0.45743	0.01
Mof_C 	C 	0.8617	0.5177	0.46025	-0.04
Mof_H 	H 	0.9144	0.5812	0.46863	0.018
Mof_C 	C 	0.825	0.5453	0.44194	0.083
Mof_H 	H 	0.8567	0.6253	0.43813	-0.029
Mof_C 	C 	0.1029	0.3378	0.48949	-0.032
Mof_H 	H 	0.0402	0.2689	0.48353	0.009
Mof_C 	C 	0.2175	0.3505	0.48895	0.069
Mof_H 	H 	0.2301	0.2945	0.48193	-0.022
Mof_C 	C 	0.3126	0.4472	0.49901	-0.337
Mof_C 	C 	0.2834	0.5268	0.50794	0.076
Mof_H 	H 	0.3426	0.5939	0.51483	-0.028
Mof_C 	C 	0.1674	0.5092	0.50686	-0.034
Mof_H 	H 	0.1529	0.5666	0.51293	0.007
Mof_C 	C 	0.5653	0.5581	0.47823	-0.606
Mof_H 	H 	0.5801	0.509	0.46853	0.183
Mof_H 	H 	0.5307	0.5992	0.47073	0.183
Mof_C 	C 	0.6796	0.6467	0.48939	0.049
Mof_H 	H 	0.7239	0.7187	0.48103	-0.001
Mof_H 	H 	0.7301	0.6113	0.49153	-0.007
Mof_Ag	Ag	0.65218	0.96984	0.92182	0.521
Mof_Ag	Ag	0.50863	0.62473	0.83572	0.537
Mof_Si	Si	0.1194	0.9787	0.90325	0.919
Mof_Si	Si	0.6535	0.4265	0.92406	0.911
Mof_Si	Si	0.1923	0.5195	0.92782	0.971
Mof_N 	N 	0.4823	0.9831	0.9155	-0.159
Mof_N 	N 	0.9193	0.8933	0.96755	-0.166
Mof_N 	N 	0.654	0.7938	0.92055	-0.158
Mof_N 	N 	0.5503	0.2276	0.85966	-0.163
Mof_N 	N 	0.8307	0.1498	0.92303	-0.154
Mof_N 	N 	0.4194	0.5922	0.86669	-0.161
Mof_N 	N 	0.6613	0.5846	0.83561	-0.165
Mof_C 	C 	0.4153	0.9865	0.93132	-0.055
Mof_H 	H 	0.4427	0.991	0.9449	0.019
Mof_C 	C 	0.308	0.9835	0.92818	0.08
Mof_H 	H 	0.2642	0.9838	0.9397	-0.024
Mof_C 	C 	0.2641	0.9802	0.90904	-0.317
Mof_C 	C 	0.3358	0.9794	0.89215	0.046
Mof_H 	H 	0.3114	0.9779	0.8785	-0.016
Mof_C 	C 	0.4415	0.981	0.89643	-0.023
Mof_H 	H 	0.4874	0.9805	0.8853	0.008
Mof_C 	C 	0.1423	0.1185	0.89005	-0.58
Mof_H 	H 	0.0958	0.1499	0.8967	0.179
Mof_H 	H 	0.2266	0.1803	0.8899	0.176
Mof_C 	C 	0.0964	0.0726	0.8682	0.02
Mof_H 	H 	0.0605	0.1177	0.8627	0.004
Mof_H 	H 	0.1648	0.0898	0.8595	0.001
Mof_C 	C 	0.0125	0.9503	0.8665	0.06
Mof_H 	H 	0.0155	0.924	0.8525	-0.006
Mof_H 	H 	0.9326	0.9389	0.8686	-0.005
Mof_C 	C 	0.0315	0.8723	0.88162	-0.605
Mof_H 	H 	0.0767	0.8386	0.8753	0.183
Mof_H 	H 	0.9553	0.8073	0.8866	0.187
Mof_C 	C 	0.0316	0.9432	0.92838	-0.329
Mof_C 	C 	0.9801	0.83	0.93777	0.091
Mof_H 	H 	0.9837	0.7678	0.931	-0.038
Mof_C 	C 	0.9257	0.8094	0.9563	-0.05
Mof_H 	H 	0.8902	0.7318	0.9616	0.017
Mof_C 	C 	0.9649	0.0012	0.95894	-0.046
Mof_H 	H 	0.9584	0.0611	0.9659	0.012
Mof_C 	C 	0.0238	0.0279	0.93925	0.082
Mof_H 	H 	0.0571	0.1054	0.9339	-0.032
Mof_C 	C 	0.6854	0.7503	0.90412	-0.037
Mof_H 	H 	0.7116	0.7968	0.8921	0.014
Mof_C 	C 	0.6807	0.6414	0.90415	0.072
Mof_H 	H 	0.6997	0.6145	0.8921	-0.021
Mof_C 	C 	0.6484	0.5717	0.92165	-0.309
Mof_C 	C 	0.6169	0.6169	0.93854	0.066
Mof_H 	H 	0.5933	0.573	0.9508	-0.035
Mof_C 	C 	0.6199	0.7244	0.93753	-0.04
Mof_H 	H 	0.5972	0.7508	0.9492	0.006
Mof_C 	C 	0.8034	0.4576	0.93428	-0.563
Mof_H 	H 	0.8341	0.4142	0.9264	0.175
Mof_H 	H 	0.8618	0.5429	0.9339	0.166
Mof_C 	C 	0.7731	0.411	0.9568	0.012
Mof_H 	H 	0.8336	0.3939	0.9622	0.01
Mof_H 	H 	0.7708	0.471	0.9657	0.001
Mof_C 	C 	0.6532	0.2992	0.9565	0.073
Mof_H 	H 	0.6271	0.2722	0.9706	-0.014
Mof_H 	H 	0.6587	0.2361	0.9492	-0.016
Mof_C 	C 	0.563	0.3244	0.9458	-0.6
Mof_H 	H 	0.534	0.3638	0.9551	0.177
Mof_H 	H 	0.4951	0.251	0.9406	0.182
Mof_C 	C 	0.6161	0.3515	0.89806	-0.316
Mof_C 	C 	0.6799	0.3039	0.8888	0.072
Mof_H 	H 	0.7479	0.3121	0.8954	-0.029
Mof_C 	C 	0.646	0.2439	0.86983	-0.036
Mof_H 	H 	0.6927	0.2143	0.8642	0.007
Mof_C 	C 	0.4851	0.2733	0.86819	-0.041
Mof_H 	H 	0.4172	0.2631	0.8612	0.012
Mof_C 	C 	0.5154	0.3337	0.88663	0.068
Mof_H 	H 	0.4681	0.3639	0.8918	-0.024
Mof_C 	C 	0.8907	0.2074	0.90619	-0.054
Mof_H 	H 	0.8587	0.1739	0.8933	0.02
Mof_C 	C 	0.9988	0.3149	0.90671	0.092
Mof_H 	H 	0.0375	0.3517	0.8944	-0.035
Mof_C 	C 	0.0492	0.3673	0.92556	-0.344
Mof_C 	C 	0.9867	0.3052	0.94341	0.089
Mof_H 	H 	0.0177	0.3349	0.9565	-0.038
Mof_C 	C 	0.8787	0.1998	0.94134	-0.05
Mof_H 	H 	0.8369	0.1613	0.9533	0.016
Mof_C 	C 	0.1545	0.6417	0.9309	-0.723
Mof_H 	H 	0.2087	0.7122	0.9229	0.223
Mof_H 	H 	0.0725	0.6146	0.9266	0.211
Mof_C 	C 	0.169	0.667	0.9526	0.236
Mof_H 	H 	0.0986	0.6066	0.9599	-0.063
Mof_H 	H 	0.1759	0.7447	0.9551	-0.061
Mof_C 	C 	0.2687	0.5449	0.95312	-0.568
Mof_H 	H 	0.2213	0.48	0.9627	0.169
Mof_H 	H 	0.3475	0.5528	0.9516	0.166
Mof_C 	C 	0.279	0.6677	0.9606	-0.087
Mof_H 	H 	0.2818	0.6726	0.9757	0.036
Mof_H 	H 	0.3512	0.7358	0.9551	0.031
Mof_C 	C 	0.2866	0.5454	0.90414	-0.347
Mof_C 	C 	0.3652	0.6598	0.89771	0.088
Mof_H 	H 	0.375	0.7249	0.9056	-0.036
Mof_C 	C 	0.4306	0.6797	0.87948	-0.042
Mof_H 	H 	0.4858	0.7587	0.8759	0.011
Mof_C 	C 	0.344	0.4823	0.87308	-0.042
Mof_H 	H 	0.3332	0.4188	0.8647	0.016
Mof_C 	C 	0.2797	0.4547	0.89139	0.085
Mof_H 	H 	0.2314	0.3747	0.8952	-0.031
Mof_C 	C 	0.7651	0.6622	0.84384	-0.027
Mof_H 	H 	0.7713	0.7311	0.8498	0.012
Mof_C 	C 	0.867	0.6495	0.84438	0.059
Mof_H 	H 	0.9356	0.7055	0.8514	-0.014
Mof_C 	C 	0.8654	0.5528	0.83432	-0.316
Mof_C 	C 	0.7566	0.4732	0.82539	0.065
Mof_H 	H 	0.7487	0.4061	0.8185	-0.023
Mof_C 	C 	0.6582	0.4908	0.82647	-0.028
Mof_H 	H 	0.5863	0.4334	0.8204	0.006
Mof_C 	C 	0.0072	0.4419	0.8551	-0.61
Mof_H 	H 	0.0711	0.491	0.8648	0.184
Mof_H 	H 	0.9315	0.4008	0.8626	0.19
Mof_C 	C 	0.0329	0.3533	0.84394	0.051
Mof_H 	H 	0.0052	0.2813	0.8523	-0.006
Mof_H 	H 	0.1188	0.3887	0.8418	-0.009
Mof_Ag	Ag	0.31766	0.34782	0.25515	0.519
Mof_Ag	Ag	0.1161	0.49137	0.16905	0.534
Mof_Si	Si	0.8593	0.8806	0.23658	0.906
Mof_Si	Si	0.773	0.3465	0.25739	0.906
Mof_Si	Si	0.3272	0.8077	0.26115	0.927
Mof_N 	N 	0.5008	0.5177	0.24883	-0.16
Mof_N 	N 	0.974	0.0807	0.30088	-0.161
Mof_N 	N 	0.1398	0.346	0.25388	-0.161
Mof_N 	N 	0.6773	0.4497	0.19299	-0.164
Mof_N 	N 	0.3191	0.1693	0.25636	-0.176
Mof_N 	N 	0.1728	0.5806	0.20002	-0.163
Mof_N 	N 	0.9233	0.3387	0.16894	-0.162
Mof_C 	C 	0.5712	0.5847	0.26465	-0.053
Mof_H 	H 	0.5483	0.5573	0.27823	0.018
Mof_C 	C 	0.6755	0.692	0.26151	0.076
Mof_H 	H 	0.7196	0.7358	0.27303	-0.02
Mof_C 	C 	0.7161	0.7359	0.24237	-0.311
Mof_C 	C 	0.6436	0.6642	0.22548	0.043
Mof_H 	H 	0.6665	0.6886	0.21183	-0.016
Mof_C 	C 	0.5395	0.5585	0.22976	-0.021
Mof_H 	H 	0.4931	0.5126	0.21863	0.007
Mof_C 	C 	0.9762	0.8577	0.22338	-0.548
Mof_H 	H 	0.0541	0.9042	0.23003	0.171
Mof_H 	H 	0.9537	0.7734	0.22323	0.168
Mof_C 	C 	0.9762	0.9036	0.20153	-0.019
Mof_H 	H 	0.0572	0.9395	0.19603	0.019
Mof_H 	H 	0.925	0.8352	0.19283	0.014
Mof_C 	C 	0.9378	0.9875	0.19983	0.117
Mof_H 	H 	0.9085	0.9845	0.18583	-0.017
Mof_H 	H 	0.0063	0.0674	0.20193	-0.037
Mof_C 	C 	0.8408	0.9685	0.21495	-0.591
Mof_H 	H 	0.7619	0.9233	0.20863	0.183
Mof_H 	H 	0.852	0.0447	0.21993	0.173
Mof_C 	C 	0.9116	0.9684	0.26171	-0.302
Mof_C 	C 	0.8499	0.0199	0.2711	0.061
Mof_H 	H 	0.7841	0.0163	0.26433	-0.033
Mof_C 	C 	0.8837	0.0743	0.28963	-0.039
Mof_H 	H 	0.8416	0.1098	0.29493	0.013
Mof_C 	C 	0.0363	0.0351	0.29227	-0.07
Mof_H 	H 	0.1027	0.0416	0.29923	0.017
Mof_C 	C 	0.0041	0.9762	0.27258	0.092
Mof_H 	H 	0.0483	0.9429	0.26723	-0.031
Mof_C 	C 	0.0649	0.3146	0.23745	-0.042
Mof_H 	H 	0.0852	0.2884	0.22543	0.014
Mof_C 	C 	0.9607	0.3193	0.23748	0.073
Mof_H 	H 	0.9148	0.3003	0.22543	-0.021
Mof_C 	C 	0.9233	0.3516	0.25498	-0.297
Mof_C 	C 	-1.8522e-17	0.3831	0.27187	0.041
Mof_H 	H 	0.9797	0.4067	0.28413	-0.022
Mof_C 	C 	0.1045	0.3801	0.27086	-0.029
Mof_H 	H 	0.1536	0.4028	0.28253	0.002
Mof_C 	C 	0.6542	0.1966	0.26761	-0.56
Mof_H 	H 	0.5801	0.1659	0.25973	0.172
Mof_H 	H 	0.6811	0.1382	0.26723	0.162
Mof_C 	C 	0.6379	0.2269	0.29013	0.011
Mof_H 	H 	0.5603	0.1664	0.29553	0.008
Mof_H 	H 	0.7002	0.2292	0.29903	0.001
Mof_C 	C 	0.646	0.3468	0.28983	0.073
Mof_H 	H 	0.6451	0.3729	0.30393	-0.014
Mof_H 	H 	0.5774	0.3413	0.28253	-0.015
Mof_C 	C 	0.7614	0.437	0.27913	-0.598
Mof_H 	H 	0.8298	0.466	0.28843	0.177
Mof_H 	H 	0.7559	0.5049	0.27393	0.183
Mof_C 	C 	0.7354	0.3839	0.23139	-0.314
Mof_C 	C 	0.624	0.3201	0.22213	0.071
Mof_H 	H 	0.5642	0.2521	0.22873	-0.029
Mof_C 	C 	0.5979	0.354	0.20316	-0.035
Mof_H 	H 	0.5216	0.3073	0.19753	0.007
Mof_C 	C 	0.7882	0.5149	0.20152	-0.04
Mof_H 	H 	0.8459	0.5828	0.19453	0.012
Mof_C 	C 	0.8183	0.4846	0.21996	0.067
Mof_H 	H 	0.8958	0.5319	0.22513	-0.022
Mof_C 	C 	0.3167	0.1093	0.23952	0.004
Mof_H 	H 	0.3152	0.1413	0.22663	-0.003
Mof_C 	C 	0.3161	0.0012	0.24004	-0.028
Mof_H 	H 	0.3142	0.9625	0.22773	0.018
Mof_C 	C 	0.3181	0.9508	0.25889	-0.243
Mof_C 	C 	0.3185	0.0133	0.27674	-0.026
Mof_H 	H 	0.3172	0.9823	0.28983	0.014
Mof_C 	C 	0.3211	0.1213	0.27467	0.007
Mof_H 	H 	0.3244	0.1631	0.28663	-0.006
Mof_C 	C 	0.4872	0.8455	0.26423	-0.698
Mof_H 	H 	0.5035	0.7913	0.25623	0.218
Mof_H 	H 	0.5421	0.9275	0.25993	0.209
Mof_C 	C 	0.498	0.831	0.28593	0.221
Mof_H 	H 	0.508	0.9014	0.29323	-0.055
Mof_H 	H 	0.5688	0.8241	0.28843	-0.053
Mof_C 	C 	0.2762	0.7313	0.28645	-0.55
Mof_H 	H 	0.2587	0.7787	0.29603	0.164
Mof_H 	H 	0.2053	0.6525	0.28493	0.161
Mof_C 	C 	0.3887	0.721	0.29393	-0.086
Mof_H 	H 	0.3908	0.7182	0.30903	0.036
Mof_H 	H 	0.3846	0.6488	0.28843	0.031
Mof_C 	C 	0.2588	0.7134	0.23747	-0.331
Mof_C 	C 	0.2946	0.6348	0.23104	0.078
Mof_H 	H 	0.3499	0.625	0.23893	-0.032
Mof_C 	C 	0.2491	0.5694	0.21281	-0.037
Mof_H 	H 	0.2729	0.5142	0.20923	0.01
Mof_C 	C 	0.1383	0.656	0.20641	-0.037
Mof_H 	H 	0.0856	0.6668	0.19803	0.013
Mof_C 	C 	0.175	0.7203	0.22472	0.073
Mof_H 	H 	0.1433	0.7686	0.22853	-0.027
Mof_C 	C 	0.8971	0.2349	0.17717	-0.031
Mof_H 	H 	0.9598	0.2287	0.18313	0.013
Mof_C 	C 	0.7825	0.133	0.17771	0.064
Mof_H 	H 	0.7699	0.0644	0.18473	-0.023
Mof_C 	C 	0.6874	0.1346	0.16765	-0.327
Mof_C 	C 	0.7166	0.2434	0.15872	0.07
Mof_H 	H 	0.6574	0.2513	0.15183	-0.025
Mof_C 	C 	0.8326	0.3418	0.1598	-0.031
Mof_H 	H 	0.8471	0.4137	0.15373	0.008
Mof_C 	C 	0.4347	0.9928	0.18843	-0.559
Mof_H 	H 	0.4199	0.9289	0.19813	0.17
Mof_H 	H 	0.4693	0.0685	0.19593	0.163
Mof_C 	C 	0.3204	0.9671	0.17727	0.036
Mof_H 	H 	0.2761	0.9948	0.18563	0.005
Mof_H 	H 	0.2699	0.8812	0.17513	-0.003
Mof_Ag	Ag	0.03016	0.68234	0.58849	0.507
Mof_Ag	Ag	0.37527	0.8839	0.50239	0.547
Mof_Si	Si	0.0213	0.1407	0.56992	0.902
Mof_Si	Si	0.5735	0.227	0.59073	0.904
Mof_Si	Si	0.4805	0.6728	0.59449	0.962
Mof_N 	N 	0.0169	0.4992	0.58217	-0.16
Mof_N 	N 	0.1067	0.026	0.63422	-0.173
Mof_N 	N 	0.2062	0.8602	0.58722	-0.165
Mof_N 	N 	0.7724	0.3227	0.52633	-0.164
Mof_N 	N 	0.8502	0.6809	0.5897	-0.155
Mof_N 	N 	0.4078	0.8272	0.53336	-0.162
Mof_N 	N 	0.4154	0.0767	0.50228	-0.166
Mof_C 	C 	0.0135	0.4288	0.59799	-0.056
Mof_H 	H 	0.009	0.4517	0.61157	0.016
Mof_C 	C 	0.0165	0.3245	0.59485	0.077
Mof_H 	H 	0.0162	0.2804	0.60637	-0.025
Mof_C 	C 	0.0198	0.2839	0.57571	-0.315
Mof_C 	C 	0.0206	0.3564	0.55882	0.043
Mof_H 	H 	0.0221	0.3335	0.54517	-0.018
Mof_C 	C 	0.019	0.4605	0.5631	-0.024
Mof_H 	H 	0.0195	0.5069	0.55197	0.006
Mof_C 	C 	0.8815	0.0238	0.55672	-0.598
Mof_H 	H 	0.8501	0.9459	0.56337	0.193
Mof_H 	H 	0.8197	0.0463	0.55657	0.182
Mof_C 	C 	0.9274	0.0238	0.53487	0.059
Mof_H 	H 	0.8823	0.9428	0.52937	0.001
Mof_H 	H 	0.9102	0.075	0.52617	-0.009
Mof_C 	C 	0.0497	0.0622	0.53317	0.001
Mof_H 	H 	0.076	0.0915	0.51917	0.01
Mof_H 	H 	0.0611	0.9937	0.53527	0.012
Mof_C 	C 	0.1277	0.1592	0.54829	-0.561
Mof_H 	H 	0.1614	0.2381	0.54197	0.171
Mof_H 	H 	0.1927	0.148	0.55327	0.168
Mof_C 	C 	0.0568	0.0884	0.59505	-0.349
Mof_C 	C 	0.17	0.1501	0.60444	0.094
Mof_H 	H 	0.2322	0.2159	0.59767	-0.041
Mof_C 	C 	0.1906	0.1163	0.62297	-0.057
Mof_H 	H 	0.2682	0.1584	0.62827	0.019
Mof_C 	C 	0.9988	0.9637	0.62561	-0.038
Mof_H 	H 	0.9389	0.8973	0.63257	0.015
Mof_C 	C 	0.9721	0.9959	0.60592	0.115
Mof_H 	H 	0.8946	0.9517	0.60057	-0.038
Mof_C 	C 	0.2497	0.9351	0.57079	-0.016
Mof_H 	H 	0.2032	0.9148	0.55877	0.008
Mof_C 	C 	0.3586	0.0393	0.57082	0.047
Mof_H 	H 	0.3855	0.0852	0.55877	-0.014
Mof_C 	C 	0.4283	0.0767	0.58832	-0.294
Mof_C 	C 	0.3831	0	0.60521	0.041
Mof_H 	H 	0.427	0.0203	0.61747	-0.028
Mof_C 	C 	0.2756	0.8955	0.6042	-0.019
Mof_H 	H 	0.2492	0.8464	0.61587	0
Mof_C 	C 	0.5424	0.3458	0.60095	-0.56
Mof_H 	H 	0.5858	0.4199	0.59307	0.174
Mof_H 	H 	0.4571	0.3189	0.60057	0.164
Mof_C 	C 	0.589	0.3621	0.62347	0.013
Mof_H 	H 	0.6061	0.4397	0.62887	0.01
Mof_H 	H 	0.529	0.2998	0.63237	0.001
Mof_C 	C 	0.7008	0.354	0.62317	0.069
Mof_H 	H 	0.7278	0.3549	0.63727	-0.012
Mof_H 	H 	0.7639	0.4226	0.61587	-0.012
Mof_C 	C 	0.6756	0.2386	0.61247	-0.595
Mof_H 	H 	0.6362	0.1702	0.62177	0.175
Mof_H 	H 	0.749	0.2441	0.60727	0.183
Mof_C 	C 	0.6485	0.2646	0.56473	-0.313
Mof_C 	C 	0.6961	0.376	0.55547	0.071
Mof_H 	H 	0.6879	0.4358	0.56207	-0.028
Mof_C 	C 	0.7561	0.4021	0.5365	-0.034
Mof_H 	H 	0.7857	0.4784	0.53087	0.008
Mof_C 	C 	0.7267	0.2118	0.53486	-0.039
Mof_H 	H 	0.7369	0.1541	0.52787	0.01
Mof_C 	C 	0.6663	0.1817	0.5533	0.067
Mof_H 	H 	0.6361	0.1042	0.55847	-0.025
Mof_C 	C 	0.7926	0.6833	0.57286	-0.038
Mof_H 	H 	0.8261	0.6848	0.55997	0.016
Mof_C 	C 	0.6851	0.6839	0.57338	0.058
Mof_H 	H 	0.6483	0.6858	0.56107	-0.019
Mof_C 	C 	0.6327	0.6819	0.59223	-0.317
Mof_C 	C 	0.6948	0.6815	0.61008	0.062
Mof_H 	H 	0.6651	0.6828	0.62317	-0.025
Mof_C 	C 	0.8002	0.6789	0.60801	-0.036
Mof_H 	H 	0.8387	0.6756	0.61997	0.014
Mof_C 	C 	0.3583	0.5128	0.59757	-0.718
Mof_H 	H 	0.2878	0.4965	0.58957	0.223
Mof_H 	H 	0.3854	0.4579	0.59327	0.211
Mof_C 	C 	0.333	0.502	0.61927	0.234
Mof_H 	H 	0.3934	0.492	0.62657	-0.062
Mof_H 	H 	0.2553	0.4312	0.62177	-0.06
Mof_C 	C 	0.4551	0.7238	0.61979	-0.565
Mof_H 	H 	0.52	0.7413	0.62937	0.17
Mof_H 	H 	0.4472	0.7947	0.61827	0.167
Mof_C 	C 	0.3323	0.6113	0.62727	-0.087
Mof_H 	H 	0.3274	0.6092	0.64237	0.035
Mof_H 	H 	0.2642	0.6154	0.62177	0.031
Mof_C 	C 	0.4546	0.7412	0.57081	-0.343
Mof_C 	C 	0.3402	0.7054	0.56438	0.086
Mof_H 	H 	0.2751	0.6501	0.57227	-0.035
Mof_C 	C 	0.3203	0.7509	0.54615	-0.039
Mof_H 	H 	0.2413	0.7271	0.54257	0.01
Mof_C 	C 	0.5177	0.8617	0.53975	-0.04
Mof_H 	H 	0.5812	0.9144	0.53137	0.018
Mof_C 	C 	0.5453	0.825	0.55806	0.083
Mof_H 	H 	0.6253	0.8567	0.56187	-0.029
Mof_C 	C 	0.3378	0.1029	0.51051	-0.032
Mof_H 	H 	0.2689	0.0402	0.51647	0.009
Mof_C 	C 	0.3505	0.2175	0.51105	0.069
Mof_H 	H 	0.2945	0.2301	0.51807	-0.022
Mof_C 	C 	0.4472	0.3126	0.50099	-0.337
Mof_C 	C 	0.5268	0.2834	0.49206	0.076
Mof_H 	H 	0.5939	0.3426	0.48517	-0.028
Mof_C 	C 	0.5092	0.1674	0.49314	-0.034
Mof_H 	H 	0.5666	0.1529	0.48707	0.007
Mof_C 	C 	0.5581	0.5653	0.52177	-0.606
Mof_H 	H 	0.509	0.5801	0.53147	0.183
Mof_H 	H 	0.5992	0.5307	0.52927	0.183
Mof_C 	C 	0.6467	0.6796	0.51061	0.049
Mof_H 	H 	0.7187	0.7239	0.51897	-0.001
Mof_H 	H 	0.6113	0.7301	0.50847	-0.007
Mof_Ag	Ag	0.87559	0.87559	-0	0.463
Mof_Ag	Ag	0.12441	0	0.66667	0.444
Mof_Ag	Ag	-6.7861e-18	0.12441	0.33333	0.444
Mof_Si	Si	0.5344	0	0.16667	0.919
Mof_Si	Si	-1.69683e-17	0.5344	0.83333	0.919
Mof_Si	Si	0.4656	0.4656	0.5	0.958
_end
