# CIF file generated by openbabel 3.1.0, see https://openbabel.org
data_I
_chemical_name_common 'image0'
_cell_length_a 9.0229
_cell_length_b 21.6107
_cell_length_c 24.0491
_cell_angle_alpha 90
_cell_angle_beta 90
_cell_angle_gamma 90
_space_group_name_H-M_alt 'P 1'
_space_group_name_Hall 'P 1'
loop_
    _symmetry_equiv_pos_as_xyz
    x,y,z
loop_
    _atom_site_label
    _atom_site_type_symbol
    _atom_site_fract_x
    _atom_site_fract_y
    _atom_site_fract_z
    _atom_site_occupancy
    C1       C        0.02620    0.18710    0.06980    1.000
    H1       H        0.95970    0.21010    0.04790    1.000
    N1       N        0.16790    0.19374    0.06053    1.000
    C2       C        0.96840    0.14820    0.11000    1.000
    H2       H        0.86560    0.14440    0.11530    1.000
    C3       C        0.06710    0.11512    0.14197    1.000
    C4       C        0.21300    0.12310    0.13350    1.000
    H3       H        0.28220    0.10160    0.15550    1.000
    C5       C        0.26010    0.16250    0.09310    1.000
    H4       H        0.36260    0.16790    0.08800    1.000
    O1       O        0.00400    0.07732    0.18059    1.000
    C6       C        0.10130    0.03983    0.21340    1.000
    H5       H        0.16600    0.06580    0.23640    1.000
    H6       H        0.16310    0.01370    0.18950    1.000
    C7       C        0.52620    0.68710    0.06980    1.000
    H7       H        0.45970    0.71010    0.04790    1.000
    N2       N        0.66790    0.69374    0.06053    1.000
    C8       C        0.46840    0.64820    0.11000    1.000
    H8       H        0.36560    0.64440    0.11530    1.000
    C9       C        0.56710    0.61512    0.14197    1.000
    C10      C        0.71300    0.62310    0.13350    1.000
    H9       H        0.78220    0.60160    0.15550    1.000
    C11      C        0.76010    0.66250    0.09310    1.000
    H10      H        0.86260    0.66790    0.08800    1.000
    O2       O        0.50400    0.57732    0.18059    1.000
    C12      C        0.60130    0.53983    0.21340    1.000
    H11      H        0.66600    0.56580    0.23640    1.000
    H12      H        0.66310    0.51370    0.18950    1.000
    C13      C        0.97380    0.81290    0.06980    1.000
    H13      H        0.04030    0.78990    0.04790    1.000
    N3       N        0.83210    0.80626    0.06053    1.000
    C14      C        0.03160    0.85180    0.11000    1.000
    H14      H        0.13440    0.85560    0.11530    1.000
    C15      C        0.93290    0.88488    0.14197    1.000
    C16      C        0.78700    0.87690    0.13350    1.000
    H15      H        0.71780    0.89840    0.15550    1.000
    C17      C        0.73990    0.83750    0.09310    1.000
    H16      H        0.63740    0.83210    0.08800    1.000
    O3       O        0.99600    0.92268    0.18059    1.000
    C18      C        0.89870    0.96017    0.21340    1.000
    H17      H        0.83400    0.93420    0.23640    1.000
    H18      H        0.83690    0.98630    0.18950    1.000
    C19      C        0.47380    0.31290    0.06980    1.000
    H19      H        0.54030    0.28990    0.04790    1.000
    N4       N        0.33210    0.30626    0.06053    1.000
    C20      C        0.53160    0.35180    0.11000    1.000
    H20      H        0.63440    0.35560    0.11530    1.000
    C21      C        0.43290    0.38488    0.14197    1.000
    C22      C        0.28700    0.37690    0.13350    1.000
    H21      H        0.21780    0.39840    0.15550    1.000
    C23      C        0.23990    0.33750    0.09310    1.000
    H22      H        0.13740    0.33210    0.08800    1.000
    O4       O        0.49600    0.42268    0.18059    1.000
    C24      C        0.39870    0.46017    0.21340    1.000
    H23      H        0.33400    0.43420    0.23640    1.000
    H24      H        0.33690    0.48630    0.18950    1.000
    C25      C        0.97380    0.18710    0.43020    1.000
    H25      H        0.04030    0.21010    0.45210    1.000
    N5       N        0.83210    0.19374    0.43947    1.000
    C26      C        0.03160    0.14820    0.39000    1.000
    H26      H        0.13440    0.14440    0.38470    1.000
    C27      C        0.93290    0.11512    0.35803    1.000
    C28      C        0.78700    0.12310    0.36650    1.000
    H27      H        0.71780    0.10160    0.34450    1.000
    C29      C        0.73990    0.16250    0.40690    1.000
    H28      H        0.63740    0.16790    0.41200    1.000
    O5       O        0.99600    0.07732    0.31941    1.000
    C30      C        0.89870    0.03983    0.28660    1.000
    H29      H        0.83400    0.06580    0.26360    1.000
    H30      H        0.83690    0.01370    0.31050    1.000
    C31      C        0.47380    0.68710    0.43020    1.000
    H31      H        0.54030    0.71010    0.45210    1.000
    N6       N        0.33210    0.69374    0.43947    1.000
    C32      C        0.53160    0.64820    0.39000    1.000
    H32      H        0.63440    0.64440    0.38470    1.000
    C33      C        0.43290    0.61512    0.35803    1.000
    C34      C        0.28700    0.62310    0.36650    1.000
    H33      H        0.21780    0.60160    0.34450    1.000
    C35      C        0.23990    0.66250    0.40690    1.000
    H34      H        0.13740    0.66790    0.41200    1.000
    O6       O        0.49600    0.57732    0.31941    1.000
    C36      C        0.39870    0.53983    0.28660    1.000
    H35      H        0.33400    0.56580    0.26360    1.000
    H36      H        0.33690    0.51370    0.31050    1.000
    C37      C        0.02620    0.81290    0.43020    1.000
    H37      H        0.95970    0.78990    0.45210    1.000
    N7       N        0.16790    0.80626    0.43947    1.000
    C38      C        0.96840    0.85180    0.39000    1.000
    H38      H        0.86560    0.85560    0.38470    1.000
    C39      C        0.06710    0.88488    0.35803    1.000
    C40      C        0.21300    0.87690    0.36650    1.000
    H39      H        0.28220    0.89840    0.34450    1.000
    C41      C        0.26010    0.83750    0.40690    1.000
    H40      H        0.36260    0.83210    0.41200    1.000
    O7       O        0.00400    0.92268    0.31941    1.000
    C42      C        0.10130    0.96017    0.28660    1.000
    H41      H        0.16600    0.93420    0.26360    1.000
    H42      H        0.16310    0.98630    0.31050    1.000
    C43      C        0.52620    0.31290    0.43020    1.000
    H43      H        0.45970    0.28990    0.45210    1.000
    N8       N        0.66790    0.30626    0.43947    1.000
    C44      C        0.46840    0.35180    0.39000    1.000
    H44      H        0.36560    0.35560    0.38470    1.000
    C45      C        0.56710    0.38488    0.35803    1.000
    C46      C        0.71300    0.37690    0.36650    1.000
    H45      H        0.78220    0.39840    0.34450    1.000
    C47      C        0.76010    0.33750    0.40690    1.000
    H46      H        0.86260    0.33210    0.41200    1.000
    O8       O        0.50400    0.42268    0.31941    1.000
    C48      C        0.60130    0.46017    0.28660    1.000
    H47      H        0.66600    0.43420    0.26360    1.000
    H48      H        0.66310    0.48630    0.31050    1.000
    C49      C        0.97380    0.81290    0.93020    1.000
    H49      H        0.04030    0.78990    0.95210    1.000
    N9       N        0.83210    0.80626    0.93947    1.000
    C50      C        0.03160    0.85180    0.89000    1.000
    H50      H        0.13440    0.85560    0.88470    1.000
    C51      C        0.93290    0.88488    0.85803    1.000
    C52      C        0.78700    0.87690    0.86650    1.000
    H51      H        0.71780    0.89840    0.84450    1.000
    C53      C        0.73990    0.83750    0.90690    1.000
    H52      H        0.63740    0.83210    0.91200    1.000
    O9       O        0.99600    0.92268    0.81941    1.000
    C54      C        0.89870    0.96017    0.78660    1.000
    H53      H        0.83400    0.93420    0.76360    1.000
    H54      H        0.83690    0.98630    0.81050    1.000
    C55      C        0.47380    0.31290    0.93020    1.000
    H55      H        0.54030    0.28990    0.95210    1.000
    N10      N        0.33210    0.30626    0.93947    1.000
    C56      C        0.53160    0.35180    0.89000    1.000
    H56      H        0.63440    0.35560    0.88470    1.000
    C57      C        0.43290    0.38488    0.85803    1.000
    C58      C        0.28700    0.37690    0.86650    1.000
    H57      H        0.21780    0.39840    0.84450    1.000
    C59      C        0.23990    0.33750    0.90690    1.000
    H58      H        0.13740    0.33210    0.91200    1.000
    O10      O        0.49600    0.42268    0.81941    1.000
    C60      C        0.39870    0.46017    0.78660    1.000
    H59      H        0.33400    0.43420    0.76360    1.000
    H60      H        0.33690    0.48630    0.81050    1.000
    C61      C        0.02620    0.18710    0.93020    1.000
    H61      H        0.95970    0.21010    0.95210    1.000
    N11      N        0.16790    0.19374    0.93947    1.000
    C62      C        0.96840    0.14820    0.89000    1.000
    H62      H        0.86560    0.14440    0.88470    1.000
    C63      C        0.06710    0.11512    0.85803    1.000
    C64      C        0.21300    0.12310    0.86650    1.000
    H63      H        0.28220    0.10160    0.84450    1.000
    C65      C        0.26010    0.16250    0.90690    1.000
    H64      H        0.36260    0.16790    0.91200    1.000
    O11      O        0.00400    0.07732    0.81941    1.000
    C66      C        0.10130    0.03983    0.78660    1.000
    H65      H        0.16600    0.06580    0.76360    1.000
    H66      H        0.16310    0.01370    0.81050    1.000
    C67      C        0.52620    0.68710    0.93020    1.000
    H67      H        0.45970    0.71010    0.95210    1.000
    N12      N        0.66790    0.69374    0.93947    1.000
    C68      C        0.46840    0.64820    0.89000    1.000
    H68      H        0.36560    0.64440    0.88470    1.000
    C69      C        0.56710    0.61512    0.85803    1.000
    C70      C        0.71300    0.62310    0.86650    1.000
    H69      H        0.78220    0.60160    0.84450    1.000
    C71      C        0.76010    0.66250    0.90690    1.000
    H70      H        0.86260    0.66790    0.91200    1.000
    O12      O        0.50400    0.57732    0.81941    1.000
    C72      C        0.60130    0.53983    0.78660    1.000
    H71      H        0.66600    0.56580    0.76360    1.000
    H72      H        0.66310    0.51370    0.81050    1.000
    C73      C        0.02620    0.81290    0.56980    1.000
    H73      H        0.95970    0.78990    0.54790    1.000
    N13      N        0.16790    0.80626    0.56053    1.000
    C74      C        0.96840    0.85180    0.61000    1.000
    H74      H        0.86560    0.85560    0.61530    1.000
    C75      C        0.06710    0.88488    0.64197    1.000
    C76      C        0.21300    0.87690    0.63350    1.000
    H75      H        0.28220    0.89840    0.65550    1.000
    C77      C        0.26010    0.83750    0.59310    1.000
    H76      H        0.36260    0.83210    0.58800    1.000
    O13      O        0.00400    0.92268    0.68059    1.000
    C78      C        0.10130    0.96017    0.71340    1.000
    H77      H        0.16600    0.93420    0.73640    1.000
    H78      H        0.16310    0.98630    0.68950    1.000
    C79      C        0.52620    0.31290    0.56980    1.000
    H79      H        0.45970    0.28990    0.54790    1.000
    N14      N        0.66790    0.30626    0.56053    1.000
    C80      C        0.46840    0.35180    0.61000    1.000
    H80      H        0.36560    0.35560    0.61530    1.000
    C81      C        0.56710    0.38488    0.64197    1.000
    C82      C        0.71300    0.37690    0.63350    1.000
    H81      H        0.78220    0.39840    0.65550    1.000
    C83      C        0.76010    0.33750    0.59310    1.000
    H82      H        0.86260    0.33210    0.58800    1.000
    O14      O        0.50400    0.42268    0.68059    1.000
    C84      C        0.60130    0.46017    0.71340    1.000
    H83      H        0.66600    0.43420    0.73640    1.000
    H84      H        0.66310    0.48630    0.68950    1.000
    C85      C        0.97380    0.18710    0.56980    1.000
    H85      H        0.04030    0.21010    0.54790    1.000
    N15      N        0.83210    0.19374    0.56053    1.000
    C86      C        0.03160    0.14820    0.61000    1.000
    H86      H        0.13440    0.14440    0.61530    1.000
    C87      C        0.93290    0.11512    0.64197    1.000
    C88      C        0.78700    0.12310    0.63350    1.000
    H87      H        0.71780    0.10160    0.65550    1.000
    C89      C        0.73990    0.16250    0.59310    1.000
    H88      H        0.63740    0.16790    0.58800    1.000
    O15      O        0.99600    0.07732    0.68059    1.000
    C90      C        0.89870    0.03983    0.71340    1.000
    H89      H        0.83400    0.06580    0.73640    1.000
    H90      H        0.83690    0.01370    0.68950    1.000
    C91      C        0.47380    0.68710    0.56980    1.000
    H91      H        0.54030    0.71010    0.54790    1.000
    N16      N        0.33210    0.69374    0.56053    1.000
    C92      C        0.53160    0.64820    0.61000    1.000
    H92      H        0.63440    0.64440    0.61530    1.000
    C93      C        0.43290    0.61512    0.64197    1.000
    C94      C        0.28700    0.62310    0.63350    1.000
    H93      H        0.21780    0.60160    0.65550    1.000
    C95      C        0.23990    0.66250    0.59310    1.000
    H94      H        0.13740    0.66790    0.58800    1.000
    O16      O        0.49600    0.57732    0.68059    1.000
    C96      C        0.39870    0.53983    0.71340    1.000
    H95      H        0.33400    0.56580    0.73640    1.000
    H96      H        0.33690    0.51370    0.68950    1.000
    Cu1      Cu       0.25000    0.25000    0.00000    1.000
    Cu2      Cu       0.75000    0.75000    0.00000    1.000
    Cu3      Cu       0.75000    0.25000    0.50000    1.000
    Cu4      Cu       0.25000    0.75000    0.50000    1.000
    C97      C        0.00000    0.00000    0.25000    1.000
    C98      C        0.50000    0.50000    0.25000    1.000
    C99      C        0.00000    0.00000    0.75000    1.000
    C100     C        0.50000    0.50000    0.75000    1.000
    H97      H        0.02380    0.48900    0.23600    1.000
    H98      H        0.90540    0.46410    0.27800    1.000
    O17      O        0.95600    0.53050    0.33460    1.000
    H99      H        0.96600    0.54550    0.29590    1.000
    H100     H        0.05280    0.53940    0.35210    1.000
    O18      O        0.18300    0.52200    0.86920    1.000
    H101     H        0.20310    0.55420    0.89750    1.000
    H102     H        0.19150    0.48240    0.88970    1.000
    O19      O        0.05300    0.50290    0.45540    1.000
    H103     H        0.02130    0.47860    0.48820    1.000
    H104     H        0.01540    0.47930    0.42310    1.000
    O20      O        0.08000    0.53660    0.06380    1.000
    H105     H        0.08110    0.51430    0.09980    1.000
    H106     H        0.16700    0.52010    0.03980    1.000
    O21      O        0.91400    0.62110    0.28040    1.000
    H107     H        0.87400    0.60440    0.31580    1.000
    H108     H        0.98660    0.58980    0.26800    1.000
    H109     H        0.97620    0.51100    0.23600    1.000
    H110     H        0.09460    0.53590    0.27800    1.000
    O22      O        0.04400    0.46950    0.33460    1.000
    H111     H        0.03400    0.45450    0.29590    1.000
    H112     H        0.94720    0.46060    0.35210    1.000
    O23      O        0.81700    0.47800    0.86920    1.000
    H113     H        0.79690    0.44580    0.89750    1.000
    H114     H        0.80850    0.51760    0.88970    1.000
    O24      O        0.94700    0.49710    0.45540    1.000
    H115     H        0.97870    0.52140    0.48820    1.000
    H116     H        0.98460    0.52070    0.42310    1.000
    O25      O        0.92000    0.46340    0.06380    1.000
    H117     H        0.91890    0.48570    0.09980    1.000
    H118     H        0.83300    0.47990    0.03980    1.000
    O26      O        0.08600    0.37890    0.28040    1.000
    H119     H        0.12600    0.39560    0.31580    1.000
    H120     H        0.01340    0.41020    0.26800    1.000
    H121     H        0.97620    0.48900    0.26400    1.000
    H122     H        0.09460    0.46410    0.22200    1.000
    O27      O        0.04400    0.53050    0.16540    1.000
    H123     H        0.03400    0.54550    0.20410    1.000
    H124     H        0.94720    0.53940    0.14790    1.000
    O28      O        0.81700    0.52200    0.63080    1.000
    H125     H        0.79690    0.55420    0.60250    1.000
    H126     H        0.80850    0.48240    0.61030    1.000
    O29      O        0.94700    0.50290    0.04460    1.000
    H127     H        0.97870    0.47860    0.01180    1.000
    H128     H        0.98460    0.47930    0.07690    1.000
    O30      O        0.92000    0.53660    0.43620    1.000
    H129     H        0.91890    0.51430    0.40020    1.000
    H130     H        0.83300    0.52010    0.46020    1.000
    O31      O        0.08600    0.62110    0.21960    1.000
    H131     H        0.12600    0.60440    0.18420    1.000
    H132     H        0.01340    0.58980    0.23200    1.000
    H133     H        0.02380    0.51100    0.26400    1.000
    H134     H        0.90540    0.53590    0.22200    1.000
    O32      O        0.95600    0.46950    0.16540    1.000
    H135     H        0.96600    0.45450    0.20410    1.000
    H136     H        0.05280    0.46060    0.14790    1.000
    O33      O        0.18300    0.47800    0.63080    1.000
    H137     H        0.20310    0.44580    0.60250    1.000
    H138     H        0.19150    0.51760    0.61030    1.000
    O34      O        0.05300    0.49710    0.04460    1.000
    H139     H        0.02130    0.52140    0.01180    1.000
    H140     H        0.01540    0.52070    0.07690    1.000
    O35      O        0.08000    0.46340    0.43620    1.000
    H141     H        0.08110    0.48570    0.40020    1.000
    H142     H        0.16700    0.47990    0.46020    1.000
    O36      O        0.91400    0.37890    0.21960    1.000
    H143     H        0.87400    0.39560    0.18420    1.000
    H144     H        0.98660    0.41020    0.23200    1.000
    H145     H        0.97620    0.51100    0.76400    1.000
    H146     H        0.09460    0.53590    0.72200    1.000
    O37      O        0.04400    0.46950    0.66540    1.000
    H147     H        0.03400    0.45450    0.70410    1.000
    H148     H        0.94720    0.46060    0.64790    1.000
    O38      O        0.81700    0.47800    0.13080    1.000
    H149     H        0.79690    0.44580    0.10250    1.000
    H150     H        0.80850    0.51760    0.11030    1.000
    O39      O        0.94700    0.49710    0.54460    1.000
    H151     H        0.97870    0.52140    0.51180    1.000
    H152     H        0.98460    0.52070    0.57690    1.000
    O40      O        0.92000    0.46340    0.93620    1.000
    H153     H        0.91890    0.48570    0.90020    1.000
    H154     H        0.83300    0.47990    0.96020    1.000
    O41      O        0.08600    0.37890    0.71960    1.000
    H155     H        0.12600    0.39560    0.68420    1.000
    H156     H        0.01340    0.41020    0.73200    1.000
    H157     H        0.02380    0.48900    0.76400    1.000
    H158     H        0.90540    0.46410    0.72200    1.000
    O42      O        0.95600    0.53050    0.66540    1.000
    H159     H        0.96600    0.54550    0.70410    1.000
    H160     H        0.05280    0.53940    0.64790    1.000
    O43      O        0.18300    0.52200    0.13080    1.000
    H161     H        0.20310    0.55420    0.10250    1.000
    H162     H        0.19150    0.48240    0.11030    1.000
    O44      O        0.05300    0.50290    0.54460    1.000
    H163     H        0.02130    0.47860    0.51180    1.000
    H164     H        0.01540    0.47930    0.57690    1.000
    O45      O        0.08000    0.53660    0.93620    1.000
    H165     H        0.08110    0.51430    0.90020    1.000
    H166     H        0.16700    0.52010    0.96020    1.000
    O46      O        0.91400    0.62110    0.71960    1.000
    H167     H        0.87400    0.60440    0.68420    1.000
    H168     H        0.98660    0.58980    0.73200    1.000
    H169     H        0.02380    0.51100    0.73600    1.000
    H170     H        0.90540    0.53590    0.77800    1.000
    O47      O        0.95600    0.46950    0.83460    1.000
    H171     H        0.96600    0.45450    0.79590    1.000
    H172     H        0.05280    0.46060    0.85210    1.000
    O48      O        0.18300    0.47800    0.36920    1.000
    H173     H        0.20310    0.44580    0.39750    1.000
    H174     H        0.19150    0.51760    0.38970    1.000
    O49      O        0.05300    0.49710    0.95540    1.000
    H175     H        0.02130    0.52140    0.98820    1.000
    H176     H        0.01540    0.52070    0.92310    1.000
    O50      O        0.08000    0.46340    0.56380    1.000
    H177     H        0.08110    0.48570    0.59980    1.000
    H178     H        0.16700    0.47990    0.53980    1.000
    O51      O        0.91400    0.37890    0.78040    1.000
    H179     H        0.87400    0.39560    0.81580    1.000
    H180     H        0.98660    0.41020    0.76800    1.000
    H181     H        0.97620    0.48900    0.73600    1.000
    H182     H        0.09460    0.46410    0.77800    1.000
    O52      O        0.04400    0.53050    0.83460    1.000
    H183     H        0.03400    0.54550    0.79590    1.000
    H184     H        0.94720    0.53940    0.85210    1.000
    O53      O        0.81700    0.52200    0.36920    1.000
    H185     H        0.79690    0.55420    0.39750    1.000
    H186     H        0.80850    0.48240    0.38970    1.000
    O54      O        0.94700    0.50290    0.95540    1.000
    H187     H        0.97870    0.47860    0.98820    1.000
    H188     H        0.98460    0.47930    0.92310    1.000
    O55      O        0.92000    0.53660    0.56380    1.000
    H189     H        0.91890    0.51430    0.59980    1.000
    H190     H        0.83300    0.52010    0.53980    1.000
    O56      O        0.08600    0.62110    0.78040    1.000
    H191     H        0.12600    0.60440    0.81580    1.000
    H192     H        0.01340    0.58980    0.76800    1.000
    O57      O        0.00000    0.45130    0.25000    1.000
    O58      O        0.00000    0.54870    0.25000    1.000
    O59      O        0.00000    0.54870    0.75000    1.000
    O60      O        0.00000    0.45130    0.75000    1.000
    O61      O        0.68300    0.02200    0.86920    1.000
    H193     H        0.70310    0.05420    0.89750    1.000
    H194     H        0.69150    0.98240    0.88970    1.000
    O62      O        0.55300    0.00290    0.45540    1.000
    H195     H        0.52130    0.97860    0.48820    1.000
    H196     H        0.51540    0.97930    0.42310    1.000
    O63      O        0.58000    0.03660    0.06380    1.000
    H197     H        0.58110    0.01430    0.09980    1.000
    H198     H        0.66700    0.02010    0.03980    1.000
    O64      O        0.41400    0.12110    0.28040    1.000
    H199     H        0.37400    0.10440    0.31580    1.000
    H200     H        0.48660    0.08980    0.26800    1.000
    H201     H        0.52380    0.98900    0.23600    1.000
    H202     H        0.40540    0.96410    0.27800    1.000
    O65      O        0.45600    0.03050    0.33460    1.000
    H203     H        0.46600    0.04550    0.29590    1.000
    H204     H        0.55280    0.03940    0.35210    1.000
    O66      O        0.31700    0.97800    0.86920    1.000
    H205     H        0.29690    0.94580    0.89750    1.000
    H206     H        0.30850    0.01760    0.88970    1.000
    O67      O        0.44700    0.99710    0.45540    1.000
    H207     H        0.47870    0.02140    0.48820    1.000
    H208     H        0.48460    0.02070    0.42310    1.000
    O68      O        0.42000    0.96340    0.06380    1.000
    H209     H        0.41890    0.98570    0.09980    1.000
    H210     H        0.33300    0.97990    0.03980    1.000
    O69      O        0.58600    0.87890    0.28040    1.000
    H211     H        0.62600    0.89560    0.31580    1.000
    H212     H        0.51340    0.91020    0.26800    1.000
    H213     H        0.47620    0.01100    0.23600    1.000
    H214     H        0.59460    0.03590    0.27800    1.000
    O70      O        0.54400    0.96950    0.33460    1.000
    H215     H        0.53400    0.95450    0.29590    1.000
    H216     H        0.44720    0.96060    0.35210    1.000
    O71      O        0.31700    0.02200    0.63080    1.000
    H217     H        0.29690    0.05420    0.60250    1.000
    H218     H        0.30850    0.98240    0.61030    1.000
    O72      O        0.44700    0.00290    0.04460    1.000
    H219     H        0.47870    0.97860    0.01180    1.000
    H220     H        0.48460    0.97930    0.07690    1.000
    O73      O        0.42000    0.03660    0.43620    1.000
    H221     H        0.41890    0.01430    0.40020    1.000
    H222     H        0.33300    0.02010    0.46020    1.000
    O74      O        0.58600    0.12110    0.21960    1.000
    H223     H        0.62600    0.10440    0.18420    1.000
    H224     H        0.51340    0.08980    0.23200    1.000
    H225     H        0.47620    0.98900    0.26400    1.000
    H226     H        0.59460    0.96410    0.22200    1.000
    O75      O        0.54400    0.03050    0.16540    1.000
    H227     H        0.53400    0.04550    0.20410    1.000
    H228     H        0.44720    0.03940    0.14790    1.000
    O76      O        0.68300    0.97800    0.63080    1.000
    H229     H        0.70310    0.94580    0.60250    1.000
    H230     H        0.69150    0.01760    0.61030    1.000
    O77      O        0.55300    0.99710    0.04460    1.000
    H231     H        0.52130    0.02140    0.01180    1.000
    H232     H        0.51540    0.02070    0.07690    1.000
    O78      O        0.58000    0.96340    0.43620    1.000
    H233     H        0.58110    0.98570    0.40020    1.000
    H234     H        0.66700    0.97990    0.46020    1.000
    O79      O        0.41400    0.87890    0.21960    1.000
    H235     H        0.37400    0.89560    0.18420    1.000
    H236     H        0.48660    0.91020    0.23200    1.000
    H237     H        0.52380    0.01100    0.26400    1.000
    H238     H        0.40540    0.03590    0.22200    1.000
    O80      O        0.45600    0.96950    0.16540    1.000
    H239     H        0.46600    0.95450    0.20410    1.000
    H240     H        0.55280    0.96060    0.14790    1.000
    O81      O        0.31700    0.97800    0.13080    1.000
    H241     H        0.29690    0.94580    0.10250    1.000
    H242     H        0.30850    0.01760    0.11030    1.000
    O82      O        0.44700    0.99710    0.54460    1.000
    H243     H        0.47870    0.02140    0.51180    1.000
    H244     H        0.48460    0.02070    0.57690    1.000
    O83      O        0.42000    0.96340    0.93620    1.000
    H245     H        0.41890    0.98570    0.90020    1.000
    H246     H        0.33300    0.97990    0.96020    1.000
    O84      O        0.58600    0.87890    0.71960    1.000
    H247     H        0.62600    0.89560    0.68420    1.000
    H248     H        0.51340    0.91020    0.73200    1.000
    H249     H        0.47620    0.01100    0.76400    1.000
    H250     H        0.59460    0.03590    0.72200    1.000
    O85      O        0.54400    0.96950    0.66540    1.000
    H251     H        0.53400    0.95450    0.70410    1.000
    H252     H        0.44720    0.96060    0.64790    1.000
    O86      O        0.68300    0.02200    0.13080    1.000
    H253     H        0.70310    0.05420    0.10250    1.000
    H254     H        0.69150    0.98240    0.11030    1.000
    O87      O        0.55300    0.00290    0.54460    1.000
    H255     H        0.52130    0.97860    0.51180    1.000
    H256     H        0.51540    0.97930    0.57690    1.000
    O88      O        0.58000    0.03660    0.93620    1.000
    H257     H        0.58110    0.01430    0.90020    1.000
    H258     H        0.66700    0.02010    0.96020    1.000
    O89      O        0.41400    0.12110    0.71960    1.000
    H259     H        0.37400    0.10440    0.68420    1.000
    H260     H        0.48660    0.08980    0.73200    1.000
    H261     H        0.52380    0.98900    0.76400    1.000
    H262     H        0.40540    0.96410    0.72200    1.000
    O90      O        0.45600    0.03050    0.66540    1.000
    H263     H        0.46600    0.04550    0.70410    1.000
    H264     H        0.55280    0.03940    0.64790    1.000
    O91      O        0.68300    0.97800    0.36920    1.000
    H265     H        0.70310    0.94580    0.39750    1.000
    H266     H        0.69150    0.01760    0.38970    1.000
    O92      O        0.55300    0.99710    0.95540    1.000
    H267     H        0.52130    0.02140    0.98820    1.000
    H268     H        0.51540    0.02070    0.92310    1.000
    O93      O        0.58000    0.96340    0.56380    1.000
    H269     H        0.58110    0.98570    0.59980    1.000
    H270     H        0.66700    0.97990    0.53980    1.000
    O94      O        0.41400    0.87890    0.78040    1.000
    H271     H        0.37400    0.89560    0.81580    1.000
    H272     H        0.48660    0.91020    0.76800    1.000
    H273     H        0.52380    0.01100    0.73600    1.000
    H274     H        0.40540    0.03590    0.77800    1.000
    O95      O        0.45600    0.96950    0.83460    1.000
    H275     H        0.46600    0.95450    0.79590    1.000
    H276     H        0.55280    0.96060    0.85210    1.000
    O96      O        0.31700    0.02200    0.36920    1.000
    H277     H        0.29690    0.05420    0.39750    1.000
    H278     H        0.30850    0.98240    0.38970    1.000
    O97      O        0.44700    0.00290    0.95540    1.000
    H279     H        0.47870    0.97860    0.98820    1.000
    H280     H        0.48460    0.97930    0.92310    1.000
    O98      O        0.42000    0.03660    0.56380    1.000
    H281     H        0.41890    0.01430    0.59980    1.000
    H282     H        0.33300    0.02010    0.53980    1.000
    O99      O        0.58600    0.12110    0.78040    1.000
    H283     H        0.62600    0.10440    0.81580    1.000
    H284     H        0.51340    0.08980    0.76800    1.000
    H285     H        0.47620    0.98900    0.73600    1.000
    H286     H        0.59460    0.96410    0.77800    1.000
    O100     O        0.54400    0.03050    0.83460    1.000
    H287     H        0.53400    0.04550    0.79590    1.000
    H288     H        0.44720    0.03940    0.85210    1.000
    O101     O        0.50000    0.95130    0.25000    1.000
    O102     O        0.50000    0.04870    0.25000    1.000
    O103     O        0.50000    0.04870    0.75000    1.000
    O104     O        0.50000    0.95130    0.75000    1.000
