# CIF file generated by openbabel 3.1.0, see https://openbabel.org
data_I
_chemical_name_common 'image0'
_cell_length_a 15.6403
_cell_length_b 10.2112
_cell_length_c 18.6795
_cell_angle_alpha 90
_cell_angle_beta 105.484
_cell_angle_gamma 90
_space_group_name_H-M_alt 'P 1'
_space_group_name_Hall 'P 1'
loop_
    _symmetry_equiv_pos_as_xyz
    x,y,z
loop_
    _atom_site_label
    _atom_site_type_symbol
    _atom_site_fract_x
    _atom_site_fract_y
    _atom_site_fract_z
    _atom_site_occupancy
    V1       V        0.16504    0.38063    0.08450    1.000
    V2       V        0.24827    0.45311    0.28748    1.000
    P1       P        0.20739    0.37992    0.92125    1.000
    P2       P        0.83587    0.33230    0.83719    1.000
    O1       O        0.20740    0.42730    0.99893    1.000
    O2       O        0.28866    0.29860    0.92129    1.000
    O3       O        0.82840    0.42880    0.89797    1.000
    O4       O        0.21170    0.35710    0.19244    1.000
    O5       O        0.82420    0.39850    0.76186    1.000
    O6       O        0.76885    0.22230    0.83434    1.000
    O7       O        0.20363    0.50340    0.87359    1.000
    C1       C        0.11000    0.28240    0.88530    1.000
    H1       H        0.11360    0.24270    0.83780    1.000
    H2       H        0.10990    0.21010    0.92050    1.000
    C2       C        0.94470    0.26120    0.86150    1.000
    H3       H        0.94820    0.19770    0.82240    1.000
    H4       H        0.95240    0.21150    0.90830    1.000
    C3       C        0.02180    0.35690    0.87160    1.000
    H5       H        0.01310    0.41200    0.82670    1.000
    H6       H        0.02340    0.41510    0.91440    1.000
    H7       H        0.21700    0.29000    0.19600    1.000
    V3       V        0.66504    0.88063    0.08450    1.000
    V4       V        0.74827    0.95311    0.28748    1.000
    P3       P        0.70739    0.87992    0.92125    1.000
    P4       P        0.33587    0.83230    0.83719    1.000
    O8       O        0.70740    0.92730    0.99893    1.000
    O9       O        0.78866    0.79860    0.92129    1.000
    O10      O        0.32840    0.92880    0.89797    1.000
    O11      O        0.71170    0.85710    0.19244    1.000
    O12      O        0.32420    0.89850    0.76186    1.000
    O13      O        0.26885    0.72230    0.83434    1.000
    O14      O        0.70363    0.00340    0.87359    1.000
    C4       C        0.61000    0.78240    0.88530    1.000
    H8       H        0.61360    0.74270    0.83780    1.000
    H9       H        0.60990    0.71010    0.92050    1.000
    C5       C        0.44470    0.76120    0.86150    1.000
    H10      H        0.44820    0.69770    0.82240    1.000
    H11      H        0.45240    0.71150    0.90830    1.000
    C6       C        0.52180    0.85690    0.87160    1.000
    H12      H        0.51310    0.91200    0.82670    1.000
    H13      H        0.52340    0.91510    0.91440    1.000
    H14      H        0.71700    0.79000    0.19600    1.000
    V5       V        0.83496    0.38063    0.41550    1.000
    V6       V        0.75173    0.45311    0.21252    1.000
    P5       P        0.79261    0.37992    0.57875    1.000
    P6       P        0.16413    0.33230    0.66281    1.000
    O15      O        0.79260    0.42730    0.50107    1.000
    O16      O        0.71134    0.29860    0.57871    1.000
    O17      O        0.17160    0.42880    0.60203    1.000
    O18      O        0.78830    0.35710    0.30756    1.000
    O19      O        0.17580    0.39850    0.73814    1.000
    O20      O        0.23115    0.22230    0.66566    1.000
    O21      O        0.79637    0.50340    0.62641    1.000
    C7       C        0.89000    0.28240    0.61470    1.000
    H15      H        0.88640    0.24270    0.66220    1.000
    H16      H        0.89010    0.21010    0.57950    1.000
    C8       C        0.05530    0.26120    0.63850    1.000
    H17      H        0.05180    0.19770    0.67760    1.000
    H18      H        0.04760    0.21150    0.59170    1.000
    C9       C        0.97820    0.35690    0.62840    1.000
    H19      H        0.98690    0.41200    0.67330    1.000
    H20      H        0.97660    0.41510    0.58560    1.000
    H21      H        0.78300    0.29000    0.30400    1.000
    V7       V        0.33496    0.88063    0.41550    1.000
    V8       V        0.25173    0.95311    0.21252    1.000
    P7       P        0.29261    0.87992    0.57875    1.000
    P8       P        0.66413    0.83230    0.66281    1.000
    O22      O        0.29260    0.92730    0.50107    1.000
    O23      O        0.21134    0.79860    0.57871    1.000
    O24      O        0.67160    0.92880    0.60203    1.000
    O25      O        0.28830    0.85710    0.30756    1.000
    O26      O        0.67580    0.89850    0.73814    1.000
    O27      O        0.73115    0.72230    0.66566    1.000
    O28      O        0.29637    0.00340    0.62641    1.000
    C10      C        0.39000    0.78240    0.61470    1.000
    H22      H        0.38640    0.74270    0.66220    1.000
    H23      H        0.39010    0.71010    0.57950    1.000
    C11      C        0.55530    0.76120    0.63850    1.000
    H24      H        0.55180    0.69770    0.67760    1.000
    H25      H        0.54760    0.71150    0.59170    1.000
    C12      C        0.47820    0.85690    0.62840    1.000
    H26      H        0.48690    0.91200    0.67330    1.000
    H27      H        0.47660    0.91510    0.58560    1.000
    H28      H        0.28300    0.79000    0.30400    1.000
    V9       V        0.83496    0.61937    0.91550    1.000
    V10      V        0.75173    0.54689    0.71252    1.000
    P9       P        0.79261    0.62008    0.07875    1.000
    P10      P        0.16413    0.66770    0.16281    1.000
    O29      O        0.79260    0.57270    0.00107    1.000
    O30      O        0.71134    0.70140    0.07871    1.000
    O31      O        0.17160    0.57120    0.10203    1.000
    O32      O        0.78830    0.64290    0.80756    1.000
    O33      O        0.17580    0.60150    0.23814    1.000
    O34      O        0.23115    0.77770    0.16566    1.000
    O35      O        0.79637    0.49660    0.12641    1.000
    C13      C        0.89000    0.71760    0.11470    1.000
    H29      H        0.88640    0.75730    0.16220    1.000
    H30      H        0.89010    0.78990    0.07950    1.000
    C14      C        0.05530    0.73880    0.13850    1.000
    H31      H        0.05180    0.80230    0.17760    1.000
    H32      H        0.04760    0.78850    0.09170    1.000
    C15      C        0.97820    0.64310    0.12840    1.000
    H33      H        0.98690    0.58800    0.17330    1.000
    H34      H        0.97660    0.58490    0.08560    1.000
    H35      H        0.78300    0.71000    0.80400    1.000
    V11      V        0.33496    0.11937    0.91550    1.000
    V12      V        0.25173    0.04689    0.71252    1.000
    P11      P        0.29261    0.12008    0.07875    1.000
    P12      P        0.66413    0.16770    0.16281    1.000
    O36      O        0.29260    0.07270    0.00107    1.000
    O37      O        0.21134    0.20140    0.07871    1.000
    O38      O        0.67160    0.07120    0.10203    1.000
    O39      O        0.28830    0.14290    0.80756    1.000
    O40      O        0.67580    0.10150    0.23814    1.000
    O41      O        0.73115    0.27770    0.16566    1.000
    O42      O        0.29637    0.99660    0.12641    1.000
    C16      C        0.39000    0.21760    0.11470    1.000
    H36      H        0.38640    0.25730    0.16220    1.000
    H37      H        0.39010    0.28990    0.07950    1.000
    C17      C        0.55530    0.23880    0.13850    1.000
    H38      H        0.55180    0.30230    0.17760    1.000
    H39      H        0.54760    0.28850    0.09170    1.000
    C18      C        0.47820    0.14310    0.12840    1.000
    H40      H        0.48690    0.08800    0.17330    1.000
    H41      H        0.47660    0.08490    0.08560    1.000
    H42      H        0.28300    0.21000    0.80400    1.000
    V13      V        0.16504    0.61937    0.58450    1.000
    V14      V        0.24827    0.54689    0.78748    1.000
    P13      P        0.20739    0.62008    0.42125    1.000
    P14      P        0.83587    0.66770    0.33719    1.000
    O43      O        0.20740    0.57270    0.49893    1.000
    O44      O        0.28866    0.70140    0.42129    1.000
    O45      O        0.82840    0.57120    0.39797    1.000
    O46      O        0.21170    0.64290    0.69244    1.000
    O47      O        0.82420    0.60150    0.26186    1.000
    O48      O        0.76885    0.77770    0.33434    1.000
    O49      O        0.20363    0.49660    0.37359    1.000
    C19      C        0.11000    0.71760    0.38530    1.000
    H43      H        0.11360    0.75730    0.33780    1.000
    H44      H        0.10990    0.78990    0.42050    1.000
    C20      C        0.94470    0.73880    0.36150    1.000
    H45      H        0.94820    0.80230    0.32240    1.000
    H46      H        0.95240    0.78850    0.40830    1.000
    C21      C        0.02180    0.64310    0.37160    1.000
    H47      H        0.01310    0.58800    0.32670    1.000
    H48      H        0.02340    0.58490    0.41440    1.000
    H49      H        0.21700    0.71000    0.69600    1.000
    V15      V        0.66504    0.11937    0.58450    1.000
    V16      V        0.74827    0.04689    0.78748    1.000
    P15      P        0.70739    0.12008    0.42125    1.000
    P16      P        0.33587    0.16770    0.33719    1.000
    O50      O        0.70740    0.07270    0.49893    1.000
    O51      O        0.78866    0.20140    0.42129    1.000
    O52      O        0.32840    0.07120    0.39797    1.000
    O53      O        0.71170    0.14290    0.69244    1.000
    O54      O        0.32420    0.10150    0.26186    1.000
    O55      O        0.26885    0.27770    0.33434    1.000
    O56      O        0.70363    0.99660    0.37359    1.000
    C22      C        0.61000    0.21760    0.38530    1.000
    H50      H        0.61360    0.25730    0.33780    1.000
    H51      H        0.60990    0.28990    0.42050    1.000
    C23      C        0.44470    0.23880    0.36150    1.000
    H52      H        0.44820    0.30230    0.32240    1.000
    H53      H        0.45240    0.28850    0.40830    1.000
    C24      C        0.52180    0.14310    0.37160    1.000
    H54      H        0.51310    0.08800    0.32670    1.000
    H55      H        0.52340    0.08490    0.41440    1.000
    H56      H        0.71700    0.21000    0.69600    1.000
