data_functionalizedCrystal
_audit_creation_method	'EQeq! by Chris Wilmer'
_symmetry_space_group_name_H-M	'P1'
_symmetry_Int_Tables_number	1
_symmetry_cell_setting	triclinic
loop_
_symmetry_equiv_pos_as_xyz
  x,y,z
_cell_length_a	22.1266
_cell_length_b	7.2566
_cell_length_c	13.8663
_cell_angle_alpha	90
_cell_angle_beta	90
_cell_angle_gamma	90
loop_
_atom_site_label
_atom_site_type_symbol
_atom_site_fract_x
_atom_site_fract_y
_atom_site_fract_z
_atom_site_charge
Mof_N 	N 	0.56389	0.345	0.9355	-0.195
Mof_C 	C 	0.61088	0.6005	0.1124	0.086
Mof_H 	H 	0.6216	0.4783	0.1231	-0.04
Mof_C 	C 	0.6999	0.6461	0.2812	-0.057
Mof_C 	C 	0.7447	0.6477	0.1646	-0.063
Mof_H 	H 	0.6663	0.5701	0.2997	0.04
Mof_H 	H 	0.7418	0.5858	0.1035	0.028
Mof_N 	N 	0.06389	0.845	0.4355	-0.235
Mof_C 	C 	0.11088	0.1005	0.6124	0.012
Mof_H 	H 	0.1216	0.9783	0.6231	0.032
Mof_C 	C 	0.1999	0.1461	0.7812	-0.054
Mof_C 	C 	0.2447	0.1477	0.6646	-0.062
Mof_H 	H 	0.1663	0.0701	0.7997	0.035
Mof_H 	H 	0.2418	0.0858	0.6035	0.035
Mof_N 	N 	0.43611	0.155	0.9355	-0.188
Mof_C 	C 	0.38912	0.8995	0.1124	0.171
Mof_H 	H 	0.3784	0.0217	0.1231	-0.099
Mof_C 	C 	0.3001	0.8539	0.2812	-0.057
Mof_C 	C 	0.2553	0.8523	0.1646	-0.058
Mof_H 	H 	0.3337	0.9299	0.2997	0.053
Mof_H 	H 	0.2582	0.9142	0.1035	0.036
Mof_N 	N 	0.93611	0.655	0.4355	-0.202
Mof_C 	C 	0.88912	0.3995	0.6124	0.102
Mof_H 	H 	0.8784	0.5217	0.6231	-0.016
Mof_C 	C 	0.8001	0.3539	0.7812	-0.054
Mof_C 	C 	0.7553	0.3523	0.6646	-0.056
Mof_H 	H 	0.8337	0.4299	0.7997	0.06
Mof_H 	H 	0.7582	0.4142	0.6035	0.046
Mof_N 	N 	0.43611	0.845	0.0645	-0.238
Mof_C 	C 	0.38912	0.1005	0.8876	0.028
Mof_H 	H 	0.3784	0.9783	0.8769	0.044
Mof_C 	C 	0.3001	0.1461	0.7188	-0.065
Mof_C 	C 	0.2553	0.1477	0.8354	-0.071
Mof_H 	H 	0.3337	0.0701	0.7003	0.035
Mof_H 	H 	0.2582	0.0858	0.8965	0.056
Mof_N 	N 	0.93611	0.345	0.5645	-0.202
Mof_C 	C 	0.88912	0.6005	0.3876	0.099
Mof_H 	H 	0.8784	0.4783	0.3769	-0.027
Mof_C 	C 	0.8001	0.6461	0.2188	-0.068
Mof_C 	C 	0.7553	0.6477	0.3354	-0.071
Mof_H 	H 	0.8337	0.5701	0.2003	0.04
Mof_H 	H 	0.7582	0.5858	0.3965	0.049
Mof_N 	N 	0.56389	0.655	0.0645	-0.233
Mof_C 	C 	0.61088	0.3995	0.8876	0.107
Mof_H 	H 	0.6216	0.5217	0.8769	-0.011
Mof_C 	C 	0.6999	0.3539	0.7188	-0.061
Mof_C 	C 	0.7447	0.3523	0.8354	-0.06
Mof_H 	H 	0.6663	0.4299	0.7003	0.047
Mof_H 	H 	0.7418	0.4142	0.8965	0.068
Mof_N 	N 	0.06389	0.155	0.5645	-0.221
Mof_C 	C 	0.11088	0.8995	0.3876	0.175
Mof_H 	H 	0.1216	0.0217	0.3769	-0.093
Mof_C 	C 	0.1999	0.8539	0.2188	-0.064
Mof_C 	C 	0.2447	0.8523	0.3354	-0.061
Mof_H 	H 	0.1663	0.9299	0.2003	0.039
Mof_H 	H 	0.2418	0.9142	0.3965	0.057
Mof_N 	N 	0.43611	0.655	0.0645	-0.233
Mof_C 	C 	0.38912	0.3995	0.8876	0.107
Mof_H 	H 	0.3784	0.5217	0.8769	-0.011
Mof_C 	C 	0.3001	0.3539	0.7188	-0.063
Mof_C 	C 	0.2553	0.3523	0.8354	-0.063
Mof_H 	H 	0.3337	0.4299	0.7003	0.047
Mof_H 	H 	0.2582	0.4142	0.8965	0.065
Mof_N 	N 	0.93611	0.155	0.5645	-0.193
Mof_C 	C 	0.88912	0.8995	0.3876	0.181
Mof_H 	H 	0.8784	0.0217	0.3769	-0.083
Mof_C 	C 	0.8001	0.8539	0.2188	-0.066
Mof_C 	C 	0.7553	0.8523	0.3354	-0.063
Mof_H 	H 	0.8337	0.9299	0.2003	0.052
Mof_H 	H 	0.7582	0.9142	0.3965	0.058
Mof_N 	N 	0.56389	0.845	0.0645	-0.238
Mof_C 	C 	0.61088	0.1005	0.8876	0.029
Mof_H 	H 	0.6216	0.9783	0.8769	0.044
Mof_C 	C 	0.6999	0.1461	0.7188	-0.063
Mof_C 	C 	0.7447	0.1477	0.8354	-0.068
Mof_H 	H 	0.6663	0.0701	0.7003	0.035
Mof_H 	H 	0.7418	0.0858	0.8965	0.059
Mof_N 	N 	0.06389	0.345	0.5645	-0.23
Mof_C 	C 	0.11088	0.6005	0.3876	0.091
Mof_H 	H 	0.1216	0.4783	0.3769	-0.036
Mof_C 	C 	0.1999	0.6461	0.2188	-0.066
Mof_C 	C 	0.2447	0.6477	0.3354	-0.069
Mof_H 	H 	0.1663	0.5701	0.2003	0.026
Mof_H 	H 	0.2418	0.5858	0.3965	0.048
Mof_N 	N 	0.56389	0.155	0.9355	-0.188
Mof_C 	C 	0.61088	0.8995	0.1124	0.17
Mof_H 	H 	0.6216	0.0217	0.1231	-0.098
Mof_C 	C 	0.6999	0.8539	0.2812	-0.056
Mof_C 	C 	0.7447	0.8523	0.1646	-0.054
Mof_H 	H 	0.6663	0.9299	0.2997	0.052
Mof_H 	H 	0.7418	0.9142	0.1035	0.038
Mof_N 	N 	0.06389	0.655	0.4355	-0.231
Mof_C 	C 	0.11088	0.3995	0.6124	0.093
Mof_H 	H 	0.1216	0.5217	0.6231	-0.025
Mof_C 	C 	0.1999	0.3539	0.7812	-0.052
Mof_C 	C 	0.2447	0.3523	0.6646	-0.054
Mof_H 	H 	0.1663	0.4299	0.7997	0.047
Mof_H 	H 	0.2418	0.4142	0.6035	0.045
Mof_N 	N 	0.43611	0.345	0.9355	-0.196
Mof_C 	C 	0.38912	0.6005	0.1124	0.086
Mof_H 	H 	0.3784	0.4783	0.1231	-0.04
Mof_C 	C 	0.3001	0.6461	0.2812	-0.059
Mof_C 	C 	0.2553	0.6477	0.1646	-0.066
Mof_H 	H 	0.3337	0.5701	0.2997	0.04
Mof_H 	H 	0.2582	0.5858	0.1035	0.026
Mof_N 	N 	0.93611	0.845	0.4355	-0.207
Mof_C 	C 	0.88912	0.1005	0.6124	0.022
Mof_H 	H 	0.8784	0.9783	0.6231	0.04
Mof_C 	C 	0.8001	0.1461	0.7812	-0.056
Mof_C 	C 	0.7553	0.1477	0.6646	-0.064
Mof_H 	H 	0.8337	0.0701	0.7997	0.049
Mof_H 	H 	0.7582	0.0858	0.6035	0.036
Mof_Cu	Cu	0.5	0.5	-0	0.791
Mof_Cu	Cu	1.17484e-33	0	0.5	0.78
Mof_Cu	Cu	0.5	0	-0	0.771
Mof_Cu	Cu	-1.6597e-33	0.5	0.5	0.799
Mof_N 	N 	0.6422	0.75	0.1445	-0.174
Mof_C 	C 	0.6977	0.75	0.1981	0.115
Mof_N 	N 	0.1422	0.25	0.6445	-0.147
Mof_C 	C 	0.1977	0.25	0.6981	0.105
Mof_N 	N 	0.3578	0.75	0.1445	-0.175
Mof_C 	C 	0.3023	0.75	0.1981	0.119
Mof_N 	N 	0.8578	0.25	0.6445	-0.146
Mof_C 	C 	0.8023	0.25	0.6981	0.111
Mof_N 	N 	0.3578	0.25	0.8555	-0.148
Mof_C 	C 	0.3023	0.25	0.8019	0.124
Mof_N 	N 	0.8578	0.75	0.3555	-0.174
Mof_C 	C 	0.8023	0.75	0.3019	0.133
Mof_N 	N 	0.6422	0.25	0.8555	-0.148
Mof_C 	C 	0.6977	0.25	0.8019	0.12
Mof_N 	N 	0.1422	0.75	0.3555	-0.176
Mof_C 	C 	0.1977	0.75	0.3019	0.127
_end
