data_functionalizedCrystal
_audit_creation_method	'EQeq! by Chris Wilmer'
_symmetry_space_group_name_H-M	'P1'
_symmetry_Int_Tables_number	1
_symmetry_cell_setting	triclinic
loop_
_symmetry_equiv_pos_as_xyz
  x,y,z
_cell_length_a	16.6446
_cell_length_b	16.6446
_cell_length_c	11.9628
_cell_angle_alpha	90
_cell_angle_beta	90
_cell_angle_gamma	90
loop_
_atom_site_label
_atom_site_type_symbol
_atom_site_fract_x
_atom_site_fract_y
_atom_site_fract_z
_atom_site_charge
Mof_O 	O 	0.39389	0.51183	0.6147	-0.406
Mof_C 	C 	0.3187	0.5912	0.7922	0.017
Mof_H 	H 	0.3099	0.5354	0.7883	0.035
Mof_C 	C 	0.2737	0.638	0.8651	-0.024
Mof_H 	H 	0.2357	0.613	0.9117	0.048
Mof_C 	C 	0.2918	0.61	0.7367	-0.014
Mof_H 	H 	0.2683	0.5685	0.6946	0.042
Mof_C 	C 	0.2451	0.6558	0.8075	-0.076
Mof_H 	H 	0.1895	0.6467	0.8136	0.055
Mof_O 	O 	0.60611	0.48817	0.6147	-0.405
Mof_C 	C 	0.6813	0.4088	0.7922	0.018
Mof_H 	H 	0.6901	0.4646	0.7883	0.035
Mof_C 	C 	0.7263	0.362	0.8651	-0.024
Mof_H 	H 	0.7643	0.387	0.9117	0.048
Mof_C 	C 	0.7082	0.39	0.7367	-0.014
Mof_H 	H 	0.7317	0.4315	0.6946	0.042
Mof_C 	C 	0.7549	0.3442	0.8075	-0.076
Mof_H 	H 	0.8105	0.3533	0.8136	0.055
Mof_O 	O 	0.98817	0.89389	0.1147	-0.414
Mof_C 	C 	0.9088	0.8187	0.2922	0.011
Mof_H 	H 	0.9646	0.8099	0.2883	0.031
Mof_C 	C 	0.862	0.7737	0.3651	-0.027
Mof_H 	H 	0.887	0.7357	0.4117	0.035
Mof_C 	C 	0.89	0.7918	0.2367	-0.008
Mof_H 	H 	0.9315	0.7683	0.1946	0.033
Mof_C 	C 	0.8442	0.7451	0.3075	-0.077
Mof_H 	H 	0.8533	0.6895	0.3136	0.048
Mof_O 	O 	0.01183	0.10611	0.1147	-0.414
Mof_C 	C 	0.0912	0.1813	0.2922	0.011
Mof_H 	H 	0.0354	0.1901	0.2883	0.031
Mof_C 	C 	0.138	0.2263	0.3651	-0.027
Mof_H 	H 	0.113	0.2643	0.4117	0.035
Mof_C 	C 	0.11	0.2082	0.2367	-0.008
Mof_H 	H 	0.0685	0.2317	0.1946	0.033
Mof_C 	C 	0.1558	0.2549	0.3075	-0.077
Mof_H 	H 	0.1467	0.3105	0.3136	0.048
Mof_O 	O 	0.10611	0.01183	0.8853	-0.383
Mof_C 	C 	0.1813	0.0912	0.7078	-0.002
Mof_H 	H 	0.1901	0.0354	0.7117	0.036
Mof_C 	C 	0.2263	0.138	0.6349	-0.058
Mof_H 	H 	0.2643	0.113	0.5883	0.049
Mof_C 	C 	0.2082	0.11	0.7633	0.024
Mof_H 	H 	0.2317	0.0685	0.8054	0.035
Mof_C 	C 	0.2549	0.1558	0.6925	-0.087
Mof_H 	H 	0.3105	0.1467	0.6864	0.06
Mof_O 	O 	0.89389	0.98817	0.8853	-0.383
Mof_C 	C 	0.8187	0.9088	0.7078	-0.002
Mof_H 	H 	0.8099	0.9646	0.7117	0.036
Mof_C 	C 	0.7737	0.862	0.6349	-0.058
Mof_H 	H 	0.7357	0.887	0.5883	0.049
Mof_C 	C 	0.7918	0.89	0.7633	0.024
Mof_H 	H 	0.7683	0.9315	0.8054	0.035
Mof_C 	C 	0.7451	0.8442	0.6925	-0.087
Mof_H 	H 	0.6895	0.8533	0.6864	0.06
Mof_O 	O 	0.51183	0.39389	0.3853	-0.408
Mof_C 	C 	0.5912	0.3187	0.2078	-0.007
Mof_H 	H 	0.5354	0.3099	0.2117	0.031
Mof_C 	C 	0.638	0.2737	0.1349	-0.058
Mof_H 	H 	0.613	0.2357	0.0883	0.034
Mof_C 	C 	0.61	0.2918	0.2633	0.027
Mof_H 	H 	0.5685	0.2683	0.3054	0.026
Mof_C 	C 	0.6558	0.2451	0.1925	-0.086
Mof_H 	H 	0.6467	0.1895	0.1864	0.052
Mof_O 	O 	0.48817	0.60611	0.3853	-0.408
Mof_C 	C 	0.4088	0.6813	0.2078	-0.007
Mof_H 	H 	0.4646	0.6901	0.2117	0.031
Mof_C 	C 	0.362	0.7263	0.1349	-0.058
Mof_H 	H 	0.387	0.7643	0.0883	0.034
Mof_C 	C 	0.39	0.7082	0.2633	0.027
Mof_H 	H 	0.4315	0.7317	0.3054	0.026
Mof_C 	C 	0.3442	0.7549	0.1925	-0.086
Mof_H 	H 	0.3533	0.8105	0.1864	0.052
Mof_O 	O 	0.60611	0.48817	0.3853	-0.408
Mof_C 	C 	0.6813	0.4088	0.2078	-0.007
Mof_H 	H 	0.6901	0.4646	0.2117	0.031
Mof_C 	C 	0.7263	0.362	0.1349	-0.058
Mof_H 	H 	0.7643	0.387	0.0883	0.034
Mof_C 	C 	0.7082	0.39	0.2633	0.027
Mof_H 	H 	0.7317	0.4315	0.3054	0.026
Mof_C 	C 	0.7549	0.3442	0.1925	-0.086
Mof_H 	H 	0.8105	0.3533	0.1864	0.052
Mof_O 	O 	0.39389	0.51183	0.3853	-0.408
Mof_C 	C 	0.3187	0.5912	0.2078	-0.007
Mof_H 	H 	0.3099	0.5354	0.2117	0.031
Mof_C 	C 	0.2737	0.638	0.1349	-0.058
Mof_H 	H 	0.2357	0.613	0.0883	0.034
Mof_C 	C 	0.2918	0.61	0.2633	0.027
Mof_H 	H 	0.2683	0.5685	0.3054	0.026
Mof_C 	C 	0.2451	0.6558	0.1925	-0.086
Mof_H 	H 	0.1895	0.6467	0.1864	0.052
Mof_O 	O 	0.01183	0.10611	0.8853	-0.383
Mof_C 	C 	0.0912	0.1813	0.7078	-0.002
Mof_H 	H 	0.0354	0.1901	0.7117	0.036
Mof_C 	C 	0.138	0.2263	0.6349	-0.058
Mof_H 	H 	0.113	0.2643	0.5883	0.049
Mof_C 	C 	0.11	0.2082	0.7633	0.024
Mof_H 	H 	0.0685	0.2317	0.8054	0.035
Mof_C 	C 	0.1558	0.2549	0.6925	-0.087
Mof_H 	H 	0.1467	0.3105	0.6864	0.06
Mof_O 	O 	0.98817	0.89389	0.8853	-0.383
Mof_C 	C 	0.9088	0.8187	0.7078	-0.002
Mof_H 	H 	0.9646	0.8099	0.7117	0.036
Mof_C 	C 	0.862	0.7737	0.6349	-0.058
Mof_H 	H 	0.887	0.7357	0.5883	0.049
Mof_C 	C 	0.89	0.7918	0.7633	0.024
Mof_H 	H 	0.9315	0.7683	0.8054	0.035
Mof_C 	C 	0.8442	0.7451	0.6925	-0.087
Mof_H 	H 	0.8533	0.6895	0.6864	0.06
Mof_O 	O 	0.89389	0.98817	0.1147	-0.414
Mof_C 	C 	0.8187	0.9088	0.2922	0.011
Mof_H 	H 	0.8099	0.9646	0.2883	0.031
Mof_C 	C 	0.7737	0.862	0.3651	-0.027
Mof_H 	H 	0.7357	0.887	0.4117	0.035
Mof_C 	C 	0.7918	0.89	0.2367	-0.008
Mof_H 	H 	0.7683	0.9315	0.1946	0.033
Mof_C 	C 	0.7451	0.8442	0.3075	-0.077
Mof_H 	H 	0.6895	0.8533	0.3136	0.048
Mof_O 	O 	0.10611	0.01183	0.1147	-0.414
Mof_C 	C 	0.1813	0.0912	0.2922	0.011
Mof_H 	H 	0.1901	0.0354	0.2883	0.031
Mof_C 	C 	0.2263	0.138	0.3651	-0.027
Mof_H 	H 	0.2643	0.113	0.4117	0.035
Mof_C 	C 	0.2082	0.11	0.2367	-0.008
Mof_H 	H 	0.2317	0.0685	0.1946	0.033
Mof_C 	C 	0.2549	0.1558	0.3075	-0.077
Mof_H 	H 	0.3105	0.1467	0.3136	0.048
Mof_O 	O 	0.48817	0.60611	0.6147	-0.405
Mof_C 	C 	0.4088	0.6813	0.7922	0.018
Mof_H 	H 	0.4646	0.6901	0.7883	0.035
Mof_C 	C 	0.362	0.7263	0.8651	-0.024
Mof_H 	H 	0.387	0.7643	0.9117	0.048
Mof_C 	C 	0.39	0.7082	0.7367	-0.014
Mof_H 	H 	0.4315	0.7317	0.6946	0.042
Mof_C 	C 	0.3442	0.7549	0.8075	-0.076
Mof_H 	H 	0.3533	0.8105	0.8136	0.055
Mof_O 	O 	0.51183	0.39389	0.6147	-0.405
Mof_C 	C 	0.5912	0.3187	0.7922	0.018
Mof_H 	H 	0.5354	0.3099	0.7883	0.035
Mof_C 	C 	0.638	0.2737	0.8651	-0.024
Mof_H 	H 	0.613	0.2357	0.9117	0.048
Mof_C 	C 	0.61	0.2918	0.7367	-0.014
Mof_H 	H 	0.5685	0.2683	0.6946	0.042
Mof_C 	C 	0.6558	0.2451	0.8075	-0.076
Mof_H 	H 	0.6467	0.1895	0.8136	0.055
Mof_C 	C 	0.4228	0.5772	0.6464	0.364
Mof_C 	C 	0.37441	0.62559	0.7278	-0.097
Mof_C 	C 	0.28298	0.71702	0.8708	0.041
Mof_C 	C 	0.17941	0.82059	0.9104	0.074
Mof_C 	C 	0.23314	0.76686	0.9431	0.044
Mof_N 	N 	0.23314	0.76686	0.0569	-0.171
Mof_C 	C 	0.5772	0.4228	0.6464	0.364
Mof_C 	C 	0.62559	0.37441	0.7278	-0.097
Mof_C 	C 	0.71702	0.28298	0.8708	0.041
Mof_C 	C 	0.82059	0.17941	0.9104	0.074
Mof_C 	C 	0.76686	0.23314	0.9431	0.044
Mof_N 	N 	0.76686	0.23314	0.0569	-0.171
Mof_C 	C 	0.9228	0.9228	0.1464	0.361
Mof_C 	C 	0.87441	0.87441	0.2278	-0.103
Mof_C 	C 	0.78298	0.78298	0.3708	0.04
Mof_C 	C 	0.67941	0.67941	0.4104	0.041
Mof_C 	C 	0.73314	0.73314	0.4431	0.011
Mof_N 	N 	0.73314	0.73314	0.5569	-0.149
Mof_C 	C 	0.0772	0.0772	0.1464	0.361
Mof_C 	C 	0.12559	0.12559	0.2278	-0.103
Mof_C 	C 	0.21702	0.21702	0.3708	0.04
Mof_C 	C 	0.32059	0.32059	0.4104	0.041
Mof_C 	C 	0.26686	0.26686	0.4431	0.011
Mof_N 	N 	0.26686	0.26686	0.5569	-0.149
Mof_C 	C 	0.0772	0.0772	0.8536	0.362
Mof_C 	C 	0.12559	0.12559	0.7722	-0.103
Mof_C 	C 	0.21702	0.21702	0.6292	0.123
Mof_C 	C 	0.32059	0.32059	0.5896	0.107
Mof_C 	C 	0.9228	0.9228	0.8536	0.362
Mof_C 	C 	0.87441	0.87441	0.7722	-0.103
Mof_C 	C 	0.78298	0.78298	0.6292	0.123
Mof_C 	C 	0.67941	0.67941	0.5896	0.107
Mof_C 	C 	0.5772	0.4228	0.3536	0.365
Mof_C 	C 	0.62559	0.37441	0.2722	-0.111
Mof_C 	C 	0.71702	0.28298	0.1292	0.112
Mof_C 	C 	0.82059	0.17941	0.0896	0.096
Mof_C 	C 	0.4228	0.5772	0.3536	0.365
Mof_C 	C 	0.37441	0.62559	0.2722	-0.111
Mof_C 	C 	0.28298	0.71702	0.1292	0.112
Mof_C 	C 	0.17941	0.82059	0.0896	0.096
Mof_Cu	Cu	0.44377	0.44377	0.5	0.92
Mof_Cu	Cu	0.55623	0.55623	0.5	0.92
Mof_Cu	Cu	0.05623	0.94377	-0	0.897
Mof_Cu	Cu	0.94377	0.05623	-0	0.897
Mof_N 	N 	0.1467	0.8533	-0	-0.223
Mof_N 	N 	0.8533	0.1467	-0	-0.223
Mof_N 	N 	0.6467	0.6467	0.5	-0.192
Mof_N 	N 	0.3533	0.3533	0.5	-0.192
_end
