data_functionalizedCrystal
_audit_creation_method	'EQeq! by Chris Wilmer'
_symmetry_space_group_name_H-M	'P1'
_symmetry_Int_Tables_number	1
_symmetry_cell_setting	triclinic
loop_
_symmetry_equiv_pos_as_xyz
  x,y,z
_cell_length_a	32.4002
_cell_length_b	32.4002
_cell_length_c	32.4002
_cell_angle_alpha	90
_cell_angle_beta	90
_cell_angle_gamma	90
loop_
_atom_site_label
_atom_site_type_symbol
_atom_site_fract_x
_atom_site_fract_y
_atom_site_fract_z
_atom_site_charge
Mof_F 	F 	0.3157	0.26021	0.91051	-0.228
Mof_F 	F 	0.25274	0.27836	0.89222	-0.182
Mof_F 	F 	0.29223	0.3221	0.9262	-0.283
Mof_F 	F 	0.3157	0.76021	0.41051	-0.227
Mof_F 	F 	0.25274	0.77836	0.39222	-0.182
Mof_F 	F 	0.29223	0.8221	0.4262	-0.282
Mof_F 	F 	0.8157	0.26021	0.41051	-0.227
Mof_F 	F 	0.75274	0.27836	0.39222	-0.182
Mof_F 	F 	0.79223	0.3221	0.4262	-0.282
Mof_F 	F 	0.8157	0.76021	0.91051	-0.228
Mof_F 	F 	0.75274	0.77836	0.89222	-0.182
Mof_F 	F 	0.79223	0.8221	0.9262	-0.283
Mof_F 	F 	0.6843	0.73979	0.91051	-0.228
Mof_F 	F 	0.74726	0.72164	0.89222	-0.182
Mof_F 	F 	0.70777	0.6779	0.9262	-0.283
Mof_F 	F 	0.6843	0.23979	0.41051	-0.227
Mof_F 	F 	0.74726	0.22164	0.39222	-0.182
Mof_F 	F 	0.70777	0.1779	0.4262	-0.282
Mof_F 	F 	0.1843	0.73979	0.41051	-0.227
Mof_F 	F 	0.24726	0.72164	0.39222	-0.182
Mof_F 	F 	0.20777	0.6779	0.4262	-0.282
Mof_F 	F 	0.1843	0.23979	0.91051	-0.228
Mof_F 	F 	0.24726	0.22164	0.89222	-0.182
Mof_F 	F 	0.20777	0.1779	0.9262	-0.283
Mof_F 	F 	0.6843	0.26021	0.08949	-0.227
Mof_F 	F 	0.74726	0.27836	0.10778	-0.182
Mof_F 	F 	0.70777	0.3221	0.0738	-0.282
Mof_F 	F 	0.6843	0.76021	0.58949	-0.227
Mof_F 	F 	0.74726	0.77836	0.60778	-0.182
Mof_F 	F 	0.70777	0.8221	0.5738	-0.282
Mof_F 	F 	0.1843	0.26021	0.58949	-0.227
Mof_F 	F 	0.24726	0.27836	0.60778	-0.182
Mof_F 	F 	0.20777	0.3221	0.5738	-0.282
Mof_F 	F 	0.1843	0.76021	0.08949	-0.227
Mof_F 	F 	0.24726	0.77836	0.10778	-0.182
Mof_F 	F 	0.20777	0.8221	0.0738	-0.282
Mof_F 	F 	0.3157	0.73979	0.08949	-0.227
Mof_F 	F 	0.25274	0.72164	0.10778	-0.182
Mof_F 	F 	0.29223	0.6779	0.0738	-0.282
Mof_F 	F 	0.3157	0.23979	0.58949	-0.227
Mof_F 	F 	0.25274	0.22164	0.60778	-0.182
Mof_F 	F 	0.29223	0.1779	0.5738	-0.282
Mof_F 	F 	0.8157	0.73979	0.58949	-0.228
Mof_F 	F 	0.75274	0.72164	0.60778	-0.182
Mof_F 	F 	0.79223	0.6779	0.5738	-0.282
Mof_F 	F 	0.8157	0.23979	0.08949	-0.227
Mof_F 	F 	0.75274	0.22164	0.10778	-0.182
Mof_F 	F 	0.79223	0.1779	0.0738	-0.283
Mof_F 	F 	0.91051	0.3157	0.26021	-0.229
Mof_F 	F 	0.89222	0.25274	0.27836	-0.183
Mof_F 	F 	0.9262	0.29223	0.3221	-0.284
Mof_F 	F 	0.91051	0.8157	0.76021	-0.229
Mof_F 	F 	0.89222	0.75274	0.77836	-0.183
Mof_F 	F 	0.9262	0.79223	0.8221	-0.284
Mof_F 	F 	0.41051	0.3157	0.76021	-0.228
Mof_F 	F 	0.39222	0.25274	0.77836	-0.183
Mof_F 	F 	0.4262	0.29223	0.8221	-0.283
Mof_F 	F 	0.41051	0.8157	0.26021	-0.228
Mof_F 	F 	0.39222	0.75274	0.27836	-0.183
Mof_F 	F 	0.4262	0.79223	0.3221	-0.283
Mof_F 	F 	0.91051	0.6843	0.73979	-0.229
Mof_F 	F 	0.89222	0.74726	0.72164	-0.183
Mof_F 	F 	0.9262	0.70777	0.6779	-0.284
Mof_F 	F 	0.91051	0.1843	0.23979	-0.229
Mof_F 	F 	0.89222	0.24726	0.22164	-0.183
Mof_F 	F 	0.9262	0.20777	0.1779	-0.284
Mof_F 	F 	0.41051	0.6843	0.23979	-0.228
Mof_F 	F 	0.39222	0.74726	0.22164	-0.183
Mof_F 	F 	0.4262	0.70777	0.1779	-0.283
Mof_F 	F 	0.41051	0.1843	0.73979	-0.228
Mof_F 	F 	0.39222	0.24726	0.72164	-0.183
Mof_F 	F 	0.4262	0.20777	0.6779	-0.283
Mof_F 	F 	0.08949	0.6843	0.26021	-0.228
Mof_F 	F 	0.10778	0.74726	0.27836	-0.183
Mof_F 	F 	0.0738	0.70777	0.3221	-0.283
Mof_F 	F 	0.08949	0.1843	0.76021	-0.228
Mof_F 	F 	0.10778	0.24726	0.77836	-0.183
Mof_F 	F 	0.0738	0.20777	0.8221	-0.283
Mof_F 	F 	0.58949	0.6843	0.76021	-0.228
Mof_F 	F 	0.60778	0.74726	0.77836	-0.183
Mof_F 	F 	0.5738	0.70777	0.8221	-0.283
Mof_F 	F 	0.58949	0.1843	0.26021	-0.228
Mof_F 	F 	0.60778	0.24726	0.27836	-0.183
Mof_F 	F 	0.5738	0.20777	0.3221	-0.283
Mof_F 	F 	0.08949	0.3157	0.73979	-0.228
Mof_F 	F 	0.10778	0.25274	0.72164	-0.183
Mof_F 	F 	0.0738	0.29223	0.6779	-0.283
Mof_F 	F 	0.08949	0.8157	0.23979	-0.228
Mof_F 	F 	0.10778	0.75274	0.22164	-0.183
Mof_F 	F 	0.0738	0.79223	0.1779	-0.283
Mof_F 	F 	0.58949	0.3157	0.23979	-0.228
Mof_F 	F 	0.60778	0.25274	0.22164	-0.183
Mof_F 	F 	0.5738	0.29223	0.1779	-0.283
Mof_F 	F 	0.58949	0.8157	0.73979	-0.229
Mof_F 	F 	0.60778	0.75274	0.72164	-0.183
Mof_F 	F 	0.5738	0.79223	0.6779	-0.283
Mof_F 	F 	0.26021	0.91051	0.3157	-0.229
Mof_F 	F 	0.27836	0.89222	0.25274	-0.183
Mof_F 	F 	0.3221	0.9262	0.29223	-0.284
Mof_F 	F 	0.26021	0.41051	0.8157	-0.228
Mof_F 	F 	0.27836	0.39222	0.75274	-0.183
Mof_F 	F 	0.3221	0.4262	0.79223	-0.283
Mof_F 	F 	0.76021	0.91051	0.8157	-0.229
Mof_F 	F 	0.77836	0.89222	0.75274	-0.183
Mof_F 	F 	0.8221	0.9262	0.79223	-0.284
Mof_F 	F 	0.76021	0.41051	0.3157	-0.228
Mof_F 	F 	0.77836	0.39222	0.25274	-0.183
Mof_F 	F 	0.8221	0.4262	0.29223	-0.283
Mof_F 	F 	0.73979	0.91051	0.6843	-0.229
Mof_F 	F 	0.72164	0.89222	0.74726	-0.183
Mof_F 	F 	0.6779	0.9262	0.70777	-0.284
Mof_F 	F 	0.73979	0.41051	0.1843	-0.228
Mof_F 	F 	0.72164	0.39222	0.24726	-0.183
Mof_F 	F 	0.6779	0.4262	0.20777	-0.283
Mof_F 	F 	0.23979	0.91051	0.1843	-0.229
Mof_F 	F 	0.22164	0.89222	0.24726	-0.183
Mof_F 	F 	0.1779	0.9262	0.20777	-0.284
Mof_F 	F 	0.23979	0.41051	0.6843	-0.228
Mof_F 	F 	0.22164	0.39222	0.74726	-0.183
Mof_F 	F 	0.1779	0.4262	0.70777	-0.283
Mof_F 	F 	0.26021	0.08949	0.6843	-0.228
Mof_F 	F 	0.27836	0.10778	0.74726	-0.183
Mof_F 	F 	0.3221	0.0738	0.70777	-0.283
Mof_F 	F 	0.26021	0.58949	0.1843	-0.228
Mof_F 	F 	0.27836	0.60778	0.24726	-0.183
Mof_F 	F 	0.3221	0.5738	0.20777	-0.283
Mof_F 	F 	0.76021	0.08949	0.1843	-0.228
Mof_F 	F 	0.77836	0.10778	0.24726	-0.183
Mof_F 	F 	0.8221	0.0738	0.20777	-0.283
Mof_F 	F 	0.76021	0.58949	0.6843	-0.228
Mof_F 	F 	0.77836	0.60778	0.74726	-0.183
Mof_F 	F 	0.8221	0.5738	0.70777	-0.283
Mof_F 	F 	0.73979	0.08949	0.3157	-0.228
Mof_F 	F 	0.72164	0.10778	0.25274	-0.183
Mof_F 	F 	0.6779	0.0738	0.29223	-0.283
Mof_F 	F 	0.73979	0.58949	0.8157	-0.229
Mof_F 	F 	0.72164	0.60778	0.75274	-0.183
Mof_F 	F 	0.6779	0.5738	0.79223	-0.283
Mof_F 	F 	0.23979	0.08949	0.8157	-0.228
Mof_F 	F 	0.22164	0.10778	0.75274	-0.183
Mof_F 	F 	0.1779	0.0738	0.79223	-0.283
Mof_F 	F 	0.23979	0.58949	0.3157	-0.228
Mof_F 	F 	0.22164	0.60778	0.25274	-0.183
Mof_F 	F 	0.1779	0.5738	0.29223	-0.283
Mof_F 	F 	0.26021	0.3157	0.08949	-0.228
Mof_F 	F 	0.27836	0.25274	0.10778	-0.183
Mof_F 	F 	0.3221	0.29223	0.0738	-0.283
Mof_F 	F 	0.26021	0.8157	0.58949	-0.228
Mof_F 	F 	0.27836	0.75274	0.60778	-0.183
Mof_F 	F 	0.3221	0.79223	0.5738	-0.283
Mof_F 	F 	0.76021	0.3157	0.58949	-0.228
Mof_F 	F 	0.77836	0.25274	0.60778	-0.183
Mof_F 	F 	0.8221	0.29223	0.5738	-0.283
Mof_F 	F 	0.76021	0.8157	0.08949	-0.228
Mof_F 	F 	0.77836	0.75274	0.10778	-0.183
Mof_F 	F 	0.8221	0.79223	0.0738	-0.283
Mof_F 	F 	0.73979	0.6843	0.08949	-0.228
Mof_F 	F 	0.72164	0.74726	0.10778	-0.183
Mof_F 	F 	0.6779	0.70777	0.0738	-0.283
Mof_F 	F 	0.73979	0.1843	0.58949	-0.228
Mof_F 	F 	0.72164	0.24726	0.60778	-0.183
Mof_F 	F 	0.6779	0.20777	0.5738	-0.283
Mof_F 	F 	0.23979	0.6843	0.58949	-0.228
Mof_F 	F 	0.22164	0.74726	0.60778	-0.183
Mof_F 	F 	0.1779	0.70777	0.5738	-0.283
Mof_F 	F 	0.23979	0.1843	0.08949	-0.228
Mof_F 	F 	0.22164	0.24726	0.10778	-0.183
Mof_F 	F 	0.1779	0.20777	0.0738	-0.283
Mof_F 	F 	0.26021	0.6843	0.91051	-0.229
Mof_F 	F 	0.27836	0.74726	0.89222	-0.183
Mof_F 	F 	0.3221	0.70777	0.9262	-0.284
Mof_F 	F 	0.26021	0.1843	0.41051	-0.228
Mof_F 	F 	0.27836	0.24726	0.39222	-0.183
Mof_F 	F 	0.3221	0.20777	0.4262	-0.283
Mof_F 	F 	0.76021	0.6843	0.41051	-0.228
Mof_F 	F 	0.77836	0.74726	0.39222	-0.183
Mof_F 	F 	0.8221	0.70777	0.4262	-0.283
Mof_F 	F 	0.76021	0.1843	0.91051	-0.229
Mof_F 	F 	0.77836	0.24726	0.89222	-0.183
Mof_F 	F 	0.8221	0.20777	0.9262	-0.284
Mof_F 	F 	0.73979	0.3157	0.91051	-0.229
Mof_F 	F 	0.72164	0.25274	0.89222	-0.183
Mof_F 	F 	0.6779	0.29223	0.9262	-0.284
Mof_F 	F 	0.73979	0.8157	0.41051	-0.229
Mof_F 	F 	0.72164	0.75274	0.39222	-0.183
Mof_F 	F 	0.6779	0.79223	0.4262	-0.283
Mof_F 	F 	0.23979	0.3157	0.41051	-0.228
Mof_F 	F 	0.22164	0.25274	0.39222	-0.183
Mof_F 	F 	0.1779	0.29223	0.4262	-0.283
Mof_F 	F 	0.23979	0.8157	0.91051	-0.229
Mof_F 	F 	0.22164	0.75274	0.89222	-0.183
Mof_F 	F 	0.1779	0.79223	0.9262	-0.284
Mof_F 	F 	0.3157	0.91051	0.73979	-0.229
Mof_F 	F 	0.25274	0.89222	0.72164	-0.183
Mof_F 	F 	0.29223	0.9262	0.6779	-0.284
Mof_F 	F 	0.3157	0.41051	0.23979	-0.228
Mof_F 	F 	0.25274	0.39222	0.22164	-0.183
Mof_F 	F 	0.29223	0.4262	0.1779	-0.283
Mof_F 	F 	0.8157	0.91051	0.23979	-0.229
Mof_F 	F 	0.75274	0.89222	0.22164	-0.183
Mof_F 	F 	0.79223	0.9262	0.1779	-0.284
Mof_F 	F 	0.8157	0.41051	0.73979	-0.229
Mof_F 	F 	0.75274	0.39222	0.72164	-0.183
Mof_F 	F 	0.79223	0.4262	0.6779	-0.283
Mof_F 	F 	0.6843	0.91051	0.26021	-0.229
Mof_F 	F 	0.74726	0.89222	0.27836	-0.183
Mof_F 	F 	0.70777	0.9262	0.3221	-0.284
Mof_F 	F 	0.6843	0.41051	0.76021	-0.228
Mof_F 	F 	0.74726	0.39222	0.77836	-0.183
Mof_F 	F 	0.70777	0.4262	0.8221	-0.283
Mof_F 	F 	0.1843	0.91051	0.76021	-0.229
Mof_F 	F 	0.24726	0.89222	0.77836	-0.183
Mof_F 	F 	0.20777	0.9262	0.8221	-0.284
Mof_F 	F 	0.1843	0.41051	0.26021	-0.228
Mof_F 	F 	0.24726	0.39222	0.27836	-0.183
Mof_F 	F 	0.20777	0.4262	0.3221	-0.283
Mof_F 	F 	0.6843	0.08949	0.73979	-0.228
Mof_F 	F 	0.74726	0.10778	0.72164	-0.183
Mof_F 	F 	0.70777	0.0738	0.6779	-0.283
Mof_F 	F 	0.6843	0.58949	0.23979	-0.228
Mof_F 	F 	0.74726	0.60778	0.22164	-0.183
Mof_F 	F 	0.70777	0.5738	0.1779	-0.283
Mof_F 	F 	0.1843	0.08949	0.23979	-0.228
Mof_F 	F 	0.24726	0.10778	0.22164	-0.183
Mof_F 	F 	0.20777	0.0738	0.1779	-0.283
Mof_F 	F 	0.1843	0.58949	0.73979	-0.228
Mof_F 	F 	0.24726	0.60778	0.72164	-0.183
Mof_F 	F 	0.20777	0.5738	0.6779	-0.283
Mof_F 	F 	0.3157	0.08949	0.26021	-0.228
Mof_F 	F 	0.25274	0.10778	0.27836	-0.183
Mof_F 	F 	0.29223	0.0738	0.3221	-0.283
Mof_F 	F 	0.3157	0.58949	0.76021	-0.228
Mof_F 	F 	0.25274	0.60778	0.77836	-0.183
Mof_F 	F 	0.29223	0.5738	0.8221	-0.283
Mof_F 	F 	0.8157	0.08949	0.76021	-0.228
Mof_F 	F 	0.75274	0.10778	0.77836	-0.183
Mof_F 	F 	0.79223	0.0738	0.8221	-0.283
Mof_F 	F 	0.8157	0.58949	0.26021	-0.228
Mof_F 	F 	0.75274	0.60778	0.27836	-0.183
Mof_F 	F 	0.79223	0.5738	0.3221	-0.283
Mof_F 	F 	0.91051	0.26021	0.6843	-0.229
Mof_F 	F 	0.89222	0.27836	0.74726	-0.183
Mof_F 	F 	0.9262	0.3221	0.70777	-0.284
Mof_F 	F 	0.91051	0.76021	0.1843	-0.229
Mof_F 	F 	0.89222	0.77836	0.24726	-0.183
Mof_F 	F 	0.9262	0.8221	0.20777	-0.284
Mof_F 	F 	0.41051	0.26021	0.1843	-0.228
Mof_F 	F 	0.39222	0.27836	0.24726	-0.183
Mof_F 	F 	0.4262	0.3221	0.20777	-0.283
Mof_F 	F 	0.41051	0.76021	0.6843	-0.228
Mof_F 	F 	0.39222	0.77836	0.74726	-0.183
Mof_F 	F 	0.4262	0.8221	0.70777	-0.283
Mof_F 	F 	0.91051	0.73979	0.3157	-0.229
Mof_F 	F 	0.89222	0.72164	0.25274	-0.183
Mof_F 	F 	0.9262	0.6779	0.29223	-0.284
Mof_F 	F 	0.91051	0.23979	0.8157	-0.229
Mof_F 	F 	0.89222	0.22164	0.75274	-0.183
Mof_F 	F 	0.9262	0.1779	0.79223	-0.284
Mof_F 	F 	0.41051	0.73979	0.8157	-0.229
Mof_F 	F 	0.39222	0.72164	0.75274	-0.183
Mof_F 	F 	0.4262	0.6779	0.79223	-0.283
Mof_F 	F 	0.41051	0.23979	0.3157	-0.228
Mof_F 	F 	0.39222	0.22164	0.25274	-0.183
Mof_F 	F 	0.4262	0.1779	0.29223	-0.283
Mof_F 	F 	0.08949	0.26021	0.3157	-0.228
Mof_F 	F 	0.10778	0.27836	0.25274	-0.183
Mof_F 	F 	0.0738	0.3221	0.29223	-0.283
Mof_F 	F 	0.08949	0.76021	0.8157	-0.228
Mof_F 	F 	0.10778	0.77836	0.75274	-0.183
Mof_F 	F 	0.0738	0.8221	0.79223	-0.283
Mof_F 	F 	0.58949	0.26021	0.8157	-0.228
Mof_F 	F 	0.60778	0.27836	0.75274	-0.183
Mof_F 	F 	0.5738	0.3221	0.79223	-0.283
Mof_F 	F 	0.58949	0.76021	0.3157	-0.228
Mof_F 	F 	0.60778	0.77836	0.25274	-0.183
Mof_F 	F 	0.5738	0.8221	0.29223	-0.283
Mof_F 	F 	0.08949	0.73979	0.6843	-0.228
Mof_F 	F 	0.10778	0.72164	0.74726	-0.183
Mof_F 	F 	0.0738	0.6779	0.70777	-0.283
Mof_F 	F 	0.08949	0.23979	0.1843	-0.228
Mof_F 	F 	0.10778	0.22164	0.24726	-0.183
Mof_F 	F 	0.0738	0.1779	0.20777	-0.283
Mof_F 	F 	0.58949	0.73979	0.1843	-0.228
Mof_F 	F 	0.60778	0.72164	0.24726	-0.183
Mof_F 	F 	0.5738	0.6779	0.20777	-0.283
Mof_F 	F 	0.58949	0.23979	0.6843	-0.228
Mof_F 	F 	0.60778	0.22164	0.74726	-0.183
Mof_F 	F 	0.5738	0.1779	0.70777	-0.283
Mof_F 	F 	0.6843	0.73979	0.08949	-0.228
Mof_F 	F 	0.74726	0.72164	0.10778	-0.183
Mof_F 	F 	0.70777	0.6779	0.0738	-0.283
Mof_F 	F 	0.6843	0.23979	0.58949	-0.228
Mof_F 	F 	0.74726	0.22164	0.60778	-0.183
Mof_F 	F 	0.70777	0.1779	0.5738	-0.283
Mof_F 	F 	0.1843	0.73979	0.58949	-0.228
Mof_F 	F 	0.24726	0.72164	0.60778	-0.183
Mof_F 	F 	0.20777	0.6779	0.5738	-0.283
Mof_F 	F 	0.1843	0.23979	0.08949	-0.228
Mof_F 	F 	0.24726	0.22164	0.10778	-0.183
Mof_F 	F 	0.20777	0.1779	0.0738	-0.283
Mof_F 	F 	0.3157	0.26021	0.08949	-0.228
Mof_F 	F 	0.25274	0.27836	0.10778	-0.183
Mof_F 	F 	0.29223	0.3221	0.0738	-0.283
Mof_F 	F 	0.3157	0.76021	0.58949	-0.228
Mof_F 	F 	0.25274	0.77836	0.60778	-0.183
Mof_F 	F 	0.29223	0.8221	0.5738	-0.283
Mof_F 	F 	0.8157	0.26021	0.58949	-0.228
Mof_F 	F 	0.75274	0.27836	0.60778	-0.183
Mof_F 	F 	0.79223	0.3221	0.5738	-0.283
Mof_F 	F 	0.8157	0.76021	0.08949	-0.228
Mof_F 	F 	0.75274	0.77836	0.10778	-0.183
Mof_F 	F 	0.79223	0.8221	0.0738	-0.283
Mof_F 	F 	0.3157	0.73979	0.91051	-0.229
Mof_F 	F 	0.25274	0.72164	0.89222	-0.183
Mof_F 	F 	0.29223	0.6779	0.9262	-0.284
Mof_F 	F 	0.3157	0.23979	0.41051	-0.228
Mof_F 	F 	0.25274	0.22164	0.39222	-0.183
Mof_F 	F 	0.29223	0.1779	0.4262	-0.283
Mof_F 	F 	0.8157	0.73979	0.41051	-0.229
Mof_F 	F 	0.75274	0.72164	0.39222	-0.183
Mof_F 	F 	0.79223	0.6779	0.4262	-0.283
Mof_F 	F 	0.8157	0.23979	0.91051	-0.229
Mof_F 	F 	0.75274	0.22164	0.89222	-0.183
Mof_F 	F 	0.79223	0.1779	0.9262	-0.284
Mof_F 	F 	0.6843	0.26021	0.91051	-0.229
Mof_F 	F 	0.74726	0.27836	0.89222	-0.183
Mof_F 	F 	0.70777	0.3221	0.9262	-0.284
Mof_F 	F 	0.6843	0.76021	0.41051	-0.228
Mof_F 	F 	0.74726	0.77836	0.39222	-0.183
Mof_F 	F 	0.70777	0.8221	0.4262	-0.283
Mof_F 	F 	0.1843	0.26021	0.41051	-0.228
Mof_F 	F 	0.24726	0.27836	0.39222	-0.183
Mof_F 	F 	0.20777	0.3221	0.4262	-0.283
Mof_F 	F 	0.1843	0.76021	0.91051	-0.229
Mof_F 	F 	0.24726	0.77836	0.89222	-0.183
Mof_F 	F 	0.20777	0.8221	0.9262	-0.284
Mof_F 	F 	0.08949	0.6843	0.73979	-0.228
Mof_F 	F 	0.10778	0.74726	0.72164	-0.183
Mof_F 	F 	0.0738	0.70777	0.6779	-0.283
Mof_F 	F 	0.08949	0.1843	0.23979	-0.228
Mof_F 	F 	0.10778	0.24726	0.22164	-0.183
Mof_F 	F 	0.0738	0.20777	0.1779	-0.283
Mof_F 	F 	0.58949	0.6843	0.23979	-0.228
Mof_F 	F 	0.60778	0.74726	0.22164	-0.183
Mof_F 	F 	0.5738	0.70777	0.1779	-0.283
Mof_F 	F 	0.58949	0.1843	0.73979	-0.228
Mof_F 	F 	0.60778	0.24726	0.72164	-0.183
Mof_F 	F 	0.5738	0.20777	0.6779	-0.283
Mof_F 	F 	0.08949	0.3157	0.26021	-0.228
Mof_F 	F 	0.10778	0.25274	0.27836	-0.183
Mof_F 	F 	0.0738	0.29223	0.3221	-0.283
Mof_F 	F 	0.08949	0.8157	0.76021	-0.228
Mof_F 	F 	0.10778	0.75274	0.77836	-0.183
Mof_F 	F 	0.0738	0.79223	0.8221	-0.283
Mof_F 	F 	0.58949	0.3157	0.76021	-0.228
Mof_F 	F 	0.60778	0.25274	0.77836	-0.183
Mof_F 	F 	0.5738	0.29223	0.8221	-0.283
Mof_F 	F 	0.58949	0.8157	0.26021	-0.228
Mof_F 	F 	0.60778	0.75274	0.27836	-0.183
Mof_F 	F 	0.5738	0.79223	0.3221	-0.283
Mof_F 	F 	0.91051	0.3157	0.73979	-0.229
Mof_F 	F 	0.89222	0.25274	0.72164	-0.183
Mof_F 	F 	0.9262	0.29223	0.6779	-0.284
Mof_F 	F 	0.91051	0.8157	0.23979	-0.229
Mof_F 	F 	0.89222	0.75274	0.22164	-0.183
Mof_F 	F 	0.9262	0.79223	0.1779	-0.284
Mof_F 	F 	0.41051	0.3157	0.23979	-0.228
Mof_F 	F 	0.39222	0.25274	0.22164	-0.183
Mof_F 	F 	0.4262	0.29223	0.1779	-0.283
Mof_F 	F 	0.41051	0.8157	0.73979	-0.229
Mof_F 	F 	0.39222	0.75274	0.72164	-0.183
Mof_F 	F 	0.4262	0.79223	0.6779	-0.283
Mof_F 	F 	0.91051	0.6843	0.26021	-0.229
Mof_F 	F 	0.89222	0.74726	0.27836	-0.183
Mof_F 	F 	0.9262	0.70777	0.3221	-0.284
Mof_F 	F 	0.91051	0.1843	0.76021	-0.229
Mof_F 	F 	0.89222	0.24726	0.77836	-0.183
Mof_F 	F 	0.9262	0.20777	0.8221	-0.284
Mof_F 	F 	0.41051	0.6843	0.76021	-0.228
Mof_F 	F 	0.39222	0.74726	0.77836	-0.183
Mof_F 	F 	0.4262	0.70777	0.8221	-0.283
Mof_F 	F 	0.41051	0.1843	0.26021	-0.228
Mof_F 	F 	0.39222	0.24726	0.27836	-0.183
Mof_F 	F 	0.4262	0.20777	0.3221	-0.283
Mof_F 	F 	0.73979	0.08949	0.6843	-0.228
Mof_F 	F 	0.72164	0.10778	0.74726	-0.183
Mof_F 	F 	0.6779	0.0738	0.70777	-0.283
Mof_F 	F 	0.73979	0.58949	0.1843	-0.228
Mof_F 	F 	0.72164	0.60778	0.24726	-0.183
Mof_F 	F 	0.6779	0.5738	0.20777	-0.283
Mof_F 	F 	0.23979	0.08949	0.1843	-0.228
Mof_F 	F 	0.22164	0.10778	0.24726	-0.183
Mof_F 	F 	0.1779	0.0738	0.20777	-0.283
Mof_F 	F 	0.23979	0.58949	0.6843	-0.228
Mof_F 	F 	0.22164	0.60778	0.74726	-0.183
Mof_F 	F 	0.1779	0.5738	0.70777	-0.283
Mof_F 	F 	0.26021	0.08949	0.3157	-0.228
Mof_F 	F 	0.27836	0.10778	0.25274	-0.183
Mof_F 	F 	0.3221	0.0738	0.29223	-0.283
Mof_F 	F 	0.26021	0.58949	0.8157	-0.228
Mof_F 	F 	0.27836	0.60778	0.75274	-0.183
Mof_F 	F 	0.3221	0.5738	0.79223	-0.283
Mof_F 	F 	0.76021	0.08949	0.8157	-0.228
Mof_F 	F 	0.77836	0.10778	0.75274	-0.183
Mof_F 	F 	0.8221	0.0738	0.79223	-0.283
Mof_F 	F 	0.76021	0.58949	0.3157	-0.228
Mof_F 	F 	0.77836	0.60778	0.25274	-0.183
Mof_F 	F 	0.8221	0.5738	0.29223	-0.283
Mof_F 	F 	0.73979	0.91051	0.3157	-0.229
Mof_F 	F 	0.72164	0.89222	0.25274	-0.183
Mof_F 	F 	0.6779	0.9262	0.29223	-0.284
Mof_F 	F 	0.73979	0.41051	0.8157	-0.229
Mof_F 	F 	0.72164	0.39222	0.75274	-0.183
Mof_F 	F 	0.6779	0.4262	0.79223	-0.283
Mof_F 	F 	0.23979	0.91051	0.8157	-0.229
Mof_F 	F 	0.22164	0.89222	0.75274	-0.183
Mof_F 	F 	0.1779	0.9262	0.79223	-0.284
Mof_F 	F 	0.23979	0.41051	0.3157	-0.228
Mof_F 	F 	0.22164	0.39222	0.25274	-0.183
Mof_F 	F 	0.1779	0.4262	0.29223	-0.283
Mof_F 	F 	0.26021	0.91051	0.6843	-0.229
Mof_F 	F 	0.27836	0.89222	0.74726	-0.183
Mof_F 	F 	0.3221	0.9262	0.70777	-0.284
Mof_F 	F 	0.26021	0.41051	0.1843	-0.228
Mof_F 	F 	0.27836	0.39222	0.24726	-0.183
Mof_F 	F 	0.3221	0.4262	0.20777	-0.283
Mof_F 	F 	0.76021	0.91051	0.1843	-0.229
Mof_F 	F 	0.77836	0.89222	0.24726	-0.183
Mof_F 	F 	0.8221	0.9262	0.20777	-0.284
Mof_F 	F 	0.76021	0.41051	0.6843	-0.228
Mof_F 	F 	0.77836	0.39222	0.74726	-0.183
Mof_F 	F 	0.8221	0.4262	0.70777	-0.283
Mof_F 	F 	0.73979	0.6843	0.91051	-0.229
Mof_F 	F 	0.72164	0.74726	0.89222	-0.183
Mof_F 	F 	0.6779	0.70777	0.9262	-0.284
Mof_F 	F 	0.73979	0.1843	0.41051	-0.228
Mof_F 	F 	0.72164	0.24726	0.39222	-0.183
Mof_F 	F 	0.6779	0.20777	0.4262	-0.283
Mof_F 	F 	0.23979	0.6843	0.41051	-0.228
Mof_F 	F 	0.22164	0.74726	0.39222	-0.183
Mof_F 	F 	0.1779	0.70777	0.4262	-0.283
Mof_F 	F 	0.23979	0.1843	0.91051	-0.229
Mof_F 	F 	0.22164	0.24726	0.89222	-0.183
Mof_F 	F 	0.1779	0.20777	0.9262	-0.284
Mof_F 	F 	0.26021	0.3157	0.91051	-0.229
Mof_F 	F 	0.27836	0.25274	0.89222	-0.183
Mof_F 	F 	0.3221	0.29223	0.9262	-0.284
Mof_F 	F 	0.26021	0.8157	0.41051	-0.228
Mof_F 	F 	0.27836	0.75274	0.39222	-0.183
Mof_F 	F 	0.3221	0.79223	0.4262	-0.283
Mof_F 	F 	0.76021	0.3157	0.41051	-0.228
Mof_F 	F 	0.77836	0.25274	0.39222	-0.183
Mof_F 	F 	0.8221	0.29223	0.4262	-0.283
Mof_F 	F 	0.76021	0.8157	0.91051	-0.229
Mof_F 	F 	0.77836	0.75274	0.89222	-0.183
Mof_F 	F 	0.8221	0.79223	0.9262	-0.284
Mof_F 	F 	0.73979	0.3157	0.08949	-0.228
Mof_F 	F 	0.72164	0.25274	0.10778	-0.183
Mof_F 	F 	0.6779	0.29223	0.0738	-0.283
Mof_F 	F 	0.73979	0.8157	0.58949	-0.229
Mof_F 	F 	0.72164	0.75274	0.60778	-0.183
Mof_F 	F 	0.6779	0.79223	0.5738	-0.283
Mof_F 	F 	0.23979	0.3157	0.58949	-0.228
Mof_F 	F 	0.22164	0.25274	0.60778	-0.183
Mof_F 	F 	0.1779	0.29223	0.5738	-0.283
Mof_F 	F 	0.23979	0.8157	0.08949	-0.228
Mof_F 	F 	0.22164	0.75274	0.10778	-0.183
Mof_F 	F 	0.1779	0.79223	0.0738	-0.283
Mof_F 	F 	0.26021	0.6843	0.08949	-0.228
Mof_F 	F 	0.27836	0.74726	0.10778	-0.183
Mof_F 	F 	0.3221	0.70777	0.0738	-0.283
Mof_F 	F 	0.26021	0.1843	0.58949	-0.228
Mof_F 	F 	0.27836	0.24726	0.60778	-0.183
Mof_F 	F 	0.3221	0.20777	0.5738	-0.283
Mof_F 	F 	0.76021	0.6843	0.58949	-0.228
Mof_F 	F 	0.77836	0.74726	0.60778	-0.183
Mof_F 	F 	0.8221	0.70777	0.5738	-0.283
Mof_F 	F 	0.76021	0.1843	0.08949	-0.228
Mof_F 	F 	0.77836	0.24726	0.10778	-0.183
Mof_F 	F 	0.8221	0.20777	0.0738	-0.283
Mof_F 	F 	0.6843	0.08949	0.26021	-0.228
Mof_F 	F 	0.74726	0.10778	0.27836	-0.183
Mof_F 	F 	0.70777	0.0738	0.3221	-0.283
Mof_F 	F 	0.6843	0.58949	0.76021	-0.228
Mof_F 	F 	0.74726	0.60778	0.77836	-0.183
Mof_F 	F 	0.70777	0.5738	0.8221	-0.283
Mof_F 	F 	0.1843	0.08949	0.76021	-0.228
Mof_F 	F 	0.24726	0.10778	0.77836	-0.183
Mof_F 	F 	0.20777	0.0738	0.8221	-0.283
Mof_F 	F 	0.1843	0.58949	0.26021	-0.228
Mof_F 	F 	0.24726	0.60778	0.27836	-0.183
Mof_F 	F 	0.20777	0.5738	0.3221	-0.283
Mof_F 	F 	0.3157	0.08949	0.73979	-0.228
Mof_F 	F 	0.25274	0.10778	0.72164	-0.183
Mof_F 	F 	0.29223	0.0738	0.6779	-0.283
Mof_F 	F 	0.3157	0.58949	0.23979	-0.228
Mof_F 	F 	0.25274	0.60778	0.22164	-0.183
Mof_F 	F 	0.29223	0.5738	0.1779	-0.283
Mof_F 	F 	0.8157	0.08949	0.23979	-0.228
Mof_F 	F 	0.75274	0.10778	0.22164	-0.183
Mof_F 	F 	0.79223	0.0738	0.1779	-0.283
Mof_F 	F 	0.8157	0.58949	0.73979	-0.229
Mof_F 	F 	0.75274	0.60778	0.72164	-0.183
Mof_F 	F 	0.79223	0.5738	0.6779	-0.283
Mof_F 	F 	0.3157	0.91051	0.26021	-0.229
Mof_F 	F 	0.25274	0.89222	0.27836	-0.183
Mof_F 	F 	0.29223	0.9262	0.3221	-0.284
Mof_F 	F 	0.3157	0.41051	0.76021	-0.228
Mof_F 	F 	0.25274	0.39222	0.77836	-0.183
Mof_F 	F 	0.29223	0.4262	0.8221	-0.283
Mof_F 	F 	0.8157	0.91051	0.76021	-0.229
Mof_F 	F 	0.75274	0.89222	0.77836	-0.183
Mof_F 	F 	0.79223	0.9262	0.8221	-0.284
Mof_F 	F 	0.8157	0.41051	0.26021	-0.228
Mof_F 	F 	0.75274	0.39222	0.27836	-0.183
Mof_F 	F 	0.79223	0.4262	0.3221	-0.283
Mof_F 	F 	0.6843	0.91051	0.73979	-0.229
Mof_F 	F 	0.74726	0.89222	0.72164	-0.183
Mof_F 	F 	0.70777	0.9262	0.6779	-0.284
Mof_F 	F 	0.6843	0.41051	0.23979	-0.228
Mof_F 	F 	0.74726	0.39222	0.22164	-0.183
Mof_F 	F 	0.70777	0.4262	0.1779	-0.283
Mof_F 	F 	0.1843	0.91051	0.23979	-0.229
Mof_F 	F 	0.24726	0.89222	0.22164	-0.183
Mof_F 	F 	0.20777	0.9262	0.1779	-0.284
Mof_F 	F 	0.1843	0.41051	0.73979	-0.228
Mof_F 	F 	0.24726	0.39222	0.72164	-0.183
Mof_F 	F 	0.20777	0.4262	0.6779	-0.283
Mof_F 	F 	0.08949	0.73979	0.3157	-0.228
Mof_F 	F 	0.10778	0.72164	0.25274	-0.183
Mof_F 	F 	0.0738	0.6779	0.29223	-0.283
Mof_F 	F 	0.08949	0.23979	0.8157	-0.228
Mof_F 	F 	0.10778	0.22164	0.75274	-0.183
Mof_F 	F 	0.0738	0.1779	0.79223	-0.283
Mof_F 	F 	0.58949	0.73979	0.8157	-0.229
Mof_F 	F 	0.60778	0.72164	0.75274	-0.183
Mof_F 	F 	0.5738	0.6779	0.79223	-0.283
Mof_F 	F 	0.58949	0.23979	0.3157	-0.228
Mof_F 	F 	0.60778	0.22164	0.25274	-0.183
Mof_F 	F 	0.5738	0.1779	0.29223	-0.283
Mof_F 	F 	0.08949	0.26021	0.6843	-0.228
Mof_F 	F 	0.10778	0.27836	0.74726	-0.183
Mof_F 	F 	0.0738	0.3221	0.70777	-0.283
Mof_F 	F 	0.08949	0.76021	0.1843	-0.228
Mof_F 	F 	0.10778	0.77836	0.24726	-0.183
Mof_F 	F 	0.0738	0.8221	0.20777	-0.283
Mof_F 	F 	0.58949	0.26021	0.1843	-0.228
Mof_F 	F 	0.60778	0.27836	0.24726	-0.183
Mof_F 	F 	0.5738	0.3221	0.20777	-0.283
Mof_F 	F 	0.58949	0.76021	0.6843	-0.228
Mof_F 	F 	0.60778	0.77836	0.74726	-0.183
Mof_F 	F 	0.5738	0.8221	0.70777	-0.283
Mof_F 	F 	0.91051	0.73979	0.6843	-0.229
Mof_F 	F 	0.89222	0.72164	0.74726	-0.183
Mof_F 	F 	0.9262	0.6779	0.70777	-0.284
Mof_F 	F 	0.91051	0.23979	0.1843	-0.229
Mof_F 	F 	0.89222	0.22164	0.24726	-0.183
Mof_F 	F 	0.9262	0.1779	0.20777	-0.284
Mof_F 	F 	0.41051	0.73979	0.1843	-0.228
Mof_F 	F 	0.39222	0.72164	0.24726	-0.183
Mof_F 	F 	0.4262	0.6779	0.20777	-0.283
Mof_F 	F 	0.41051	0.23979	0.6843	-0.228
Mof_F 	F 	0.39222	0.22164	0.74726	-0.183
Mof_F 	F 	0.4262	0.1779	0.70777	-0.283
Mof_F 	F 	0.91051	0.26021	0.3157	-0.229
Mof_F 	F 	0.89222	0.27836	0.25274	-0.183
Mof_F 	F 	0.9262	0.3221	0.29223	-0.284
Mof_F 	F 	0.91051	0.76021	0.8157	-0.229
Mof_F 	F 	0.89222	0.77836	0.75274	-0.183
Mof_F 	F 	0.9262	0.8221	0.79223	-0.284
Mof_F 	F 	0.41051	0.26021	0.8157	-0.228
Mof_F 	F 	0.39222	0.27836	0.75274	-0.183
Mof_F 	F 	0.4262	0.3221	0.79223	-0.283
Mof_F 	F 	0.41051	0.76021	0.3157	-0.228
Mof_F 	F 	0.39222	0.77836	0.25274	-0.183
Mof_F 	F 	0.4262	0.8221	0.29223	-0.283
Mof_Ni	Ni	0.04076	0.04076	0.04076	1.098
Mof_Ni	Ni	0.04076	0.54076	0.54076	1.098
Mof_Ni	Ni	0.54076	0.04076	0.54076	1.098
Mof_Ni	Ni	0.54076	0.54076	0.04076	1.098
Mof_Ni	Ni	0.95924	0.95924	0.04076	1.096
Mof_Ni	Ni	0.95924	0.45924	0.54076	1.097
Mof_Ni	Ni	0.45924	0.95924	0.54076	1.097
Mof_Ni	Ni	0.45924	0.45924	0.04076	1.098
Mof_Ni	Ni	0.95924	0.04076	0.95924	1.096
Mof_Ni	Ni	0.95924	0.54076	0.45924	1.097
Mof_Ni	Ni	0.45924	0.04076	0.45924	1.098
Mof_Ni	Ni	0.45924	0.54076	0.95924	1.097
Mof_Ni	Ni	0.04076	0.95924	0.95924	1.096
Mof_Ni	Ni	0.04076	0.45924	0.45924	1.098
Mof_Ni	Ni	0.54076	0.95924	0.45924	1.097
Mof_Ni	Ni	0.54076	0.45924	0.95924	1.097
Mof_Ni	Ni	0.04076	0.04076	0.95924	1.097
Mof_Ni	Ni	0.04076	0.54076	0.45924	1.098
Mof_Ni	Ni	0.54076	0.04076	0.45924	1.098
Mof_Ni	Ni	0.54076	0.54076	0.95924	1.097
Mof_Ni	Ni	0.95924	0.95924	0.95924	1.096
Mof_Ni	Ni	0.95924	0.45924	0.45924	1.097
Mof_Ni	Ni	0.45924	0.95924	0.45924	1.097
Mof_Ni	Ni	0.45924	0.45924	0.95924	1.097
Mof_Ni	Ni	0.04076	0.95924	0.04076	1.097
Mof_Ni	Ni	0.04076	0.45924	0.54076	1.098
Mof_Ni	Ni	0.54076	0.95924	0.54076	1.097
Mof_Ni	Ni	0.54076	0.45924	0.04076	1.098
Mof_Ni	Ni	0.95924	0.04076	0.04076	1.097
Mof_Ni	Ni	0.95924	0.54076	0.54076	1.097
Mof_Ni	Ni	0.45924	0.04076	0.54076	1.098
Mof_Ni	Ni	0.45924	0.54076	0.04076	1.098
Mof_O 	O 	0.04707	0	-0	-0.759
Mof_H 	H 	0.07639	0	-0	0.104
Mof_O 	O 	0.04707	0.5	0.5	-0.761
Mof_H 	H 	0.07639	0.5	0.5	0.103
Mof_O 	O 	0.54707	-5.93741e-33	0.5	-0.76
Mof_H 	H 	0.57639	-5.93741e-33	0.5	0.104
Mof_O 	O 	0.54707	0.5	-0	-0.76
Mof_H 	H 	0.57639	0.5	-0	0.104
Mof_O 	O 	0.95293	0	-0	-0.76
Mof_H 	H 	0.92361	0	-0	0.105
Mof_O 	O 	0.95293	0.5	0.5	-0.763
Mof_H 	H 	0.92361	0.5	0.5	0.103
Mof_O 	O 	0.45293	-5.93741e-33	0.5	-0.76
Mof_H 	H 	0.42361	-5.93741e-33	0.5	0.104
Mof_O 	O 	0.45293	0.5	-0	-0.76
Mof_H 	H 	0.42361	0.5	-0	0.104
Mof_O 	O 	-0	0.04707	-0	-0.759
Mof_H 	H 	-0	0.07639	-0	0.104
Mof_O 	O 	-4.06271e-33	0.54707	0.5	-0.76
Mof_H 	H 	-1.00001e-32	0.57639	0.5	0.104
Mof_O 	O 	0.5	0.04707	0.5	-0.761
Mof_H 	H 	0.5	0.07639	0.5	0.103
Mof_O 	O 	0.5	0.54707	-0	-0.76
Mof_H 	H 	0.5	0.57639	-0	0.104
Mof_O 	O 	-0	0.95293	-0	-0.76
Mof_H 	H 	-0	0.92361	-0	0.105
Mof_O 	O 	-4.06271e-33	0.45293	0.5	-0.76
Mof_H 	H 	-1.00001e-32	0.42361	0.5	0.104
Mof_O 	O 	0.5	0.95293	0.5	-0.763
Mof_H 	H 	0.5	0.92361	0.5	0.103
Mof_O 	O 	0.5	0.45293	-0	-0.76
Mof_H 	H 	0.5	0.42361	-0	0.104
Mof_O 	O 	1.76484e-34	0	0.04707	-0.759
Mof_H 	H 	2.86417e-34	0	0.07639	0.104
Mof_O 	O 	-3.88623e-33	0.5	0.54707	-0.76
Mof_H 	H 	-9.71371e-33	0.5	0.57639	0.104
Mof_O 	O 	0.5	0	0.54707	-0.76
Mof_H 	H 	0.5	-5.93741e-33	0.57639	0.104
Mof_O 	O 	0.5	0.5	0.04707	-0.761
Mof_H 	H 	0.5	0.5	0.07639	0.103
Mof_O 	O 	3.57292e-33	0	0.95293	-0.76
Mof_H 	H 	3.46298e-33	0	0.92361	0.105
Mof_O 	O 	1.69822e-33	0.5	0.45293	-0.76
Mof_H 	H 	-4.34913e-33	0.5	0.42361	0.104
Mof_O 	O 	0.5	0	0.45293	-0.76
Mof_H 	H 	0.5	-2.96871e-33	0.42361	0.104
Mof_O 	O 	0.5	0.5	0.95293	-0.763
Mof_H 	H 	0.5	0.5	0.92361	0.103
Mof_C 	C 	0.28034	0.28034	-0	0.199
Mof_C 	C 	0.31307	0.31307	-0	0.142
Mof_C 	C 	0.34013	0.34013	-0	0.14
Mof_C 	C 	0.37287	0.37287	-0	0.056
Mof_C 	C 	0.28034	0.78034	0.5	0.195
Mof_C 	C 	0.31307	0.81307	0.5	0.141
Mof_C 	C 	0.34013	0.84013	0.5	0.14
Mof_C 	C 	0.37287	0.87287	0.5	0.051
Mof_C 	C 	0.78034	0.28034	0.5	0.195
Mof_C 	C 	0.81307	0.31307	0.5	0.141
Mof_C 	C 	0.84013	0.34013	0.5	0.14
Mof_C 	C 	0.87287	0.37287	0.5	0.051
Mof_C 	C 	0.78034	0.78034	-0	0.199
Mof_C 	C 	0.81307	0.81307	-0	0.142
Mof_C 	C 	0.84013	0.84013	-0	0.14
Mof_C 	C 	0.87287	0.87287	-0	0.056
Mof_C 	C 	0.71966	0.71966	-0	0.199
Mof_C 	C 	0.68693	0.68693	-0	0.142
Mof_C 	C 	0.65987	0.65987	-0	0.14
Mof_C 	C 	0.62713	0.62713	-0	0.056
Mof_C 	C 	0.71966	0.21966	0.5	0.195
Mof_C 	C 	0.68693	0.18693	0.5	0.141
Mof_C 	C 	0.65987	0.15987	0.5	0.14
Mof_C 	C 	0.62713	0.12713	0.5	0.051
Mof_C 	C 	0.21966	0.71966	0.5	0.195
Mof_C 	C 	0.18693	0.68693	0.5	0.141
Mof_C 	C 	0.15987	0.65987	0.5	0.14
Mof_C 	C 	0.12713	0.62713	0.5	0.051
Mof_C 	C 	0.21966	0.21966	-0	0.199
Mof_C 	C 	0.18693	0.18693	-0	0.142
Mof_C 	C 	0.15987	0.15987	-0	0.141
Mof_C 	C 	0.12713	0.12713	-0	0.057
Mof_C 	C 	0.71966	0.28034	-0	0.199
Mof_C 	C 	0.68693	0.31307	-0	0.142
Mof_C 	C 	0.65987	0.34013	-0	0.14
Mof_C 	C 	0.62713	0.37287	-0	0.056
Mof_C 	C 	0.71966	0.78034	0.5	0.195
Mof_C 	C 	0.68693	0.81307	0.5	0.141
Mof_C 	C 	0.65987	0.84013	0.5	0.14
Mof_C 	C 	0.62713	0.87287	0.5	0.051
Mof_C 	C 	0.21966	0.28034	0.5	0.196
Mof_C 	C 	0.18693	0.31307	0.5	0.141
Mof_C 	C 	0.15987	0.34013	0.5	0.14
Mof_C 	C 	0.12713	0.37287	0.5	0.051
Mof_C 	C 	0.21966	0.78034	-0	0.199
Mof_C 	C 	0.18693	0.81307	-0	0.142
Mof_C 	C 	0.15987	0.84013	-0	0.14
Mof_C 	C 	0.12713	0.87287	-0	0.056
Mof_C 	C 	0.28034	0.71966	-0	0.199
Mof_C 	C 	0.31307	0.68693	-0	0.142
Mof_C 	C 	0.34013	0.65987	-0	0.14
Mof_C 	C 	0.37287	0.62713	-0	0.056
Mof_C 	C 	0.28034	0.21966	0.5	0.196
Mof_C 	C 	0.31307	0.18693	0.5	0.141
Mof_C 	C 	0.34013	0.15987	0.5	0.14
Mof_C 	C 	0.37287	0.12713	0.5	0.051
Mof_C 	C 	0.78034	0.71966	0.5	0.195
Mof_C 	C 	0.81307	0.68693	0.5	0.141
Mof_C 	C 	0.84013	0.65987	0.5	0.14
Mof_C 	C 	0.87287	0.62713	0.5	0.051
Mof_C 	C 	0.78034	0.21966	-0	0.199
Mof_C 	C 	0.81307	0.18693	-0	0.142
Mof_C 	C 	0.84013	0.15987	-0	0.14
Mof_C 	C 	0.87287	0.12713	-0	0.056
Mof_C 	C 	1.05111e-33	0.28034	0.28034	0.199
Mof_C 	C 	7.11124e-33	0.31307	0.31307	0.142
Mof_C 	C 	1.27528e-33	0.34013	0.34013	0.14
Mof_C 	C 	1.39804e-33	0.37287	0.37287	0.056
Mof_C 	C 	2.92581e-33	0.78034	0.78034	0.199
Mof_C 	C 	-8.8263e-33	0.81307	0.81307	0.142
Mof_C 	C 	3.14998e-33	0.84013	0.84013	0.14
Mof_C 	C 	-8.60209e-33	0.87287	0.87287	0.056
Mof_C 	C 	0.5	0.28034	0.78034	0.195
Mof_C 	C 	0.5	0.31307	0.81307	0.141
Mof_C 	C 	0.5	0.34013	0.84013	0.14
Mof_C 	C 	0.5	0.37287	0.87287	0.051
Mof_C 	C 	0.5	0.78034	0.28034	0.195
Mof_C 	C 	0.5	0.81307	0.31307	0.141
Mof_C 	C 	0.5	0.84013	0.34013	0.14
Mof_C 	C 	0.5	0.87287	0.37287	0.051
Mof_C 	C 	-9.17654e-33	0.71966	0.71966	0.199
Mof_C 	C 	2.57557e-33	0.68693	0.68693	0.142
Mof_C 	C 	-9.40071e-33	0.65987	0.65987	0.14
Mof_C 	C 	2.35136e-33	0.62713	0.62713	0.056
Mof_C 	C 	8.23593e-34	0.21966	0.21966	0.199
Mof_C 	C 	-2.26783e-33	0.18693	0.18693	0.142
Mof_C 	C 	5.99416e-34	0.15987	0.15987	0.141
Mof_C 	C 	4.76661e-34	0.12713	0.12713	0.057
Mof_C 	C 	0.5	0.71966	0.21966	0.195
Mof_C 	C 	0.5	0.68693	0.18693	0.141
Mof_C 	C 	0.5	0.65987	0.15987	0.14
Mof_C 	C 	0.5	0.62713	0.12713	0.051
Mof_C 	C 	0.5	0.21966	0.71966	0.195
Mof_C 	C 	0.5	0.18693	0.68693	0.141
Mof_C 	C 	0.5	0.15987	0.65987	0.14
Mof_C 	C 	0.5	0.12713	0.62713	0.051
Mof_C 	C 	-4.88631e-33	0.71966	0.28034	0.199
Mof_C 	C 	-4.76359e-33	0.68693	0.31307	0.142
Mof_C 	C 	-1.69342e-33	0.65987	0.34013	0.14
Mof_C 	C 	-4.53938e-33	0.62713	0.37287	0.056
Mof_C 	C 	-3.01161e-33	0.21966	0.78034	0.199
Mof_C 	C 	-8.8263e-33	0.18693	0.81307	0.142
Mof_C 	C 	-8.72484e-33	0.15987	0.84013	0.14
Mof_C 	C 	-8.60209e-33	0.12713	0.87287	0.056
Mof_C 	C 	0.5	0.71966	0.78034	0.195
Mof_C 	C 	0.5	0.68693	0.81307	0.141
Mof_C 	C 	0.5	0.65987	0.84013	0.14
Mof_C 	C 	0.5	0.62713	0.87287	0.051
Mof_C 	C 	0.5	0.21966	0.28034	0.196
Mof_C 	C 	0.5	0.18693	0.31307	0.141
Mof_C 	C 	0.5	0.15987	0.34013	0.14
Mof_C 	C 	0.5	0.12713	0.37287	0.051
Mof_C 	C 	-9.17654e-33	0.28034	0.71966	0.199
Mof_C 	C 	-9.29925e-33	0.31307	0.68693	0.142
Mof_C 	C 	-3.4633e-33	0.34013	0.65987	0.14
Mof_C 	C 	-9.52347e-33	0.37287	0.62713	0.056
Mof_C 	C 	-5.11382e-33	0.78034	0.21966	0.199
Mof_C 	C 	-9.6896e-33	0.81307	0.18693	0.142
Mof_C 	C 	-9.79106e-33	0.84013	0.15987	0.14
Mof_C 	C 	-6.94511e-33	0.87287	0.12713	0.056
Mof_C 	C 	0.5	0.28034	0.21966	0.196
Mof_C 	C 	0.5	0.31307	0.18693	0.141
Mof_C 	C 	0.5	0.34013	0.15987	0.14
Mof_C 	C 	0.5	0.37287	0.12713	0.051
Mof_C 	C 	0.5	0.78034	0.71966	0.195
Mof_C 	C 	0.5	0.81307	0.68693	0.141
Mof_C 	C 	0.5	0.84013	0.65987	0.14
Mof_C 	C 	0.5	0.87287	0.62713	0.051
Mof_C 	C 	0.28034	0	0.28034	0.199
Mof_C 	C 	0.31307	2.96871e-33	0.31307	0.142
Mof_C 	C 	0.34013	0	0.34013	0.14
Mof_C 	C 	0.37287	0	0.37287	0.056
Mof_C 	C 	0.28034	0.5	0.78034	0.195
Mof_C 	C 	0.31307	0.5	0.81307	0.141
Mof_C 	C 	0.34013	0.5	0.84013	0.14
Mof_C 	C 	0.37287	0.5	0.87287	0.051
Mof_C 	C 	0.78034	0	0.78034	0.199
Mof_C 	C 	0.81307	-5.93741e-33	0.81307	0.142
Mof_C 	C 	0.84013	0	0.84013	0.14
Mof_C 	C 	0.87287	-5.93741e-33	0.87287	0.056
Mof_C 	C 	0.78034	0.5	0.28034	0.195
Mof_C 	C 	0.81307	0.5	0.31307	0.141
Mof_C 	C 	0.84013	0.5	0.34013	0.14
Mof_C 	C 	0.87287	0.5	0.37287	0.051
Mof_C 	C 	0.71966	-5.93741e-33	0.71966	0.199
Mof_C 	C 	0.68693	0	0.68693	0.142
Mof_C 	C 	0.65987	-5.93741e-33	0.65987	0.14
Mof_C 	C 	0.62713	0	0.62713	0.056
Mof_C 	C 	0.71966	0.5	0.21966	0.195
Mof_C 	C 	0.68693	0.5	0.18693	0.141
Mof_C 	C 	0.65987	0.5	0.15987	0.14
Mof_C 	C 	0.62713	0.5	0.12713	0.051
Mof_C 	C 	0.21966	0	0.21966	0.199
Mof_C 	C 	0.18693	-1.48435e-33	0.18693	0.142
Mof_C 	C 	0.15987	0	0.15987	0.141
Mof_C 	C 	0.12713	0	0.12713	0.057
Mof_C 	C 	0.21966	0.5	0.71966	0.195
Mof_C 	C 	0.18693	0.5	0.68693	0.141
Mof_C 	C 	0.15987	0.5	0.65987	0.14
Mof_C 	C 	0.12713	0.5	0.62713	0.051
Mof_C 	C 	0.28034	-5.93741e-33	0.71966	0.199
Mof_C 	C 	0.31307	0	0.68693	0.142
Mof_C 	C 	0.34013	-5.93741e-33	0.65987	0.14
Mof_C 	C 	0.37287	0	0.62713	0.056
Mof_C 	C 	0.28034	0.5	0.21966	0.196
Mof_C 	C 	0.31307	0.5	0.18693	0.141
Mof_C 	C 	0.34013	0.5	0.15987	0.14
Mof_C 	C 	0.37287	0.5	0.12713	0.051
Mof_C 	C 	0.78034	0	0.21966	0.199
Mof_C 	C 	0.81307	-1.48435e-33	0.18693	0.142
Mof_C 	C 	0.84013	0	0.15987	0.14
Mof_C 	C 	0.87287	0	0.12713	0.056
Mof_C 	C 	0.78034	0.5	0.71966	0.195
Mof_C 	C 	0.81307	0.5	0.68693	0.141
Mof_C 	C 	0.84013	0.5	0.65987	0.14
Mof_C 	C 	0.87287	0.5	0.62713	0.051
Mof_C 	C 	0.71966	0	0.28034	0.199
Mof_C 	C 	0.68693	2.96871e-33	0.31307	0.142
Mof_C 	C 	0.65987	0	0.34013	0.14
Mof_C 	C 	0.62713	0	0.37287	0.056
Mof_C 	C 	0.71966	0.5	0.78034	0.195
Mof_C 	C 	0.68693	0.5	0.81307	0.141
Mof_C 	C 	0.65987	0.5	0.84013	0.14
Mof_C 	C 	0.62713	0.5	0.87287	0.051
Mof_C 	C 	0.21966	0	0.78034	0.199
Mof_C 	C 	0.18693	-5.93741e-33	0.81307	0.142
Mof_C 	C 	0.15987	0	0.84013	0.14
Mof_C 	C 	0.12713	-5.93741e-33	0.87287	0.056
Mof_C 	C 	0.21966	0.5	0.28034	0.196
Mof_C 	C 	0.18693	0.5	0.31307	0.141
Mof_C 	C 	0.15987	0.5	0.34013	0.14
Mof_C 	C 	0.12713	0.5	0.37287	0.051
Mof_C 	C 	0.26517	0.26517	0.96285	-0.072
Mof_C 	C 	0.28197	0.28197	0.92168	1.065
Mof_C 	C 	0.39032	0.39032	0.96604	0.037
Mof_H 	H 	0.38391	0.38391	0.93816	0.095
Mof_N 	N 	0.41854	0.41854	0.97901	-0.21
Mof_C 	C 	0.26517	0.76517	0.46285	-0.069
Mof_C 	C 	0.28197	0.78197	0.42168	1.065
Mof_C 	C 	0.39032	0.89032	0.46604	0.042
Mof_H 	H 	0.38391	0.88391	0.43816	0.094
Mof_N 	N 	0.41854	0.91854	0.47901	-0.209
Mof_C 	C 	0.76517	0.26517	0.46285	-0.069
Mof_C 	C 	0.78197	0.28197	0.42168	1.065
Mof_C 	C 	0.89032	0.39032	0.46604	0.042
Mof_H 	H 	0.88391	0.38391	0.43816	0.094
Mof_N 	N 	0.91854	0.41854	0.47901	-0.209
Mof_C 	C 	0.76517	0.76517	0.96285	-0.072
Mof_C 	C 	0.78197	0.78197	0.92168	1.065
Mof_C 	C 	0.89032	0.89032	0.96604	0.037
Mof_H 	H 	0.88391	0.88391	0.93816	0.095
Mof_N 	N 	0.91854	0.91854	0.97901	-0.21
Mof_C 	C 	0.73483	0.73483	0.96285	-0.072
Mof_C 	C 	0.71803	0.71803	0.92168	1.065
Mof_C 	C 	0.60968	0.60968	0.96604	0.037
Mof_H 	H 	0.61609	0.61609	0.93816	0.095
Mof_N 	N 	0.58146	0.58146	0.97901	-0.21
Mof_C 	C 	0.73483	0.23483	0.46285	-0.069
Mof_C 	C 	0.71803	0.21803	0.42168	1.064
Mof_C 	C 	0.60968	0.10968	0.46604	0.042
Mof_H 	H 	0.61609	0.11609	0.43816	0.094
Mof_N 	N 	0.58146	0.08146	0.47901	-0.209
Mof_C 	C 	0.23483	0.73483	0.46285	-0.069
Mof_C 	C 	0.21803	0.71803	0.42168	1.064
Mof_C 	C 	0.10968	0.60968	0.46604	0.042
Mof_H 	H 	0.11609	0.61609	0.43816	0.094
Mof_N 	N 	0.08146	0.58146	0.47901	-0.209
Mof_C 	C 	0.23483	0.23483	0.96285	-0.072
Mof_C 	C 	0.21803	0.21803	0.92168	1.065
Mof_C 	C 	0.10968	0.10968	0.96604	0.037
Mof_H 	H 	0.11609	0.11609	0.93816	0.095
Mof_N 	N 	0.08146	0.08146	0.97901	-0.209
Mof_C 	C 	0.73483	0.26517	0.03715	-0.069
Mof_C 	C 	0.71803	0.28197	0.07832	1.065
Mof_C 	C 	0.60968	0.39032	0.03396	0.041
Mof_H 	H 	0.61609	0.38391	0.06184	0.094
Mof_N 	N 	0.58146	0.41854	0.02099	-0.207
Mof_C 	C 	0.73483	0.76517	0.53715	-0.069
Mof_C 	C 	0.71803	0.78197	0.57832	1.065
Mof_C 	C 	0.60968	0.89032	0.53396	0.042
Mof_H 	H 	0.61609	0.88391	0.56184	0.094
Mof_N 	N 	0.58146	0.91854	0.52099	-0.209
Mof_C 	C 	0.23483	0.26517	0.53715	-0.069
Mof_C 	C 	0.21803	0.28197	0.57832	1.064
Mof_C 	C 	0.10968	0.39032	0.53396	0.042
Mof_H 	H 	0.11609	0.38391	0.56184	0.094
Mof_N 	N 	0.08146	0.41854	0.52099	-0.209
Mof_C 	C 	0.23483	0.76517	0.03715	-0.069
Mof_C 	C 	0.21803	0.78197	0.07832	1.065
Mof_C 	C 	0.10968	0.89032	0.03396	0.041
Mof_H 	H 	0.11609	0.88391	0.06184	0.094
Mof_N 	N 	0.08146	0.91854	0.02099	-0.207
Mof_C 	C 	0.26517	0.73483	0.03715	-0.069
Mof_C 	C 	0.28197	0.71803	0.07832	1.065
Mof_C 	C 	0.39032	0.60968	0.03396	0.041
Mof_H 	H 	0.38391	0.61609	0.06184	0.094
Mof_N 	N 	0.41854	0.58146	0.02099	-0.207
Mof_C 	C 	0.26517	0.23483	0.53715	-0.069
Mof_C 	C 	0.28197	0.21803	0.57832	1.064
Mof_C 	C 	0.39032	0.10968	0.53396	0.042
Mof_H 	H 	0.38391	0.11609	0.56184	0.094
Mof_N 	N 	0.41854	0.08146	0.52099	-0.209
Mof_C 	C 	0.76517	0.73483	0.53715	-0.069
Mof_C 	C 	0.78197	0.71803	0.57832	1.065
Mof_C 	C 	0.89032	0.60968	0.53396	0.042
Mof_H 	H 	0.88391	0.61609	0.56184	0.094
Mof_N 	N 	0.91854	0.58146	0.52099	-0.209
Mof_C 	C 	0.76517	0.23483	0.03715	-0.069
Mof_C 	C 	0.78197	0.21803	0.07832	1.065
Mof_C 	C 	0.89032	0.10968	0.03396	0.041
Mof_H 	H 	0.88391	0.11609	0.06184	0.094
Mof_N 	N 	0.91854	0.08146	0.02099	-0.207
Mof_C 	C 	0.96285	0.26517	0.26517	-0.072
Mof_C 	C 	0.92168	0.28197	0.28197	1.065
Mof_C 	C 	0.96604	0.39032	0.39032	0.037
Mof_H 	H 	0.93816	0.38391	0.38391	0.095
Mof_N 	N 	0.97901	0.41854	0.41854	-0.21
Mof_C 	C 	0.96285	0.76517	0.76517	-0.072
Mof_C 	C 	0.92168	0.78197	0.78197	1.065
Mof_C 	C 	0.96604	0.89032	0.89032	0.037
Mof_H 	H 	0.93816	0.88391	0.88391	0.095
Mof_N 	N 	0.97901	0.91854	0.91854	-0.21
Mof_C 	C 	0.46285	0.26517	0.76517	-0.069
Mof_C 	C 	0.42168	0.28197	0.78197	1.065
Mof_C 	C 	0.46604	0.39032	0.89032	0.042
Mof_H 	H 	0.43816	0.38391	0.88391	0.094
Mof_N 	N 	0.47901	0.41854	0.91854	-0.209
Mof_C 	C 	0.46285	0.76517	0.26517	-0.069
Mof_C 	C 	0.42168	0.78197	0.28197	1.065
Mof_C 	C 	0.46604	0.89032	0.39032	0.042
Mof_H 	H 	0.43816	0.88391	0.38391	0.094
Mof_N 	N 	0.47901	0.91854	0.41854	-0.209
Mof_C 	C 	0.96285	0.73483	0.73483	-0.072
Mof_C 	C 	0.92168	0.71803	0.71803	1.065
Mof_C 	C 	0.96604	0.60968	0.60968	0.037
Mof_H 	H 	0.93816	0.61609	0.61609	0.095
Mof_N 	N 	0.97901	0.58146	0.58146	-0.21
Mof_C 	C 	0.96285	0.23483	0.23483	-0.072
Mof_C 	C 	0.92168	0.21803	0.21803	1.065
Mof_C 	C 	0.96604	0.10968	0.10968	0.037
Mof_H 	H 	0.93816	0.11609	0.11609	0.095
Mof_N 	N 	0.97901	0.08146	0.08146	-0.209
Mof_C 	C 	0.46285	0.73483	0.23483	-0.069
Mof_C 	C 	0.42168	0.71803	0.21803	1.064
Mof_C 	C 	0.46604	0.60968	0.10968	0.042
Mof_H 	H 	0.43816	0.61609	0.11609	0.094
Mof_N 	N 	0.47901	0.58146	0.08146	-0.209
Mof_C 	C 	0.46285	0.23483	0.73483	-0.069
Mof_C 	C 	0.42168	0.21803	0.71803	1.064
Mof_C 	C 	0.46604	0.10968	0.60968	0.042
Mof_H 	H 	0.43816	0.11609	0.61609	0.094
Mof_N 	N 	0.47901	0.08146	0.58146	-0.209
Mof_C 	C 	0.03715	0.73483	0.26517	-0.069
Mof_C 	C 	0.07832	0.71803	0.28197	1.065
Mof_C 	C 	0.03396	0.60968	0.39032	0.041
Mof_H 	H 	0.06184	0.61609	0.38391	0.094
Mof_N 	N 	0.02099	0.58146	0.41854	-0.207
Mof_C 	C 	0.03715	0.23483	0.76517	-0.069
Mof_C 	C 	0.07832	0.21803	0.78197	1.065
Mof_C 	C 	0.03396	0.10968	0.89032	0.041
Mof_H 	H 	0.06184	0.11609	0.88391	0.094
Mof_N 	N 	0.02099	0.08146	0.91854	-0.207
Mof_C 	C 	0.53715	0.73483	0.76517	-0.069
Mof_C 	C 	0.57832	0.71803	0.78197	1.065
Mof_C 	C 	0.53396	0.60968	0.89032	0.042
Mof_H 	H 	0.56184	0.61609	0.88391	0.094
Mof_N 	N 	0.52099	0.58146	0.91854	-0.209
Mof_C 	C 	0.53715	0.23483	0.26517	-0.069
Mof_C 	C 	0.57832	0.21803	0.28197	1.064
Mof_C 	C 	0.53396	0.10968	0.39032	0.042
Mof_H 	H 	0.56184	0.11609	0.38391	0.094
Mof_N 	N 	0.52099	0.08146	0.41854	-0.209
Mof_C 	C 	0.03715	0.26517	0.73483	-0.069
Mof_C 	C 	0.07832	0.28197	0.71803	1.065
Mof_C 	C 	0.03396	0.39032	0.60968	0.041
Mof_H 	H 	0.06184	0.38391	0.61609	0.094
Mof_N 	N 	0.02099	0.41854	0.58146	-0.207
Mof_C 	C 	0.03715	0.76517	0.23483	-0.069
Mof_C 	C 	0.07832	0.78197	0.21803	1.065
Mof_C 	C 	0.03396	0.89032	0.10968	0.041
Mof_H 	H 	0.06184	0.88391	0.11609	0.094
Mof_N 	N 	0.02099	0.91854	0.08146	-0.207
Mof_C 	C 	0.53715	0.26517	0.23483	-0.069
Mof_C 	C 	0.57832	0.28197	0.21803	1.064
Mof_C 	C 	0.53396	0.39032	0.10968	0.042
Mof_H 	H 	0.56184	0.38391	0.11609	0.094
Mof_N 	N 	0.52099	0.41854	0.08146	-0.209
Mof_C 	C 	0.53715	0.76517	0.73483	-0.069
Mof_C 	C 	0.57832	0.78197	0.71803	1.065
Mof_C 	C 	0.53396	0.89032	0.60968	0.042
Mof_H 	H 	0.56184	0.88391	0.61609	0.094
Mof_N 	N 	0.52099	0.91854	0.58146	-0.209
Mof_C 	C 	0.26517	0.96285	0.26517	-0.072
Mof_C 	C 	0.28197	0.92168	0.28197	1.065
Mof_C 	C 	0.39032	0.96604	0.39032	0.037
Mof_H 	H 	0.38391	0.93816	0.38391	0.095
Mof_N 	N 	0.41854	0.97901	0.41854	-0.21
Mof_C 	C 	0.26517	0.46285	0.76517	-0.069
Mof_C 	C 	0.28197	0.42168	0.78197	1.065
Mof_C 	C 	0.39032	0.46604	0.89032	0.042
Mof_H 	H 	0.38391	0.43816	0.88391	0.094
Mof_N 	N 	0.41854	0.47901	0.91854	-0.209
Mof_C 	C 	0.76517	0.96285	0.76517	-0.072
Mof_C 	C 	0.78197	0.92168	0.78197	1.065
Mof_C 	C 	0.89032	0.96604	0.89032	0.037
Mof_H 	H 	0.88391	0.93816	0.88391	0.095
Mof_N 	N 	0.91854	0.97901	0.91854	-0.21
Mof_C 	C 	0.76517	0.46285	0.26517	-0.069
Mof_C 	C 	0.78197	0.42168	0.28197	1.065
Mof_C 	C 	0.89032	0.46604	0.39032	0.042
Mof_H 	H 	0.88391	0.43816	0.38391	0.094
Mof_N 	N 	0.91854	0.47901	0.41854	-0.209
Mof_C 	C 	0.73483	0.96285	0.73483	-0.072
Mof_C 	C 	0.71803	0.92168	0.71803	1.065
Mof_C 	C 	0.60968	0.96604	0.60968	0.037
Mof_H 	H 	0.61609	0.93816	0.61609	0.095
Mof_N 	N 	0.58146	0.97901	0.58146	-0.21
Mof_C 	C 	0.73483	0.46285	0.23483	-0.069
Mof_C 	C 	0.71803	0.42168	0.21803	1.064
Mof_C 	C 	0.60968	0.46604	0.10968	0.042
Mof_H 	H 	0.61609	0.43816	0.11609	0.094
Mof_N 	N 	0.58146	0.47901	0.08146	-0.209
Mof_C 	C 	0.23483	0.96285	0.23483	-0.072
Mof_C 	C 	0.21803	0.92168	0.21803	1.065
Mof_C 	C 	0.10968	0.96604	0.10968	0.037
Mof_H 	H 	0.11609	0.93816	0.11609	0.095
Mof_N 	N 	0.08146	0.97901	0.08146	-0.209
Mof_C 	C 	0.23483	0.46285	0.73483	-0.069
Mof_C 	C 	0.21803	0.42168	0.71803	1.064
Mof_C 	C 	0.10968	0.46604	0.60968	0.042
Mof_H 	H 	0.11609	0.43816	0.61609	0.094
Mof_N 	N 	0.08146	0.47901	0.58146	-0.209
Mof_C 	C 	0.26517	0.03715	0.73483	-0.069
Mof_C 	C 	0.28197	0.07832	0.71803	1.065
Mof_C 	C 	0.39032	0.03396	0.60968	0.041
Mof_H 	H 	0.38391	0.06184	0.61609	0.094
Mof_N 	N 	0.41854	0.02099	0.58146	-0.207
Mof_C 	C 	0.26517	0.53715	0.23483	-0.069
Mof_C 	C 	0.28197	0.57832	0.21803	1.064
Mof_C 	C 	0.39032	0.53396	0.10968	0.042
Mof_H 	H 	0.38391	0.56184	0.11609	0.094
Mof_N 	N 	0.41854	0.52099	0.08146	-0.209
Mof_C 	C 	0.76517	0.03715	0.23483	-0.069
Mof_C 	C 	0.78197	0.07832	0.21803	1.065
Mof_C 	C 	0.89032	0.03396	0.10968	0.041
Mof_H 	H 	0.88391	0.06184	0.11609	0.094
Mof_N 	N 	0.91854	0.02099	0.08146	-0.207
Mof_C 	C 	0.76517	0.53715	0.73483	-0.069
Mof_C 	C 	0.78197	0.57832	0.71803	1.065
Mof_C 	C 	0.89032	0.53396	0.60968	0.042
Mof_H 	H 	0.88391	0.56184	0.61609	0.094
Mof_N 	N 	0.91854	0.52099	0.58146	-0.209
Mof_C 	C 	0.73483	0.03715	0.26517	-0.069
Mof_C 	C 	0.71803	0.07832	0.28197	1.065
Mof_C 	C 	0.60968	0.03396	0.39032	0.041
Mof_H 	H 	0.61609	0.06184	0.38391	0.094
Mof_N 	N 	0.58146	0.02099	0.41854	-0.207
Mof_C 	C 	0.73483	0.53715	0.76517	-0.069
Mof_C 	C 	0.71803	0.57832	0.78197	1.065
Mof_C 	C 	0.60968	0.53396	0.89032	0.042
Mof_H 	H 	0.61609	0.56184	0.88391	0.094
Mof_N 	N 	0.58146	0.52099	0.91854	-0.209
Mof_C 	C 	0.23483	0.03715	0.76517	-0.069
Mof_C 	C 	0.21803	0.07832	0.78197	1.065
Mof_C 	C 	0.10968	0.03396	0.89032	0.041
Mof_H 	H 	0.11609	0.06184	0.88391	0.094
Mof_N 	N 	0.08146	0.02099	0.91854	-0.207
Mof_C 	C 	0.23483	0.53715	0.26517	-0.069
Mof_C 	C 	0.21803	0.57832	0.28197	1.064
Mof_C 	C 	0.10968	0.53396	0.39032	0.042
Mof_H 	H 	0.11609	0.56184	0.38391	0.094
Mof_N 	N 	0.08146	0.52099	0.41854	-0.209
Mof_C 	C 	0.26517	0.26517	0.03715	-0.069
Mof_C 	C 	0.28197	0.28197	0.07832	1.064
Mof_C 	C 	0.39032	0.39032	0.03396	0.04
Mof_H 	H 	0.38391	0.38391	0.06184	0.094
Mof_N 	N 	0.41854	0.41854	0.02099	-0.207
Mof_C 	C 	0.26517	0.76517	0.53715	-0.069
Mof_C 	C 	0.28197	0.78197	0.57832	1.065
Mof_C 	C 	0.39032	0.89032	0.53396	0.042
Mof_H 	H 	0.38391	0.88391	0.56184	0.094
Mof_N 	N 	0.41854	0.91854	0.52099	-0.209
Mof_C 	C 	0.76517	0.26517	0.53715	-0.069
Mof_C 	C 	0.78197	0.28197	0.57832	1.065
Mof_C 	C 	0.89032	0.39032	0.53396	0.042
Mof_H 	H 	0.88391	0.38391	0.56184	0.094
Mof_N 	N 	0.91854	0.41854	0.52099	-0.209
Mof_C 	C 	0.76517	0.76517	0.03715	-0.069
Mof_C 	C 	0.78197	0.78197	0.07832	1.065
Mof_C 	C 	0.89032	0.89032	0.03396	0.04
Mof_H 	H 	0.88391	0.88391	0.06184	0.094
Mof_N 	N 	0.91854	0.91854	0.02099	-0.208
Mof_C 	C 	0.73483	0.73483	0.03715	-0.069
Mof_C 	C 	0.71803	0.71803	0.07832	1.065
Mof_C 	C 	0.60968	0.60968	0.03396	0.041
Mof_H 	H 	0.61609	0.61609	0.06184	0.094
Mof_N 	N 	0.58146	0.58146	0.02099	-0.207
Mof_C 	C 	0.73483	0.23483	0.53715	-0.069
Mof_C 	C 	0.71803	0.21803	0.57832	1.064
Mof_C 	C 	0.60968	0.10968	0.53396	0.042
Mof_H 	H 	0.61609	0.11609	0.56184	0.094
Mof_N 	N 	0.58146	0.08146	0.52099	-0.209
Mof_C 	C 	0.23483	0.73483	0.53715	-0.069
Mof_C 	C 	0.21803	0.71803	0.57832	1.064
Mof_C 	C 	0.10968	0.60968	0.53396	0.042
Mof_H 	H 	0.11609	0.61609	0.56184	0.094
Mof_N 	N 	0.08146	0.58146	0.52099	-0.209
Mof_C 	C 	0.23483	0.23483	0.03715	-0.069
Mof_C 	C 	0.21803	0.21803	0.07832	1.064
Mof_C 	C 	0.10968	0.10968	0.03396	0.041
Mof_H 	H 	0.11609	0.11609	0.06184	0.094
Mof_N 	N 	0.08146	0.08146	0.02099	-0.207
Mof_C 	C 	0.26517	0.73483	0.96285	-0.072
Mof_C 	C 	0.28197	0.71803	0.92168	1.065
Mof_C 	C 	0.39032	0.60968	0.96604	0.037
Mof_H 	H 	0.38391	0.61609	0.93816	0.095
Mof_N 	N 	0.41854	0.58146	0.97901	-0.21
Mof_C 	C 	0.26517	0.23483	0.46285	-0.069
Mof_C 	C 	0.28197	0.21803	0.42168	1.064
Mof_C 	C 	0.39032	0.10968	0.46604	0.042
Mof_H 	H 	0.38391	0.11609	0.43816	0.094
Mof_N 	N 	0.41854	0.08146	0.47901	-0.209
Mof_C 	C 	0.76517	0.73483	0.46285	-0.069
Mof_C 	C 	0.78197	0.71803	0.42168	1.065
Mof_C 	C 	0.89032	0.60968	0.46604	0.042
Mof_H 	H 	0.88391	0.61609	0.43816	0.094
Mof_N 	N 	0.91854	0.58146	0.47901	-0.209
Mof_C 	C 	0.76517	0.23483	0.96285	-0.072
Mof_C 	C 	0.78197	0.21803	0.92168	1.065
Mof_C 	C 	0.89032	0.10968	0.96604	0.037
Mof_H 	H 	0.88391	0.11609	0.93816	0.095
Mof_N 	N 	0.91854	0.08146	0.97901	-0.21
Mof_C 	C 	0.73483	0.26517	0.96285	-0.072
Mof_C 	C 	0.71803	0.28197	0.92168	1.065
Mof_C 	C 	0.60968	0.39032	0.96604	0.037
Mof_H 	H 	0.61609	0.38391	0.93816	0.095
Mof_N 	N 	0.58146	0.41854	0.97901	-0.21
Mof_C 	C 	0.73483	0.76517	0.46285	-0.069
Mof_C 	C 	0.71803	0.78197	0.42168	1.065
Mof_C 	C 	0.60968	0.89032	0.46604	0.042
Mof_H 	H 	0.61609	0.88391	0.43816	0.094
Mof_N 	N 	0.58146	0.91854	0.47901	-0.209
Mof_C 	C 	0.23483	0.26517	0.46285	-0.069
Mof_C 	C 	0.21803	0.28197	0.42168	1.064
Mof_C 	C 	0.10968	0.39032	0.46604	0.042
Mof_H 	H 	0.11609	0.38391	0.43816	0.094
Mof_N 	N 	0.08146	0.41854	0.47901	-0.209
Mof_C 	C 	0.23483	0.76517	0.96285	-0.072
Mof_C 	C 	0.21803	0.78197	0.92168	1.065
Mof_C 	C 	0.10968	0.89032	0.96604	0.037
Mof_H 	H 	0.11609	0.88391	0.93816	0.095
Mof_N 	N 	0.08146	0.91854	0.97901	-0.21
Mof_C 	C 	0.26517	0.96285	0.73483	-0.072
Mof_C 	C 	0.28197	0.92168	0.71803	1.065
Mof_C 	C 	0.39032	0.96604	0.60968	0.037
Mof_H 	H 	0.38391	0.93816	0.61609	0.095
Mof_N 	N 	0.41854	0.97901	0.58146	-0.21
Mof_C 	C 	0.26517	0.46285	0.23483	-0.069
Mof_C 	C 	0.28197	0.42168	0.21803	1.064
Mof_C 	C 	0.39032	0.46604	0.10968	0.042
Mof_H 	H 	0.38391	0.43816	0.11609	0.094
Mof_N 	N 	0.41854	0.47901	0.08146	-0.209
Mof_C 	C 	0.76517	0.96285	0.23483	-0.072
Mof_C 	C 	0.78197	0.92168	0.21803	1.065
Mof_C 	C 	0.89032	0.96604	0.10968	0.037
Mof_H 	H 	0.88391	0.93816	0.11609	0.095
Mof_N 	N 	0.91854	0.97901	0.08146	-0.21
Mof_C 	C 	0.76517	0.46285	0.73483	-0.069
Mof_C 	C 	0.78197	0.42168	0.71803	1.065
Mof_C 	C 	0.89032	0.46604	0.60968	0.042
Mof_H 	H 	0.88391	0.43816	0.61609	0.094
Mof_N 	N 	0.91854	0.47901	0.58146	-0.209
Mof_C 	C 	0.73483	0.96285	0.26517	-0.072
Mof_C 	C 	0.71803	0.92168	0.28197	1.065
Mof_C 	C 	0.60968	0.96604	0.39032	0.037
Mof_H 	H 	0.61609	0.93816	0.38391	0.095
Mof_N 	N 	0.58146	0.97901	0.41854	-0.21
Mof_C 	C 	0.73483	0.46285	0.76517	-0.069
Mof_C 	C 	0.71803	0.42168	0.78197	1.065
Mof_C 	C 	0.60968	0.46604	0.89032	0.042
Mof_H 	H 	0.61609	0.43816	0.88391	0.094
Mof_N 	N 	0.58146	0.47901	0.91854	-0.209
Mof_C 	C 	0.23483	0.96285	0.76517	-0.072
Mof_C 	C 	0.21803	0.92168	0.78197	1.065
Mof_C 	C 	0.10968	0.96604	0.89032	0.037
Mof_H 	H 	0.11609	0.93816	0.88391	0.095
Mof_N 	N 	0.08146	0.97901	0.91854	-0.21
Mof_C 	C 	0.23483	0.46285	0.26517	-0.069
Mof_C 	C 	0.21803	0.42168	0.28197	1.064
Mof_C 	C 	0.10968	0.46604	0.39032	0.042
Mof_H 	H 	0.11609	0.43816	0.38391	0.094
Mof_N 	N 	0.08146	0.47901	0.41854	-0.209
Mof_C 	C 	0.73483	0.03715	0.73483	-0.069
Mof_C 	C 	0.71803	0.07832	0.71803	1.065
Mof_C 	C 	0.60968	0.03396	0.60968	0.041
Mof_H 	H 	0.61609	0.06184	0.61609	0.094
Mof_N 	N 	0.58146	0.02099	0.58146	-0.207
Mof_C 	C 	0.73483	0.53715	0.23483	-0.069
Mof_C 	C 	0.71803	0.57832	0.21803	1.064
Mof_C 	C 	0.60968	0.53396	0.10968	0.042
Mof_H 	H 	0.61609	0.56184	0.11609	0.094
Mof_N 	N 	0.58146	0.52099	0.08146	-0.209
Mof_C 	C 	0.23483	0.03715	0.23483	-0.069
Mof_C 	C 	0.21803	0.07832	0.21803	1.064
Mof_C 	C 	0.10968	0.03396	0.10968	0.041
Mof_H 	H 	0.11609	0.06184	0.11609	0.094
Mof_N 	N 	0.08146	0.02099	0.08146	-0.207
Mof_C 	C 	0.23483	0.53715	0.73483	-0.069
Mof_C 	C 	0.21803	0.57832	0.71803	1.064
Mof_C 	C 	0.10968	0.53396	0.60968	0.042
Mof_H 	H 	0.11609	0.56184	0.61609	0.094
Mof_N 	N 	0.08146	0.52099	0.58146	-0.209
Mof_C 	C 	0.26517	0.03715	0.26517	-0.069
Mof_C 	C 	0.28197	0.07832	0.28197	1.064
Mof_C 	C 	0.39032	0.03396	0.39032	0.04
Mof_H 	H 	0.38391	0.06184	0.38391	0.094
Mof_N 	N 	0.41854	0.02099	0.41854	-0.207
Mof_C 	C 	0.26517	0.53715	0.76517	-0.069
Mof_C 	C 	0.28197	0.57832	0.78197	1.065
Mof_C 	C 	0.39032	0.53396	0.89032	0.042
Mof_H 	H 	0.38391	0.56184	0.88391	0.094
Mof_N 	N 	0.41854	0.52099	0.91854	-0.209
Mof_C 	C 	0.76517	0.03715	0.76517	-0.069
Mof_C 	C 	0.78197	0.07832	0.78197	1.065
Mof_C 	C 	0.89032	0.03396	0.89032	0.04
Mof_H 	H 	0.88391	0.06184	0.88391	0.094
Mof_N 	N 	0.91854	0.02099	0.91854	-0.208
Mof_C 	C 	0.76517	0.53715	0.26517	-0.069
Mof_C 	C 	0.78197	0.57832	0.28197	1.065
Mof_C 	C 	0.89032	0.53396	0.39032	0.042
Mof_H 	H 	0.88391	0.56184	0.38391	0.094
Mof_N 	N 	0.91854	0.52099	0.41854	-0.209
Mof_C 	C 	0.96285	0.26517	0.73483	-0.072
Mof_C 	C 	0.92168	0.28197	0.71803	1.065
Mof_C 	C 	0.96604	0.39032	0.60968	0.037
Mof_H 	H 	0.93816	0.38391	0.61609	0.095
Mof_N 	N 	0.97901	0.41854	0.58146	-0.21
Mof_C 	C 	0.96285	0.76517	0.23483	-0.072
Mof_C 	C 	0.92168	0.78197	0.21803	1.065
Mof_C 	C 	0.96604	0.89032	0.10968	0.037
Mof_H 	H 	0.93816	0.88391	0.11609	0.095
Mof_N 	N 	0.97901	0.91854	0.08146	-0.21
Mof_C 	C 	0.46285	0.26517	0.23483	-0.069
Mof_C 	C 	0.42168	0.28197	0.21803	1.064
Mof_C 	C 	0.46604	0.39032	0.10968	0.042
Mof_H 	H 	0.43816	0.38391	0.11609	0.094
Mof_N 	N 	0.47901	0.41854	0.08146	-0.209
Mof_C 	C 	0.46285	0.76517	0.73483	-0.069
Mof_C 	C 	0.42168	0.78197	0.71803	1.065
Mof_C 	C 	0.46604	0.89032	0.60968	0.042
Mof_H 	H 	0.43816	0.88391	0.61609	0.094
Mof_N 	N 	0.47901	0.91854	0.58146	-0.209
Mof_C 	C 	0.96285	0.73483	0.26517	-0.072
Mof_C 	C 	0.92168	0.71803	0.28197	1.065
Mof_C 	C 	0.96604	0.60968	0.39032	0.037
Mof_H 	H 	0.93816	0.61609	0.38391	0.095
Mof_N 	N 	0.97901	0.58146	0.41854	-0.21
Mof_C 	C 	0.96285	0.23483	0.76517	-0.072
Mof_C 	C 	0.92168	0.21803	0.78197	1.065
Mof_C 	C 	0.96604	0.10968	0.89032	0.037
Mof_H 	H 	0.93816	0.11609	0.88391	0.095
Mof_N 	N 	0.97901	0.08146	0.91854	-0.21
Mof_C 	C 	0.46285	0.73483	0.76517	-0.069
Mof_C 	C 	0.42168	0.71803	0.78197	1.065
Mof_C 	C 	0.46604	0.60968	0.89032	0.042
Mof_H 	H 	0.43816	0.61609	0.88391	0.094
Mof_N 	N 	0.47901	0.58146	0.91854	-0.209
Mof_C 	C 	0.46285	0.23483	0.26517	-0.069
Mof_C 	C 	0.42168	0.21803	0.28197	1.064
Mof_C 	C 	0.46604	0.10968	0.39032	0.042
Mof_H 	H 	0.43816	0.11609	0.38391	0.094
Mof_N 	N 	0.47901	0.08146	0.41854	-0.209
Mof_C 	C 	0.03715	0.26517	0.26517	-0.069
Mof_C 	C 	0.07832	0.28197	0.28197	1.064
Mof_C 	C 	0.03396	0.39032	0.39032	0.04
Mof_H 	H 	0.06184	0.38391	0.38391	0.094
Mof_N 	N 	0.02099	0.41854	0.41854	-0.207
Mof_C 	C 	0.03715	0.76517	0.76517	-0.069
Mof_C 	C 	0.07832	0.78197	0.78197	1.065
Mof_C 	C 	0.03396	0.89032	0.89032	0.04
Mof_H 	H 	0.06184	0.88391	0.88391	0.094
Mof_N 	N 	0.02099	0.91854	0.91854	-0.208
Mof_C 	C 	0.53715	0.26517	0.76517	-0.069
Mof_C 	C 	0.57832	0.28197	0.78197	1.065
Mof_C 	C 	0.53396	0.39032	0.89032	0.042
Mof_H 	H 	0.56184	0.38391	0.88391	0.094
Mof_N 	N 	0.52099	0.41854	0.91854	-0.209
Mof_C 	C 	0.53715	0.76517	0.26517	-0.069
Mof_C 	C 	0.57832	0.78197	0.28197	1.065
Mof_C 	C 	0.53396	0.89032	0.39032	0.042
Mof_H 	H 	0.56184	0.88391	0.38391	0.094
Mof_N 	N 	0.52099	0.91854	0.41854	-0.209
Mof_C 	C 	0.03715	0.73483	0.73483	-0.069
Mof_C 	C 	0.07832	0.71803	0.71803	1.065
Mof_C 	C 	0.03396	0.60968	0.60968	0.041
Mof_H 	H 	0.06184	0.61609	0.61609	0.094
Mof_N 	N 	0.02099	0.58146	0.58146	-0.207
Mof_C 	C 	0.03715	0.23483	0.23483	-0.069
Mof_C 	C 	0.07832	0.21803	0.21803	1.064
Mof_C 	C 	0.03396	0.10968	0.10968	0.041
Mof_H 	H 	0.06184	0.11609	0.11609	0.094
Mof_N 	N 	0.02099	0.08146	0.08146	-0.207
Mof_C 	C 	0.53715	0.73483	0.23483	-0.069
Mof_C 	C 	0.57832	0.71803	0.21803	1.064
Mof_C 	C 	0.53396	0.60968	0.10968	0.042
Mof_H 	H 	0.56184	0.61609	0.11609	0.094
Mof_N 	N 	0.52099	0.58146	0.08146	-0.209
Mof_C 	C 	0.53715	0.23483	0.73483	-0.069
Mof_C 	C 	0.57832	0.21803	0.71803	1.064
Mof_C 	C 	0.53396	0.10968	0.60968	0.042
Mof_H 	H 	0.56184	0.11609	0.61609	0.094
Mof_N 	N 	0.52099	0.08146	0.58146	-0.209
_end
