# CIF file generated by openbabel 3.1.0, see https://openbabel.org
data_I
_chemical_name_common 'image0'
_cell_length_a 6.5525
_cell_length_b 16.4362
_cell_length_c 13.1417
_cell_angle_alpha 90
_cell_angle_beta 90
_cell_angle_gamma 90.5819
_space_group_name_H-M_alt 'P 1'
_space_group_name_Hall 'P 1'
loop_
    _symmetry_equiv_pos_as_xyz
    x,y,z
loop_
    _atom_site_label
    _atom_site_type_symbol
    _atom_site_fract_x
    _atom_site_fract_y
    _atom_site_fract_z
    _atom_site_occupancy
    O1       O        0.15680    0.17440    0.85480    1.000
    O2       O        0.81830    0.65761    0.16780    1.000
    C1       C        0.79700    0.02370    0.94980    1.000
    C2       C        0.00280    0.06320    0.94550    1.000
    C3       C        0.00050    0.13720    0.86590    1.000
    C4       C        0.19460    0.54030    0.02540    1.000
    O3       O        0.65680    0.67440    0.35480    1.000
    O4       O        0.31830    0.15761    0.66780    1.000
    C5       C        0.29700    0.52370    0.44980    1.000
    C6       C        0.50280    0.56320    0.44550    1.000
    C7       C        0.50050    0.63720    0.36590    1.000
    C8       C        0.69460    0.04030    0.52540    1.000
    O5       O        0.84320    0.32560    0.85480    1.000
    O6       O        0.18170    0.84239    0.16780    1.000
    C9       C        0.20300    0.47630    0.94980    1.000
    C10      C        0.99720    0.43680    0.94550    1.000
    C11      C        0.99950    0.36280    0.86590    1.000
    C12      C        0.80540    0.95970    0.02540    1.000
    O7       O        0.34320    0.82560    0.35480    1.000
    O8       O        0.68170    0.34239    0.66780    1.000
    C13      C        0.70300    0.97630    0.44980    1.000
    C14      C        0.49720    0.93680    0.44550    1.000
    C15      C        0.49950    0.86280    0.36590    1.000
    C16      C        0.30540    0.45970    0.52540    1.000
    O9       O        0.84320    0.82560    0.14520    1.000
    O10      O        0.18170    0.34239    0.83220    1.000
    C17      C        0.20300    0.97630    0.05020    1.000
    C18      C        0.99720    0.93680    0.05450    1.000
    C19      C        0.99950    0.86280    0.13410    1.000
    C20      C        0.80540    0.45970    0.97460    1.000
    O11      O        0.34320    0.32560    0.64520    1.000
    O12      O        0.68170    0.84239    0.33220    1.000
    C21      C        0.70300    0.47630    0.55020    1.000
    C22      C        0.49720    0.43680    0.55450    1.000
    C23      C        0.49950    0.36280    0.63410    1.000
    C24      C        0.30540    0.95970    0.47460    1.000
    O13      O        0.15680    0.67440    0.14520    1.000
    O14      O        0.81830    0.15761    0.83220    1.000
    C25      C        0.79700    0.52370    0.05020    1.000
    C26      C        0.00280    0.56320    0.05450    1.000
    C27      C        0.00050    0.63720    0.13410    1.000
    C28      C        0.19460    0.04030    0.97460    1.000
    O15      O        0.65680    0.17440    0.64520    1.000
    O16      O        0.31830    0.65761    0.33220    1.000
    C29      C        0.29700    0.02370    0.55020    1.000
    C30      C        0.50280    0.06320    0.55450    1.000
    C31      C        0.50050    0.13720    0.63410    1.000
    C32      C        0.69460    0.54030    0.47460    1.000
    Al1      Al       0.25000    0.25000    0.75000    1.000
    Al2      Al       0.75000    0.25000    0.75000    1.000
    Al3      Al       0.75000    0.75000    0.25000    1.000
    Al4      Al       0.25000    0.75000    0.25000    1.000
    F1       F        0.00000    0.25000    0.69020    1.000
    F2       F        0.50000    0.75000    0.19020    1.000
    F3       F        0.00000    0.75000    0.30980    1.000
    F4       F        0.50000    0.25000    0.80980    1.000
