# CIF file generated by openbabel 3.1.0, see https://openbabel.org
data_I
_chemical_name_common 'image0'
_cell_length_a 17.669
_cell_length_b 8.537
_cell_length_c 10.252
_cell_angle_alpha 90
_cell_angle_beta 103.42
_cell_angle_gamma 90
_space_group_name_H-M_alt 'P 1'
_space_group_name_Hall 'P 1'
loop_
    _symmetry_equiv_pos_as_xyz
    x,y,z
loop_
    _atom_site_label
    _atom_site_type_symbol
    _atom_site_fract_x
    _atom_site_fract_y
    _atom_site_fract_z
    _atom_site_occupancy
    P1       P        0.29060    0.60210    0.88520    1.000
    Al1      Al       0.32920    0.35060    0.68320    1.000
    O1       O        0.30180    0.44950    0.81210    1.000
    O2       O        0.20610    0.65760    0.82220    1.000
    O3       O        0.42930    0.34400    0.71590    1.000
    O4       O        0.34860    0.72680    0.88170    1.000
    O5       O        0.29050    0.55080    0.03160    1.000
    O6       O        0.49510    0.13160    0.86800    1.000
    P2       P        0.79060    0.10210    0.88520    1.000
    Al2      Al       0.82920    0.85060    0.68320    1.000
    O7       O        0.80180    0.94950    0.81210    1.000
    O8       O        0.70610    0.15760    0.82220    1.000
    O9       O        0.92930    0.84400    0.71590    1.000
    O10      O        0.84860    0.22680    0.88170    1.000
    O11      O        0.79050    0.05080    0.03160    1.000
    O12      O        0.99510    0.63160    0.86800    1.000
    P3       P        0.70940    0.60210    0.61480    1.000
    Al3      Al       0.67080    0.35060    0.81680    1.000
    O13      O        0.69820    0.44950    0.68790    1.000
    O14      O        0.79390    0.65760    0.67780    1.000
    O15      O        0.57070    0.34400    0.78410    1.000
    O16      O        0.65140    0.72680    0.61830    1.000
    O17      O        0.70950    0.55080    0.46840    1.000
    O18      O        0.50490    0.13160    0.63200    1.000
    P4       P        0.20940    0.10210    0.61480    1.000
    Al4      Al       0.17080    0.85060    0.81680    1.000
    O19      O        0.19820    0.94950    0.68790    1.000
    O20      O        0.29390    0.15760    0.67780    1.000
    O21      O        0.07070    0.84400    0.78410    1.000
    O22      O        0.15140    0.22680    0.61830    1.000
    O23      O        0.20950    0.05080    0.46840    1.000
    O24      O        0.00490    0.63160    0.63200    1.000
    P5       P        0.70940    0.39790    0.11480    1.000
    Al5      Al       0.67080    0.64940    0.31680    1.000
    O25      O        0.69820    0.55050    0.18790    1.000
    O26      O        0.79390    0.34240    0.17780    1.000
    O27      O        0.57070    0.65600    0.28410    1.000
    O28      O        0.65140    0.27320    0.11830    1.000
    O29      O        0.70950    0.44920    0.96840    1.000
    O30      O        0.50490    0.86840    0.13200    1.000
    P6       P        0.20940    0.89790    0.11480    1.000
    Al6      Al       0.17080    0.14940    0.31680    1.000
    O31      O        0.19820    0.05050    0.18790    1.000
    O32      O        0.29390    0.84240    0.17780    1.000
    O33      O        0.07070    0.15600    0.28410    1.000
    O34      O        0.15140    0.77320    0.11830    1.000
    O35      O        0.20950    0.94920    0.96840    1.000
    O36      O        0.00490    0.36840    0.13200    1.000
    P7       P        0.29060    0.39790    0.38520    1.000
    Al7      Al       0.32920    0.64940    0.18320    1.000
    O37      O        0.30180    0.55050    0.31210    1.000
    O38      O        0.20610    0.34240    0.32220    1.000
    O39      O        0.42930    0.65600    0.21590    1.000
    O40      O        0.34860    0.27320    0.38170    1.000
    O41      O        0.29050    0.44920    0.53160    1.000
    O42      O        0.49510    0.86840    0.36800    1.000
    P8       P        0.79060    0.89790    0.38520    1.000
    Al8      Al       0.82920    0.14940    0.18320    1.000
    O43      O        0.80180    0.05050    0.31210    1.000
    O44      O        0.70610    0.84240    0.32220    1.000
    O45      O        0.92930    0.15600    0.21590    1.000
    O46      O        0.84860    0.77320    0.38170    1.000
    O47      O        0.79050    0.94920    0.53160    1.000
    O48      O        0.99510    0.36840    0.36800    1.000
    P9       P        0.50000    0.23330    0.75000    1.000
    P10      P        0.00000    0.73330    0.75000    1.000
    P11      P        0.50000    0.76670    0.25000    1.000
    P12      P        0.00000    0.26670    0.25000    1.000
