data_functionalizedCrystal
_audit_creation_method	'EQeq! by Chris Wilmer'
_symmetry_space_group_name_H-M	'P1'
_symmetry_Int_Tables_number	1
_symmetry_cell_setting	triclinic
loop_
_symmetry_equiv_pos_as_xyz
  x,y,z
_cell_length_a	15.216
_cell_length_b	15.216
_cell_length_c	18.65
_cell_angle_alpha	90
_cell_angle_beta	90
_cell_angle_gamma	120
loop_
_atom_site_label
_atom_site_type_symbol
_atom_site_fract_x
_atom_site_fract_y
_atom_site_fract_z
_atom_site_charge
Mof_N 	N 	0.9714	0.6022	0.727	-0.127
Mof_N 	N 	0.8912	0.7934	0.9119	-0.209
Mof_C 	C 	0.975	0.6915	0.7246	0.129
Mof_C 	C 	0.9223	0.8495	0.852	0.09
Mof_H 	H 	0.9249	0.9131	0.8517	0.043
Mof_C 	C 	0.9506	0.8197	0.791	-0.112
Mof_H 	H 	0.9713	0.8616	0.7496	0.115
Mof_C 	C 	0.9487	0.7288	0.7905	0.066
Mof_C 	C 	0.9156	0.6682	0.8518	-0.11
Mof_H 	H 	0.9109	0.6035	0.8529	0.093
Mof_C 	C 	0.8899	0.7056	0.9109	0.089
Mof_H 	H 	0.87	0.6659	0.9534	0.027
Mof_C 	C 	0.9672	0.4161	0.7271	-0.081
Mof_H 	H 	0.9437	0.434	0.7688	0.084
Mof_C 	C 	0.9701	0.3257	0.7241	0.089
Mof_H 	H 	0.9496	0.2831	0.7652	0.018
Mof_O 	O 	0.2204	0.1275	0.3978	-0.255
Mof_N 	N 	0.1372	0.1311	0.3961	-0.138
Mof_O 	O 	0.0614	0.0607	0.3598	-0.21
Mof_O 	O 	0.1281	0.1988	0.4248	-0.128
Mof_N 	N 	0.8258	0.9998	0.9304	0.158
Mof_O 	O 	0.9156	0.0432	0.9406	0.02
Mof_O 	O 	0.7825	0.0476	0.9115	-0.077
Mof_N 	N 	0.3978	0.3692	0.06033	-0.137
Mof_N 	N 	0.2066	0.0978	0.24523	-0.221
Mof_C 	C 	0.3085	0.2835	0.05793	0.102
Mof_C 	C 	0.1505	0.0728	0.18533	0.082
Mof_H 	H 	0.0869	0.0118	0.18503	0.023
Mof_C 	C 	0.1803	0.1309	0.12433	-0.121
Mof_H 	H 	0.1384	0.1097	0.08293	0.095
Mof_C 	C 	0.2712	0.2199	0.12383	0.061
Mof_C 	C 	0.3318	0.2474	0.18513	-0.118
Mof_H 	H 	0.3965	0.3074	0.18623	0.087
Mof_C 	C 	0.2944	0.1843	0.24423	0.081
Mof_H 	H 	0.3341	0.2041	0.28673	0.014
Mof_C 	C 	0.5839	0.5511	0.06043	-0.096
Mof_H 	H 	0.566	0.5097	0.10213	0.08
Mof_C 	C 	0.6743	0.6444	0.05743	0.061
Mof_H 	H 	0.7169	0.6665	0.09853	0.019
Mof_O 	O 	0.8725	0.0929	0.73113	-0.24
Mof_N 	N 	0.8689	0.0061	0.72943	-0.197
Mof_O 	O 	0.9393	0.0007	0.69313	-0.206
Mof_O 	O 	0.8012	0.9293	0.75813	-0.135
Mof_N 	N 	0.0002	0.826	0.26373	0.198
Mof_O 	O 	0.9568	0.8724	0.27393	0.139
Mof_O 	O 	0.9524	0.7349	0.24483	-0.066
Mof_N 	N 	0.6308	0.0286	0.39367	-0.137
Mof_N 	N 	0.9022	0.1088	0.57857	-0.212
Mof_C 	C 	0.7165	0.025	0.39127	0.106
Mof_C 	C 	0.9272	0.0777	0.51867	0.088
Mof_H 	H 	0.9882	0.0751	0.51837	0.044
Mof_C 	C 	0.8691	0.0494	0.45767	-0.117
Mof_H 	H 	0.8903	0.0287	0.41627	0.109
Mof_C 	C 	0.7801	0.0513	0.45717	0.065
Mof_C 	C 	0.7526	0.0844	0.51847	-0.116
Mof_H 	H 	0.6926	0.0891	0.51957	0.087
Mof_C 	C 	0.8157	0.1101	0.57757	0.085
Mof_H 	H 	0.7959	0.13	0.62007	0.015
Mof_C 	C 	0.4489	0.0328	0.39377	-0.1
Mof_H 	H 	0.4903	0.0563	0.43547	0.081
Mof_C 	C 	0.3556	0.0299	0.39077	0.063
Mof_H 	H 	0.3335	0.0504	0.43187	0.016
Mof_O 	O 	0.9071	0.7796	0.06447	-0.258
Mof_N 	N 	0.9939	0.8628	0.06277	-0.097
Mof_O 	O 	0.9993	0.9386	0.02647	-0.189
Mof_O 	O 	0.0707	0.8719	0.09147	-0.108
Mof_N 	N 	0.174	0.1742	0.59707	0.179
Mof_O 	O 	0.1276	0.0844	0.60727	0.077
Mof_O 	O 	0.2651	0.2175	0.57817	-0.074
Mof_N 	N 	0.6022	0.9714	0.273	-0.129
Mof_N 	N 	0.7934	0.8912	0.0881	-0.221
Mof_C 	C 	0.6915	0.975	0.2754	0.127
Mof_C 	C 	0.8495	0.9223	0.148	0.086
Mof_H 	H 	0.9131	0.9249	0.1483	0.041
Mof_C 	C 	0.8197	0.9506	0.209	-0.114
Mof_H 	H 	0.8616	0.9713	0.2504	0.114
Mof_C 	C 	0.7288	0.9487	0.2095	0.064
Mof_C 	C 	0.6682	0.9156	0.1482	-0.115
Mof_H 	H 	0.6035	0.9109	0.1471	0.087
Mof_C 	C 	0.7056	0.8899	0.0891	0.084
Mof_H 	H 	0.6659	0.87	0.0466	0.008
Mof_C 	C 	0.4161	0.9672	0.2729	-0.082
Mof_H 	H 	0.434	0.9437	0.2312	0.079
Mof_C 	C 	0.3257	0.9701	0.2759	0.087
Mof_H 	H 	0.2831	0.9496	0.2348	0.015
Mof_O 	O 	0.1275	0.2204	0.6022	-0.254
Mof_N 	N 	0.1311	0.1372	0.6039	-0.139
Mof_O 	O 	0.0607	0.0614	0.6402	-0.21
Mof_O 	O 	0.1988	0.1281	0.5752	-0.128
Mof_N 	N 	0.9998	0.8258	0.0696	0.162
Mof_O 	O 	0.0432	0.9156	0.0594	0.034
Mof_O 	O 	0.0476	0.7825	0.0885	-0.09
Mof_N 	N 	0.3692	0.3978	0.93967	-0.125
Mof_N 	N 	0.0978	0.2066	0.75477	-0.22
Mof_C 	C 	0.2835	0.3085	0.94207	0.135
Mof_C 	C 	0.0728	0.1505	0.81467	0.084
Mof_H 	H 	0.0118	0.0869	0.81497	0.023
Mof_C 	C 	0.1309	0.1803	0.87567	-0.116
Mof_H 	H 	0.1097	0.1384	0.91707	0.105
Mof_C 	C 	0.2199	0.2712	0.87617	0.059
Mof_C 	C 	0.2474	0.3318	0.81487	-0.113
Mof_H 	H 	0.3074	0.3965	0.81377	0.089
Mof_C 	C 	0.1843	0.2944	0.75577	0.082
Mof_H 	H 	0.2041	0.3341	0.71327	0.015
Mof_C 	C 	0.5511	0.5839	0.93957	-0.069
Mof_H 	H 	0.5097	0.566	0.89787	0.079
Mof_C 	C 	0.6444	0.6743	0.94257	0.094
Mof_H 	H 	0.6665	0.7169	0.90147	0.015
Mof_O 	O 	0.0929	0.8725	0.26887	-0.242
Mof_N 	N 	0.0061	0.8689	0.27057	-0.191
Mof_O 	O 	0.0007	0.9393	0.30687	-0.204
Mof_O 	O 	0.9293	0.8012	0.24187	-0.134
Mof_N 	N 	0.826	0.0002	0.73627	0.199
Mof_O 	O 	0.8724	0.9568	0.72607	0.146
Mof_O 	O 	0.7349	0.9524	0.75517	-0.061
Mof_N 	N 	0.0286	0.6308	0.60633	-0.137
Mof_N 	N 	0.1088	0.9022	0.42143	-0.212
Mof_C 	C 	0.025	0.7165	0.60873	0.107
Mof_C 	C 	0.0777	0.9272	0.48133	0.088
Mof_H 	H 	0.0751	0.9882	0.48163	0.044
Mof_C 	C 	0.0494	0.8691	0.54233	-0.116
Mof_H 	H 	0.0287	0.8903	0.58373	0.109
Mof_C 	C 	0.0513	0.7801	0.54283	0.065
Mof_C 	C 	0.0844	0.7526	0.48153	-0.116
Mof_H 	H 	0.0891	0.6926	0.48043	0.087
Mof_C 	C 	0.1101	0.8157	0.42243	0.085
Mof_H 	H 	0.13	0.7959	0.37993	0.014
Mof_C 	C 	0.0328	0.4489	0.60623	-0.1
Mof_H 	H 	0.0563	0.4903	0.56453	0.081
Mof_C 	C 	0.0299	0.3556	0.60923	0.064
Mof_H 	H 	0.0504	0.3335	0.56813	0.015
Mof_O 	O 	0.7796	0.9071	0.93553	-0.238
Mof_N 	N 	0.8628	0.9939	0.93723	-0.087
Mof_O 	O 	0.9386	0.9993	0.97353	-0.148
Mof_O 	O 	0.8719	0.0707	0.90853	-0.099
Mof_N 	N 	0.1742	0.174	0.40293	0.179
Mof_O 	O 	0.0844	0.1276	0.39273	0.076
Mof_O 	O 	0.2175	0.2651	0.42183	-0.075
Mof_Ni	Ni	0.16166	-6.75056e-33	0.33333	1.101
Mof_Ni	Ni	-2.40646e-17	0.16166	0.66667	1.101
Mof_Ni	Ni	0.83834	0.83834	-0	1.095
Mof_N 	N 	-1.00069e-16	0.7507	0.66667	-0.144
Mof_N 	N 	-8.86364e-18	0.2972	0.66667	-0.245
Mof_C 	C 	-1.00069e-16	0.5765	0.66667	0.101
Mof_C 	C 	-3.92655e-17	0.4795	0.66667	0.026
Mof_N 	N 	0.2493	0.2493	-0	-0.155
Mof_N 	N 	0.7028	0.7028	-0	-0.25
Mof_C 	C 	0.4235	0.4235	-0	0.092
Mof_C 	C 	0.5205	0.5205	-0	0.014
Mof_N 	N 	0.7507	-6.75056e-33	0.33333	-0.144
Mof_N 	N 	0.2972	-6.75056e-33	0.33333	-0.245
Mof_C 	C 	0.5765	-6.75056e-33	0.33333	0.1
Mof_C 	C 	0.4795	-6.75056e-33	0.33333	0.025
_end
