data_functionalizedCrystal
_audit_creation_method	'EQeq! by Chris Wilmer'
_symmetry_space_group_name_H-M	'P1'
_symmetry_Int_Tables_number	1
_symmetry_cell_setting	triclinic
loop_
_symmetry_equiv_pos_as_xyz
  x,y,z
_cell_length_a	10.5125
_cell_length_b	10.5125
_cell_length_c	10.8652
_cell_angle_alpha	78.8877
_cell_angle_beta	62.4543
_cell_angle_gamma	108.834
loop_
_atom_site_label
_atom_site_type_symbol
_atom_site_fract_x
_atom_site_fract_y
_atom_site_fract_z
_atom_site_charge
Mof_Gd	Gd	0.05203	0.36555	0.87957	1.63
Mof_Gd	Gd	0.74512	0.9316	0.62043	1.664
Mof_Gd	Gd	0.94797	0.63445	0.12043	1.629
Mof_Gd	Gd	0.25488	0.0684	0.37957	1.663
Mof_H 	H 	0.46	0.3849	0.8181	0.244
Mof_H 	H 	0.6041	0.4888	0.6495	0.242
Mof_H 	H 	0.887	0.552	0.719	0.323
Mof_H 	H 	0.703	0.2781	0.6819	0.245
Mof_H 	H 	0.6383	0.2536	0.8505	0.243
Mof_H 	H 	0.771	0.606	0.781	0.321
Mof_H 	H 	0.54	0.6151	0.1819	0.244
Mof_H 	H 	0.3959	0.5112	0.3505	0.242
Mof_H 	H 	0.113	0.448	0.281	0.323
Mof_H 	H 	0.297	0.7219	0.3181	0.245
Mof_H 	H 	0.3617	0.7464	0.1495	0.243
Mof_H 	H 	0.229	0.394	0.219	0.321
Mof_C 	C 	0.453	0.5724	0.7434	0.654
Mof_C 	C 	0.4876	0.4476	0.722	-0.77
Mof_C 	C 	0.4022	0.3511	0.6685	0.581
Mof_C 	C 	0.9017	0.6249	0.8752	0.633
Mof_C 	C 	0.8158	0.1964	0.7566	0.653
Mof_C 	C 	0.6696	0.2096	0.778	-0.77
Mof_C 	C 	0.5196	0.0707	0.8315	0.584
Mof_C 	C 	0.0001	0.7769	0.6248	0.629
Mof_C 	C 	0.547	0.4276	0.2566	0.654
Mof_C 	C 	0.5124	0.5524	0.278	-0.77
Mof_C 	C 	0.5978	0.6489	0.3315	0.581
Mof_C 	C 	0.0983	0.3751	0.1248	0.633
Mof_C 	C 	0.1842	0.8036	0.2434	0.653
Mof_C 	C 	0.3304	0.7904	0.222	-0.77
Mof_C 	C 	0.4804	0.9293	0.1685	0.584
Mof_C 	C 	0.9999	0.2231	0.3752	0.629
Mof_C 	C 	0.8756	0.6256	0.75	-0.964
Mof_C 	C 	0.1244	0.3744	0.25	-0.964
Mof_O 	O 	0.3129	0.5582	0.7929	-0.514
Mof_O 	O 	0.5687	0.686	0.7153	-0.585
Mof_O 	O 	0.2528	0.3098	0.7254	-0.513
Mof_O 	O 	0.4826	0.3125	0.5725	-0.373
Mof_O 	O 	0.962	0.5491	0.9079	-0.594
Mof_O 	O 	0.8691	0.7071	0.9416	-0.485
Mof_O 	O 	0.8511	0.1058	0.7071	-0.509
Mof_O 	O 	0.9013	0.284	0.7847	-0.574
Mof_O 	O 	0.5352	0.9782	0.7746	-0.516
Mof_O 	O 	0.385	0.0551	0.9275	-0.376
Mof_O 	O 	0.957	0.8699	0.5921	-0.607
Mof_O 	O 	0.1487	0.8107	0.5584	-0.495
Mof_O 	O 	0.6871	0.4418	0.2071	-0.514
Mof_O 	O 	0.4313	0.314	0.2847	-0.585
Mof_O 	O 	0.7472	0.6902	0.2746	-0.513
Mof_O 	O 	0.5174	0.6875	0.4275	-0.373
Mof_O 	O 	0.038	0.4509	0.0921	-0.594
Mof_O 	O 	0.1309	0.2929	0.0584	-0.485
Mof_O 	O 	0.1489	0.8942	0.2929	-0.509
Mof_O 	O 	0.0987	0.716	0.2153	-0.574
Mof_O 	O 	0.4648	0.0218	0.2254	-0.516
Mof_O 	O 	0.615	0.9449	0.0725	-0.376
Mof_O 	O 	0.043	0.1301	0.4079	-0.607
Mof_O 	O 	0.8513	0.1893	0.4416	-0.495
_end
