data_functionalizedCrystal
_audit_creation_method	'EQeq! by Chris Wilmer'
_symmetry_space_group_name_H-M	'P1'
_symmetry_Int_Tables_number	1
_symmetry_cell_setting	triclinic
loop_
_symmetry_equiv_pos_as_xyz
  x,y,z
_cell_length_a	9.106
_cell_length_b	9.106
_cell_length_c	14.4522
_cell_angle_alpha	79.7737
_cell_angle_beta	79.7737
_cell_angle_gamma	115.878
loop_
_atom_site_label
_atom_site_type_symbol
_atom_site_fract_x
_atom_site_fract_y
_atom_site_fract_z
_atom_site_charge
Mof_Gd	Gd	0.50938	0.75938	0.98124	1.682
Mof_Gd	Gd	0.74062	0.99062	0.51876	1.679
Mof_Gd	Gd	0.49062	0.24062	0.01876	1.682
Mof_Gd	Gd	0.25938	0.00938	0.48124	1.679
Mof_H 	H 	0.095	0.179	0.946	0.095
Mof_H 	H 	0.959	0.375	0.946	0.092
Mof_H 	H 	0.321	0.405	0.554	0.093
Mof_H 	H 	0.125	0.541	0.554	0.093
Mof_H 	H 	0.905	0.821	0.054	0.095
Mof_H 	H 	0.041	0.625	0.054	0.092
Mof_H 	H 	0.679	0.595	0.446	0.093
Mof_H 	H 	0.875	0.459	0.446	0.093
Mof_C 	C 	0.25399	0.43439	0.94182	0.421
Mof_C 	C 	0.10377	0.28497	0.93566	-0.168
Mof_C 	C 	0.80419	0.12379	0.94182	0.422
Mof_C 	C 	0.96057	0.27937	0.93566	-0.153
Mof_C 	C 	0.06561	0.24601	0.55818	0.414
Mof_C 	C 	0.21503	0.39623	0.56434	-0.158
Mof_C 	C 	0.37621	0.69581	0.55818	0.419
Mof_C 	C 	0.22063	0.53943	0.56434	-0.161
Mof_C 	C 	0.74601	0.56561	0.05818	0.421
Mof_C 	C 	0.89623	0.71503	0.06434	-0.168
Mof_C 	C 	0.19581	0.87621	0.05818	0.422
Mof_C 	C 	0.03943	0.72063	0.06434	-0.153
Mof_C 	C 	0.93439	0.75399	0.44182	0.414
Mof_C 	C 	0.78497	0.60377	0.43566	-0.158
Mof_C 	C 	0.62379	0.30419	0.44182	0.419
Mof_C 	C 	0.77937	0.46057	0.43566	-0.161
Mof_C 	C 	0.6749	0.8251	0.75	0.268
Mof_C 	C 	0.5751	0.9249	0.75	0.268
Mof_C 	C 	0.3251	0.1749	0.25	0.268
Mof_C 	C 	0.4249	0.0751	0.25	0.268
Mof_O 	O 	0.36656	0.40624	0.9672	-0.521
Mof_O 	O 	0.26926	0.58068	0.92426	-0.428
Mof_O 	O 	0.65994	0.73776	0.8317	-0.379
Mof_O 	O 	0.66624	0.12656	0.9672	-0.519
Mof_O 	O 	0.80648	0.99506	0.92426	-0.43
Mof_O 	O 	0.50836	0.93054	0.8317	-0.38
Mof_O 	O 	0.09376	0.13344	0.5328	-0.52
Mof_O 	O 	0.91932	0.23074	0.57574	-0.424
Mof_O 	O 	0.76224	0.84006	0.6683	-0.38
Mof_O 	O 	0.37344	0.83376	0.5328	-0.52
Mof_O 	O 	0.50494	0.69352	0.57574	-0.426
Mof_O 	O 	0.56946	0.99164	0.6683	-0.379
Mof_O 	O 	0.63344	0.59376	0.0328	-0.521
Mof_O 	O 	0.73074	0.41932	0.07574	-0.428
Mof_O 	O 	0.34006	0.26224	0.1683	-0.379
Mof_O 	O 	0.33376	0.87344	0.0328	-0.519
Mof_O 	O 	0.19352	0.00494	0.07574	-0.43
Mof_O 	O 	0.49164	0.06946	0.1683	-0.38
Mof_O 	O 	0.90624	0.86656	0.4672	-0.52
Mof_O 	O 	0.08068	0.76926	0.42426	-0.424
Mof_O 	O 	0.23776	0.15994	0.3317	-0.38
Mof_O 	O 	0.62656	0.16624	0.4672	-0.52
Mof_O 	O 	0.49506	0.30648	0.42426	-0.426
Mof_O 	O 	0.43054	0.00836	0.3317	-0.379
_end
