# CIF file generated by openbabel 3.1.0, see https://openbabel.org
data_I
_chemical_name_common 'image0'
_cell_length_a 14.914
_cell_length_b 23.507
_cell_length_c 9.261
_cell_angle_alpha 90
_cell_angle_beta 90
_cell_angle_gamma 90
_space_group_name_H-M_alt 'P 1'
_space_group_name_Hall 'P 1'
loop_
    _symmetry_equiv_pos_as_xyz
    x,y,z
loop_
    _atom_site_label
    _atom_site_type_symbol
    _atom_site_fract_x
    _atom_site_fract_y
    _atom_site_fract_z
    _atom_site_occupancy
    Fe1      Fe       0.07694    0.44385    0.55071    1.000
    Cl1      Cl       0.18137    0.50420    0.64460    1.000
    O1       O        0.98310    0.37976    0.49560    1.000
    O2       O        0.01700    0.43018    0.74590    1.000
    O3       O        0.91260    0.37596    0.85290    1.000
    O4       O        0.88320    0.32280    0.60330    1.000
    C1       C        0.93990    0.36218    0.60280    1.000
    C2       C        0.95730    0.39225    0.74710    1.000
    Fe2      Fe       0.07694    0.94385    0.05071    1.000
    Cl2      Cl       0.18137    0.00420    0.14460    1.000
    O5       O        0.98310    0.87976    0.99560    1.000
    O6       O        0.01700    0.93018    0.24590    1.000
    O7       O        0.91260    0.87596    0.35290    1.000
    O8       O        0.88320    0.82280    0.10330    1.000
    C3       C        0.93990    0.86218    0.10280    1.000
    C4       C        0.95730    0.89225    0.24710    1.000
    Fe3      Fe       0.57694    0.44385    0.05071    1.000
    Cl3      Cl       0.68137    0.50420    0.14460    1.000
    O9       O        0.48310    0.37976    0.99560    1.000
    O10      O        0.51700    0.43018    0.24590    1.000
    O11      O        0.41260    0.37596    0.35290    1.000
    O12      O        0.38320    0.32280    0.10330    1.000
    C5       C        0.43990    0.36218    0.10280    1.000
    C6       C        0.45730    0.39225    0.24710    1.000
    Fe4      Fe       0.57694    0.94385    0.55071    1.000
    Cl4      Cl       0.68137    0.00420    0.64460    1.000
    O13      O        0.48310    0.87976    0.49560    1.000
    O14      O        0.51700    0.93018    0.74590    1.000
    O15      O        0.41260    0.87596    0.85290    1.000
    O16      O        0.38320    0.82280    0.60330    1.000
    C7       C        0.43990    0.86218    0.60280    1.000
    C8       C        0.45730    0.89225    0.74710    1.000
    Fe5      Fe       0.92306    0.55615    0.55071    1.000
    Cl5      Cl       0.81863    0.49580    0.64460    1.000
    O17      O        0.01690    0.62024    0.49560    1.000
    O18      O        0.98300    0.56982    0.74590    1.000
    O19      O        0.08740    0.62404    0.85290    1.000
    O20      O        0.11680    0.67720    0.60330    1.000
    C9       C        0.06010    0.63782    0.60280    1.000
    C10      C        0.04270    0.60775    0.74710    1.000
    Fe6      Fe       0.92306    0.05615    0.05071    1.000
    Cl6      Cl       0.81863    0.99580    0.14460    1.000
    O21      O        0.01690    0.12024    0.99560    1.000
    O22      O        0.98300    0.06982    0.24590    1.000
    O23      O        0.08740    0.12404    0.35290    1.000
    O24      O        0.11680    0.17720    0.10330    1.000
    C11      C        0.06010    0.13782    0.10280    1.000
    C12      C        0.04270    0.10775    0.24710    1.000
    Fe7      Fe       0.42306    0.55615    0.05071    1.000
    Cl7      Cl       0.31863    0.49580    0.14460    1.000
    O25      O        0.51690    0.62024    0.99560    1.000
    O26      O        0.48300    0.56982    0.24590    1.000
    O27      O        0.58740    0.62404    0.35290    1.000
    O28      O        0.61680    0.67720    0.10330    1.000
    C13      C        0.56010    0.63782    0.10280    1.000
    C14      C        0.54270    0.60775    0.24710    1.000
    Fe8      Fe       0.42306    0.05615    0.55071    1.000
    Cl8      Cl       0.31863    0.99580    0.64460    1.000
    O29      O        0.51690    0.12024    0.49560    1.000
    O30      O        0.48300    0.06982    0.74590    1.000
    O31      O        0.58740    0.12404    0.85290    1.000
    O32      O        0.61680    0.17720    0.60330    1.000
    C15      C        0.56010    0.13782    0.60280    1.000
    C16      C        0.54270    0.10775    0.74710    1.000
    Fe9      Fe       0.32694    0.80615    0.80071    1.000
    Cl9      Cl       0.43137    0.74580    0.89460    1.000
    O33      O        0.23310    0.87024    0.74560    1.000
    O34      O        0.26700    0.81982    0.99590    1.000
    O35      O        0.16260    0.87404    0.10290    1.000
    O36      O        0.13320    0.92720    0.85330    1.000
    C17      C        0.18990    0.88782    0.85280    1.000
    C18      C        0.20730    0.85775    0.99710    1.000
    Fe10     Fe       0.32694    0.30615    0.30071    1.000
    Cl10     Cl       0.43137    0.24580    0.39460    1.000
    O37      O        0.23310    0.37024    0.24560    1.000
    O38      O        0.26700    0.31982    0.49590    1.000
    O39      O        0.16260    0.37404    0.60290    1.000
    O40      O        0.13320    0.42720    0.35330    1.000
    C19      C        0.18990    0.38782    0.35280    1.000
    C20      C        0.20730    0.35775    0.49710    1.000
    Fe11     Fe       0.82694    0.80615    0.30071    1.000
    Cl11     Cl       0.93137    0.74580    0.39460    1.000
    O41      O        0.73310    0.87024    0.24560    1.000
    O42      O        0.76700    0.81982    0.49590    1.000
    O43      O        0.66260    0.87404    0.60290    1.000
    O44      O        0.63320    0.92720    0.35330    1.000
    C21      C        0.68990    0.88782    0.35280    1.000
    C22      C        0.70730    0.85775    0.49710    1.000
    Fe12     Fe       0.82694    0.30615    0.80071    1.000
    Cl12     Cl       0.93137    0.24580    0.89460    1.000
    O45      O        0.73310    0.37024    0.74560    1.000
    O46      O        0.76700    0.31982    0.99590    1.000
    O47      O        0.66260    0.37404    0.10290    1.000
    O48      O        0.63320    0.42720    0.85330    1.000
    C23      C        0.68990    0.38782    0.85280    1.000
    C24      C        0.70730    0.35775    0.99710    1.000
    Fe13     Fe       0.17306    0.69385    0.80071    1.000
    Cl13     Cl       0.06863    0.75420    0.89460    1.000
    O49      O        0.26690    0.62976    0.74560    1.000
    O50      O        0.23300    0.68018    0.99590    1.000
    O51      O        0.33740    0.62596    0.10290    1.000
    O52      O        0.36680    0.57280    0.85330    1.000
    C25      C        0.31010    0.61218    0.85280    1.000
    C26      C        0.29270    0.64225    0.99710    1.000
    Fe14     Fe       0.17306    0.19385    0.30071    1.000
    Cl14     Cl       0.06863    0.25420    0.39460    1.000
    O53      O        0.26690    0.12976    0.24560    1.000
    O54      O        0.23300    0.18018    0.49590    1.000
    O55      O        0.33740    0.12596    0.60290    1.000
    O56      O        0.36680    0.07280    0.35330    1.000
    C27      C        0.31010    0.11218    0.35280    1.000
    C28      C        0.29270    0.14225    0.49710    1.000
    Fe15     Fe       0.67306    0.69385    0.30071    1.000
    Cl15     Cl       0.56863    0.75420    0.39460    1.000
    O57      O        0.76690    0.62976    0.24560    1.000
    O58      O        0.73300    0.68018    0.49590    1.000
    O59      O        0.83740    0.62596    0.60290    1.000
    O60      O        0.86680    0.57280    0.35330    1.000
    C29      C        0.81010    0.61218    0.35280    1.000
    C30      C        0.79270    0.64225    0.49710    1.000
    Fe16     Fe       0.67306    0.19385    0.80071    1.000
    Cl16     Cl       0.56863    0.25420    0.89460    1.000
    O61      O        0.76690    0.12976    0.74560    1.000
    O62      O        0.73300    0.18018    0.99590    1.000
    O63      O        0.83740    0.12596    0.10290    1.000
    O64      O        0.86680    0.07280    0.85330    1.000
    C31      C        0.81010    0.11218    0.85280    1.000
    C32      C        0.79270    0.14225    0.99710    1.000
    O65      O        0.00000    0.50000    0.47030    1.000
    O66      O        0.00000    0.00000    0.97030    1.000
    O67      O        0.50000    0.50000    0.97030    1.000
    O68      O        0.50000    0.00000    0.47030    1.000
    O69      O        0.25000    0.75000    0.72030    1.000
    O70      O        0.25000    0.25000    0.22030    1.000
    O71      O        0.75000    0.75000    0.22030    1.000
    O72      O        0.75000    0.25000    0.72030    1.000
