data_functionalizedCrystal
_audit_creation_method	'EQeq! by Chris Wilmer'
_symmetry_space_group_name_H-M	'P1'
_symmetry_Int_Tables_number	1
_symmetry_cell_setting	triclinic
loop_
_symmetry_equiv_pos_as_xyz
  x,y,z
_cell_length_a	5.8265
_cell_length_b	19.0513
_cell_length_c	19.0513
_cell_angle_alpha	90
_cell_angle_beta	90
_cell_angle_gamma	90
loop_
_atom_site_label
_atom_site_type_symbol
_atom_site_fract_x
_atom_site_fract_y
_atom_site_fract_z
_atom_site_charge
Mof_Zn	Zn	0.25	0.72761	0.27239	1.248
Mof_Zn	Zn	0.75	0.27239	0.72761	1.259
Mof_Zn	Zn	2.79042e-33	0.22761	0.22761	1.238
Mof_Zn	Zn	0.5	0.77239	0.77239	1.254
Mof_Zn	Zn	0.75	0.77565	0.22435	1.254
Mof_Zn	Zn	0.25	0.22435	0.77565	1.242
Mof_Zn	Zn	0.5	0.27565	0.27565	1.248
Mof_Zn	Zn	5.66281e-32	0.72435	0.72435	1.232
Mof_H 	H 	0.406	0.624	0.239	0.402
Mof_H 	H 	0.978	0.493	0.3035	0.121
Mof_H 	H 	0.4052	0.46	0.2164	0.044
Mof_H 	H 	0.686	0.39	0.25	0.291
Mof_H 	H 	0.1742	0.5496	0.2069	0.016
Mof_H 	H 	0.4542	0.5033	0.3294	0.095
Mof_H 	H 	0.906	0.376	0.761	0.416
Mof_H 	H 	0.478	0.507	0.6965	0.061
Mof_H 	H 	0.9052	0.54	0.7836	0.046
Mof_H 	H 	0.186	0.61	0.75	0.3
Mof_H 	H 	0.6742	0.4504	0.7931	0.026
Mof_H 	H 	0.9542	0.4967	0.6706	0.117
Mof_H 	H 	0.156	0.261	0.124	0.421
Mof_H 	H 	0.728	0.1965	0.993	0.069
Mof_H 	H 	0.1552	0.2836	0.96	0.049
Mof_H 	H 	0.436	0.25	0.89	0.286
Mof_H 	H 	0.9242	0.2931	0.0496	0.022
Mof_H 	H 	0.2042	0.1706	0.0033	0.095
Mof_H 	H 	0.656	0.739	0.876	0.409
Mof_H 	H 	0.228	0.8035	0.007	0.054
Mof_H 	H 	0.6552	0.7164	0.04	0.051
Mof_H 	H 	0.936	0.75	0.11	0.306
Mof_H 	H 	0.4242	0.7069	0.9504	0.014
Mof_H 	H 	0.7042	0.8294	0.9967	0.104
Mof_H 	H 	0.344	0.876	0.739	0.4
Mof_H 	H 	0.772	0.007	0.8035	0.087
Mof_H 	H 	0.3448	0.04	0.7164	0.05
Mof_H 	H 	0.064	0.11	0.75	0.27
Mof_H 	H 	0.5758	0.9504	0.7069	0.028
Mof_H 	H 	0.2958	0.9967	0.8294	0.083
Mof_H 	H 	0.844	0.124	0.261	0.386
Mof_H 	H 	0.272	0.993	0.1965	0.072
Mof_H 	H 	0.8448	0.96	0.2836	0.052
Mof_H 	H 	0.564	0.89	0.25	0.289
Mof_H 	H 	0.0758	0.0496	0.2931	0.02
Mof_H 	H 	0.7958	0.0033	0.1706	0.093
Mof_H 	H 	0.594	0.239	0.624	0.406
Mof_H 	H 	0.022	0.3035	0.493	0.021
Mof_H 	H 	0.5948	0.2164	0.46	0.057
Mof_H 	H 	0.314	0.25	0.39	0.285
Mof_H 	H 	0.8258	0.2069	0.5496	0.027
Mof_H 	H 	0.5458	0.3294	0.5033	0.093
Mof_H 	H 	0.094	0.761	0.376	0.391
Mof_H 	H 	0.522	0.6965	0.507	0.08
Mof_H 	H 	0.0948	0.7836	0.54	0.055
Mof_H 	H 	0.814	0.75	0.61	0.274
Mof_H 	H 	0.3258	0.7931	0.4504	0.016
Mof_H 	H 	0.0458	0.6706	0.4967	0.07
Mof_C 	C 	0.9185	0.6175	0.2419	0.38
Mof_C 	C 	0.1136	0.5221	0.3125	-0.032
Mof_C 	C 	0.3697	0.4294	0.2563	0.018
Mof_C 	C 	0.1692	0.3825	0.2376	0.275
Mof_C 	C 	0.1402	0.575	0.2504	0.044
Mof_C 	C 	0.3192	0.474	0.3202	0.047
Mof_C 	C 	0.4185	0.3825	0.7581	0.344
Mof_C 	C 	0.6136	0.4779	0.6875	0.046
Mof_C 	C 	0.8697	0.5706	0.7437	0.062
Mof_C 	C 	0.6692	0.6175	0.7624	0.328
Mof_C 	C 	0.6402	0.425	0.7496	0.064
Mof_C 	C 	0.8192	0.526	0.6798	0.012
Mof_C 	C 	0.6685	0.2581	0.1175	0.33
Mof_C 	C 	0.8636	0.1875	0.0221	0.058
Mof_C 	C 	0.1197	0.2437	0.9294	-0.033
Mof_C 	C 	0.9192	0.2624	0.8825	0.384
Mof_C 	C 	0.8902	0.2496	0.075	0.115
Mof_C 	C 	0.0692	0.1798	0.974	0.011
Mof_C 	C 	0.1685	0.7419	0.8825	0.274
Mof_C 	C 	0.3636	0.8125	0.9779	0.037
Mof_C 	C 	0.6197	0.7563	0.0706	0.009
Mof_C 	C 	0.4192	0.7376	0.1175	0.342
Mof_C 	C 	0.3902	0.7504	0.925	0.087
Mof_C 	C 	0.5692	0.8202	0.026	0.028
Mof_C 	C 	0.8315	0.8825	0.7419	0.402
Mof_C 	C 	0.6364	0.9779	0.8125	0.024
Mof_C 	C 	0.3803	0.0706	0.7563	0.001
Mof_C 	C 	0.5808	0.1175	0.7376	0.338
Mof_C 	C 	0.6098	0.925	0.7504	0.057
Mof_C 	C 	0.4308	0.026	0.8202	0.048
Mof_C 	C 	0.3315	0.1175	0.2581	0.347
Mof_C 	C 	0.1364	0.0221	0.1875	0.004
Mof_C 	C 	0.8803	0.9294	0.2437	0.045
Mof_C 	C 	0.0808	0.8825	0.2624	0.293
Mof_C 	C 	0.1098	0.075	0.2496	0.027
Mof_C 	C 	0.9308	0.974	0.1798	0.065
Mof_C 	C 	0.0815	0.2419	0.6175	0.3
Mof_C 	C 	0.8864	0.3125	0.5221	0.093
Mof_C 	C 	0.6303	0.2563	0.4294	-0.007
Mof_C 	C 	0.8308	0.2376	0.3825	0.401
Mof_C 	C 	0.8598	0.2504	0.575	0.097
Mof_C 	C 	0.6808	0.3202	0.474	0.028
Mof_C 	C 	0.5815	0.7581	0.3825	0.334
Mof_C 	C 	0.3864	0.6875	0.4779	0.016
Mof_C 	C 	0.1303	0.7437	0.5706	-0.053
Mof_C 	C 	0.3308	0.7624	0.6175	0.35
Mof_C 	C 	0.3598	0.7496	0.425	0.079
Mof_C 	C 	0.1808	0.6798	0.526	0.064
Mof_O 	O 	0.9393	0.6838	0.243	-0.516
Mof_O 	O 	0.7386	0.5846	0.2318	-0.278
Mof_O 	O 	0.3244	0.6221	0.2668	-0.658
Mof_O 	O 	0.0754	0.5601	0.3746	-0.098
Mof_O 	O 	0.2877	0.4292	0.3791	-0.112
Mof_O 	O 	0.5668	0.3852	0.2715	-0.497
Mof_O 	O 	0.1942	0.3158	0.2469	-0.553
Mof_O 	O 	0.9911	0.4086	0.2136	-0.24
Mof_O 	O 	0.4393	0.3162	0.757	-0.538
Mof_O 	O 	0.2386	0.4154	0.7682	-0.298
Mof_O 	O 	0.8244	0.3779	0.7332	-0.656
Mof_O 	O 	0.5754	0.4399	0.6254	-0.096
Mof_O 	O 	0.7877	0.5708	0.6209	-0.081
Mof_O 	O 	0.0668	0.6148	0.7285	-0.55
Mof_O 	O 	0.6942	0.6842	0.7531	-0.541
Mof_O 	O 	0.4911	0.5914	0.7864	-0.296
Mof_O 	O 	0.6893	0.257	0.1838	-0.518
Mof_O 	O 	0.4886	0.2682	0.0846	-0.277
Mof_O 	O 	0.0744	0.2332	0.1221	-0.716
Mof_O 	O 	0.8254	0.1254	0.0601	-0.077
Mof_O 	O 	0.0377	0.1209	0.9292	-0.118
Mof_O 	O 	0.3168	0.2285	0.8852	-0.493
Mof_O 	O 	0.9442	0.2531	0.8158	-0.543
Mof_O 	O 	0.7411	0.2864	0.9086	-0.299
Mof_O 	O 	0.1893	0.743	0.8162	-0.528
Mof_O 	O 	0.9886	0.7318	0.9154	-0.218
Mof_O 	O 	0.5744	0.7668	0.8779	-0.664
Mof_O 	O 	0.3254	0.8746	0.9399	-0.1
Mof_O 	O 	0.5377	0.8791	0.0708	-0.102
Mof_O 	O 	0.8168	0.7715	0.1148	-0.495
Mof_O 	O 	0.4442	0.7469	0.1842	-0.561
Mof_O 	O 	0.2411	0.7136	0.0914	-0.317
Mof_O 	O 	0.8107	0.8162	0.743	-0.53
Mof_O 	O 	0.0114	0.9154	0.7318	-0.33
Mof_O 	O 	0.4256	0.8779	0.7668	-0.656
Mof_O 	O 	0.6746	0.9399	0.8746	-0.08
Mof_O 	O 	0.4623	0.0708	0.8791	-0.1
Mof_O 	O 	0.1832	0.1148	0.7715	-0.495
Mof_O 	O 	0.5558	0.1842	0.7469	-0.552
Mof_O 	O 	0.7589	0.0914	0.7136	-0.273
Mof_O 	O 	0.3107	0.1838	0.257	-0.54
Mof_O 	O 	0.5114	0.0846	0.2682	-0.271
Mof_O 	O 	0.9256	0.1221	0.2332	-0.597
Mof_O 	O 	0.1746	0.0601	0.1254	-0.103
Mof_O 	O 	0.9623	0.9292	0.1209	-0.083
Mof_O 	O 	0.6832	0.8852	0.2285	-0.497
Mof_O 	O 	0.0558	0.8158	0.2531	-0.571
Mof_O 	O 	0.2589	0.9086	0.2864	-0.289
Mof_O 	O 	0.0607	0.243	0.6838	-0.546
Mof_O 	O 	0.2614	0.2318	0.5846	-0.272
Mof_O 	O 	0.6756	0.2668	0.6221	-0.662
Mof_O 	O 	0.9246	0.3746	0.5601	-0.082
Mof_O 	O 	0.7123	0.3791	0.4292	-0.089
Mof_O 	O 	0.4332	0.2715	0.3852	-0.494
Mof_O 	O 	0.8058	0.2469	0.3158	-0.553
Mof_O 	O 	0.0089	0.2136	0.4086	-0.346
Mof_O 	O 	0.5607	0.757	0.3162	-0.525
Mof_O 	O 	0.7614	0.7682	0.4154	-0.249
Mof_O 	O 	0.1756	0.7332	0.3779	-0.664
Mof_O 	O 	0.4246	0.6254	0.4399	-0.084
Mof_O 	O 	0.2123	0.6209	0.5708	-0.119
Mof_O 	O 	0.9332	0.7285	0.6148	-0.434
Mof_O 	O 	0.3058	0.7531	0.6842	-0.566
Mof_O 	O 	0.5089	0.7864	0.5914	-0.292
_end
