data_functionalizedCrystal
_audit_creation_method	'EQeq! by Chris Wilmer'
_symmetry_space_group_name_H-M	'P1'
_symmetry_Int_Tables_number	1
_symmetry_cell_setting	triclinic
loop_
_symmetry_equiv_pos_as_xyz
  x,y,z
_cell_length_a	10.2941
_cell_length_b	10.2941
_cell_length_c	9.6484
_cell_angle_alpha	90
_cell_angle_beta	90
_cell_angle_gamma	90
loop_
_atom_site_label
_atom_site_type_symbol
_atom_site_fract_x
_atom_site_fract_y
_atom_site_fract_z
_atom_site_charge
Mof_O 	O 	0.3046	0.477	0.7198	-0.381
Mof_O 	O 	0.8046	0.977	0.2198	-0.381
Mof_O 	O 	0.6954	0.523	0.7198	-0.381
Mof_O 	O 	0.1954	0.023	0.2198	-0.381
Mof_O 	O 	0.477	0.6954	0.2802	-0.381
Mof_O 	O 	0.977	0.1954	0.7802	-0.381
Mof_O 	O 	0.523	0.3046	0.2802	-0.381
Mof_O 	O 	0.023	0.8046	0.7802	-0.381
Mof_O 	O 	0.6954	0.477	0.2802	-0.38
Mof_O 	O 	0.1954	0.977	0.7802	-0.38
Mof_O 	O 	0.3046	0.523	0.2802	-0.38
Mof_O 	O 	0.8046	0.023	0.7802	-0.38
Mof_O 	O 	0.523	0.6954	0.7198	-0.38
Mof_O 	O 	0.023	0.1954	0.2198	-0.38
Mof_O 	O 	0.477	0.3046	0.7198	-0.38
Mof_O 	O 	0.977	0.8046	0.2198	-0.38
Mof_Fe	Fe	0.36687	0.63313	0.63222	0.851
Mof_Fe	Fe	0.86687	0.13313	0.13222	0.851
Mof_Fe	Fe	0.63313	0.36687	0.63222	0.851
Mof_Fe	Fe	0.13313	0.86687	0.13222	0.851
Mof_Fe	Fe	0.63313	0.63313	0.36778	0.851
Mof_Fe	Fe	0.13313	0.13313	0.86778	0.851
Mof_Fe	Fe	0.36687	0.36687	0.36778	0.851
Mof_Fe	Fe	0.86687	0.86687	0.86778	0.851
Mof_P 	P 	0.33631	0.33631	0.6929	0.594
Mof_O 	O 	0.2992	0.2992	0.5484	-0.367
Mof_O 	O 	0.2562	0.2562	0.7902	-0.317
Mof_P 	P 	0.83631	0.83631	0.1929	0.594
Mof_O 	O 	0.7992	0.7992	0.0484	-0.367
Mof_O 	O 	0.7562	0.7562	0.2902	-0.317
Mof_P 	P 	0.66369	0.66369	0.6929	0.594
Mof_O 	O 	0.7008	0.7008	0.5484	-0.367
Mof_O 	O 	0.7438	0.7438	0.7902	-0.317
Mof_P 	P 	0.16369	0.16369	0.1929	0.594
Mof_O 	O 	0.2008	0.2008	0.0484	-0.367
Mof_O 	O 	0.2438	0.2438	0.2902	-0.317
Mof_P 	P 	0.33631	0.66369	0.3071	0.594
Mof_O 	O 	0.2992	0.7008	0.4516	-0.367
Mof_O 	O 	0.2562	0.7438	0.2098	-0.317
Mof_P 	P 	0.83631	0.16369	0.8071	0.594
Mof_O 	O 	0.7992	0.2008	0.9516	-0.367
Mof_O 	O 	0.7562	0.2438	0.7098	-0.317
Mof_P 	P 	0.66369	0.33631	0.3071	0.594
Mof_O 	O 	0.7008	0.2992	0.4516	-0.367
Mof_O 	O 	0.7438	0.2562	0.2098	-0.317
Mof_P 	P 	0.16369	0.83631	0.8071	0.594
Mof_O 	O 	0.2008	0.7992	0.9516	-0.367
Mof_O 	O 	0.2438	0.7562	0.7098	-0.317
_end
