data_functionalizedCrystal
_audit_creation_method	'EQeq! by Chris Wilmer'
_symmetry_space_group_name_H-M	'P1'
_symmetry_Int_Tables_number	1
_symmetry_cell_setting	triclinic
loop_
_symmetry_equiv_pos_as_xyz
  x,y,z
_cell_length_a	8.0451
_cell_length_b	21.3785
_cell_length_c	18.3326
_cell_angle_alpha	90
_cell_angle_beta	90.035
_cell_angle_gamma	90
loop_
_atom_site_label
_atom_site_type_symbol
_atom_site_fract_x
_atom_site_fract_y
_atom_site_fract_z
_atom_site_charge
Mof_Eu	Eu	0.1445	0.58122	0.2503	2.539
Mof_Eu	Eu	0.65187	0.63167	0.27537	2.546
Mof_Cl	Cl	0.9333	0.5987	0.3672	-0.737
Mof_C 	C 	0.286	0.7929	0.2589	-0.156
Mof_C 	C 	0.1325	0.8132	0.2658	0.03
Mof_H 	H 	0.0456	0.7847	0.2694	0.04
Mof_C 	C 	0.098	0.8782	0.2676	-0.018
Mof_H 	H 	0.9902	0.8928	0.2733	0.047
Mof_C 	C 	0.2276	0.9189	0.2609	-0.118
Mof_C 	C 	0.392	0.897	0.2535	-0.015
Mof_H 	H 	0.479	0.9253	0.2495	0.052
Mof_C 	C 	0.4221	0.8352	0.2521	0.018
Mof_H 	H 	0.53	0.8202	0.2469	0.034
Mof_C 	C 	0.326	0.7235	0.2519	0.576
Mof_C 	C 	0.1952	0.9873	0.2583	0.501
Mof_O 	O 	0.2054	0.6863	0.2616	-0.626
Mof_O 	O 	0.4646	0.7057	0.2363	-0.647
Mof_O 	O 	0.049	0.0066	0.2745	-0.611
Mof_O 	O 	0.3095	0.0225	0.2351	-0.571
Mof_C 	C 	0.8792	0.6752	0.0704	-0.19
Mof_C 	C 	0.778	0.7302	0.0777	0.089
Mof_H 	H 	0.7485	0.7451	0.1235	-0.005
Mof_C 	C 	0.727	0.7595	0.0173	-0.109
Mof_H 	H 	0.6639	0.7957	0.0221	0.086
Mof_C 	C 	0.7645	0.7376	0.9462	0.017
Mof_C 	C 	0.8628	0.6864	0.9398	-0.1
Mof_H 	H 	0.8943	0.6727	0.8937	0.079
Mof_C 	C 	0.9169	0.6541	0.0005	0.072
Mof_H 	H 	0.9793	0.6178	0.9947	0.017
Mof_C 	C 	0.951	0.643	0.1344	0.526
Mof_C 	C 	0.7107	0.7737	0.8796	0.286
Mof_O 	O 	0.8804	0.6476	0.1961	-0.692
Mof_O 	O 	0.0799	0.6143	0.1284	-0.565
Mof_O 	O 	0.5937	0.8143	0.8888	-0.456
Mof_O 	O 	0.7773	0.7655	0.8199	-0.425
Mof_C 	C 	0.474	0.5251	0.0688	-0.13
Mof_C 	C 	0.356	0.49	0.0353	0.008
Mof_H 	H 	0.2577	0.482	0.0602	0.036
Mof_C 	C 	0.625	0.5339	0.0332	0.001
Mof_H 	H 	0.7115	0.5556	0.0557	0.033
Mof_C 	C 	0.444	0.5505	0.1423	0.496
Mof_O 	O 	0.3341	0.5309	0.1795	-0.629
Mof_O 	O 	0.544	0.597	0.159	-0.474
Mof_C 	C 	0.4385	0.5175	0.431	-0.103
Mof_C 	C 	0.54	0.5573	0.4684	0.009
Mof_H 	H 	0.5679	0.596	0.4484	0.032
Mof_C 	C 	0.396	0.4599	0.4626	-0.014
Mof_H 	H 	0.3247	0.4328	0.4379	0.058
Mof_C 	C 	0.3582	0.5327	0.3613	0.404
Mof_O 	O 	0.4028	0.5852	0.3287	-0.667
Mof_O 	O 	0.2473	0.5008	0.3348	-0.485
Mof_H 	H 	0.6064	0.5863	0.1922	-0.084
Mof_Eu	Eu	0.8555	0.08122	0.2497	2.53
Mof_Eu	Eu	0.34813	0.13167	0.22463	2.545
Mof_Cl	Cl	0.0667	0.0987	0.1328	-0.735
Mof_C 	C 	0.714	0.2929	0.2411	-0.154
Mof_C 	C 	0.8675	0.3132	0.2342	0.025
Mof_H 	H 	0.9544	0.2847	0.2306	0.04
Mof_C 	C 	0.902	0.3782	0.2324	-0.012
Mof_H 	H 	0.0098	0.3928	0.2267	0.045
Mof_C 	C 	0.7724	0.4189	0.2391	-0.122
Mof_C 	C 	0.608	0.397	0.2465	-0.011
Mof_H 	H 	0.521	0.4253	0.2505	0.051
Mof_C 	C 	0.5779	0.3352	0.2479	0.015
Mof_H 	H 	0.47	0.3202	0.2531	0.036
Mof_C 	C 	0.674	0.2235	0.2481	0.575
Mof_C 	C 	0.8048	0.4873	0.2417	0.51
Mof_O 	O 	0.7946	0.1863	0.2384	-0.626
Mof_O 	O 	0.5354	0.2057	0.2637	-0.647
Mof_O 	O 	0.951	0.5066	0.2255	-0.617
Mof_O 	O 	0.6905	0.5225	0.2649	-0.575
Mof_C 	C 	0.1208	0.1752	0.4296	-0.194
Mof_C 	C 	0.222	0.2302	0.4223	0.092
Mof_H 	H 	0.2515	0.2451	0.3765	-0.006
Mof_C 	C 	0.273	0.2595	0.4827	-0.11
Mof_H 	H 	0.3361	0.2957	0.4779	0.087
Mof_C 	C 	0.2355	0.2376	0.5538	0.019
Mof_C 	C 	0.1372	0.1864	0.5602	-0.107
Mof_H 	H 	0.1057	0.1727	0.6063	0.081
Mof_C 	C 	0.0831	0.1541	0.4995	0.081
Mof_H 	H 	0.0207	0.1178	0.5053	0.013
Mof_C 	C 	0.049	0.143	0.3656	0.531
Mof_C 	C 	0.2893	0.2737	0.6204	0.285
Mof_O 	O 	0.1196	0.1476	0.3039	-0.692
Mof_O 	O 	0.9201	0.1143	0.3716	-0.567
Mof_O 	O 	0.4063	0.3143	0.6112	-0.456
Mof_O 	O 	0.2227	0.2655	0.6801	-0.425
Mof_C 	C 	0.526	0.0251	0.4312	-0.131
Mof_C 	C 	0.644	0.99	0.4647	0.008
Mof_H 	H 	0.7423	0.982	0.4398	0.037
Mof_C 	C 	0.375	0.0339	0.4668	0.002
Mof_H 	H 	0.2885	0.0556	0.4443	0.034
Mof_C 	C 	0.556	0.0505	0.3577	0.496
Mof_O 	O 	0.6659	0.0309	0.3205	-0.629
Mof_O 	O 	0.456	0.097	0.341	-0.474
Mof_C 	C 	0.5615	0.0175	0.069	-0.102
Mof_C 	C 	0.46	0.0573	0.0316	0.012
Mof_H 	H 	0.4321	0.096	0.0516	0.032
Mof_C 	C 	0.604	0.9599	0.0374	-0.018
Mof_H 	H 	0.6753	0.9328	0.0621	0.059
Mof_C 	C 	0.6418	0.0327	0.1387	0.403
Mof_O 	O 	0.5972	0.0852	0.1713	-0.667
Mof_O 	O 	0.7527	0.0008	0.1652	-0.485
Mof_H 	H 	0.3936	0.0863	0.3078	-0.084
Mof_Eu	Eu	0.8555	0.41878	0.7497	2.538
Mof_Eu	Eu	0.34813	0.36833	0.72463	2.545
Mof_Cl	Cl	0.0667	0.4013	0.6328	-0.738
Mof_C 	C 	0.714	0.2071	0.7411	-0.157
Mof_C 	C 	0.8675	0.1868	0.7342	0.029
Mof_H 	H 	0.9544	0.2153	0.7306	0.039
Mof_C 	C 	0.902	0.1218	0.7324	-0.018
Mof_H 	H 	0.0098	0.1072	0.7267	0.047
Mof_C 	C 	0.7724	0.0811	0.7391	-0.118
Mof_C 	C 	0.608	0.103	0.7465	-0.015
Mof_H 	H 	0.521	0.0747	0.7505	0.052
Mof_C 	C 	0.5779	0.1648	0.7479	0.018
Mof_H 	H 	0.47	0.1798	0.7531	0.034
Mof_C 	C 	0.674	0.2765	0.7481	0.576
Mof_C 	C 	0.8048	0.0127	0.7417	0.501
Mof_O 	O 	0.7946	0.3137	0.7384	-0.626
Mof_O 	O 	0.5354	0.2943	0.7637	-0.647
Mof_O 	O 	0.951	0.9934	0.7255	-0.611
Mof_O 	O 	0.6905	0.9775	0.7649	-0.571
Mof_C 	C 	0.1208	0.3248	0.9296	-0.19
Mof_C 	C 	0.222	0.2698	0.9223	0.089
Mof_H 	H 	0.2515	0.2549	0.8765	-0.005
Mof_C 	C 	0.273	0.2405	0.9827	-0.109
Mof_H 	H 	0.3361	0.2043	0.9779	0.086
Mof_C 	C 	0.2355	0.2624	0.0538	0.017
Mof_C 	C 	0.1372	0.3136	0.0602	-0.1
Mof_H 	H 	0.1057	0.3273	0.1063	0.079
Mof_C 	C 	0.0831	0.3459	0.9995	0.072
Mof_H 	H 	0.0207	0.3822	0.0053	0.017
Mof_C 	C 	0.049	0.357	0.8656	0.526
Mof_C 	C 	0.2893	0.2263	0.1204	0.286
Mof_O 	O 	0.1196	0.3524	0.8039	-0.692
Mof_O 	O 	0.9201	0.3857	0.8716	-0.565
Mof_O 	O 	0.4063	0.1857	0.1112	-0.456
Mof_O 	O 	0.2227	0.2345	0.1801	-0.425
Mof_C 	C 	0.526	0.4749	0.9312	-0.13
Mof_C 	C 	0.644	0.51	0.9647	0.008
Mof_H 	H 	0.7423	0.518	0.9398	0.036
Mof_C 	C 	0.375	0.4661	0.9668	0.001
Mof_H 	H 	0.2885	0.4444	0.9443	0.033
Mof_C 	C 	0.556	0.4495	0.8577	0.496
Mof_O 	O 	0.6659	0.4691	0.8205	-0.629
Mof_O 	O 	0.456	0.403	0.841	-0.474
Mof_C 	C 	0.5615	0.4825	0.569	-0.103
Mof_C 	C 	0.46	0.4427	0.5316	0.009
Mof_H 	H 	0.4321	0.404	0.5516	0.032
Mof_C 	C 	0.604	0.5401	0.5374	-0.014
Mof_H 	H 	0.6753	0.5672	0.5621	0.058
Mof_C 	C 	0.6418	0.4673	0.6387	0.404
Mof_O 	O 	0.5972	0.4148	0.6713	-0.667
Mof_O 	O 	0.7527	0.4992	0.6652	-0.485
Mof_H 	H 	0.3936	0.4137	0.8078	-0.084
Mof_Eu	Eu	0.1445	0.91878	0.7503	2.53
Mof_Eu	Eu	0.65187	0.86833	0.77537	2.545
Mof_Cl	Cl	0.9333	0.9013	0.8672	-0.735
Mof_C 	C 	0.286	0.7071	0.7589	-0.154
Mof_C 	C 	0.1325	0.6868	0.7658	0.025
Mof_H 	H 	0.0456	0.7153	0.7694	0.04
Mof_C 	C 	0.098	0.6218	0.7676	-0.012
Mof_H 	H 	0.9902	0.6072	0.7733	0.045
Mof_C 	C 	0.2276	0.5811	0.7609	-0.122
Mof_C 	C 	0.392	0.603	0.7535	-0.011
Mof_H 	H 	0.479	0.5747	0.7495	0.051
Mof_C 	C 	0.4221	0.6648	0.7521	0.015
Mof_H 	H 	0.53	0.6798	0.7469	0.036
Mof_C 	C 	0.326	0.7765	0.7519	0.575
Mof_C 	C 	0.1952	0.5127	0.7583	0.51
Mof_O 	O 	0.2054	0.8137	0.7616	-0.626
Mof_O 	O 	0.4646	0.7943	0.7363	-0.647
Mof_O 	O 	0.049	0.4934	0.7745	-0.617
Mof_O 	O 	0.3095	0.4775	0.7351	-0.575
Mof_C 	C 	0.8792	0.8248	0.5704	-0.194
Mof_C 	C 	0.778	0.7698	0.5777	0.092
Mof_H 	H 	0.7485	0.7549	0.6235	-0.006
Mof_C 	C 	0.727	0.7405	0.5173	-0.11
Mof_H 	H 	0.6639	0.7043	0.5221	0.087
Mof_C 	C 	0.7645	0.7624	0.4462	0.019
Mof_C 	C 	0.8628	0.8136	0.4398	-0.107
Mof_H 	H 	0.8943	0.8273	0.3937	0.081
Mof_C 	C 	0.9169	0.8459	0.5005	0.081
Mof_H 	H 	0.9793	0.8822	0.4947	0.013
Mof_C 	C 	0.951	0.857	0.6344	0.531
Mof_C 	C 	0.7107	0.7263	0.3796	0.285
Mof_O 	O 	0.8804	0.8524	0.6961	-0.692
Mof_O 	O 	0.0799	0.8857	0.6284	-0.567
Mof_O 	O 	0.5937	0.6857	0.3888	-0.456
Mof_O 	O 	0.7773	0.7345	0.3199	-0.425
Mof_C 	C 	0.474	0.9749	0.5688	-0.131
Mof_C 	C 	0.356	0.01	0.5353	0.008
Mof_H 	H 	0.2577	0.018	0.5602	0.037
Mof_C 	C 	0.625	0.9661	0.5332	0.002
Mof_H 	H 	0.7115	0.9444	0.5557	0.034
Mof_C 	C 	0.444	0.9495	0.6423	0.496
Mof_O 	O 	0.3341	0.9691	0.6795	-0.629
Mof_O 	O 	0.544	0.903	0.659	-0.474
Mof_C 	C 	0.4385	0.9825	0.931	-0.102
Mof_C 	C 	0.54	0.9427	0.9684	0.012
Mof_H 	H 	0.5679	0.904	0.9484	0.032
Mof_C 	C 	0.396	0.0401	0.9626	-0.018
Mof_H 	H 	0.3247	0.0672	0.9379	0.059
Mof_C 	C 	0.3582	0.9673	0.8613	0.403
Mof_O 	O 	0.4028	0.9148	0.8287	-0.667
Mof_O 	O 	0.2473	0.9992	0.8348	-0.485
Mof_H 	H 	0.6064	0.9137	0.6922	-0.084
_end
