data_functionalizedCrystal
_audit_creation_method	'EQeq! by Chris Wilmer'
_symmetry_space_group_name_H-M	'P1'
_symmetry_Int_Tables_number	1
_symmetry_cell_setting	triclinic
loop_
_symmetry_equiv_pos_as_xyz
  x,y,z
_cell_length_a	5.8767
_cell_length_b	7.5012
_cell_length_c	16.476
_cell_angle_alpha	90
_cell_angle_beta	90
_cell_angle_gamma	94.47
loop_
_atom_site_label
_atom_site_type_symbol
_atom_site_fract_x
_atom_site_fract_y
_atom_site_fract_z
_atom_site_charge
Mof_Ba	Ba	0.81964	0.71304	0.5328	1.657
Mof_Ba	Ba	0.18036	0.28696	0.0328	1.645
Mof_Ba	Ba	0.18036	0.28696	0.4672	1.657
Mof_Ba	Ba	0.81964	0.71304	0.9672	1.645
Mof_H 	H 	0.4567	0.8475	0.25	-0.083
Mof_H 	H 	0.7919	0.4738	0.25	0.122
Mof_H 	H 	0.5433	0.1525	0.75	-0.083
Mof_H 	H 	0.2081	0.5262	0.75	0.122
Mof_C 	C 	0.2261	0.7171	0.32316	-0.399
Mof_C 	C 	0.0193	0.6023	0.3249	0.347
Mof_C 	C 	0.7739	0.2829	0.82316	-0.398
Mof_C 	C 	0.9807	0.3977	0.8249	0.343
Mof_C 	C 	0.7739	0.2829	0.67684	-0.399
Mof_C 	C 	0.9807	0.3977	0.6751	0.347
Mof_C 	C 	0.2261	0.7171	0.17684	-0.398
Mof_C 	C 	0.0193	0.6023	0.1751	0.343
Mof_C 	C 	0.3234	0.7721	0.25	0.253
Mof_C 	C 	0.9253	0.5492	0.25	-0.438
Mof_C 	C 	0.6766	0.2279	0.75	0.253
Mof_C 	C 	0.0747	0.4508	0.75	-0.438
Mof_S 	S 	0.33876	0.79912	0.41489	0.65
Mof_S 	S 	0.66124	0.20088	0.91489	0.649
Mof_S 	S 	0.66124	0.20088	0.58511	0.65
Mof_S 	S 	0.33876	0.79912	0.08511	0.649
Mof_O 	O 	0.5573	0.8983	0.39936	-0.463
Mof_O 	O 	0.3665	0.6467	0.46893	-0.591
Mof_O 	O 	0.1695	0.9117	0.44936	-0.576
Mof_O 	O 	0.9258	0.5435	0.39375	-0.552
Mof_O 	O 	0.4427	0.1017	0.89936	-0.459
Mof_O 	O 	0.6335	0.3533	0.96893	-0.588
Mof_O 	O 	0.8305	0.0883	0.94936	-0.572
Mof_O 	O 	0.0742	0.4565	0.89375	-0.547
Mof_O 	O 	0.4427	0.1017	0.60064	-0.463
Mof_O 	O 	0.6335	0.3533	0.53107	-0.591
Mof_O 	O 	0.8305	0.0883	0.55064	-0.576
Mof_O 	O 	0.0742	0.4565	0.60625	-0.552
Mof_O 	O 	0.5573	0.8983	0.10064	-0.459
Mof_O 	O 	0.3665	0.6467	0.03107	-0.588
Mof_O 	O 	0.1695	0.9117	0.05064	-0.572
Mof_O 	O 	0.9258	0.5435	0.10625	-0.547
_end
