# CIF file generated by openbabel 3.1.0, see https://openbabel.org
data_I
_chemical_name_common 'image0'
_cell_length_a 6.3716
_cell_length_b 13.1646
_cell_length_c 14.8622
_cell_angle_alpha 90
_cell_angle_beta 90
_cell_angle_gamma 90
_space_group_name_H-M_alt 'P 1'
_space_group_name_Hall 'P 1'
loop_
    _symmetry_equiv_pos_as_xyz
    x,y,z
loop_
    _atom_site_label
    _atom_site_type_symbol
    _atom_site_fract_x
    _atom_site_fract_y
    _atom_site_fract_z
    _atom_site_occupancy
    N1       N        0.44820    0.64470    0.65860    1.000
    C1       C        0.52030    0.55350    0.68570    1.000
    H1       H        0.47380    0.52750    0.74040    1.000
    C2       C        0.66100    0.49710    0.63540    1.000
    H2       H        0.70570    0.43420    0.65640    1.000
    C3       C        0.73430    0.53320    0.55440    1.000
    C4       C        0.65430    0.62590    0.52730    1.000
    H3       H        0.69530    0.65330    0.47230    1.000
    C5       C        0.51660    0.67760    0.57990    1.000
    H4       H        0.46750    0.73990    0.55940    1.000
    C6       C        0.89150    0.47620    0.49960    1.000
    H5       H        0.92400    0.40800    0.51400    1.000
    H6       H        0.83000    0.46500    0.44600    1.000
    N2       N        0.05180    0.85530    0.65860    1.000
    C7       C        0.97970    0.94650    0.68570    1.000
    H7       H        0.02620    0.97250    0.74040    1.000
    C8       C        0.83900    0.00290    0.63540    1.000
    H8       H        0.79430    0.06580    0.65640    1.000
    C9       C        0.76570    0.96680    0.55440    1.000
    C10      C        0.84570    0.87410    0.52730    1.000
    H9       H        0.80470    0.84670    0.47230    1.000
    C11      C        0.98340    0.82240    0.57990    1.000
    H10      H        0.03250    0.76010    0.55940    1.000
    C12      C        0.60850    0.02380    0.49960    1.000
    H11      H        0.57600    0.09200    0.51400    1.000
    H12      H        0.67000    0.03500    0.44600    1.000
    N3       N        0.05180    0.64470    0.84140    1.000
    C13      C        0.97970    0.55350    0.81430    1.000
    H13      H        0.02620    0.52750    0.75960    1.000
    C14      C        0.83900    0.49710    0.86460    1.000
    H14      H        0.79430    0.43420    0.84360    1.000
    C15      C        0.76570    0.53320    0.94560    1.000
    C16      C        0.84570    0.62590    0.97270    1.000
    H15      H        0.80470    0.65330    0.02770    1.000
    C17      C        0.98340    0.67760    0.92010    1.000
    H16      H        0.03250    0.73990    0.94060    1.000
    C18      C        0.60850    0.47620    0.00040    1.000
    H17      H        0.57600    0.40800    0.98600    1.000
    H18      H        0.67000    0.46500    0.05400    1.000
    N4       N        0.44820    0.85530    0.84140    1.000
    C19      C        0.52030    0.94650    0.81430    1.000
    H19      H        0.47380    0.97250    0.75960    1.000
    C20      C        0.66100    0.00290    0.86460    1.000
    H20      H        0.70570    0.06580    0.84360    1.000
    C21      C        0.73430    0.96680    0.94560    1.000
    C22      C        0.65430    0.87410    0.97270    1.000
    H21      H        0.69530    0.84670    0.02770    1.000
    C23      C        0.51660    0.82240    0.92010    1.000
    H22      H        0.46750    0.76010    0.94060    1.000
    C24      C        0.89150    0.02380    0.00040    1.000
    H23      H        0.92400    0.09200    0.98600    1.000
    H24      H        0.83000    0.03500    0.05400    1.000
    N5       N        0.55180    0.35530    0.34140    1.000
    C25      C        0.47970    0.44650    0.31430    1.000
    H25      H        0.52620    0.47250    0.25960    1.000
    C26      C        0.33900    0.50290    0.36460    1.000
    H26      H        0.29430    0.56580    0.34360    1.000
    C27      C        0.26570    0.46680    0.44560    1.000
    C28      C        0.34570    0.37410    0.47270    1.000
    H27      H        0.30470    0.34670    0.52770    1.000
    C29      C        0.48340    0.32240    0.42010    1.000
    H28      H        0.53250    0.26010    0.44060    1.000
    C30      C        0.10850    0.52380    0.50040    1.000
    H29      H        0.07600    0.59200    0.48600    1.000
    H30      H        0.17000    0.53500    0.55400    1.000
    N6       N        0.94820    0.14470    0.34140    1.000
    C31      C        0.02030    0.05350    0.31430    1.000
    H31      H        0.97380    0.02750    0.25960    1.000
    C32      C        0.16100    0.99710    0.36460    1.000
    H32      H        0.20570    0.93420    0.34360    1.000
    C33      C        0.23430    0.03320    0.44560    1.000
    C34      C        0.15430    0.12590    0.47270    1.000
    H33      H        0.19530    0.15330    0.52770    1.000
    C35      C        0.01660    0.17760    0.42010    1.000
    H34      H        0.96750    0.23990    0.44060    1.000
    C36      C        0.39150    0.97620    0.50040    1.000
    H35      H        0.42400    0.90800    0.48600    1.000
    H36      H        0.33000    0.96500    0.55400    1.000
    N7       N        0.94820    0.35530    0.15860    1.000
    C37      C        0.02030    0.44650    0.18570    1.000
    H37      H        0.97380    0.47250    0.24040    1.000
    C38      C        0.16100    0.50290    0.13540    1.000
    H38      H        0.20570    0.56580    0.15640    1.000
    C39      C        0.23430    0.46680    0.05440    1.000
    C40      C        0.15430    0.37410    0.02730    1.000
    H39      H        0.19530    0.34670    0.97230    1.000
    C41      C        0.01660    0.32240    0.07990    1.000
    H40      H        0.96750    0.26010    0.05940    1.000
    C42      C        0.39150    0.52380    0.99960    1.000
    H41      H        0.42400    0.59200    0.01400    1.000
    H42      H        0.33000    0.53500    0.94600    1.000
    N8       N        0.55180    0.14470    0.15860    1.000
    C43      C        0.47970    0.05350    0.18570    1.000
    H43      H        0.52620    0.02750    0.24040    1.000
    C44      C        0.33900    0.99710    0.13540    1.000
    H44      H        0.29430    0.93420    0.15640    1.000
    C45      C        0.26570    0.03320    0.05440    1.000
    C46      C        0.34570    0.12590    0.02730    1.000
    H45      H        0.30470    0.15330    0.97230    1.000
    C47      C        0.48340    0.17760    0.07990    1.000
    H46      H        0.53250    0.23990    0.05940    1.000
    C48      C        0.10850    0.97620    0.99960    1.000
    H47      H        0.07600    0.90800    0.01400    1.000
    H48      H        0.17000    0.96500    0.94600    1.000
    Ag1      Ag       0.25000    0.75000    0.75000    1.000
    Ag2      Ag       0.75000    0.25000    0.25000    1.000
