data_functionalizedCrystal
_audit_creation_method	'EQeq! by Chris Wilmer'
_symmetry_space_group_name_H-M	'P1'
_symmetry_Int_Tables_number	1
_symmetry_cell_setting	triclinic
loop_
_symmetry_equiv_pos_as_xyz
  x,y,z
_cell_length_a	15.6399
_cell_length_b	17.9843
_cell_length_c	31.7741
_cell_angle_alpha	95.6742
_cell_angle_beta	104.247
_cell_angle_gamma	90
loop_
_atom_site_label
_atom_site_type_symbol
_atom_site_fract_x
_atom_site_fract_y
_atom_site_fract_z
_atom_site_charge
Mof_Cu	Cu	0.90037	0.47612	0.68938	0.933
Mof_Cu	Cu	0.90163	0.36467	0.41424	0.883
Mof_Cu	Cu	0.21099	0.02388	0.31062	0.924
Mof_Cu	Cu	0.48739	0.13533	0.58576	0.879
Mof_Cu	Cu	0.09963	0.52388	0.31062	0.928
Mof_Cu	Cu	0.09837	0.63533	0.58576	0.877
Mof_Cu	Cu	0.78901	0.97612	0.68938	0.934
Mof_Cu	Cu	0.51261	0.86467	0.41424	0.881
Mof_Cu	Cu	-0	0.5	-0	0.912
Mof_Cu	Cu	-0	0	-0	0.906
Mof_Cu	Cu	0.74704	0.75	-0	0.928
Mof_Cu	Cu	0.25296	0.25	-0	0.927
Mof_H 	H 	0.9396	0.5405	0.9058	0.054
Mof_H 	H 	0.8767	0.6189	0.0122	0.001
Mof_H 	H 	0.7827	0.7135	0.9066	0.073
Mof_H 	H 	0.972	0.5892	0.8486	0.112
Mof_H 	H 	0.8423	0.6583	0.7344	0.225
Mof_H 	H 	0.732	0.6991	0.765	0.044
Mof_H 	H 	0.7347	0.6826	0.8362	0.196
Mof_H 	H 	0.0807	0.6595	0.8436	0.949
Mof_H 	H 	0.1036	0.6996	0.806	0.968
Mof_H 	H 	0.1748	0.6521	0.8348	0.938
Mof_H 	H 	0.061	0.5165	0.8334	0.946
Mof_H 	H 	0.1552	0.5095	0.8246	0.975
Mof_H 	H 	0.0731	0.4732	0.79	0.943
Mof_H 	H 	0.1266	0.6261	0.7402	0.864
Mof_H 	H 	0.1121	0.5391	0.7336	0.829
Mof_H 	H 	0.1949	0.5752	0.768	0.83
Mof_H 	H 	0.9227	0.5926	0.5328	0.015
Mof_H 	H 	0.0288	0.5631	0.6542	-0.071
Mof_H 	H 	0.7941	0.4787	0.5994	0.059
Mof_H 	H 	0.8545	0.5065	0.477	0.123
Mof_H 	H 	0.5997	0.4559	0.4172	0.107
Mof_H 	H 	0.5644	0.4826	0.4834	0.047
Mof_H 	H 	0.6702	0.5134	0.546	0.196
Mof_H 	H 	0.6043	0.5335	0.3724	0.821
Mof_H 	H 	0.6799	0.5778	0.3604	0.809
Mof_H 	H 	0.6062	0.5352	0.3234	0.853
Mof_H 	H 	0.7912	0.5123	0.3296	0.745
Mof_H 	H 	0.7956	0.4249	0.3264	0.707
Mof_H 	H 	0.7211	0.4634	0.2938	0.718
Mof_H 	H 	0.605	0.3898	0.3642	0.784
Mof_H 	H 	0.6058	0.3896	0.315	0.81
Mof_H 	H 	0.6806	0.35	0.3468	0.761
Mof_H 	H 	0.9826	0.2487	0.6798	0.159
Mof_H 	H 	0.6915	0.461	0.7512	0.15
Mof_H 	H 	0.902	0.1392	0.3576	0.143
Mof_H 	H 	0.1909	0.6795	0.0238	0.172
Mof_H 	H 	0.5504	0.8991	0.9474	0.186
Mof_H 	H 	0.0338	0.9595	0.0942	0.045
Mof_H 	H 	0.8645	0.8811	0.9878	0.073
Mof_H 	H 	0.8761	0.7865	0.0934	0.078
Mof_H 	H 	0.1234	0.9108	0.1514	0.103
Mof_H 	H 	0.1079	0.8417	0.2656	0.228
Mof_H 	H 	0.967	0.8009	0.235	0.043
Mof_H 	H 	0.8985	0.8174	0.1638	0.189
Mof_H 	H 	0.2371	0.8405	0.1564	0.953
Mof_H 	H 	0.2976	0.8004	0.194	0.971
Mof_H 	H 	0.34	0.8479	0.1652	0.939
Mof_H 	H 	0.2276	0.9835	0.1666	0.945
Mof_H 	H 	0.3306	0.9905	0.1754	0.968
Mof_H 	H 	0.2831	0.0268	0.21	0.927
Mof_H 	H 	0.3864	0.8739	0.2598	0.869
Mof_H 	H 	0.3785	0.9609	0.2664	0.838
Mof_H 	H 	0.4269	0.9248	0.232	0.834
Mof_H 	H 	0.3899	0.9074	0.4672	0.014
Mof_H 	H 	0.3746	0.9369	0.3458	-0.049
Mof_H 	H 	0.1947	0.0213	0.4006	0.039
Mof_H 	H 	0.3775	0.9935	0.523	0.111
Mof_H 	H 	0.1825	0.0441	0.5828	0.09
Mof_H 	H 	0.081	0.0174	0.5166	0.059
Mof_H 	H 	0.1242	0.9866	0.454	0.179
Mof_H 	H 	0.2319	0.9665	0.6276	0.822
Mof_H 	H 	0.3195	0.9222	0.6396	0.806
Mof_H 	H 	0.2828	0.9648	0.6766	0.853
Mof_H 	H 	0.4616	0.9877	0.6704	0.764
Mof_H 	H 	0.4692	0.0751	0.6736	0.718
Mof_H 	H 	0.4273	0.0366	0.7062	0.727
Mof_H 	H 	0.2408	0.1102	0.6358	0.782
Mof_H 	H 	0.2908	0.1104	0.685	0.807
Mof_H 	H 	0.3338	0.15	0.6532	0.76
Mof_H 	H 	0.3028	0.2513	0.3202	0.163
Mof_H 	H 	0.9403	0.039	0.2488	0.132
Mof_H 	H 	0.5444	0.3608	0.6424	0.137
Mof_H 	H 	0.1671	0.8205	0.9762	0.149
Mof_H 	H 	0.603	0.6009	0.0526	0.212
Mof_H 	H 	0.0604	0.4595	0.0942	0.05
Mof_H 	H 	0.1233	0.3811	0.9878	0.071
Mof_H 	H 	0.2173	0.2865	0.0934	0.074
Mof_H 	H 	0.028	0.4108	0.1514	0.097
Mof_H 	H 	0.1577	0.3417	0.2656	0.222
Mof_H 	H 	0.268	0.3009	0.235	0.046
Mof_H 	H 	0.2653	0.3174	0.1638	0.193
Mof_H 	H 	0.9193	0.3405	0.1564	0.98
Mof_H 	H 	0.8964	0.3004	0.194	0.997
Mof_H 	H 	0.8252	0.3479	0.1652	0.96
Mof_H 	H 	0.939	0.4835	0.1666	0.983
Mof_H 	H 	0.8448	0.4905	0.1754	1.001
Mof_H 	H 	0.9269	0.5268	0.21	0.976
Mof_H 	H 	0.8734	0.3739	0.2598	0.89
Mof_H 	H 	0.8879	0.4609	0.2664	0.855
Mof_H 	H 	0.8051	0.4248	0.232	0.851
Mof_H 	H 	0.0773	0.4074	0.4672	0.009
Mof_H 	H 	0.9712	0.4369	0.3458	-0.029
Mof_H 	H 	0.2059	0.5213	0.4006	0.06
Mof_H 	H 	0.1455	0.4935	0.523	0.117
Mof_H 	H 	0.4003	0.5441	0.5828	0.106
Mof_H 	H 	0.4356	0.5174	0.5166	0.048
Mof_H 	H 	0.3298	0.4866	0.454	0.195
Mof_H 	H 	0.3957	0.4665	0.6276	0.82
Mof_H 	H 	0.3201	0.4222	0.6396	0.807
Mof_H 	H 	0.3938	0.4648	0.6766	0.853
Mof_H 	H 	0.2088	0.4877	0.6704	0.743
Mof_H 	H 	0.2044	0.5751	0.6736	0.707
Mof_H 	H 	0.2789	0.5366	0.7062	0.719
Mof_H 	H 	0.395	0.6102	0.6358	0.784
Mof_H 	H 	0.3942	0.6104	0.685	0.81
Mof_H 	H 	0.3194	0.65	0.6532	0.762
Mof_H 	H 	0.0174	0.7513	0.3202	0.167
Mof_H 	H 	0.3085	0.539	0.2488	0.15
Mof_H 	H 	0.098	0.8608	0.6424	0.135
Mof_H 	H 	0.8091	0.3205	0.9762	0.15
Mof_H 	H 	0.4496	0.1009	0.0526	0.21
Mof_H 	H 	0.9662	0.0405	0.9058	0.07
Mof_H 	H 	0.1355	0.1189	0.0122	-0.004
Mof_H 	H 	0.1239	0.2135	0.9066	0.068
Mof_H 	H 	0.8766	0.0892	0.8486	0.11
Mof_H 	H 	0.8921	0.1583	0.7344	0.217
Mof_H 	H 	0.033	0.1991	0.765	0.047
Mof_H 	H 	0.1015	0.1826	0.8362	0.202
Mof_H 	H 	0.7629	0.1595	0.8436	0.971
Mof_H 	H 	0.7024	0.1996	0.806	0.988
Mof_H 	H 	0.66	0.1521	0.8348	0.955
Mof_H 	H 	0.7724	0.0165	0.8334	0.976
Mof_H 	H 	0.6694	0.0095	0.8246	0.999
Mof_H 	H 	0.7169	0.9732	0.79	0.979
Mof_H 	H 	0.6136	0.1261	0.7402	0.88
Mof_H 	H 	0.6215	0.0391	0.7336	0.843
Mof_H 	H 	0.5731	0.0752	0.768	0.843
Mof_H 	H 	0.6101	0.0926	0.5328	0.011
Mof_H 	H 	0.6254	0.0631	0.6542	-0.052
Mof_H 	H 	0.8053	0.9787	0.5994	0.072
Mof_H 	H 	0.6225	0.0065	0.477	0.126
Mof_H 	H 	0.8175	0.9559	0.4172	0.117
Mof_H 	H 	0.919	0.9826	0.4834	0.042
Mof_H 	H 	0.8758	0.0134	0.546	0.208
Mof_H 	H 	0.7681	0.0335	0.3724	0.819
Mof_H 	H 	0.6805	0.0778	0.3604	0.808
Mof_H 	H 	0.7172	0.0352	0.3234	0.852
Mof_H 	H 	0.5384	0.0123	0.3296	0.723
Mof_H 	H 	0.5308	0.9249	0.3264	0.695
Mof_H 	H 	0.5727	0.9634	0.2938	0.708
Mof_H 	H 	0.7592	0.8898	0.3642	0.785
Mof_H 	H 	0.7092	0.8896	0.315	0.81
Mof_H 	H 	0.6662	0.85	0.3468	0.761
Mof_H 	H 	0.6972	0.7487	0.6798	0.162
Mof_H 	H 	0.0597	0.961	0.7512	0.166
Mof_H 	H 	0.4556	0.6392	0.3576	0.137
Mof_H 	H 	0.8329	0.1795	0.0238	0.175
Mof_H 	H 	0.397	0.3991	0.9474	0.183
Mof_C 	C 	0.90989	0.5752	0.92018	0.104
Mof_C 	C 	0.87276	0.6215	0.98272	0.19
Mof_C 	C 	0.81751	0.6771	0.92082	0.099
Mof_C 	C 	0.86058	0.6279	0.89676	-0.064
Mof_C 	C 	0.85475	0.6348	0.8501	0.256
Mof_C 	C 	0.92298	0.6108	0.83176	-0.267
Mof_C 	C 	0.91834	0.619	0.78768	0.295
Mof_C 	C 	0.84591	0.6522	0.76342	-0.277
Mof_C 	C 	0.77999	0.676	0.78178	0.249
Mof_C 	C 	0.7816	0.6672	0.8246	-0.232
Mof_C 	C 	0.08109	0.5866	0.78958	1.923
Mof_C 	C 	0.11302	0.6559	0.82144	-2.811
Mof_C 	C 	0.09379	0.5149	0.81138	-2.839
Mof_C 	C 	0.13357	0.5813	0.75454	-2.617
Mof_C 	C 	0.91981	0.5718	0.55802	0.094
Mof_C 	C 	0.98147	0.5555	0.62974	0.204
Mof_C 	C 	0.8436	0.5058	0.5976	0.1
Mof_C 	C 	0.84513	0.5311	0.55846	-0.075
Mof_C 	C 	0.77385	0.5131	0.5181	0.202
Mof_C 	C 	0.79599	0.501	0.47818	-0.234
Mof_C 	C 	0.73063	0.4806	0.44006	0.208
Mof_C 	C 	0.64351	0.4715	0.44222	-0.247
Mof_C 	C 	0.62307	0.4861	0.48214	0.213
Mof_C 	C 	0.6858	0.5054	0.5196	-0.212
Mof_C 	C 	0.69695	0.4647	0.3551	1.619
Mof_C 	C 	0.64178	0.5342	0.35256	-2.469
Mof_C 	C 	0.7569	0.4665	0.3232	-2.25
Mof_C 	C 	0.64192	0.3917	0.34424	-2.374
Mof_C 	C 	0.81725	0.2435	0.6397	0.81
Mof_C 	C 	0.87651	0.311	0.65882	0.027
Mof_C 	C 	0.96528	0.2979	0.67756	-0.017
Mof_C 	C 	0.02775	0.3538	0.6927	-0.004
Mof_C 	C 	0.1218	0.3296	0.707	0.817
Mof_C 	C 	0.63497	0.5426	0.68594	0.901
Mof_C 	C 	0.7219	0.5073	0.7014	-0.025
Mof_C 	C 	0.73784	0.4677	0.73828	0.008
Mof_C 	C 	0.81701	0.4387	0.75622	0.012
Mof_C 	C 	0.83	0.3965	0.7966	0.888
Mof_C 	C 	0.00573	0.1513	0.43486	0.759
Mof_C 	C 	0.95819	0.2106	0.40878	0.053
Mof_C 	C 	0.90798	0.1899	0.36736	-0.041
Mof_C 	C 	0.86522	0.2402	0.33884	0.006
Mof_C 	C 	0.81529	0.2098	0.29398	0.828
Mof_C 	C 	0.21378	0.5958	0.95656	0.833
Mof_C 	C 	0.14917	0.5854	0.98494	0.084
Mof_C 	C 	0.15139	0.6392	0.01958	-0.098
Mof_C 	C 	0.09751	0.6362	0.04842	0.053
Mof_C 	C 	0.1062	0.701	0.0834	0.776
Mof_C 	C 	0.65147	0.8694	0.89194	0.946
Mof_C 	C 	0.65648	0.8471	0.93856	0.083
Mof_C 	C 	0.5965	0.8701	0.9608	-0.137
Mof_C 	C 	0.6005	0.8528	0.0022	0.247
Mof_C 	C 	0.98971	0.9248	0.07982	0.11
Mof_C 	C 	0.89004	0.8785	0.01728	0.079
Mof_C 	C 	0.89669	0.8229	0.07918	0.086
Mof_C 	C 	0.96382	0.8721	0.10324	-0.043
Mof_C 	C 	0.00465	0.8652	0.1499	0.224
Mof_C 	C 	0.09122	0.8892	0.16824	-0.255
Mof_C 	C 	0.13066	0.881	0.21232	0.293
Mof_C 	C 	0.08249	0.8478	0.23658	-0.292
Mof_C 	C 	0.99821	0.824	0.21822	0.26
Mof_C 	C 	0.957	0.8328	0.1754	-0.21
Mof_C 	C 	0.29151	0.9134	0.21042	1.928
Mof_C 	C 	0.29158	0.8441	0.17856	-2.816
Mof_C 	C 	0.28241	0.9851	0.18862	-2.803
Mof_C 	C 	0.37903	0.9187	0.24546	-2.626
Mof_C 	C 	0.36179	0.9282	0.44198	0.091
Mof_C 	C 	0.35173	0.9445	0.37026	0.175
Mof_C 	C 	0.246	0.9942	0.4024	0.122
Mof_C 	C 	0.28667	0.9689	0.44154	-0.071
Mof_C 	C 	0.25575	0.9869	0.4819	0.175
Mof_C 	C 	0.31781	0.999	0.52182	-0.191
Mof_C 	C 	0.29057	0.0194	0.55994	0.17
Mof_C 	C 	0.20129	0.0285	0.55778	-0.208
Mof_C 	C 	0.14093	0.0139	0.51786	0.152
Mof_C 	C 	0.1662	0.9946	0.4804	-0.156
Mof_C 	C 	0.34185	0.0353	0.6449	1.615
Mof_C 	C 	0.28922	0.9658	0.64744	-2.454
Mof_C 	C 	0.4337	0.0335	0.6768	-2.289
Mof_C 	C 	0.29768	0.1083	0.65576	-2.37
Mof_C 	C 	0.17755	0.2565	0.3603	0.806
Mof_C 	C 	0.21769	0.189	0.34118	0.036
Mof_C 	C 	0.28772	0.2021	0.32244	-0.051
Mof_C 	C 	0.33505	0.1462	0.3073	0.025
Mof_C 	C 	0.4148	0.1704	0.293	0.811
Mof_C 	C 	0.94903	0.9574	0.31406	0.919
Mof_C 	C 	0.0205	0.9927	0.2986	-0.057
Mof_C 	C 	0.99956	0.0323	0.26172	0.062
Mof_C 	C 	0.06079	0.0613	0.24378	-0.026
Mof_C 	C 	0.0334	0.1035	0.2034	0.884
Mof_C 	C 	0.57087	0.3487	0.56514	0.808
Mof_C 	C 	0.54941	0.2894	0.59122	0.024
Mof_C 	C 	0.54062	0.3101	0.63264	-0.028
Mof_C 	C 	0.52638	0.2598	0.66116	-0.001
Mof_C 	C 	0.52131	0.2902	0.70602	0.83
Mof_C 	C 	0.25722	0.9042	0.04344	0.856
Mof_C 	C 	0.16423	0.9146	0.01506	-0.012
Mof_C 	C 	0.13181	0.8608	0.98042	0.026
Mof_C 	C 	0.04909	0.8638	0.95158	0.006
Mof_C 	C 	0.0228	0.799	0.9166	0.786
Mof_C 	C 	0.75953	0.6306	0.10806	0.932
Mof_C 	C 	0.71792	0.6529	0.06144	0.124
Mof_C 	C 	0.6357	0.6299	0.0392	-0.255
Mof_C 	C 	0.5983	0.6472	0.9978	0.344
Mof_C 	C 	0.09011	0.4248	0.07982	0.093
Mof_C 	C 	0.12724	0.3785	0.01728	0.073
Mof_C 	C 	0.18249	0.3229	0.07918	0.088
Mof_C 	C 	0.13942	0.3721	0.10324	-0.059
Mof_C 	C 	0.14525	0.3652	0.1499	0.247
Mof_C 	C 	0.07702	0.3892	0.16824	-0.263
Mof_C 	C 	0.08166	0.381	0.21232	0.286
Mof_C 	C 	0.15409	0.3478	0.23658	-0.272
Mof_C 	C 	0.22001	0.324	0.21822	0.242
Mof_C 	C 	0.2184	0.3328	0.1754	-0.226
Mof_C 	C 	0.91891	0.4134	0.21042	1.997
Mof_C 	C 	0.88698	0.3441	0.17856	-2.892
Mof_C 	C 	0.90621	0.4851	0.18862	-2.928
Mof_C 	C 	0.86643	0.4187	0.24546	-2.692
Mof_C 	C 	0.08019	0.4282	0.44198	0.088
Mof_C 	C 	0.01853	0.4445	0.37026	0.142
Mof_C 	C 	0.1564	0.4942	0.4024	0.095
Mof_C 	C 	0.15487	0.4689	0.44154	-0.072
Mof_C 	C 	0.22615	0.4869	0.4819	0.198
Mof_C 	C 	0.20401	0.499	0.52182	-0.231
Mof_C 	C 	0.26937	0.5194	0.55994	0.205
Mof_C 	C 	0.35649	0.5285	0.55778	-0.244
Mof_C 	C 	0.37693	0.5139	0.51786	0.209
Mof_C 	C 	0.3142	0.4946	0.4804	-0.209
Mof_C 	C 	0.30305	0.5353	0.6449	1.617
Mof_C 	C 	0.35822	0.4658	0.64744	-2.466
Mof_C 	C 	0.2431	0.5335	0.6768	-2.248
Mof_C 	C 	0.35808	0.6083	0.65576	-2.373
Mof_C 	C 	0.18275	0.7565	0.3603	0.803
Mof_C 	C 	0.12349	0.689	0.34118	0.043
Mof_C 	C 	0.03472	0.7021	0.32244	-0.076
Mof_C 	C 	0.97225	0.6462	0.3073	0.046
Mof_C 	C 	0.8782	0.6704	0.293	0.807
Mof_C 	C 	0.36503	0.4574	0.31406	0.901
Mof_C 	C 	0.2781	0.4927	0.2986	-0.024
Mof_C 	C 	0.26216	0.5323	0.26172	0.007
Mof_C 	C 	0.18299	0.5613	0.24378	0.013
Mof_C 	C 	0.17	0.6035	0.2034	0.887
Mof_C 	C 	0.99427	0.8487	0.56514	0.84
Mof_C 	C 	0.04181	0.7894	0.59122	0.005
Mof_C 	C 	0.09202	0.8101	0.63264	-0.021
Mof_C 	C 	0.13478	0.7598	0.66116	-0.005
Mof_C 	C 	0.18471	0.7902	0.70602	0.831
Mof_C 	C 	0.78622	0.4042	0.04344	0.856
Mof_C 	C 	0.85083	0.4146	0.01506	-0.011
Mof_C 	C 	0.84861	0.3608	0.98042	0.022
Mof_C 	C 	0.90249	0.3638	0.95158	0.02
Mof_C 	C 	0.8938	0.299	0.9166	0.792
Mof_C 	C 	0.34853	0.1306	0.10806	0.932
Mof_C 	C 	0.34352	0.1529	0.06144	0.122
Mof_C 	C 	0.4035	0.1299	0.0392	-0.256
Mof_C 	C 	0.3995	0.1472	0.9978	0.342
Mof_C 	C 	0.01029	0.0752	0.92018	0.073
Mof_C 	C 	0.10996	0.1215	0.98272	0.188
Mof_C 	C 	0.10331	0.1771	0.92082	0.103
Mof_C 	C 	0.03618	0.1279	0.89676	-0.084
Mof_C 	C 	0.99535	0.1348	0.8501	0.293
Mof_C 	C 	0.90878	0.1108	0.83176	-0.278
Mof_C 	C 	0.86934	0.119	0.78768	0.289
Mof_C 	C 	0.91751	0.1522	0.76342	-0.249
Mof_C 	C 	0.00179	0.176	0.78178	0.225
Mof_C 	C 	0.043	0.1672	0.8246	-0.258
Mof_C 	C 	0.70849	0.0866	0.78958	1.976
Mof_C 	C 	0.70842	0.1559	0.82144	-2.869
Mof_C 	C 	0.71759	0.0149	0.81138	-2.928
Mof_C 	C 	0.62097	0.0813	0.75454	-2.667
Mof_C 	C 	0.63821	0.0718	0.55802	0.092
Mof_C 	C 	0.64827	0.0555	0.62974	0.173
Mof_C 	C 	0.754	0.0058	0.5976	0.085
Mof_C 	C 	0.71333	0.0311	0.55846	-0.076
Mof_C 	C 	0.74425	0.0131	0.5181	0.216
Mof_C 	C 	0.68219	0.001	0.47818	-0.259
Mof_C 	C 	0.70943	0.9806	0.44006	0.231
Mof_C 	C 	0.79871	0.9715	0.44222	-0.268
Mof_C 	C 	0.85907	0.9861	0.48214	0.246
Mof_C 	C 	0.8338	0.0054	0.5196	-0.242
Mof_C 	C 	0.65815	0.9647	0.3551	1.616
Mof_C 	C 	0.71078	0.0342	0.35256	-2.474
Mof_C 	C 	0.5663	0.9665	0.3232	-2.204
Mof_C 	C 	0.70232	0.8917	0.34424	-2.371
Mof_C 	C 	0.82245	0.7435	0.6397	0.807
Mof_C 	C 	0.78231	0.811	0.65882	0.035
Mof_C 	C 	0.71228	0.7979	0.67756	-0.048
Mof_C 	C 	0.66495	0.8538	0.6927	0.023
Mof_C 	C 	0.5852	0.8296	0.707	0.812
Mof_C 	C 	0.05097	0.0426	0.68594	0.876
Mof_C 	C 	0.9795	0.0073	0.7014	0.014
Mof_C 	C 	0.00044	0.9677	0.73828	-0.036
Mof_C 	C 	0.93921	0.9387	0.75622	0.04
Mof_C 	C 	0.9666	0.8965	0.7966	0.887
Mof_C 	C 	0.42913	0.6513	0.43486	0.808
Mof_C 	C 	0.45059	0.7106	0.40878	0.024
Mof_C 	C 	0.45938	0.6899	0.36736	-0.028
Mof_C 	C 	0.47362	0.7402	0.33884	-0.001
Mof_C 	C 	0.47869	0.7098	0.29398	0.83
Mof_C 	C 	0.74278	0.0958	0.95656	0.832
Mof_C 	C 	0.83577	0.0854	0.98494	0.089
Mof_C 	C 	0.86819	0.1392	0.01958	-0.107
Mof_C 	C 	0.95091	0.1362	0.04842	0.078
Mof_C 	C 	0.9772	0.201	0.0834	0.784
Mof_C 	C 	0.24047	0.3694	0.89194	0.947
Mof_C 	C 	0.28208	0.3471	0.93856	0.08
Mof_C 	C 	0.3643	0.3701	0.9608	-0.133
Mof_C 	C 	0.4017	0.3528	0.0022	0.242
Mof_N 	N 	0.91657	0.5721	0.96314	-0.191
Mof_N 	N 	0.82376	0.6743	0.96352	-0.179
Mof_N 	N 	0.98601	0.594	0.76742	-0.334
Mof_N 	N 	0.98904	0.5823	0.59348	-0.216
Mof_N 	N 	0.91045	0.5184	0.6335	-0.207
Mof_N 	N 	0.7574	0.4667	0.4006	-0.29
Mof_N 	N 	0.95343	0.9279	0.03686	-0.183
Mof_N 	N 	0.86024	0.8257	0.03648	-0.17
Mof_N 	N 	0.21859	0.906	0.23258	-0.339
Mof_N 	N 	0.39556	0.9177	0.40652	-0.215
Mof_N 	N 	0.27695	0.9816	0.3665	-0.204
Mof_N 	N 	0.3568	0.0333	0.5994	-0.285
Mof_N 	N 	0.08343	0.4279	0.03686	-0.188
Mof_N 	N 	0.17624	0.3257	0.03648	-0.172
Mof_N 	N 	0.01399	0.406	0.23258	-0.355
Mof_N 	N 	0.01096	0.4177	0.40652	-0.216
Mof_N 	N 	0.08955	0.4816	0.3665	-0.2
Mof_N 	N 	0.2426	0.5333	0.5994	-0.289
Mof_N 	N 	0.04657	0.0721	0.96314	-0.195
Mof_N 	N 	0.13976	0.1743	0.96352	-0.181
Mof_N 	N 	0.78141	0.094	0.76742	-0.347
Mof_N 	N 	0.60444	0.0823	0.59348	-0.216
Mof_N 	N 	0.72305	0.0184	0.6335	-0.203
Mof_N 	N 	0.6432	0.9667	0.4006	-0.291
Mof_O 	O 	0.9622	0.5809	0.7252	-0.17
Mof_O 	O 	0.84106	0.4595	0.40412	-0.269
Mof_O 	O 	0.84029	0.373	0.65478	-0.175
Mof_O 	O 	0.01882	0.4235	0.69504	-0.295
Mof_O 	O 	0.77507	0.5198	0.67874	-0.175
Mof_O 	O 	0.88725	0.4407	0.7435	-0.25
Mof_O 	O 	0.97223	0.2752	0.42846	-0.234
Mof_O 	O 	0.86631	0.3097	0.34602	-0.276
Mof_O 	O 	0.09986	0.5293	0.97292	-0.22
Mof_O 	O 	0.04145	0.588	0.0491	-0.213
Mof_O 	O 	0.72389	0.8081	0.95058	-0.241
Mof_O 	O 	0.65888	0.8184	0.02616	-0.279
Mof_O 	O 	0.237	0.9191	0.2748	-0.173
Mof_O 	O 	0.43694	0.0405	0.59588	-0.276
Mof_O 	O 	0.18551	0.127	0.34522	-0.184
Mof_O 	O 	0.32378	0.0765	0.30496	-0.298
Mof_O 	O 	0.09633	0.9802	0.32126	-0.163
Mof_O 	O 	0.14375	0.0593	0.2565	-0.249
Mof_O 	O 	0.54377	0.2248	0.57154	-0.235
Mof_O 	O 	0.52029	0.1903	0.65398	-0.276
Mof_O 	O 	0.12694	0.9707	0.02708	-0.201
Mof_O 	O 	0.99235	0.912	0.9509	-0.165
Mof_O 	O 	0.77331	0.6919	0.04942	-0.267
Mof_O 	O 	0.63272	0.6816	0.97384	-0.285
Mof_O 	O 	0.0378	0.4191	0.2748	-0.182
Mof_O 	O 	0.15894	0.5405	0.59588	-0.275
Mof_O 	O 	0.15971	0.627	0.34522	-0.183
Mof_O 	O 	0.98118	0.5765	0.30496	-0.293
Mof_O 	O 	0.22493	0.4802	0.32126	-0.176
Mof_O 	O 	0.11275	0.5593	0.2565	-0.259
Mof_O 	O 	0.02777	0.7248	0.57154	-0.235
Mof_O 	O 	0.13369	0.6903	0.65398	-0.276
Mof_O 	O 	0.90014	0.4707	0.02708	-0.202
Mof_O 	O 	0.95855	0.412	0.9509	-0.175
Mof_O 	O 	0.27611	0.1919	0.04942	-0.269
Mof_O 	O 	0.34112	0.1816	0.97384	-0.286
Mof_O 	O 	0.763	0.0809	0.7252	-0.178
Mof_O 	O 	0.56306	0.9595	0.40412	-0.268
Mof_O 	O 	0.81449	0.873	0.65478	-0.176
Mof_O 	O 	0.67622	0.9235	0.69504	-0.292
Mof_O 	O 	0.90367	0.0198	0.67874	-0.185
Mof_O 	O 	0.85625	0.9407	0.7435	-0.26
Mof_O 	O 	0.45623	0.7752	0.42846	-0.233
Mof_O 	O 	0.47971	0.8097	0.34602	-0.275
Mof_O 	O 	0.87306	0.0293	0.97292	-0.215
Mof_O 	O 	0.00765	0.088	0.0491	-0.231
Mof_O 	O 	0.22669	0.3081	0.95058	-0.242
Mof_O 	O 	0.36728	0.3184	0.02616	-0.279
Mof_F 	F 	0.7869	0.2405	0.5952	-0.422
Mof_F 	F 	0.8436	0.1816	0.6516	-0.494
Mof_F 	F 	0.7442	0.2559	0.6612	-0.394
Mof_F 	F 	0.13464	0.2651	0.72108	-0.468
Mof_F 	F 	0.1736	0.3821	0.735	-0.489
Mof_F 	F 	0.1616	0.3364	0.6722	-0.471
Mof_F 	F 	0.6412	0.612	0.6804	-0.477
Mof_F 	F 	0.5816	0.5046	0.654	-0.495
Mof_F 	F 	0.5844	0.5435	0.7164	-0.453
Mof_F 	F 	0.8137	0.3284	0.7868	-0.481
Mof_F 	F 	0.7673	0.4181	0.8186	-0.415
Mof_F 	F 	0.906	0.4168	0.8266	-0.453
Mof_F 	F 	0.99505	0.1566	0.4761	-0.426
Mof_F 	F 	0.9787	0.0813	0.4202	-0.445
Mof_F 	F 	0.095	0.1558	0.4434	-0.419
Mof_F 	F 	0.78627	0.1421	0.28874	-0.505
Mof_F 	F 	0.7564	0.2543	0.2736	-0.509
Mof_F 	F 	0.8747	0.2159	0.2664	-0.416
Mof_F 	F 	0.2841	0.5545	0.9696	-0.421
Mof_F 	F 	0.242	0.6686	0.9592	-0.427
Mof_F 	F 	0.1894	0.5626	0.9172	-0.483
Mof_F 	F 	0.12563	0.766	0.07426	-0.505
Mof_F 	F 	0.03401	0.6986	0.10422	-0.395
Mof_F 	F 	0.1746	0.6907	0.118	-0.4
Mof_F 	F 	0.5978	0.9256	0.8832	-0.478
Mof_F 	F 	0.7161	0.8801	0.8818	-0.547
Mof_F 	F 	0.6124	0.801	0.8668	-0.419
Mof_F 	F 	0.1917	0.2595	0.4048	-0.425
Mof_F 	F 	0.192	0.3184	0.3484	-0.496
Mof_F 	F 	0.083	0.2441	0.3388	-0.399
Mof_F 	F 	0.41356	0.2349	0.27892	-0.464
Mof_F 	F 	0.4386	0.1179	0.265	-0.49
Mof_F 	F 	0.4894	0.1636	0.3278	-0.469
Mof_F 	F 	0.9608	0.888	0.3196	-0.476
Mof_F 	F 	0.9276	0.9954	0.346	-0.493
Mof_F 	F 	0.868	0.9565	0.2836	-0.452
Mof_F 	F 	0.0269	0.1716	0.2132	-0.489
Mof_F 	F 	0.9487	0.0819	0.1814	-0.407
Mof_F 	F 	0.0794	0.0832	0.1734	-0.464
Mof_F 	F 	0.51895	0.3434	0.5239	-0.445
Mof_F 	F 	0.5585	0.4187	0.5798	-0.461
Mof_F 	F 	0.6516	0.3442	0.5566	-0.419
Mof_F 	F 	0.49753	0.3579	0.71126	-0.505
Mof_F 	F 	0.4828	0.2457	0.7264	-0.508
Mof_F 	F 	0.6083	0.2841	0.7336	-0.419
Mof_F 	F 	0.3145	0.9455	0.0304	-0.435
Mof_F 	F 	0.2828	0.8314	0.0408	-0.446
Mof_F 	F 	0.2722	0.9374	0.0828	-0.484
Mof_F 	F 	0.05137	0.734	0.92574	-0.502
Mof_F 	F 	0.92979	0.8014	0.89578	-0.385
Mof_F 	F 	0.0566	0.8093	0.882	-0.403
Mof_F 	F 	0.7146	0.5744	0.1168	-0.481
Mof_F 	F 	0.8343	0.6199	0.1182	-0.543
Mof_F 	F 	0.7456	0.699	0.1332	-0.419
Mof_F 	F 	0.2131	0.7595	0.4048	-0.423
Mof_F 	F 	0.1564	0.8184	0.3484	-0.496
Mof_F 	F 	0.2558	0.7441	0.3388	-0.393
Mof_F 	F 	0.86536	0.7349	0.27892	-0.461
Mof_F 	F 	0.8264	0.6179	0.265	-0.488
Mof_F 	F 	0.8384	0.6636	0.3278	-0.466
Mof_F 	F 	0.3588	0.388	0.3196	-0.477
Mof_F 	F 	0.4184	0.4954	0.346	-0.495
Mof_F 	F 	0.4156	0.4565	0.2836	-0.454
Mof_F 	F 	0.1863	0.6716	0.2132	-0.483
Mof_F 	F 	0.2327	0.5819	0.1814	-0.416
Mof_F 	F 	0.094	0.5832	0.1734	-0.461
Mof_F 	F 	0.00495	0.8434	0.5239	-0.455
Mof_F 	F 	0.0213	0.9187	0.5798	-0.469
Mof_F 	F 	0.905	0.8442	0.5566	-0.419
Mof_F 	F 	0.21373	0.8579	0.71126	-0.503
Mof_F 	F 	0.2436	0.7457	0.7264	-0.507
Mof_F 	F 	0.1253	0.7841	0.7336	-0.421
Mof_F 	F 	0.7159	0.4455	0.0304	-0.439
Mof_F 	F 	0.758	0.3314	0.0408	-0.447
Mof_F 	F 	0.8106	0.4374	0.0828	-0.487
Mof_F 	F 	0.87437	0.234	0.92574	-0.497
Mof_F 	F 	0.96599	0.3014	0.89578	-0.385
Mof_F 	F 	0.8254	0.3093	0.882	-0.401
Mof_F 	F 	0.4022	0.0744	0.1168	-0.484
Mof_F 	F 	0.2839	0.1199	0.1182	-0.547
Mof_F 	F 	0.3876	0.199	0.1332	-0.42
Mof_F 	F 	0.8083	0.7405	0.5952	-0.421
Mof_F 	F 	0.808	0.6816	0.6516	-0.495
Mof_F 	F 	0.917	0.7559	0.6612	-0.389
Mof_F 	F 	0.58644	0.7651	0.72108	-0.464
Mof_F 	F 	0.5614	0.8821	0.735	-0.487
Mof_F 	F 	0.5106	0.8364	0.6722	-0.468
Mof_F 	F 	0.0392	0.112	0.6804	-0.48
Mof_F 	F 	0.0724	0.0046	0.654	-0.499
Mof_F 	F 	0.132	0.0435	0.7164	-0.456
Mof_F 	F 	0.9731	0.8284	0.7868	-0.477
Mof_F 	F 	0.0513	0.9181	0.8186	-0.419
Mof_F 	F 	0.9206	0.9168	0.8266	-0.454
Mof_F 	F 	0.48105	0.6566	0.4761	-0.444
Mof_F 	F 	0.4415	0.5813	0.4202	-0.461
Mof_F 	F 	0.3484	0.6558	0.4434	-0.419
Mof_F 	F 	0.50247	0.6421	0.28874	-0.505
Mof_F 	F 	0.5172	0.7543	0.2736	-0.507
Mof_F 	F 	0.3917	0.7159	0.2664	-0.419
Mof_F 	F 	0.6855	0.0545	0.9696	-0.424
Mof_F 	F 	0.7172	0.1686	0.9592	-0.428
Mof_F 	F 	0.7278	0.0626	0.9172	-0.484
Mof_F 	F 	0.94863	0.266	0.07426	-0.5
Mof_F 	F 	0.07021	0.1986	0.10422	-0.4
Mof_F 	F 	0.9434	0.1907	0.118	-0.397
Mof_F 	F 	0.2854	0.4256	0.8832	-0.48
Mof_F 	F 	0.1657	0.3801	0.8818	-0.551
Mof_F 	F 	0.2544	0.301	0.8668	-0.421
_end
