data_functionalizedCrystal
_audit_creation_method	'EQeq! by Chris Wilmer'
_symmetry_space_group_name_H-M	'P1'
_symmetry_Int_Tables_number	1
_symmetry_cell_setting	triclinic
loop_
_symmetry_equiv_pos_as_xyz
  x,y,z
_cell_length_a	21.3514
_cell_length_b	21.3514
_cell_length_c	21.3514
_cell_angle_alpha	60
_cell_angle_beta	60
_cell_angle_gamma	60
loop_
_atom_site_label
_atom_site_type_symbol
_atom_site_fract_x
_atom_site_fract_y
_atom_site_fract_z
_atom_site_charge
Mof_Cu	Cu	0.33987	0.75	0.66013	0.887
Mof_Cu	Cu	0.25	0.83987	0.25	0.887
Mof_Cu	Cu	0.16013	0.25	0.83987	0.887
Mof_Cu	Cu	0.75	0.66013	0.75	0.887
Mof_Cu	Cu	0.33987	0.66013	0.25	0.887
Mof_Cu	Cu	0.25	0.25	0.66013	0.887
Mof_Cu	Cu	0.16013	0.83987	0.75	0.887
Mof_Cu	Cu	0.75	0.75	0.83987	0.887
Mof_Cu	Cu	0.33987	0.25	0.75	0.886
Mof_Cu	Cu	0.25	0.66013	0.83987	0.886
Mof_Cu	Cu	0.16013	0.75	0.25	0.886
Mof_Cu	Cu	0.75	0.83987	0.66013	0.886
Mof_Cu	Cu	0.66013	0.25	0.33987	0.886
Mof_Cu	Cu	0.75	0.16013	0.75	0.886
Mof_Cu	Cu	0.83987	0.75	0.16013	0.886
Mof_Cu	Cu	0.25	0.33987	0.25	0.886
Mof_Cu	Cu	0.66013	0.33987	0.75	0.886
Mof_Cu	Cu	0.75	0.75	0.33987	0.886
Mof_Cu	Cu	0.83987	0.16013	0.25	0.886
Mof_Cu	Cu	0.25	0.25	0.16013	0.886
Mof_Cu	Cu	0.66013	0.75	0.25	0.886
Mof_Cu	Cu	0.75	0.33987	0.16013	0.886
Mof_Cu	Cu	0.83987	0.25	0.75	0.886
Mof_Cu	Cu	0.25	0.16013	0.33987	0.886
Mof_H 	H 	0.4964	0.6064	0.6434	0.018
Mof_H 	H 	0.1064	0.9964	0.2538	0.018
Mof_H 	H 	0.1434	0.2538	0.9964	0.018
Mof_H 	H 	0.7538	0.6434	0.6064	0.018
Mof_H 	H 	0.4964	0.6434	0.2538	0.018
Mof_H 	H 	0.1064	0.2538	0.6434	0.018
Mof_H 	H 	0.1434	0.9964	0.6064	0.018
Mof_H 	H 	0.7538	0.6064	0.9964	0.018
Mof_H 	H 	0.4964	0.2538	0.6064	0.018
Mof_H 	H 	0.1064	0.6434	0.9964	0.018
Mof_H 	H 	0.1434	0.6064	0.2538	0.018
Mof_H 	H 	0.7538	0.9964	0.6434	0.018
Mof_H 	H 	0.3936	0.5036	0.8566	0.018
Mof_H 	H 	0.0036	0.8936	0.2462	0.018
Mof_H 	H 	0.7462	0.8566	0.5036	0.018
Mof_H 	H 	0.3566	0.2462	0.8936	0.018
Mof_H 	H 	0.3566	0.5036	0.2462	0.018
Mof_H 	H 	0.7462	0.8936	0.8566	0.018
Mof_H 	H 	0.0036	0.8566	0.8936	0.018
Mof_H 	H 	0.3936	0.2462	0.5036	0.018
Mof_H 	H 	0.7462	0.5036	0.8936	0.018
Mof_H 	H 	0.3566	0.8936	0.5036	0.018
Mof_H 	H 	0.3936	0.8566	0.2462	0.018
Mof_H 	H 	0.0036	0.2462	0.8566	0.018
Mof_H 	H 	0.5036	0.3936	0.3566	0.018
Mof_H 	H 	0.8936	0.0036	0.7462	0.018
Mof_H 	H 	0.8566	0.7462	0.0036	0.018
Mof_H 	H 	0.2462	0.3566	0.3936	0.018
Mof_H 	H 	0.5036	0.3566	0.7462	0.018
Mof_H 	H 	0.8936	0.7462	0.3566	0.018
Mof_H 	H 	0.8566	0.0036	0.3936	0.018
Mof_H 	H 	0.2462	0.3936	0.0036	0.018
Mof_H 	H 	0.5036	0.7462	0.3936	0.018
Mof_H 	H 	0.8936	0.3566	0.0036	0.018
Mof_H 	H 	0.8566	0.3936	0.7462	0.018
Mof_H 	H 	0.2462	0.0036	0.3566	0.018
Mof_H 	H 	0.6064	0.4964	0.1434	0.018
Mof_H 	H 	0.9964	0.1064	0.7538	0.018
Mof_H 	H 	0.2538	0.1434	0.4964	0.018
Mof_H 	H 	0.6434	0.7538	0.1064	0.018
Mof_H 	H 	0.6434	0.4964	0.7538	0.018
Mof_H 	H 	0.2538	0.1064	0.1434	0.018
Mof_H 	H 	0.9964	0.1434	0.1064	0.018
Mof_H 	H 	0.6064	0.7538	0.4964	0.018
Mof_H 	H 	0.2538	0.4964	0.1064	0.018
Mof_H 	H 	0.6434	0.1064	0.4964	0.018
Mof_H 	H 	0.6064	0.1434	0.7538	0.018
Mof_H 	H 	0.9964	0.7538	0.1434	0.018
Mof_C 	C 	0.4599	0.5959	0.6919	0.083
Mof_C 	C 	0.0959	0.9599	0.2523	0.083
Mof_C 	C 	0.1919	0.2523	0.9599	0.083
Mof_C 	C 	0.7523	0.6919	0.5959	0.083
Mof_C 	C 	0.4599	0.6919	0.2523	0.083
Mof_C 	C 	0.0959	0.2523	0.6919	0.083
Mof_C 	C 	0.1919	0.9599	0.5959	0.083
Mof_C 	C 	0.7523	0.5959	0.9599	0.083
Mof_C 	C 	0.4599	0.2523	0.5959	0.083
Mof_C 	C 	0.0959	0.6919	0.9599	0.083
Mof_C 	C 	0.1919	0.5959	0.2523	0.083
Mof_C 	C 	0.7523	0.9599	0.6919	0.083
Mof_C 	C 	0.4041	0.5401	0.8081	0.083
Mof_C 	C 	0.0401	0.9041	0.2477	0.083
Mof_C 	C 	0.7477	0.8081	0.5401	0.083
Mof_C 	C 	0.3081	0.2477	0.9041	0.083
Mof_C 	C 	0.3081	0.5401	0.2477	0.083
Mof_C 	C 	0.7477	0.9041	0.8081	0.083
Mof_C 	C 	0.0401	0.8081	0.9041	0.083
Mof_C 	C 	0.4041	0.2477	0.5401	0.083
Mof_C 	C 	0.7477	0.5401	0.9041	0.083
Mof_C 	C 	0.3081	0.9041	0.5401	0.083
Mof_C 	C 	0.4041	0.8081	0.2477	0.083
Mof_C 	C 	0.0401	0.2477	0.8081	0.083
Mof_C 	C 	0.5401	0.4041	0.3081	0.083
Mof_C 	C 	0.9041	0.0401	0.7477	0.083
Mof_C 	C 	0.8081	0.7477	0.0401	0.083
Mof_C 	C 	0.2477	0.3081	0.4041	0.083
Mof_C 	C 	0.5401	0.3081	0.7477	0.083
Mof_C 	C 	0.9041	0.7477	0.3081	0.083
Mof_C 	C 	0.8081	0.0401	0.4041	0.083
Mof_C 	C 	0.2477	0.4041	0.0401	0.083
Mof_C 	C 	0.5401	0.7477	0.4041	0.083
Mof_C 	C 	0.9041	0.3081	0.0401	0.083
Mof_C 	C 	0.8081	0.4041	0.7477	0.083
Mof_C 	C 	0.2477	0.0401	0.3081	0.083
Mof_C 	C 	0.5959	0.4599	0.1919	0.083
Mof_C 	C 	0.9599	0.0959	0.7523	0.083
Mof_C 	C 	0.2523	0.1919	0.4599	0.083
Mof_C 	C 	0.6919	0.7523	0.0959	0.083
Mof_C 	C 	0.6919	0.4599	0.7523	0.083
Mof_C 	C 	0.2523	0.0959	0.1919	0.083
Mof_C 	C 	0.9599	0.1919	0.0959	0.083
Mof_C 	C 	0.5959	0.7523	0.4599	0.083
Mof_C 	C 	0.2523	0.4599	0.0959	0.083
Mof_C 	C 	0.6919	0.0959	0.4599	0.083
Mof_C 	C 	0.5959	0.1919	0.7523	0.083
Mof_C 	C 	0.9599	0.7523	0.1919	0.083
Mof_C 	C 	0.4704	0.5296	0.75	-0.111
Mof_C 	C 	0.5406	0.4594	0.75	0.276
Mof_C 	C 	0.0296	0.9704	0.25	-0.111
Mof_C 	C 	0.9594	0.0406	0.25	0.276
Mof_C 	C 	0.25	0.25	0.9704	-0.111
Mof_C 	C 	0.25	0.25	0.0406	0.276
Mof_C 	C 	0.75	0.75	0.5296	-0.111
Mof_C 	C 	0.75	0.75	0.4594	0.276
Mof_C 	C 	0.4704	0.75	0.25	-0.111
Mof_C 	C 	0.5406	0.75	0.25	0.276
Mof_C 	C 	0.0296	0.25	0.75	-0.111
Mof_C 	C 	0.9594	0.25	0.75	0.276
Mof_C 	C 	0.25	0.9704	0.5296	-0.111
Mof_C 	C 	0.25	0.0406	0.4594	0.276
Mof_C 	C 	0.75	0.5296	0.9704	-0.111
Mof_C 	C 	0.75	0.4594	0.0406	0.276
Mof_C 	C 	0.4704	0.25	0.5296	-0.111
Mof_C 	C 	0.5406	0.25	0.4594	0.276
Mof_C 	C 	0.0296	0.75	0.9704	-0.111
Mof_C 	C 	0.9594	0.75	0.0406	0.276
Mof_C 	C 	0.25	0.5296	0.25	-0.111
Mof_C 	C 	0.25	0.4594	0.25	0.276
Mof_C 	C 	0.75	0.9704	0.75	-0.111
Mof_C 	C 	0.75	0.0406	0.75	0.276
Mof_C 	C 	0.5296	0.4704	0.25	-0.111
Mof_C 	C 	0.4594	0.5406	0.25	0.276
Mof_C 	C 	0.9704	0.0296	0.75	-0.111
Mof_C 	C 	0.0406	0.9594	0.75	0.276
Mof_C 	C 	0.75	0.75	0.0296	-0.111
Mof_C 	C 	0.75	0.75	0.9594	0.276
Mof_C 	C 	0.25	0.25	0.4704	-0.111
Mof_C 	C 	0.25	0.25	0.5406	0.276
Mof_C 	C 	0.5296	0.25	0.75	-0.111
Mof_C 	C 	0.4594	0.25	0.75	0.276
Mof_C 	C 	0.9704	0.75	0.25	-0.111
Mof_C 	C 	0.0406	0.75	0.25	0.276
Mof_C 	C 	0.75	0.0296	0.4704	-0.111
Mof_C 	C 	0.75	0.9594	0.5406	0.276
Mof_C 	C 	0.25	0.4704	0.0296	-0.111
Mof_C 	C 	0.25	0.5406	0.9594	0.276
Mof_C 	C 	0.5296	0.75	0.4704	-0.111
Mof_C 	C 	0.4594	0.75	0.5406	0.276
Mof_C 	C 	0.9704	0.25	0.0296	-0.111
Mof_C 	C 	0.0406	0.25	0.9594	0.276
Mof_C 	C 	0.75	0.4704	0.75	-0.111
Mof_C 	C 	0.75	0.5406	0.75	0.276
Mof_C 	C 	0.25	0.0296	0.25	-0.111
Mof_C 	C 	0.25	0.9594	0.25	0.276
Mof_N 	N 	0.3895	0.6445	0.7139	-0.202
Mof_N 	N 	0.1445	0.8895	0.2521	-0.202
Mof_N 	N 	0.2139	0.2521	0.8895	-0.202
Mof_N 	N 	0.7521	0.7139	0.6445	-0.202
Mof_N 	N 	0.3895	0.7139	0.2521	-0.202
Mof_N 	N 	0.1445	0.2521	0.7139	-0.202
Mof_N 	N 	0.2139	0.8895	0.6445	-0.202
Mof_N 	N 	0.7521	0.6445	0.8895	-0.202
Mof_N 	N 	0.3895	0.2521	0.6445	-0.202
Mof_N 	N 	0.1445	0.7139	0.8895	-0.202
Mof_N 	N 	0.2139	0.6445	0.2521	-0.202
Mof_N 	N 	0.7521	0.8895	0.7139	-0.202
Mof_N 	N 	0.3555	0.6105	0.7861	-0.202
Mof_N 	N 	0.1105	0.8555	0.2479	-0.202
Mof_N 	N 	0.7479	0.7861	0.6105	-0.202
Mof_N 	N 	0.2861	0.2479	0.8555	-0.202
Mof_N 	N 	0.2861	0.6105	0.2479	-0.202
Mof_N 	N 	0.7479	0.8555	0.7861	-0.202
Mof_N 	N 	0.1105	0.7861	0.8555	-0.202
Mof_N 	N 	0.3555	0.2479	0.6105	-0.202
Mof_N 	N 	0.7479	0.6105	0.8555	-0.202
Mof_N 	N 	0.2861	0.8555	0.6105	-0.202
Mof_N 	N 	0.3555	0.7861	0.2479	-0.202
Mof_N 	N 	0.1105	0.2479	0.7861	-0.202
Mof_N 	N 	0.6105	0.3555	0.2861	-0.202
Mof_N 	N 	0.8555	0.1105	0.7479	-0.202
Mof_N 	N 	0.7861	0.7479	0.1105	-0.202
Mof_N 	N 	0.2479	0.2861	0.3555	-0.202
Mof_N 	N 	0.6105	0.2861	0.7479	-0.202
Mof_N 	N 	0.8555	0.7479	0.2861	-0.202
Mof_N 	N 	0.7861	0.1105	0.3555	-0.202
Mof_N 	N 	0.2479	0.3555	0.1105	-0.202
Mof_N 	N 	0.6105	0.7479	0.3555	-0.202
Mof_N 	N 	0.8555	0.2861	0.1105	-0.202
Mof_N 	N 	0.7861	0.3555	0.7479	-0.202
Mof_N 	N 	0.2479	0.1105	0.2861	-0.202
Mof_N 	N 	0.6445	0.3895	0.2139	-0.202
Mof_N 	N 	0.8895	0.1445	0.7521	-0.202
Mof_N 	N 	0.2521	0.2139	0.3895	-0.202
Mof_N 	N 	0.7139	0.7521	0.1445	-0.202
Mof_N 	N 	0.7139	0.3895	0.7521	-0.202
Mof_N 	N 	0.2521	0.1445	0.2139	-0.202
Mof_N 	N 	0.8895	0.2139	0.1445	-0.202
Mof_N 	N 	0.6445	0.7521	0.3895	-0.202
Mof_N 	N 	0.2521	0.3895	0.1445	-0.202
Mof_N 	N 	0.7139	0.1445	0.3895	-0.202
Mof_N 	N 	0.6445	0.2139	0.7521	-0.202
Mof_N 	N 	0.8895	0.7521	0.2139	-0.202
Mof_O 	O 	0.5923	0.4577	0.6841	-0.325
Mof_O 	O 	0.9577	0.0923	0.2659	-0.325
Mof_O 	O 	0.1841	0.2659	0.0923	-0.325
Mof_O 	O 	0.7659	0.6841	0.4577	-0.325
Mof_O 	O 	0.5923	0.6841	0.2659	-0.325
Mof_O 	O 	0.9577	0.2659	0.6841	-0.325
Mof_O 	O 	0.1841	0.0923	0.4577	-0.325
Mof_O 	O 	0.7659	0.4577	0.0923	-0.325
Mof_O 	O 	0.5923	0.2659	0.4577	-0.325
Mof_O 	O 	0.9577	0.6841	0.0923	-0.325
Mof_O 	O 	0.1841	0.4577	0.2659	-0.325
Mof_O 	O 	0.7659	0.0923	0.6841	-0.325
Mof_O 	O 	0.5423	0.4077	0.8159	-0.325
Mof_O 	O 	0.9077	0.0423	0.2341	-0.325
Mof_O 	O 	0.7341	0.8159	0.4077	-0.325
Mof_O 	O 	0.3159	0.2341	0.0423	-0.325
Mof_O 	O 	0.3159	0.4077	0.2341	-0.325
Mof_O 	O 	0.7341	0.0423	0.8159	-0.325
Mof_O 	O 	0.9077	0.8159	0.0423	-0.325
Mof_O 	O 	0.5423	0.2341	0.4077	-0.325
Mof_O 	O 	0.7341	0.4077	0.0423	-0.325
Mof_O 	O 	0.3159	0.0423	0.4077	-0.325
Mof_O 	O 	0.5423	0.8159	0.2341	-0.325
Mof_O 	O 	0.9077	0.2341	0.8159	-0.325
Mof_O 	O 	0.4077	0.5423	0.3159	-0.325
Mof_O 	O 	0.0423	0.9077	0.7341	-0.325
Mof_O 	O 	0.8159	0.7341	0.9077	-0.325
Mof_O 	O 	0.2341	0.3159	0.5423	-0.325
Mof_O 	O 	0.4077	0.3159	0.7341	-0.325
Mof_O 	O 	0.0423	0.7341	0.3159	-0.325
Mof_O 	O 	0.8159	0.9077	0.5423	-0.325
Mof_O 	O 	0.2341	0.5423	0.9077	-0.325
Mof_O 	O 	0.4077	0.7341	0.5423	-0.325
Mof_O 	O 	0.0423	0.3159	0.9077	-0.325
Mof_O 	O 	0.8159	0.5423	0.7341	-0.325
Mof_O 	O 	0.2341	0.9077	0.3159	-0.325
Mof_O 	O 	0.4577	0.5923	0.1841	-0.325
Mof_O 	O 	0.0923	0.9577	0.7659	-0.325
Mof_O 	O 	0.2659	0.1841	0.5923	-0.325
Mof_O 	O 	0.6841	0.7659	0.9577	-0.325
Mof_O 	O 	0.6841	0.5923	0.7659	-0.325
Mof_O 	O 	0.2659	0.9577	0.1841	-0.325
Mof_O 	O 	0.0923	0.1841	0.9577	-0.325
Mof_O 	O 	0.4577	0.7659	0.5923	-0.325
Mof_O 	O 	0.2659	0.5923	0.9577	-0.325
Mof_O 	O 	0.6841	0.9577	0.5923	-0.325
Mof_O 	O 	0.4577	0.1841	0.7659	-0.325
Mof_O 	O 	0.0923	0.7659	0.1841	-0.325
Mof_O 	O 	0.25	0.75	0.75	-0.598
Mof_O 	O 	0.25	0.75	0.25	-0.598
Mof_O 	O 	0.25	0.25	0.75	-0.598
Mof_O 	O 	0.75	0.75	0.75	-0.598
Mof_O 	O 	0.75	0.25	0.25	-0.598
Mof_O 	O 	0.75	0.25	0.75	-0.598
Mof_O 	O 	0.75	0.75	0.25	-0.598
Mof_O 	O 	0.25	0.25	0.25	-0.598
_end
