data_functionalizedCrystal
_audit_creation_method	'EQeq! by Chris Wilmer'
_symmetry_space_group_name_H-M	'P1'
_symmetry_Int_Tables_number	1
_symmetry_cell_setting	triclinic
loop_
_symmetry_equiv_pos_as_xyz
  x,y,z
_cell_length_a	12.639
_cell_length_b	13.9706
_cell_length_c	16.285
_cell_angle_alpha	68.414
_cell_angle_beta	83.532
_cell_angle_gamma	73.825
loop_
_atom_site_label
_atom_site_type_symbol
_atom_site_fract_x
_atom_site_fract_y
_atom_site_fract_z
_atom_site_charge
Mof_Zn	Zn	0.68077	0.54891	0.841	1.216
Mof_Zn	Zn	0.63786	0.74166	0.92062	1.228
Mof_S 	S 	0.26386	0.38358	0.87002	0.515
Mof_S 	S 	0.06071	0.86041	0.93991	0.46
Mof_S 	S 	0.51554	0.8202	0.39793	0.466
Mof_O 	O 	0.82889	0.5281	0.87826	-0.489
Mof_O 	O 	0.79433	0.6812	0.90207	-0.496
Mof_O 	O 	0.1997	0.3133	0.8685	-0.237
Mof_O 	O 	0.32	0.428	0.78764	-0.233
Mof_O 	O 	0.34227	0.33447	0.94334	-0.416
Mof_O 	O 	0.9974	0.8176	0.0189	-0.221
Mof_O 	O 	0.1263	0.9254	0.9503	-0.23
Mof_O 	O 	0.9951	0.9102	0.8606	-0.221
Mof_O 	O 	0.53876	0.57157	0.90442	-0.497
Mof_O 	O 	0.48959	0.72	0.93747	-0.466
Mof_O 	O 	0.6475	0.65965	0.72661	-0.467
Mof_O 	O 	0.6117	0.79014	0.78203	-0.444
Mof_O 	O 	0.5524	0.7054	0.4384	-0.211
Mof_O 	O 	0.5843	0.8663	0.3251	-0.225
Mof_O 	O 	0.3988	0.8579	0.3757	-0.219
Mof_N 	N 	0.6827	0.4067	0.83693	-0.262
Mof_N 	N 	0.6394	0.8896	0.9096	-0.252
Mof_C 	C 	0.7236	0.9043	0.9434	0.094
Mof_H 	H 	0.7751	0.8451	0.9779	0.023
Mof_C 	C 	0.8582	0.6008	0.8914	0.406
Mof_C 	C 	0.7359	0.0043	0.9284	-0.129
Mof_H 	H 	0.7947	0.0119	0.9528	0.118
Mof_C 	C 	0.9791	0.5906	0.8946	-0.094
Mof_C 	C 	0.1235	0.6643	0.9128	0.032
Mof_C 	C 	0.058	0.5018	0.885	0.043
Mof_H 	H 	0.0356	0.4483	0.8762	0.056
Mof_C 	C 	0.3177	0.5697	0.9076	-0.059
Mof_H 	H 	0.3713	0.5116	0.9016	0.075
Mof_C 	C 	0.1679	0.4942	0.8887	-0.105
Mof_C 	C 	0.2045	0.5753	0.9028	0.045
Mof_C 	C 	0.5762	0.8357	0.6311	-0.073
Mof_C 	C 	0.0104	0.6698	0.9083	-0.019
Mof_H 	H 	0.957	0.7278	0.9148	0.078
Mof_C 	C 	0.3485	0.6494	0.9211	-0.084
Mof_C 	C 	0.2691	0.7382	0.9309	0.012
Mof_H 	H 	0.2912	0.7915	0.9403	0.063
Mof_C 	C 	0.1587	0.7459	0.9266	-0.073
Mof_C 	C 	0.4683	0.6466	0.9213	0.393
Mof_C 	C 	0.5664	0.9754	0.8592	0.095
Mof_H 	H 	0.5091	0.9654	0.8348	0.012
Mof_C 	C 	0.66	0.0938	0.8766	0.074
Mof_C 	C 	0.5729	0.0778	0.8421	-0.128
Mof_H 	H 	0.5198	0.1356	0.8078	0.108
Mof_C 	C 	0.6695	0.2026	0.8596	0.073
Mof_C 	C 	0.7707	0.2229	0.8641	-0.129
Mof_H 	H 	0.8351	0.1683	0.8744	0.111
Mof_C 	C 	0.7736	0.3248	0.8532	0.089
Mof_H 	H 	0.841	0.3374	0.8571	0.014
Mof_C 	C 	0.5863	0.3878	0.8299	0.095
Mof_H 	H 	0.5234	0.4442	0.8176	0.009
Mof_C 	C 	0.5766	0.2882	0.84	-0.128
Mof_H 	H 	0.5085	0.2783	0.8338	0.107
Mof_C 	C 	0.6151	0.7571	0.7201	0.383
Mof_C 	C 	0.5683	0.7998	0.5618	0.024
Mof_H 	H 	0.5903	0.7273	0.5711	0.067
Mof_C 	C 	0.5288	0.8707	0.4816	-0.07
Mof_C 	C 	0.4961	0.9821	0.4651	0.043
Mof_C 	C 	0.5441	0.9417	0.618	-0.028
Mof_H 	H 	0.5486	0.9645	0.6641	0.081
Mof_Zn	Zn	0.31923	0.45109	0.159	1.215
Mof_Zn	Zn	0.36214	0.25834	0.07938	1.227
Mof_S 	S 	0.73614	0.61642	0.12998	0.514
Mof_S 	S 	0.93929	0.13959	0.06009	0.459
Mof_S 	S 	0.48446	0.1798	0.60207	0.465
Mof_O 	O 	0.17111	0.4719	0.12174	-0.49
Mof_O 	O 	0.20567	0.3188	0.09793	-0.496
Mof_O 	O 	0.8003	0.6867	0.1315	-0.237
Mof_O 	O 	0.68	0.572	0.21236	-0.233
Mof_O 	O 	0.65773	0.66553	0.05666	-0.416
Mof_O 	O 	0.0026	0.1824	0.9811	-0.221
Mof_O 	O 	0.8737	0.0746	0.0497	-0.23
Mof_O 	O 	0.0049	0.0898	0.1394	-0.221
Mof_O 	O 	0.46124	0.42843	0.09558	-0.497
Mof_O 	O 	0.51041	0.28	0.06253	-0.466
Mof_O 	O 	0.3525	0.34035	0.27339	-0.467
Mof_O 	O 	0.3883	0.20986	0.21797	-0.444
Mof_O 	O 	0.4476	0.2946	0.5616	-0.211
Mof_O 	O 	0.4157	0.1337	0.6749	-0.225
Mof_O 	O 	0.6012	0.1421	0.6243	-0.219
Mof_N 	N 	0.3173	0.5933	0.16307	-0.262
Mof_N 	N 	0.3606	0.1104	0.0904	-0.252
Mof_C 	C 	0.2764	0.0957	0.0566	0.094
Mof_H 	H 	0.2249	0.1549	0.0221	0.023
Mof_C 	C 	0.1418	0.3992	0.1086	0.406
Mof_C 	C 	0.2641	0.9957	0.0716	-0.129
Mof_H 	H 	0.2053	0.9881	0.0472	0.118
Mof_C 	C 	0.0209	0.4094	0.1054	-0.094
Mof_C 	C 	0.8765	0.3357	0.0872	0.032
Mof_C 	C 	0.942	0.4982	0.115	0.043
Mof_H 	H 	0.9644	0.5517	0.1238	0.056
Mof_C 	C 	0.6823	0.4303	0.0924	-0.059
Mof_H 	H 	0.6287	0.4884	0.0984	0.075
Mof_C 	C 	0.8321	0.5058	0.1113	-0.105
Mof_C 	C 	0.7955	0.4247	0.0972	0.045
Mof_C 	C 	0.4238	0.1643	0.3689	-0.073
Mof_C 	C 	0.9896	0.3302	0.0917	-0.019
Mof_H 	H 	0.043	0.2722	0.0852	0.078
Mof_C 	C 	0.6515	0.3506	0.0789	-0.084
Mof_C 	C 	0.7309	0.2618	0.0691	0.012
Mof_H 	H 	0.7088	0.2085	0.0597	0.063
Mof_C 	C 	0.8413	0.2541	0.0734	-0.073
Mof_C 	C 	0.5317	0.3534	0.0787	0.393
Mof_C 	C 	0.4336	0.0246	0.1408	0.095
Mof_H 	H 	0.4909	0.0346	0.1652	0.012
Mof_C 	C 	0.34	0.9062	0.1234	0.074
Mof_C 	C 	0.4271	0.9222	0.1579	-0.128
Mof_H 	H 	0.4802	0.8644	0.1922	0.108
Mof_C 	C 	0.3305	0.7974	0.1404	0.073
Mof_C 	C 	0.2293	0.7771	0.1359	-0.129
Mof_H 	H 	0.1649	0.8317	0.1256	0.111
Mof_C 	C 	0.2264	0.6752	0.1468	0.089
Mof_H 	H 	0.159	0.6626	0.1429	0.014
Mof_C 	C 	0.4137	0.6122	0.1701	0.095
Mof_H 	H 	0.4766	0.5558	0.1824	0.009
Mof_C 	C 	0.4234	0.7118	0.16	-0.128
Mof_H 	H 	0.4915	0.7217	0.1662	0.107
Mof_C 	C 	0.3849	0.2429	0.2799	0.383
Mof_C 	C 	0.4317	0.2002	0.4382	0.024
Mof_H 	H 	0.4097	0.2727	0.4289	0.067
Mof_C 	C 	0.4712	0.1293	0.5184	-0.07
Mof_C 	C 	0.5039	0.0179	0.5349	0.043
Mof_C 	C 	0.4559	0.0583	0.382	-0.028
Mof_H 	H 	0.4514	0.0355	0.3359	0.081
_end
