data_functionalizedCrystal
_audit_creation_method	'EQeq! by Chris Wilmer'
_symmetry_space_group_name_H-M	'P1'
_symmetry_Int_Tables_number	1
_symmetry_cell_setting	triclinic
loop_
_symmetry_equiv_pos_as_xyz
  x,y,z
_cell_length_a	10.722
_cell_length_b	10.722
_cell_length_c	10.722
_cell_angle_alpha	67.5085
_cell_angle_beta	76.4138
_cell_angle_gamma	112.491
loop_
_atom_site_label
_atom_site_type_symbol
_atom_site_fract_x
_atom_site_fract_y
_atom_site_fract_z
_atom_site_charge
Mof_Mn	Mn	0.69413	0.89115	0.80298	0.659
Mof_Mn	Mn	0.30587	0.10885	0.19702	0.556
Mof_Mn	Mn	0.80298	0.49711	0.30587	0.606
Mof_Mn	Mn	0.19702	0.50289	0.69413	0.607
Mof_Mo	Mo	0.7483	0	0.2517	0.716
Mof_Mo	Mo	0.2517	0	0.7483	0.707
Mof_C 	C 	0.706	0.9464	0.086	-0.016
Mof_C 	C 	0.6108	0.0945	0.1969	-0.141
Mof_C 	C 	0.9676	0.0536	0.2404	-0.149
Mof_C 	C 	0.7086	0.9055	0.4837	-0.022
Mof_C 	C 	0.7596	0.792	0.294	-0.043
Mof_C 	C 	0.5163	0.8077	0.3892	-0.044
Mof_C 	C 	0.914	0.208	0.0324	-0.123
Mof_C 	C 	0.8031	0.1923	0.2914	-0.12
Mof_C 	C 	0.294	0.0536	0.914	-0.137
Mof_C 	C 	0.3892	0.9055	0.8031	-0.02
Mof_C 	C 	0.0324	0.9464	0.7596	-0.003
Mof_C 	C 	0.2914	0.0945	0.5163	-0.139
Mof_C 	C 	0.2404	0.208	0.706	-0.11
Mof_C 	C 	0.4837	0.1923	0.6108	-0.118
Mof_C 	C 	0.086	0.792	0.9676	-0.031
Mof_C 	C 	0.1969	0.8077	0.7086	-0.042
Mof_N 	N 	0.6835	0.9253	0.9944	-0.163
Mof_N 	N 	0.5315	0.1372	0.1671	-0.158
Mof_N 	N 	0.0803	0.0747	0.2418	-0.158
Mof_N 	N 	0.6957	0.8628	0.6057	-0.162
Mof_N 	N 	0.7582	0.6779	0.3165	-0.167
Mof_N 	N 	0.3943	0.6986	0.4685	-0.16
Mof_N 	N 	0.0056	0.3221	0.9197	-0.153
Mof_N 	N 	0.8329	0.3014	0.3043	-0.16
Mof_N 	N 	0.3165	0.0747	0.0056	-0.166
Mof_N 	N 	0.4685	0.8628	0.8329	-0.162
Mof_N 	N 	0.9197	0.9253	0.7582	-0.17
Mof_N 	N 	0.3043	0.1372	0.3943	-0.158
Mof_N 	N 	0.2418	0.3221	0.6835	-0.161
Mof_N 	N 	0.6057	0.3014	0.5315	-0.159
Mof_N 	N 	0.9944	0.6779	0.0803	-0.176
Mof_N 	N 	0.1671	0.6986	0.6957	-0.16
_end
