# CIF file generated by openbabel 3.1.0, see https://openbabel.org
data_I
_chemical_name_common 'image0'
_cell_length_a 6.6318
_cell_length_b 18.3719
_cell_length_c 8.4126
_cell_angle_alpha 90
_cell_angle_beta 90
_cell_angle_gamma 90
_space_group_name_H-M_alt 'P 1'
_space_group_name_Hall 'P 1'
loop_
    _symmetry_equiv_pos_as_xyz
    x,y,z
loop_
    _atom_site_label
    _atom_site_type_symbol
    _atom_site_fract_x
    _atom_site_fract_y
    _atom_site_fract_z
    _atom_site_occupancy
    O1       O        0.98560    0.05010    0.43010    1.000
    O2       O        0.66540    0.09510    0.22710    1.000
    O3       O        0.32020    0.25710    0.84530    1.000
    C1       C        0.23440    0.24360    0.97470    1.000
    H1       H        0.21320    0.28300    0.04590    1.000
    O4       O        0.17530    0.18260    0.01660    1.000
    O5       O        0.48560    0.55010    0.43010    1.000
    O6       O        0.16540    0.59510    0.22710    1.000
    O7       O        0.82020    0.75710    0.84530    1.000
    C2       C        0.73440    0.74360    0.97470    1.000
    H2       H        0.71320    0.78300    0.04590    1.000
    O8       O        0.67530    0.68260    0.01660    1.000
    O9       O        0.01440    0.94990    0.93010    1.000
    O10      O        0.33460    0.90490    0.72710    1.000
    O11      O        0.67980    0.74290    0.34530    1.000
    C3       C        0.76560    0.75640    0.47470    1.000
    H3       H        0.78680    0.71700    0.54590    1.000
    O12      O        0.82470    0.81740    0.51660    1.000
    O13      O        0.51440    0.44990    0.93010    1.000
    O14      O        0.83460    0.40490    0.72710    1.000
    O15      O        0.17980    0.24290    0.34530    1.000
    C4       C        0.26560    0.25640    0.47470    1.000
    H4       H        0.28680    0.21700    0.54590    1.000
    O16      O        0.32470    0.31740    0.51660    1.000
    O17      O        0.01440    0.05010    0.06990    1.000
    O18      O        0.33460    0.09510    0.27290    1.000
    O19      O        0.67980    0.25710    0.65470    1.000
    C5       C        0.76560    0.24360    0.52530    1.000
    H5       H        0.78680    0.28300    0.45410    1.000
    O20      O        0.82470    0.18260    0.48340    1.000
    O21      O        0.51440    0.55010    0.06990    1.000
    O22      O        0.83460    0.59510    0.27290    1.000
    O23      O        0.17980    0.75710    0.65470    1.000
    C6       C        0.26560    0.74360    0.52530    1.000
    H6       H        0.28680    0.78300    0.45410    1.000
    O24      O        0.32470    0.68260    0.48340    1.000
    O25      O        0.98560    0.94990    0.56990    1.000
    O26      O        0.66540    0.90490    0.77290    1.000
    O27      O        0.32020    0.74290    0.15470    1.000
    C7       C        0.23440    0.75640    0.02530    1.000
    H7       H        0.21320    0.71700    0.95410    1.000
    O28      O        0.17530    0.81740    0.98340    1.000
    O29      O        0.48560    0.44990    0.56990    1.000
    O30      O        0.16540    0.40490    0.77290    1.000
    O31      O        0.82020    0.24290    0.15470    1.000
    C8       C        0.73440    0.25640    0.02530    1.000
    H8       H        0.71320    0.21700    0.95410    1.000
    O32      O        0.67530    0.31740    0.98340    1.000
    Er1      Er       0.00000    0.14293    0.25000    1.000
    Er2      Er       0.50000    0.64293    0.25000    1.000
    Er3      Er       0.00000    0.85707    0.75000    1.000
    Er4      Er       0.50000    0.35707    0.75000    1.000
    C9       C        0.07560    0.00000    0.50000    1.000
    H9       H        0.21880    0.00000    0.50000    1.000
    C10      C        0.57560    0.50000    0.50000    1.000
    H10      H        0.71880    0.50000    0.50000    1.000
    C11      C        0.92440    0.00000    0.00000    1.000
    H11      H        0.78120    0.00000    0.00000    1.000
    C12      C        0.42440    0.50000    0.00000    1.000
    H12      H        0.28120    0.50000    0.00000    1.000
    C13      C        0.50000    0.12660    0.25000    1.000
    H13      H        0.50000    0.17830    0.25000    1.000
    C14      C        0.00000    0.62660    0.25000    1.000
    H14      H        0.00000    0.67830    0.25000    1.000
    C15      C        0.50000    0.87340    0.75000    1.000
    H15      H        0.50000    0.82170    0.75000    1.000
    C16      C        0.00000    0.37340    0.75000    1.000
    H16      H        0.00000    0.32170    0.75000    1.000
