# CIF file generated by openbabel 3.1.0, see https://openbabel.org
data_I
_chemical_name_common 'image0'
_cell_length_a 14.2786
_cell_length_b 13.0268
_cell_length_c 17.8255
_cell_angle_alpha 90
_cell_angle_beta 95.847
_cell_angle_gamma 90
_space_group_name_H-M_alt 'P 1'
_space_group_name_Hall 'P 1'
loop_
    _symmetry_equiv_pos_as_xyz
    x,y,z
loop_
    _atom_site_label
    _atom_site_type_symbol
    _atom_site_fract_x
    _atom_site_fract_y
    _atom_site_fract_z
    _atom_site_occupancy
    Zn1      Zn       0.00776    0.55605    0.72653    1.000
    Zn2      Zn       0.07331    0.71941    0.86464    1.000
    C1       C        0.16960    0.78660    0.64010    1.000
    C2       C        0.22410    0.86860    0.66960    1.000
    H1       H        0.22530    0.88550    0.72030    1.000
    C3       C        0.27570    0.92410    0.62360    1.000
    C4       C        0.27490    0.89950    0.54720    1.000
    H2       H        0.30790    0.93980    0.51580    1.000
    C5       C        0.22450    0.81440    0.51820    1.000
    C6       C        0.17260    0.76010    0.56490    1.000
    H3       H        0.13830    0.70360    0.54570    1.000
    C7       C        0.11260    0.72420    0.69060    1.000
    C8       C        0.34010    0.00850    0.65630    1.000
    C9       C        0.23020    0.78210    0.43760    1.000
    C10      C        0.30080    0.81860    0.39690    1.000
    H4       H        0.34720    0.86100    0.42040    1.000
    C11      C        0.30330    0.79290    0.32200    1.000
    C12      C        0.23670    0.72850    0.28720    1.000
    H5       H        0.23690    0.71380    0.23610    1.000
    C13      C        0.16910    0.68520    0.32770    1.000
    C14      C        0.16490    0.71410    0.40180    1.000
    H6       H        0.11750    0.68770    0.42830    1.000
    C15      C        0.37650    0.83760    0.27690    1.000
    C16      C        0.10140    0.60720    0.28970    1.000
    O1       O        0.06760    0.64960    0.65944    1.000
    O2       O        0.11530    0.74960    0.75719    1.000
    O3       O        0.37500    0.99350    0.72266    1.000
    O4       O        0.35420    0.08450    0.61558    1.000
    O5       O        0.45470    0.86900    0.31319    1.000
    O6       O        0.36120    0.84670    0.20917    1.000
    O7       O        0.09630    0.59430    0.22258    1.000
    O8       O        0.05240    0.55630    0.33385    1.000
    Zn3      Zn       0.49224    0.05605    0.77347    1.000
    Zn4      Zn       0.42669    0.21941    0.63536    1.000
    C17      C        0.33040    0.28660    0.85990    1.000
    C18      C        0.27590    0.36860    0.83040    1.000
    H7       H        0.27470    0.38550    0.77970    1.000
    C19      C        0.22430    0.42410    0.87640    1.000
    C20      C        0.22510    0.39950    0.95280    1.000
    H8       H        0.19210    0.43980    0.98420    1.000
    C21      C        0.27550    0.31440    0.98180    1.000
    C22      C        0.32740    0.26010    0.93510    1.000
    H9       H        0.36170    0.20360    0.95430    1.000
    C23      C        0.38740    0.22420    0.80940    1.000
    C24      C        0.15990    0.50850    0.84370    1.000
    C25      C        0.26980    0.28210    0.06240    1.000
    C26      C        0.19920    0.31860    0.10310    1.000
    H10      H        0.15280    0.36100    0.07960    1.000
    C27      C        0.19670    0.29290    0.17800    1.000
    C28      C        0.26330    0.22850    0.21280    1.000
    H11      H        0.26310    0.21380    0.26390    1.000
    C29      C        0.33090    0.18520    0.17230    1.000
    C30      C        0.33510    0.21410    0.09820    1.000
    H12      H        0.38250    0.18770    0.07170    1.000
    C31      C        0.12350    0.33760    0.22310    1.000
    C32      C        0.39860    0.10720    0.21030    1.000
    O9       O        0.43240    0.14960    0.84056    1.000
    O10      O        0.38470    0.24960    0.74281    1.000
    O11      O        0.12500    0.49350    0.77734    1.000
    O12      O        0.14580    0.58450    0.88442    1.000
    O13      O        0.04530    0.36900    0.18681    1.000
    O14      O        0.13880    0.34670    0.29083    1.000
    O15      O        0.40370    0.09430    0.27742    1.000
    O16      O        0.44760    0.05630    0.16615    1.000
    Zn5      Zn       0.99224    0.44395    0.27347    1.000
    Zn6      Zn       0.92669    0.28059    0.13536    1.000
    C33      C        0.83040    0.21340    0.35990    1.000
    C34      C        0.77590    0.13140    0.33040    1.000
    H13      H        0.77470    0.11450    0.27970    1.000
    C35      C        0.72430    0.07590    0.37640    1.000
    C36      C        0.72510    0.10050    0.45280    1.000
    H14      H        0.69210    0.06020    0.48420    1.000
    C37      C        0.77550    0.18560    0.48180    1.000
    C38      C        0.82740    0.23990    0.43510    1.000
    H15      H        0.86170    0.29640    0.45430    1.000
    C39      C        0.88740    0.27580    0.30940    1.000
    C40      C        0.65990    0.99150    0.34370    1.000
    C41      C        0.76980    0.21790    0.56240    1.000
    C42      C        0.69920    0.18140    0.60310    1.000
    H16      H        0.65280    0.13900    0.57960    1.000
    C43      C        0.69670    0.20710    0.67800    1.000
    C44      C        0.76330    0.27150    0.71280    1.000
    H17      H        0.76310    0.28620    0.76390    1.000
    C45      C        0.83090    0.31480    0.67230    1.000
    C46      C        0.83510    0.28590    0.59820    1.000
    H18      H        0.88250    0.31230    0.57170    1.000
    C47      C        0.62350    0.16240    0.72310    1.000
    C48      C        0.89860    0.39280    0.71030    1.000
    O17      O        0.93240    0.35040    0.34056    1.000
    O18      O        0.88470    0.25040    0.24281    1.000
    O19      O        0.62500    0.00650    0.27734    1.000
    O20      O        0.64580    0.91550    0.38442    1.000
    O21      O        0.54530    0.13100    0.68681    1.000
    O22      O        0.63880    0.15330    0.79083    1.000
    O23      O        0.90370    0.40570    0.77742    1.000
    O24      O        0.94760    0.44370    0.66615    1.000
    Zn7      Zn       0.50776    0.94395    0.22653    1.000
    Zn8      Zn       0.57331    0.78059    0.36464    1.000
    C49      C        0.66960    0.71340    0.14010    1.000
    C50      C        0.72410    0.63140    0.16960    1.000
    H19      H        0.72530    0.61450    0.22030    1.000
    C51      C        0.77570    0.57590    0.12360    1.000
    C52      C        0.77490    0.60050    0.04720    1.000
    H20      H        0.80790    0.56020    0.01580    1.000
    C53      C        0.72450    0.68560    0.01820    1.000
    C54      C        0.67260    0.73990    0.06490    1.000
    H21      H        0.63830    0.79640    0.04570    1.000
    C55      C        0.61260    0.77580    0.19060    1.000
    C56      C        0.84010    0.49150    0.15630    1.000
    C57      C        0.73020    0.71790    0.93760    1.000
    C58      C        0.80080    0.68140    0.89690    1.000
    H22      H        0.84720    0.63900    0.92040    1.000
    C59      C        0.80330    0.70710    0.82200    1.000
    C60      C        0.73670    0.77150    0.78720    1.000
    H23      H        0.73690    0.78620    0.73610    1.000
    C61      C        0.66910    0.81480    0.82770    1.000
    C62      C        0.66490    0.78590    0.90180    1.000
    H24      H        0.61750    0.81230    0.92830    1.000
    C63      C        0.87650    0.66240    0.77690    1.000
    C64      C        0.60140    0.89280    0.78970    1.000
    O25      O        0.56760    0.85040    0.15944    1.000
    O26      O        0.61530    0.75040    0.25719    1.000
    O27      O        0.87500    0.50650    0.22266    1.000
    O28      O        0.85420    0.41550    0.11558    1.000
    O29      O        0.95470    0.63100    0.81319    1.000
    O30      O        0.86120    0.65330    0.70917    1.000
    O31      O        0.59630    0.90570    0.72258    1.000
    O32      O        0.55240    0.94370    0.83385    1.000
