data_functionalizedCrystal
_audit_creation_method	'EQeq! by Chris Wilmer'
_symmetry_space_group_name_H-M	'P1'
_symmetry_Int_Tables_number	1
_symmetry_cell_setting	triclinic
loop_
_symmetry_equiv_pos_as_xyz
  x,y,z
_cell_length_a	14.761
_cell_length_b	15.739
_cell_length_c	15.988
_cell_angle_alpha	100.514
_cell_angle_beta	111.588
_cell_angle_gamma	106.821
loop_
_atom_site_label
_atom_site_type_symbol
_atom_site_fract_x
_atom_site_fract_y
_atom_site_fract_z
_atom_site_charge
Mof_Cd	Cd	0.62774	0.77508	0.80497	0.502
Mof_Cd	Cd	0.78235	0.76769	0.06328	0.509
Mof_Cd	Cd	0.69425	0.58049	0.82189	0.488
Mof_C 	C 	0.8729	0.8266	0.2558	0.347
Mof_C 	C 	0.9264	0.8547	0.3644	-0.143
Mof_C 	C 	0.0319	0.8801	0.414	0.094
Mof_H 	H 	0.0737	0.8835	0.3821	0.016
Mof_C 	C 	0.0784	0.9013	0.5117	-0.203
Mof_H 	H 	0.1509	0.9175	0.5447	0.106
Mof_C 	C 	0.0187	0.8985	0.5605	0.165
Mof_C 	C 	0.9104	0.8772	0.5096	-0.187
Mof_H 	H 	0.8695	0.8785	0.5421	0.109
Mof_C 	C 	0.8635	0.8544	0.4116	0.082
Mof_H 	H 	0.7914	0.8392	0.3778	0.021
Mof_C 	C 	0.068	0.9224	0.6668	-0.198
Mof_H 	H 	0.14	0.9256	0.6897	0.102
Mof_H 	H 	0.0708	0.9836	0.6954	0.104
Mof_C 	C 	0.0034	0.7571	0.6597	-0.186
Mof_H 	H 	0.9645	0.7348	0.5908	0.093
Mof_H 	H 	0.9646	0.7151	0.6834	0.093
Mof_C 	C 	0.1099	0.7524	0.6869	0.145
Mof_C 	C 	0.1482	0.7437	0.619	-0.178
Mof_H 	H 	0.1044	0.7351	0.5562	0.091
Mof_C 	C 	0.2498	0.7475	0.6431	0.074
Mof_H 	H 	0.2725	0.7389	0.5963	0.019
Mof_C 	C 	0.3174	0.764	0.7363	-0.127
Mof_C 	C 	0.2797	0.7712	0.8054	0.078
Mof_H 	H 	0.3235	0.7796	0.868	0.03
Mof_C 	C 	0.1776	0.7658	0.7796	-0.179
Mof_H 	H 	0.1537	0.7714	0.8258	0.106
Mof_C 	C 	0.4313	0.774	0.7651	0.342
Mof_C 	C 	0.0285	0.8803	0.7933	0.095
Mof_C 	C 	0.9543	0.8296	0.8194	-0.087
Mof_H 	H 	0.893	0.7798	0.7731	0.086
Mof_C 	C 	0.9708	0.8523	0.9124	-0.019
Mof_C 	C 	0.0627	0.926	0.9826	-0.033
Mof_H 	H 	0.0759	0.939	0.0461	0.079
Mof_C 	C 	0.1347	0.98	0.9572	-0.017
Mof_C 	C 	0.1167	0.9572	0.8631	-0.09
Mof_H 	H 	0.1645	0.994	0.8463	0.082
Mof_C 	C 	0.8884	0.8003	0.938	0.294
Mof_C 	C 	0.2282	0.0657	0.0306	0.284
Mof_C 	C 	0.6665	0.6297	0.5751	-0.133
Mof_C 	C 	0.6508	0.5366	0.5579	0.087
Mof_H 	H 	0.6181	0.5024	0.5879	0.023
Mof_C 	C 	0.6823	0.4919	0.4968	-0.176
Mof_H 	H 	0.6714	0.4289	0.4866	0.108
Mof_C 	C 	0.7308	0.543	0.4509	0.145
Mof_C 	C 	0.7391	0.6342	0.4621	-0.177
Mof_H 	H 	0.7661	0.6673	0.4282	0.105
Mof_C 	C 	0.7072	0.6772	0.5244	0.082
Mof_H 	H 	0.7136	0.739	0.5317	0.021
Mof_C 	C 	0.6435	0.6789	0.6494	0.324
Mof_C 	C 	0.7784	0.4964	0.3947	-0.172
Mof_H 	H 	0.8429	0.4946	0.4395	0.088
Mof_H 	H 	0.7292	0.432	0.3581	0.091
Mof_C 	C 	0.9067	0.6147	0.3663	-0.062
Mof_H 	H 	0.926	0.6752	0.4046	0.056
Mof_C 	C 	0.9825	0.5847	0.3378	0.095
Mof_C 	C 	0.9621	0.4925	0.297	-0.136
Mof_H 	H 	0.901	0.4462	0.2893	0.089
Mof_C 	C 	0.0303	0.4658	0.2667	0.049
Mof_H 	H 	0.0141	0.4028	0.2383	0.028
Mof_C 	C 	0.1242	0.536	0.2798	-0.108
Mof_C 	C 	0.1466	0.6284	0.323	0.057
Mof_H 	H 	0.209	0.6748	0.3333	0.036
Mof_C 	C 	0.0771	0.6532	0.3514	-0.137
Mof_H 	H 	0.0934	0.7161	0.38	0.084
Mof_C 	C 	0.1943	0.5036	0.2441	0.344
Mof_C 	C 	0.7314	0.5153	0.2359	0.101
Mof_C 	C 	0.7611	0.5471	0.1686	-0.089
Mof_H 	H 	0.8286	0.5919	0.189	0.087
Mof_C 	C 	0.6911	0.5125	0.0736	-0.016
Mof_C 	C 	0.5882	0.4463	0.0404	-0.033
Mof_H 	H 	0.5423	0.4211	0.9758	0.079
Mof_C 	C 	0.556	0.4188	0.1068	-0.023
Mof_C 	C 	0.6258	0.4533	0.2025	-0.087
Mof_H 	H 	0.6026	0.4353	0.2457	0.082
Mof_C 	C 	0.4435	0.3551	0.072	0.308
Mof_C 	C 	0.7221	0.5464	0.0024	0.288
Mof_O 	O 	0.9291	0.826	0.2153	-0.272
Mof_O 	O 	0.7802	0.8066	0.2125	-0.284
Mof_O 	O 	0.4921	0.797	0.8488	-0.264
Mof_O 	O 	0.457	0.7558	0.7017	-0.281
Mof_O 	O 	0.7976	0.7457	0.8731	-0.276
Mof_O 	O 	0.9139	0.8183	0.0255	-0.257
Mof_O 	O 	0.2762	0.1266	0.0043	-0.261
Mof_O 	O 	0.2563	0.0734	0.1174	-0.252
Mof_O 	O 	0.6581	0.7637	0.6647	-0.256
Mof_O 	O 	0.6129	0.6337	0.6985	-0.288
Mof_O 	O 	0.283	0.5673	0.266	-0.253
Mof_O 	O 	0.1672	0.4247	0.2004	-0.301
Mof_O 	O 	0.3896	0.3137	0.9859	-0.266
Mof_O 	O 	0.4085	0.3479	0.1338	-0.291
Mof_O 	O 	0.6663	0.4975	0.9165	-0.263
Mof_O 	O 	0.7988	0.6236	0.0298	-0.258
Mof_N 	N 	0.0078	0.8524	0.6963	-0.076
Mof_N 	N 	0.8027	0.5433	0.3301	-0.097
Mof_Cd	Cd	0.37226	0.22492	0.19503	0.501
Mof_Cd	Cd	0.21765	0.23231	0.93672	0.508
Mof_Cd	Cd	0.30575	0.41951	0.17811	0.488
Mof_C 	C 	0.1271	0.1734	0.7442	0.347
Mof_C 	C 	0.0736	0.1453	0.6356	-0.143
Mof_C 	C 	0.9681	0.1199	0.586	0.094
Mof_H 	H 	0.9263	0.1165	0.6179	0.016
Mof_C 	C 	0.9216	0.0987	0.4883	-0.203
Mof_H 	H 	0.8491	0.0825	0.4553	0.106
Mof_C 	C 	0.9813	0.1015	0.4395	0.165
Mof_C 	C 	0.0896	0.1228	0.4904	-0.187
Mof_H 	H 	0.1305	0.1215	0.4579	0.109
Mof_C 	C 	0.1365	0.1456	0.5884	0.082
Mof_H 	H 	0.2086	0.1608	0.6222	0.021
Mof_C 	C 	0.932	0.0776	0.3332	-0.198
Mof_H 	H 	0.86	0.0744	0.3103	0.102
Mof_H 	H 	0.9292	0.0164	0.3046	0.104
Mof_C 	C 	0.9966	0.2429	0.3403	-0.186
Mof_H 	H 	0.0355	0.2652	0.4092	0.093
Mof_H 	H 	0.0354	0.2849	0.3166	0.093
Mof_C 	C 	0.8901	0.2476	0.3131	0.145
Mof_C 	C 	0.8518	0.2563	0.381	-0.178
Mof_H 	H 	0.8956	0.2649	0.4438	0.091
Mof_C 	C 	0.7502	0.2525	0.3569	0.074
Mof_H 	H 	0.7275	0.2611	0.4037	0.019
Mof_C 	C 	0.6826	0.236	0.2637	-0.127
Mof_C 	C 	0.7203	0.2288	0.1946	0.078
Mof_H 	H 	0.6765	0.2204	0.132	0.03
Mof_C 	C 	0.8224	0.2342	0.2204	-0.179
Mof_H 	H 	0.8463	0.2286	0.1742	0.106
Mof_C 	C 	0.5687	0.226	0.2349	0.342
Mof_C 	C 	0.9715	0.1197	0.2067	0.095
Mof_C 	C 	0.0457	0.1704	0.1806	-0.087
Mof_H 	H 	0.107	0.2202	0.2269	0.086
Mof_C 	C 	0.0292	0.1477	0.0876	-0.019
Mof_C 	C 	0.9373	0.074	0.0174	-0.033
Mof_H 	H 	0.9241	0.061	0.9539	0.079
Mof_C 	C 	0.8653	0.02	0.0428	-0.017
Mof_C 	C 	0.8833	0.0428	0.1369	-0.09
Mof_H 	H 	0.8355	0.006	0.1537	0.082
Mof_C 	C 	0.1116	0.1997	0.062	0.294
Mof_C 	C 	0.7718	0.9343	0.9694	0.284
Mof_C 	C 	0.3335	0.3703	0.4249	-0.133
Mof_C 	C 	0.3492	0.4634	0.4421	0.087
Mof_H 	H 	0.3819	0.4976	0.4121	0.023
Mof_C 	C 	0.3177	0.5081	0.5032	-0.176
Mof_H 	H 	0.3286	0.5711	0.5134	0.108
Mof_C 	C 	0.2692	0.457	0.5491	0.145
Mof_C 	C 	0.2609	0.3658	0.5379	-0.177
Mof_H 	H 	0.2339	0.3327	0.5718	0.105
Mof_C 	C 	0.2928	0.3228	0.4756	0.082
Mof_H 	H 	0.2864	0.261	0.4683	0.021
Mof_C 	C 	0.3565	0.3211	0.3506	0.324
Mof_C 	C 	0.2216	0.5036	0.6053	-0.172
Mof_H 	H 	0.1571	0.5054	0.5605	0.088
Mof_H 	H 	0.2708	0.568	0.6419	0.091
Mof_C 	C 	0.0933	0.3853	0.6337	-0.062
Mof_H 	H 	0.074	0.3248	0.5954	0.056
Mof_C 	C 	0.0175	0.4153	0.6622	0.095
Mof_C 	C 	0.0379	0.5075	0.703	-0.136
Mof_H 	H 	0.099	0.5538	0.7107	0.089
Mof_C 	C 	0.9697	0.5342	0.7333	0.049
Mof_H 	H 	0.9859	0.5972	0.7617	0.028
Mof_C 	C 	0.8758	0.464	0.7202	-0.108
Mof_C 	C 	0.8534	0.3716	0.677	0.057
Mof_H 	H 	0.791	0.3252	0.6667	0.036
Mof_C 	C 	0.9229	0.3468	0.6486	-0.137
Mof_H 	H 	0.9066	0.2839	0.62	0.084
Mof_C 	C 	0.8057	0.4964	0.7559	0.344
Mof_C 	C 	0.2686	0.4847	0.7641	0.101
Mof_C 	C 	0.2389	0.4529	0.8314	-0.089
Mof_H 	H 	0.1714	0.4081	0.811	0.087
Mof_C 	C 	0.3089	0.4875	0.9264	-0.016
Mof_C 	C 	0.4118	0.5537	0.9596	-0.033
Mof_H 	H 	0.4577	0.5789	0.0242	0.079
Mof_C 	C 	0.444	0.5812	0.8932	-0.023
Mof_C 	C 	0.3742	0.5467	0.7975	-0.087
Mof_H 	H 	0.3974	0.5647	0.7543	0.082
Mof_C 	C 	0.5565	0.6449	0.928	0.308
Mof_C 	C 	0.2779	0.4536	0.9976	0.288
Mof_O 	O 	0.0709	0.174	0.7847	-0.272
Mof_O 	O 	0.2198	0.1934	0.7875	-0.284
Mof_O 	O 	0.5079	0.203	0.1512	-0.264
Mof_O 	O 	0.543	0.2442	0.2983	-0.281
Mof_O 	O 	0.2024	0.2543	0.1269	-0.276
Mof_O 	O 	0.0861	0.1817	0.9745	-0.257
Mof_O 	O 	0.7238	0.8734	0.9957	-0.261
Mof_O 	O 	0.7437	0.9266	0.8826	-0.252
Mof_O 	O 	0.3419	0.2363	0.3353	-0.256
Mof_O 	O 	0.3871	0.3663	0.3015	-0.288
Mof_O 	O 	0.717	0.4327	0.734	-0.253
Mof_O 	O 	0.8328	0.5753	0.7996	-0.301
Mof_O 	O 	0.6104	0.6863	0.0141	-0.266
Mof_O 	O 	0.5915	0.6521	0.8662	-0.291
Mof_O 	O 	0.3337	0.5025	0.0835	-0.263
Mof_O 	O 	0.2012	0.3764	0.9702	-0.258
Mof_N 	N 	0.9922	0.1476	0.3037	-0.076
Mof_N 	N 	0.1973	0.4567	0.6699	-0.097
_end
