data_functionalizedCrystal
_audit_creation_method	'EQeq! by Chris Wilmer'
_symmetry_space_group_name_H-M	'P1'
_symmetry_Int_Tables_number	1
_symmetry_cell_setting	triclinic
loop_
_symmetry_equiv_pos_as_xyz
  x,y,z
_cell_length_a	5.3881
_cell_length_b	14.1175
_cell_length_c	11.4098
_cell_angle_alpha	90
_cell_angle_beta	101.187
_cell_angle_gamma	90
loop_
_atom_site_label
_atom_site_type_symbol
_atom_site_fract_x
_atom_site_fract_y
_atom_site_fract_z
_atom_site_charge
Mof_O 	O 	0.8416	0.4392	0.9272	-1.986
Mof_O 	O 	0.4404	0.3953	0.9136	-1.533
Mof_C 	C 	0.6897	0.3066	0.8061	-0.48
Mof_C 	C 	0.6536	0.3867	0.8902	1.144
Mof_N 	N 	0.7221	0.1642	0.6383	-0.614
Mof_C 	C 	0.5502	0.1609	0.7083	-0.041
Mof_H 	H 	0.4378	0.1084	0.7003	-0.19
Mof_C 	C 	0.8765	0.3082	0.7387	0.145
Mof_H 	H 	0.9995	0.3572	0.7494	-0.139
Mof_C 	C 	0.8825	0.2371	0.655	-0.058
Mof_H 	H 	0.0079	0.2406	0.6069	-0.091
Mof_C 	C 	0.5272	0.2297	0.7918	0.135
Mof_H 	H 	0.4008	0.2243	0.8389	-0.1
Mof_Li	Li	0.2052	0.4366	0.0035	3.811
Mof_O 	O 	0.6584	0.9392	0.5728	-1.987
Mof_O 	O 	0.0596	0.8953	0.5864	-1.535
Mof_C 	C 	0.8103	0.8066	0.6939	-0.48
Mof_C 	C 	0.8464	0.8867	0.6098	1.139
Mof_N 	N 	0.7779	0.6642	0.8617	-0.612
Mof_C 	C 	0.9498	0.6609	0.7917	-0.05
Mof_H 	H 	0.0622	0.6084	0.7997	-0.183
Mof_C 	C 	0.6235	0.8082	0.7613	0.146
Mof_H 	H 	0.5005	0.8572	0.7506	-0.138
Mof_C 	C 	0.6175	0.7371	0.845	-0.061
Mof_H 	H 	0.4921	0.7406	0.8931	-0.087
Mof_C 	C 	0.9728	0.7297	0.7082	0.127
Mof_H 	H 	0.0992	0.7243	0.6611	-0.095
Mof_Li	Li	0.2948	0.9366	0.4965	3.815
Mof_O 	O 	0.1584	0.5608	0.0728	-1.987
Mof_O 	O 	0.5596	0.6047	0.0864	-1.534
Mof_C 	C 	0.3103	0.6934	0.1939	-0.481
Mof_C 	C 	0.3464	0.6133	0.1098	1.143
Mof_N 	N 	0.2779	0.8358	0.3617	-0.614
Mof_C 	C 	0.4498	0.8391	0.2917	-0.041
Mof_H 	H 	0.5622	0.8916	0.2997	-0.19
Mof_C 	C 	0.1235	0.6918	0.2613	0.145
Mof_H 	H 	0.0005	0.6428	0.2506	-0.139
Mof_C 	C 	0.1175	0.7629	0.345	-0.058
Mof_H 	H 	0.9921	0.7594	0.3931	-0.091
Mof_C 	C 	0.4728	0.7703	0.2082	0.135
Mof_H 	H 	0.5992	0.7757	0.1611	-0.1
Mof_Li	Li	0.7948	0.5634	0.9965	3.811
Mof_O 	O 	0.3416	0.0608	0.4272	-1.987
Mof_O 	O 	0.9404	0.1047	0.4136	-1.535
Mof_C 	C 	0.1897	0.1934	0.3061	-0.48
Mof_C 	C 	0.1536	0.1133	0.3902	1.139
Mof_N 	N 	0.2221	0.3358	0.1383	-0.612
Mof_C 	C 	0.0502	0.3391	0.2083	-0.05
Mof_H 	H 	0.9378	0.3916	0.2003	-0.183
Mof_C 	C 	0.3765	0.1918	0.2387	0.146
Mof_H 	H 	0.4995	0.1428	0.2494	-0.138
Mof_C 	C 	0.3825	0.2629	0.155	-0.061
Mof_H 	H 	0.5079	0.2594	0.1069	-0.087
Mof_C 	C 	0.0272	0.2703	0.2918	0.127
Mof_H 	H 	0.9008	0.2757	0.3389	-0.095
Mof_Li	Li	0.7052	0.0634	0.5035	3.815
_end
