# CIF file generated by openbabel 3.1.0, see https://openbabel.org
data_I
_chemical_name_common 'image0'
_cell_length_a 39.049
_cell_length_b 27.573
_cell_length_c 27.218
_cell_angle_alpha 90
_cell_angle_beta 133.883
_cell_angle_gamma 90
_space_group_name_H-M_alt 'P 1'
_space_group_name_Hall 'P 1'
loop_
    _symmetry_equiv_pos_as_xyz
    x,y,z
loop_
    _atom_site_label
    _atom_site_type_symbol
    _atom_site_fract_x
    _atom_site_fract_y
    _atom_site_fract_z
    _atom_site_occupancy
    C1       C        0.09870    0.19864    0.37220    1.000
    C2       C        0.09674    0.16619    0.32630    1.000
    C3       C        0.05349    0.15604    0.26020    1.000
    H1       H        0.02580    0.17050    0.24420    1.000
    C4       C        0.05150    0.12513    0.21900    1.000
    H2       H        0.02260    0.12020    0.17440    1.000
    C5       C        0.09250    0.10040    0.24290    1.000
    C6       C        0.13590    0.11280    0.30830    1.000
    H3       H        0.16390    0.09960    0.32400    1.000
    C7       C        0.13770    0.14430    0.34990    1.000
    H4       H        0.16660    0.15070    0.39390    1.000
    C8       C        0.09100    0.06550    0.19930    1.000
    C9       C        0.05450    0.02930    0.16840    1.000
    H5       H        0.03330    0.03020    0.17360    1.000
    C10      C        0.05180    0.99200    0.12960    1.000
    C11      C        0.09020    0.99120    0.13090    1.000
    C12      C        0.10800    0.03160    0.13970    1.000
    H6       H        0.11890    0.03820    0.11890    1.000
    C13      C        0.11230    0.06920    0.18230    1.000
    C14      C        0.13250    0.88870    0.09090    1.000
    H7       H        0.16130    0.87400    0.11210    1.000
    C15      C        0.13210    0.92750    0.12350    1.000
    H8       H        0.16010    0.93690    0.16690    1.000
    C16      C        0.09110    0.95170    0.09210    1.000
    C17      C        0.04920    0.93480    0.02960    1.000
    H9       H        0.02030    0.94960    0.00820    1.000
    C18      C        0.05110    0.89490    0.99910    1.000
    H10      H        0.02320    0.88410    0.95670    1.000
    C19      C        0.09245    0.87162    0.02970    1.000
    C20      C        0.09321    0.82842    0.99640    1.000
    C21      C        0.18780    0.10250    0.21170    1.000
    H11      H        0.20770    0.07430    0.23690    1.000
    H12      H        0.17620    0.10230    0.16660    1.000
    C22      C        0.21330    0.14830    0.24880    1.000
    H13      H        0.19010    0.16810    0.24290    1.000
    H14      H        0.23680    0.13930    0.29660    1.000
    C23      C        0.23590    0.17890    0.24130    1.000
    H15      H        0.26820    0.16680    0.27370    1.000
    H16      H        0.23690    0.20870    0.26130    1.000
    C24      C        0.22980    0.19720    0.18210    1.000
    H17      H        0.19900    0.18670    0.13960    1.000
    H18      H        0.25370    0.18180    0.18560    1.000
    C25      C        0.23350    0.25280    0.17860    1.000
    H19      H        0.22920    0.26050    0.14030    1.000
    H20      H        0.26420    0.26370    0.21980    1.000
    H21      H        0.20930    0.26860    0.17360    1.000
    C26      C        0.97490    0.95940    0.08810    1.000
    H22      H        0.95910    0.99020    0.06660    1.000
    H23      H        0.98340    0.95740    0.13100    1.000
    C27      C        0.94370    0.91900    0.04350    1.000
    H24      H        0.91290    0.93480    0.01140    1.000
    H25      H        0.94290    0.90030    0.07290    1.000
    C28      C        0.93800    0.87670    0.99640    1.000
    H26      H        0.90690    0.87990    0.95050    1.000
    H27      H        0.96140    0.88240    0.99410    1.000
    C29      C        0.94320    0.82770    0.01850    1.000
    H28      H        0.91450    0.80970    0.98240    1.000
    H29      H        0.94720    0.82780    0.05790    1.000
    C30      C        0.10565    0.30085    0.53750    1.000
    C31      C        0.10595    0.33299    0.58210    1.000
    C32      C        0.14870    0.35200    0.64270    1.000
    H30      H        0.17740    0.34330    0.65680    1.000
    C33      C        0.14820    0.38320    0.68110    1.000
    H31      H        0.17720    0.39350    0.72260    1.000
    C34      C        0.10820    0.39990    0.66240    1.000
    C35      C        0.06690    0.38240    0.60370    1.000
    H32      H        0.03850    0.39270    0.58920    1.000
    C36      C        0.06600    0.34850    0.56340    1.000
    H33      H        0.03690    0.33700    0.52320    1.000
    C37      C        0.10770    0.43760    0.70110    1.000
    C38      C        0.13350    0.47860    0.71990    1.000
    H34      H        0.14990    0.48240    0.70680    1.000
    C39      C        0.13660    0.51580    0.75840    1.000
    C40      C        0.11100    0.50920    0.77770    1.000
    C41      C        0.08560    0.46820    0.75750    1.000
    H35      H        0.06840    0.46430    0.76930    1.000
    C42      C        0.08310    0.43260    0.72170    1.000
    C43      C        0.06496    0.60189    0.82350    1.000
    H36      H        0.03620    0.61110    0.80900    1.000
    C44      C        0.06630    0.56390    0.79150    1.000
    H37      H        0.03820    0.54830    0.75500    1.000
    C45      C        0.10800    0.54905    0.81260    1.000
    C46      C        0.14860    0.57260    0.86540    1.000
    H38      H        0.17720    0.56340    0.87970    1.000
    C47      C        0.14790    0.61073    0.89870    1.000
    H39      H        0.17620    0.62560    0.93610    1.000
    C48      C        0.10599    0.62600    0.87660    1.000
    C49      C        0.10429    0.67124    0.90660    1.000
    C50      C        0.06030    0.36890    0.76080    1.000
    H40      H        0.03020    0.35750    0.74380    1.000
    H41      H        0.07380    0.39240    0.79680    1.000
    C51      C        0.19100    0.56060    0.75950    1.000
    H42      H        0.17750    0.54290    0.71860    1.000
    H43      H        0.19500    0.59410    0.75340    1.000
    C52      C        0.23170    0.54260    0.81040    1.000
    H44      H        0.25050    0.53690    0.79970    1.000
    H45      H        0.22870    0.51260    0.82580    1.000
    C53      C        0.24830    0.25690    0.63400    1.000
    H46      H        0.23240    0.26920    0.64540    1.000
    C54      C        0.29840    0.25550    0.68620    1.000
    H47      H        0.31290    0.26560    0.72960    1.000
    C55      C        0.32388    0.24207    0.67810    1.000
    C56      C        0.29910    0.22770    0.61570    1.000
    H48      H        0.31450    0.21580    0.60320    1.000
    C57      C        0.25030    0.23020    0.56840    1.000
    H49      H        0.23450    0.22050    0.52430    1.000
    C58      C        0.45141    0.21870    0.77220    1.000
    H50      H        0.46830    0.20290    0.76440    1.000
    C59      C        0.40287    0.21670    0.72260    1.000
    H51      H        0.38740    0.19910    0.68280    1.000
    C60      C        0.37711    0.24103    0.73240    1.000
    C61      C        0.40178    0.26490    0.79260    1.000
    H52      H        0.38560    0.28120    0.80130    1.000
    C62      C        0.45050    0.26470    0.84020    1.000
    H53      H        0.46650    0.28130    0.88090    1.000
    N1       N        0.22494    0.24394    0.57780    1.000
    N2       N        0.47598    0.24239    0.83160    1.000
    O1       O        0.13874    0.20796    0.42967    1.000
    O2       O        0.06052    0.21577    0.35016    1.000
    O3       O        0.13356    0.81080    0.02718    1.000
    O4       O        0.05561    0.81185    0.94592    1.000
    O5       O        0.14670    0.10540    0.20840    1.000
    O6       O        0.01700    0.95510    0.09930    1.000
    O7       O        0.14444    0.28908    0.55769    1.000
    O8       O        0.06575    0.28742    0.48310    1.000
    O9       O        0.14268    0.69190    0.95328    1.000
    O10      O        0.06403    0.68473    0.88081    1.000
    O11      O        0.05410    0.39110    0.70240    1.000
    O12      O        0.15710    0.55850    0.76870    1.000
    Zn1      Zn       0.15250    0.24717    0.50501    1.000
    Zn2      Zn       0.04813    0.25265    0.40171    1.000
    C63      C        0.59870    0.69864    0.37220    1.000
    C64      C        0.59674    0.66619    0.32630    1.000
    C65      C        0.55349    0.65604    0.26020    1.000
    H54      H        0.52580    0.67050    0.24420    1.000
    C66      C        0.55150    0.62513    0.21900    1.000
    H55      H        0.52260    0.62020    0.17440    1.000
    C67      C        0.59250    0.60040    0.24290    1.000
    C68      C        0.63590    0.61280    0.30830    1.000
    H56      H        0.66390    0.59960    0.32400    1.000
    C69      C        0.63770    0.64430    0.34990    1.000
    H57      H        0.66660    0.65070    0.39390    1.000
    C70      C        0.59100    0.56550    0.19930    1.000
    C71      C        0.55450    0.52930    0.16840    1.000
    H58      H        0.53330    0.53020    0.17360    1.000
    C72      C        0.55180    0.49200    0.12960    1.000
    C73      C        0.59020    0.49120    0.13090    1.000
    C74      C        0.60800    0.53160    0.13970    1.000
    H59      H        0.61890    0.53820    0.11890    1.000
    C75      C        0.61230    0.56920    0.18230    1.000
    C76      C        0.63250    0.38870    0.09090    1.000
    H60      H        0.66130    0.37400    0.11210    1.000
    C77      C        0.63210    0.42750    0.12350    1.000
    H61      H        0.66010    0.43690    0.16690    1.000
    C78      C        0.59110    0.45170    0.09210    1.000
    C79      C        0.54920    0.43480    0.02960    1.000
    H62      H        0.52030    0.44960    0.00820    1.000
    C80      C        0.55110    0.39490    0.99910    1.000
    H63      H        0.52320    0.38410    0.95670    1.000
    C81      C        0.59245    0.37162    0.02970    1.000
    C82      C        0.59321    0.32842    0.99640    1.000
    C83      C        0.68780    0.60250    0.21170    1.000
    H64      H        0.70770    0.57430    0.23690    1.000
    H65      H        0.67620    0.60230    0.16660    1.000
    C84      C        0.71330    0.64830    0.24880    1.000
    H66      H        0.69010    0.66810    0.24290    1.000
    H67      H        0.73680    0.63930    0.29660    1.000
    C85      C        0.73590    0.67890    0.24130    1.000
    H68      H        0.76820    0.66680    0.27370    1.000
    H69      H        0.73690    0.70870    0.26130    1.000
    C86      C        0.72980    0.69720    0.18210    1.000
    H70      H        0.69900    0.68670    0.13960    1.000
    H71      H        0.75370    0.68180    0.18560    1.000
    C87      C        0.73350    0.75280    0.17860    1.000
    H72      H        0.72920    0.76050    0.14030    1.000
    H73      H        0.76420    0.76370    0.21980    1.000
    H74      H        0.70930    0.76860    0.17360    1.000
    C88      C        0.47490    0.45940    0.08810    1.000
    H75      H        0.45910    0.49020    0.06660    1.000
    H76      H        0.48340    0.45740    0.13100    1.000
    C89      C        0.44370    0.41900    0.04350    1.000
    H77      H        0.41290    0.43480    0.01140    1.000
    H78      H        0.44290    0.40030    0.07290    1.000
    C90      C        0.43800    0.37670    0.99640    1.000
    H79      H        0.40690    0.37990    0.95050    1.000
    H80      H        0.46140    0.38240    0.99410    1.000
    C91      C        0.44320    0.32770    0.01850    1.000
    H81      H        0.41450    0.30970    0.98240    1.000
    H82      H        0.44720    0.32780    0.05790    1.000
    C92      C        0.60565    0.80085    0.53750    1.000
    C93      C        0.60595    0.83299    0.58210    1.000
    C94      C        0.64870    0.85200    0.64270    1.000
    H83      H        0.67740    0.84330    0.65680    1.000
    C95      C        0.64820    0.88320    0.68110    1.000
    H84      H        0.67720    0.89350    0.72260    1.000
    C96      C        0.60820    0.89990    0.66240    1.000
    C97      C        0.56690    0.88240    0.60370    1.000
    H85      H        0.53850    0.89270    0.58920    1.000
    C98      C        0.56600    0.84850    0.56340    1.000
    H86      H        0.53690    0.83700    0.52320    1.000
    C99      C        0.60770    0.93760    0.70110    1.000
    C100     C        0.63350    0.97860    0.71990    1.000
    H87      H        0.64990    0.98240    0.70680    1.000
    C101     C        0.63660    0.01580    0.75840    1.000
    C102     C        0.61100    0.00920    0.77770    1.000
    C103     C        0.58560    0.96820    0.75750    1.000
    H88      H        0.56840    0.96430    0.76930    1.000
    C104     C        0.58310    0.93260    0.72170    1.000
    C105     C        0.56496    0.10189    0.82350    1.000
    H89      H        0.53620    0.11110    0.80900    1.000
    C106     C        0.56630    0.06390    0.79150    1.000
    H90      H        0.53820    0.04830    0.75500    1.000
    C107     C        0.60800    0.04905    0.81260    1.000
    C108     C        0.64860    0.07260    0.86540    1.000
    H91      H        0.67720    0.06340    0.87970    1.000
    C109     C        0.64790    0.11073    0.89870    1.000
    H92      H        0.67620    0.12560    0.93610    1.000
    C110     C        0.60599    0.12600    0.87660    1.000
    C111     C        0.60429    0.17124    0.90660    1.000
    C112     C        0.56030    0.86890    0.76080    1.000
    H93      H        0.53020    0.85750    0.74380    1.000
    H94      H        0.57380    0.89240    0.79680    1.000
    C113     C        0.69100    0.06060    0.75950    1.000
    H95      H        0.67750    0.04290    0.71860    1.000
    H96      H        0.69500    0.09410    0.75340    1.000
    C114     C        0.73170    0.04260    0.81040    1.000
    H97      H        0.75050    0.03690    0.79970    1.000
    H98      H        0.72870    0.01260    0.82580    1.000
    C115     C        0.74830    0.75690    0.63400    1.000
    H99      H        0.73240    0.76920    0.64540    1.000
    C116     C        0.79840    0.75550    0.68620    1.000
    H100     H        0.81290    0.76560    0.72960    1.000
    C117     C        0.82388    0.74207    0.67810    1.000
    C118     C        0.79910    0.72770    0.61570    1.000
    H101     H        0.81450    0.71580    0.60320    1.000
    C119     C        0.75030    0.73020    0.56840    1.000
    H102     H        0.73450    0.72050    0.52430    1.000
    C120     C        0.95141    0.71870    0.77220    1.000
    H103     H        0.96830    0.70290    0.76440    1.000
    C121     C        0.90287    0.71670    0.72260    1.000
    H104     H        0.88740    0.69910    0.68280    1.000
    C122     C        0.87711    0.74103    0.73240    1.000
    C123     C        0.90178    0.76490    0.79260    1.000
    H105     H        0.88560    0.78120    0.80130    1.000
    C124     C        0.95050    0.76470    0.84020    1.000
    H106     H        0.96650    0.78130    0.88090    1.000
    N3       N        0.72494    0.74394    0.57780    1.000
    N4       N        0.97598    0.74239    0.83160    1.000
    O13      O        0.63874    0.70796    0.42967    1.000
    O14      O        0.56052    0.71577    0.35016    1.000
    O15      O        0.63356    0.31080    0.02718    1.000
    O16      O        0.55561    0.31185    0.94592    1.000
    O17      O        0.64670    0.60540    0.20840    1.000
    O18      O        0.51700    0.45510    0.09930    1.000
    O19      O        0.64444    0.78908    0.55769    1.000
    O20      O        0.56575    0.78742    0.48310    1.000
    O21      O        0.64268    0.19190    0.95328    1.000
    O22      O        0.56403    0.18473    0.88081    1.000
    O23      O        0.55410    0.89110    0.70240    1.000
    O24      O        0.65710    0.05850    0.76870    1.000
    Zn3      Zn       0.65250    0.74717    0.50501    1.000
    Zn4      Zn       0.54813    0.75265    0.40171    1.000
    C125     C        0.09870    0.80136    0.87220    1.000
    C126     C        0.09674    0.83381    0.82630    1.000
    C127     C        0.05349    0.84396    0.76020    1.000
    H107     H        0.02580    0.82950    0.74420    1.000
    C128     C        0.05150    0.87487    0.71900    1.000
    H108     H        0.02260    0.87980    0.67440    1.000
    C129     C        0.09250    0.89960    0.74290    1.000
    C130     C        0.13590    0.88720    0.80830    1.000
    H109     H        0.16390    0.90040    0.82400    1.000
    C131     C        0.13770    0.85570    0.84990    1.000
    H110     H        0.16660    0.84930    0.89390    1.000
    C132     C        0.09100    0.93450    0.69930    1.000
    C133     C        0.05450    0.97070    0.66840    1.000
    H111     H        0.03330    0.96980    0.67360    1.000
    C134     C        0.05180    0.00800    0.62960    1.000
    C135     C        0.09020    0.00880    0.63090    1.000
    C136     C        0.10800    0.96840    0.63970    1.000
    H112     H        0.11890    0.96180    0.61890    1.000
    C137     C        0.11230    0.93080    0.68230    1.000
    C138     C        0.13250    0.11130    0.59090    1.000
    H113     H        0.16130    0.12600    0.61210    1.000
    C139     C        0.13210    0.07250    0.62350    1.000
    H114     H        0.16010    0.06310    0.66690    1.000
    C140     C        0.09110    0.04830    0.59210    1.000
    C141     C        0.04920    0.06520    0.52960    1.000
    H115     H        0.02030    0.05040    0.50820    1.000
    C142     C        0.05110    0.10510    0.49910    1.000
    H116     H        0.02320    0.11590    0.45670    1.000
    C143     C        0.09245    0.12838    0.52970    1.000
    C144     C        0.09321    0.17158    0.49640    1.000
    C145     C        0.18780    0.89750    0.71170    1.000
    H117     H        0.20770    0.92570    0.73690    1.000
    H118     H        0.17620    0.89770    0.66660    1.000
    C146     C        0.21330    0.85170    0.74880    1.000
    H119     H        0.19010    0.83190    0.74290    1.000
    H120     H        0.23680    0.86070    0.79660    1.000
    C147     C        0.23590    0.82110    0.74130    1.000
    H121     H        0.26820    0.83320    0.77370    1.000
    H122     H        0.23690    0.79130    0.76130    1.000
    C148     C        0.22980    0.80280    0.68210    1.000
    H123     H        0.19900    0.81330    0.63960    1.000
    H124     H        0.25370    0.81820    0.68560    1.000
    C149     C        0.23350    0.74720    0.67860    1.000
    H125     H        0.22920    0.73950    0.64030    1.000
    H126     H        0.26420    0.73630    0.71980    1.000
    H127     H        0.20930    0.73140    0.67360    1.000
    C150     C        0.97490    0.04060    0.58810    1.000
    H128     H        0.95910    0.00980    0.56660    1.000
    H129     H        0.98340    0.04260    0.63100    1.000
    C151     C        0.94370    0.08100    0.54350    1.000
    H130     H        0.91290    0.06520    0.51140    1.000
    H131     H        0.94290    0.09970    0.57290    1.000
    C152     C        0.93800    0.12330    0.49640    1.000
    H132     H        0.90690    0.12010    0.45050    1.000
    H133     H        0.96140    0.11760    0.49410    1.000
    C153     C        0.94320    0.17230    0.51850    1.000
    H134     H        0.91450    0.19030    0.48240    1.000
    H135     H        0.94720    0.17220    0.55790    1.000
    C154     C        0.10565    0.69915    0.03750    1.000
    C155     C        0.10595    0.66701    0.08210    1.000
    C156     C        0.14870    0.64800    0.14270    1.000
    H136     H        0.17740    0.65670    0.15680    1.000
    C157     C        0.14820    0.61680    0.18110    1.000
    H137     H        0.17720    0.60650    0.22260    1.000
    C158     C        0.10820    0.60010    0.16240    1.000
    C159     C        0.06690    0.61760    0.10370    1.000
    H138     H        0.03850    0.60730    0.08920    1.000
    C160     C        0.06600    0.65150    0.06340    1.000
    H139     H        0.03690    0.66300    0.02320    1.000
    C161     C        0.10770    0.56240    0.20110    1.000
    C162     C        0.13350    0.52140    0.21990    1.000
    H140     H        0.14990    0.51760    0.20680    1.000
    C163     C        0.13660    0.48420    0.25840    1.000
    C164     C        0.11100    0.49080    0.27770    1.000
    C165     C        0.08560    0.53180    0.25750    1.000
    H141     H        0.06840    0.53570    0.26930    1.000
    C166     C        0.08310    0.56740    0.22170    1.000
    C167     C        0.06496    0.39811    0.32350    1.000
    H142     H        0.03620    0.38890    0.30900    1.000
    C168     C        0.06630    0.43610    0.29150    1.000
    H143     H        0.03820    0.45170    0.25500    1.000
    C169     C        0.10800    0.45095    0.31260    1.000
    C170     C        0.14860    0.42740    0.36540    1.000
    H144     H        0.17720    0.43660    0.37970    1.000
    C171     C        0.14790    0.38927    0.39870    1.000
    H145     H        0.17620    0.37440    0.43610    1.000
    C172     C        0.10599    0.37400    0.37660    1.000
    C173     C        0.10429    0.32876    0.40660    1.000
    C174     C        0.06030    0.63110    0.26080    1.000
    H146     H        0.03020    0.64250    0.24380    1.000
    H147     H        0.07380    0.60760    0.29680    1.000
    C175     C        0.19100    0.43940    0.25950    1.000
    H148     H        0.17750    0.45710    0.21860    1.000
    H149     H        0.19500    0.40590    0.25340    1.000
    C176     C        0.23170    0.45740    0.31040    1.000
    H150     H        0.25050    0.46310    0.29970    1.000
    H151     H        0.22870    0.48740    0.32580    1.000
    C177     C        0.24830    0.74310    0.13400    1.000
    H152     H        0.23240    0.73080    0.14540    1.000
    C178     C        0.29840    0.74450    0.18620    1.000
    H153     H        0.31290    0.73440    0.22960    1.000
    C179     C        0.32388    0.75793    0.17810    1.000
    C180     C        0.29910    0.77230    0.11570    1.000
    H154     H        0.31450    0.78420    0.10320    1.000
    C181     C        0.25030    0.76980    0.06840    1.000
    H155     H        0.23450    0.77950    0.02430    1.000
    C182     C        0.45141    0.78130    0.27220    1.000
    H156     H        0.46830    0.79710    0.26440    1.000
    C183     C        0.40287    0.78330    0.22260    1.000
    H157     H        0.38740    0.80090    0.18280    1.000
    C184     C        0.37711    0.75897    0.23240    1.000
    C185     C        0.40178    0.73510    0.29260    1.000
    H158     H        0.38560    0.71880    0.30130    1.000
    C186     C        0.45050    0.73530    0.34020    1.000
    H159     H        0.46650    0.71870    0.38090    1.000
    N5       N        0.22494    0.75606    0.07780    1.000
    N6       N        0.47598    0.75761    0.33160    1.000
    O25      O        0.13874    0.79204    0.92967    1.000
    O26      O        0.06052    0.78423    0.85016    1.000
    O27      O        0.13356    0.18920    0.52718    1.000
    O28      O        0.05561    0.18815    0.44592    1.000
    O29      O        0.14670    0.89460    0.70840    1.000
    O30      O        0.01700    0.04490    0.59930    1.000
    O31      O        0.14444    0.71092    0.05769    1.000
    O32      O        0.06575    0.71258    0.98310    1.000
    O33      O        0.14268    0.30810    0.45328    1.000
    O34      O        0.06403    0.31527    0.38081    1.000
    O35      O        0.05410    0.60890    0.20240    1.000
    O36      O        0.15710    0.44150    0.26870    1.000
    Zn5      Zn       0.15250    0.75283    0.00501    1.000
    Zn6      Zn       0.04813    0.74735    0.90171    1.000
    C187     C        0.59870    0.30136    0.87220    1.000
    C188     C        0.59674    0.33381    0.82630    1.000
    C189     C        0.55349    0.34396    0.76020    1.000
    H160     H        0.52580    0.32950    0.74420    1.000
    C190     C        0.55150    0.37487    0.71900    1.000
    H161     H        0.52260    0.37980    0.67440    1.000
    C191     C        0.59250    0.39960    0.74290    1.000
    C192     C        0.63590    0.38720    0.80830    1.000
    H162     H        0.66390    0.40040    0.82400    1.000
    C193     C        0.63770    0.35570    0.84990    1.000
    H163     H        0.66660    0.34930    0.89390    1.000
    C194     C        0.59100    0.43450    0.69930    1.000
    C195     C        0.55450    0.47070    0.66840    1.000
    H164     H        0.53330    0.46980    0.67360    1.000
    C196     C        0.55180    0.50800    0.62960    1.000
    C197     C        0.59020    0.50880    0.63090    1.000
    C198     C        0.60800    0.46840    0.63970    1.000
    H165     H        0.61890    0.46180    0.61890    1.000
    C199     C        0.61230    0.43080    0.68230    1.000
    C200     C        0.63250    0.61130    0.59090    1.000
    H166     H        0.66130    0.62600    0.61210    1.000
    C201     C        0.63210    0.57250    0.62350    1.000
    H167     H        0.66010    0.56310    0.66690    1.000
    C202     C        0.59110    0.54830    0.59210    1.000
    C203     C        0.54920    0.56520    0.52960    1.000
    H168     H        0.52030    0.55040    0.50820    1.000
    C204     C        0.55110    0.60510    0.49910    1.000
    H169     H        0.52320    0.61590    0.45670    1.000
    C205     C        0.59245    0.62838    0.52970    1.000
    C206     C        0.59321    0.67158    0.49640    1.000
    C207     C        0.68780    0.39750    0.71170    1.000
    H170     H        0.70770    0.42570    0.73690    1.000
    H171     H        0.67620    0.39770    0.66660    1.000
    C208     C        0.71330    0.35170    0.74880    1.000
    H172     H        0.69010    0.33190    0.74290    1.000
    H173     H        0.73680    0.36070    0.79660    1.000
    C209     C        0.73590    0.32110    0.74130    1.000
    H174     H        0.76820    0.33320    0.77370    1.000
    H175     H        0.73690    0.29130    0.76130    1.000
    C210     C        0.72980    0.30280    0.68210    1.000
    H176     H        0.69900    0.31330    0.63960    1.000
    H177     H        0.75370    0.31820    0.68560    1.000
    C211     C        0.73350    0.24720    0.67860    1.000
    H178     H        0.72920    0.23950    0.64030    1.000
    H179     H        0.76420    0.23630    0.71980    1.000
    H180     H        0.70930    0.23140    0.67360    1.000
    C212     C        0.47490    0.54060    0.58810    1.000
    H181     H        0.45910    0.50980    0.56660    1.000
    H182     H        0.48340    0.54260    0.63100    1.000
    C213     C        0.44370    0.58100    0.54350    1.000
    H183     H        0.41290    0.56520    0.51140    1.000
    H184     H        0.44290    0.59970    0.57290    1.000
    C214     C        0.43800    0.62330    0.49640    1.000
    H185     H        0.40690    0.62010    0.45050    1.000
    H186     H        0.46140    0.61760    0.49410    1.000
    C215     C        0.44320    0.67230    0.51850    1.000
    H187     H        0.41450    0.69030    0.48240    1.000
    H188     H        0.44720    0.67220    0.55790    1.000
    C216     C        0.60565    0.19915    0.03750    1.000
    C217     C        0.60595    0.16701    0.08210    1.000
    C218     C        0.64870    0.14800    0.14270    1.000
    H189     H        0.67740    0.15670    0.15680    1.000
    C219     C        0.64820    0.11680    0.18110    1.000
    H190     H        0.67720    0.10650    0.22260    1.000
    C220     C        0.60820    0.10010    0.16240    1.000
    C221     C        0.56690    0.11760    0.10370    1.000
    H191     H        0.53850    0.10730    0.08920    1.000
    C222     C        0.56600    0.15150    0.06340    1.000
    H192     H        0.53690    0.16300    0.02320    1.000
    C223     C        0.60770    0.06240    0.20110    1.000
    C224     C        0.63350    0.02140    0.21990    1.000
    H193     H        0.64990    0.01760    0.20680    1.000
    C225     C        0.63660    0.98420    0.25840    1.000
    C226     C        0.61100    0.99080    0.27770    1.000
    C227     C        0.58560    0.03180    0.25750    1.000
    H194     H        0.56840    0.03570    0.26930    1.000
    C228     C        0.58310    0.06740    0.22170    1.000
    C229     C        0.56496    0.89811    0.32350    1.000
    H195     H        0.53620    0.88890    0.30900    1.000
    C230     C        0.56630    0.93610    0.29150    1.000
    H196     H        0.53820    0.95170    0.25500    1.000
    C231     C        0.60800    0.95095    0.31260    1.000
    C232     C        0.64860    0.92740    0.36540    1.000
    H197     H        0.67720    0.93660    0.37970    1.000
    C233     C        0.64790    0.88927    0.39870    1.000
    H198     H        0.67620    0.87440    0.43610    1.000
    C234     C        0.60599    0.87400    0.37660    1.000
    C235     C        0.60429    0.82876    0.40660    1.000
    C236     C        0.56030    0.13110    0.26080    1.000
    H199     H        0.53020    0.14250    0.24380    1.000
    H200     H        0.57380    0.10760    0.29680    1.000
    C237     C        0.69100    0.93940    0.25950    1.000
    H201     H        0.67750    0.95710    0.21860    1.000
    H202     H        0.69500    0.90590    0.25340    1.000
    C238     C        0.73170    0.95740    0.31040    1.000
    H203     H        0.75050    0.96310    0.29970    1.000
    H204     H        0.72870    0.98740    0.32580    1.000
    C239     C        0.74830    0.24310    0.13400    1.000
    H205     H        0.73240    0.23080    0.14540    1.000
    C240     C        0.79840    0.24450    0.18620    1.000
    H206     H        0.81290    0.23440    0.22960    1.000
    C241     C        0.82388    0.25793    0.17810    1.000
    C242     C        0.79910    0.27230    0.11570    1.000
    H207     H        0.81450    0.28420    0.10320    1.000
    C243     C        0.75030    0.26980    0.06840    1.000
    H208     H        0.73450    0.27950    0.02430    1.000
    C244     C        0.95141    0.28130    0.27220    1.000
    H209     H        0.96830    0.29710    0.26440    1.000
    C245     C        0.90287    0.28330    0.22260    1.000
    H210     H        0.88740    0.30090    0.18280    1.000
    C246     C        0.87711    0.25897    0.23240    1.000
    C247     C        0.90178    0.23510    0.29260    1.000
    H211     H        0.88560    0.21880    0.30130    1.000
    C248     C        0.95050    0.23530    0.34020    1.000
    H212     H        0.96650    0.21870    0.38090    1.000
    N7       N        0.72494    0.25606    0.07780    1.000
    N8       N        0.97598    0.25761    0.33160    1.000
    O37      O        0.63874    0.29204    0.92967    1.000
    O38      O        0.56052    0.28423    0.85016    1.000
    O39      O        0.63356    0.68920    0.52718    1.000
    O40      O        0.55561    0.68815    0.44592    1.000
    O41      O        0.64670    0.39460    0.70840    1.000
    O42      O        0.51700    0.54490    0.59930    1.000
    O43      O        0.64444    0.21092    0.05769    1.000
    O44      O        0.56575    0.21258    0.98310    1.000
    O45      O        0.64268    0.80810    0.45328    1.000
    O46      O        0.56403    0.81527    0.38081    1.000
    O47      O        0.55410    0.10890    0.20240    1.000
    O48      O        0.65710    0.94150    0.26870    1.000
    Zn7      Zn       0.65250    0.25283    0.00501    1.000
    Zn8      Zn       0.54813    0.24735    0.90171    1.000
    C249     C        0.90130    0.19864    0.12780    1.000
    C250     C        0.90326    0.16619    0.17370    1.000
    C251     C        0.94651    0.15604    0.23980    1.000
    H213     H        0.97420    0.17050    0.25580    1.000
    C252     C        0.94850    0.12513    0.28100    1.000
    H214     H        0.97740    0.12020    0.32560    1.000
    C253     C        0.90750    0.10040    0.25710    1.000
    C254     C        0.86410    0.11280    0.19170    1.000
    H215     H        0.83610    0.09960    0.17600    1.000
    C255     C        0.86230    0.14430    0.15010    1.000
    H216     H        0.83340    0.15070    0.10610    1.000
    C256     C        0.90900    0.06550    0.30070    1.000
    C257     C        0.94550    0.02930    0.33160    1.000
    H217     H        0.96670    0.03020    0.32640    1.000
    C258     C        0.94820    0.99200    0.37040    1.000
    C259     C        0.90980    0.99120    0.36910    1.000
    C260     C        0.89200    0.03160    0.36030    1.000
    H218     H        0.88110    0.03820    0.38110    1.000
    C261     C        0.88770    0.06920    0.31770    1.000
    C262     C        0.86750    0.88870    0.40910    1.000
    H219     H        0.83870    0.87400    0.38790    1.000
    C263     C        0.86790    0.92750    0.37650    1.000
    H220     H        0.83990    0.93690    0.33310    1.000
    C264     C        0.90890    0.95170    0.40790    1.000
    C265     C        0.95080    0.93480    0.47040    1.000
    H221     H        0.97970    0.94960    0.49180    1.000
    C266     C        0.94890    0.89490    0.50090    1.000
    H222     H        0.97680    0.88410    0.54330    1.000
    C267     C        0.90755    0.87162    0.47030    1.000
    C268     C        0.90679    0.82842    0.50360    1.000
    C269     C        0.81220    0.10250    0.28830    1.000
    H223     H        0.79230    0.07430    0.26310    1.000
    H224     H        0.82380    0.10230    0.33340    1.000
    C270     C        0.78670    0.14830    0.25120    1.000
    H225     H        0.80990    0.16810    0.25710    1.000
    H226     H        0.76320    0.13930    0.20340    1.000
    C271     C        0.76410    0.17890    0.25870    1.000
    H227     H        0.73180    0.16680    0.22630    1.000
    H228     H        0.76310    0.20870    0.23870    1.000
    C272     C        0.77020    0.19720    0.31790    1.000
    H229     H        0.80100    0.18670    0.36040    1.000
    H230     H        0.74630    0.18180    0.31440    1.000
    C273     C        0.76650    0.25280    0.32140    1.000
    H231     H        0.77080    0.26050    0.35970    1.000
    H232     H        0.73580    0.26370    0.28020    1.000
    H233     H        0.79070    0.26860    0.32640    1.000
    C274     C        0.02510    0.95940    0.41190    1.000
    H234     H        0.04090    0.99020    0.43340    1.000
    H235     H        0.01660    0.95740    0.36900    1.000
    C275     C        0.05630    0.91900    0.45650    1.000
    H236     H        0.08710    0.93480    0.48860    1.000
    H237     H        0.05710    0.90030    0.42710    1.000
    C276     C        0.06200    0.87670    0.50360    1.000
    H238     H        0.09310    0.87990    0.54950    1.000
    H239     H        0.03860    0.88240    0.50590    1.000
    C277     C        0.05680    0.82770    0.48150    1.000
    H240     H        0.08550    0.80970    0.51760    1.000
    H241     H        0.05280    0.82780    0.44210    1.000
    C278     C        0.89435    0.30085    0.96250    1.000
    C279     C        0.89405    0.33299    0.91790    1.000
    C280     C        0.85130    0.35200    0.85730    1.000
    H242     H        0.82260    0.34330    0.84320    1.000
    C281     C        0.85180    0.38320    0.81890    1.000
    H243     H        0.82280    0.39350    0.77740    1.000
    C282     C        0.89180    0.39990    0.83760    1.000
    C283     C        0.93310    0.38240    0.89630    1.000
    H244     H        0.96150    0.39270    0.91080    1.000
    C284     C        0.93400    0.34850    0.93660    1.000
    H245     H        0.96310    0.33700    0.97680    1.000
    C285     C        0.89230    0.43760    0.79890    1.000
    C286     C        0.86650    0.47860    0.78010    1.000
    H246     H        0.85010    0.48240    0.79320    1.000
    C287     C        0.86340    0.51580    0.74160    1.000
    C288     C        0.88900    0.50920    0.72230    1.000
    C289     C        0.91440    0.46820    0.74250    1.000
    H247     H        0.93160    0.46430    0.73070    1.000
    C290     C        0.91690    0.43260    0.77830    1.000
    C291     C        0.93504    0.60189    0.67650    1.000
    H248     H        0.96380    0.61110    0.69100    1.000
    C292     C        0.93370    0.56390    0.70850    1.000
    H249     H        0.96180    0.54830    0.74500    1.000
    C293     C        0.89200    0.54905    0.68740    1.000
    C294     C        0.85140    0.57260    0.63460    1.000
    H250     H        0.82280    0.56340    0.62030    1.000
    C295     C        0.85210    0.61073    0.60130    1.000
    H251     H        0.82380    0.62560    0.56390    1.000
    C296     C        0.89401    0.62600    0.62340    1.000
    C297     C        0.89571    0.67124    0.59340    1.000
    C298     C        0.93970    0.36890    0.73920    1.000
    H252     H        0.96980    0.35750    0.75620    1.000
    H253     H        0.92620    0.39240    0.70320    1.000
    C299     C        0.80900    0.56060    0.74050    1.000
    H254     H        0.82250    0.54290    0.78140    1.000
    H255     H        0.80500    0.59410    0.74660    1.000
    C300     C        0.76830    0.54260    0.68960    1.000
    H256     H        0.74950    0.53690    0.70030    1.000
    H257     H        0.77130    0.51260    0.67420    1.000
    C301     C        0.75170    0.25690    0.86600    1.000
    H258     H        0.76760    0.26920    0.85460    1.000
    C302     C        0.70160    0.25550    0.81380    1.000
    H259     H        0.68710    0.26560    0.77040    1.000
    C303     C        0.67612    0.24207    0.82190    1.000
    C304     C        0.70090    0.22770    0.88430    1.000
    H260     H        0.68550    0.21580    0.89680    1.000
    C305     C        0.74970    0.23020    0.93160    1.000
    H261     H        0.76550    0.22050    0.97570    1.000
    C306     C        0.54859    0.21870    0.72780    1.000
    H262     H        0.53170    0.20290    0.73560    1.000
    C307     C        0.59713    0.21670    0.77740    1.000
    H263     H        0.61260    0.19910    0.81720    1.000
    C308     C        0.62289    0.24103    0.76760    1.000
    C309     C        0.59822    0.26490    0.70740    1.000
    H264     H        0.61440    0.28120    0.69870    1.000
    C310     C        0.54950    0.26470    0.65980    1.000
    H265     H        0.53350    0.28130    0.61910    1.000
    N9       N        0.77506    0.24394    0.92220    1.000
    N10      N        0.52402    0.24239    0.66840    1.000
    O49      O        0.86126    0.20796    0.07033    1.000
    O50      O        0.93948    0.21577    0.14984    1.000
    O51      O        0.86644    0.81080    0.47282    1.000
    O52      O        0.94439    0.81185    0.55408    1.000
    O53      O        0.85330    0.10540    0.29160    1.000
    O54      O        0.98300    0.95510    0.40070    1.000
    O55      O        0.85556    0.28908    0.94231    1.000
    O56      O        0.93425    0.28742    0.01690    1.000
    O57      O        0.85732    0.69190    0.54672    1.000
    O58      O        0.93597    0.68473    0.61919    1.000
    O59      O        0.94590    0.39110    0.79760    1.000
    O60      O        0.84290    0.55850    0.73130    1.000
    Zn9      Zn       0.84750    0.24717    0.99499    1.000
    Zn10     Zn       0.95187    0.25265    0.09829    1.000
    C311     C        0.40130    0.69864    0.12780    1.000
    C312     C        0.40326    0.66619    0.17370    1.000
    C313     C        0.44651    0.65604    0.23980    1.000
    H266     H        0.47420    0.67050    0.25580    1.000
    C314     C        0.44850    0.62513    0.28100    1.000
    H267     H        0.47740    0.62020    0.32560    1.000
    C315     C        0.40750    0.60040    0.25710    1.000
    C316     C        0.36410    0.61280    0.19170    1.000
    H268     H        0.33610    0.59960    0.17600    1.000
    C317     C        0.36230    0.64430    0.15010    1.000
    H269     H        0.33340    0.65070    0.10610    1.000
    C318     C        0.40900    0.56550    0.30070    1.000
    C319     C        0.44550    0.52930    0.33160    1.000
    H270     H        0.46670    0.53020    0.32640    1.000
    C320     C        0.44820    0.49200    0.37040    1.000
    C321     C        0.40980    0.49120    0.36910    1.000
    C322     C        0.39200    0.53160    0.36030    1.000
    H271     H        0.38110    0.53820    0.38110    1.000
    C323     C        0.38770    0.56920    0.31770    1.000
    C324     C        0.36750    0.38870    0.40910    1.000
    H272     H        0.33870    0.37400    0.38790    1.000
    C325     C        0.36790    0.42750    0.37650    1.000
    H273     H        0.33990    0.43690    0.33310    1.000
    C326     C        0.40890    0.45170    0.40790    1.000
    C327     C        0.45080    0.43480    0.47040    1.000
    H274     H        0.47970    0.44960    0.49180    1.000
    C328     C        0.44890    0.39490    0.50090    1.000
    H275     H        0.47680    0.38410    0.54330    1.000
    C329     C        0.40755    0.37162    0.47030    1.000
    C330     C        0.40679    0.32842    0.50360    1.000
    C331     C        0.31220    0.60250    0.28830    1.000
    H276     H        0.29230    0.57430    0.26310    1.000
    H277     H        0.32380    0.60230    0.33340    1.000
    C332     C        0.28670    0.64830    0.25120    1.000
    H278     H        0.30990    0.66810    0.25710    1.000
    H279     H        0.26320    0.63930    0.20340    1.000
    C333     C        0.26410    0.67890    0.25870    1.000
    H280     H        0.23180    0.66680    0.22630    1.000
    H281     H        0.26310    0.70870    0.23870    1.000
    C334     C        0.27020    0.69720    0.31790    1.000
    H282     H        0.30100    0.68670    0.36040    1.000
    H283     H        0.24630    0.68180    0.31440    1.000
    C335     C        0.26650    0.75280    0.32140    1.000
    H284     H        0.27080    0.76050    0.35970    1.000
    H285     H        0.23580    0.76370    0.28020    1.000
    H286     H        0.29070    0.76860    0.32640    1.000
    C336     C        0.52510    0.45940    0.41190    1.000
    H287     H        0.54090    0.49020    0.43340    1.000
    H288     H        0.51660    0.45740    0.36900    1.000
    C337     C        0.55630    0.41900    0.45650    1.000
    H289     H        0.58710    0.43480    0.48860    1.000
    H290     H        0.55710    0.40030    0.42710    1.000
    C338     C        0.56200    0.37670    0.50360    1.000
    H291     H        0.59310    0.37990    0.54950    1.000
    H292     H        0.53860    0.38240    0.50590    1.000
    C339     C        0.55680    0.32770    0.48150    1.000
    H293     H        0.58550    0.30970    0.51760    1.000
    H294     H        0.55280    0.32780    0.44210    1.000
    C340     C        0.39435    0.80085    0.96250    1.000
    C341     C        0.39405    0.83299    0.91790    1.000
    C342     C        0.35130    0.85200    0.85730    1.000
    H295     H        0.32260    0.84330    0.84320    1.000
    C343     C        0.35180    0.88320    0.81890    1.000
    H296     H        0.32280    0.89350    0.77740    1.000
    C344     C        0.39180    0.89990    0.83760    1.000
    C345     C        0.43310    0.88240    0.89630    1.000
    H297     H        0.46150    0.89270    0.91080    1.000
    C346     C        0.43400    0.84850    0.93660    1.000
    H298     H        0.46310    0.83700    0.97680    1.000
    C347     C        0.39230    0.93760    0.79890    1.000
    C348     C        0.36650    0.97860    0.78010    1.000
    H299     H        0.35010    0.98240    0.79320    1.000
    C349     C        0.36340    0.01580    0.74160    1.000
    C350     C        0.38900    0.00920    0.72230    1.000
    C351     C        0.41440    0.96820    0.74250    1.000
    H300     H        0.43160    0.96430    0.73070    1.000
    C352     C        0.41690    0.93260    0.77830    1.000
    C353     C        0.43504    0.10189    0.67650    1.000
    H301     H        0.46380    0.11110    0.69100    1.000
    C354     C        0.43370    0.06390    0.70850    1.000
    H302     H        0.46180    0.04830    0.74500    1.000
    C355     C        0.39200    0.04905    0.68740    1.000
    C356     C        0.35140    0.07260    0.63460    1.000
    H303     H        0.32280    0.06340    0.62030    1.000
    C357     C        0.35210    0.11073    0.60130    1.000
    H304     H        0.32380    0.12560    0.56390    1.000
    C358     C        0.39401    0.12600    0.62340    1.000
    C359     C        0.39571    0.17124    0.59340    1.000
    C360     C        0.43970    0.86890    0.73920    1.000
    H305     H        0.46980    0.85750    0.75620    1.000
    H306     H        0.42620    0.89240    0.70320    1.000
    C361     C        0.30900    0.06060    0.74050    1.000
    H307     H        0.32250    0.04290    0.78140    1.000
    H308     H        0.30500    0.09410    0.74660    1.000
    C362     C        0.26830    0.04260    0.68960    1.000
    H309     H        0.24950    0.03690    0.70030    1.000
    H310     H        0.27130    0.01260    0.67420    1.000
    C363     C        0.25170    0.75690    0.86600    1.000
    H311     H        0.26760    0.76920    0.85460    1.000
    C364     C        0.20160    0.75550    0.81380    1.000
    H312     H        0.18710    0.76560    0.77040    1.000
    C365     C        0.17612    0.74207    0.82190    1.000
    C366     C        0.20090    0.72770    0.88430    1.000
    H313     H        0.18550    0.71580    0.89680    1.000
    C367     C        0.24970    0.73020    0.93160    1.000
    H314     H        0.26550    0.72050    0.97570    1.000
    C368     C        0.04859    0.71870    0.72780    1.000
    H315     H        0.03170    0.70290    0.73560    1.000
    C369     C        0.09713    0.71670    0.77740    1.000
    H316     H        0.11260    0.69910    0.81720    1.000
    C370     C        0.12289    0.74103    0.76760    1.000
    C371     C        0.09822    0.76490    0.70740    1.000
    H317     H        0.11440    0.78120    0.69870    1.000
    C372     C        0.04950    0.76470    0.65980    1.000
    H318     H        0.03350    0.78130    0.61910    1.000
    N11      N        0.27506    0.74394    0.92220    1.000
    N12      N        0.02402    0.74239    0.66840    1.000
    O61      O        0.36126    0.70796    0.07033    1.000
    O62      O        0.43948    0.71577    0.14984    1.000
    O63      O        0.36644    0.31080    0.47282    1.000
    O64      O        0.44439    0.31185    0.55408    1.000
    O65      O        0.35330    0.60540    0.29160    1.000
    O66      O        0.48300    0.45510    0.40070    1.000
    O67      O        0.35556    0.78908    0.94231    1.000
    O68      O        0.43425    0.78742    0.01690    1.000
    O69      O        0.35732    0.19190    0.54672    1.000
    O70      O        0.43597    0.18473    0.61919    1.000
    O71      O        0.44590    0.89110    0.79760    1.000
    O72      O        0.34290    0.05850    0.73130    1.000
    Zn11     Zn       0.34750    0.74717    0.99499    1.000
    Zn12     Zn       0.45187    0.75265    0.09829    1.000
    C373     C        0.90130    0.80136    0.62780    1.000
    C374     C        0.90326    0.83381    0.67370    1.000
    C375     C        0.94651    0.84396    0.73980    1.000
    H319     H        0.97420    0.82950    0.75580    1.000
    C376     C        0.94850    0.87487    0.78100    1.000
    H320     H        0.97740    0.87980    0.82560    1.000
    C377     C        0.90750    0.89960    0.75710    1.000
    C378     C        0.86410    0.88720    0.69170    1.000
    H321     H        0.83610    0.90040    0.67600    1.000
    C379     C        0.86230    0.85570    0.65010    1.000
    H322     H        0.83340    0.84930    0.60610    1.000
    C380     C        0.90900    0.93450    0.80070    1.000
    C381     C        0.94550    0.97070    0.83160    1.000
    H323     H        0.96670    0.96980    0.82640    1.000
    C382     C        0.94820    0.00800    0.87040    1.000
    C383     C        0.90980    0.00880    0.86910    1.000
    C384     C        0.89200    0.96840    0.86030    1.000
    H324     H        0.88110    0.96180    0.88110    1.000
    C385     C        0.88770    0.93080    0.81770    1.000
    C386     C        0.86750    0.11130    0.90910    1.000
    H325     H        0.83870    0.12600    0.88790    1.000
    C387     C        0.86790    0.07250    0.87650    1.000
    H326     H        0.83990    0.06310    0.83310    1.000
    C388     C        0.90890    0.04830    0.90790    1.000
    C389     C        0.95080    0.06520    0.97040    1.000
    H327     H        0.97970    0.05040    0.99180    1.000
    C390     C        0.94890    0.10510    0.00090    1.000
    H328     H        0.97680    0.11590    0.04330    1.000
    C391     C        0.90755    0.12838    0.97030    1.000
    C392     C        0.90679    0.17158    0.00360    1.000
    C393     C        0.81220    0.89750    0.78830    1.000
    H329     H        0.79230    0.92570    0.76310    1.000
    H330     H        0.82380    0.89770    0.83340    1.000
    C394     C        0.78670    0.85170    0.75120    1.000
    H331     H        0.80990    0.83190    0.75710    1.000
    H332     H        0.76320    0.86070    0.70340    1.000
    C395     C        0.76410    0.82110    0.75870    1.000
    H333     H        0.73180    0.83320    0.72630    1.000
    H334     H        0.76310    0.79130    0.73870    1.000
    C396     C        0.77020    0.80280    0.81790    1.000
    H335     H        0.80100    0.81330    0.86040    1.000
    H336     H        0.74630    0.81820    0.81440    1.000
    C397     C        0.76650    0.74720    0.82140    1.000
    H337     H        0.77080    0.73950    0.85970    1.000
    H338     H        0.73580    0.73630    0.78020    1.000
    H339     H        0.79070    0.73140    0.82640    1.000
    C398     C        0.02510    0.04060    0.91190    1.000
    H340     H        0.04090    0.00980    0.93340    1.000
    H341     H        0.01660    0.04260    0.86900    1.000
    C399     C        0.05630    0.08100    0.95650    1.000
    H342     H        0.08710    0.06520    0.98860    1.000
    H343     H        0.05710    0.09970    0.92710    1.000
    C400     C        0.06200    0.12330    0.00360    1.000
    H344     H        0.09310    0.12010    0.04950    1.000
    H345     H        0.03860    0.11760    0.00590    1.000
    C401     C        0.05680    0.17230    0.98150    1.000
    H346     H        0.08550    0.19030    0.01760    1.000
    H347     H        0.05280    0.17220    0.94210    1.000
    C402     C        0.89435    0.69915    0.46250    1.000
    C403     C        0.89405    0.66701    0.41790    1.000
    C404     C        0.85130    0.64800    0.35730    1.000
    H348     H        0.82260    0.65670    0.34320    1.000
    C405     C        0.85180    0.61680    0.31890    1.000
    H349     H        0.82280    0.60650    0.27740    1.000
    C406     C        0.89180    0.60010    0.33760    1.000
    C407     C        0.93310    0.61760    0.39630    1.000
    H350     H        0.96150    0.60730    0.41080    1.000
    C408     C        0.93400    0.65150    0.43660    1.000
    H351     H        0.96310    0.66300    0.47680    1.000
    C409     C        0.89230    0.56240    0.29890    1.000
    C410     C        0.86650    0.52140    0.28010    1.000
    H352     H        0.85010    0.51760    0.29320    1.000
    C411     C        0.86340    0.48420    0.24160    1.000
    C412     C        0.88900    0.49080    0.22230    1.000
    C413     C        0.91440    0.53180    0.24250    1.000
    H353     H        0.93160    0.53570    0.23070    1.000
    C414     C        0.91690    0.56740    0.27830    1.000
    C415     C        0.93504    0.39811    0.17650    1.000
    H354     H        0.96380    0.38890    0.19100    1.000
    C416     C        0.93370    0.43610    0.20850    1.000
    H355     H        0.96180    0.45170    0.24500    1.000
    C417     C        0.89200    0.45095    0.18740    1.000
    C418     C        0.85140    0.42740    0.13460    1.000
    H356     H        0.82280    0.43660    0.12030    1.000
    C419     C        0.85210    0.38927    0.10130    1.000
    H357     H        0.82380    0.37440    0.06390    1.000
    C420     C        0.89401    0.37400    0.12340    1.000
    C421     C        0.89571    0.32876    0.09340    1.000
    C422     C        0.93970    0.63110    0.23920    1.000
    H358     H        0.96980    0.64250    0.25620    1.000
    H359     H        0.92620    0.60760    0.20320    1.000
    C423     C        0.80900    0.43940    0.24050    1.000
    H360     H        0.82250    0.45710    0.28140    1.000
    H361     H        0.80500    0.40590    0.24660    1.000
    C424     C        0.76830    0.45740    0.18960    1.000
    H362     H        0.74950    0.46310    0.20030    1.000
    H363     H        0.77130    0.48740    0.17420    1.000
    C425     C        0.75170    0.74310    0.36600    1.000
    H364     H        0.76760    0.73080    0.35460    1.000
    C426     C        0.70160    0.74450    0.31380    1.000
    H365     H        0.68710    0.73440    0.27040    1.000
    C427     C        0.67612    0.75793    0.32190    1.000
    C428     C        0.70090    0.77230    0.38430    1.000
    H366     H        0.68550    0.78420    0.39680    1.000
    C429     C        0.74970    0.76980    0.43160    1.000
    H367     H        0.76550    0.77950    0.47570    1.000
    C430     C        0.54859    0.78130    0.22780    1.000
    H368     H        0.53170    0.79710    0.23560    1.000
    C431     C        0.59713    0.78330    0.27740    1.000
    H369     H        0.61260    0.80090    0.31720    1.000
    C432     C        0.62289    0.75897    0.26760    1.000
    C433     C        0.59822    0.73510    0.20740    1.000
    H370     H        0.61440    0.71880    0.19870    1.000
    C434     C        0.54950    0.73530    0.15980    1.000
    H371     H        0.53350    0.71870    0.11910    1.000
    N13      N        0.77506    0.75606    0.42220    1.000
    N14      N        0.52402    0.75761    0.16840    1.000
    O73      O        0.86126    0.79204    0.57033    1.000
    O74      O        0.93948    0.78423    0.64984    1.000
    O75      O        0.86644    0.18920    0.97282    1.000
    O76      O        0.94439    0.18815    0.05408    1.000
    O77      O        0.85330    0.89460    0.79160    1.000
    O78      O        0.98300    0.04490    0.90070    1.000
    O79      O        0.85556    0.71092    0.44231    1.000
    O80      O        0.93425    0.71258    0.51690    1.000
    O81      O        0.85732    0.30810    0.04672    1.000
    O82      O        0.93597    0.31527    0.11919    1.000
    O83      O        0.94590    0.60890    0.29760    1.000
    O84      O        0.84290    0.44150    0.23130    1.000
    Zn13     Zn       0.84750    0.75283    0.49499    1.000
    Zn14     Zn       0.95187    0.74735    0.59829    1.000
    C435     C        0.40130    0.30136    0.62780    1.000
    C436     C        0.40326    0.33381    0.67370    1.000
    C437     C        0.44651    0.34396    0.73980    1.000
    H372     H        0.47420    0.32950    0.75580    1.000
    C438     C        0.44850    0.37487    0.78100    1.000
    H373     H        0.47740    0.37980    0.82560    1.000
    C439     C        0.40750    0.39960    0.75710    1.000
    C440     C        0.36410    0.38720    0.69170    1.000
    H374     H        0.33610    0.40040    0.67600    1.000
    C441     C        0.36230    0.35570    0.65010    1.000
    H375     H        0.33340    0.34930    0.60610    1.000
    C442     C        0.40900    0.43450    0.80070    1.000
    C443     C        0.44550    0.47070    0.83160    1.000
    H376     H        0.46670    0.46980    0.82640    1.000
    C444     C        0.44820    0.50800    0.87040    1.000
    C445     C        0.40980    0.50880    0.86910    1.000
    C446     C        0.39200    0.46840    0.86030    1.000
    H377     H        0.38110    0.46180    0.88110    1.000
    C447     C        0.38770    0.43080    0.81770    1.000
    C448     C        0.36750    0.61130    0.90910    1.000
    H378     H        0.33870    0.62600    0.88790    1.000
    C449     C        0.36790    0.57250    0.87650    1.000
    H379     H        0.33990    0.56310    0.83310    1.000
    C450     C        0.40890    0.54830    0.90790    1.000
    C451     C        0.45080    0.56520    0.97040    1.000
    H380     H        0.47970    0.55040    0.99180    1.000
    C452     C        0.44890    0.60510    0.00090    1.000
    H381     H        0.47680    0.61590    0.04330    1.000
    C453     C        0.40755    0.62838    0.97030    1.000
    C454     C        0.40679    0.67158    0.00360    1.000
    C455     C        0.31220    0.39750    0.78830    1.000
    H382     H        0.29230    0.42570    0.76310    1.000
    H383     H        0.32380    0.39770    0.83340    1.000
    C456     C        0.28670    0.35170    0.75120    1.000
    H384     H        0.30990    0.33190    0.75710    1.000
    H385     H        0.26320    0.36070    0.70340    1.000
    C457     C        0.26410    0.32110    0.75870    1.000
    H386     H        0.23180    0.33320    0.72630    1.000
    H387     H        0.26310    0.29130    0.73870    1.000
    C458     C        0.27020    0.30280    0.81790    1.000
    H388     H        0.30100    0.31330    0.86040    1.000
    H389     H        0.24630    0.31820    0.81440    1.000
    C459     C        0.26650    0.24720    0.82140    1.000
    H390     H        0.27080    0.23950    0.85970    1.000
    H391     H        0.23580    0.23630    0.78020    1.000
    H392     H        0.29070    0.23140    0.82640    1.000
    C460     C        0.52510    0.54060    0.91190    1.000
    H393     H        0.54090    0.50980    0.93340    1.000
    H394     H        0.51660    0.54260    0.86900    1.000
    C461     C        0.55630    0.58100    0.95650    1.000
    H395     H        0.58710    0.56520    0.98860    1.000
    H396     H        0.55710    0.59970    0.92710    1.000
    C462     C        0.56200    0.62330    0.00360    1.000
    H397     H        0.59310    0.62010    0.04950    1.000
    H398     H        0.53860    0.61760    0.00590    1.000
    C463     C        0.55680    0.67230    0.98150    1.000
    H399     H        0.58550    0.69030    0.01760    1.000
    H400     H        0.55280    0.67220    0.94210    1.000
    C464     C        0.39435    0.19915    0.46250    1.000
    C465     C        0.39405    0.16701    0.41790    1.000
    C466     C        0.35130    0.14800    0.35730    1.000
    H401     H        0.32260    0.15670    0.34320    1.000
    C467     C        0.35180    0.11680    0.31890    1.000
    H402     H        0.32280    0.10650    0.27740    1.000
    C468     C        0.39180    0.10010    0.33760    1.000
    C469     C        0.43310    0.11760    0.39630    1.000
    H403     H        0.46150    0.10730    0.41080    1.000
    C470     C        0.43400    0.15150    0.43660    1.000
    H404     H        0.46310    0.16300    0.47680    1.000
    C471     C        0.39230    0.06240    0.29890    1.000
    C472     C        0.36650    0.02140    0.28010    1.000
    H405     H        0.35010    0.01760    0.29320    1.000
    C473     C        0.36340    0.98420    0.24160    1.000
    C474     C        0.38900    0.99080    0.22230    1.000
    C475     C        0.41440    0.03180    0.24250    1.000
    H406     H        0.43160    0.03570    0.23070    1.000
    C476     C        0.41690    0.06740    0.27830    1.000
    C477     C        0.43504    0.89811    0.17650    1.000
    H407     H        0.46380    0.88890    0.19100    1.000
    C478     C        0.43370    0.93610    0.20850    1.000
    H408     H        0.46180    0.95170    0.24500    1.000
    C479     C        0.39200    0.95095    0.18740    1.000
    C480     C        0.35140    0.92740    0.13460    1.000
    H409     H        0.32280    0.93660    0.12030    1.000
    C481     C        0.35210    0.88927    0.10130    1.000
    H410     H        0.32380    0.87440    0.06390    1.000
    C482     C        0.39401    0.87400    0.12340    1.000
    C483     C        0.39571    0.82876    0.09340    1.000
    C484     C        0.43970    0.13110    0.23920    1.000
    H411     H        0.46980    0.14250    0.25620    1.000
    H412     H        0.42620    0.10760    0.20320    1.000
    C485     C        0.30900    0.93940    0.24050    1.000
    H413     H        0.32250    0.95710    0.28140    1.000
    H414     H        0.30500    0.90590    0.24660    1.000
    C486     C        0.26830    0.95740    0.18960    1.000
    H415     H        0.24950    0.96310    0.20030    1.000
    H416     H        0.27130    0.98740    0.17420    1.000
    C487     C        0.25170    0.24310    0.36600    1.000
    H417     H        0.26760    0.23080    0.35460    1.000
    C488     C        0.20160    0.24450    0.31380    1.000
    H418     H        0.18710    0.23440    0.27040    1.000
    C489     C        0.17612    0.25793    0.32190    1.000
    C490     C        0.20090    0.27230    0.38430    1.000
    H419     H        0.18550    0.28420    0.39680    1.000
    C491     C        0.24970    0.26980    0.43160    1.000
    H420     H        0.26550    0.27950    0.47570    1.000
    C492     C        0.04859    0.28130    0.22780    1.000
    H421     H        0.03170    0.29710    0.23560    1.000
    C493     C        0.09713    0.28330    0.27740    1.000
    H422     H        0.11260    0.30090    0.31720    1.000
    C494     C        0.12289    0.25897    0.26760    1.000
    C495     C        0.09822    0.23510    0.20740    1.000
    H423     H        0.11440    0.21880    0.19870    1.000
    C496     C        0.04950    0.23530    0.15980    1.000
    H424     H        0.03350    0.21870    0.11910    1.000
    N15      N        0.27506    0.25606    0.42220    1.000
    N16      N        0.02402    0.25761    0.16840    1.000
    O85      O        0.36126    0.29204    0.57033    1.000
    O86      O        0.43948    0.28423    0.64984    1.000
    O87      O        0.36644    0.68920    0.97282    1.000
    O88      O        0.44439    0.68815    0.05408    1.000
    O89      O        0.35330    0.39460    0.79160    1.000
    O90      O        0.48300    0.54490    0.90070    1.000
    O91      O        0.35556    0.21092    0.44231    1.000
    O92      O        0.43425    0.21258    0.51690    1.000
    O93      O        0.35732    0.80810    0.04672    1.000
    O94      O        0.43597    0.81527    0.11919    1.000
    O95      O        0.44590    0.10890    0.29760    1.000
    O96      O        0.34290    0.94150    0.23130    1.000
    Zn15     Zn       0.34750    0.25283    0.49499    1.000
    Zn16     Zn       0.45187    0.24735    0.59829    1.000
