data_functionalizedCrystal
_audit_creation_method	'EQeq! by Chris Wilmer'
_symmetry_space_group_name_H-M	'P1'
_symmetry_Int_Tables_number	1
_symmetry_cell_setting	triclinic
loop_
_symmetry_equiv_pos_as_xyz
  x,y,z
_cell_length_a	9.5369
_cell_length_b	9.1544
_cell_length_c	13.3131
_cell_angle_alpha	90
_cell_angle_beta	90.483
_cell_angle_gamma	90
loop_
_atom_site_label
_atom_site_type_symbol
_atom_site_fract_x
_atom_site_fract_y
_atom_site_fract_z
_atom_site_charge
Mof_O 	O 	0.81971	0.88968	0.45533	-0.283
Mof_C 	C 	0.75445	0.77233	0.47194	0.705
Mof_H 	H 	0.8032	0.6994	0.5061	-0.235
Mof_O 	O 	0.63367	0.7452	0.44754	-0.847
Mof_O 	O 	0.90328	0.19642	0.45844	-0.414
Mof_C 	C 	0.77879	0.24219	0.47021	0.759
Mof_H 	H 	0.7159	0.1782	0.5	-0.344
Mof_O 	O 	0.73391	0.36179	0.4462	-0.903
Mof_O 	O 	0.58236	0.52059	0.85536	-0.497
Mof_C 	C 	0.53467	0.51223	0.76651	0.818
Mof_H 	H 	0.4414	0.4842	0.7595	-0.344
Mof_O 	O 	0.59753	0.5368	0.68947	-0.878
Mof_O 	O 	0.68029	0.38968	0.04467	-0.471
Mof_C 	C 	0.74555	0.27233	0.02806	0.22
Mof_H 	H 	0.6968	0.1994	0.9939	0.038
Mof_O 	O 	0.86633	0.2452	0.05246	-0.386
Mof_O 	O 	0.59672	0.69642	0.04156	-0.525
Mof_C 	C 	0.72121	0.74219	0.02979	0.568
Mof_H 	H 	0.7841	0.6782	-0	-0.158
Mof_O 	O 	0.76609	0.86179	0.0538	-0.387
Mof_O 	O 	0.91764	0.02059	0.64464	-0.405
Mof_C 	C 	0.96533	0.01223	0.73349	0.535
Mof_H 	H 	0.0586	0.9842	0.7405	-0.109
Mof_O 	O 	0.90247	0.0368	0.81053	-0.432
Mof_O 	O 	0.18029	0.11032	0.54467	-0.646
Mof_C 	C 	0.24555	0.22767	0.52806	0.795
Mof_H 	H 	0.1968	0.3006	0.4939	-0.393
Mof_O 	O 	0.36633	0.2548	0.55246	-0.974
Mof_O 	O 	0.09672	0.80358	0.54156	-0.493
Mof_C 	C 	0.22121	0.75781	0.52979	0.767
Mof_H 	H 	0.2841	0.8218	0.5	-0.271
Mof_O 	O 	0.26609	0.63821	0.5538	-0.939
Mof_O 	O 	0.41764	0.47941	0.14464	-0.663
Mof_C 	C 	0.46533	0.48777	0.23349	0.85
Mof_H 	H 	0.5586	0.5158	0.2405	-0.351
Mof_O 	O 	0.40247	0.4632	0.31053	-0.976
Mof_O 	O 	0.31971	0.61032	0.95533	-0.549
Mof_C 	C 	0.25445	0.72767	0.97194	0.966
Mof_H 	H 	0.3032	0.8006	0.0061	-0.392
Mof_O 	O 	0.13367	0.7548	0.94754	-0.54
Mof_O 	O 	0.40328	0.30358	0.95844	-0.588
Mof_C 	C 	0.27879	0.25781	0.97021	1.017
Mof_H 	H 	0.2159	0.3218	-0	-0.506
Mof_O 	O 	0.23391	0.13821	0.9462	-0.674
Mof_O 	O 	0.08236	0.97941	0.35536	-0.383
Mof_C 	C 	0.03467	0.98777	0.26651	0.519
Mof_H 	H 	0.9414	0.0158	0.2595	-0.186
Mof_O 	O 	0.09753	0.9632	0.18947	-0.48
Mof_Sc	Sc	2.63906e-33	0	0.5	0.887
Mof_Sc	Sc	0.5	0.5	-0	1.633
Mof_K 	K 	0.5	0.5	0.5	4.962
Mof_K 	K 	-0	0	-0	1.583
_end
