data_functionalizedCrystal
_audit_creation_method	'EQeq! by Chris Wilmer'
_symmetry_space_group_name_H-M	'P1'
_symmetry_Int_Tables_number	1
_symmetry_cell_setting	triclinic
loop_
_symmetry_equiv_pos_as_xyz
  x,y,z
_cell_length_a	13.518
_cell_length_b	13.518
_cell_length_c	26.42
_cell_angle_alpha	90
_cell_angle_beta	90
_cell_angle_gamma	90
loop_
_atom_site_label
_atom_site_type_symbol
_atom_site_fract_x
_atom_site_fract_y
_atom_site_fract_z
_atom_site_charge
Mof_Zn	Zn	0.65982	0.77207	0.30357	1.186
Mof_N 	N 	0.3713	0.7891	0.2471	-0.26
Mof_N 	N 	0.3585	0.7239	0.2861	-0.256
Mof_N 	N 	0.5154	0.765	0.2852	-0.287
Mof_O 	O 	0.6148	0.7068	0.3884	-0.356
Mof_O 	O 	0.7065	0.8308	0.3675	-0.481
Mof_C 	C 	0.4669	0.814	0.2487	0.094
Mof_H 	H 	0.4962	0.8598	0.2271	-0.047
Mof_C 	C 	0.4428	0.7083	0.3074	0.092
Mof_H 	H 	0.4532	0.6647	0.3341	-0.012
Mof_C 	C 	0.6682	0.7772	0.3995	0.347
Mof_C 	C 	0.6917	0.8	0.4542	-0.087
Mof_C 	C 	0.7727	0.8504	0.4718	0.041
Mof_H 	H 	0.8205	0.8802	0.4516	0.009
Mof_C 	C 	0.7355	0.8756	0.4714	-0.062
Mof_H 	H 	0.764	0.9247	0.4514	0.047
Mof_Zn	Zn	0.15982	0.27207	0.80357	1.185
Mof_N 	N 	0.8713	0.2891	0.7471	-0.261
Mof_N 	N 	0.8585	0.2239	0.7861	-0.257
Mof_N 	N 	0.0154	0.265	0.7852	-0.288
Mof_O 	O 	0.1148	0.2068	0.8884	-0.355
Mof_O 	O 	0.2065	0.3308	0.8675	-0.481
Mof_C 	C 	0.9669	0.314	0.7487	0.093
Mof_H 	H 	0.9962	0.3598	0.7271	-0.048
Mof_C 	C 	0.9428	0.2083	0.8074	0.092
Mof_H 	H 	0.9532	0.1647	0.8341	-0.012
Mof_C 	C 	0.1682	0.2772	0.8995	0.346
Mof_C 	C 	0.1917	0.3	0.9542	-0.083
Mof_C 	C 	0.2727	0.3504	0.9718	0.043
Mof_H 	H 	0.3205	0.3802	0.9516	0.009
Mof_C 	C 	0.2355	0.3756	0.9714	-0.059
Mof_H 	H 	0.264	0.4247	0.9514	0.047
Mof_Zn	Zn	0.34018	0.22793	0.30357	1.185
Mof_N 	N 	0.6287	0.2109	0.2471	-0.261
Mof_N 	N 	0.6415	0.2761	0.2861	-0.257
Mof_N 	N 	0.4846	0.235	0.2852	-0.288
Mof_O 	O 	0.3852	0.2932	0.3884	-0.357
Mof_O 	O 	0.2935	0.1692	0.3675	-0.482
Mof_C 	C 	0.5331	0.186	0.2487	0.093
Mof_H 	H 	0.5038	0.1402	0.2271	-0.048
Mof_C 	C 	0.5572	0.2917	0.3074	0.092
Mof_H 	H 	0.5468	0.3353	0.3341	-0.012
Mof_C 	C 	0.3318	0.2228	0.3995	0.347
Mof_C 	C 	0.3083	0.2	0.4542	-0.087
Mof_C 	C 	0.2273	0.1496	0.4718	0.041
Mof_H 	H 	0.1795	0.1198	0.4516	0.009
Mof_C 	C 	0.2645	0.1244	0.4714	-0.062
Mof_H 	H 	0.236	0.0753	0.4514	0.047
Mof_Zn	Zn	0.84018	0.72793	0.80357	1.185
Mof_N 	N 	0.1287	0.7109	0.7471	-0.261
Mof_N 	N 	0.1415	0.7761	0.7861	-0.257
Mof_N 	N 	0.9846	0.735	0.7852	-0.288
Mof_O 	O 	0.8852	0.7932	0.8884	-0.355
Mof_O 	O 	0.7935	0.6692	0.8675	-0.481
Mof_C 	C 	0.0331	0.686	0.7487	0.093
Mof_H 	H 	0.0038	0.6402	0.7271	-0.048
Mof_C 	C 	0.0572	0.7917	0.8074	0.092
Mof_H 	H 	0.0468	0.8353	0.8341	-0.012
Mof_C 	C 	0.8318	0.7228	0.8995	0.346
Mof_C 	C 	0.8083	0.7	0.9542	-0.083
Mof_C 	C 	0.7273	0.6496	0.9718	0.043
Mof_H 	H 	0.6795	0.6198	0.9516	0.009
Mof_C 	C 	0.7645	0.6244	0.9714	-0.059
Mof_H 	H 	0.736	0.5753	0.9514	0.047
Mof_Zn	Zn	0.22793	0.65982	0.30357	1.185
Mof_N 	N 	0.2109	0.3713	0.2471	-0.261
Mof_N 	N 	0.2761	0.3585	0.2861	-0.257
Mof_N 	N 	0.235	0.5154	0.2852	-0.288
Mof_O 	O 	0.2932	0.6148	0.3884	-0.357
Mof_O 	O 	0.1692	0.7065	0.3675	-0.482
Mof_C 	C 	0.186	0.4669	0.2487	0.093
Mof_H 	H 	0.1402	0.4962	0.2271	-0.048
Mof_C 	C 	0.2917	0.4428	0.3074	0.092
Mof_H 	H 	0.3353	0.4532	0.3341	-0.012
Mof_C 	C 	0.2228	0.6682	0.3995	0.347
Mof_C 	C 	0.2	0.6917	0.4542	-0.087
Mof_C 	C 	0.1496	0.7727	0.4718	0.041
Mof_H 	H 	0.1198	0.8205	0.4516	0.009
Mof_C 	C 	0.1244	0.7355	0.4714	-0.062
Mof_H 	H 	0.0753	0.764	0.4514	0.047
Mof_Zn	Zn	0.72793	0.15982	0.80357	1.185
Mof_N 	N 	0.7109	0.8713	0.7471	-0.261
Mof_N 	N 	0.7761	0.8585	0.7861	-0.257
Mof_N 	N 	0.735	0.0154	0.7852	-0.288
Mof_O 	O 	0.7932	0.1148	0.8884	-0.355
Mof_O 	O 	0.6692	0.2065	0.8675	-0.481
Mof_C 	C 	0.686	0.9669	0.7487	0.093
Mof_H 	H 	0.6402	0.9962	0.7271	-0.048
Mof_C 	C 	0.7917	0.9428	0.8074	0.092
Mof_H 	H 	0.8353	0.9532	0.8341	-0.012
Mof_C 	C 	0.7228	0.1682	0.8995	0.346
Mof_C 	C 	0.7	0.1917	0.9542	-0.083
Mof_C 	C 	0.6496	0.2727	0.9718	0.043
Mof_H 	H 	0.6198	0.3205	0.9516	0.009
Mof_C 	C 	0.6244	0.2355	0.9714	-0.059
Mof_H 	H 	0.5753	0.264	0.9514	0.047
Mof_Zn	Zn	0.77207	0.34018	0.30357	1.185
Mof_N 	N 	0.7891	0.6287	0.2471	-0.261
Mof_N 	N 	0.7239	0.6415	0.2861	-0.257
Mof_N 	N 	0.765	0.4846	0.2852	-0.288
Mof_O 	O 	0.7068	0.3852	0.3884	-0.357
Mof_O 	O 	0.8308	0.2935	0.3675	-0.482
Mof_C 	C 	0.814	0.5331	0.2487	0.093
Mof_H 	H 	0.8598	0.5038	0.2271	-0.048
Mof_C 	C 	0.7083	0.5572	0.3074	0.092
Mof_H 	H 	0.6647	0.5468	0.3341	-0.012
Mof_C 	C 	0.7772	0.3318	0.3995	0.347
Mof_C 	C 	0.8	0.3083	0.4542	-0.087
Mof_C 	C 	0.8504	0.2273	0.4718	0.041
Mof_H 	H 	0.8802	0.1795	0.4516	0.009
Mof_C 	C 	0.8756	0.2645	0.4714	-0.062
Mof_H 	H 	0.9247	0.236	0.4514	0.047
Mof_Zn	Zn	0.27207	0.84018	0.80357	1.185
Mof_N 	N 	0.2891	0.1287	0.7471	-0.261
Mof_N 	N 	0.2239	0.1415	0.7861	-0.257
Mof_N 	N 	0.265	0.9846	0.7852	-0.288
Mof_O 	O 	0.2068	0.8852	0.8884	-0.355
Mof_O 	O 	0.3308	0.7935	0.8675	-0.481
Mof_C 	C 	0.314	0.0331	0.7487	0.093
Mof_H 	H 	0.3598	0.0038	0.7271	-0.048
Mof_C 	C 	0.2083	0.0572	0.8074	0.092
Mof_H 	H 	0.1647	0.0468	0.8341	-0.012
Mof_C 	C 	0.2772	0.8318	0.8995	0.346
Mof_C 	C 	0.3	0.8083	0.9542	-0.083
Mof_C 	C 	0.3504	0.7273	0.9718	0.043
Mof_H 	H 	0.3802	0.6795	0.9516	0.009
Mof_C 	C 	0.3756	0.7645	0.9714	-0.059
Mof_H 	H 	0.4247	0.736	0.9514	0.047
Mof_Zn	Zn	0.34018	0.22793	0.69643	1.185
Mof_N 	N 	0.6287	0.2109	0.7529	-0.261
Mof_N 	N 	0.6415	0.2761	0.7139	-0.257
Mof_N 	N 	0.4846	0.235	0.7148	-0.288
Mof_O 	O 	0.3852	0.2932	0.6116	-0.357
Mof_O 	O 	0.2935	0.1692	0.6325	-0.482
Mof_C 	C 	0.5331	0.186	0.7513	0.093
Mof_H 	H 	0.5038	0.1402	0.7729	-0.048
Mof_C 	C 	0.5572	0.2917	0.6926	0.092
Mof_H 	H 	0.5468	0.3353	0.6659	-0.012
Mof_C 	C 	0.3318	0.2228	0.6005	0.347
Mof_C 	C 	0.3083	0.2	0.5458	-0.087
Mof_C 	C 	0.2273	0.1496	0.5282	0.041
Mof_H 	H 	0.1795	0.1198	0.5484	0.009
Mof_C 	C 	0.2645	0.1244	0.5286	-0.062
Mof_H 	H 	0.236	0.0753	0.5486	0.047
Mof_Zn	Zn	0.84018	0.72793	0.19643	1.185
Mof_N 	N 	0.1287	0.7109	0.2529	-0.261
Mof_N 	N 	0.1415	0.7761	0.2139	-0.257
Mof_N 	N 	0.9846	0.735	0.2148	-0.288
Mof_O 	O 	0.8852	0.7932	0.1116	-0.357
Mof_O 	O 	0.7935	0.6692	0.1325	-0.482
Mof_C 	C 	0.0331	0.686	0.2513	0.093
Mof_H 	H 	0.0038	0.6402	0.2729	-0.048
Mof_C 	C 	0.0572	0.7917	0.1926	0.092
Mof_H 	H 	0.0468	0.8353	0.1659	-0.012
Mof_C 	C 	0.8318	0.7228	0.1005	0.346
Mof_C 	C 	0.8083	0.7	0.0458	-0.085
Mof_C 	C 	0.7273	0.6496	0.0282	0.037
Mof_H 	H 	0.6795	0.6198	0.0484	0.009
Mof_C 	C 	0.7645	0.6244	0.0286	-0.065
Mof_H 	H 	0.736	0.5753	0.0486	0.048
Mof_Zn	Zn	0.65982	0.77207	0.69643	1.185
Mof_N 	N 	0.3713	0.7891	0.7529	-0.261
Mof_N 	N 	0.3585	0.7239	0.7139	-0.257
Mof_N 	N 	0.5154	0.765	0.7148	-0.288
Mof_O 	O 	0.6148	0.7068	0.6116	-0.357
Mof_O 	O 	0.7065	0.8308	0.6325	-0.482
Mof_C 	C 	0.4669	0.814	0.7513	0.093
Mof_H 	H 	0.4962	0.8598	0.7729	-0.048
Mof_C 	C 	0.4428	0.7083	0.6926	0.092
Mof_H 	H 	0.4532	0.6647	0.6659	-0.012
Mof_C 	C 	0.6682	0.7772	0.6005	0.347
Mof_C 	C 	0.6917	0.8	0.5458	-0.087
Mof_C 	C 	0.7727	0.8504	0.5282	0.041
Mof_H 	H 	0.8205	0.8802	0.5484	0.009
Mof_C 	C 	0.7355	0.8756	0.5286	-0.062
Mof_H 	H 	0.764	0.9247	0.5486	0.047
Mof_Zn	Zn	0.15982	0.27207	0.19643	1.185
Mof_N 	N 	0.8713	0.2891	0.2529	-0.261
Mof_N 	N 	0.8585	0.2239	0.2139	-0.257
Mof_N 	N 	0.0154	0.265	0.2148	-0.288
Mof_O 	O 	0.1148	0.2068	0.1116	-0.357
Mof_O 	O 	0.2065	0.3308	0.1325	-0.482
Mof_C 	C 	0.9669	0.314	0.2513	0.093
Mof_H 	H 	0.9962	0.3598	0.2729	-0.048
Mof_C 	C 	0.9428	0.2083	0.1926	0.092
Mof_H 	H 	0.9532	0.1647	0.1659	-0.012
Mof_C 	C 	0.1682	0.2772	0.1005	0.346
Mof_C 	C 	0.1917	0.3	0.0458	-0.085
Mof_C 	C 	0.2727	0.3504	0.0282	0.037
Mof_H 	H 	0.3205	0.3802	0.0484	0.009
Mof_C 	C 	0.2355	0.3756	0.0286	-0.065
Mof_H 	H 	0.264	0.4247	0.0486	0.048
Mof_Zn	Zn	0.77207	0.34018	0.69643	1.185
Mof_N 	N 	0.7891	0.6287	0.7529	-0.261
Mof_N 	N 	0.7239	0.6415	0.7139	-0.257
Mof_N 	N 	0.765	0.4846	0.7148	-0.288
Mof_O 	O 	0.7068	0.3852	0.6116	-0.357
Mof_O 	O 	0.8308	0.2935	0.6325	-0.482
Mof_C 	C 	0.814	0.5331	0.7513	0.093
Mof_H 	H 	0.8598	0.5038	0.7729	-0.048
Mof_C 	C 	0.7083	0.5572	0.6926	0.092
Mof_H 	H 	0.6647	0.5468	0.6659	-0.012
Mof_C 	C 	0.7772	0.3318	0.6005	0.347
Mof_C 	C 	0.8	0.3083	0.5458	-0.087
Mof_C 	C 	0.8504	0.2273	0.5282	0.041
Mof_H 	H 	0.8802	0.1795	0.5484	0.009
Mof_C 	C 	0.8756	0.2645	0.5286	-0.062
Mof_H 	H 	0.9247	0.236	0.5486	0.047
Mof_Zn	Zn	0.27207	0.84018	0.19643	1.185
Mof_N 	N 	0.2891	0.1287	0.2529	-0.261
Mof_N 	N 	0.2239	0.1415	0.2139	-0.257
Mof_N 	N 	0.265	0.9846	0.2148	-0.288
Mof_O 	O 	0.2068	0.8852	0.1116	-0.357
Mof_O 	O 	0.3308	0.7935	0.1325	-0.482
Mof_C 	C 	0.314	0.0331	0.2513	0.093
Mof_H 	H 	0.3598	0.0038	0.2729	-0.048
Mof_C 	C 	0.2083	0.0572	0.1926	0.092
Mof_H 	H 	0.1647	0.0468	0.1659	-0.012
Mof_C 	C 	0.2772	0.8318	0.1005	0.346
Mof_C 	C 	0.3	0.8083	0.0458	-0.085
Mof_C 	C 	0.3504	0.7273	0.0282	0.037
Mof_H 	H 	0.3802	0.6795	0.0484	0.009
Mof_C 	C 	0.3756	0.7645	0.0286	-0.065
Mof_H 	H 	0.4247	0.736	0.0486	0.048
Mof_Zn	Zn	0.22793	0.65982	0.69643	1.185
Mof_N 	N 	0.2109	0.3713	0.7529	-0.261
Mof_N 	N 	0.2761	0.3585	0.7139	-0.257
Mof_N 	N 	0.235	0.5154	0.7148	-0.288
Mof_O 	O 	0.2932	0.6148	0.6116	-0.357
Mof_O 	O 	0.1692	0.7065	0.6325	-0.482
Mof_C 	C 	0.186	0.4669	0.7513	0.093
Mof_H 	H 	0.1402	0.4962	0.7729	-0.048
Mof_C 	C 	0.2917	0.4428	0.6926	0.092
Mof_H 	H 	0.3353	0.4532	0.6659	-0.012
Mof_C 	C 	0.2228	0.6682	0.6005	0.347
Mof_C 	C 	0.2	0.6917	0.5458	-0.087
Mof_C 	C 	0.1496	0.7727	0.5282	0.041
Mof_H 	H 	0.1198	0.8205	0.5484	0.009
Mof_C 	C 	0.1244	0.7355	0.5286	-0.062
Mof_H 	H 	0.0753	0.764	0.5486	0.047
Mof_Zn	Zn	0.72793	0.15982	0.19643	1.185
Mof_N 	N 	0.7109	0.8713	0.2529	-0.261
Mof_N 	N 	0.7761	0.8585	0.2139	-0.257
Mof_N 	N 	0.735	0.0154	0.2148	-0.288
Mof_O 	O 	0.7932	0.1148	0.1116	-0.357
Mof_O 	O 	0.6692	0.2065	0.1325	-0.482
Mof_C 	C 	0.686	0.9669	0.2513	0.093
Mof_H 	H 	0.6402	0.9962	0.2729	-0.048
Mof_C 	C 	0.7917	0.9428	0.1926	0.092
Mof_H 	H 	0.8353	0.9532	0.1659	-0.012
Mof_C 	C 	0.7228	0.1682	0.1005	0.346
Mof_C 	C 	0.7	0.1917	0.0458	-0.085
Mof_C 	C 	0.6496	0.2727	0.0282	0.037
Mof_H 	H 	0.6198	0.3205	0.0484	0.009
Mof_C 	C 	0.6244	0.2355	0.0286	-0.065
Mof_H 	H 	0.5753	0.264	0.0486	0.048
Mof_S 	S 	0.6316	0.7321	0.5	0.08
Mof_S 	S 	0.1316	0.2321	-0	0.072
Mof_S 	S 	0.3684	0.2679	0.5	0.08
Mof_S 	S 	0.8684	0.7679	-0	0.072
Mof_S 	S 	0.2679	0.6316	0.5	0.08
Mof_S 	S 	0.7679	0.1316	-0	0.072
Mof_S 	S 	0.7321	0.3684	0.5	0.08
Mof_S 	S 	0.2321	0.8684	-0	0.072
_end
