data_functionalizedCrystal
_audit_creation_method	'EQeq! by Chris Wilmer'
_symmetry_space_group_name_H-M	'P1'
_symmetry_Int_Tables_number	1
_symmetry_cell_setting	triclinic
loop_
_symmetry_equiv_pos_as_xyz
  x,y,z
_cell_length_a	10.3142
_cell_length_b	10.3142
_cell_length_c	11.418
_cell_angle_alpha	84.9945
_cell_angle_beta	84.9945
_cell_angle_gamma	65.656
loop_
_atom_site_label
_atom_site_type_symbol
_atom_site_fract_x
_atom_site_fract_y
_atom_site_fract_z
_atom_site_charge
Mof_Mn	Mn	0.54089	0.63671	0.48511	1.021
Mof_Mn	Mn	0.36329	0.45911	0.01489	1.021
Mof_Mn	Mn	0.45911	0.36329	0.51489	1.021
Mof_Mn	Mn	0.63671	0.54089	0.98511	1.021
Mof_Mn	Mn	0.62974	0.37026	0.75	1.009
Mof_Mn	Mn	0.37026	0.62974	0.25	1.009
Mof_H 	H 	0.621	0.299	0.961	0.509
Mof_H 	H 	0.6403	0.9043	0.508	0.038
Mof_H 	H 	0.9124	0.5324	0.625	0.035
Mof_H 	H 	0.9704	0.6304	0.787	0.074
Mof_H 	H 	0.8522	0.8862	0.8	0.032
Mof_H 	H 	0.208	0.554	0.69	-0.108
Mof_H 	H 	0.701	0.379	0.539	0.509
Mof_H 	H 	0.0957	0.3597	0.992	0.039
Mof_H 	H 	0.4676	0.0876	0.875	0.035
Mof_H 	H 	0.3696	0.0296	0.713	0.074
Mof_H 	H 	0.1138	0.1478	0.7	0.033
Mof_H 	H 	0.446	0.792	0.81	-0.108
Mof_H 	H 	0.379	0.701	0.039	0.509
Mof_H 	H 	0.3597	0.0957	0.492	0.038
Mof_H 	H 	0.0876	0.4676	0.375	0.035
Mof_H 	H 	0.0296	0.3696	0.213	0.074
Mof_H 	H 	0.1478	0.1138	0.2	0.032
Mof_H 	H 	0.792	0.446	0.31	-0.108
Mof_H 	H 	0.299	0.621	0.461	0.509
Mof_H 	H 	0.9043	0.6403	0.008	0.039
Mof_H 	H 	0.5324	0.9124	0.125	0.035
Mof_H 	H 	0.6304	0.9704	0.287	0.074
Mof_H 	H 	0.8862	0.8522	0.3	0.033
Mof_H 	H 	0.554	0.208	0.19	-0.108
Mof_C 	C 	0.65964	0.08184	0.6579	0.375
Mof_C 	C 	0.73564	0.92104	0.6565	-0.125
Mof_C 	C 	0.70798	0.85358	0.5682	0.064
Mof_C 	C 	0.8715	0.6305	0.6397	0.042
Mof_C 	C 	0.9	0.6934	0.7291	-0.09
Mof_C 	C 	0.8325	0.8387	0.7385	0.046
Mof_C 	C 	0.2877	0.5015	0.7454	0.469
Mof_C 	C 	0.91816	0.34036	0.8421	0.374
Mof_C 	C 	0.07896	0.26436	0.8435	-0.124
Mof_C 	C 	0.14642	0.29202	0.9318	0.064
Mof_C 	C 	0.3695	0.1285	0.8603	0.042
Mof_C 	C 	0.3066	0.1	0.7709	-0.09
Mof_C 	C 	0.1613	0.1675	0.7615	0.046
Mof_C 	C 	0.4985	0.7123	0.7546	0.469
Mof_C 	C 	0.34036	0.91816	0.3421	0.375
Mof_C 	C 	0.26436	0.07896	0.3435	-0.125
Mof_C 	C 	0.29202	0.14642	0.4318	0.064
Mof_C 	C 	0.1285	0.3695	0.3603	0.042
Mof_C 	C 	0.1	0.3066	0.2709	-0.09
Mof_C 	C 	0.1675	0.1613	0.2615	0.046
Mof_C 	C 	0.7123	0.4985	0.2546	0.469
Mof_C 	C 	0.08184	0.65964	0.1579	0.374
Mof_C 	C 	0.92104	0.73564	0.1565	-0.124
Mof_C 	C 	0.85358	0.70798	0.0682	0.064
Mof_C 	C 	0.6305	0.8715	0.1397	0.042
Mof_C 	C 	0.6934	0.9	0.2291	-0.09
Mof_C 	C 	0.8387	0.8325	0.2385	0.046
Mof_C 	C 	0.5015	0.2877	0.2454	0.469
Mof_N 	N 	0.77496	0.71096	0.5612	-0.076
Mof_N 	N 	0.28904	0.22504	0.9388	-0.076
Mof_N 	N 	0.22504	0.28904	0.4388	-0.076
Mof_N 	N 	0.71096	0.77496	0.0612	-0.076
Mof_O 	O 	0.74678	0.64818	0.4751	-0.239
Mof_O 	O 	0.57182	0.14222	0.58004	-0.376
Mof_O 	O 	0.68967	0.14187	0.73638	-0.388
Mof_O 	O 	0.25695	0.53755	0.84929	-0.405
Mof_O 	O 	0.58077	0.36937	0.93965	-0.922
Mof_O 	O 	0.4058	0.4229	0.70331	-0.482
Mof_O 	O 	0.35182	0.25322	0.0249	-0.239
Mof_O 	O 	0.85778	0.42818	0.91996	-0.376
Mof_O 	O 	0.85813	0.31033	0.76362	-0.387
Mof_O 	O 	0.46245	0.74305	0.65071	-0.405
Mof_O 	O 	0.63063	0.41923	0.56035	-0.922
Mof_O 	O 	0.5771	0.5942	0.79669	-0.482
Mof_O 	O 	0.25322	0.35182	0.5249	-0.239
Mof_O 	O 	0.42818	0.85778	0.41996	-0.376
Mof_O 	O 	0.31033	0.85813	0.26362	-0.388
Mof_O 	O 	0.74305	0.46245	0.15071	-0.405
Mof_O 	O 	0.41923	0.63063	0.06035	-0.922
Mof_O 	O 	0.5942	0.5771	0.29669	-0.482
Mof_O 	O 	0.64818	0.74678	0.9751	-0.239
Mof_O 	O 	0.14222	0.57182	0.08004	-0.376
Mof_O 	O 	0.14187	0.68967	0.23638	-0.387
Mof_O 	O 	0.53755	0.25695	0.34929	-0.405
Mof_O 	O 	0.36937	0.58077	0.43965	-0.922
Mof_O 	O 	0.4229	0.4058	0.20331	-0.482
_end
