data_functionalizedCrystal
_audit_creation_method	'EQeq! by Chris Wilmer'
_symmetry_space_group_name_H-M	'P1'
_symmetry_Int_Tables_number	1
_symmetry_cell_setting	triclinic
loop_
_symmetry_equiv_pos_as_xyz
  x,y,z
_cell_length_a	16.5276
_cell_length_b	16.5276
_cell_length_c	25.3959
_cell_angle_alpha	90
_cell_angle_beta	90
_cell_angle_gamma	120
loop_
_atom_site_label
_atom_site_type_symbol
_atom_site_fract_x
_atom_site_fract_y
_atom_site_fract_z
_atom_site_charge
Mof_Zn	Zn	0.28704	0.71295	-0	1.201
Mof_Zn	Zn	0.42591	0.71295	0.33333	1.213
Mof_Zn	Zn	0.28704	0.57408	0.66667	1.213
Mof_Zn	Zn	0.71296	0.28705	-0	1.201
Mof_Zn	Zn	0.57409	0.28705	0.33333	1.213
Mof_Zn	Zn	0.71296	0.42592	0.66667	1.213
Mof_H 	H 	0.5976	0.8208	0.9122	0.037
Mof_H 	H 	0.6934	0.4859	0.9601	0.028
Mof_H 	H 	0.5418	0.4558	0.9556	0.087
Mof_H 	H 	0.1005	0.6424	0.0518	-0.04
Mof_H 	H 	0.9438	0.5851	0.0302	0.155
Mof_H 	H 	0.0224	0.6311	0.8812	0.178
Mof_H 	H 	0.5833	0.5556	0.817	0.076
Mof_H 	H 	0.7343	0.5818	0.8212	0.027
Mof_H 	H 	0.1702	0.6702	0.9062	-0.026
Mof_H 	H 	0.8331	0.5484	0.9668	0.184
Mof_H 	H 	0.2232	0.4024	0.24553	0.028
Mof_H 	H 	0.7925	0.3066	0.29343	0.017
Mof_H 	H 	0.914	0.4582	0.28893	0.075
Mof_H 	H 	0.5419	0.8995	0.38513	-0.044
Mof_H 	H 	0.6413	0.0562	0.36353	0.138
Mof_H 	H 	0.6087	0.9776	0.21453	0.167
Mof_H 	H 	0.9723	0.4167	0.15033	0.074
Mof_H 	H 	0.8475	0.2657	0.15453	0.024
Mof_H 	H 	0.5	0.8298	0.23953	-0.022
Mof_H 	H 	0.7153	0.1669	0.30013	0.166
Mof_H 	H 	0.1792	0.7768	0.57887	0.029
Mof_H 	H 	0.5141	0.2075	0.62677	0.017
Mof_H 	H 	0.5442	0.086	0.62227	0.075
Mof_H 	H 	0.3576	0.4581	0.71847	-0.044
Mof_H 	H 	0.4149	0.3587	0.69687	0.138
Mof_H 	H 	0.3689	0.3913	0.54787	0.167
Mof_H 	H 	0.4444	0.0277	0.48367	0.074
Mof_H 	H 	0.4182	0.1525	0.48787	0.026
Mof_H 	H 	0.3298	0.5	0.57287	-0.022
Mof_H 	H 	0.4516	0.2847	0.63347	0.166
Mof_H 	H 	0.4024	0.1792	0.9122	0.036
Mof_H 	H 	0.3066	0.5141	0.9601	0.027
Mof_H 	H 	0.4582	0.5442	0.9556	0.086
Mof_H 	H 	0.8995	0.3576	0.0518	-0.041
Mof_H 	H 	0.0562	0.4149	0.0302	0.154
Mof_H 	H 	0.9776	0.3689	0.8812	0.177
Mof_H 	H 	0.4167	0.4444	0.817	0.075
Mof_H 	H 	0.2657	0.4182	0.8212	0.026
Mof_H 	H 	0.8298	0.3298	0.9062	-0.027
Mof_H 	H 	0.1669	0.4516	0.9668	0.183
Mof_H 	H 	0.7768	0.5976	0.24553	0.028
Mof_H 	H 	0.2075	0.6934	0.29343	0.017
Mof_H 	H 	0.086	0.5418	0.28893	0.075
Mof_H 	H 	0.4581	0.1005	0.38513	-0.044
Mof_H 	H 	0.3587	0.9438	0.36353	0.138
Mof_H 	H 	0.3913	0.0224	0.21453	0.167
Mof_H 	H 	0.0277	0.5833	0.15033	0.074
Mof_H 	H 	0.1525	0.7343	0.15453	0.024
Mof_H 	H 	0.5	0.1702	0.23953	-0.022
Mof_H 	H 	0.2847	0.8331	0.30013	0.166
Mof_H 	H 	0.8208	0.2232	0.57887	0.029
Mof_H 	H 	0.4859	0.7925	0.62677	0.017
Mof_H 	H 	0.4558	0.914	0.62227	0.075
Mof_H 	H 	0.6424	0.5419	0.71847	-0.044
Mof_H 	H 	0.5851	0.6413	0.69687	0.138
Mof_H 	H 	0.6311	0.6087	0.54787	0.167
Mof_H 	H 	0.5556	0.9723	0.48367	0.074
Mof_H 	H 	0.5818	0.8475	0.48787	0.026
Mof_H 	H 	0.6702	0.5	0.57287	-0.022
Mof_H 	H 	0.5484	0.7153	0.63347	0.166
Mof_H 	H 	0.7768	0.1792	0.42113	0.029
Mof_H 	H 	0.2075	0.5141	0.37323	0.017
Mof_H 	H 	0.086	0.5442	0.37773	0.075
Mof_H 	H 	0.4581	0.3576	0.28153	-0.044
Mof_H 	H 	0.3587	0.4149	0.30313	0.138
Mof_H 	H 	0.3913	0.3689	0.45213	0.167
Mof_H 	H 	0.0277	0.4444	0.51633	0.074
Mof_H 	H 	0.1525	0.4182	0.51213	0.026
Mof_H 	H 	0.5	0.3298	0.42713	-0.022
Mof_H 	H 	0.2847	0.4516	0.36653	0.166
Mof_H 	H 	0.8208	0.5976	0.0878	0.022
Mof_H 	H 	0.4859	0.6934	0.0399	0.008
Mof_H 	H 	0.4558	0.5418	0.0444	0.064
Mof_H 	H 	0.6424	0.1005	0.9482	-0.046
Mof_H 	H 	0.5851	0.9438	0.9698	0.123
Mof_H 	H 	0.6311	0.0224	0.1188	0.157
Mof_H 	H 	0.5556	0.5833	0.183	0.074
Mof_H 	H 	0.5818	0.7343	0.1788	0.027
Mof_H 	H 	0.6702	0.1702	0.0938	-0.016
Mof_H 	H 	0.5484	0.8331	0.0332	0.149
Mof_H 	H 	0.4024	0.2232	0.75447	0.03
Mof_H 	H 	0.3066	0.7925	0.70657	0.017
Mof_H 	H 	0.4582	0.914	0.71107	0.075
Mof_H 	H 	0.8995	0.5419	0.61487	-0.044
Mof_H 	H 	0.0562	0.6413	0.63647	0.138
Mof_H 	H 	0.9776	0.6087	0.78547	0.167
Mof_H 	H 	0.4167	0.9723	0.84967	0.075
Mof_H 	H 	0.2657	0.8475	0.84547	0.028
Mof_H 	H 	0.8298	0.5	0.76047	-0.022
Mof_H 	H 	0.1669	0.7153	0.69987	0.166
Mof_H 	H 	0.2232	0.8208	0.42113	0.029
Mof_H 	H 	0.7925	0.4859	0.37323	0.017
Mof_H 	H 	0.914	0.4558	0.37773	0.075
Mof_H 	H 	0.5419	0.6424	0.28153	-0.044
Mof_H 	H 	0.6413	0.5851	0.30313	0.138
Mof_H 	H 	0.6087	0.6311	0.45213	0.167
Mof_H 	H 	0.9723	0.5556	0.51633	0.074
Mof_H 	H 	0.8475	0.5818	0.51213	0.026
Mof_H 	H 	0.5	0.6702	0.42713	-0.022
Mof_H 	H 	0.7153	0.5484	0.36653	0.166
Mof_H 	H 	0.1792	0.4024	0.0878	0.022
Mof_H 	H 	0.5141	0.3066	0.0399	0.008
Mof_H 	H 	0.5442	0.4582	0.0444	0.064
Mof_H 	H 	0.3576	0.8995	0.9482	-0.046
Mof_H 	H 	0.4149	0.0562	0.9698	0.123
Mof_H 	H 	0.3689	0.9776	0.1188	0.157
Mof_H 	H 	0.4444	0.4167	0.183	0.074
Mof_H 	H 	0.4182	0.2657	0.1788	0.027
Mof_H 	H 	0.3298	0.8298	0.0938	-0.016
Mof_H 	H 	0.4516	0.1669	0.0332	0.149
Mof_H 	H 	0.5976	0.7768	0.75447	0.03
Mof_H 	H 	0.6934	0.2075	0.70657	0.017
Mof_H 	H 	0.5418	0.086	0.71107	0.075
Mof_H 	H 	0.1005	0.4581	0.61487	-0.044
Mof_H 	H 	0.9438	0.3587	0.63647	0.138
Mof_H 	H 	0.0224	0.3913	0.78547	0.167
Mof_H 	H 	0.5833	0.0277	0.84967	0.075
Mof_H 	H 	0.7343	0.1525	0.84547	0.028
Mof_H 	H 	0.1702	0.5	0.76047	-0.022
Mof_H 	H 	0.8331	0.2847	0.69987	0.166
Mof_H 	H 	0.356	0.678	0.83333	0.044
Mof_H 	H 	0.6791	0.83955	0.83333	0.07
Mof_H 	H 	0.322	0.644	0.16667	0.041
Mof_H 	H 	0.16045	0.3209	0.16667	0.068
Mof_H 	H 	0.322	0.678	0.5	0.043
Mof_H 	H 	0.16045	0.83955	0.5	0.069
Mof_H 	H 	0.644	0.322	0.83333	0.044
Mof_H 	H 	0.3209	0.16045	0.83333	0.07
Mof_H 	H 	0.678	0.356	0.16667	0.041
Mof_H 	H 	0.83955	0.6791	0.16667	0.068
Mof_H 	H 	0.678	0.322	0.5	0.043
Mof_H 	H 	0.83955	0.16045	0.5	0.069
Mof_C 	C 	0.4159	0.7399	0.92925	0.344
Mof_C 	C 	0.4671	0.7493	0.87933	-0.112
Mof_C 	C 	0.5655	0.7968	0.8808	0.027
Mof_C 	C 	0.7344	0.5501	0.89434	-0.125
Mof_C 	C 	0.8347	0.5784	0.8957	0.282
Mof_C 	C 	0.6749	0.5062	0.9307	0.062
Mof_C 	C 	0.5812	0.4874	0.9276	-0.128
Mof_C 	C 	0.0844	0.6384	0.0164	0.145
Mof_C 	C 	0.9885	0.6047	0.00365	-0.354
Mof_C 	C 	0.0354	0.6301	0.91674	-0.304
Mof_C 	C 	0.9637	0.6016	0.95327	0.347
Mof_C 	C 	0.6046	0.5436	0.8483	-0.123
Mof_C 	C 	0.6976	0.5613	0.8514	0.062
Mof_C 	C 	0.547	0.5103	0.88931	0.064
Mof_C 	C 	0.1255	0.6567	0.93216	0.19
Mof_C 	C 	0.324	0.5841	0.26258	0.351
Mof_C 	C 	0.2822	0.5329	0.21266	-0.121
Mof_C 	C 	0.2313	0.4345	0.21413	0.034
Mof_C 	C 	0.8157	0.2656	0.22767	-0.126
Mof_C 	C 	0.7437	0.1653	0.22903	0.275
Mof_C 	C 	0.8313	0.3251	0.26403	0.059
Mof_C 	C 	0.9062	0.4188	0.26093	-0.128
Mof_C 	C 	0.554	0.9156	0.34973	0.164
Mof_C 	C 	0.6162	0.0115	0.33698	-0.287
Mof_C 	C 	0.5947	0.9646	0.25007	-0.277
Mof_C 	C 	0.6379	0.0363	0.2866	0.282
Mof_C 	C 	0.939	0.3954	0.18163	-0.124
Mof_C 	C 	0.8637	0.3024	0.18473	0.06
Mof_C 	C 	0.9633	0.453	0.22264	0.061
Mof_C 	C 	0.5312	0.8745	0.26549	0.168
Mof_C 	C 	0.2601	0.676	0.59592	0.351
Mof_C 	C 	0.2507	0.7178	0.546	-0.119
Mof_C 	C 	0.2032	0.7687	0.54747	0.032
Mof_C 	C 	0.4499	0.1843	0.56101	-0.125
Mof_C 	C 	0.4216	0.2563	0.56237	0.275
Mof_C 	C 	0.4938	0.1687	0.59737	0.058
Mof_C 	C 	0.5126	0.0938	0.59427	-0.128
Mof_C 	C 	0.3616	0.446	0.68307	0.164
Mof_C 	C 	0.3953	0.3838	0.67032	-0.287
Mof_C 	C 	0.3699	0.4053	0.58341	-0.277
Mof_C 	C 	0.3984	0.3621	0.61994	0.282
Mof_C 	C 	0.4564	0.061	0.51497	-0.123
Mof_C 	C 	0.4387	0.1363	0.51807	0.059
Mof_C 	C 	0.4897	0.0367	0.55598	0.061
Mof_C 	C 	0.3433	0.4688	0.59883	0.168
Mof_C 	C 	0.5841	0.2601	0.92925	0.344
Mof_C 	C 	0.5329	0.2507	0.87933	-0.112
Mof_C 	C 	0.4345	0.2032	0.8808	0.027
Mof_C 	C 	0.2656	0.4499	0.89434	-0.125
Mof_C 	C 	0.1653	0.4216	0.8957	0.282
Mof_C 	C 	0.3251	0.4938	0.9307	0.062
Mof_C 	C 	0.4188	0.5126	0.9276	-0.128
Mof_C 	C 	0.9156	0.3616	0.0164	0.145
Mof_C 	C 	0.0115	0.3953	0.00365	-0.354
Mof_C 	C 	0.9646	0.3699	0.91674	-0.304
Mof_C 	C 	0.0363	0.3984	0.95327	0.347
Mof_C 	C 	0.3954	0.4564	0.8483	-0.123
Mof_C 	C 	0.3024	0.4387	0.8514	0.062
Mof_C 	C 	0.453	0.4897	0.88931	0.064
Mof_C 	C 	0.8745	0.3433	0.93216	0.19
Mof_C 	C 	0.676	0.4159	0.26258	0.351
Mof_C 	C 	0.7178	0.4671	0.21266	-0.121
Mof_C 	C 	0.7687	0.5655	0.21413	0.034
Mof_C 	C 	0.1843	0.7344	0.22767	-0.126
Mof_C 	C 	0.2563	0.8347	0.22903	0.275
Mof_C 	C 	0.1687	0.6749	0.26403	0.059
Mof_C 	C 	0.0938	0.5812	0.26093	-0.128
Mof_C 	C 	0.446	0.0844	0.34973	0.164
Mof_C 	C 	0.3838	0.9885	0.33698	-0.287
Mof_C 	C 	0.4053	0.0354	0.25007	-0.277
Mof_C 	C 	0.3621	0.9637	0.2866	0.282
Mof_C 	C 	0.061	0.6046	0.18163	-0.124
Mof_C 	C 	0.1363	0.6976	0.18473	0.06
Mof_C 	C 	0.0367	0.547	0.22264	0.061
Mof_C 	C 	0.4688	0.1255	0.26549	0.168
Mof_C 	C 	0.7399	0.324	0.59592	0.351
Mof_C 	C 	0.7493	0.2822	0.546	-0.119
Mof_C 	C 	0.7968	0.2313	0.54747	0.032
Mof_C 	C 	0.5501	0.8157	0.56101	-0.125
Mof_C 	C 	0.5784	0.7437	0.56237	0.275
Mof_C 	C 	0.5062	0.8313	0.59737	0.058
Mof_C 	C 	0.4874	0.9062	0.59427	-0.128
Mof_C 	C 	0.6384	0.554	0.68307	0.164
Mof_C 	C 	0.6047	0.6162	0.67032	-0.287
Mof_C 	C 	0.6301	0.5947	0.58341	-0.277
Mof_C 	C 	0.6016	0.6379	0.61994	0.282
Mof_C 	C 	0.5436	0.939	0.51497	-0.123
Mof_C 	C 	0.5613	0.8637	0.51807	0.059
Mof_C 	C 	0.5103	0.9633	0.55598	0.061
Mof_C 	C 	0.6567	0.5312	0.59883	0.168
Mof_C 	C 	0.676	0.2601	0.40408	0.351
Mof_C 	C 	0.7178	0.2507	0.454	-0.119
Mof_C 	C 	0.7687	0.2032	0.45253	0.032
Mof_C 	C 	0.1843	0.4499	0.43899	-0.125
Mof_C 	C 	0.2563	0.4216	0.43763	0.274
Mof_C 	C 	0.1687	0.4938	0.40263	0.058
Mof_C 	C 	0.0938	0.5126	0.40573	-0.128
Mof_C 	C 	0.446	0.3616	0.31693	0.164
Mof_C 	C 	0.3838	0.3953	0.32968	-0.287
Mof_C 	C 	0.4053	0.3699	0.41659	-0.277
Mof_C 	C 	0.3621	0.3984	0.38006	0.282
Mof_C 	C 	0.061	0.4564	0.48503	-0.123
Mof_C 	C 	0.1363	0.4387	0.48193	0.059
Mof_C 	C 	0.0367	0.4897	0.44402	0.061
Mof_C 	C 	0.4688	0.3433	0.40117	0.168
Mof_C 	C 	0.7399	0.4159	0.07075	0.356
Mof_C 	C 	0.7493	0.4671	0.12067	-0.125
Mof_C 	C 	0.7968	0.5655	0.1192	0.036
Mof_C 	C 	0.5501	0.7344	0.10566	-0.124
Mof_C 	C 	0.5784	0.8347	0.1043	0.267
Mof_C 	C 	0.5062	0.6749	0.0693	0.055
Mof_C 	C 	0.4874	0.5812	0.0724	-0.128
Mof_C 	C 	0.6384	0.0844	0.9836	0.183
Mof_C 	C 	0.6047	0.9885	0.99635	-0.219
Mof_C 	C 	0.6301	0.0354	0.08326	-0.25
Mof_C 	C 	0.6016	0.9637	0.04673	0.217
Mof_C 	C 	0.5436	0.6046	0.1517	-0.122
Mof_C 	C 	0.5613	0.6976	0.1486	0.056
Mof_C 	C 	0.5103	0.547	0.11069	0.058
Mof_C 	C 	0.6567	0.1255	0.06784	0.147
Mof_C 	C 	0.5841	0.324	0.73742	0.35
Mof_C 	C 	0.5329	0.2822	0.78734	-0.116
Mof_C 	C 	0.4345	0.2313	0.78587	0.029
Mof_C 	C 	0.2656	0.8157	0.77233	-0.123
Mof_C 	C 	0.1653	0.7437	0.77097	0.274
Mof_C 	C 	0.3251	0.8313	0.73597	0.057
Mof_C 	C 	0.4188	0.9062	0.73907	-0.127
Mof_C 	C 	0.9156	0.554	0.65027	0.164
Mof_C 	C 	0.0115	0.6162	0.66302	-0.287
Mof_C 	C 	0.9646	0.5947	0.74993	-0.277
Mof_C 	C 	0.0363	0.6379	0.7134	0.282
Mof_C 	C 	0.3954	0.939	0.81837	-0.122
Mof_C 	C 	0.3024	0.8637	0.81527	0.058
Mof_C 	C 	0.453	0.9633	0.77736	0.061
Mof_C 	C 	0.8745	0.5312	0.73451	0.168
Mof_C 	C 	0.324	0.7399	0.40408	0.351
Mof_C 	C 	0.2822	0.7493	0.454	-0.119
Mof_C 	C 	0.2313	0.7968	0.45253	0.032
Mof_C 	C 	0.8157	0.5501	0.43899	-0.125
Mof_C 	C 	0.7437	0.5784	0.43763	0.274
Mof_C 	C 	0.8313	0.5062	0.40263	0.058
Mof_C 	C 	0.9062	0.4874	0.40573	-0.128
Mof_C 	C 	0.554	0.6384	0.31693	0.164
Mof_C 	C 	0.6162	0.6047	0.32968	-0.287
Mof_C 	C 	0.5947	0.6301	0.41659	-0.277
Mof_C 	C 	0.6379	0.6016	0.38006	0.282
Mof_C 	C 	0.939	0.5436	0.48503	-0.123
Mof_C 	C 	0.8637	0.5613	0.48193	0.059
Mof_C 	C 	0.9633	0.5103	0.44402	0.061
Mof_C 	C 	0.5312	0.6567	0.40117	0.168
Mof_C 	C 	0.2601	0.5841	0.07075	0.356
Mof_C 	C 	0.2507	0.5329	0.12067	-0.125
Mof_C 	C 	0.2032	0.4345	0.1192	0.036
Mof_C 	C 	0.4499	0.2656	0.10566	-0.124
Mof_C 	C 	0.4216	0.1653	0.1043	0.267
Mof_C 	C 	0.4938	0.3251	0.0693	0.055
Mof_C 	C 	0.5126	0.4188	0.0724	-0.128
Mof_C 	C 	0.3616	0.9156	0.9836	0.183
Mof_C 	C 	0.3953	0.0115	0.99635	-0.219
Mof_C 	C 	0.3699	0.9646	0.08326	-0.25
Mof_C 	C 	0.3984	0.0363	0.04673	0.217
Mof_C 	C 	0.4564	0.3954	0.1517	-0.122
Mof_C 	C 	0.4387	0.3024	0.1486	0.056
Mof_C 	C 	0.4897	0.453	0.11069	0.058
Mof_C 	C 	0.3433	0.8745	0.06784	0.147
Mof_C 	C 	0.4159	0.676	0.73742	0.35
Mof_C 	C 	0.4671	0.7178	0.78734	-0.116
Mof_C 	C 	0.5655	0.7687	0.78587	0.029
Mof_C 	C 	0.7344	0.1843	0.77233	-0.123
Mof_C 	C 	0.8347	0.2563	0.77097	0.274
Mof_C 	C 	0.6749	0.1687	0.73597	0.057
Mof_C 	C 	0.5812	0.0938	0.73907	-0.127
Mof_C 	C 	0.0844	0.446	0.65027	0.164
Mof_C 	C 	0.9885	0.3838	0.66302	-0.287
Mof_C 	C 	0.0354	0.4053	0.74993	-0.277
Mof_C 	C 	0.9637	0.3621	0.7134	0.282
Mof_C 	C 	0.6046	0.061	0.81837	-0.122
Mof_C 	C 	0.6976	0.1363	0.81527	0.058
Mof_C 	C 	0.547	0.0367	0.77736	0.061
Mof_C 	C 	0.1255	0.4688	0.73451	0.168
Mof_C 	C 	0.421	0.7105	0.83333	0.056
Mof_C 	C 	0.6141	0.80705	0.83333	-0.094
Mof_C 	C 	0.2895	0.579	0.16667	0.064
Mof_C 	C 	0.19295	0.3859	0.16667	-0.103
Mof_C 	C 	0.2895	0.7105	0.5	0.06
Mof_C 	C 	0.19295	0.80705	0.5	-0.098
Mof_C 	C 	0.579	0.2895	0.83333	0.056
Mof_C 	C 	0.3859	0.19295	0.83333	-0.094
Mof_C 	C 	0.7105	0.421	0.16667	0.064
Mof_C 	C 	0.80705	0.6141	0.16667	-0.103
Mof_C 	C 	0.7105	0.2895	0.5	0.06
Mof_C 	C 	0.80705	0.19295	0.5	-0.098
Mof_N 	N 	0.15083	0.66391	0.98145	-0.279
Mof_N 	N 	0.87194	0.57314	0.9412	-0.306
Mof_N 	N 	0.51308	0.84917	0.31478	-0.302
Mof_N 	N 	0.7012	0.12806	0.27453	-0.293
Mof_N 	N 	0.33609	0.48692	0.64812	-0.302
Mof_N 	N 	0.42686	0.2988	0.60787	-0.293
Mof_N 	N 	0.84917	0.33609	0.98145	-0.279
Mof_N 	N 	0.12806	0.42686	0.9412	-0.306
Mof_N 	N 	0.48692	0.15083	0.31478	-0.302
Mof_N 	N 	0.2988	0.87194	0.27453	-0.293
Mof_N 	N 	0.66391	0.51308	0.64812	-0.302
Mof_N 	N 	0.57314	0.7012	0.60787	-0.293
Mof_N 	N 	0.48692	0.33609	0.35188	-0.302
Mof_N 	N 	0.2988	0.42686	0.39213	-0.293
Mof_N 	N 	0.66391	0.15083	0.01855	-0.321
Mof_N 	N 	0.57314	0.87194	0.0588	-0.279
Mof_N 	N 	0.84917	0.51308	0.68522	-0.302
Mof_N 	N 	0.12806	0.7012	0.72547	-0.293
Mof_N 	N 	0.51308	0.66391	0.35188	-0.302
Mof_N 	N 	0.7012	0.57314	0.39213	-0.293
Mof_N 	N 	0.33609	0.84917	0.01855	-0.321
Mof_N 	N 	0.42686	0.12806	0.0588	-0.279
Mof_N 	N 	0.15083	0.48692	0.68522	-0.302
Mof_N 	N 	0.87194	0.2988	0.72547	-0.293
Mof_O 	O 	0.33028	0.70871	0.92834	-0.448
Mof_O 	O 	0.4613	0.76532	0.97143	-0.33
Mof_O 	O 	0.8826	0.6085	0.85653	-0.255
Mof_O 	O 	0.37843	0.66972	0.26167	-0.46
Mof_O 	O 	0.30402	0.5387	0.30476	-0.355
Mof_O 	O 	0.7259	0.1174	0.18986	-0.254
Mof_O 	O 	0.29129	0.62157	0.59501	-0.46
Mof_O 	O 	0.23468	0.69598	0.6381	-0.354
Mof_O 	O 	0.3915	0.2741	0.5232	-0.253
Mof_O 	O 	0.66972	0.29129	0.92834	-0.448
Mof_O 	O 	0.5387	0.23468	0.97143	-0.33
Mof_O 	O 	0.1174	0.3915	0.85653	-0.255
Mof_O 	O 	0.62157	0.33028	0.26167	-0.46
Mof_O 	O 	0.69598	0.4613	0.30476	-0.355
Mof_O 	O 	0.2741	0.8826	0.18986	-0.254
Mof_O 	O 	0.70871	0.37843	0.59501	-0.46
Mof_O 	O 	0.76532	0.30402	0.6381	-0.354
Mof_O 	O 	0.6085	0.7259	0.5232	-0.253
Mof_O 	O 	0.62157	0.29129	0.40499	-0.46
Mof_O 	O 	0.69598	0.23468	0.3619	-0.354
Mof_O 	O 	0.2741	0.3915	0.4768	-0.253
Mof_O 	O 	0.70871	0.33028	0.07166	-0.467
Mof_O 	O 	0.76532	0.4613	0.02857	-0.377
Mof_O 	O 	0.6085	0.8826	0.14347	-0.251
Mof_O 	O 	0.66972	0.37843	0.73833	-0.46
Mof_O 	O 	0.5387	0.30402	0.69524	-0.354
Mof_O 	O 	0.1174	0.7259	0.81014	-0.252
Mof_O 	O 	0.37843	0.70871	0.40499	-0.46
Mof_O 	O 	0.30402	0.76532	0.3619	-0.354
Mof_O 	O 	0.7259	0.6085	0.4768	-0.253
Mof_O 	O 	0.29129	0.66972	0.07166	-0.467
Mof_O 	O 	0.23468	0.5387	0.02857	-0.377
Mof_O 	O 	0.3915	0.1174	0.14347	-0.251
Mof_O 	O 	0.33028	0.62157	0.73833	-0.46
Mof_O 	O 	0.4613	0.69598	0.69524	-0.354
Mof_O 	O 	0.8826	0.2741	0.81014	-0.252
_end
