# CIF file generated by openbabel 3.1.0, see https://openbabel.org
data_I
_chemical_name_common 'image0'
_cell_length_a 11.614
_cell_length_b 16.0888
_cell_length_c 12.0204
_cell_angle_alpha 90
_cell_angle_beta 112.699
_cell_angle_gamma 90
_space_group_name_H-M_alt 'P 1'
_space_group_name_Hall 'P 1'
loop_
    _symmetry_equiv_pos_as_xyz
    x,y,z
loop_
    _atom_site_label
    _atom_site_type_symbol
    _atom_site_fract_x
    _atom_site_fract_y
    _atom_site_fract_z
    _atom_site_occupancy
    Er1      Er       0.19445    0.02789    0.57939    1.000
    S1       S        0.05297    0.21983    0.21461    1.000
    S2       S        0.49008    0.28376    0.75024    1.000
    O1       O        0.12760    0.07640    0.38260    1.000
    O2       O        0.93350    0.03000    0.34200    1.000
    O3       O        0.05880    0.36510    0.06930    1.000
    O4       O        0.85970    0.40410    0.02370    1.000
    O5       O        0.27510    0.10360    0.77880    1.000
    O6       O        0.33420    0.14050    0.63230    1.000
    O7       O        0.65020    0.43460    0.79390    1.000
    O8       O        0.62700    0.47750    0.95890    1.000
    C1       C        0.95730    0.15400    0.25020    1.000
    C2       C        0.83480    0.17770    0.19930    1.000
    H1       H        0.76940    0.14880    0.20790    1.000
    C3       C        0.82060    0.25120    0.13250    1.000
    H2       H        0.74400    0.27710    0.09330    1.000
    C4       C        0.92910    0.28080    0.13070    1.000
    C5       C        0.01090    0.08080    0.33010    1.000
    C6       C        0.95070    0.35610    0.06950    1.000
    C7       C        0.39330    0.22850    0.80110    1.000
    C8       C        0.38390    0.26530    0.90010    1.000
    H3       H        0.33620    0.24390    0.94020    1.000
    C9       C        0.45440    0.33900    0.93470    1.000
    H4       H        0.45670    0.37200    0.99910    1.000
    C10      C        0.51850    0.35680    0.86420    1.000
    C11      C        0.33080    0.15210    0.73480    1.000
    C12      C        0.60340    0.42670    0.87230    1.000
    Er2      Er       0.80555    0.52789    0.92061    1.000
    S3       S        0.94703    0.71983    0.28539    1.000
    S4       S        0.50992    0.78376    0.74976    1.000
    O9       O        0.87240    0.57640    0.11740    1.000
    O10      O        0.06650    0.53000    0.15800    1.000
    O11      O        0.94120    0.86510    0.43070    1.000
    O12      O        0.14030    0.90410    0.47630    1.000
    O13      O        0.72490    0.60360    0.72120    1.000
    O14      O        0.66580    0.64050    0.86770    1.000
    O15      O        0.34980    0.93460    0.70610    1.000
    O16      O        0.37300    0.97750    0.54110    1.000
    C13      C        0.04270    0.65400    0.24980    1.000
    C14      C        0.16520    0.67770    0.30070    1.000
    H5       H        0.23060    0.64880    0.29210    1.000
    C15      C        0.17940    0.75120    0.36750    1.000
    H6       H        0.25600    0.77710    0.40670    1.000
    C16      C        0.07090    0.78080    0.36930    1.000
    C17      C        0.98910    0.58080    0.16990    1.000
    C18      C        0.04930    0.85610    0.43050    1.000
    C19      C        0.60670    0.72850    0.69890    1.000
    C20      C        0.61610    0.76530    0.59990    1.000
    H7       H        0.66380    0.74390    0.55980    1.000
    C21      C        0.54560    0.83900    0.56530    1.000
    H8       H        0.54330    0.87200    0.50090    1.000
    C22      C        0.48150    0.85680    0.63580    1.000
    C23      C        0.66920    0.65210    0.76520    1.000
    C24      C        0.39660    0.92670    0.62770    1.000
    Er3      Er       0.80555    0.97211    0.42061    1.000
    S5       S        0.94703    0.78017    0.78539    1.000
    S6       S        0.50992    0.71624    0.24976    1.000
    O17      O        0.87240    0.92360    0.61740    1.000
    O18      O        0.06650    0.97000    0.65800    1.000
    O19      O        0.94120    0.63490    0.93070    1.000
    O20      O        0.14030    0.59590    0.97630    1.000
    O21      O        0.72490    0.89640    0.22120    1.000
    O22      O        0.66580    0.85950    0.36770    1.000
    O23      O        0.34980    0.56540    0.20610    1.000
    O24      O        0.37300    0.52250    0.04110    1.000
    C25      C        0.04270    0.84600    0.74980    1.000
    C26      C        0.16520    0.82230    0.80070    1.000
    H9       H        0.23060    0.85120    0.79210    1.000
    C27      C        0.17940    0.74880    0.86750    1.000
    H10      H        0.25600    0.72290    0.90670    1.000
    C28      C        0.07090    0.71920    0.86930    1.000
    C29      C        0.98910    0.91920    0.66990    1.000
    C30      C        0.04930    0.64390    0.93050    1.000
    C31      C        0.60670    0.77150    0.19890    1.000
    C32      C        0.61610    0.73470    0.09990    1.000
    H11      H        0.66380    0.75610    0.05980    1.000
    C33      C        0.54560    0.66100    0.06530    1.000
    H12      H        0.54330    0.62800    0.00090    1.000
    C34      C        0.48150    0.64320    0.13580    1.000
    C35      C        0.66920    0.84790    0.26520    1.000
    C36      C        0.39660    0.57330    0.12770    1.000
    Er4      Er       0.19445    0.47211    0.07939    1.000
    S7       S        0.05297    0.28017    0.71461    1.000
    S8       S        0.49008    0.21624    0.25024    1.000
    O25      O        0.12760    0.42360    0.88260    1.000
    O26      O        0.93350    0.47000    0.84200    1.000
    O27      O        0.05880    0.13490    0.56930    1.000
    O28      O        0.85970    0.09590    0.52370    1.000
    O29      O        0.27510    0.39640    0.27880    1.000
    O30      O        0.33420    0.35950    0.13230    1.000
    O31      O        0.65020    0.06540    0.29390    1.000
    O32      O        0.62700    0.02250    0.45890    1.000
    C37      C        0.95730    0.34600    0.75020    1.000
    C38      C        0.83480    0.32230    0.69930    1.000
    H13      H        0.76940    0.35120    0.70790    1.000
    C39      C        0.82060    0.24880    0.63250    1.000
    H14      H        0.74400    0.22290    0.59330    1.000
    C40      C        0.92910    0.21920    0.63070    1.000
    C41      C        0.01090    0.41920    0.83010    1.000
    C42      C        0.95070    0.14390    0.56950    1.000
    C43      C        0.39330    0.27150    0.30110    1.000
    C44      C        0.38390    0.23470    0.40010    1.000
    H15      H        0.33620    0.25610    0.44020    1.000
    C45      C        0.45440    0.16100    0.43470    1.000
    H16      H        0.45670    0.12800    0.49910    1.000
    C46      C        0.51850    0.14320    0.36420    1.000
    C47      C        0.33080    0.34790    0.23480    1.000
    C48      C        0.60340    0.07330    0.37230    1.000
