data_functionalizedCrystal
_audit_creation_method	'EQeq! by Chris Wilmer'
_symmetry_space_group_name_H-M	'P1'
_symmetry_Int_Tables_number	1
_symmetry_cell_setting	triclinic
loop_
_symmetry_equiv_pos_as_xyz
  x,y,z
_cell_length_a	5.682
_cell_length_b	13.702
_cell_length_c	28.274
_cell_angle_alpha	90
_cell_angle_beta	93.207
_cell_angle_gamma	90
loop_
_atom_site_label
_atom_site_type_symbol
_atom_site_fract_x
_atom_site_fract_y
_atom_site_fract_z
_atom_site_charge
Mof_Cu	Cu	0.04572	0.08696	0.03169	0.896
Mof_O 	O 	0.1838	0.9579	0.01809	-0.73
Mof_H 	H 	0.194	0.921	0.0423	0.258
Mof_O 	O 	0.2569	0.1122	0.0869	-0.42
Mof_O 	O 	0.5917	0.0389	0.06564	-0.467
Mof_O 	O 	0.2948	0.8084	0.47944	-0.28
Mof_O 	O 	0.5967	0.7134	0.45938	-0.382
Mof_N 	N 	0.8004	0.1483	0.22905	-0.133
Mof_N 	N 	0.8018	0.0299	0.39078	-0.144
Mof_C 	C 	0.4669	0.0835	0.09393	0.338
Mof_C 	C 	0.5849	0.1061	0.1425	-0.04
Mof_C 	C 	0.4861	0.1741	0.17203	-0.07
Mof_H 	H 	0.3466	0.2058	0.1626	0.065
Mof_C 	C 	0.5983	0.1937	0.21554	0.038
Mof_H 	H 	0.5332	0.2387	0.2357	0.014
Mof_C 	C 	0.897	0.0821	0.20102	0.071
Mof_H 	H 	0.035	0.0503	0.2114	-0.01
Mof_C 	C 	0.793	0.0608	0.15688	-0.076
Mof_H 	H 	0.8628	0.0164	0.1371	0.049
Mof_C 	C 	0.9108	0.1669	0.27741	0.032
Mof_H 	H 	0.8853	0.2341	0.2866	0.022
Mof_H 	H 	0.0792	0.1551	0.2778	0.005
Mof_C 	C 	0.7975	0.0982	0.31152	-0.197
Mof_H 	H 	0.6297	0.1116	0.3112	0.087
Mof_H 	H 	0.8176	0.0315	0.301	0.09
Mof_C 	C 	0.9028	0.1086	0.36167	0.035
Mof_H 	H 	0.073	0.1025	0.3621	0.001
Mof_H 	H 	0.8646	0.1721	0.3743	0.018
Mof_C 	C 	0.6108	0.0461	0.4158	0.002
Mof_H 	H 	0.5488	0.1088	0.4172	0.028
Mof_C 	C 	0.5064	0.9719	0.43922	-0.03
Mof_H 	H 	0.3738	0.9838	0.4562	0.067
Mof_C 	C 	0.6009	0.8788	0.43732	-0.017
Mof_C 	C 	0.8012	0.8629	0.41215	-0.095
Mof_H 	H 	0.8685	0.8011	0.411	0.093
Mof_C 	C 	0.8966	0.9398	0.38924	0.115
Mof_H 	H 	0.0299	0.9299	0.3722	-0.006
Mof_C 	C 	0.4851	0.7939	0.46087	0.303
Mof_Cu	Cu	0.45428	0.58696	0.46831	0.908
Mof_O 	O 	0.3162	0.4579	0.48191	-0.741
Mof_H 	H 	0.306	0.421	0.4577	0.252
Mof_O 	O 	0.2431	0.6122	0.4131	-0.402
Mof_O 	O 	0.9083	0.5389	0.43436	-0.431
Mof_O 	O 	0.2052	0.3084	0.02056	-0.282
Mof_O 	O 	0.9033	0.2134	0.04062	-0.376
Mof_N 	N 	0.6996	0.6483	0.27095	-0.133
Mof_N 	N 	0.6982	0.5299	0.10922	-0.122
Mof_C 	C 	0.0331	0.5835	0.40607	0.287
Mof_C 	C 	0.9151	0.6061	0.3575	0.028
Mof_C 	C 	0.0139	0.6741	0.32797	-0.152
Mof_H 	H 	0.1534	0.7058	0.3374	0.094
Mof_C 	C 	0.9017	0.6937	0.28446	0.092
Mof_H 	H 	0.9668	0.7387	0.2643	0.006
Mof_C 	C 	0.603	0.5821	0.29898	0.056
Mof_H 	H 	0.465	0.5503	0.2886	0.01
Mof_C 	C 	0.707	0.5608	0.34312	-0.098
Mof_H 	H 	0.6372	0.5164	0.3629	0.059
Mof_C 	C 	0.5892	0.6669	0.22259	-0.025
Mof_H 	H 	0.6147	0.7341	0.2134	0.039
Mof_H 	H 	0.4208	0.6551	0.2222	0.035
Mof_C 	C 	0.7025	0.5982	0.18848	-0.152
Mof_H 	H 	0.8703	0.6116	0.1888	0.081
Mof_H 	H 	0.6824	0.5315	0.199	0.082
Mof_C 	C 	0.5972	0.6086	0.13833	-0.024
Mof_H 	H 	0.427	0.6025	0.1379	0.034
Mof_H 	H 	0.6354	0.6721	0.1257	0.034
Mof_C 	C 	0.8892	0.5461	0.0842	0.042
Mof_H 	H 	0.9512	0.6088	0.0828	0.019
Mof_C 	C 	0.9936	0.4719	0.06078	-0.065
Mof_H 	H 	0.1262	0.4838	0.0438	0.061
Mof_C 	C 	0.8991	0.3788	0.06268	-0.01
Mof_C 	C 	0.6988	0.3629	0.08785	-0.076
Mof_H 	H 	0.6315	0.3011	0.089	0.081
Mof_C 	C 	0.6034	0.4398	0.11076	0.047
Mof_H 	H 	0.4701	0.4299	0.1278	0.018
Mof_C 	C 	0.0149	0.2939	0.03913	0.281
Mof_Cu	Cu	0.95428	0.91304	0.96831	0.92
Mof_O 	O 	0.8162	0.0421	0.98191	-0.736
Mof_H 	H 	0.806	0.079	0.9577	0.251
Mof_O 	O 	0.7431	0.8878	0.9131	-0.408
Mof_O 	O 	0.4083	0.9611	0.93436	-0.438
Mof_O 	O 	0.7052	0.1916	0.52056	-0.276
Mof_O 	O 	0.4033	0.2866	0.54062	-0.384
Mof_N 	N 	0.1996	0.8517	0.77095	-0.118
Mof_N 	N 	0.1982	0.9701	0.60922	-0.11
Mof_C 	C 	0.5331	0.9165	0.90607	0.341
Mof_C 	C 	0.4151	0.8939	0.8575	-0.043
Mof_C 	C 	0.5139	0.8259	0.82797	-0.062
Mof_H 	H 	0.6534	0.7942	0.8374	0.065
Mof_C 	C 	0.4017	0.8063	0.78446	0.033
Mof_H 	H 	0.4668	0.7613	0.7643	0.017
Mof_C 	C 	0.103	0.9179	0.79898	0.033
Mof_H 	H 	0.965	0.9497	0.7886	0.024
Mof_C 	C 	0.207	0.9392	0.84312	-0.053
Mof_H 	H 	0.1372	0.9836	0.8629	0.051
Mof_C 	C 	0.0892	0.8331	0.72259	-0.032
Mof_H 	H 	0.1147	0.7659	0.7134	0.036
Mof_H 	H 	0.9208	0.8449	0.7222	0.04
Mof_C 	C 	0.2025	0.9018	0.68848	-0.145
Mof_H 	H 	0.3703	0.8884	0.6888	0.078
Mof_H 	H 	0.1824	0.9685	0.699	0.086
Mof_C 	C 	0.0972	0.8914	0.63833	-0.034
Mof_H 	H 	0.927	0.8975	0.6379	0.047
Mof_H 	H 	0.1354	0.8279	0.6257	0.035
Mof_C 	C 	0.3892	0.9539	0.5842	0.105
Mof_H 	H 	0.4512	0.8912	0.5828	0.001
Mof_C 	C 	0.4936	0.0281	0.56078	-0.138
Mof_H 	H 	0.6262	0.0162	0.5438	0.087
Mof_C 	C 	0.3991	0.1212	0.56268	-0.007
Mof_C 	C 	0.1988	0.1371	0.58785	-0.062
Mof_H 	H 	0.1315	0.1989	0.589	0.071
Mof_C 	C 	0.1034	0.0602	0.61076	-0.008
Mof_H 	H 	0.9701	0.0701	0.6278	0.036
Mof_C 	C 	0.5149	0.2061	0.53913	0.295
Mof_Cu	Cu	0.54572	0.41304	0.53169	0.91
Mof_O 	O 	0.6838	0.5421	0.51809	-0.738
Mof_H 	H 	0.694	0.579	0.5423	0.256
Mof_O 	O 	0.7569	0.3878	0.5869	-0.419
Mof_O 	O 	0.0917	0.4611	0.56564	-0.471
Mof_O 	O 	0.7948	0.6916	0.97944	-0.27
Mof_O 	O 	0.0967	0.7866	0.95938	-0.379
Mof_N 	N 	0.3004	0.3517	0.72905	-0.112
Mof_N 	N 	0.3018	0.4701	0.89078	-0.124
Mof_C 	C 	0.9669	0.4165	0.59393	0.371
Mof_C 	C 	0.0849	0.3939	0.6425	-0.081
Mof_C 	C 	0.9861	0.3259	0.67203	-0.026
Mof_H 	H 	0.8466	0.2942	0.6626	0.053
Mof_C 	C 	0.0983	0.3063	0.71554	0.008
Mof_H 	H 	0.0332	0.2613	0.7357	0.021
Mof_C 	C 	0.397	0.4179	0.70102	0.014
Mof_H 	H 	0.535	0.4497	0.7114	0.027
Mof_C 	C 	0.293	0.4392	0.65688	-0.03
Mof_H 	H 	0.3628	0.4836	0.6371	0.036
Mof_C 	C 	0.4108	0.3331	0.77741	-0.031
Mof_H 	H 	0.3853	0.2659	0.7866	0.032
Mof_H 	H 	0.5792	0.3449	0.7778	0.037
Mof_C 	C 	0.2975	0.4018	0.81152	-0.148
Mof_H 	H 	0.1297	0.3884	0.8112	0.075
Mof_H 	H 	0.3176	0.4685	0.801	0.08
Mof_C 	C 	0.4028	0.3914	0.86167	-0.025
Mof_H 	H 	0.573	0.3975	0.8621	0.037
Mof_H 	H 	0.3646	0.3279	0.8743	0.032
Mof_C 	C 	0.1108	0.4539	0.9158	0.057
Mof_H 	H 	0.0488	0.3912	0.9172	0.015
Mof_C 	C 	0.0064	0.5281	0.93922	-0.088
Mof_H 	H 	0.8738	0.5162	0.9562	0.085
Mof_C 	C 	0.1009	0.6212	0.93732	-0.009
Mof_C 	C 	0.3012	0.6371	0.91215	-0.075
Mof_H 	H 	0.3685	0.6989	0.911	0.081
Mof_C 	C 	0.3966	0.5602	0.88924	0.049
Mof_H 	H 	0.5299	0.5701	0.8722	0.019
Mof_C 	C 	0.9851	0.7061	0.96087	0.301
Mof_Cu	Cu	0.5	0	-0	0.865
Mof_Cu	Cu	9.8505e-33	0.5	0.5	0.88
_end
