data_functionalizedCrystal
_audit_creation_method	'EQeq! by Chris Wilmer'
_symmetry_space_group_name_H-M	'P1'
_symmetry_Int_Tables_number	1
_symmetry_cell_setting	triclinic
loop_
_symmetry_equiv_pos_as_xyz
  x,y,z
_cell_length_a	9.0659
_cell_length_b	9.0659
_cell_length_c	21.7273
_cell_angle_alpha	90
_cell_angle_beta	90
_cell_angle_gamma	120
loop_
_atom_site_label
_atom_site_type_symbol
_atom_site_fract_x
_atom_site_fract_y
_atom_site_fract_z
_atom_site_charge
Mof_Mn	Mn	0.02195	0.03919	0.91706	1.006
Mof_Mn	Mn	0.01724	0.97805	0.58373	0.994
Mof_Mn	Mn	0.96081	0.98276	0.25039	1
Mof_Mn	Mn	0.98276	0.96081	0.08294	0.998
Mof_Mn	Mn	0.03919	0.02195	0.41627	1.013
Mof_Mn	Mn	0.97805	0.01724	0.74961	0.994
Mof_H 	H 	0.364	0.132	0.8676	0.23
Mof_H 	H 	0.101	0.374	0.9695	0.232
Mof_H 	H 	0.5812	0.0851	0.9113	0.092
Mof_H 	H 	0.0612	0.5958	0.9243	0.094
Mof_H 	H 	0.768	0.636	0.53427	0.23
Mof_H 	H 	0.273	0.899	0.63617	0.232
Mof_H 	H 	0.5039	0.4188	0.57797	0.092
Mof_H 	H 	0.5346	0.9388	0.59097	0.095
Mof_H 	H 	0.868	0.232	0.20093	0.23
Mof_H 	H 	0.626	0.727	0.30283	0.232
Mof_H 	H 	0.9149	0.4961	0.24463	0.092
Mof_H 	H 	0.4042	0.4654	0.25763	0.095
Mof_H 	H 	0.232	0.868	0.1324	0.23
Mof_H 	H 	0.727	0.626	0.0305	0.232
Mof_H 	H 	0.4961	0.9149	0.0887	0.092
Mof_H 	H 	0.4654	0.4042	0.0757	0.095
Mof_H 	H 	0.132	0.364	0.46573	0.231
Mof_H 	H 	0.374	0.101	0.36383	0.233
Mof_H 	H 	0.0851	0.5812	0.42203	0.091
Mof_H 	H 	0.5958	0.0612	0.40903	0.094
Mof_H 	H 	0.636	0.768	0.79907	0.23
Mof_H 	H 	0.899	0.273	0.69717	0.232
Mof_H 	H 	0.4188	0.5039	0.75537	0.092
Mof_H 	H 	0.9388	0.5346	0.74237	0.095
Mof_C 	C 	0.3622	0.055	0.94849	0.173
Mof_C 	C 	0.5126	0.0521	0.94734	-0.167
Mof_C 	C 	0.0416	0.3813	0.88668	0.185
Mof_C 	C 	0.038	0.5319	0.8874	-0.169
Mof_C 	C 	0.6928	0.6378	0.61516	0.178
Mof_C 	C 	0.5395	0.4874	0.61401	-0.163
Mof_C 	C 	0.3397	0.9584	0.55335	0.182
Mof_C 	C 	0.4939	0.962	0.55407	-0.169
Mof_C 	C 	0.945	0.3072	0.28182	0.172
Mof_C 	C 	0.9479	0.4605	0.28067	-0.163
Mof_C 	C 	0.6187	0.6603	0.22001	0.186
Mof_C 	C 	0.4681	0.5061	0.22073	-0.17
Mof_C 	C 	0.3072	0.945	0.05151	0.171
Mof_C 	C 	0.4605	0.9479	0.05266	-0.166
Mof_C 	C 	0.6603	0.6187	0.11332	0.186
Mof_C 	C 	0.5061	0.4681	0.1126	-0.17
Mof_C 	C 	0.055	0.3622	0.38484	0.176
Mof_C 	C 	0.0521	0.5126	0.38599	-0.163
Mof_C 	C 	0.3813	0.0416	0.44665	0.186
Mof_C 	C 	0.5319	0.038	0.44593	-0.169
Mof_C 	C 	0.6378	0.6928	0.71818	0.178
Mof_C 	C 	0.4874	0.5395	0.71933	-0.163
Mof_C 	C 	0.9584	0.3397	0.77999	0.183
Mof_C 	C 	0.962	0.4939	0.77927	-0.168
Mof_C 	C 	0.2557	0	-0	0.033
Mof_C 	C 	0.7257	0	-0	0.317
Mof_C 	C 	0.563	0	-0	0.016
Mof_C 	C 	0.7443	0.7443	0.66667	0.024
Mof_C 	C 	0.2743	0.2743	0.66667	0.32
Mof_C 	C 	0.437	0.437	0.66667	0.01
Mof_C 	C 	1.24346e-17	0.2557	0.33333	0.029
Mof_C 	C 	-2.43209e-17	0.7257	0.33333	0.318
Mof_C 	C 	-2.43209e-17	0.563	0.33333	0.011
Mof_C 	C 	-2.40482e-17	0.2827	0.83333	0.018
Mof_C 	C 	-1.7107e-16	0.7527	0.83333	0.32
Mof_C 	C 	-6.08037e-17	0.5891	0.83333	0.015
Mof_C 	C 	0.2827	0	0.5	0.018
Mof_C 	C 	0.7527	0	0.5	0.321
Mof_C 	C 	0.5891	0	0.5	0.015
Mof_C 	C 	0.7173	0.7173	0.16667	0.015
Mof_C 	C 	0.2473	0.2473	0.16667	0.321
Mof_C 	C 	0.4109	0.4109	0.16667	0.017
Mof_O 	O 	0.3016	0.1096	0.90024	-0.453
Mof_O 	O 	0.771	0.9592	0.95048	-0.366
Mof_O 	O 	0.0832	0.3146	0.93632	-0.458
Mof_O 	O 	0.9481	0.7919	0.88141	-0.368
Mof_O 	O 	0.808	0.6984	0.56691	-0.451
Mof_O 	O 	0.1882	0.229	0.61715	-0.366
Mof_O 	O 	0.2314	0.9168	0.60299	-0.458
Mof_O 	O 	0.8438	0.0519	0.54808	-0.37
Mof_O 	O 	0.8904	0.192	0.23357	-0.453
Mof_O 	O 	0.0408	0.8118	0.28381	-0.37
Mof_O 	O 	0.6854	0.7686	0.26965	-0.458
Mof_O 	O 	0.2081	0.1562	0.21474	-0.365
Mof_O 	O 	0.192	0.8904	0.09976	-0.452
Mof_O 	O 	0.8118	0.0408	0.04952	-0.368
Mof_O 	O 	0.7686	0.6854	0.06368	-0.458
Mof_O 	O 	0.1562	0.2081	0.11859	-0.364
Mof_O 	O 	0.1096	0.3016	0.43309	-0.453
Mof_O 	O 	0.9592	0.771	0.38285	-0.369
Mof_O 	O 	0.3146	0.0832	0.39701	-0.458
Mof_O 	O 	0.7919	0.9481	0.45192	-0.37
Mof_O 	O 	0.6984	0.808	0.76643	-0.45
Mof_O 	O 	0.229	0.1882	0.71619	-0.366
Mof_O 	O 	0.9168	0.2314	0.73035	-0.458
Mof_O 	O 	0.0519	0.8438	0.78526	-0.369
Mof_O 	O 	0.109	0	-0	-0.386
Mof_O 	O 	0.891	0.891	0.66667	-0.384
Mof_O 	O 	-5.94314e-18	0.109	0.33333	-0.388
Mof_O 	O 	-5.67046e-18	0.1351	0.83333	-0.387
Mof_O 	O 	0.1351	0	0.5	-0.387
Mof_O 	O 	0.8649	0.8649	0.16667	-0.389
_end
