# CIF file generated by openbabel 3.1.0, see https://openbabel.org
data_I
_chemical_name_common 'image0'
_cell_length_a 8.166
_cell_length_b 22.154
_cell_length_c 18.475
_cell_angle_alpha 90
_cell_angle_beta 98.7
_cell_angle_gamma 90
_space_group_name_H-M_alt 'P 1'
_space_group_name_Hall 'P 1'
loop_
    _symmetry_equiv_pos_as_xyz
    x,y,z
loop_
    _atom_site_label
    _atom_site_type_symbol
    _atom_site_fract_x
    _atom_site_fract_y
    _atom_site_fract_z
    _atom_site_occupancy
    Cd1      Cd       0.55913    0.12350    0.16896    1.000
    Cd2      Cd       0.71047    0.95900    0.40147    1.000
    Cd3      Cd       0.84852    0.15978    0.75748    1.000
    C1       C        0.94540    0.99210    0.48020    1.000
    C2       C        0.53830    0.99140    0.47920    1.000
    C3       C        0.91000    0.11260    0.86610    1.000
    N1       N        0.94300    0.08150    0.91130    1.000
    C4       C        0.81800    0.04700    0.07040    1.000
    N2       N        0.75700    0.06360    0.09130    1.000
    C5       C        0.33450    0.08300    0.10220    1.000
    N3       N        0.22830    0.05870    0.06920    1.000
    C6       C        0.65030    0.06990    0.26820    1.000
    N4       N        0.68640    0.03880    0.31750    1.000
    C7       C        0.03880    0.11910    0.69690    1.000
    N5       N        0.87590    0.90520    0.33290    1.000
    C8       C        0.67100    0.20660    0.13100    1.000
    N6       N        0.72800    0.24810    0.11120    1.000
    C9       C        0.86990    0.25900    0.75140    1.000
    C10      C        0.61460    0.11690    0.70590    1.000
    N7       N        0.48800    0.91100    0.32290    1.000
    N8       N        0.10580    0.69310    0.25950    1.000
    Cd4      Cd       0.44087    0.87650    0.83104    1.000
    Cd5      Cd       0.28953    0.04100    0.59853    1.000
    Cd6      Cd       0.15148    0.84022    0.24252    1.000
    C11      C        0.05460    0.00790    0.51980    1.000
    C12      C        0.46170    0.00860    0.52080    1.000
    C13      C        0.09000    0.88740    0.13390    1.000
    N9       N        0.05700    0.91850    0.08870    1.000
    C14      C        0.18200    0.95300    0.92960    1.000
    N10      N        0.24300    0.93640    0.90870    1.000
    C15      C        0.66550    0.91700    0.89780    1.000
    N11      N        0.77170    0.94130    0.93080    1.000
    C16      C        0.34970    0.93010    0.73180    1.000
    N12      N        0.31360    0.96120    0.68250    1.000
    C17      C        0.96120    0.88090    0.30310    1.000
    N13      N        0.12410    0.09480    0.66710    1.000
    C18      C        0.32900    0.79340    0.86900    1.000
    N14      N        0.27200    0.75190    0.88880    1.000
    C19      C        0.13010    0.74100    0.24860    1.000
    C20      C        0.38540    0.88310    0.29410    1.000
    N15      N        0.51200    0.08900    0.67710    1.000
    N16      N        0.89420    0.30690    0.74050    1.000
    Cd7      Cd       0.00000    0.00000    0.00000    1.000
    N17      N        0.39420    0.19310    0.24050    1.000
    Cd8      Cd       0.94087    0.62350    0.33104    1.000
    Cd9      Cd       0.78953    0.45900    0.09853    1.000
    Cd10     Cd       0.65148    0.65978    0.74252    1.000
    C21      C        0.55460    0.49210    0.01980    1.000
    C22      C        0.96170    0.49140    0.02080    1.000
    C23      C        0.59000    0.61260    0.63390    1.000
    N18      N        0.55700    0.58150    0.58870    1.000
    C24      C        0.68200    0.54700    0.42960    1.000
    N19      N        0.74300    0.56360    0.40870    1.000
    C25      C        0.16550    0.58300    0.39780    1.000
    N20      N        0.27170    0.55870    0.43080    1.000
    C26      C        0.84970    0.56990    0.23180    1.000
    N21      N        0.81360    0.53880    0.18250    1.000
    C27      C        0.46120    0.61910    0.80310    1.000
    N22      N        0.62410    0.40520    0.16710    1.000
    C28      C        0.82900    0.70660    0.36900    1.000
    N23      N        0.77200    0.74810    0.38880    1.000
    C29      C        0.63010    0.75900    0.74860    1.000
    C30      C        0.88540    0.61690    0.79410    1.000
    N24      N        0.01200    0.41100    0.17710    1.000
    N25      N        0.60580    0.80690    0.75950    1.000
    Cd11     Cd       0.05913    0.37650    0.66896    1.000
    Cd12     Cd       0.21047    0.54100    0.90147    1.000
    Cd13     Cd       0.34852    0.34022    0.25748    1.000
    C31      C        0.44540    0.50790    0.98020    1.000
    C32      C        0.03830    0.50860    0.97920    1.000
    C33      C        0.41000    0.38740    0.36610    1.000
    N26      N        0.44300    0.41850    0.41130    1.000
    C34      C        0.31800    0.45300    0.57040    1.000
    N27      N        0.25700    0.43640    0.59130    1.000
    C35      C        0.83450    0.41700    0.60220    1.000
    N28      N        0.72830    0.44130    0.56920    1.000
    C36      C        0.15030    0.43010    0.76820    1.000
    N29      N        0.18640    0.46120    0.81750    1.000
    C37      C        0.53880    0.38090    0.19690    1.000
    N30      N        0.37590    0.59480    0.83290    1.000
    C38      C        0.17100    0.29340    0.63100    1.000
    N31      N        0.22800    0.25190    0.61120    1.000
    C39      C        0.36990    0.24100    0.25140    1.000
    C40      C        0.11460    0.38310    0.20590    1.000
    N32      N        0.98800    0.58900    0.82290    1.000
    Cd14     Cd       0.50000    0.50000    0.50000    1.000
