data_functionalizedCrystal
_audit_creation_method	'EQeq! by Chris Wilmer'
_symmetry_space_group_name_H-M	'P1'
_symmetry_Int_Tables_number	1
_symmetry_cell_setting	triclinic
loop_
_symmetry_equiv_pos_as_xyz
  x,y,z
_cell_length_a	53.0132
_cell_length_b	53.0132
_cell_length_c	53.0132
_cell_angle_alpha	60
_cell_angle_beta	60
_cell_angle_gamma	60
loop_
_atom_site_label
_atom_site_type_symbol
_atom_site_fract_x
_atom_site_fract_y
_atom_site_fract_z
_atom_site_charge
Mof_N 	N 	0.70195	0.48317	0.65703	-0.139
Mof_C 	C 	0.68661	0.48305	0.68627	0.102
Mof_N 	N 	0.73033	0.49249	0.72839	-0.239
Mof_C 	C 	0.74636	0.48368	0.70376	0.081
Mof_H 	H 	0.7681	0.4793	0.6957	-0.007
Mof_C 	C 	0.73343	0.48047	0.68897	-0.129
Mof_H 	H 	0.7458	0.475	0.6708	0.083
Mof_C 	C 	0.70267	0.48523	0.70085	0.06
Mof_C 	C 	0.68522	0.49454	0.72674	-0.123
Mof_H 	H 	0.6636	0.4984	0.7354	0.082
Mof_C 	C 	0.70001	0.49805	0.73955	0.073
Mof_H 	H 	0.688	0.5048	0.757	-0.006
Mof_N 	N 	0.79014	0.50098	0.71132	-0.258
Mof_C 	C 	0.80874	0.51038	0.68992	0.098
Mof_S 	S 	0.83426	0.52576	0.65934	-0.051
Mof_N 	N 	0.77266	0.4503	0.76928	-0.236
Mof_C 	C 	0.79594	0.43402	0.751	0.072
Mof_H 	H 	0.8019	0.4443	0.7293	-0.004
Mof_C 	C 	0.81176	0.403	0.762	-0.121
Mof_H 	H 	0.8284	0.3924	0.7482	0.08
Mof_C 	C 	0.80299	0.38779	0.79333	0.056
Mof_C 	C 	0.77793	0.40423	0.81293	-0.12
Mof_H 	H 	0.7706	0.3942	0.8346	0.081
Mof_C 	C 	0.76438	0.43502	0.79998	0.071
Mof_H 	H 	0.7481	0.4465	0.8133	-0.003
Mof_C 	C 	0.82022	0.31032	0.84686	0.102
Mof_N 	N 	0.80372	0.3392	0.83448	-0.138
Mof_C 	C 	0.81966	0.35506	0.80714	0.1
Mof_N 	N 	0.84987	0.34389	0.79179	-0.137
Mof_C 	C 	0.86374	0.31434	0.80636	0.103
Mof_N 	N 	0.85026	0.29652	0.83352	-0.139
Mof_N 	N 	0.7739	0.26526	0.93968	-0.235
Mof_C 	C 	0.75818	0.29034	0.92152	0.066
Mof_H 	H 	0.7364	0.2986	0.9302	-0.003
Mof_C 	C 	0.7724	0.30462	0.89082	-0.116
Mof_H 	H 	0.7606	0.3224	0.8786	0.08
Mof_C 	C 	0.80414	0.29274	0.87808	0.054
Mof_C 	C 	0.82017	0.26585	0.89619	-0.12
Mof_H 	H 	0.8418	0.2564	0.8878	0.08
Mof_C 	C 	0.80425	0.25295	0.92657	0.072
Mof_H 	H 	0.8154	0.2344	0.9388	-0.002
Mof_N 	N 	0.96071	0.27315	0.76587	-0.233
Mof_C 	C 	0.94239	0.25625	0.78779	0.071
Mof_H 	H 	0.9516	0.2344	0.7942	-0.003
Mof_C 	C 	0.91133	0.26853	0.80143	-0.119
Mof_H 	H 	0.8995	0.2555	0.8173	0.081
Mof_C 	C 	0.8974	0.30036	0.79174	0.053
Mof_C 	C 	0.91577	0.31841	0.76767	-0.117
Mof_H 	H 	0.9068	0.3402	0.7596	0.079
Mof_C 	C 	0.94703	0.30395	0.75595	0.069
Mof_H 	H 	0.9595	0.3163	0.7401	-0.002
Mof_N 	N 	0.71468	0.29228	0.98648	-0.254
Mof_C 	C 	0.70922	0.31912	0.97692	0.084
Mof_S 	S 	0.70247	0.35605	0.96377	-0.048
Mof_N 	N 	0.48317	0.70195	0.65785	-0.139
Mof_C 	C 	0.48305	0.68661	0.64407	0.102
Mof_N 	N 	0.49249	0.73033	0.54879	-0.239
Mof_C 	C 	0.48368	0.74636	0.5662	0.081
Mof_H 	H 	0.4793	0.7681	0.5569	-0.007
Mof_C 	C 	0.48047	0.73343	0.59713	-0.129
Mof_H 	H 	0.475	0.7458	0.6084	0.083
Mof_C 	C 	0.48523	0.70267	0.61125	0.06
Mof_C 	C 	0.49454	0.68522	0.5935	-0.123
Mof_H 	H 	0.4984	0.6636	0.6026	0.082
Mof_C 	C 	0.49805	0.70001	0.56239	0.073
Mof_H 	H 	0.5048	0.688	0.5502	-0.006
Mof_N 	N 	0.50098	0.79014	0.49756	-0.258
Mof_C 	C 	0.51038	0.80874	0.49096	0.098
Mof_S 	S 	0.52576	0.83426	0.48064	-0.051
Mof_N 	N 	0.4503	0.77266	0.50776	-0.236
Mof_C 	C 	0.43402	0.79594	0.51904	0.072
Mof_H 	H 	0.4443	0.8019	0.5245	-0.004
Mof_C 	C 	0.403	0.81176	0.52324	-0.122
Mof_H 	H 	0.3924	0.8284	0.531	0.079
Mof_C 	C 	0.38779	0.80299	0.51589	0.055
Mof_C 	C 	0.40423	0.77793	0.50491	-0.121
Mof_H 	H 	0.3942	0.7706	0.5006	0.08
Mof_C 	C 	0.43502	0.76438	0.50062	0.07
Mof_H 	H 	0.4465	0.7481	0.4921	-0.004
Mof_C 	C 	0.31032	0.82022	0.5226	0.101
Mof_N 	N 	0.3392	0.80372	0.5226	-0.139
Mof_C 	C 	0.35506	0.81966	0.51814	0.099
Mof_N 	N 	0.34389	0.84987	0.51445	-0.138
Mof_C 	C 	0.31434	0.86374	0.51556	0.102
Mof_N 	N 	0.29652	0.85026	0.5197	-0.14
Mof_N 	N 	0.26526	0.7739	0.52116	-0.236
Mof_C 	C 	0.29034	0.75818	0.52996	0.065
Mof_H 	H 	0.2986	0.7364	0.5348	-0.004
Mof_C 	C 	0.30462	0.7724	0.53216	-0.117
Mof_H 	H 	0.3224	0.7606	0.5384	0.079
Mof_C 	C 	0.29274	0.80414	0.52504	0.053
Mof_C 	C 	0.26585	0.82017	0.51779	-0.121
Mof_H 	H 	0.2564	0.8418	0.514	0.079
Mof_C 	C 	0.25295	0.80425	0.51623	0.071
Mof_H 	H 	0.2344	0.8154	0.5114	-0.003
Mof_N 	N 	0.27315	0.96071	0.50027	-0.234
Mof_C 	C 	0.25625	0.94239	0.51357	0.07
Mof_H 	H 	0.2344	0.9516	0.5198	-0.004
Mof_C 	C 	0.26853	0.91133	0.51871	-0.12
Mof_H 	H 	0.2555	0.8995	0.5277	0.08
Mof_C 	C 	0.30036	0.8974	0.5105	0.052
Mof_C 	C 	0.31841	0.91577	0.49815	-0.118
Mof_H 	H 	0.3402	0.9068	0.4934	0.078
Mof_C 	C 	0.30395	0.94703	0.49307	0.068
Mof_H 	H 	0.3163	0.9595	0.4841	-0.003
Mof_N 	N 	0.29228	0.71468	0.50656	-0.255
Mof_C 	C 	0.31912	0.70922	0.49474	0.083
Mof_S 	S 	0.35605	0.70247	0.47771	-0.049
Mof_N 	N 	0.65703	0.65785	0.70195	-0.14
Mof_C 	C 	0.68627	0.64407	0.68661	0.101
Mof_N 	N 	0.72839	0.54879	0.73033	-0.24
Mof_C 	C 	0.70376	0.5662	0.74636	0.08
Mof_H 	H 	0.6957	0.5569	0.7681	-0.008
Mof_C 	C 	0.68897	0.59713	0.73343	-0.13
Mof_H 	H 	0.6708	0.6084	0.7458	0.082
Mof_C 	C 	0.70085	0.61125	0.70267	0.059
Mof_C 	C 	0.72674	0.5935	0.68522	-0.124
Mof_H 	H 	0.7354	0.6026	0.6636	0.081
Mof_C 	C 	0.73955	0.56239	0.70001	0.072
Mof_H 	H 	0.757	0.5502	0.688	-0.007
Mof_N 	N 	0.71132	0.49756	0.79014	-0.259
Mof_C 	C 	0.68992	0.49096	0.80874	0.097
Mof_S 	S 	0.65934	0.48064	0.83426	-0.052
Mof_N 	N 	0.76928	0.50776	0.77266	-0.237
Mof_C 	C 	0.751	0.51904	0.79594	0.071
Mof_H 	H 	0.7293	0.5245	0.8019	-0.005
Mof_C 	C 	0.762	0.52324	0.81176	-0.122
Mof_H 	H 	0.7482	0.531	0.8284	0.079
Mof_C 	C 	0.79333	0.51589	0.80299	0.055
Mof_C 	C 	0.81293	0.50491	0.77793	-0.121
Mof_H 	H 	0.8346	0.5006	0.7706	0.08
Mof_C 	C 	0.79998	0.50062	0.76438	0.07
Mof_H 	H 	0.8133	0.4921	0.7481	-0.004
Mof_C 	C 	0.84686	0.5226	0.82022	0.101
Mof_N 	N 	0.83448	0.5226	0.80372	-0.139
Mof_C 	C 	0.80714	0.51814	0.81966	0.099
Mof_N 	N 	0.79179	0.51445	0.84987	-0.138
Mof_C 	C 	0.80636	0.51556	0.86374	0.102
Mof_N 	N 	0.83352	0.5197	0.85026	-0.14
Mof_N 	N 	0.93968	0.52116	0.7739	-0.236
Mof_C 	C 	0.92152	0.52996	0.75818	0.065
Mof_H 	H 	0.9302	0.5348	0.7364	-0.004
Mof_C 	C 	0.89082	0.53216	0.7724	-0.117
Mof_H 	H 	0.8786	0.5384	0.7606	0.079
Mof_C 	C 	0.87808	0.52504	0.80414	0.053
Mof_C 	C 	0.89619	0.51779	0.82017	-0.121
Mof_H 	H 	0.8878	0.514	0.8418	0.079
Mof_C 	C 	0.92657	0.51623	0.80425	0.071
Mof_H 	H 	0.9388	0.5114	0.8154	-0.003
Mof_N 	N 	0.76587	0.50027	0.96071	-0.234
Mof_C 	C 	0.78779	0.51357	0.94239	0.07
Mof_H 	H 	0.7942	0.5198	0.9516	-0.004
Mof_C 	C 	0.80143	0.51871	0.91133	-0.12
Mof_H 	H 	0.8173	0.5277	0.8995	0.08
Mof_C 	C 	0.79174	0.5105	0.8974	0.052
Mof_C 	C 	0.76767	0.49815	0.91577	-0.118
Mof_H 	H 	0.7596	0.4934	0.9068	0.078
Mof_C 	C 	0.75595	0.49307	0.94703	0.068
Mof_H 	H 	0.7401	0.4841	0.9595	-0.003
Mof_N 	N 	0.98648	0.50656	0.71468	-0.255
Mof_C 	C 	0.97692	0.49474	0.70922	0.083
Mof_S 	S 	0.96377	0.47771	0.70247	-0.049
Mof_N 	N 	0.65785	0.65703	0.48317	-0.14
Mof_C 	C 	0.64407	0.68627	0.48305	0.101
Mof_N 	N 	0.54879	0.72839	0.49249	-0.24
Mof_C 	C 	0.5662	0.70376	0.48368	0.08
Mof_H 	H 	0.5569	0.6957	0.4793	-0.008
Mof_C 	C 	0.59713	0.68897	0.48047	-0.13
Mof_H 	H 	0.6084	0.6708	0.475	0.082
Mof_C 	C 	0.61125	0.70085	0.48523	0.059
Mof_C 	C 	0.5935	0.72674	0.49454	-0.124
Mof_H 	H 	0.6026	0.7354	0.4984	0.081
Mof_C 	C 	0.56239	0.73955	0.49805	0.072
Mof_H 	H 	0.5502	0.757	0.5048	-0.007
Mof_N 	N 	0.49756	0.71132	0.50098	-0.259
Mof_C 	C 	0.49096	0.68992	0.51038	0.097
Mof_S 	S 	0.48064	0.65934	0.52576	-0.052
Mof_N 	N 	0.50776	0.76928	0.4503	-0.237
Mof_C 	C 	0.51904	0.751	0.43402	0.071
Mof_H 	H 	0.5245	0.7293	0.4443	-0.005
Mof_C 	C 	0.52324	0.762	0.403	-0.122
Mof_H 	H 	0.531	0.7482	0.3924	0.079
Mof_C 	C 	0.51589	0.79333	0.38779	0.055
Mof_C 	C 	0.50491	0.81293	0.40423	-0.121
Mof_H 	H 	0.5006	0.8346	0.3942	0.08
Mof_C 	C 	0.50062	0.79998	0.43502	0.07
Mof_H 	H 	0.4921	0.8133	0.4465	-0.004
Mof_C 	C 	0.5226	0.84686	0.31032	0.101
Mof_N 	N 	0.5226	0.83448	0.3392	-0.139
Mof_C 	C 	0.51814	0.80714	0.35506	0.099
Mof_N 	N 	0.51445	0.79179	0.34389	-0.138
Mof_C 	C 	0.51556	0.80636	0.31434	0.102
Mof_N 	N 	0.5197	0.83352	0.29652	-0.14
Mof_N 	N 	0.52116	0.93968	0.26526	-0.236
Mof_C 	C 	0.52996	0.92152	0.29034	0.065
Mof_H 	H 	0.5348	0.9302	0.2986	-0.004
Mof_C 	C 	0.53216	0.89082	0.30462	-0.117
Mof_H 	H 	0.5384	0.8786	0.3224	0.079
Mof_C 	C 	0.52504	0.87808	0.29274	0.053
Mof_C 	C 	0.51779	0.89619	0.26585	-0.121
Mof_H 	H 	0.514	0.8878	0.2564	0.079
Mof_C 	C 	0.51623	0.92657	0.25295	0.071
Mof_H 	H 	0.5114	0.9388	0.2344	-0.003
Mof_N 	N 	0.50027	0.76587	0.27315	-0.234
Mof_C 	C 	0.51357	0.78779	0.25625	0.07
Mof_H 	H 	0.5198	0.7942	0.2344	-0.004
Mof_C 	C 	0.51871	0.80143	0.26853	-0.12
Mof_H 	H 	0.5277	0.8173	0.2555	0.08
Mof_C 	C 	0.5105	0.79174	0.30036	0.052
Mof_C 	C 	0.49815	0.76767	0.31841	-0.118
Mof_H 	H 	0.4934	0.7596	0.3402	0.078
Mof_C 	C 	0.49307	0.75595	0.30395	0.068
Mof_H 	H 	0.4841	0.7401	0.3163	-0.003
Mof_N 	N 	0.50656	0.98648	0.29228	-0.255
Mof_C 	C 	0.49474	0.97692	0.31912	0.083
Mof_S 	S 	0.47771	0.96377	0.35605	-0.049
Mof_N 	N 	0.65703	0.70195	0.48317	-0.14
Mof_C 	C 	0.68627	0.68661	0.48305	0.101
Mof_N 	N 	0.72839	0.73033	0.49249	-0.24
Mof_C 	C 	0.70376	0.74636	0.48368	0.08
Mof_H 	H 	0.6957	0.7681	0.4793	-0.008
Mof_C 	C 	0.68897	0.73343	0.48047	-0.13
Mof_H 	H 	0.6708	0.7458	0.475	0.082
Mof_C 	C 	0.70085	0.70267	0.48523	0.059
Mof_C 	C 	0.72674	0.68522	0.49454	-0.124
Mof_H 	H 	0.7354	0.6636	0.4984	0.081
Mof_C 	C 	0.73955	0.70001	0.49805	0.072
Mof_H 	H 	0.757	0.688	0.5048	-0.007
Mof_N 	N 	0.71132	0.79014	0.50098	-0.259
Mof_C 	C 	0.68992	0.80874	0.51038	0.097
Mof_S 	S 	0.65934	0.83426	0.52576	-0.052
Mof_N 	N 	0.76928	0.77266	0.4503	-0.237
Mof_C 	C 	0.751	0.79594	0.43402	0.071
Mof_H 	H 	0.7293	0.8019	0.4443	-0.005
Mof_C 	C 	0.762	0.81176	0.403	-0.122
Mof_H 	H 	0.7482	0.8284	0.3924	0.079
Mof_C 	C 	0.79333	0.80299	0.38779	0.055
Mof_C 	C 	0.81293	0.77793	0.40423	-0.121
Mof_H 	H 	0.8346	0.7706	0.3942	0.08
Mof_C 	C 	0.79998	0.76438	0.43502	0.07
Mof_H 	H 	0.8133	0.7481	0.4465	-0.004
Mof_C 	C 	0.84686	0.82022	0.31032	0.101
Mof_N 	N 	0.83448	0.80372	0.3392	-0.139
Mof_C 	C 	0.80714	0.81966	0.35506	0.099
Mof_N 	N 	0.79179	0.84987	0.34389	-0.138
Mof_C 	C 	0.80636	0.86374	0.31434	0.102
Mof_N 	N 	0.83352	0.85026	0.29652	-0.14
Mof_N 	N 	0.93968	0.7739	0.26526	-0.236
Mof_C 	C 	0.92152	0.75818	0.29034	0.065
Mof_H 	H 	0.9302	0.7364	0.2986	-0.004
Mof_C 	C 	0.89082	0.7724	0.30462	-0.117
Mof_H 	H 	0.8786	0.7606	0.3224	0.079
Mof_C 	C 	0.87808	0.80414	0.29274	0.053
Mof_C 	C 	0.89619	0.82017	0.26585	-0.121
Mof_H 	H 	0.8878	0.8418	0.2564	0.079
Mof_C 	C 	0.92657	0.80425	0.25295	0.071
Mof_H 	H 	0.9388	0.8154	0.2344	-0.003
Mof_N 	N 	0.76587	0.96071	0.27315	-0.234
Mof_C 	C 	0.78779	0.94239	0.25625	0.07
Mof_H 	H 	0.7942	0.9516	0.2344	-0.004
Mof_C 	C 	0.80143	0.91133	0.26853	-0.12
Mof_H 	H 	0.8173	0.8995	0.2555	0.08
Mof_C 	C 	0.79174	0.8974	0.30036	0.052
Mof_C 	C 	0.76767	0.91577	0.31841	-0.118
Mof_H 	H 	0.7596	0.9068	0.3402	0.078
Mof_C 	C 	0.75595	0.94703	0.30395	0.068
Mof_H 	H 	0.7401	0.9595	0.3163	-0.003
Mof_N 	N 	0.98648	0.71468	0.29228	-0.255
Mof_C 	C 	0.97692	0.70922	0.31912	0.083
Mof_S 	S 	0.96377	0.70247	0.35605	-0.049
Mof_N 	N 	0.65785	0.48317	0.70195	-0.14
Mof_C 	C 	0.64407	0.48305	0.68661	0.101
Mof_N 	N 	0.54879	0.49249	0.73033	-0.24
Mof_C 	C 	0.5662	0.48368	0.74636	0.08
Mof_H 	H 	0.5569	0.4793	0.7681	-0.008
Mof_C 	C 	0.59713	0.48047	0.73343	-0.13
Mof_H 	H 	0.6084	0.475	0.7458	0.082
Mof_C 	C 	0.61125	0.48523	0.70267	0.059
Mof_C 	C 	0.5935	0.49454	0.68522	-0.124
Mof_H 	H 	0.6026	0.4984	0.6636	0.081
Mof_C 	C 	0.56239	0.49805	0.70001	0.072
Mof_H 	H 	0.5502	0.5048	0.688	-0.007
Mof_N 	N 	0.49756	0.50098	0.79014	-0.259
Mof_C 	C 	0.49096	0.51038	0.80874	0.097
Mof_S 	S 	0.48064	0.52576	0.83426	-0.052
Mof_N 	N 	0.50776	0.4503	0.77266	-0.237
Mof_C 	C 	0.51904	0.43402	0.79594	0.071
Mof_H 	H 	0.5245	0.4443	0.8019	-0.005
Mof_C 	C 	0.52324	0.403	0.81176	-0.122
Mof_H 	H 	0.531	0.3924	0.8284	0.079
Mof_C 	C 	0.51589	0.38779	0.80299	0.055
Mof_C 	C 	0.50491	0.40423	0.77793	-0.121
Mof_H 	H 	0.5006	0.3942	0.7706	0.08
Mof_C 	C 	0.50062	0.43502	0.76438	0.07
Mof_H 	H 	0.4921	0.4465	0.7481	-0.004
Mof_C 	C 	0.5226	0.31032	0.82022	0.101
Mof_N 	N 	0.5226	0.3392	0.80372	-0.139
Mof_C 	C 	0.51814	0.35506	0.81966	0.099
Mof_N 	N 	0.51445	0.34389	0.84987	-0.138
Mof_C 	C 	0.51556	0.31434	0.86374	0.102
Mof_N 	N 	0.5197	0.29652	0.85026	-0.14
Mof_N 	N 	0.52116	0.26526	0.7739	-0.236
Mof_C 	C 	0.52996	0.29034	0.75818	0.065
Mof_H 	H 	0.5348	0.2986	0.7364	-0.004
Mof_C 	C 	0.53216	0.30462	0.7724	-0.117
Mof_H 	H 	0.5384	0.3224	0.7606	0.079
Mof_C 	C 	0.52504	0.29274	0.80414	0.053
Mof_C 	C 	0.51779	0.26585	0.82017	-0.121
Mof_H 	H 	0.514	0.2564	0.8418	0.079
Mof_C 	C 	0.51623	0.25295	0.80425	0.071
Mof_H 	H 	0.5114	0.2344	0.8154	-0.003
Mof_N 	N 	0.50027	0.27315	0.96071	-0.234
Mof_C 	C 	0.51357	0.25625	0.94239	0.07
Mof_H 	H 	0.5198	0.2344	0.9516	-0.004
Mof_C 	C 	0.51871	0.26853	0.91133	-0.12
Mof_H 	H 	0.5277	0.2555	0.8995	0.08
Mof_C 	C 	0.5105	0.30036	0.8974	0.052
Mof_C 	C 	0.49815	0.31841	0.91577	-0.118
Mof_H 	H 	0.4934	0.3402	0.9068	0.078
Mof_C 	C 	0.49307	0.30395	0.94703	0.068
Mof_H 	H 	0.4841	0.3163	0.9595	-0.003
Mof_N 	N 	0.50656	0.29228	0.71468	-0.255
Mof_C 	C 	0.49474	0.31912	0.70922	0.083
Mof_S 	S 	0.47771	0.35605	0.70247	-0.049
Mof_N 	N 	0.70195	0.65703	0.65785	-0.14
Mof_C 	C 	0.68661	0.68627	0.64407	0.101
Mof_N 	N 	0.73033	0.72839	0.54879	-0.24
Mof_C 	C 	0.74636	0.70376	0.5662	0.08
Mof_H 	H 	0.7681	0.6957	0.5569	-0.008
Mof_C 	C 	0.73343	0.68897	0.59713	-0.13
Mof_H 	H 	0.7458	0.6708	0.6084	0.082
Mof_C 	C 	0.70267	0.70085	0.61125	0.059
Mof_C 	C 	0.68522	0.72674	0.5935	-0.124
Mof_H 	H 	0.6636	0.7354	0.6026	0.081
Mof_C 	C 	0.70001	0.73955	0.56239	0.072
Mof_H 	H 	0.688	0.757	0.5502	-0.007
Mof_N 	N 	0.79014	0.71132	0.49756	-0.259
Mof_C 	C 	0.80874	0.68992	0.49096	0.097
Mof_S 	S 	0.83426	0.65934	0.48064	-0.052
Mof_N 	N 	0.77266	0.76928	0.50776	-0.237
Mof_C 	C 	0.79594	0.751	0.51904	0.071
Mof_H 	H 	0.8019	0.7293	0.5245	-0.005
Mof_C 	C 	0.81176	0.762	0.52324	-0.122
Mof_H 	H 	0.8284	0.7482	0.531	0.079
Mof_C 	C 	0.80299	0.79333	0.51589	0.055
Mof_C 	C 	0.77793	0.81293	0.50491	-0.121
Mof_H 	H 	0.7706	0.8346	0.5006	0.08
Mof_C 	C 	0.76438	0.79998	0.50062	0.07
Mof_H 	H 	0.7481	0.8133	0.4921	-0.004
Mof_C 	C 	0.82022	0.84686	0.5226	0.101
Mof_N 	N 	0.80372	0.83448	0.5226	-0.139
Mof_C 	C 	0.81966	0.80714	0.51814	0.099
Mof_N 	N 	0.84987	0.79179	0.51445	-0.138
Mof_C 	C 	0.86374	0.80636	0.51556	0.102
Mof_N 	N 	0.85026	0.83352	0.5197	-0.14
Mof_N 	N 	0.7739	0.93968	0.52116	-0.236
Mof_C 	C 	0.75818	0.92152	0.52996	0.065
Mof_H 	H 	0.7364	0.9302	0.5348	-0.004
Mof_C 	C 	0.7724	0.89082	0.53216	-0.117
Mof_H 	H 	0.7606	0.8786	0.5384	0.079
Mof_C 	C 	0.80414	0.87808	0.52504	0.053
Mof_C 	C 	0.82017	0.89619	0.51779	-0.121
Mof_H 	H 	0.8418	0.8878	0.514	0.079
Mof_C 	C 	0.80425	0.92657	0.51623	0.071
Mof_H 	H 	0.8154	0.9388	0.5114	-0.003
Mof_N 	N 	0.96071	0.76587	0.50027	-0.234
Mof_C 	C 	0.94239	0.78779	0.51357	0.07
Mof_H 	H 	0.9516	0.7942	0.5198	-0.004
Mof_C 	C 	0.91133	0.80143	0.51871	-0.12
Mof_H 	H 	0.8995	0.8173	0.5277	0.08
Mof_C 	C 	0.8974	0.79174	0.5105	0.052
Mof_C 	C 	0.91577	0.76767	0.49815	-0.118
Mof_H 	H 	0.9068	0.7596	0.4934	0.078
Mof_C 	C 	0.94703	0.75595	0.49307	0.068
Mof_H 	H 	0.9595	0.7401	0.4841	-0.003
Mof_N 	N 	0.71468	0.98648	0.50656	-0.255
Mof_C 	C 	0.70922	0.97692	0.49474	0.083
Mof_S 	S 	0.70247	0.96377	0.47771	-0.049
Mof_N 	N 	0.48317	0.65785	0.65703	-0.14
Mof_C 	C 	0.48305	0.64407	0.68627	0.101
Mof_N 	N 	0.49249	0.54879	0.72839	-0.24
Mof_C 	C 	0.48368	0.5662	0.70376	0.08
Mof_H 	H 	0.4793	0.5569	0.6957	-0.008
Mof_C 	C 	0.48047	0.59713	0.68897	-0.13
Mof_H 	H 	0.475	0.6084	0.6708	0.082
Mof_C 	C 	0.48523	0.61125	0.70085	0.059
Mof_C 	C 	0.49454	0.5935	0.72674	-0.124
Mof_H 	H 	0.4984	0.6026	0.7354	0.081
Mof_C 	C 	0.49805	0.56239	0.73955	0.072
Mof_H 	H 	0.5048	0.5502	0.757	-0.007
Mof_N 	N 	0.50098	0.49756	0.71132	-0.259
Mof_C 	C 	0.51038	0.49096	0.68992	0.097
Mof_S 	S 	0.52576	0.48064	0.65934	-0.052
Mof_N 	N 	0.4503	0.50776	0.76928	-0.237
Mof_C 	C 	0.43402	0.51904	0.751	0.071
Mof_H 	H 	0.4443	0.5245	0.7293	-0.005
Mof_C 	C 	0.403	0.52324	0.762	-0.122
Mof_H 	H 	0.3924	0.531	0.7482	0.079
Mof_C 	C 	0.38779	0.51589	0.79333	0.055
Mof_C 	C 	0.40423	0.50491	0.81293	-0.121
Mof_H 	H 	0.3942	0.5006	0.8346	0.08
Mof_C 	C 	0.43502	0.50062	0.79998	0.07
Mof_H 	H 	0.4465	0.4921	0.8133	-0.004
Mof_C 	C 	0.31032	0.5226	0.84686	0.101
Mof_N 	N 	0.3392	0.5226	0.83448	-0.139
Mof_C 	C 	0.35506	0.51814	0.80714	0.099
Mof_N 	N 	0.34389	0.51445	0.79179	-0.138
Mof_C 	C 	0.31434	0.51556	0.80636	0.102
Mof_N 	N 	0.29652	0.5197	0.83352	-0.14
Mof_N 	N 	0.26526	0.52116	0.93968	-0.236
Mof_C 	C 	0.29034	0.52996	0.92152	0.065
Mof_H 	H 	0.2986	0.5348	0.9302	-0.004
Mof_C 	C 	0.30462	0.53216	0.89082	-0.117
Mof_H 	H 	0.3224	0.5384	0.8786	0.079
Mof_C 	C 	0.29274	0.52504	0.87808	0.053
Mof_C 	C 	0.26585	0.51779	0.89619	-0.121
Mof_H 	H 	0.2564	0.514	0.8878	0.079
Mof_C 	C 	0.25295	0.51623	0.92657	0.071
Mof_H 	H 	0.2344	0.5114	0.9388	-0.003
Mof_N 	N 	0.27315	0.50027	0.76587	-0.234
Mof_C 	C 	0.25625	0.51357	0.78779	0.07
Mof_H 	H 	0.2344	0.5198	0.7942	-0.004
Mof_C 	C 	0.26853	0.51871	0.80143	-0.12
Mof_H 	H 	0.2555	0.5277	0.8173	0.08
Mof_C 	C 	0.30036	0.5105	0.79174	0.052
Mof_C 	C 	0.31841	0.49815	0.76767	-0.118
Mof_H 	H 	0.3402	0.4934	0.7596	0.078
Mof_C 	C 	0.30395	0.49307	0.75595	0.068
Mof_H 	H 	0.3163	0.4841	0.7401	-0.003
Mof_N 	N 	0.29228	0.50656	0.98648	-0.255
Mof_C 	C 	0.31912	0.49474	0.97692	0.083
Mof_S 	S 	0.35605	0.47771	0.96377	-0.049
Mof_N 	N 	0.48317	0.65703	0.70195	-0.14
Mof_C 	C 	0.48305	0.68627	0.68661	0.101
Mof_N 	N 	0.49249	0.72839	0.73033	-0.24
Mof_C 	C 	0.48368	0.70376	0.74636	0.08
Mof_H 	H 	0.4793	0.6957	0.7681	-0.008
Mof_C 	C 	0.48047	0.68897	0.73343	-0.13
Mof_H 	H 	0.475	0.6708	0.7458	0.082
Mof_C 	C 	0.48523	0.70085	0.70267	0.059
Mof_C 	C 	0.49454	0.72674	0.68522	-0.124
Mof_H 	H 	0.4984	0.7354	0.6636	0.081
Mof_C 	C 	0.49805	0.73955	0.70001	0.072
Mof_H 	H 	0.5048	0.757	0.688	-0.007
Mof_N 	N 	0.50098	0.71132	0.79014	-0.259
Mof_C 	C 	0.51038	0.68992	0.80874	0.097
Mof_S 	S 	0.52576	0.65934	0.83426	-0.052
Mof_N 	N 	0.4503	0.76928	0.77266	-0.237
Mof_C 	C 	0.43402	0.751	0.79594	0.071
Mof_H 	H 	0.4443	0.7293	0.8019	-0.005
Mof_C 	C 	0.403	0.762	0.81176	-0.122
Mof_H 	H 	0.3924	0.7482	0.8284	0.079
Mof_C 	C 	0.38779	0.79333	0.80299	0.055
Mof_C 	C 	0.40423	0.81293	0.77793	-0.121
Mof_H 	H 	0.3942	0.8346	0.7706	0.08
Mof_C 	C 	0.43502	0.79998	0.76438	0.07
Mof_H 	H 	0.4465	0.8133	0.7481	-0.004
Mof_C 	C 	0.31032	0.84686	0.82022	0.101
Mof_N 	N 	0.3392	0.83448	0.80372	-0.139
Mof_C 	C 	0.35506	0.80714	0.81966	0.099
Mof_N 	N 	0.34389	0.79179	0.84987	-0.138
Mof_C 	C 	0.31434	0.80636	0.86374	0.102
Mof_N 	N 	0.29652	0.83352	0.85026	-0.14
Mof_N 	N 	0.26526	0.93968	0.7739	-0.236
Mof_C 	C 	0.29034	0.92152	0.75818	0.065
Mof_H 	H 	0.2986	0.9302	0.7364	-0.004
Mof_C 	C 	0.30462	0.89082	0.7724	-0.117
Mof_H 	H 	0.3224	0.8786	0.7606	0.079
Mof_C 	C 	0.29274	0.87808	0.80414	0.053
Mof_C 	C 	0.26585	0.89619	0.82017	-0.121
Mof_H 	H 	0.2564	0.8878	0.8418	0.079
Mof_C 	C 	0.25295	0.92657	0.80425	0.071
Mof_H 	H 	0.2344	0.9388	0.8154	-0.003
Mof_N 	N 	0.27315	0.76587	0.96071	-0.234
Mof_C 	C 	0.25625	0.78779	0.94239	0.07
Mof_H 	H 	0.2344	0.7942	0.9516	-0.004
Mof_C 	C 	0.26853	0.80143	0.91133	-0.12
Mof_H 	H 	0.2555	0.8173	0.8995	0.08
Mof_C 	C 	0.30036	0.79174	0.8974	0.052
Mof_C 	C 	0.31841	0.76767	0.91577	-0.118
Mof_H 	H 	0.3402	0.7596	0.9068	0.078
Mof_C 	C 	0.30395	0.75595	0.94703	0.068
Mof_H 	H 	0.3163	0.7401	0.9595	-0.003
Mof_N 	N 	0.29228	0.98648	0.71468	-0.255
Mof_C 	C 	0.31912	0.97692	0.70922	0.083
Mof_S 	S 	0.35605	0.96377	0.70247	-0.049
Mof_N 	N 	0.70195	0.65785	0.48317	-0.14
Mof_C 	C 	0.68661	0.64407	0.48305	0.101
Mof_N 	N 	0.73033	0.54879	0.49249	-0.24
Mof_C 	C 	0.74636	0.5662	0.48368	0.08
Mof_H 	H 	0.7681	0.5569	0.4793	-0.008
Mof_C 	C 	0.73343	0.59713	0.48047	-0.13
Mof_H 	H 	0.7458	0.6084	0.475	0.082
Mof_C 	C 	0.70267	0.61125	0.48523	0.059
Mof_C 	C 	0.68522	0.5935	0.49454	-0.124
Mof_H 	H 	0.6636	0.6026	0.4984	0.081
Mof_C 	C 	0.70001	0.56239	0.49805	0.072
Mof_H 	H 	0.688	0.5502	0.5048	-0.007
Mof_N 	N 	0.79014	0.49756	0.50098	-0.259
Mof_C 	C 	0.80874	0.49096	0.51038	0.097
Mof_S 	S 	0.83426	0.48064	0.52576	-0.052
Mof_N 	N 	0.77266	0.50776	0.4503	-0.237
Mof_C 	C 	0.79594	0.51904	0.43402	0.071
Mof_H 	H 	0.8019	0.5245	0.4443	-0.005
Mof_C 	C 	0.81176	0.52324	0.403	-0.122
Mof_H 	H 	0.8284	0.531	0.3924	0.079
Mof_C 	C 	0.80299	0.51589	0.38779	0.055
Mof_C 	C 	0.77793	0.50491	0.40423	-0.121
Mof_H 	H 	0.7706	0.5006	0.3942	0.08
Mof_C 	C 	0.76438	0.50062	0.43502	0.07
Mof_H 	H 	0.7481	0.4921	0.4465	-0.004
Mof_C 	C 	0.82022	0.5226	0.31032	0.101
Mof_N 	N 	0.80372	0.5226	0.3392	-0.139
Mof_C 	C 	0.81966	0.51814	0.35506	0.099
Mof_N 	N 	0.84987	0.51445	0.34389	-0.138
Mof_C 	C 	0.86374	0.51556	0.31434	0.102
Mof_N 	N 	0.85026	0.5197	0.29652	-0.14
Mof_N 	N 	0.7739	0.52116	0.26526	-0.236
Mof_C 	C 	0.75818	0.52996	0.29034	0.065
Mof_H 	H 	0.7364	0.5348	0.2986	-0.004
Mof_C 	C 	0.7724	0.53216	0.30462	-0.117
Mof_H 	H 	0.7606	0.5384	0.3224	0.079
Mof_C 	C 	0.80414	0.52504	0.29274	0.053
Mof_C 	C 	0.82017	0.51779	0.26585	-0.121
Mof_H 	H 	0.8418	0.514	0.2564	0.079
Mof_C 	C 	0.80425	0.51623	0.25295	0.071
Mof_H 	H 	0.8154	0.5114	0.2344	-0.003
Mof_N 	N 	0.96071	0.50027	0.27315	-0.234
Mof_C 	C 	0.94239	0.51357	0.25625	0.07
Mof_H 	H 	0.9516	0.5198	0.2344	-0.004
Mof_C 	C 	0.91133	0.51871	0.26853	-0.12
Mof_H 	H 	0.8995	0.5277	0.2555	0.08
Mof_C 	C 	0.8974	0.5105	0.30036	0.052
Mof_C 	C 	0.91577	0.49815	0.31841	-0.118
Mof_H 	H 	0.9068	0.4934	0.3402	0.078
Mof_C 	C 	0.94703	0.49307	0.30395	0.068
Mof_H 	H 	0.9595	0.4841	0.3163	-0.003
Mof_N 	N 	0.71468	0.50656	0.29228	-0.255
Mof_C 	C 	0.70922	0.49474	0.31912	0.083
Mof_S 	S 	0.70247	0.47771	0.35605	-0.049
Mof_N 	N 	0.65785	0.70195	0.65703	-0.14
Mof_C 	C 	0.64407	0.68661	0.68627	0.101
Mof_N 	N 	0.54879	0.73033	0.72839	-0.24
Mof_C 	C 	0.5662	0.74636	0.70376	0.08
Mof_H 	H 	0.5569	0.7681	0.6957	-0.008
Mof_C 	C 	0.59713	0.73343	0.68897	-0.13
Mof_H 	H 	0.6084	0.7458	0.6708	0.082
Mof_C 	C 	0.61125	0.70267	0.70085	0.059
Mof_C 	C 	0.5935	0.68522	0.72674	-0.124
Mof_H 	H 	0.6026	0.6636	0.7354	0.081
Mof_C 	C 	0.56239	0.70001	0.73955	0.072
Mof_H 	H 	0.5502	0.688	0.757	-0.007
Mof_N 	N 	0.49756	0.79014	0.71132	-0.259
Mof_C 	C 	0.49096	0.80874	0.68992	0.097
Mof_S 	S 	0.48064	0.83426	0.65934	-0.052
Mof_N 	N 	0.50776	0.77266	0.76928	-0.237
Mof_C 	C 	0.51904	0.79594	0.751	0.071
Mof_H 	H 	0.5245	0.8019	0.7293	-0.005
Mof_C 	C 	0.52324	0.81176	0.762	-0.122
Mof_H 	H 	0.531	0.8284	0.7482	0.079
Mof_C 	C 	0.51589	0.80299	0.79333	0.055
Mof_C 	C 	0.50491	0.77793	0.81293	-0.121
Mof_H 	H 	0.5006	0.7706	0.8346	0.08
Mof_C 	C 	0.50062	0.76438	0.79998	0.07
Mof_H 	H 	0.4921	0.7481	0.8133	-0.004
Mof_C 	C 	0.5226	0.82022	0.84686	0.101
Mof_N 	N 	0.5226	0.80372	0.83448	-0.139
Mof_C 	C 	0.51814	0.81966	0.80714	0.099
Mof_N 	N 	0.51445	0.84987	0.79179	-0.138
Mof_C 	C 	0.51556	0.86374	0.80636	0.102
Mof_N 	N 	0.5197	0.85026	0.83352	-0.14
Mof_N 	N 	0.52116	0.7739	0.93968	-0.236
Mof_C 	C 	0.52996	0.75818	0.92152	0.065
Mof_H 	H 	0.5348	0.7364	0.9302	-0.004
Mof_C 	C 	0.53216	0.7724	0.89082	-0.117
Mof_H 	H 	0.5384	0.7606	0.8786	0.079
Mof_C 	C 	0.52504	0.80414	0.87808	0.053
Mof_C 	C 	0.51779	0.82017	0.89619	-0.121
Mof_H 	H 	0.514	0.8418	0.8878	0.079
Mof_C 	C 	0.51623	0.80425	0.92657	0.071
Mof_H 	H 	0.5114	0.8154	0.9388	-0.003
Mof_N 	N 	0.50027	0.96071	0.76587	-0.234
Mof_C 	C 	0.51357	0.94239	0.78779	0.07
Mof_H 	H 	0.5198	0.9516	0.7942	-0.004
Mof_C 	C 	0.51871	0.91133	0.80143	-0.12
Mof_H 	H 	0.5277	0.8995	0.8173	0.08
Mof_C 	C 	0.5105	0.8974	0.79174	0.052
Mof_C 	C 	0.49815	0.91577	0.76767	-0.118
Mof_H 	H 	0.4934	0.9068	0.7596	0.078
Mof_C 	C 	0.49307	0.94703	0.75595	0.068
Mof_H 	H 	0.4841	0.9595	0.7401	-0.003
Mof_N 	N 	0.50656	0.71468	0.98648	-0.255
Mof_C 	C 	0.49474	0.70922	0.97692	0.083
Mof_S 	S 	0.47771	0.70247	0.96377	-0.049
Mof_N 	N 	0.65703	0.48317	0.65785	-0.14
Mof_C 	C 	0.68627	0.48305	0.64407	0.101
Mof_N 	N 	0.72839	0.49249	0.54879	-0.24
Mof_C 	C 	0.70376	0.48368	0.5662	0.08
Mof_H 	H 	0.6957	0.4793	0.5569	-0.008
Mof_C 	C 	0.68897	0.48047	0.59713	-0.13
Mof_H 	H 	0.6708	0.475	0.6084	0.082
Mof_C 	C 	0.70085	0.48523	0.61125	0.059
Mof_C 	C 	0.72674	0.49454	0.5935	-0.124
Mof_H 	H 	0.7354	0.4984	0.6026	0.081
Mof_C 	C 	0.73955	0.49805	0.56239	0.072
Mof_H 	H 	0.757	0.5048	0.5502	-0.007
Mof_N 	N 	0.71132	0.50098	0.49756	-0.259
Mof_C 	C 	0.68992	0.51038	0.49096	0.097
Mof_S 	S 	0.65934	0.52576	0.48064	-0.052
Mof_N 	N 	0.76928	0.4503	0.50776	-0.237
Mof_C 	C 	0.751	0.43402	0.51904	0.071
Mof_H 	H 	0.7293	0.4443	0.5245	-0.005
Mof_C 	C 	0.762	0.403	0.52324	-0.122
Mof_H 	H 	0.7482	0.3924	0.531	0.079
Mof_C 	C 	0.79333	0.38779	0.51589	0.055
Mof_C 	C 	0.81293	0.40423	0.50491	-0.121
Mof_H 	H 	0.8346	0.3942	0.5006	0.08
Mof_C 	C 	0.79998	0.43502	0.50062	0.07
Mof_H 	H 	0.8133	0.4465	0.4921	-0.004
Mof_C 	C 	0.84686	0.31032	0.5226	0.101
Mof_N 	N 	0.83448	0.3392	0.5226	-0.139
Mof_C 	C 	0.80714	0.35506	0.51814	0.099
Mof_N 	N 	0.79179	0.34389	0.51445	-0.138
Mof_C 	C 	0.80636	0.31434	0.51556	0.102
Mof_N 	N 	0.83352	0.29652	0.5197	-0.14
Mof_N 	N 	0.93968	0.26526	0.52116	-0.236
Mof_C 	C 	0.92152	0.29034	0.52996	0.065
Mof_H 	H 	0.9302	0.2986	0.5348	-0.004
Mof_C 	C 	0.89082	0.30462	0.53216	-0.117
Mof_H 	H 	0.8786	0.3224	0.5384	0.079
Mof_C 	C 	0.87808	0.29274	0.52504	0.053
Mof_C 	C 	0.89619	0.26585	0.51779	-0.121
Mof_H 	H 	0.8878	0.2564	0.514	0.079
Mof_C 	C 	0.92657	0.25295	0.51623	0.071
Mof_H 	H 	0.9388	0.2344	0.5114	-0.003
Mof_N 	N 	0.76587	0.27315	0.50027	-0.234
Mof_C 	C 	0.78779	0.25625	0.51357	0.07
Mof_H 	H 	0.7942	0.2344	0.5198	-0.004
Mof_C 	C 	0.80143	0.26853	0.51871	-0.12
Mof_H 	H 	0.8173	0.2555	0.5277	0.08
Mof_C 	C 	0.79174	0.30036	0.5105	0.052
Mof_C 	C 	0.76767	0.31841	0.49815	-0.118
Mof_H 	H 	0.7596	0.3402	0.4934	0.078
Mof_C 	C 	0.75595	0.30395	0.49307	0.068
Mof_H 	H 	0.7401	0.3163	0.4841	-0.003
Mof_N 	N 	0.98648	0.29228	0.50656	-0.255
Mof_C 	C 	0.97692	0.31912	0.49474	0.083
Mof_S 	S 	0.96377	0.35605	0.47771	-0.049
Mof_N 	N 	0.79805	0.01683	0.84215	-0.14
Mof_C 	C 	0.81339	0.01695	0.85593	0.101
Mof_N 	N 	0.76967	0.00751	0.95121	-0.24
Mof_C 	C 	0.75364	0.01632	0.9338	0.08
Mof_H 	H 	0.7319	0.0207	0.9431	-0.008
Mof_C 	C 	0.76657	0.01953	0.90287	-0.13
Mof_H 	H 	0.7542	0.025	0.8916	0.082
Mof_C 	C 	0.79733	0.01477	0.88875	0.059
Mof_C 	C 	0.81478	0.00546	0.9065	-0.124
Mof_H 	H 	0.8364	0.0016	0.8974	0.081
Mof_C 	C 	0.79999	0.00195	0.93761	0.072
Mof_H 	H 	0.812	0.9952	0.9498	-0.007
Mof_N 	N 	0.70986	0.99902	0.00244	-0.259
Mof_C 	C 	0.69126	0.98962	0.00904	0.097
Mof_S 	S 	0.66574	0.97424	0.01936	-0.052
Mof_N 	N 	0.72734	0.0497	0.99224	-0.237
Mof_C 	C 	0.70406	0.06598	0.98096	0.071
Mof_H 	H 	0.6981	0.0557	0.9755	-0.005
Mof_C 	C 	0.68824	0.097	0.97676	-0.122
Mof_H 	H 	0.6716	0.1076	0.969	0.079
Mof_C 	C 	0.69701	0.11221	0.98411	0.055
Mof_C 	C 	0.72207	0.09577	0.99509	-0.121
Mof_H 	H 	0.7294	0.1058	0.9994	0.08
Mof_C 	C 	0.73562	0.06498	0.99938	0.07
Mof_H 	H 	0.7519	0.0535	0.0079	-0.004
Mof_C 	C 	0.67978	0.18968	0.9774	0.101
Mof_N 	N 	0.69628	0.1608	0.9774	-0.139
Mof_C 	C 	0.68034	0.14494	0.98186	0.099
Mof_N 	N 	0.65013	0.15611	0.98555	-0.138
Mof_C 	C 	0.63626	0.18566	0.98444	0.102
Mof_N 	N 	0.64974	0.20348	0.9803	-0.14
Mof_N 	N 	0.7261	0.23474	0.97884	-0.236
Mof_C 	C 	0.74182	0.20966	0.97004	0.065
Mof_H 	H 	0.7636	0.2014	0.9652	-0.004
Mof_C 	C 	0.7276	0.19538	0.96784	-0.117
Mof_H 	H 	0.7394	0.1776	0.9616	0.079
Mof_C 	C 	0.69586	0.20726	0.97496	0.053
Mof_C 	C 	0.67983	0.23415	0.98221	-0.121
Mof_H 	H 	0.6582	0.2436	0.986	0.079
Mof_C 	C 	0.69575	0.24705	0.98377	0.071
Mof_H 	H 	0.6846	0.2656	0.9886	-0.003
Mof_N 	N 	0.53929	0.22685	0.99973	-0.234
Mof_C 	C 	0.55761	0.24375	0.98643	0.07
Mof_H 	H 	0.5484	0.2656	0.9802	-0.004
Mof_C 	C 	0.58867	0.23147	0.98129	-0.12
Mof_H 	H 	0.6005	0.2445	0.9723	0.08
Mof_C 	C 	0.6026	0.19964	0.9895	0.052
Mof_C 	C 	0.58423	0.18159	0.00185	-0.118
Mof_H 	H 	0.5932	0.1598	0.0066	0.078
Mof_C 	C 	0.55297	0.19605	0.00693	0.068
Mof_H 	H 	0.5405	0.1837	0.0159	-0.003
Mof_N 	N 	0.78532	0.20772	0.99344	-0.255
Mof_C 	C 	0.79078	0.18088	0.00526	0.083
Mof_S 	S 	0.79753	0.14395	0.02229	-0.049
Mof_N 	N 	0.01683	0.79805	0.84297	-0.14
Mof_C 	C 	0.01695	0.81339	0.81373	0.101
Mof_N 	N 	0.00751	0.76967	0.77161	-0.24
Mof_C 	C 	0.01632	0.75364	0.79624	0.08
Mof_H 	H 	0.0207	0.7319	0.8043	-0.008
Mof_C 	C 	0.01953	0.76657	0.81103	-0.13
Mof_H 	H 	0.025	0.7542	0.8292	0.082
Mof_C 	C 	0.01477	0.79733	0.79915	0.059
Mof_C 	C 	0.00546	0.81478	0.77326	-0.124
Mof_H 	H 	0.0016	0.8364	0.7646	0.081
Mof_C 	C 	0.00195	0.79999	0.76045	0.072
Mof_H 	H 	0.9952	0.812	0.743	-0.007
Mof_N 	N 	0.99902	0.70986	0.78868	-0.259
Mof_C 	C 	0.98962	0.69126	0.81008	0.097
Mof_S 	S 	0.97424	0.66574	0.84066	-0.052
Mof_N 	N 	0.0497	0.72734	0.73072	-0.237
Mof_C 	C 	0.06598	0.70406	0.749	0.071
Mof_H 	H 	0.0557	0.6981	0.7707	-0.005
Mof_C 	C 	0.097	0.68824	0.738	-0.122
Mof_H 	H 	0.1076	0.6716	0.7518	0.079
Mof_C 	C 	0.11221	0.69701	0.70667	0.055
Mof_C 	C 	0.09577	0.72207	0.68707	-0.121
Mof_H 	H 	0.1058	0.7294	0.6654	0.08
Mof_C 	C 	0.06498	0.73562	0.70002	0.07
Mof_H 	H 	0.0535	0.7519	0.6867	-0.004
Mof_C 	C 	0.18968	0.67978	0.65314	0.101
Mof_N 	N 	0.1608	0.69628	0.66552	-0.139
Mof_C 	C 	0.14494	0.68034	0.69286	0.099
Mof_N 	N 	0.15611	0.65013	0.70821	-0.138
Mof_C 	C 	0.18566	0.63626	0.69364	0.102
Mof_N 	N 	0.20348	0.64974	0.66648	-0.14
Mof_N 	N 	0.23474	0.7261	0.56032	-0.236
Mof_C 	C 	0.20966	0.74182	0.57848	0.065
Mof_H 	H 	0.2014	0.7636	0.5698	-0.004
Mof_C 	C 	0.19538	0.7276	0.60918	-0.117
Mof_H 	H 	0.1776	0.7394	0.6214	0.079
Mof_C 	C 	0.20726	0.69586	0.62192	0.053
Mof_C 	C 	0.23415	0.67983	0.60381	-0.121
Mof_H 	H 	0.2436	0.6582	0.6122	0.079
Mof_C 	C 	0.24705	0.69575	0.57343	0.071
Mof_H 	H 	0.2656	0.6846	0.5612	-0.003
Mof_N 	N 	0.22685	0.53929	0.73413	-0.234
Mof_C 	C 	0.24375	0.55761	0.71221	0.07
Mof_H 	H 	0.2656	0.5484	0.7058	-0.004
Mof_C 	C 	0.23147	0.58867	0.69857	-0.12
Mof_H 	H 	0.2445	0.6005	0.6827	0.08
Mof_C 	C 	0.19964	0.6026	0.70826	0.052
Mof_C 	C 	0.18159	0.58423	0.73233	-0.118
Mof_H 	H 	0.1598	0.5932	0.7404	0.078
Mof_C 	C 	0.19605	0.55297	0.74405	0.068
Mof_H 	H 	0.1837	0.5405	0.7599	-0.003
Mof_N 	N 	0.20772	0.78532	0.51352	-0.255
Mof_C 	C 	0.18088	0.79078	0.52308	0.083
Mof_S 	S 	0.14395	0.79753	0.53623	-0.049
Mof_N 	N 	0.84297	0.84215	0.01683	-0.14
Mof_C 	C 	0.81373	0.85593	0.01695	0.101
Mof_N 	N 	0.77161	0.95121	0.00751	-0.24
Mof_C 	C 	0.79624	0.9338	0.01632	0.08
Mof_H 	H 	0.8043	0.9431	0.0207	-0.008
Mof_C 	C 	0.81103	0.90287	0.01953	-0.13
Mof_H 	H 	0.8292	0.8916	0.025	0.082
Mof_C 	C 	0.79915	0.88875	0.01477	0.059
Mof_C 	C 	0.77326	0.9065	0.00546	-0.124
Mof_H 	H 	0.7646	0.8974	0.0016	0.081
Mof_C 	C 	0.76045	0.93761	0.00195	0.072
Mof_H 	H 	0.743	0.9498	0.9952	-0.007
Mof_N 	N 	0.78868	0.00244	0.99902	-0.259
Mof_C 	C 	0.81008	0.00904	0.98962	0.097
Mof_S 	S 	0.84066	0.01936	0.97424	-0.052
Mof_N 	N 	0.73072	0.99224	0.0497	-0.237
Mof_C 	C 	0.749	0.98096	0.06598	0.071
Mof_H 	H 	0.7707	0.9755	0.0557	-0.005
Mof_C 	C 	0.738	0.97676	0.097	-0.122
Mof_H 	H 	0.7518	0.969	0.1076	0.079
Mof_C 	C 	0.70667	0.98411	0.11221	0.055
Mof_C 	C 	0.68707	0.99509	0.09577	-0.121
Mof_H 	H 	0.6654	0.9994	0.1058	0.08
Mof_C 	C 	0.70002	0.99938	0.06498	0.07
Mof_H 	H 	0.6867	0.0079	0.0535	-0.004
Mof_C 	C 	0.65314	0.9774	0.18968	0.101
Mof_N 	N 	0.66552	0.9774	0.1608	-0.139
Mof_C 	C 	0.69286	0.98186	0.14494	0.099
Mof_N 	N 	0.70821	0.98555	0.15611	-0.138
Mof_C 	C 	0.69364	0.98444	0.18566	0.102
Mof_N 	N 	0.66648	0.9803	0.20348	-0.14
Mof_N 	N 	0.56032	0.97884	0.23474	-0.236
Mof_C 	C 	0.57848	0.97004	0.20966	0.065
Mof_H 	H 	0.5698	0.9652	0.2014	-0.004
Mof_C 	C 	0.60918	0.96784	0.19538	-0.117
Mof_H 	H 	0.6214	0.9616	0.1776	0.079
Mof_C 	C 	0.62192	0.97496	0.20726	0.053
Mof_C 	C 	0.60381	0.98221	0.23415	-0.121
Mof_H 	H 	0.6122	0.986	0.2436	0.079
Mof_C 	C 	0.57343	0.98377	0.24705	0.071
Mof_H 	H 	0.5612	0.9886	0.2656	-0.003
Mof_N 	N 	0.73413	0.99973	0.22685	-0.234
Mof_C 	C 	0.71221	0.98643	0.24375	0.07
Mof_H 	H 	0.7058	0.9802	0.2656	-0.004
Mof_C 	C 	0.69857	0.98129	0.23147	-0.12
Mof_H 	H 	0.6827	0.9723	0.2445	0.08
Mof_C 	C 	0.70826	0.9895	0.19964	0.052
Mof_C 	C 	0.73233	0.00185	0.18159	-0.118
Mof_H 	H 	0.7404	0.0066	0.1598	0.078
Mof_C 	C 	0.74405	0.00693	0.19605	0.068
Mof_H 	H 	0.7599	0.0159	0.1837	-0.003
Mof_N 	N 	0.51352	0.99344	0.20772	-0.255
Mof_C 	C 	0.52308	0.00526	0.18088	0.083
Mof_S 	S 	0.53623	0.02229	0.14395	-0.049
Mof_N 	N 	0.84215	0.84297	0.79805	-0.14
Mof_C 	C 	0.85593	0.81373	0.81339	0.101
Mof_N 	N 	0.95121	0.77161	0.76967	-0.24
Mof_C 	C 	0.9338	0.79624	0.75364	0.08
Mof_H 	H 	0.9431	0.8043	0.7319	-0.008
Mof_C 	C 	0.90287	0.81103	0.76657	-0.13
Mof_H 	H 	0.8916	0.8292	0.7542	0.082
Mof_C 	C 	0.88875	0.79915	0.79733	0.059
Mof_C 	C 	0.9065	0.77326	0.81478	-0.124
Mof_H 	H 	0.8974	0.7646	0.8364	0.081
Mof_C 	C 	0.93761	0.76045	0.79999	0.072
Mof_H 	H 	0.9498	0.743	0.812	-0.007
Mof_N 	N 	0.00244	0.78868	0.70986	-0.259
Mof_C 	C 	0.00904	0.81008	0.69126	0.097
Mof_S 	S 	0.01936	0.84066	0.66574	-0.052
Mof_N 	N 	0.99224	0.73072	0.72734	-0.237
Mof_C 	C 	0.98096	0.749	0.70406	0.071
Mof_H 	H 	0.9755	0.7707	0.6981	-0.005
Mof_C 	C 	0.97676	0.738	0.68824	-0.122
Mof_H 	H 	0.969	0.7518	0.6716	0.079
Mof_C 	C 	0.98411	0.70667	0.69701	0.055
Mof_C 	C 	0.99509	0.68707	0.72207	-0.121
Mof_H 	H 	0.9994	0.6654	0.7294	0.08
Mof_C 	C 	0.99938	0.70002	0.73562	0.07
Mof_H 	H 	0.0079	0.6867	0.7519	-0.004
Mof_C 	C 	0.9774	0.65314	0.67978	0.101
Mof_N 	N 	0.9774	0.66552	0.69628	-0.139
Mof_C 	C 	0.98186	0.69286	0.68034	0.099
Mof_N 	N 	0.98555	0.70821	0.65013	-0.138
Mof_C 	C 	0.98444	0.69364	0.63626	0.102
Mof_N 	N 	0.9803	0.66648	0.64974	-0.14
Mof_N 	N 	0.97884	0.56032	0.7261	-0.236
Mof_C 	C 	0.97004	0.57848	0.74182	0.065
Mof_H 	H 	0.9652	0.5698	0.7636	-0.004
Mof_C 	C 	0.96784	0.60918	0.7276	-0.117
Mof_H 	H 	0.9616	0.6214	0.7394	0.079
Mof_C 	C 	0.97496	0.62192	0.69586	0.053
Mof_C 	C 	0.98221	0.60381	0.67983	-0.121
Mof_H 	H 	0.986	0.6122	0.6582	0.079
Mof_C 	C 	0.98377	0.57343	0.69575	0.071
Mof_H 	H 	0.9886	0.5612	0.6846	-0.003
Mof_N 	N 	0.99973	0.73413	0.53929	-0.234
Mof_C 	C 	0.98643	0.71221	0.55761	0.07
Mof_H 	H 	0.9802	0.7058	0.5484	-0.004
Mof_C 	C 	0.98129	0.69857	0.58867	-0.12
Mof_H 	H 	0.9723	0.6827	0.6005	0.08
Mof_C 	C 	0.9895	0.70826	0.6026	0.052
Mof_C 	C 	0.00185	0.73233	0.58423	-0.118
Mof_H 	H 	0.0066	0.7404	0.5932	0.078
Mof_C 	C 	0.00693	0.74405	0.55297	0.068
Mof_H 	H 	0.0159	0.7599	0.5405	-0.003
Mof_N 	N 	0.99344	0.51352	0.78532	-0.255
Mof_C 	C 	0.00526	0.52308	0.79078	0.083
Mof_S 	S 	0.02229	0.53623	0.79753	-0.049
Mof_N 	N 	0.84297	0.79805	0.84215	-0.14
Mof_C 	C 	0.81373	0.81339	0.85593	0.101
Mof_N 	N 	0.77161	0.76967	0.95121	-0.24
Mof_C 	C 	0.79624	0.75364	0.9338	0.08
Mof_H 	H 	0.8043	0.7319	0.9431	-0.008
Mof_C 	C 	0.81103	0.76657	0.90287	-0.13
Mof_H 	H 	0.8292	0.7542	0.8916	0.082
Mof_C 	C 	0.79915	0.79733	0.88875	0.059
Mof_C 	C 	0.77326	0.81478	0.9065	-0.124
Mof_H 	H 	0.7646	0.8364	0.8974	0.081
Mof_C 	C 	0.76045	0.79999	0.93761	0.072
Mof_H 	H 	0.743	0.812	0.9498	-0.007
Mof_N 	N 	0.78868	0.70986	0.00244	-0.259
Mof_C 	C 	0.81008	0.69126	0.00904	0.097
Mof_S 	S 	0.84066	0.66574	0.01936	-0.052
Mof_N 	N 	0.73072	0.72734	0.99224	-0.237
Mof_C 	C 	0.749	0.70406	0.98096	0.071
Mof_H 	H 	0.7707	0.6981	0.9755	-0.005
Mof_C 	C 	0.738	0.68824	0.97676	-0.122
Mof_H 	H 	0.7518	0.6716	0.969	0.079
Mof_C 	C 	0.70667	0.69701	0.98411	0.055
Mof_C 	C 	0.68707	0.72207	0.99509	-0.121
Mof_H 	H 	0.6654	0.7294	0.9994	0.08
Mof_C 	C 	0.70002	0.73562	0.99938	0.07
Mof_H 	H 	0.6867	0.7519	0.0079	-0.004
Mof_C 	C 	0.65314	0.67978	0.9774	0.101
Mof_N 	N 	0.66552	0.69628	0.9774	-0.139
Mof_C 	C 	0.69286	0.68034	0.98186	0.099
Mof_N 	N 	0.70821	0.65013	0.98555	-0.138
Mof_C 	C 	0.69364	0.63626	0.98444	0.102
Mof_N 	N 	0.66648	0.64974	0.9803	-0.14
Mof_N 	N 	0.56032	0.7261	0.97884	-0.236
Mof_C 	C 	0.57848	0.74182	0.97004	0.065
Mof_H 	H 	0.5698	0.7636	0.9652	-0.004
Mof_C 	C 	0.60918	0.7276	0.96784	-0.117
Mof_H 	H 	0.6214	0.7394	0.9616	0.079
Mof_C 	C 	0.62192	0.69586	0.97496	0.053
Mof_C 	C 	0.60381	0.67983	0.98221	-0.121
Mof_H 	H 	0.6122	0.6582	0.986	0.079
Mof_C 	C 	0.57343	0.69575	0.98377	0.071
Mof_H 	H 	0.5612	0.6846	0.9886	-0.003
Mof_N 	N 	0.73413	0.53929	0.99973	-0.234
Mof_C 	C 	0.71221	0.55761	0.98643	0.07
Mof_H 	H 	0.7058	0.5484	0.9802	-0.004
Mof_C 	C 	0.69857	0.58867	0.98129	-0.12
Mof_H 	H 	0.6827	0.6005	0.9723	0.08
Mof_C 	C 	0.70826	0.6026	0.9895	0.052
Mof_C 	C 	0.73233	0.58423	0.00185	-0.118
Mof_H 	H 	0.7404	0.5932	0.0066	0.078
Mof_C 	C 	0.74405	0.55297	0.00693	0.068
Mof_H 	H 	0.7599	0.5405	0.0159	-0.003
Mof_N 	N 	0.51352	0.78532	0.99344	-0.255
Mof_C 	C 	0.52308	0.79078	0.00526	0.083
Mof_S 	S 	0.53623	0.79753	0.02229	-0.049
Mof_N 	N 	0.84215	0.01683	0.84297	-0.14
Mof_C 	C 	0.85593	0.01695	0.81373	0.101
Mof_N 	N 	0.95121	0.00751	0.77161	-0.24
Mof_C 	C 	0.9338	0.01632	0.79624	0.08
Mof_H 	H 	0.9431	0.0207	0.8043	-0.008
Mof_C 	C 	0.90287	0.01953	0.81103	-0.13
Mof_H 	H 	0.8916	0.025	0.8292	0.082
Mof_C 	C 	0.88875	0.01477	0.79915	0.059
Mof_C 	C 	0.9065	0.00546	0.77326	-0.124
Mof_H 	H 	0.8974	0.0016	0.7646	0.081
Mof_C 	C 	0.93761	0.00195	0.76045	0.072
Mof_H 	H 	0.9498	0.9952	0.743	-0.007
Mof_N 	N 	0.00244	0.99902	0.78868	-0.259
Mof_C 	C 	0.00904	0.98962	0.81008	0.097
Mof_S 	S 	0.01936	0.97424	0.84066	-0.052
Mof_N 	N 	0.99224	0.0497	0.73072	-0.237
Mof_C 	C 	0.98096	0.06598	0.749	0.071
Mof_H 	H 	0.9755	0.0557	0.7707	-0.005
Mof_C 	C 	0.97676	0.097	0.738	-0.122
Mof_H 	H 	0.969	0.1076	0.7518	0.079
Mof_C 	C 	0.98411	0.11221	0.70667	0.055
Mof_C 	C 	0.99509	0.09577	0.68707	-0.121
Mof_H 	H 	0.9994	0.1058	0.6654	0.08
Mof_C 	C 	0.99938	0.06498	0.70002	0.07
Mof_H 	H 	0.0079	0.0535	0.6867	-0.004
Mof_C 	C 	0.9774	0.18968	0.65314	0.101
Mof_N 	N 	0.9774	0.1608	0.66552	-0.139
Mof_C 	C 	0.98186	0.14494	0.69286	0.099
Mof_N 	N 	0.98555	0.15611	0.70821	-0.138
Mof_C 	C 	0.98444	0.18566	0.69364	0.102
Mof_N 	N 	0.9803	0.20348	0.66648	-0.14
Mof_N 	N 	0.97884	0.23474	0.56032	-0.236
Mof_C 	C 	0.97004	0.20966	0.57848	0.065
Mof_H 	H 	0.9652	0.2014	0.5698	-0.004
Mof_C 	C 	0.96784	0.19538	0.60918	-0.117
Mof_H 	H 	0.9616	0.1776	0.6214	0.079
Mof_C 	C 	0.97496	0.20726	0.62192	0.053
Mof_C 	C 	0.98221	0.23415	0.60381	-0.121
Mof_H 	H 	0.986	0.2436	0.6122	0.079
Mof_C 	C 	0.98377	0.24705	0.57343	0.071
Mof_H 	H 	0.9886	0.2656	0.5612	-0.003
Mof_N 	N 	0.99973	0.22685	0.73413	-0.234
Mof_C 	C 	0.98643	0.24375	0.71221	0.07
Mof_H 	H 	0.9802	0.2656	0.7058	-0.004
Mof_C 	C 	0.98129	0.23147	0.69857	-0.12
Mof_H 	H 	0.9723	0.2445	0.6827	0.08
Mof_C 	C 	0.9895	0.19964	0.70826	0.052
Mof_C 	C 	0.00185	0.18159	0.73233	-0.118
Mof_H 	H 	0.0066	0.1598	0.7404	0.078
Mof_C 	C 	0.00693	0.19605	0.74405	0.068
Mof_H 	H 	0.0159	0.1837	0.7599	-0.003
Mof_N 	N 	0.99344	0.20772	0.51352	-0.255
Mof_C 	C 	0.00526	0.18088	0.52308	0.083
Mof_S 	S 	0.02229	0.14395	0.53623	-0.049
Mof_N 	N 	0.79805	0.84297	0.01683	-0.14
Mof_C 	C 	0.81339	0.81373	0.01695	0.101
Mof_N 	N 	0.76967	0.77161	0.00751	-0.24
Mof_C 	C 	0.75364	0.79624	0.01632	0.08
Mof_H 	H 	0.7319	0.8043	0.0207	-0.008
Mof_C 	C 	0.76657	0.81103	0.01953	-0.13
Mof_H 	H 	0.7542	0.8292	0.025	0.082
Mof_C 	C 	0.79733	0.79915	0.01477	0.059
Mof_C 	C 	0.81478	0.77326	0.00546	-0.124
Mof_H 	H 	0.8364	0.7646	0.0016	0.081
Mof_C 	C 	0.79999	0.76045	0.00195	0.072
Mof_H 	H 	0.812	0.743	0.9952	-0.007
Mof_N 	N 	0.70986	0.78868	0.99902	-0.259
Mof_C 	C 	0.69126	0.81008	0.98962	0.097
Mof_S 	S 	0.66574	0.84066	0.97424	-0.052
Mof_N 	N 	0.72734	0.73072	0.0497	-0.237
Mof_C 	C 	0.70406	0.749	0.06598	0.071
Mof_H 	H 	0.6981	0.7707	0.0557	-0.005
Mof_C 	C 	0.68824	0.738	0.097	-0.122
Mof_H 	H 	0.6716	0.7518	0.1076	0.079
Mof_C 	C 	0.69701	0.70667	0.11221	0.055
Mof_C 	C 	0.72207	0.68707	0.09577	-0.121
Mof_H 	H 	0.7294	0.6654	0.1058	0.08
Mof_C 	C 	0.73562	0.70002	0.06498	0.07
Mof_H 	H 	0.7519	0.6867	0.0535	-0.004
Mof_C 	C 	0.67978	0.65314	0.18968	0.101
Mof_N 	N 	0.69628	0.66552	0.1608	-0.139
Mof_C 	C 	0.68034	0.69286	0.14494	0.099
Mof_N 	N 	0.65013	0.70821	0.15611	-0.138
Mof_C 	C 	0.63626	0.69364	0.18566	0.102
Mof_N 	N 	0.64974	0.66648	0.20348	-0.14
Mof_N 	N 	0.7261	0.56032	0.23474	-0.236
Mof_C 	C 	0.74182	0.57848	0.20966	0.065
Mof_H 	H 	0.7636	0.5698	0.2014	-0.004
Mof_C 	C 	0.7276	0.60918	0.19538	-0.117
Mof_H 	H 	0.7394	0.6214	0.1776	0.079
Mof_C 	C 	0.69586	0.62192	0.20726	0.053
Mof_C 	C 	0.67983	0.60381	0.23415	-0.121
Mof_H 	H 	0.6582	0.6122	0.2436	0.079
Mof_C 	C 	0.69575	0.57343	0.24705	0.071
Mof_H 	H 	0.6846	0.5612	0.2656	-0.003
Mof_N 	N 	0.53929	0.73413	0.22685	-0.234
Mof_C 	C 	0.55761	0.71221	0.24375	0.07
Mof_H 	H 	0.5484	0.7058	0.2656	-0.004
Mof_C 	C 	0.58867	0.69857	0.23147	-0.12
Mof_H 	H 	0.6005	0.6827	0.2445	0.08
Mof_C 	C 	0.6026	0.70826	0.19964	0.052
Mof_C 	C 	0.58423	0.73233	0.18159	-0.118
Mof_H 	H 	0.5932	0.7404	0.1598	0.078
Mof_C 	C 	0.55297	0.74405	0.19605	0.068
Mof_H 	H 	0.5405	0.7599	0.1837	-0.003
Mof_N 	N 	0.78532	0.51352	0.20772	-0.255
Mof_C 	C 	0.79078	0.52308	0.18088	0.083
Mof_S 	S 	0.79753	0.53623	0.14395	-0.049
Mof_N 	N 	0.01683	0.84215	0.79805	-0.14
Mof_C 	C 	0.01695	0.85593	0.81339	0.101
Mof_N 	N 	0.00751	0.95121	0.76967	-0.24
Mof_C 	C 	0.01632	0.9338	0.75364	0.08
Mof_H 	H 	0.0207	0.9431	0.7319	-0.008
Mof_C 	C 	0.01953	0.90287	0.76657	-0.13
Mof_H 	H 	0.025	0.8916	0.7542	0.082
Mof_C 	C 	0.01477	0.88875	0.79733	0.059
Mof_C 	C 	0.00546	0.9065	0.81478	-0.124
Mof_H 	H 	0.0016	0.8974	0.8364	0.081
Mof_C 	C 	0.00195	0.93761	0.79999	0.072
Mof_H 	H 	0.9952	0.9498	0.812	-0.007
Mof_N 	N 	0.99902	0.00244	0.70986	-0.259
Mof_C 	C 	0.98962	0.00904	0.69126	0.097
Mof_S 	S 	0.97424	0.01936	0.66574	-0.052
Mof_N 	N 	0.0497	0.99224	0.72734	-0.237
Mof_C 	C 	0.06598	0.98096	0.70406	0.071
Mof_H 	H 	0.0557	0.9755	0.6981	-0.005
Mof_C 	C 	0.097	0.97676	0.68824	-0.122
Mof_H 	H 	0.1076	0.969	0.6716	0.079
Mof_C 	C 	0.11221	0.98411	0.69701	0.055
Mof_C 	C 	0.09577	0.99509	0.72207	-0.121
Mof_H 	H 	0.1058	0.9994	0.7294	0.08
Mof_C 	C 	0.06498	0.99938	0.73562	0.07
Mof_H 	H 	0.0535	0.0079	0.7519	-0.004
Mof_C 	C 	0.18968	0.9774	0.67978	0.101
Mof_N 	N 	0.1608	0.9774	0.69628	-0.139
Mof_C 	C 	0.14494	0.98186	0.68034	0.099
Mof_N 	N 	0.15611	0.98555	0.65013	-0.138
Mof_C 	C 	0.18566	0.98444	0.63626	0.102
Mof_N 	N 	0.20348	0.9803	0.64974	-0.14
Mof_N 	N 	0.23474	0.97884	0.7261	-0.236
Mof_C 	C 	0.20966	0.97004	0.74182	0.065
Mof_H 	H 	0.2014	0.9652	0.7636	-0.004
Mof_C 	C 	0.19538	0.96784	0.7276	-0.117
Mof_H 	H 	0.1776	0.9616	0.7394	0.079
Mof_C 	C 	0.20726	0.97496	0.69586	0.053
Mof_C 	C 	0.23415	0.98221	0.67983	-0.121
Mof_H 	H 	0.2436	0.986	0.6582	0.079
Mof_C 	C 	0.24705	0.98377	0.69575	0.071
Mof_H 	H 	0.2656	0.9886	0.6846	-0.003
Mof_N 	N 	0.22685	0.99973	0.53929	-0.234
Mof_C 	C 	0.24375	0.98643	0.55761	0.07
Mof_H 	H 	0.2656	0.9802	0.5484	-0.004
Mof_C 	C 	0.23147	0.98129	0.58867	-0.12
Mof_H 	H 	0.2445	0.9723	0.6005	0.08
Mof_C 	C 	0.19964	0.9895	0.6026	0.052
Mof_C 	C 	0.18159	0.00185	0.58423	-0.118
Mof_H 	H 	0.1598	0.0066	0.5932	0.078
Mof_C 	C 	0.19605	0.00693	0.55297	0.068
Mof_H 	H 	0.1837	0.0159	0.5405	-0.003
Mof_N 	N 	0.20772	0.99344	0.78532	-0.255
Mof_C 	C 	0.18088	0.00526	0.79078	0.083
Mof_S 	S 	0.14395	0.02229	0.79753	-0.049
Mof_N 	N 	0.01683	0.84297	0.84215	-0.14
Mof_C 	C 	0.01695	0.81373	0.85593	0.101
Mof_N 	N 	0.00751	0.77161	0.95121	-0.24
Mof_C 	C 	0.01632	0.79624	0.9338	0.08
Mof_H 	H 	0.0207	0.8043	0.9431	-0.008
Mof_C 	C 	0.01953	0.81103	0.90287	-0.13
Mof_H 	H 	0.025	0.8292	0.8916	0.082
Mof_C 	C 	0.01477	0.79915	0.88875	0.059
Mof_C 	C 	0.00546	0.77326	0.9065	-0.124
Mof_H 	H 	0.0016	0.7646	0.8974	0.081
Mof_C 	C 	0.00195	0.76045	0.93761	0.072
Mof_H 	H 	0.9952	0.743	0.9498	-0.007
Mof_N 	N 	0.99902	0.78868	0.00244	-0.259
Mof_C 	C 	0.98962	0.81008	0.00904	0.097
Mof_S 	S 	0.97424	0.84066	0.01936	-0.052
Mof_N 	N 	0.0497	0.73072	0.99224	-0.237
Mof_C 	C 	0.06598	0.749	0.98096	0.071
Mof_H 	H 	0.0557	0.7707	0.9755	-0.005
Mof_C 	C 	0.097	0.738	0.97676	-0.122
Mof_H 	H 	0.1076	0.7518	0.969	0.079
Mof_C 	C 	0.11221	0.70667	0.98411	0.055
Mof_C 	C 	0.09577	0.68707	0.99509	-0.121
Mof_H 	H 	0.1058	0.6654	0.9994	0.08
Mof_C 	C 	0.06498	0.70002	0.99938	0.07
Mof_H 	H 	0.0535	0.6867	0.0079	-0.004
Mof_C 	C 	0.18968	0.65314	0.9774	0.101
Mof_N 	N 	0.1608	0.66552	0.9774	-0.139
Mof_C 	C 	0.14494	0.69286	0.98186	0.099
Mof_N 	N 	0.15611	0.70821	0.98555	-0.138
Mof_C 	C 	0.18566	0.69364	0.98444	0.102
Mof_N 	N 	0.20348	0.66648	0.9803	-0.14
Mof_N 	N 	0.23474	0.56032	0.97884	-0.236
Mof_C 	C 	0.20966	0.57848	0.97004	0.065
Mof_H 	H 	0.2014	0.5698	0.9652	-0.004
Mof_C 	C 	0.19538	0.60918	0.96784	-0.117
Mof_H 	H 	0.1776	0.6214	0.9616	0.079
Mof_C 	C 	0.20726	0.62192	0.97496	0.053
Mof_C 	C 	0.23415	0.60381	0.98221	-0.121
Mof_H 	H 	0.2436	0.6122	0.986	0.079
Mof_C 	C 	0.24705	0.57343	0.98377	0.071
Mof_H 	H 	0.2656	0.5612	0.9886	-0.003
Mof_N 	N 	0.22685	0.73413	0.99973	-0.234
Mof_C 	C 	0.24375	0.71221	0.98643	0.07
Mof_H 	H 	0.2656	0.7058	0.9802	-0.004
Mof_C 	C 	0.23147	0.69857	0.98129	-0.12
Mof_H 	H 	0.2445	0.6827	0.9723	0.08
Mof_C 	C 	0.19964	0.70826	0.9895	0.052
Mof_C 	C 	0.18159	0.73233	0.00185	-0.118
Mof_H 	H 	0.1598	0.7404	0.0066	0.078
Mof_C 	C 	0.19605	0.74405	0.00693	0.068
Mof_H 	H 	0.1837	0.7599	0.0159	-0.003
Mof_N 	N 	0.20772	0.51352	0.99344	-0.255
Mof_C 	C 	0.18088	0.52308	0.00526	0.083
Mof_S 	S 	0.14395	0.53623	0.02229	-0.049
Mof_N 	N 	0.79805	0.84215	0.84297	-0.14
Mof_C 	C 	0.81339	0.85593	0.81373	0.101
Mof_N 	N 	0.76967	0.95121	0.77161	-0.24
Mof_C 	C 	0.75364	0.9338	0.79624	0.08
Mof_H 	H 	0.7319	0.9431	0.8043	-0.008
Mof_C 	C 	0.76657	0.90287	0.81103	-0.13
Mof_H 	H 	0.7542	0.8916	0.8292	0.082
Mof_C 	C 	0.79733	0.88875	0.79915	0.059
Mof_C 	C 	0.81478	0.9065	0.77326	-0.124
Mof_H 	H 	0.8364	0.8974	0.7646	0.081
Mof_C 	C 	0.79999	0.93761	0.76045	0.072
Mof_H 	H 	0.812	0.9498	0.743	-0.007
Mof_N 	N 	0.70986	0.00244	0.78868	-0.259
Mof_C 	C 	0.69126	0.00904	0.81008	0.097
Mof_S 	S 	0.66574	0.01936	0.84066	-0.052
Mof_N 	N 	0.72734	0.99224	0.73072	-0.237
Mof_C 	C 	0.70406	0.98096	0.749	0.071
Mof_H 	H 	0.6981	0.9755	0.7707	-0.005
Mof_C 	C 	0.68824	0.97676	0.738	-0.122
Mof_H 	H 	0.6716	0.969	0.7518	0.079
Mof_C 	C 	0.69701	0.98411	0.70667	0.055
Mof_C 	C 	0.72207	0.99509	0.68707	-0.121
Mof_H 	H 	0.7294	0.9994	0.6654	0.08
Mof_C 	C 	0.73562	0.99938	0.70002	0.07
Mof_H 	H 	0.7519	0.0079	0.6867	-0.004
Mof_C 	C 	0.67978	0.9774	0.65314	0.101
Mof_N 	N 	0.69628	0.9774	0.66552	-0.139
Mof_C 	C 	0.68034	0.98186	0.69286	0.099
Mof_N 	N 	0.65013	0.98555	0.70821	-0.138
Mof_C 	C 	0.63626	0.98444	0.69364	0.102
Mof_N 	N 	0.64974	0.9803	0.66648	-0.14
Mof_N 	N 	0.7261	0.97884	0.56032	-0.236
Mof_C 	C 	0.74182	0.97004	0.57848	0.065
Mof_H 	H 	0.7636	0.9652	0.5698	-0.004
Mof_C 	C 	0.7276	0.96784	0.60918	-0.117
Mof_H 	H 	0.7394	0.9616	0.6214	0.079
Mof_C 	C 	0.69586	0.97496	0.62192	0.053
Mof_C 	C 	0.67983	0.98221	0.60381	-0.121
Mof_H 	H 	0.6582	0.986	0.6122	0.079
Mof_C 	C 	0.69575	0.98377	0.57343	0.071
Mof_H 	H 	0.6846	0.9886	0.5612	-0.003
Mof_N 	N 	0.53929	0.99973	0.73413	-0.234
Mof_C 	C 	0.55761	0.98643	0.71221	0.07
Mof_H 	H 	0.5484	0.9802	0.7058	-0.004
Mof_C 	C 	0.58867	0.98129	0.69857	-0.12
Mof_H 	H 	0.6005	0.9723	0.6827	0.08
Mof_C 	C 	0.6026	0.9895	0.70826	0.052
Mof_C 	C 	0.58423	0.00185	0.73233	-0.118
Mof_H 	H 	0.5932	0.0066	0.7404	0.078
Mof_C 	C 	0.55297	0.00693	0.74405	0.068
Mof_H 	H 	0.5405	0.0159	0.7599	-0.003
Mof_N 	N 	0.78532	0.99344	0.51352	-0.255
Mof_C 	C 	0.79078	0.00526	0.52308	0.083
Mof_S 	S 	0.79753	0.02229	0.53623	-0.049
Mof_N 	N 	0.84215	0.79805	0.01683	-0.14
Mof_C 	C 	0.85593	0.81339	0.01695	0.101
Mof_N 	N 	0.95121	0.76967	0.00751	-0.24
Mof_C 	C 	0.9338	0.75364	0.01632	0.08
Mof_H 	H 	0.9431	0.7319	0.0207	-0.008
Mof_C 	C 	0.90287	0.76657	0.01953	-0.13
Mof_H 	H 	0.8916	0.7542	0.025	0.082
Mof_C 	C 	0.88875	0.79733	0.01477	0.059
Mof_C 	C 	0.9065	0.81478	0.00546	-0.124
Mof_H 	H 	0.8974	0.8364	0.0016	0.081
Mof_C 	C 	0.93761	0.79999	0.00195	0.072
Mof_H 	H 	0.9498	0.812	0.9952	-0.007
Mof_N 	N 	0.00244	0.70986	0.99902	-0.259
Mof_C 	C 	0.00904	0.69126	0.98962	0.097
Mof_S 	S 	0.01936	0.66574	0.97424	-0.052
Mof_N 	N 	0.99224	0.72734	0.0497	-0.237
Mof_C 	C 	0.98096	0.70406	0.06598	0.071
Mof_H 	H 	0.9755	0.6981	0.0557	-0.005
Mof_C 	C 	0.97676	0.68824	0.097	-0.122
Mof_H 	H 	0.969	0.6716	0.1076	0.079
Mof_C 	C 	0.98411	0.69701	0.11221	0.055
Mof_C 	C 	0.99509	0.72207	0.09577	-0.121
Mof_H 	H 	0.9994	0.7294	0.1058	0.08
Mof_C 	C 	0.99938	0.73562	0.06498	0.07
Mof_H 	H 	0.0079	0.7519	0.0535	-0.004
Mof_C 	C 	0.9774	0.67978	0.18968	0.101
Mof_N 	N 	0.9774	0.69628	0.1608	-0.139
Mof_C 	C 	0.98186	0.68034	0.14494	0.099
Mof_N 	N 	0.98555	0.65013	0.15611	-0.138
Mof_C 	C 	0.98444	0.63626	0.18566	0.102
Mof_N 	N 	0.9803	0.64974	0.20348	-0.14
Mof_N 	N 	0.97884	0.7261	0.23474	-0.236
Mof_C 	C 	0.97004	0.74182	0.20966	0.065
Mof_H 	H 	0.9652	0.7636	0.2014	-0.004
Mof_C 	C 	0.96784	0.7276	0.19538	-0.117
Mof_H 	H 	0.9616	0.7394	0.1776	0.079
Mof_C 	C 	0.97496	0.69586	0.20726	0.053
Mof_C 	C 	0.98221	0.67983	0.23415	-0.121
Mof_H 	H 	0.986	0.6582	0.2436	0.079
Mof_C 	C 	0.98377	0.69575	0.24705	0.071
Mof_H 	H 	0.9886	0.6846	0.2656	-0.003
Mof_N 	N 	0.99973	0.53929	0.22685	-0.234
Mof_C 	C 	0.98643	0.55761	0.24375	0.07
Mof_H 	H 	0.9802	0.5484	0.2656	-0.004
Mof_C 	C 	0.98129	0.58867	0.23147	-0.12
Mof_H 	H 	0.9723	0.6005	0.2445	0.08
Mof_C 	C 	0.9895	0.6026	0.19964	0.052
Mof_C 	C 	0.00185	0.58423	0.18159	-0.118
Mof_H 	H 	0.0066	0.5932	0.1598	0.078
Mof_C 	C 	0.00693	0.55297	0.19605	0.068
Mof_H 	H 	0.0159	0.5405	0.1837	-0.003
Mof_N 	N 	0.99344	0.78532	0.20772	-0.255
Mof_C 	C 	0.00526	0.79078	0.18088	0.083
Mof_S 	S 	0.02229	0.79753	0.14395	-0.049
Mof_N 	N 	0.84297	0.01683	0.79805	-0.14
Mof_C 	C 	0.81373	0.01695	0.81339	0.101
Mof_N 	N 	0.77161	0.00751	0.76967	-0.24
Mof_C 	C 	0.79624	0.01632	0.75364	0.08
Mof_H 	H 	0.8043	0.0207	0.7319	-0.008
Mof_C 	C 	0.81103	0.01953	0.76657	-0.13
Mof_H 	H 	0.8292	0.025	0.7542	0.082
Mof_C 	C 	0.79915	0.01477	0.79733	0.059
Mof_C 	C 	0.77326	0.00546	0.81478	-0.124
Mof_H 	H 	0.7646	0.0016	0.8364	0.081
Mof_C 	C 	0.76045	0.00195	0.79999	0.072
Mof_H 	H 	0.743	0.9952	0.812	-0.007
Mof_N 	N 	0.78868	0.99902	0.70986	-0.259
Mof_C 	C 	0.81008	0.98962	0.69126	0.097
Mof_S 	S 	0.84066	0.97424	0.66574	-0.052
Mof_N 	N 	0.73072	0.0497	0.72734	-0.237
Mof_C 	C 	0.749	0.06598	0.70406	0.071
Mof_H 	H 	0.7707	0.0557	0.6981	-0.005
Mof_C 	C 	0.738	0.097	0.68824	-0.122
Mof_H 	H 	0.7518	0.1076	0.6716	0.079
Mof_C 	C 	0.70667	0.11221	0.69701	0.055
Mof_C 	C 	0.68707	0.09577	0.72207	-0.121
Mof_H 	H 	0.6654	0.1058	0.7294	0.08
Mof_C 	C 	0.70002	0.06498	0.73562	0.07
Mof_H 	H 	0.6867	0.0535	0.7519	-0.004
Mof_C 	C 	0.65314	0.18968	0.67978	0.101
Mof_N 	N 	0.66552	0.1608	0.69628	-0.139
Mof_C 	C 	0.69286	0.14494	0.68034	0.099
Mof_N 	N 	0.70821	0.15611	0.65013	-0.138
Mof_C 	C 	0.69364	0.18566	0.63626	0.102
Mof_N 	N 	0.66648	0.20348	0.64974	-0.14
Mof_N 	N 	0.56032	0.23474	0.7261	-0.236
Mof_C 	C 	0.57848	0.20966	0.74182	0.065
Mof_H 	H 	0.5698	0.2014	0.7636	-0.004
Mof_C 	C 	0.60918	0.19538	0.7276	-0.117
Mof_H 	H 	0.6214	0.1776	0.7394	0.079
Mof_C 	C 	0.62192	0.20726	0.69586	0.053
Mof_C 	C 	0.60381	0.23415	0.67983	-0.121
Mof_H 	H 	0.6122	0.2436	0.6582	0.079
Mof_C 	C 	0.57343	0.24705	0.69575	0.071
Mof_H 	H 	0.5612	0.2656	0.6846	-0.003
Mof_N 	N 	0.73413	0.22685	0.53929	-0.234
Mof_C 	C 	0.71221	0.24375	0.55761	0.07
Mof_H 	H 	0.7058	0.2656	0.5484	-0.004
Mof_C 	C 	0.69857	0.23147	0.58867	-0.12
Mof_H 	H 	0.6827	0.2445	0.6005	0.08
Mof_C 	C 	0.70826	0.19964	0.6026	0.052
Mof_C 	C 	0.73233	0.18159	0.58423	-0.118
Mof_H 	H 	0.7404	0.1598	0.5932	0.078
Mof_C 	C 	0.74405	0.19605	0.55297	0.068
Mof_H 	H 	0.7599	0.1837	0.5405	-0.003
Mof_N 	N 	0.51352	0.20772	0.78532	-0.255
Mof_C 	C 	0.52308	0.18088	0.79078	0.083
Mof_S 	S 	0.53623	0.14395	0.79753	-0.049
Mof_N 	N 	0.29805	0.51683	0.34297	-0.14
Mof_C 	C 	0.31339	0.51695	0.31373	0.101
Mof_N 	N 	0.26967	0.50751	0.27161	-0.24
Mof_C 	C 	0.25364	0.51632	0.29624	0.08
Mof_H 	H 	0.2319	0.5207	0.3043	-0.008
Mof_C 	C 	0.26657	0.51953	0.31103	-0.13
Mof_H 	H 	0.2542	0.525	0.3292	0.082
Mof_C 	C 	0.29733	0.51477	0.29915	0.059
Mof_C 	C 	0.31478	0.50546	0.27326	-0.124
Mof_H 	H 	0.3364	0.5016	0.2646	0.081
Mof_C 	C 	0.29999	0.50195	0.26045	0.072
Mof_H 	H 	0.312	0.4952	0.243	-0.007
Mof_N 	N 	0.20986	0.49902	0.28868	-0.259
Mof_C 	C 	0.19126	0.48962	0.31008	0.097
Mof_S 	S 	0.16574	0.47424	0.34066	-0.052
Mof_N 	N 	0.22734	0.5497	0.23072	-0.237
Mof_C 	C 	0.20406	0.56598	0.249	0.071
Mof_H 	H 	0.1981	0.5557	0.2707	-0.005
Mof_C 	C 	0.18824	0.597	0.238	-0.122
Mof_H 	H 	0.1716	0.6076	0.2518	0.079
Mof_C 	C 	0.19701	0.61221	0.20667	0.055
Mof_C 	C 	0.22207	0.59577	0.18707	-0.121
Mof_H 	H 	0.2294	0.6058	0.1654	0.08
Mof_C 	C 	0.23562	0.56498	0.20002	0.07
Mof_H 	H 	0.2519	0.5535	0.1867	-0.004
Mof_C 	C 	0.17978	0.68968	0.15314	0.101
Mof_N 	N 	0.19628	0.6608	0.16552	-0.139
Mof_C 	C 	0.18034	0.64494	0.19286	0.099
Mof_N 	N 	0.15013	0.65611	0.20821	-0.138
Mof_C 	C 	0.13626	0.68566	0.19364	0.102
Mof_N 	N 	0.14974	0.70348	0.16648	-0.14
Mof_N 	N 	0.2261	0.73474	0.06032	-0.236
Mof_C 	C 	0.24182	0.70966	0.07848	0.065
Mof_H 	H 	0.2636	0.7014	0.0698	-0.004
Mof_C 	C 	0.2276	0.69538	0.10918	-0.117
Mof_H 	H 	0.2394	0.6776	0.1214	0.079
Mof_C 	C 	0.19586	0.70726	0.12192	0.053
Mof_C 	C 	0.17983	0.73415	0.10381	-0.121
Mof_H 	H 	0.1582	0.7436	0.1122	0.079
Mof_C 	C 	0.19575	0.74705	0.07343	0.071
Mof_H 	H 	0.1846	0.7656	0.0612	-0.003
Mof_N 	N 	0.03929	0.72685	0.23413	-0.234
Mof_C 	C 	0.05761	0.74375	0.21221	0.07
Mof_H 	H 	0.0484	0.7656	0.2058	-0.004
Mof_C 	C 	0.08867	0.73147	0.19857	-0.12
Mof_H 	H 	0.1005	0.7445	0.1827	0.08
Mof_C 	C 	0.1026	0.69964	0.20826	0.052
Mof_C 	C 	0.08423	0.68159	0.23233	-0.118
Mof_H 	H 	0.0932	0.6598	0.2404	0.078
Mof_C 	C 	0.05297	0.69605	0.24405	0.068
Mof_H 	H 	0.0405	0.6837	0.2599	-0.003
Mof_N 	N 	0.28532	0.70772	0.01352	-0.255
Mof_C 	C 	0.29078	0.68088	0.02308	0.083
Mof_S 	S 	0.29753	0.64395	0.03623	-0.049
Mof_N 	N 	0.51683	0.29805	0.34215	-0.14
Mof_C 	C 	0.51695	0.31339	0.35593	0.101
Mof_N 	N 	0.50751	0.26967	0.45121	-0.24
Mof_C 	C 	0.51632	0.25364	0.4338	0.08
Mof_H 	H 	0.5207	0.2319	0.4431	-0.008
Mof_C 	C 	0.51953	0.26657	0.40287	-0.13
Mof_H 	H 	0.525	0.2542	0.3916	0.082
Mof_C 	C 	0.51477	0.29733	0.38875	0.059
Mof_C 	C 	0.50546	0.31478	0.4065	-0.124
Mof_H 	H 	0.5016	0.3364	0.3974	0.081
Mof_C 	C 	0.50195	0.29999	0.43761	0.072
Mof_H 	H 	0.4952	0.312	0.4498	-0.007
Mof_N 	N 	0.49902	0.20986	0.50244	-0.259
Mof_C 	C 	0.48962	0.19126	0.50904	0.097
Mof_S 	S 	0.47424	0.16574	0.51936	-0.052
Mof_N 	N 	0.5497	0.22734	0.49224	-0.237
Mof_C 	C 	0.56598	0.20406	0.48096	0.071
Mof_H 	H 	0.5557	0.1981	0.4755	-0.005
Mof_C 	C 	0.597	0.18824	0.47676	-0.122
Mof_H 	H 	0.6076	0.1716	0.469	0.079
Mof_C 	C 	0.61221	0.19701	0.48411	0.055
Mof_C 	C 	0.59577	0.22207	0.49509	-0.121
Mof_H 	H 	0.6058	0.2294	0.4994	0.08
Mof_C 	C 	0.56498	0.23562	0.49938	0.07
Mof_H 	H 	0.5535	0.2519	0.5079	-0.004
Mof_C 	C 	0.68968	0.17978	0.4774	0.101
Mof_N 	N 	0.6608	0.19628	0.4774	-0.139
Mof_C 	C 	0.64494	0.18034	0.48186	0.099
Mof_N 	N 	0.65611	0.15013	0.48555	-0.138
Mof_C 	C 	0.68566	0.13626	0.48444	0.102
Mof_N 	N 	0.70348	0.14974	0.4803	-0.14
Mof_N 	N 	0.73474	0.2261	0.47884	-0.236
Mof_C 	C 	0.70966	0.24182	0.47004	0.065
Mof_H 	H 	0.7014	0.2636	0.4652	-0.004
Mof_C 	C 	0.69538	0.2276	0.46784	-0.117
Mof_H 	H 	0.6776	0.2394	0.4616	0.079
Mof_C 	C 	0.70726	0.19586	0.47496	0.053
Mof_C 	C 	0.73415	0.17983	0.48221	-0.121
Mof_H 	H 	0.7436	0.1582	0.486	0.079
Mof_C 	C 	0.74705	0.19575	0.48377	0.071
Mof_H 	H 	0.7656	0.1846	0.4886	-0.003
Mof_N 	N 	0.72685	0.03929	0.49973	-0.234
Mof_C 	C 	0.74375	0.05761	0.48643	0.07
Mof_H 	H 	0.7656	0.0484	0.4802	-0.004
Mof_C 	C 	0.73147	0.08867	0.48129	-0.12
Mof_H 	H 	0.7445	0.1005	0.4723	0.08
Mof_C 	C 	0.69964	0.1026	0.4895	0.052
Mof_C 	C 	0.68159	0.08423	0.50185	-0.118
Mof_H 	H 	0.6598	0.0932	0.5066	0.078
Mof_C 	C 	0.69605	0.05297	0.50693	0.068
Mof_H 	H 	0.6837	0.0405	0.5159	-0.003
Mof_N 	N 	0.70772	0.28532	0.49344	-0.255
Mof_C 	C 	0.68088	0.29078	0.50526	0.083
Mof_S 	S 	0.64395	0.29753	0.52229	-0.049
Mof_N 	N 	0.34297	0.34215	0.29805	-0.14
Mof_C 	C 	0.31373	0.35593	0.31339	0.101
Mof_N 	N 	0.27161	0.45121	0.26967	-0.24
Mof_C 	C 	0.29624	0.4338	0.25364	0.08
Mof_H 	H 	0.3043	0.4431	0.2319	-0.008
Mof_C 	C 	0.31103	0.40287	0.26657	-0.13
Mof_H 	H 	0.3292	0.3916	0.2542	0.082
Mof_C 	C 	0.29915	0.38875	0.29733	0.059
Mof_C 	C 	0.27326	0.4065	0.31478	-0.124
Mof_H 	H 	0.2646	0.3974	0.3364	0.081
Mof_C 	C 	0.26045	0.43761	0.29999	0.072
Mof_H 	H 	0.243	0.4498	0.312	-0.007
Mof_N 	N 	0.28868	0.50244	0.20986	-0.259
Mof_C 	C 	0.31008	0.50904	0.19126	0.097
Mof_S 	S 	0.34066	0.51936	0.16574	-0.052
Mof_N 	N 	0.23072	0.49224	0.22734	-0.237
Mof_C 	C 	0.249	0.48096	0.20406	0.071
Mof_H 	H 	0.2707	0.4755	0.1981	-0.005
Mof_C 	C 	0.238	0.47676	0.18824	-0.122
Mof_H 	H 	0.2518	0.469	0.1716	0.079
Mof_C 	C 	0.20667	0.48411	0.19701	0.055
Mof_C 	C 	0.18707	0.49509	0.22207	-0.121
Mof_H 	H 	0.1654	0.4994	0.2294	0.08
Mof_C 	C 	0.20002	0.49938	0.23562	0.07
Mof_H 	H 	0.1867	0.5079	0.2519	-0.004
Mof_C 	C 	0.15314	0.4774	0.17978	0.101
Mof_N 	N 	0.16552	0.4774	0.19628	-0.139
Mof_C 	C 	0.19286	0.48186	0.18034	0.099
Mof_N 	N 	0.20821	0.48555	0.15013	-0.138
Mof_C 	C 	0.19364	0.48444	0.13626	0.102
Mof_N 	N 	0.16648	0.4803	0.14974	-0.14
Mof_N 	N 	0.06032	0.47884	0.2261	-0.236
Mof_C 	C 	0.07848	0.47004	0.24182	0.065
Mof_H 	H 	0.0698	0.4652	0.2636	-0.004
Mof_C 	C 	0.10918	0.46784	0.2276	-0.117
Mof_H 	H 	0.1214	0.4616	0.2394	0.079
Mof_C 	C 	0.12192	0.47496	0.19586	0.053
Mof_C 	C 	0.10381	0.48221	0.17983	-0.121
Mof_H 	H 	0.1122	0.486	0.1582	0.079
Mof_C 	C 	0.07343	0.48377	0.19575	0.071
Mof_H 	H 	0.0612	0.4886	0.1846	-0.003
Mof_N 	N 	0.23413	0.49973	0.03929	-0.234
Mof_C 	C 	0.21221	0.48643	0.05761	0.07
Mof_H 	H 	0.2058	0.4802	0.0484	-0.004
Mof_C 	C 	0.19857	0.48129	0.08867	-0.12
Mof_H 	H 	0.1827	0.4723	0.1005	0.08
Mof_C 	C 	0.20826	0.4895	0.1026	0.052
Mof_C 	C 	0.23233	0.50185	0.08423	-0.118
Mof_H 	H 	0.2404	0.5066	0.0932	0.078
Mof_C 	C 	0.24405	0.50693	0.05297	0.068
Mof_H 	H 	0.2599	0.5159	0.0405	-0.003
Mof_N 	N 	0.01352	0.49344	0.28532	-0.255
Mof_C 	C 	0.02308	0.50526	0.29078	0.083
Mof_S 	S 	0.03623	0.52229	0.29753	-0.049
Mof_N 	N 	0.34215	0.34297	0.51683	-0.14
Mof_C 	C 	0.35593	0.31373	0.51695	0.101
Mof_N 	N 	0.45121	0.27161	0.50751	-0.24
Mof_C 	C 	0.4338	0.29624	0.51632	0.08
Mof_H 	H 	0.4431	0.3043	0.5207	-0.008
Mof_C 	C 	0.40287	0.31103	0.51953	-0.13
Mof_H 	H 	0.3916	0.3292	0.525	0.082
Mof_C 	C 	0.38875	0.29915	0.51477	0.059
Mof_C 	C 	0.4065	0.27326	0.50546	-0.124
Mof_H 	H 	0.3974	0.2646	0.5016	0.081
Mof_C 	C 	0.43761	0.26045	0.50195	0.072
Mof_H 	H 	0.4498	0.243	0.4952	-0.007
Mof_N 	N 	0.50244	0.28868	0.49902	-0.259
Mof_C 	C 	0.50904	0.31008	0.48962	0.097
Mof_S 	S 	0.51936	0.34066	0.47424	-0.052
Mof_N 	N 	0.49224	0.23072	0.5497	-0.237
Mof_C 	C 	0.48096	0.249	0.56598	0.071
Mof_H 	H 	0.4755	0.2707	0.5557	-0.005
Mof_C 	C 	0.47676	0.238	0.597	-0.122
Mof_H 	H 	0.469	0.2518	0.6076	0.079
Mof_C 	C 	0.48411	0.20667	0.61221	0.055
Mof_C 	C 	0.49509	0.18707	0.59577	-0.121
Mof_H 	H 	0.4994	0.1654	0.6058	0.08
Mof_C 	C 	0.49938	0.20002	0.56498	0.07
Mof_H 	H 	0.5079	0.1867	0.5535	-0.004
Mof_C 	C 	0.4774	0.15314	0.68968	0.101
Mof_N 	N 	0.4774	0.16552	0.6608	-0.139
Mof_C 	C 	0.48186	0.19286	0.64494	0.099
Mof_N 	N 	0.48555	0.20821	0.65611	-0.138
Mof_C 	C 	0.48444	0.19364	0.68566	0.102
Mof_N 	N 	0.4803	0.16648	0.70348	-0.14
Mof_N 	N 	0.47884	0.06032	0.73474	-0.236
Mof_C 	C 	0.47004	0.07848	0.70966	0.065
Mof_H 	H 	0.4652	0.0698	0.7014	-0.004
Mof_C 	C 	0.46784	0.10918	0.69538	-0.117
Mof_H 	H 	0.4616	0.1214	0.6776	0.079
Mof_C 	C 	0.47496	0.12192	0.70726	0.053
Mof_C 	C 	0.48221	0.10381	0.73415	-0.121
Mof_H 	H 	0.486	0.1122	0.7436	0.079
Mof_C 	C 	0.48377	0.07343	0.74705	0.071
Mof_H 	H 	0.4886	0.0612	0.7656	-0.003
Mof_N 	N 	0.49973	0.23413	0.72685	-0.234
Mof_C 	C 	0.48643	0.21221	0.74375	0.07
Mof_H 	H 	0.4802	0.2058	0.7656	-0.004
Mof_C 	C 	0.48129	0.19857	0.73147	-0.12
Mof_H 	H 	0.4723	0.1827	0.7445	0.08
Mof_C 	C 	0.4895	0.20826	0.69964	0.052
Mof_C 	C 	0.50185	0.23233	0.68159	-0.118
Mof_H 	H 	0.5066	0.2404	0.6598	0.078
Mof_C 	C 	0.50693	0.24405	0.69605	0.068
Mof_H 	H 	0.5159	0.2599	0.6837	-0.003
Mof_N 	N 	0.49344	0.01352	0.70772	-0.255
Mof_C 	C 	0.50526	0.02308	0.68088	0.083
Mof_S 	S 	0.52229	0.03623	0.64395	-0.049
Mof_N 	N 	0.34297	0.29805	0.51683	-0.14
Mof_C 	C 	0.31373	0.31339	0.51695	0.101
Mof_N 	N 	0.27161	0.26967	0.50751	-0.24
Mof_C 	C 	0.29624	0.25364	0.51632	0.08
Mof_H 	H 	0.3043	0.2319	0.5207	-0.008
Mof_C 	C 	0.31103	0.26657	0.51953	-0.13
Mof_H 	H 	0.3292	0.2542	0.525	0.082
Mof_C 	C 	0.29915	0.29733	0.51477	0.059
Mof_C 	C 	0.27326	0.31478	0.50546	-0.124
Mof_H 	H 	0.2646	0.3364	0.5016	0.081
Mof_C 	C 	0.26045	0.29999	0.50195	0.072
Mof_H 	H 	0.243	0.312	0.4952	-0.007
Mof_N 	N 	0.28868	0.20986	0.49902	-0.259
Mof_C 	C 	0.31008	0.19126	0.48962	0.097
Mof_S 	S 	0.34066	0.16574	0.47424	-0.052
Mof_N 	N 	0.23072	0.22734	0.5497	-0.237
Mof_C 	C 	0.249	0.20406	0.56598	0.071
Mof_H 	H 	0.2707	0.1981	0.5557	-0.005
Mof_C 	C 	0.238	0.18824	0.597	-0.122
Mof_H 	H 	0.2518	0.1716	0.6076	0.079
Mof_C 	C 	0.20667	0.19701	0.61221	0.055
Mof_C 	C 	0.18707	0.22207	0.59577	-0.121
Mof_H 	H 	0.1654	0.2294	0.6058	0.08
Mof_C 	C 	0.20002	0.23562	0.56498	0.07
Mof_H 	H 	0.1867	0.2519	0.5535	-0.004
Mof_C 	C 	0.15314	0.17978	0.68968	0.101
Mof_N 	N 	0.16552	0.19628	0.6608	-0.139
Mof_C 	C 	0.19286	0.18034	0.64494	0.099
Mof_N 	N 	0.20821	0.15013	0.65611	-0.138
Mof_C 	C 	0.19364	0.13626	0.68566	0.102
Mof_N 	N 	0.16648	0.14974	0.70348	-0.14
Mof_N 	N 	0.06032	0.2261	0.73474	-0.236
Mof_C 	C 	0.07848	0.24182	0.70966	0.065
Mof_H 	H 	0.0698	0.2636	0.7014	-0.004
Mof_C 	C 	0.10918	0.2276	0.69538	-0.117
Mof_H 	H 	0.1214	0.2394	0.6776	0.079
Mof_C 	C 	0.12192	0.19586	0.70726	0.053
Mof_C 	C 	0.10381	0.17983	0.73415	-0.121
Mof_H 	H 	0.1122	0.1582	0.7436	0.079
Mof_C 	C 	0.07343	0.19575	0.74705	0.071
Mof_H 	H 	0.0612	0.1846	0.7656	-0.003
Mof_N 	N 	0.23413	0.03929	0.72685	-0.234
Mof_C 	C 	0.21221	0.05761	0.74375	0.07
Mof_H 	H 	0.2058	0.0484	0.7656	-0.004
Mof_C 	C 	0.19857	0.08867	0.73147	-0.12
Mof_H 	H 	0.1827	0.1005	0.7445	0.08
Mof_C 	C 	0.20826	0.1026	0.69964	0.052
Mof_C 	C 	0.23233	0.08423	0.68159	-0.118
Mof_H 	H 	0.2404	0.0932	0.6598	0.078
Mof_C 	C 	0.24405	0.05297	0.69605	0.068
Mof_H 	H 	0.2599	0.0405	0.6837	-0.003
Mof_N 	N 	0.01352	0.28532	0.70772	-0.255
Mof_C 	C 	0.02308	0.29078	0.68088	0.083
Mof_S 	S 	0.03623	0.29753	0.64395	-0.049
Mof_N 	N 	0.34215	0.51683	0.29805	-0.14
Mof_C 	C 	0.35593	0.51695	0.31339	0.101
Mof_N 	N 	0.45121	0.50751	0.26967	-0.24
Mof_C 	C 	0.4338	0.51632	0.25364	0.08
Mof_H 	H 	0.4431	0.5207	0.2319	-0.008
Mof_C 	C 	0.40287	0.51953	0.26657	-0.13
Mof_H 	H 	0.3916	0.525	0.2542	0.082
Mof_C 	C 	0.38875	0.51477	0.29733	0.059
Mof_C 	C 	0.4065	0.50546	0.31478	-0.124
Mof_H 	H 	0.3974	0.5016	0.3364	0.081
Mof_C 	C 	0.43761	0.50195	0.29999	0.072
Mof_H 	H 	0.4498	0.4952	0.312	-0.007
Mof_N 	N 	0.50244	0.49902	0.20986	-0.259
Mof_C 	C 	0.50904	0.48962	0.19126	0.097
Mof_S 	S 	0.51936	0.47424	0.16574	-0.052
Mof_N 	N 	0.49224	0.5497	0.22734	-0.237
Mof_C 	C 	0.48096	0.56598	0.20406	0.071
Mof_H 	H 	0.4755	0.5557	0.1981	-0.005
Mof_C 	C 	0.47676	0.597	0.18824	-0.122
Mof_H 	H 	0.469	0.6076	0.1716	0.079
Mof_C 	C 	0.48411	0.61221	0.19701	0.055
Mof_C 	C 	0.49509	0.59577	0.22207	-0.121
Mof_H 	H 	0.4994	0.6058	0.2294	0.08
Mof_C 	C 	0.49938	0.56498	0.23562	0.07
Mof_H 	H 	0.5079	0.5535	0.2519	-0.004
Mof_C 	C 	0.4774	0.68968	0.17978	0.101
Mof_N 	N 	0.4774	0.6608	0.19628	-0.139
Mof_C 	C 	0.48186	0.64494	0.18034	0.099
Mof_N 	N 	0.48555	0.65611	0.15013	-0.138
Mof_C 	C 	0.48444	0.68566	0.13626	0.102
Mof_N 	N 	0.4803	0.70348	0.14974	-0.14
Mof_N 	N 	0.47884	0.73474	0.2261	-0.236
Mof_C 	C 	0.47004	0.70966	0.24182	0.065
Mof_H 	H 	0.4652	0.7014	0.2636	-0.004
Mof_C 	C 	0.46784	0.69538	0.2276	-0.117
Mof_H 	H 	0.4616	0.6776	0.2394	0.079
Mof_C 	C 	0.47496	0.70726	0.19586	0.053
Mof_C 	C 	0.48221	0.73415	0.17983	-0.121
Mof_H 	H 	0.486	0.7436	0.1582	0.079
Mof_C 	C 	0.48377	0.74705	0.19575	0.071
Mof_H 	H 	0.4886	0.7656	0.1846	-0.003
Mof_N 	N 	0.49973	0.72685	0.03929	-0.234
Mof_C 	C 	0.48643	0.74375	0.05761	0.07
Mof_H 	H 	0.4802	0.7656	0.0484	-0.004
Mof_C 	C 	0.48129	0.73147	0.08867	-0.12
Mof_H 	H 	0.4723	0.7445	0.1005	0.08
Mof_C 	C 	0.4895	0.69964	0.1026	0.052
Mof_C 	C 	0.50185	0.68159	0.08423	-0.118
Mof_H 	H 	0.5066	0.6598	0.0932	0.078
Mof_C 	C 	0.50693	0.69605	0.05297	0.068
Mof_H 	H 	0.5159	0.6837	0.0405	-0.003
Mof_N 	N 	0.49344	0.70772	0.28532	-0.255
Mof_C 	C 	0.50526	0.68088	0.29078	0.083
Mof_S 	S 	0.52229	0.64395	0.29753	-0.049
Mof_N 	N 	0.29805	0.34297	0.34215	-0.14
Mof_C 	C 	0.31339	0.31373	0.35593	0.101
Mof_N 	N 	0.26967	0.27161	0.45121	-0.24
Mof_C 	C 	0.25364	0.29624	0.4338	0.08
Mof_H 	H 	0.2319	0.3043	0.4431	-0.008
Mof_C 	C 	0.26657	0.31103	0.40287	-0.13
Mof_H 	H 	0.2542	0.3292	0.3916	0.082
Mof_C 	C 	0.29733	0.29915	0.38875	0.059
Mof_C 	C 	0.31478	0.27326	0.4065	-0.124
Mof_H 	H 	0.3364	0.2646	0.3974	0.081
Mof_C 	C 	0.29999	0.26045	0.43761	0.072
Mof_H 	H 	0.312	0.243	0.4498	-0.007
Mof_N 	N 	0.20986	0.28868	0.50244	-0.259
Mof_C 	C 	0.19126	0.31008	0.50904	0.097
Mof_S 	S 	0.16574	0.34066	0.51936	-0.052
Mof_N 	N 	0.22734	0.23072	0.49224	-0.237
Mof_C 	C 	0.20406	0.249	0.48096	0.071
Mof_H 	H 	0.1981	0.2707	0.4755	-0.005
Mof_C 	C 	0.18824	0.238	0.47676	-0.122
Mof_H 	H 	0.1716	0.2518	0.469	0.079
Mof_C 	C 	0.19701	0.20667	0.48411	0.055
Mof_C 	C 	0.22207	0.18707	0.49509	-0.121
Mof_H 	H 	0.2294	0.1654	0.4994	0.08
Mof_C 	C 	0.23562	0.20002	0.49938	0.07
Mof_H 	H 	0.2519	0.1867	0.5079	-0.004
Mof_C 	C 	0.17978	0.15314	0.4774	0.101
Mof_N 	N 	0.19628	0.16552	0.4774	-0.139
Mof_C 	C 	0.18034	0.19286	0.48186	0.099
Mof_N 	N 	0.15013	0.20821	0.48555	-0.138
Mof_C 	C 	0.13626	0.19364	0.48444	0.102
Mof_N 	N 	0.14974	0.16648	0.4803	-0.14
Mof_N 	N 	0.2261	0.06032	0.47884	-0.236
Mof_C 	C 	0.24182	0.07848	0.47004	0.065
Mof_H 	H 	0.2636	0.0698	0.4652	-0.004
Mof_C 	C 	0.2276	0.10918	0.46784	-0.117
Mof_H 	H 	0.2394	0.1214	0.4616	0.079
Mof_C 	C 	0.19586	0.12192	0.47496	0.053
Mof_C 	C 	0.17983	0.10381	0.48221	-0.121
Mof_H 	H 	0.1582	0.1122	0.486	0.079
Mof_C 	C 	0.19575	0.07343	0.48377	0.071
Mof_H 	H 	0.1846	0.0612	0.4886	-0.003
Mof_N 	N 	0.03929	0.23413	0.49973	-0.234
Mof_C 	C 	0.05761	0.21221	0.48643	0.07
Mof_H 	H 	0.0484	0.2058	0.4802	-0.004
Mof_C 	C 	0.08867	0.19857	0.48129	-0.12
Mof_H 	H 	0.1005	0.1827	0.4723	0.08
Mof_C 	C 	0.1026	0.20826	0.4895	0.052
Mof_C 	C 	0.08423	0.23233	0.50185	-0.118
Mof_H 	H 	0.0932	0.2404	0.5066	0.078
Mof_C 	C 	0.05297	0.24405	0.50693	0.068
Mof_H 	H 	0.0405	0.2599	0.5159	-0.003
Mof_N 	N 	0.28532	0.01352	0.49344	-0.255
Mof_C 	C 	0.29078	0.02308	0.50526	0.083
Mof_S 	S 	0.29753	0.03623	0.52229	-0.049
Mof_N 	N 	0.51683	0.34215	0.34297	-0.14
Mof_C 	C 	0.51695	0.35593	0.31373	0.101
Mof_N 	N 	0.50751	0.45121	0.27161	-0.24
Mof_C 	C 	0.51632	0.4338	0.29624	0.08
Mof_H 	H 	0.5207	0.4431	0.3043	-0.008
Mof_C 	C 	0.51953	0.40287	0.31103	-0.13
Mof_H 	H 	0.525	0.3916	0.3292	0.082
Mof_C 	C 	0.51477	0.38875	0.29915	0.059
Mof_C 	C 	0.50546	0.4065	0.27326	-0.124
Mof_H 	H 	0.5016	0.3974	0.2646	0.081
Mof_C 	C 	0.50195	0.43761	0.26045	0.072
Mof_H 	H 	0.4952	0.4498	0.243	-0.007
Mof_N 	N 	0.49902	0.50244	0.28868	-0.259
Mof_C 	C 	0.48962	0.50904	0.31008	0.097
Mof_S 	S 	0.47424	0.51936	0.34066	-0.052
Mof_N 	N 	0.5497	0.49224	0.23072	-0.237
Mof_C 	C 	0.56598	0.48096	0.249	0.071
Mof_H 	H 	0.5557	0.4755	0.2707	-0.005
Mof_C 	C 	0.597	0.47676	0.238	-0.122
Mof_H 	H 	0.6076	0.469	0.2518	0.079
Mof_C 	C 	0.61221	0.48411	0.20667	0.055
Mof_C 	C 	0.59577	0.49509	0.18707	-0.121
Mof_H 	H 	0.6058	0.4994	0.1654	0.08
Mof_C 	C 	0.56498	0.49938	0.20002	0.07
Mof_H 	H 	0.5535	0.5079	0.1867	-0.004
Mof_C 	C 	0.68968	0.4774	0.15314	0.101
Mof_N 	N 	0.6608	0.4774	0.16552	-0.139
Mof_C 	C 	0.64494	0.48186	0.19286	0.099
Mof_N 	N 	0.65611	0.48555	0.20821	-0.138
Mof_C 	C 	0.68566	0.48444	0.19364	0.102
Mof_N 	N 	0.70348	0.4803	0.16648	-0.14
Mof_N 	N 	0.73474	0.47884	0.06032	-0.236
Mof_C 	C 	0.70966	0.47004	0.07848	0.065
Mof_H 	H 	0.7014	0.4652	0.0698	-0.004
Mof_C 	C 	0.69538	0.46784	0.10918	-0.117
Mof_H 	H 	0.6776	0.4616	0.1214	0.079
Mof_C 	C 	0.70726	0.47496	0.12192	0.053
Mof_C 	C 	0.73415	0.48221	0.10381	-0.121
Mof_H 	H 	0.7436	0.486	0.1122	0.079
Mof_C 	C 	0.74705	0.48377	0.07343	0.071
Mof_H 	H 	0.7656	0.4886	0.0612	-0.003
Mof_N 	N 	0.72685	0.49973	0.23413	-0.234
Mof_C 	C 	0.74375	0.48643	0.21221	0.07
Mof_H 	H 	0.7656	0.4802	0.2058	-0.004
Mof_C 	C 	0.73147	0.48129	0.19857	-0.12
Mof_H 	H 	0.7445	0.4723	0.1827	0.08
Mof_C 	C 	0.69964	0.4895	0.20826	0.052
Mof_C 	C 	0.68159	0.50185	0.23233	-0.118
Mof_H 	H 	0.6598	0.5066	0.2404	0.078
Mof_C 	C 	0.69605	0.50693	0.24405	0.068
Mof_H 	H 	0.6837	0.5159	0.2599	-0.003
Mof_N 	N 	0.70772	0.49344	0.01352	-0.255
Mof_C 	C 	0.68088	0.50526	0.02308	0.083
Mof_S 	S 	0.64395	0.52229	0.03623	-0.049
Mof_N 	N 	0.51683	0.34297	0.29805	-0.14
Mof_C 	C 	0.51695	0.31373	0.31339	0.101
Mof_N 	N 	0.50751	0.27161	0.26967	-0.24
Mof_C 	C 	0.51632	0.29624	0.25364	0.08
Mof_H 	H 	0.5207	0.3043	0.2319	-0.008
Mof_C 	C 	0.51953	0.31103	0.26657	-0.13
Mof_H 	H 	0.525	0.3292	0.2542	0.082
Mof_C 	C 	0.51477	0.29915	0.29733	0.059
Mof_C 	C 	0.50546	0.27326	0.31478	-0.124
Mof_H 	H 	0.5016	0.2646	0.3364	0.081
Mof_C 	C 	0.50195	0.26045	0.29999	0.072
Mof_H 	H 	0.4952	0.243	0.312	-0.007
Mof_N 	N 	0.49902	0.28868	0.20986	-0.259
Mof_C 	C 	0.48962	0.31008	0.19126	0.097
Mof_S 	S 	0.47424	0.34066	0.16574	-0.052
Mof_N 	N 	0.5497	0.23072	0.22734	-0.237
Mof_C 	C 	0.56598	0.249	0.20406	0.071
Mof_H 	H 	0.5557	0.2707	0.1981	-0.005
Mof_C 	C 	0.597	0.238	0.18824	-0.122
Mof_H 	H 	0.6076	0.2518	0.1716	0.079
Mof_C 	C 	0.61221	0.20667	0.19701	0.055
Mof_C 	C 	0.59577	0.18707	0.22207	-0.121
Mof_H 	H 	0.6058	0.1654	0.2294	0.08
Mof_C 	C 	0.56498	0.20002	0.23562	0.07
Mof_H 	H 	0.5535	0.1867	0.2519	-0.004
Mof_C 	C 	0.68968	0.15314	0.17978	0.101
Mof_N 	N 	0.6608	0.16552	0.19628	-0.139
Mof_C 	C 	0.64494	0.19286	0.18034	0.099
Mof_N 	N 	0.65611	0.20821	0.15013	-0.138
Mof_C 	C 	0.68566	0.19364	0.13626	0.102
Mof_N 	N 	0.70348	0.16648	0.14974	-0.14
Mof_N 	N 	0.73474	0.06032	0.2261	-0.236
Mof_C 	C 	0.70966	0.07848	0.24182	0.065
Mof_H 	H 	0.7014	0.0698	0.2636	-0.004
Mof_C 	C 	0.69538	0.10918	0.2276	-0.117
Mof_H 	H 	0.6776	0.1214	0.2394	0.079
Mof_C 	C 	0.70726	0.12192	0.19586	0.053
Mof_C 	C 	0.73415	0.10381	0.17983	-0.121
Mof_H 	H 	0.7436	0.1122	0.1582	0.079
Mof_C 	C 	0.74705	0.07343	0.19575	0.071
Mof_H 	H 	0.7656	0.0612	0.1846	-0.003
Mof_N 	N 	0.72685	0.23413	0.03929	-0.234
Mof_C 	C 	0.74375	0.21221	0.05761	0.07
Mof_H 	H 	0.7656	0.2058	0.0484	-0.004
Mof_C 	C 	0.73147	0.19857	0.08867	-0.12
Mof_H 	H 	0.7445	0.1827	0.1005	0.08
Mof_C 	C 	0.69964	0.20826	0.1026	0.052
Mof_C 	C 	0.68159	0.23233	0.08423	-0.118
Mof_H 	H 	0.6598	0.2404	0.0932	0.078
Mof_C 	C 	0.69605	0.24405	0.05297	0.068
Mof_H 	H 	0.6837	0.2599	0.0405	-0.003
Mof_N 	N 	0.70772	0.01352	0.28532	-0.255
Mof_C 	C 	0.68088	0.02308	0.29078	0.083
Mof_S 	S 	0.64395	0.03623	0.29753	-0.049
Mof_N 	N 	0.29805	0.34215	0.51683	-0.14
Mof_C 	C 	0.31339	0.35593	0.51695	0.101
Mof_N 	N 	0.26967	0.45121	0.50751	-0.24
Mof_C 	C 	0.25364	0.4338	0.51632	0.08
Mof_H 	H 	0.2319	0.4431	0.5207	-0.008
Mof_C 	C 	0.26657	0.40287	0.51953	-0.13
Mof_H 	H 	0.2542	0.3916	0.525	0.082
Mof_C 	C 	0.29733	0.38875	0.51477	0.059
Mof_C 	C 	0.31478	0.4065	0.50546	-0.124
Mof_H 	H 	0.3364	0.3974	0.5016	0.081
Mof_C 	C 	0.29999	0.43761	0.50195	0.072
Mof_H 	H 	0.312	0.4498	0.4952	-0.007
Mof_N 	N 	0.20986	0.50244	0.49902	-0.259
Mof_C 	C 	0.19126	0.50904	0.48962	0.097
Mof_S 	S 	0.16574	0.51936	0.47424	-0.052
Mof_N 	N 	0.22734	0.49224	0.5497	-0.237
Mof_C 	C 	0.20406	0.48096	0.56598	0.071
Mof_H 	H 	0.1981	0.4755	0.5557	-0.005
Mof_C 	C 	0.18824	0.47676	0.597	-0.122
Mof_H 	H 	0.1716	0.469	0.6076	0.079
Mof_C 	C 	0.19701	0.48411	0.61221	0.055
Mof_C 	C 	0.22207	0.49509	0.59577	-0.121
Mof_H 	H 	0.2294	0.4994	0.6058	0.08
Mof_C 	C 	0.23562	0.49938	0.56498	0.07
Mof_H 	H 	0.2519	0.5079	0.5535	-0.004
Mof_C 	C 	0.17978	0.4774	0.68968	0.101
Mof_N 	N 	0.19628	0.4774	0.6608	-0.139
Mof_C 	C 	0.18034	0.48186	0.64494	0.099
Mof_N 	N 	0.15013	0.48555	0.65611	-0.138
Mof_C 	C 	0.13626	0.48444	0.68566	0.102
Mof_N 	N 	0.14974	0.4803	0.70348	-0.14
Mof_N 	N 	0.2261	0.47884	0.73474	-0.236
Mof_C 	C 	0.24182	0.47004	0.70966	0.065
Mof_H 	H 	0.2636	0.4652	0.7014	-0.004
Mof_C 	C 	0.2276	0.46784	0.69538	-0.117
Mof_H 	H 	0.2394	0.4616	0.6776	0.079
Mof_C 	C 	0.19586	0.47496	0.70726	0.053
Mof_C 	C 	0.17983	0.48221	0.73415	-0.121
Mof_H 	H 	0.1582	0.486	0.7436	0.079
Mof_C 	C 	0.19575	0.48377	0.74705	0.071
Mof_H 	H 	0.1846	0.4886	0.7656	-0.003
Mof_N 	N 	0.03929	0.49973	0.72685	-0.234
Mof_C 	C 	0.05761	0.48643	0.74375	0.07
Mof_H 	H 	0.0484	0.4802	0.7656	-0.004
Mof_C 	C 	0.08867	0.48129	0.73147	-0.12
Mof_H 	H 	0.1005	0.4723	0.7445	0.08
Mof_C 	C 	0.1026	0.4895	0.69964	0.052
Mof_C 	C 	0.08423	0.50185	0.68159	-0.118
Mof_H 	H 	0.0932	0.5066	0.6598	0.078
Mof_C 	C 	0.05297	0.50693	0.69605	0.068
Mof_H 	H 	0.0405	0.5159	0.6837	-0.003
Mof_N 	N 	0.28532	0.49344	0.70772	-0.255
Mof_C 	C 	0.29078	0.50526	0.68088	0.083
Mof_S 	S 	0.29753	0.52229	0.64395	-0.049
Mof_N 	N 	0.34215	0.29805	0.34297	-0.14
Mof_C 	C 	0.35593	0.31339	0.31373	0.101
Mof_N 	N 	0.45121	0.26967	0.27161	-0.24
Mof_C 	C 	0.4338	0.25364	0.29624	0.08
Mof_H 	H 	0.4431	0.2319	0.3043	-0.008
Mof_C 	C 	0.40287	0.26657	0.31103	-0.13
Mof_H 	H 	0.3916	0.2542	0.3292	0.082
Mof_C 	C 	0.38875	0.29733	0.29915	0.059
Mof_C 	C 	0.4065	0.31478	0.27326	-0.124
Mof_H 	H 	0.3974	0.3364	0.2646	0.081
Mof_C 	C 	0.43761	0.29999	0.26045	0.072
Mof_H 	H 	0.4498	0.312	0.243	-0.007
Mof_N 	N 	0.50244	0.20986	0.28868	-0.259
Mof_C 	C 	0.50904	0.19126	0.31008	0.097
Mof_S 	S 	0.51936	0.16574	0.34066	-0.052
Mof_N 	N 	0.49224	0.22734	0.23072	-0.237
Mof_C 	C 	0.48096	0.20406	0.249	0.071
Mof_H 	H 	0.4755	0.1981	0.2707	-0.005
Mof_C 	C 	0.47676	0.18824	0.238	-0.122
Mof_H 	H 	0.469	0.1716	0.2518	0.079
Mof_C 	C 	0.48411	0.19701	0.20667	0.055
Mof_C 	C 	0.49509	0.22207	0.18707	-0.121
Mof_H 	H 	0.4994	0.2294	0.1654	0.08
Mof_C 	C 	0.49938	0.23562	0.20002	0.07
Mof_H 	H 	0.5079	0.2519	0.1867	-0.004
Mof_C 	C 	0.4774	0.17978	0.15314	0.101
Mof_N 	N 	0.4774	0.19628	0.16552	-0.139
Mof_C 	C 	0.48186	0.18034	0.19286	0.099
Mof_N 	N 	0.48555	0.15013	0.20821	-0.138
Mof_C 	C 	0.48444	0.13626	0.19364	0.102
Mof_N 	N 	0.4803	0.14974	0.16648	-0.14
Mof_N 	N 	0.47884	0.2261	0.06032	-0.236
Mof_C 	C 	0.47004	0.24182	0.07848	0.065
Mof_H 	H 	0.4652	0.2636	0.0698	-0.004
Mof_C 	C 	0.46784	0.2276	0.10918	-0.117
Mof_H 	H 	0.4616	0.2394	0.1214	0.079
Mof_C 	C 	0.47496	0.19586	0.12192	0.053
Mof_C 	C 	0.48221	0.17983	0.10381	-0.121
Mof_H 	H 	0.486	0.1582	0.1122	0.079
Mof_C 	C 	0.48377	0.19575	0.07343	0.071
Mof_H 	H 	0.4886	0.1846	0.0612	-0.003
Mof_N 	N 	0.49973	0.03929	0.23413	-0.234
Mof_C 	C 	0.48643	0.05761	0.21221	0.07
Mof_H 	H 	0.4802	0.0484	0.2058	-0.004
Mof_C 	C 	0.48129	0.08867	0.19857	-0.12
Mof_H 	H 	0.4723	0.1005	0.1827	0.08
Mof_C 	C 	0.4895	0.1026	0.20826	0.052
Mof_C 	C 	0.50185	0.08423	0.23233	-0.118
Mof_H 	H 	0.5066	0.0932	0.2404	0.078
Mof_C 	C 	0.50693	0.05297	0.24405	0.068
Mof_H 	H 	0.5159	0.0405	0.2599	-0.003
Mof_N 	N 	0.49344	0.28532	0.01352	-0.255
Mof_C 	C 	0.50526	0.29078	0.02308	0.083
Mof_S 	S 	0.52229	0.29753	0.03623	-0.049
Mof_N 	N 	0.34297	0.51683	0.34215	-0.14
Mof_C 	C 	0.31373	0.51695	0.35593	0.101
Mof_N 	N 	0.27161	0.50751	0.45121	-0.24
Mof_C 	C 	0.29624	0.51632	0.4338	0.08
Mof_H 	H 	0.3043	0.5207	0.4431	-0.008
Mof_C 	C 	0.31103	0.51953	0.40287	-0.13
Mof_H 	H 	0.3292	0.525	0.3916	0.082
Mof_C 	C 	0.29915	0.51477	0.38875	0.059
Mof_C 	C 	0.27326	0.50546	0.4065	-0.124
Mof_H 	H 	0.2646	0.5016	0.3974	0.081
Mof_C 	C 	0.26045	0.50195	0.43761	0.072
Mof_H 	H 	0.243	0.4952	0.4498	-0.007
Mof_N 	N 	0.28868	0.49902	0.50244	-0.259
Mof_C 	C 	0.31008	0.48962	0.50904	0.097
Mof_S 	S 	0.34066	0.47424	0.51936	-0.052
Mof_N 	N 	0.23072	0.5497	0.49224	-0.237
Mof_C 	C 	0.249	0.56598	0.48096	0.071
Mof_H 	H 	0.2707	0.5557	0.4755	-0.005
Mof_C 	C 	0.238	0.597	0.47676	-0.122
Mof_H 	H 	0.2518	0.6076	0.469	0.079
Mof_C 	C 	0.20667	0.61221	0.48411	0.055
Mof_C 	C 	0.18707	0.59577	0.49509	-0.121
Mof_H 	H 	0.1654	0.6058	0.4994	0.08
Mof_C 	C 	0.20002	0.56498	0.49938	0.07
Mof_H 	H 	0.1867	0.5535	0.5079	-0.004
Mof_C 	C 	0.15314	0.68968	0.4774	0.101
Mof_N 	N 	0.16552	0.6608	0.4774	-0.139
Mof_C 	C 	0.19286	0.64494	0.48186	0.099
Mof_N 	N 	0.20821	0.65611	0.48555	-0.138
Mof_C 	C 	0.19364	0.68566	0.48444	0.102
Mof_N 	N 	0.16648	0.70348	0.4803	-0.14
Mof_N 	N 	0.06032	0.73474	0.47884	-0.236
Mof_C 	C 	0.07848	0.70966	0.47004	0.065
Mof_H 	H 	0.0698	0.7014	0.4652	-0.004
Mof_C 	C 	0.10918	0.69538	0.46784	-0.117
Mof_H 	H 	0.1214	0.6776	0.4616	0.079
Mof_C 	C 	0.12192	0.70726	0.47496	0.053
Mof_C 	C 	0.10381	0.73415	0.48221	-0.121
Mof_H 	H 	0.1122	0.7436	0.486	0.079
Mof_C 	C 	0.07343	0.74705	0.48377	0.071
Mof_H 	H 	0.0612	0.7656	0.4886	-0.003
Mof_N 	N 	0.23413	0.72685	0.49973	-0.234
Mof_C 	C 	0.21221	0.74375	0.48643	0.07
Mof_H 	H 	0.2058	0.7656	0.4802	-0.004
Mof_C 	C 	0.19857	0.73147	0.48129	-0.12
Mof_H 	H 	0.1827	0.7445	0.4723	0.08
Mof_C 	C 	0.20826	0.69964	0.4895	0.052
Mof_C 	C 	0.23233	0.68159	0.50185	-0.118
Mof_H 	H 	0.2404	0.6598	0.5066	0.078
Mof_C 	C 	0.24405	0.69605	0.50693	0.068
Mof_H 	H 	0.2599	0.6837	0.5159	-0.003
Mof_N 	N 	0.01352	0.70772	0.49344	-0.255
Mof_C 	C 	0.02308	0.68088	0.50526	0.083
Mof_S 	S 	0.03623	0.64395	0.52229	-0.049
Mof_N 	N 	0.20195	0.98317	0.15785	-0.14
Mof_C 	C 	0.18661	0.98305	0.14407	0.101
Mof_N 	N 	0.23033	0.99249	0.04879	-0.24
Mof_C 	C 	0.24636	0.98368	0.0662	0.08
Mof_H 	H 	0.2681	0.9793	0.0569	-0.008
Mof_C 	C 	0.23343	0.98047	0.09713	-0.13
Mof_H 	H 	0.2458	0.975	0.1084	0.082
Mof_C 	C 	0.20267	0.98523	0.11125	0.059
Mof_C 	C 	0.18522	0.99454	0.0935	-0.124
Mof_H 	H 	0.1636	0.9984	0.1026	0.081
Mof_C 	C 	0.20001	0.99805	0.06239	0.072
Mof_H 	H 	0.188	0.0048	0.0502	-0.007
Mof_N 	N 	0.29014	0.00098	0.99756	-0.259
Mof_C 	C 	0.30874	0.01038	0.99096	0.097
Mof_S 	S 	0.33426	0.02576	0.98064	-0.052
Mof_N 	N 	0.27266	0.9503	0.00776	-0.237
Mof_C 	C 	0.29594	0.93402	0.01904	0.071
Mof_H 	H 	0.3019	0.9443	0.0245	-0.005
Mof_C 	C 	0.31176	0.903	0.02324	-0.122
Mof_H 	H 	0.3284	0.8924	0.031	0.079
Mof_C 	C 	0.30299	0.88779	0.01589	0.055
Mof_C 	C 	0.27793	0.90423	0.00491	-0.121
Mof_H 	H 	0.2706	0.8942	0.0006	0.08
Mof_C 	C 	0.26438	0.93502	0.00062	0.07
Mof_H 	H 	0.2481	0.9465	0.9921	-0.004
Mof_C 	C 	0.32022	0.81032	0.0226	0.101
Mof_N 	N 	0.30372	0.8392	0.0226	-0.139
Mof_C 	C 	0.31966	0.85506	0.01814	0.099
Mof_N 	N 	0.34987	0.84389	0.01445	-0.138
Mof_C 	C 	0.36374	0.81434	0.01556	0.102
Mof_N 	N 	0.35026	0.79652	0.0197	-0.14
Mof_N 	N 	0.2739	0.76526	0.02116	-0.236
Mof_C 	C 	0.25818	0.79034	0.02996	0.065
Mof_H 	H 	0.2364	0.7986	0.0348	-0.004
Mof_C 	C 	0.2724	0.80462	0.03216	-0.117
Mof_H 	H 	0.2606	0.8224	0.0384	0.079
Mof_C 	C 	0.30414	0.79274	0.02504	0.053
Mof_C 	C 	0.32017	0.76585	0.01779	-0.121
Mof_H 	H 	0.3418	0.7564	0.014	0.079
Mof_C 	C 	0.30425	0.75295	0.01623	0.071
Mof_H 	H 	0.3154	0.7344	0.0114	-0.003
Mof_N 	N 	0.46071	0.77315	0.00027	-0.234
Mof_C 	C 	0.44239	0.75625	0.01357	0.07
Mof_H 	H 	0.4516	0.7344	0.0198	-0.004
Mof_C 	C 	0.41133	0.76853	0.01871	-0.12
Mof_H 	H 	0.3995	0.7555	0.0277	0.08
Mof_C 	C 	0.3974	0.80036	0.0105	0.052
Mof_C 	C 	0.41577	0.81841	0.99815	-0.118
Mof_H 	H 	0.4068	0.8402	0.9934	0.078
Mof_C 	C 	0.44703	0.80395	0.99307	0.068
Mof_H 	H 	0.4595	0.8163	0.9841	-0.003
Mof_N 	N 	0.21468	0.79228	0.00656	-0.255
Mof_C 	C 	0.20922	0.81912	0.99474	0.083
Mof_S 	S 	0.20247	0.85605	0.97771	-0.049
Mof_N 	N 	0.98317	0.20195	0.15703	-0.14
Mof_C 	C 	0.98305	0.18661	0.18627	0.101
Mof_N 	N 	0.99249	0.23033	0.22839	-0.24
Mof_C 	C 	0.98368	0.24636	0.20376	0.08
Mof_H 	H 	0.9793	0.2681	0.1957	-0.008
Mof_C 	C 	0.98047	0.23343	0.18897	-0.13
Mof_H 	H 	0.975	0.2458	0.1708	0.082
Mof_C 	C 	0.98523	0.20267	0.20085	0.059
Mof_C 	C 	0.99454	0.18522	0.22674	-0.124
Mof_H 	H 	0.9984	0.1636	0.2354	0.081
Mof_C 	C 	0.99805	0.20001	0.23955	0.072
Mof_H 	H 	0.0048	0.188	0.257	-0.007
Mof_N 	N 	0.00098	0.29014	0.21132	-0.259
Mof_C 	C 	0.01038	0.30874	0.18992	0.097
Mof_S 	S 	0.02576	0.33426	0.15934	-0.052
Mof_N 	N 	0.9503	0.27266	0.26928	-0.237
Mof_C 	C 	0.93402	0.29594	0.251	0.071
Mof_H 	H 	0.9443	0.3019	0.2293	-0.005
Mof_C 	C 	0.903	0.31176	0.262	-0.122
Mof_H 	H 	0.8924	0.3284	0.2482	0.079
Mof_C 	C 	0.88779	0.30299	0.29333	0.055
Mof_C 	C 	0.90423	0.27793	0.31293	-0.121
Mof_H 	H 	0.8942	0.2706	0.3346	0.08
Mof_C 	C 	0.93502	0.26438	0.29998	0.07
Mof_H 	H 	0.9465	0.2481	0.3133	-0.004
Mof_C 	C 	0.81032	0.32022	0.34686	0.101
Mof_N 	N 	0.8392	0.30372	0.33448	-0.139
Mof_C 	C 	0.85506	0.31966	0.30714	0.099
Mof_N 	N 	0.84389	0.34987	0.29179	-0.138
Mof_C 	C 	0.81434	0.36374	0.30636	0.102
Mof_N 	N 	0.79652	0.35026	0.33352	-0.14
Mof_N 	N 	0.76526	0.2739	0.43968	-0.236
Mof_C 	C 	0.79034	0.25818	0.42152	0.065
Mof_H 	H 	0.7986	0.2364	0.4302	-0.004
Mof_C 	C 	0.80462	0.2724	0.39082	-0.117
Mof_H 	H 	0.8224	0.2606	0.3786	0.079
Mof_C 	C 	0.79274	0.30414	0.37808	0.053
Mof_C 	C 	0.76585	0.32017	0.39619	-0.121
Mof_H 	H 	0.7564	0.3418	0.3878	0.079
Mof_C 	C 	0.75295	0.30425	0.42657	0.071
Mof_H 	H 	0.7344	0.3154	0.4388	-0.003
Mof_N 	N 	0.77315	0.46071	0.26587	-0.234
Mof_C 	C 	0.75625	0.44239	0.28779	0.07
Mof_H 	H 	0.7344	0.4516	0.2942	-0.004
Mof_C 	C 	0.76853	0.41133	0.30143	-0.12
Mof_H 	H 	0.7555	0.3995	0.3173	0.08
Mof_C 	C 	0.80036	0.3974	0.29174	0.052
Mof_C 	C 	0.81841	0.41577	0.26767	-0.118
Mof_H 	H 	0.8402	0.4068	0.2596	0.078
Mof_C 	C 	0.80395	0.44703	0.25595	0.068
Mof_H 	H 	0.8163	0.4595	0.2401	-0.003
Mof_N 	N 	0.79228	0.21468	0.48648	-0.255
Mof_C 	C 	0.81912	0.20922	0.47692	0.083
Mof_S 	S 	0.85605	0.20247	0.46377	-0.049
Mof_N 	N 	0.15703	0.15785	0.98317	-0.14
Mof_C 	C 	0.18627	0.14407	0.98305	0.101
Mof_N 	N 	0.22839	0.04879	0.99249	-0.24
Mof_C 	C 	0.20376	0.0662	0.98368	0.08
Mof_H 	H 	0.1957	0.0569	0.9793	-0.008
Mof_C 	C 	0.18897	0.09713	0.98047	-0.13
Mof_H 	H 	0.1708	0.1084	0.975	0.082
Mof_C 	C 	0.20085	0.11125	0.98523	0.059
Mof_C 	C 	0.22674	0.0935	0.99454	-0.124
Mof_H 	H 	0.2354	0.1026	0.9984	0.081
Mof_C 	C 	0.23955	0.06239	0.99805	0.072
Mof_H 	H 	0.257	0.0502	0.0048	-0.007
Mof_N 	N 	0.21132	0.99756	0.00098	-0.259
Mof_C 	C 	0.18992	0.99096	0.01038	0.097
Mof_S 	S 	0.15934	0.98064	0.02576	-0.052
Mof_N 	N 	0.26928	0.00776	0.9503	-0.237
Mof_C 	C 	0.251	0.01904	0.93402	0.071
Mof_H 	H 	0.2293	0.0245	0.9443	-0.005
Mof_C 	C 	0.262	0.02324	0.903	-0.122
Mof_H 	H 	0.2482	0.031	0.8924	0.079
Mof_C 	C 	0.29333	0.01589	0.88779	0.055
Mof_C 	C 	0.31293	0.00491	0.90423	-0.121
Mof_H 	H 	0.3346	0.0006	0.8942	0.08
Mof_C 	C 	0.29998	0.00062	0.93502	0.07
Mof_H 	H 	0.3133	0.9921	0.9465	-0.004
Mof_C 	C 	0.34686	0.0226	0.81032	0.101
Mof_N 	N 	0.33448	0.0226	0.8392	-0.139
Mof_C 	C 	0.30714	0.01814	0.85506	0.099
Mof_N 	N 	0.29179	0.01445	0.84389	-0.138
Mof_C 	C 	0.30636	0.01556	0.81434	0.102
Mof_N 	N 	0.33352	0.0197	0.79652	-0.14
Mof_N 	N 	0.43968	0.02116	0.76526	-0.236
Mof_C 	C 	0.42152	0.02996	0.79034	0.065
Mof_H 	H 	0.4302	0.0348	0.7986	-0.004
Mof_C 	C 	0.39082	0.03216	0.80462	-0.117
Mof_H 	H 	0.3786	0.0384	0.8224	0.079
Mof_C 	C 	0.37808	0.02504	0.79274	0.053
Mof_C 	C 	0.39619	0.01779	0.76585	-0.121
Mof_H 	H 	0.3878	0.014	0.7564	0.079
Mof_C 	C 	0.42657	0.01623	0.75295	0.071
Mof_H 	H 	0.4388	0.0114	0.7344	-0.003
Mof_N 	N 	0.26587	0.00027	0.77315	-0.234
Mof_C 	C 	0.28779	0.01357	0.75625	0.07
Mof_H 	H 	0.2942	0.0198	0.7344	-0.004
Mof_C 	C 	0.30143	0.01871	0.76853	-0.12
Mof_H 	H 	0.3173	0.0277	0.7555	0.08
Mof_C 	C 	0.29174	0.0105	0.80036	0.052
Mof_C 	C 	0.26767	0.99815	0.81841	-0.118
Mof_H 	H 	0.2596	0.9934	0.8402	0.078
Mof_C 	C 	0.25595	0.99307	0.80395	0.068
Mof_H 	H 	0.2401	0.9841	0.8163	-0.003
Mof_N 	N 	0.48648	0.00656	0.79228	-0.255
Mof_C 	C 	0.47692	0.99474	0.81912	0.083
Mof_S 	S 	0.46377	0.97771	0.85605	-0.049
Mof_N 	N 	0.15785	0.15703	0.20195	-0.14
Mof_C 	C 	0.14407	0.18627	0.18661	0.101
Mof_N 	N 	0.04879	0.22839	0.23033	-0.24
Mof_C 	C 	0.0662	0.20376	0.24636	0.08
Mof_H 	H 	0.0569	0.1957	0.2681	-0.008
Mof_C 	C 	0.09713	0.18897	0.23343	-0.13
Mof_H 	H 	0.1084	0.1708	0.2458	0.082
Mof_C 	C 	0.11125	0.20085	0.20267	0.059
Mof_C 	C 	0.0935	0.22674	0.18522	-0.124
Mof_H 	H 	0.1026	0.2354	0.1636	0.081
Mof_C 	C 	0.06239	0.23955	0.20001	0.072
Mof_H 	H 	0.0502	0.257	0.188	-0.007
Mof_N 	N 	0.99756	0.21132	0.29014	-0.259
Mof_C 	C 	0.99096	0.18992	0.30874	0.097
Mof_S 	S 	0.98064	0.15934	0.33426	-0.052
Mof_N 	N 	0.00776	0.26928	0.27266	-0.237
Mof_C 	C 	0.01904	0.251	0.29594	0.071
Mof_H 	H 	0.0245	0.2293	0.3019	-0.005
Mof_C 	C 	0.02324	0.262	0.31176	-0.122
Mof_H 	H 	0.031	0.2482	0.3284	0.079
Mof_C 	C 	0.01589	0.29333	0.30299	0.055
Mof_C 	C 	0.00491	0.31293	0.27793	-0.121
Mof_H 	H 	0.0006	0.3346	0.2706	0.08
Mof_C 	C 	0.00062	0.29998	0.26438	0.07
Mof_H 	H 	0.9921	0.3133	0.2481	-0.004
Mof_C 	C 	0.0226	0.34686	0.32022	0.101
Mof_N 	N 	0.0226	0.33448	0.30372	-0.139
Mof_C 	C 	0.01814	0.30714	0.31966	0.099
Mof_N 	N 	0.01445	0.29179	0.34987	-0.138
Mof_C 	C 	0.01556	0.30636	0.36374	0.102
Mof_N 	N 	0.0197	0.33352	0.35026	-0.14
Mof_N 	N 	0.02116	0.43968	0.2739	-0.236
Mof_C 	C 	0.02996	0.42152	0.25818	0.065
Mof_H 	H 	0.0348	0.4302	0.2364	-0.004
Mof_C 	C 	0.03216	0.39082	0.2724	-0.117
Mof_H 	H 	0.0384	0.3786	0.2606	0.079
Mof_C 	C 	0.02504	0.37808	0.30414	0.053
Mof_C 	C 	0.01779	0.39619	0.32017	-0.121
Mof_H 	H 	0.014	0.3878	0.3418	0.079
Mof_C 	C 	0.01623	0.42657	0.30425	0.071
Mof_H 	H 	0.0114	0.4388	0.3154	-0.003
Mof_N 	N 	0.00027	0.26587	0.46071	-0.234
Mof_C 	C 	0.01357	0.28779	0.44239	0.07
Mof_H 	H 	0.0198	0.2942	0.4516	-0.004
Mof_C 	C 	0.01871	0.30143	0.41133	-0.12
Mof_H 	H 	0.0277	0.3173	0.3995	0.08
Mof_C 	C 	0.0105	0.29174	0.3974	0.052
Mof_C 	C 	0.99815	0.26767	0.41577	-0.118
Mof_H 	H 	0.9934	0.2596	0.4068	0.078
Mof_C 	C 	0.99307	0.25595	0.44703	0.068
Mof_H 	H 	0.9841	0.2401	0.4595	-0.003
Mof_N 	N 	0.00656	0.48648	0.21468	-0.255
Mof_C 	C 	0.99474	0.47692	0.20922	0.083
Mof_S 	S 	0.97771	0.46377	0.20247	-0.049
Mof_N 	N 	0.15703	0.20195	0.15785	-0.14
Mof_C 	C 	0.18627	0.18661	0.14407	0.101
Mof_N 	N 	0.22839	0.23033	0.04879	-0.24
Mof_C 	C 	0.20376	0.24636	0.0662	0.08
Mof_H 	H 	0.1957	0.2681	0.0569	-0.008
Mof_C 	C 	0.18897	0.23343	0.09713	-0.13
Mof_H 	H 	0.1708	0.2458	0.1084	0.082
Mof_C 	C 	0.20085	0.20267	0.11125	0.059
Mof_C 	C 	0.22674	0.18522	0.0935	-0.124
Mof_H 	H 	0.2354	0.1636	0.1026	0.081
Mof_C 	C 	0.23955	0.20001	0.06239	0.072
Mof_H 	H 	0.257	0.188	0.0502	-0.007
Mof_N 	N 	0.21132	0.29014	0.99756	-0.259
Mof_C 	C 	0.18992	0.30874	0.99096	0.097
Mof_S 	S 	0.15934	0.33426	0.98064	-0.052
Mof_N 	N 	0.26928	0.27266	0.00776	-0.237
Mof_C 	C 	0.251	0.29594	0.01904	0.071
Mof_H 	H 	0.2293	0.3019	0.0245	-0.005
Mof_C 	C 	0.262	0.31176	0.02324	-0.122
Mof_H 	H 	0.2482	0.3284	0.031	0.079
Mof_C 	C 	0.29333	0.30299	0.01589	0.055
Mof_C 	C 	0.31293	0.27793	0.00491	-0.121
Mof_H 	H 	0.3346	0.2706	0.0006	0.08
Mof_C 	C 	0.29998	0.26438	0.00062	0.07
Mof_H 	H 	0.3133	0.2481	0.9921	-0.004
Mof_C 	C 	0.34686	0.32022	0.0226	0.101
Mof_N 	N 	0.33448	0.30372	0.0226	-0.139
Mof_C 	C 	0.30714	0.31966	0.01814	0.099
Mof_N 	N 	0.29179	0.34987	0.01445	-0.138
Mof_C 	C 	0.30636	0.36374	0.01556	0.102
Mof_N 	N 	0.33352	0.35026	0.0197	-0.14
Mof_N 	N 	0.43968	0.2739	0.02116	-0.236
Mof_C 	C 	0.42152	0.25818	0.02996	0.065
Mof_H 	H 	0.4302	0.2364	0.0348	-0.004
Mof_C 	C 	0.39082	0.2724	0.03216	-0.117
Mof_H 	H 	0.3786	0.2606	0.0384	0.079
Mof_C 	C 	0.37808	0.30414	0.02504	0.053
Mof_C 	C 	0.39619	0.32017	0.01779	-0.121
Mof_H 	H 	0.3878	0.3418	0.014	0.079
Mof_C 	C 	0.42657	0.30425	0.01623	0.071
Mof_H 	H 	0.4388	0.3154	0.0114	-0.003
Mof_N 	N 	0.26587	0.46071	0.00027	-0.234
Mof_C 	C 	0.28779	0.44239	0.01357	0.07
Mof_H 	H 	0.2942	0.4516	0.0198	-0.004
Mof_C 	C 	0.30143	0.41133	0.01871	-0.12
Mof_H 	H 	0.3173	0.3995	0.0277	0.08
Mof_C 	C 	0.29174	0.3974	0.0105	0.052
Mof_C 	C 	0.26767	0.41577	0.99815	-0.118
Mof_H 	H 	0.2596	0.4068	0.9934	0.078
Mof_C 	C 	0.25595	0.44703	0.99307	0.068
Mof_H 	H 	0.2401	0.4595	0.9841	-0.003
Mof_N 	N 	0.48648	0.21468	0.00656	-0.255
Mof_C 	C 	0.47692	0.20922	0.99474	0.083
Mof_S 	S 	0.46377	0.20247	0.97771	-0.049
Mof_N 	N 	0.15785	0.98317	0.15703	-0.14
Mof_C 	C 	0.14407	0.98305	0.18627	0.101
Mof_N 	N 	0.04879	0.99249	0.22839	-0.24
Mof_C 	C 	0.0662	0.98368	0.20376	0.08
Mof_H 	H 	0.0569	0.9793	0.1957	-0.008
Mof_C 	C 	0.09713	0.98047	0.18897	-0.13
Mof_H 	H 	0.1084	0.975	0.1708	0.082
Mof_C 	C 	0.11125	0.98523	0.20085	0.059
Mof_C 	C 	0.0935	0.99454	0.22674	-0.124
Mof_H 	H 	0.1026	0.9984	0.2354	0.081
Mof_C 	C 	0.06239	0.99805	0.23955	0.072
Mof_H 	H 	0.0502	0.0048	0.257	-0.007
Mof_N 	N 	0.99756	0.00098	0.21132	-0.259
Mof_C 	C 	0.99096	0.01038	0.18992	0.097
Mof_S 	S 	0.98064	0.02576	0.15934	-0.052
Mof_N 	N 	0.00776	0.9503	0.26928	-0.237
Mof_C 	C 	0.01904	0.93402	0.251	0.071
Mof_H 	H 	0.0245	0.9443	0.2293	-0.005
Mof_C 	C 	0.02324	0.903	0.262	-0.122
Mof_H 	H 	0.031	0.8924	0.2482	0.079
Mof_C 	C 	0.01589	0.88779	0.29333	0.055
Mof_C 	C 	0.00491	0.90423	0.31293	-0.121
Mof_H 	H 	0.0006	0.8942	0.3346	0.08
Mof_C 	C 	0.00062	0.93502	0.29998	0.07
Mof_H 	H 	0.9921	0.9465	0.3133	-0.004
Mof_C 	C 	0.0226	0.81032	0.34686	0.101
Mof_N 	N 	0.0226	0.8392	0.33448	-0.139
Mof_C 	C 	0.01814	0.85506	0.30714	0.099
Mof_N 	N 	0.01445	0.84389	0.29179	-0.138
Mof_C 	C 	0.01556	0.81434	0.30636	0.102
Mof_N 	N 	0.0197	0.79652	0.33352	-0.14
Mof_N 	N 	0.02116	0.76526	0.43968	-0.236
Mof_C 	C 	0.02996	0.79034	0.42152	0.065
Mof_H 	H 	0.0348	0.7986	0.4302	-0.004
Mof_C 	C 	0.03216	0.80462	0.39082	-0.117
Mof_H 	H 	0.0384	0.8224	0.3786	0.079
Mof_C 	C 	0.02504	0.79274	0.37808	0.053
Mof_C 	C 	0.01779	0.76585	0.39619	-0.121
Mof_H 	H 	0.014	0.7564	0.3878	0.079
Mof_C 	C 	0.01623	0.75295	0.42657	0.071
Mof_H 	H 	0.0114	0.7344	0.4388	-0.003
Mof_N 	N 	0.00027	0.77315	0.26587	-0.234
Mof_C 	C 	0.01357	0.75625	0.28779	0.07
Mof_H 	H 	0.0198	0.7344	0.2942	-0.004
Mof_C 	C 	0.01871	0.76853	0.30143	-0.12
Mof_H 	H 	0.0277	0.7555	0.3173	0.08
Mof_C 	C 	0.0105	0.80036	0.29174	0.052
Mof_C 	C 	0.99815	0.81841	0.26767	-0.118
Mof_H 	H 	0.9934	0.8402	0.2596	0.078
Mof_C 	C 	0.99307	0.80395	0.25595	0.068
Mof_H 	H 	0.9841	0.8163	0.2401	-0.003
Mof_N 	N 	0.00656	0.79228	0.48648	-0.255
Mof_C 	C 	0.99474	0.81912	0.47692	0.083
Mof_S 	S 	0.97771	0.85605	0.46377	-0.049
Mof_N 	N 	0.20195	0.15703	0.98317	-0.14
Mof_C 	C 	0.18661	0.18627	0.98305	0.101
Mof_N 	N 	0.23033	0.22839	0.99249	-0.24
Mof_C 	C 	0.24636	0.20376	0.98368	0.08
Mof_H 	H 	0.2681	0.1957	0.9793	-0.008
Mof_C 	C 	0.23343	0.18897	0.98047	-0.13
Mof_H 	H 	0.2458	0.1708	0.975	0.082
Mof_C 	C 	0.20267	0.20085	0.98523	0.059
Mof_C 	C 	0.18522	0.22674	0.99454	-0.124
Mof_H 	H 	0.1636	0.2354	0.9984	0.081
Mof_C 	C 	0.20001	0.23955	0.99805	0.072
Mof_H 	H 	0.188	0.257	0.0048	-0.007
Mof_N 	N 	0.29014	0.21132	0.00098	-0.259
Mof_C 	C 	0.30874	0.18992	0.01038	0.097
Mof_S 	S 	0.33426	0.15934	0.02576	-0.052
Mof_N 	N 	0.27266	0.26928	0.9503	-0.237
Mof_C 	C 	0.29594	0.251	0.93402	0.071
Mof_H 	H 	0.3019	0.2293	0.9443	-0.005
Mof_C 	C 	0.31176	0.262	0.903	-0.122
Mof_H 	H 	0.3284	0.2482	0.8924	0.079
Mof_C 	C 	0.30299	0.29333	0.88779	0.055
Mof_C 	C 	0.27793	0.31293	0.90423	-0.121
Mof_H 	H 	0.2706	0.3346	0.8942	0.08
Mof_C 	C 	0.26438	0.29998	0.93502	0.07
Mof_H 	H 	0.2481	0.3133	0.9465	-0.004
Mof_C 	C 	0.32022	0.34686	0.81032	0.101
Mof_N 	N 	0.30372	0.33448	0.8392	-0.139
Mof_C 	C 	0.31966	0.30714	0.85506	0.099
Mof_N 	N 	0.34987	0.29179	0.84389	-0.138
Mof_C 	C 	0.36374	0.30636	0.81434	0.102
Mof_N 	N 	0.35026	0.33352	0.79652	-0.14
Mof_N 	N 	0.2739	0.43968	0.76526	-0.236
Mof_C 	C 	0.25818	0.42152	0.79034	0.065
Mof_H 	H 	0.2364	0.4302	0.7986	-0.004
Mof_C 	C 	0.2724	0.39082	0.80462	-0.117
Mof_H 	H 	0.2606	0.3786	0.8224	0.079
Mof_C 	C 	0.30414	0.37808	0.79274	0.053
Mof_C 	C 	0.32017	0.39619	0.76585	-0.121
Mof_H 	H 	0.3418	0.3878	0.7564	0.079
Mof_C 	C 	0.30425	0.42657	0.75295	0.071
Mof_H 	H 	0.3154	0.4388	0.7344	-0.003
Mof_N 	N 	0.46071	0.26587	0.77315	-0.234
Mof_C 	C 	0.44239	0.28779	0.75625	0.07
Mof_H 	H 	0.4516	0.2942	0.7344	-0.004
Mof_C 	C 	0.41133	0.30143	0.76853	-0.12
Mof_H 	H 	0.3995	0.3173	0.7555	0.08
Mof_C 	C 	0.3974	0.29174	0.80036	0.052
Mof_C 	C 	0.41577	0.26767	0.81841	-0.118
Mof_H 	H 	0.4068	0.2596	0.8402	0.078
Mof_C 	C 	0.44703	0.25595	0.80395	0.068
Mof_H 	H 	0.4595	0.2401	0.8163	-0.003
Mof_N 	N 	0.21468	0.48648	0.79228	-0.255
Mof_C 	C 	0.20922	0.47692	0.81912	0.083
Mof_S 	S 	0.20247	0.46377	0.85605	-0.049
Mof_N 	N 	0.98317	0.15785	0.20195	-0.14
Mof_C 	C 	0.98305	0.14407	0.18661	0.101
Mof_N 	N 	0.99249	0.04879	0.23033	-0.24
Mof_C 	C 	0.98368	0.0662	0.24636	0.08
Mof_H 	H 	0.9793	0.0569	0.2681	-0.008
Mof_C 	C 	0.98047	0.09713	0.23343	-0.13
Mof_H 	H 	0.975	0.1084	0.2458	0.082
Mof_C 	C 	0.98523	0.11125	0.20267	0.059
Mof_C 	C 	0.99454	0.0935	0.18522	-0.124
Mof_H 	H 	0.9984	0.1026	0.1636	0.081
Mof_C 	C 	0.99805	0.06239	0.20001	0.072
Mof_H 	H 	0.0048	0.0502	0.188	-0.007
Mof_N 	N 	0.00098	0.99756	0.29014	-0.259
Mof_C 	C 	0.01038	0.99096	0.30874	0.097
Mof_S 	S 	0.02576	0.98064	0.33426	-0.052
Mof_N 	N 	0.9503	0.00776	0.27266	-0.237
Mof_C 	C 	0.93402	0.01904	0.29594	0.071
Mof_H 	H 	0.9443	0.0245	0.3019	-0.005
Mof_C 	C 	0.903	0.02324	0.31176	-0.122
Mof_H 	H 	0.8924	0.031	0.3284	0.079
Mof_C 	C 	0.88779	0.01589	0.30299	0.055
Mof_C 	C 	0.90423	0.00491	0.27793	-0.121
Mof_H 	H 	0.8942	0.0006	0.2706	0.08
Mof_C 	C 	0.93502	0.00062	0.26438	0.07
Mof_H 	H 	0.9465	0.9921	0.2481	-0.004
Mof_C 	C 	0.81032	0.0226	0.32022	0.101
Mof_N 	N 	0.8392	0.0226	0.30372	-0.139
Mof_C 	C 	0.85506	0.01814	0.31966	0.099
Mof_N 	N 	0.84389	0.01445	0.34987	-0.138
Mof_C 	C 	0.81434	0.01556	0.36374	0.102
Mof_N 	N 	0.79652	0.0197	0.35026	-0.14
Mof_N 	N 	0.76526	0.02116	0.2739	-0.236
Mof_C 	C 	0.79034	0.02996	0.25818	0.065
Mof_H 	H 	0.7986	0.0348	0.2364	-0.004
Mof_C 	C 	0.80462	0.03216	0.2724	-0.117
Mof_H 	H 	0.8224	0.0384	0.2606	0.079
Mof_C 	C 	0.79274	0.02504	0.30414	0.053
Mof_C 	C 	0.76585	0.01779	0.32017	-0.121
Mof_H 	H 	0.7564	0.014	0.3418	0.079
Mof_C 	C 	0.75295	0.01623	0.30425	0.071
Mof_H 	H 	0.7344	0.0114	0.3154	-0.003
Mof_N 	N 	0.77315	0.00027	0.46071	-0.234
Mof_C 	C 	0.75625	0.01357	0.44239	0.07
Mof_H 	H 	0.7344	0.0198	0.4516	-0.004
Mof_C 	C 	0.76853	0.01871	0.41133	-0.12
Mof_H 	H 	0.7555	0.0277	0.3995	0.08
Mof_C 	C 	0.80036	0.0105	0.3974	0.052
Mof_C 	C 	0.81841	0.99815	0.41577	-0.118
Mof_H 	H 	0.8402	0.9934	0.4068	0.078
Mof_C 	C 	0.80395	0.99307	0.44703	0.068
Mof_H 	H 	0.8163	0.9841	0.4595	-0.003
Mof_N 	N 	0.79228	0.00656	0.21468	-0.255
Mof_C 	C 	0.81912	0.99474	0.20922	0.083
Mof_S 	S 	0.85605	0.97771	0.20247	-0.049
Mof_N 	N 	0.98317	0.15703	0.15785	-0.14
Mof_C 	C 	0.98305	0.18627	0.14407	0.101
Mof_N 	N 	0.99249	0.22839	0.04879	-0.24
Mof_C 	C 	0.98368	0.20376	0.0662	0.08
Mof_H 	H 	0.9793	0.1957	0.0569	-0.008
Mof_C 	C 	0.98047	0.18897	0.09713	-0.13
Mof_H 	H 	0.975	0.1708	0.1084	0.082
Mof_C 	C 	0.98523	0.20085	0.11125	0.059
Mof_C 	C 	0.99454	0.22674	0.0935	-0.124
Mof_H 	H 	0.9984	0.2354	0.1026	0.081
Mof_C 	C 	0.99805	0.23955	0.06239	0.072
Mof_H 	H 	0.0048	0.257	0.0502	-0.007
Mof_N 	N 	0.00098	0.21132	0.99756	-0.259
Mof_C 	C 	0.01038	0.18992	0.99096	0.097
Mof_S 	S 	0.02576	0.15934	0.98064	-0.052
Mof_N 	N 	0.9503	0.26928	0.00776	-0.237
Mof_C 	C 	0.93402	0.251	0.01904	0.071
Mof_H 	H 	0.9443	0.2293	0.0245	-0.005
Mof_C 	C 	0.903	0.262	0.02324	-0.122
Mof_H 	H 	0.8924	0.2482	0.031	0.079
Mof_C 	C 	0.88779	0.29333	0.01589	0.055
Mof_C 	C 	0.90423	0.31293	0.00491	-0.121
Mof_H 	H 	0.8942	0.3346	0.0006	0.08
Mof_C 	C 	0.93502	0.29998	0.00062	0.07
Mof_H 	H 	0.9465	0.3133	0.9921	-0.004
Mof_C 	C 	0.81032	0.34686	0.0226	0.101
Mof_N 	N 	0.8392	0.33448	0.0226	-0.139
Mof_C 	C 	0.85506	0.30714	0.01814	0.099
Mof_N 	N 	0.84389	0.29179	0.01445	-0.138
Mof_C 	C 	0.81434	0.30636	0.01556	0.102
Mof_N 	N 	0.79652	0.33352	0.0197	-0.14
Mof_N 	N 	0.76526	0.43968	0.02116	-0.236
Mof_C 	C 	0.79034	0.42152	0.02996	0.065
Mof_H 	H 	0.7986	0.4302	0.0348	-0.004
Mof_C 	C 	0.80462	0.39082	0.03216	-0.117
Mof_H 	H 	0.8224	0.3786	0.0384	0.079
Mof_C 	C 	0.79274	0.37808	0.02504	0.053
Mof_C 	C 	0.76585	0.39619	0.01779	-0.121
Mof_H 	H 	0.7564	0.3878	0.014	0.079
Mof_C 	C 	0.75295	0.42657	0.01623	0.071
Mof_H 	H 	0.7344	0.4388	0.0114	-0.003
Mof_N 	N 	0.77315	0.26587	0.00027	-0.234
Mof_C 	C 	0.75625	0.28779	0.01357	0.07
Mof_H 	H 	0.7344	0.2942	0.0198	-0.004
Mof_C 	C 	0.76853	0.30143	0.01871	-0.12
Mof_H 	H 	0.7555	0.3173	0.0277	0.08
Mof_C 	C 	0.80036	0.29174	0.0105	0.052
Mof_C 	C 	0.81841	0.26767	0.99815	-0.118
Mof_H 	H 	0.8402	0.2596	0.9934	0.078
Mof_C 	C 	0.80395	0.25595	0.99307	0.068
Mof_H 	H 	0.8163	0.2401	0.9841	-0.003
Mof_N 	N 	0.79228	0.48648	0.00656	-0.255
Mof_C 	C 	0.81912	0.47692	0.99474	0.083
Mof_S 	S 	0.85605	0.46377	0.97771	-0.049
Mof_N 	N 	0.20195	0.15785	0.15703	-0.14
Mof_C 	C 	0.18661	0.14407	0.18627	0.101
Mof_N 	N 	0.23033	0.04879	0.22839	-0.24
Mof_C 	C 	0.24636	0.0662	0.20376	0.08
Mof_H 	H 	0.2681	0.0569	0.1957	-0.008
Mof_C 	C 	0.23343	0.09713	0.18897	-0.13
Mof_H 	H 	0.2458	0.1084	0.1708	0.082
Mof_C 	C 	0.20267	0.11125	0.20085	0.059
Mof_C 	C 	0.18522	0.0935	0.22674	-0.124
Mof_H 	H 	0.1636	0.1026	0.2354	0.081
Mof_C 	C 	0.20001	0.06239	0.23955	0.072
Mof_H 	H 	0.188	0.0502	0.257	-0.007
Mof_N 	N 	0.29014	0.99756	0.21132	-0.259
Mof_C 	C 	0.30874	0.99096	0.18992	0.097
Mof_S 	S 	0.33426	0.98064	0.15934	-0.052
Mof_N 	N 	0.27266	0.00776	0.26928	-0.237
Mof_C 	C 	0.29594	0.01904	0.251	0.071
Mof_H 	H 	0.3019	0.0245	0.2293	-0.005
Mof_C 	C 	0.31176	0.02324	0.262	-0.122
Mof_H 	H 	0.3284	0.031	0.2482	0.079
Mof_C 	C 	0.30299	0.01589	0.29333	0.055
Mof_C 	C 	0.27793	0.00491	0.31293	-0.121
Mof_H 	H 	0.2706	0.0006	0.3346	0.08
Mof_C 	C 	0.26438	0.00062	0.29998	0.07
Mof_H 	H 	0.2481	0.9921	0.3133	-0.004
Mof_C 	C 	0.32022	0.0226	0.34686	0.101
Mof_N 	N 	0.30372	0.0226	0.33448	-0.139
Mof_C 	C 	0.31966	0.01814	0.30714	0.099
Mof_N 	N 	0.34987	0.01445	0.29179	-0.138
Mof_C 	C 	0.36374	0.01556	0.30636	0.102
Mof_N 	N 	0.35026	0.0197	0.33352	-0.14
Mof_N 	N 	0.2739	0.02116	0.43968	-0.236
Mof_C 	C 	0.25818	0.02996	0.42152	0.065
Mof_H 	H 	0.2364	0.0348	0.4302	-0.004
Mof_C 	C 	0.2724	0.03216	0.39082	-0.117
Mof_H 	H 	0.2606	0.0384	0.3786	0.079
Mof_C 	C 	0.30414	0.02504	0.37808	0.053
Mof_C 	C 	0.32017	0.01779	0.39619	-0.121
Mof_H 	H 	0.3418	0.014	0.3878	0.079
Mof_C 	C 	0.30425	0.01623	0.42657	0.071
Mof_H 	H 	0.3154	0.0114	0.4388	-0.003
Mof_N 	N 	0.46071	0.00027	0.26587	-0.234
Mof_C 	C 	0.44239	0.01357	0.28779	0.07
Mof_H 	H 	0.4516	0.0198	0.2942	-0.004
Mof_C 	C 	0.41133	0.01871	0.30143	-0.12
Mof_H 	H 	0.3995	0.0277	0.3173	0.08
Mof_C 	C 	0.3974	0.0105	0.29174	0.052
Mof_C 	C 	0.41577	0.99815	0.26767	-0.118
Mof_H 	H 	0.4068	0.9934	0.2596	0.078
Mof_C 	C 	0.44703	0.99307	0.25595	0.068
Mof_H 	H 	0.4595	0.9841	0.2401	-0.003
Mof_N 	N 	0.21468	0.00656	0.48648	-0.255
Mof_C 	C 	0.20922	0.99474	0.47692	0.083
Mof_S 	S 	0.20247	0.97771	0.46377	-0.049
Mof_N 	N 	0.15785	0.20195	0.98317	-0.14
Mof_C 	C 	0.14407	0.18661	0.98305	0.101
Mof_N 	N 	0.04879	0.23033	0.99249	-0.24
Mof_C 	C 	0.0662	0.24636	0.98368	0.08
Mof_H 	H 	0.0569	0.2681	0.9793	-0.008
Mof_C 	C 	0.09713	0.23343	0.98047	-0.13
Mof_H 	H 	0.1084	0.2458	0.975	0.082
Mof_C 	C 	0.11125	0.20267	0.98523	0.059
Mof_C 	C 	0.0935	0.18522	0.99454	-0.124
Mof_H 	H 	0.1026	0.1636	0.9984	0.081
Mof_C 	C 	0.06239	0.20001	0.99805	0.072
Mof_H 	H 	0.0502	0.188	0.0048	-0.007
Mof_N 	N 	0.99756	0.29014	0.00098	-0.259
Mof_C 	C 	0.99096	0.30874	0.01038	0.097
Mof_S 	S 	0.98064	0.33426	0.02576	-0.052
Mof_N 	N 	0.00776	0.27266	0.9503	-0.237
Mof_C 	C 	0.01904	0.29594	0.93402	0.071
Mof_H 	H 	0.0245	0.3019	0.9443	-0.005
Mof_C 	C 	0.02324	0.31176	0.903	-0.122
Mof_H 	H 	0.031	0.3284	0.8924	0.079
Mof_C 	C 	0.01589	0.30299	0.88779	0.055
Mof_C 	C 	0.00491	0.27793	0.90423	-0.121
Mof_H 	H 	0.0006	0.2706	0.8942	0.08
Mof_C 	C 	0.00062	0.26438	0.93502	0.07
Mof_H 	H 	0.9921	0.2481	0.9465	-0.004
Mof_C 	C 	0.0226	0.32022	0.81032	0.101
Mof_N 	N 	0.0226	0.30372	0.8392	-0.139
Mof_C 	C 	0.01814	0.31966	0.85506	0.099
Mof_N 	N 	0.01445	0.34987	0.84389	-0.138
Mof_C 	C 	0.01556	0.36374	0.81434	0.102
Mof_N 	N 	0.0197	0.35026	0.79652	-0.14
Mof_N 	N 	0.02116	0.2739	0.76526	-0.236
Mof_C 	C 	0.02996	0.25818	0.79034	0.065
Mof_H 	H 	0.0348	0.2364	0.7986	-0.004
Mof_C 	C 	0.03216	0.2724	0.80462	-0.117
Mof_H 	H 	0.0384	0.2606	0.8224	0.079
Mof_C 	C 	0.02504	0.30414	0.79274	0.053
Mof_C 	C 	0.01779	0.32017	0.76585	-0.121
Mof_H 	H 	0.014	0.3418	0.7564	0.079
Mof_C 	C 	0.01623	0.30425	0.75295	0.071
Mof_H 	H 	0.0114	0.3154	0.7344	-0.003
Mof_N 	N 	0.00027	0.46071	0.77315	-0.234
Mof_C 	C 	0.01357	0.44239	0.75625	0.07
Mof_H 	H 	0.0198	0.4516	0.7344	-0.004
Mof_C 	C 	0.01871	0.41133	0.76853	-0.12
Mof_H 	H 	0.0277	0.3995	0.7555	0.08
Mof_C 	C 	0.0105	0.3974	0.80036	0.052
Mof_C 	C 	0.99815	0.41577	0.81841	-0.118
Mof_H 	H 	0.9934	0.4068	0.8402	0.078
Mof_C 	C 	0.99307	0.44703	0.80395	0.068
Mof_H 	H 	0.9841	0.4595	0.8163	-0.003
Mof_N 	N 	0.00656	0.21468	0.79228	-0.255
Mof_C 	C 	0.99474	0.20922	0.81912	0.083
Mof_S 	S 	0.97771	0.20247	0.85605	-0.049
Mof_N 	N 	0.15703	0.98317	0.20195	-0.14
Mof_C 	C 	0.18627	0.98305	0.18661	0.101
Mof_N 	N 	0.22839	0.99249	0.23033	-0.24
Mof_C 	C 	0.20376	0.98368	0.24636	0.08
Mof_H 	H 	0.1957	0.9793	0.2681	-0.008
Mof_C 	C 	0.18897	0.98047	0.23343	-0.13
Mof_H 	H 	0.1708	0.975	0.2458	0.082
Mof_C 	C 	0.20085	0.98523	0.20267	0.059
Mof_C 	C 	0.22674	0.99454	0.18522	-0.124
Mof_H 	H 	0.2354	0.9984	0.1636	0.081
Mof_C 	C 	0.23955	0.99805	0.20001	0.072
Mof_H 	H 	0.257	0.0048	0.188	-0.007
Mof_N 	N 	0.21132	0.00098	0.29014	-0.259
Mof_C 	C 	0.18992	0.01038	0.30874	0.097
Mof_S 	S 	0.15934	0.02576	0.33426	-0.052
Mof_N 	N 	0.26928	0.9503	0.27266	-0.237
Mof_C 	C 	0.251	0.93402	0.29594	0.071
Mof_H 	H 	0.2293	0.9443	0.3019	-0.005
Mof_C 	C 	0.262	0.903	0.31176	-0.122
Mof_H 	H 	0.2482	0.8924	0.3284	0.079
Mof_C 	C 	0.29333	0.88779	0.30299	0.055
Mof_C 	C 	0.31293	0.90423	0.27793	-0.121
Mof_H 	H 	0.3346	0.8942	0.2706	0.08
Mof_C 	C 	0.29998	0.93502	0.26438	0.07
Mof_H 	H 	0.3133	0.9465	0.2481	-0.004
Mof_C 	C 	0.34686	0.81032	0.32022	0.101
Mof_N 	N 	0.33448	0.8392	0.30372	-0.139
Mof_C 	C 	0.30714	0.85506	0.31966	0.099
Mof_N 	N 	0.29179	0.84389	0.34987	-0.138
Mof_C 	C 	0.30636	0.81434	0.36374	0.102
Mof_N 	N 	0.33352	0.79652	0.35026	-0.14
Mof_N 	N 	0.43968	0.76526	0.2739	-0.236
Mof_C 	C 	0.42152	0.79034	0.25818	0.065
Mof_H 	H 	0.4302	0.7986	0.2364	-0.004
Mof_C 	C 	0.39082	0.80462	0.2724	-0.117
Mof_H 	H 	0.3786	0.8224	0.2606	0.079
Mof_C 	C 	0.37808	0.79274	0.30414	0.053
Mof_C 	C 	0.39619	0.76585	0.32017	-0.121
Mof_H 	H 	0.3878	0.7564	0.3418	0.079
Mof_C 	C 	0.42657	0.75295	0.30425	0.071
Mof_H 	H 	0.4388	0.7344	0.3154	-0.003
Mof_N 	N 	0.26587	0.77315	0.46071	-0.234
Mof_C 	C 	0.28779	0.75625	0.44239	0.07
Mof_H 	H 	0.2942	0.7344	0.4516	-0.004
Mof_C 	C 	0.30143	0.76853	0.41133	-0.12
Mof_H 	H 	0.3173	0.7555	0.3995	0.08
Mof_C 	C 	0.29174	0.80036	0.3974	0.052
Mof_C 	C 	0.26767	0.81841	0.41577	-0.118
Mof_H 	H 	0.2596	0.8402	0.4068	0.078
Mof_C 	C 	0.25595	0.80395	0.44703	0.068
Mof_H 	H 	0.2401	0.8163	0.4595	-0.003
Mof_N 	N 	0.48648	0.79228	0.21468	-0.255
Mof_C 	C 	0.47692	0.81912	0.20922	0.083
Mof_S 	S 	0.46377	0.85605	0.20247	-0.049
Mof_Co	Co	0.7504	0.4996	0.7504	1.122
Mof_Co	Co	0.4996	0.7504	0.4996	1.122
Mof_Co	Co	0.7504	0.7504	0.4996	1.122
Mof_Co	Co	0.4996	0.4996	0.7504	1.122
Mof_Co	Co	0.4996	0.7504	0.7504	1.122
Mof_Co	Co	0.7504	0.4996	0.4996	1.122
Mof_Co	Co	0.7496	0.0004	0.0004	1.122
Mof_Co	Co	0.0004	0.7496	0.7496	1.122
Mof_Co	Co	0.7496	0.7496	0.0004	1.122
Mof_Co	Co	0.0004	0.0004	0.7496	1.122
Mof_Co	Co	0.0004	0.7496	0.0004	1.122
Mof_Co	Co	0.7496	0.0004	0.7496	1.122
Mof_Co	Co	0.2496	0.5004	0.2496	1.122
Mof_Co	Co	0.5004	0.2496	0.5004	1.122
Mof_Co	Co	0.2496	0.2496	0.5004	1.122
Mof_Co	Co	0.5004	0.5004	0.2496	1.122
Mof_Co	Co	0.5004	0.2496	0.2496	1.122
Mof_Co	Co	0.2496	0.5004	0.5004	1.122
Mof_Co	Co	0.2504	0.9996	0.9996	1.122
Mof_Co	Co	0.9996	0.2504	0.2504	1.122
Mof_Co	Co	0.2504	0.2504	0.9996	1.122
Mof_Co	Co	0.9996	0.9996	0.2504	1.122
Mof_Co	Co	0.9996	0.2504	0.9996	1.122
Mof_Co	Co	0.2504	0.9996	0.2504	1.122
Mof_Co	Co	0.75	0.25	0.98924	1.121
Mof_Co	Co	0.25	0.75	0.51076	1.121
Mof_Co	Co	0.98924	0.51076	0.75	1.121
Mof_Co	Co	0.51076	0.98924	0.25	1.121
Mof_Co	Co	0.98924	0.75	0.25	1.121
Mof_Co	Co	0.51076	0.25	0.75	1.121
Mof_Co	Co	0.75	0.98924	0.51076	1.121
Mof_Co	Co	0.25	0.51076	0.98924	1.121
Mof_Co	Co	0.25	0.98924	0.75	1.121
Mof_Co	Co	0.75	0.51076	0.25	1.121
Mof_Co	Co	0.51076	0.75	0.98924	1.121
Mof_Co	Co	0.98924	0.25	0.51076	1.121
Mof_Co	Co	0.25	0.75	0.01076	1.121
Mof_Co	Co	0.75	0.25	0.48924	1.121
Mof_Co	Co	0.01076	0.48924	0.25	1.121
Mof_Co	Co	0.48924	0.01076	0.75	1.121
Mof_Co	Co	0.01076	0.25	0.75	1.121
Mof_Co	Co	0.48924	0.75	0.25	1.121
Mof_Co	Co	0.25	0.01076	0.48924	1.121
Mof_Co	Co	0.75	0.48924	0.01076	1.121
Mof_Co	Co	0.75	0.01076	0.25	1.121
Mof_Co	Co	0.25	0.48924	0.75	1.121
Mof_Co	Co	0.48924	0.25	0.01076	1.121
Mof_Co	Co	0.01076	0.75	0.48924	1.121
_end
