# CIF file generated by openbabel 3.1.0, see https://openbabel.org
data_I
_chemical_name_common 'image0'
_cell_length_a 8.7151
_cell_length_b 8.7151
_cell_length_c 19.011
_cell_angle_alpha 90
_cell_angle_beta 90
_cell_angle_gamma 120
_space_group_name_H-M_alt 'P 1'
_space_group_name_Hall 'P 1'
loop_
    _symmetry_equiv_pos_as_xyz
    x,y,z
loop_
    _atom_site_label
    _atom_site_type_symbol
    _atom_site_fract_x
    _atom_site_fract_y
    _atom_site_fract_z
    _atom_site_occupancy
    Co1      Co       0.66667    0.33333    0.33333    1.000
    Co2      Co       0.33333    0.66667    0.66667    1.000
    Co3      Co       0.00000    0.00000    0.00000    1.000
    K1       K        0.00000    0.00000    0.50000    1.000
    K2       K        0.66667    0.33333    0.83333    1.000
    K3       K        0.33333    0.66667    0.16667    1.000
    N1       N        0.83425    0.66850    0.42266    1.000
    C1       C        0.77040    0.54080    0.39003    1.000
    N2       N        0.50092    0.00183    0.75599    1.000
    C2       C        0.43707    0.87413    0.72336    1.000
    N3       N        0.16758    0.33517    0.08933    1.000
    C3       C        0.10373    0.20747    0.05670    1.000
    N4       N        0.33150    0.16575    0.42266    1.000
    C4       C        0.45920    0.22960    0.39003    1.000
    N5       N        0.99817    0.49908    0.75599    1.000
    C5       C        0.12587    0.56293    0.72336    1.000
    N6       N        0.66483    0.83242    0.08933    1.000
    C6       C        0.79253    0.89627    0.05670    1.000
    N7       N        0.83425    0.16575    0.42266    1.000
    C7       C        0.77040    0.22960    0.39003    1.000
    N8       N        0.50092    0.49908    0.75599    1.000
    C8       C        0.43707    0.56293    0.72336    1.000
    N9       N        0.16758    0.83242    0.08933    1.000
    C9       C        0.10373    0.89627    0.05670    1.000
    N10      N        0.66850    0.83425    0.57734    1.000
    C10      C        0.54080    0.77040    0.60997    1.000
    N11      N        0.33517    0.16758    0.91067    1.000
    C11      C        0.20747    0.10373    0.94330    1.000
    N12      N        0.00183    0.50092    0.24401    1.000
    C12      C        0.87413    0.43707    0.27664    1.000
    N13      N        0.16575    0.33150    0.57734    1.000
    C13      C        0.22960    0.45920    0.60997    1.000
    N14      N        0.83242    0.66483    0.91067    1.000
    C14      C        0.89627    0.79253    0.94330    1.000
    N15      N        0.49908    0.99817    0.24401    1.000
    C15      C        0.56293    0.12587    0.27664    1.000
    N16      N        0.16575    0.83425    0.57734    1.000
    C16      C        0.22960    0.77040    0.60997    1.000
    N17      N        0.83242    0.16758    0.91067    1.000
    C17      C        0.89627    0.10373    0.94330    1.000
    N18      N        0.49908    0.50092    0.24401    1.000
    C18      C        0.56293    0.43707    0.27664    1.000
