data_functionalizedCrystal
_audit_creation_method	'EQeq! by Chris Wilmer'
_symmetry_space_group_name_H-M	'P1'
_symmetry_Int_Tables_number	1
_symmetry_cell_setting	triclinic
loop_
_symmetry_equiv_pos_as_xyz
  x,y,z
_cell_length_a	8.8694
_cell_length_b	17.827
_cell_length_c	9.4062
_cell_angle_alpha	90
_cell_angle_beta	107.25
_cell_angle_gamma	90
loop_
_atom_site_label
_atom_site_type_symbol
_atom_site_fract_x
_atom_site_fract_y
_atom_site_fract_z
_atom_site_charge
Mof_Cd	Cd	0.42282	0.57294	0.84954	0.481
Mof_Cl	Cl	0.69792	0.51416	0.9877	-0.33
Mof_N 	N 	0.4563	0.66832	0.0229	-0.156
Mof_N 	N 	0.4936	0.77058	0.2007	-0.165
Mof_N 	N 	0.6778	0.8742	0.228	-0.155
Mof_N 	N 	0.3774	0.48435	0.6608	-0.162
Mof_N 	N 	0.3352	0.3817	0.4878	-0.17
Mof_N 	N 	0.4582	0.35308	0.2967	-0.157
Mof_C 	C 	0.479	0.71707	0.1038	0.201
Mof_C 	C 	0.5937	0.82407	0.2103	0.201
Mof_C 	C 	0.3672	0.43761	0.5788	0.207
Mof_C 	C 	0.4049	0.36966	0.3878	0.203
Mof_Cd	Cd	0.07718	0.07294	0.65046	0.48
Mof_Cl	Cl	0.80208	0.01416	0.5123	-0.328
Mof_N 	N 	0.0437	0.16832	0.4771	-0.156
Mof_N 	N 	0.0064	0.27058	0.2993	-0.165
Mof_N 	N 	0.8222	0.3742	0.272	-0.154
Mof_N 	N 	0.1226	0.98435	0.8392	-0.161
Mof_N 	N 	0.1648	0.8817	0.0122	-0.168
Mof_N 	N 	0.0418	0.85308	0.2033	-0.156
Mof_C 	C 	0.021	0.21707	0.3962	0.201
Mof_C 	C 	0.9063	0.32407	0.2897	0.2
Mof_C 	C 	0.1328	0.93761	0.9212	0.204
Mof_C 	C 	0.0951	0.86966	0.1122	0.204
Mof_Cd	Cd	0.57718	0.42706	0.15046	0.482
Mof_Cl	Cl	0.30208	0.48584	0.0123	-0.329
Mof_N 	N 	0.5437	0.33168	0.9771	-0.156
Mof_N 	N 	0.5064	0.22942	0.7993	-0.165
Mof_N 	N 	0.3222	0.1258	0.772	-0.155
Mof_N 	N 	0.6226	0.51565	0.3392	-0.162
Mof_N 	N 	0.6648	0.6183	0.5122	-0.17
Mof_N 	N 	0.5418	0.64692	0.7033	-0.157
Mof_C 	C 	0.521	0.28293	0.8962	0.201
Mof_C 	C 	0.4063	0.17593	0.7897	0.201
Mof_C 	C 	0.6328	0.56239	0.4212	0.207
Mof_C 	C 	0.5951	0.63034	0.6122	0.203
Mof_Cd	Cd	0.92282	0.92706	0.34954	0.48
Mof_Cl	Cl	0.19792	0.98584	0.4877	-0.328
Mof_N 	N 	0.9563	0.83168	0.5229	-0.156
Mof_N 	N 	0.9936	0.72942	0.7007	-0.165
Mof_N 	N 	0.1778	0.6258	0.728	-0.154
Mof_N 	N 	0.8774	0.01565	0.1608	-0.161
Mof_N 	N 	0.8352	0.1183	0.9878	-0.168
Mof_N 	N 	0.9582	0.14692	0.7967	-0.156
Mof_C 	C 	0.979	0.78293	0.6038	0.201
Mof_C 	C 	0.0937	0.67593	0.7103	0.2
Mof_C 	C 	0.8672	0.06239	0.0788	0.204
Mof_C 	C 	0.9049	0.13034	0.8878	0.204
_end
