# CIF file generated by openbabel 3.1.0, see https://openbabel.org
data_I
_chemical_name_common 'image0'
_cell_length_a 21.1288
_cell_length_b 21.1288
_cell_length_c 21.1288
_cell_angle_alpha 90
_cell_angle_beta 90
_cell_angle_gamma 90
_space_group_name_H-M_alt 'P 1'
_space_group_name_Hall 'P 1'
loop_
    _symmetry_equiv_pos_as_xyz
    x,y,z
loop_
    _atom_site_label
    _atom_site_type_symbol
    _atom_site_fract_x
    _atom_site_fract_y
    _atom_site_fract_z
    _atom_site_occupancy
    O1       O        0.97755    0.79765    0.55950    1.000
    O2       O        0.09180    0.60847    0.36050    1.000
    O3       O        0.07790    0.65757    0.26842    1.000
    C1       C        0.07060    0.65180    0.32710    1.000
    C2       C        0.03300    0.70440    0.42760    1.000
    C3       C        0.03370    0.70380    0.36130    1.000
    Li1      Li       0.02820    0.84200    0.62770    1.000
    H1       H        0.05900    0.66600    0.45400    1.000
    O4       O        0.47755    0.29765    0.05950    1.000
    O5       O        0.59180    0.10847    0.86050    1.000
    O6       O        0.57790    0.15757    0.76842    1.000
    C4       C        0.57060    0.15180    0.82710    1.000
    C5       C        0.53300    0.20440    0.92760    1.000
    C6       C        0.53370    0.20380    0.86130    1.000
    Li2      Li       0.52820    0.34200    0.12770    1.000
    H2       H        0.55900    0.16600    0.95400    1.000
    O7       O        0.52245    0.20235    0.05950    1.000
    O8       O        0.40820    0.39153    0.86050    1.000
    O9       O        0.42210    0.34243    0.76842    1.000
    C7       C        0.42940    0.34820    0.82710    1.000
    C8       C        0.46700    0.29560    0.92760    1.000
    C9       C        0.46630    0.29620    0.86130    1.000
    Li3      Li       0.47180    0.15800    0.12770    1.000
    H3       H        0.44100    0.33400    0.95400    1.000
    O10      O        0.02245    0.70235    0.55950    1.000
    O11      O        0.90820    0.89153    0.36050    1.000
    O12      O        0.92210    0.84243    0.26842    1.000
    C10      C        0.92940    0.84820    0.32710    1.000
    C11      C        0.96700    0.79560    0.42760    1.000
    C12      C        0.96630    0.79620    0.36130    1.000
    Li4      Li       0.97180    0.65800    0.62770    1.000
    H4       H        0.94100    0.83400    0.45400    1.000
    O13      O        0.02245    0.29765    0.94050    1.000
    O14      O        0.90820    0.10847    0.13950    1.000
    O15      O        0.92210    0.15757    0.23158    1.000
    C13      C        0.92940    0.15180    0.17290    1.000
    C14      C        0.96700    0.20440    0.07240    1.000
    C15      C        0.96630    0.20380    0.13870    1.000
    Li5      Li       0.97180    0.34200    0.87230    1.000
    H5       H        0.94100    0.16600    0.04600    1.000
    O16      O        0.52245    0.79765    0.44050    1.000
    O17      O        0.40820    0.60847    0.63950    1.000
    O18      O        0.42210    0.65757    0.73158    1.000
    C16      C        0.42940    0.65180    0.67290    1.000
    C17      C        0.46700    0.70440    0.57240    1.000
    C18      C        0.46630    0.70380    0.63870    1.000
    Li6      Li       0.47180    0.84200    0.37230    1.000
    H6       H        0.44100    0.66600    0.54600    1.000
    O19      O        0.47755    0.70235    0.44050    1.000
    O20      O        0.59180    0.89153    0.63950    1.000
    O21      O        0.57790    0.84243    0.73158    1.000
    C19      C        0.57060    0.84820    0.67290    1.000
    C20      C        0.53300    0.79560    0.57240    1.000
    C21      C        0.53370    0.79620    0.63870    1.000
    Li7      Li       0.52820    0.65800    0.37230    1.000
    H7       H        0.55900    0.83400    0.54600    1.000
    O22      O        0.97755    0.20235    0.94050    1.000
    O23      O        0.09180    0.39153    0.13950    1.000
    O24      O        0.07790    0.34243    0.23158    1.000
    C22      C        0.07060    0.34820    0.17290    1.000
    C23      C        0.03300    0.29560    0.07240    1.000
    C24      C        0.03370    0.29620    0.13870    1.000
    Li8      Li       0.02820    0.15800    0.87230    1.000
    H8       H        0.05900    0.33400    0.04600    1.000
    O25      O        0.55950    0.97755    0.79765    1.000
    O26      O        0.36050    0.09180    0.60847    1.000
    O27      O        0.26842    0.07790    0.65757    1.000
    C25      C        0.32710    0.07060    0.65180    1.000
    C26      C        0.42760    0.03300    0.70440    1.000
    C27      C        0.36130    0.03370    0.70380    1.000
    Li9      Li       0.62770    0.02820    0.84200    1.000
    H9       H        0.45400    0.05900    0.66600    1.000
    O28      O        0.05950    0.47755    0.29765    1.000
    O29      O        0.86050    0.59180    0.10847    1.000
    O30      O        0.76842    0.57790    0.15757    1.000
    C28      C        0.82710    0.57060    0.15180    1.000
    C29      C        0.92760    0.53300    0.20440    1.000
    C30      C        0.86130    0.53370    0.20380    1.000
    Li10     Li       0.12770    0.52820    0.34200    1.000
    H10      H        0.95400    0.55900    0.16600    1.000
    O31      O        0.05950    0.52245    0.20235    1.000
    O32      O        0.86050    0.40820    0.39153    1.000
    O33      O        0.76842    0.42210    0.34243    1.000
    C31      C        0.82710    0.42940    0.34820    1.000
    C32      C        0.92760    0.46700    0.29560    1.000
    C33      C        0.86130    0.46630    0.29620    1.000
    Li11     Li       0.12770    0.47180    0.15800    1.000
    H11      H        0.95400    0.44100    0.33400    1.000
    O34      O        0.55950    0.02245    0.70235    1.000
    O35      O        0.36050    0.90820    0.89153    1.000
    O36      O        0.26842    0.92210    0.84243    1.000
    C34      C        0.32710    0.92940    0.84820    1.000
    C35      C        0.42760    0.96700    0.79560    1.000
    C36      C        0.36130    0.96630    0.79620    1.000
    Li12     Li       0.62770    0.97180    0.65800    1.000
    H12      H        0.45400    0.94100    0.83400    1.000
    O37      O        0.94050    0.02245    0.29765    1.000
    O38      O        0.13950    0.90820    0.10847    1.000
    O39      O        0.23158    0.92210    0.15757    1.000
    C37      C        0.17290    0.92940    0.15180    1.000
    C38      C        0.07240    0.96700    0.20440    1.000
    C39      C        0.13870    0.96630    0.20380    1.000
    Li13     Li       0.87230    0.97180    0.34200    1.000
    H13      H        0.04600    0.94100    0.16600    1.000
    O40      O        0.44050    0.52245    0.79765    1.000
    O41      O        0.63950    0.40820    0.60847    1.000
    O42      O        0.73158    0.42210    0.65757    1.000
    C40      C        0.67290    0.42940    0.65180    1.000
    C41      C        0.57240    0.46700    0.70440    1.000
    C42      C        0.63870    0.46630    0.70380    1.000
    Li14     Li       0.37230    0.47180    0.84200    1.000
    H14      H        0.54600    0.44100    0.66600    1.000
    O43      O        0.44050    0.47755    0.70235    1.000
    O44      O        0.63950    0.59180    0.89153    1.000
    O45      O        0.73158    0.57790    0.84243    1.000
    C43      C        0.67290    0.57060    0.84820    1.000
    C44      C        0.57240    0.53300    0.79560    1.000
    C45      C        0.63870    0.53370    0.79620    1.000
    Li15     Li       0.37230    0.52820    0.65800    1.000
    H15      H        0.54600    0.55900    0.83400    1.000
    O46      O        0.94050    0.97755    0.20235    1.000
    O47      O        0.13950    0.09180    0.39153    1.000
    O48      O        0.23158    0.07790    0.34243    1.000
    C46      C        0.17290    0.07060    0.34820    1.000
    C47      C        0.07240    0.03300    0.29560    1.000
    C48      C        0.13870    0.03370    0.29620    1.000
    Li16     Li       0.87230    0.02820    0.15800    1.000
    H16      H        0.04600    0.05900    0.33400    1.000
    O49      O        0.79765    0.55950    0.97755    1.000
    O50      O        0.60847    0.36050    0.09180    1.000
    O51      O        0.65757    0.26842    0.07790    1.000
    C49      C        0.65180    0.32710    0.07060    1.000
    C50      C        0.70440    0.42760    0.03300    1.000
    C51      C        0.70380    0.36130    0.03370    1.000
    Li17     Li       0.84200    0.62770    0.02820    1.000
    H17      H        0.66600    0.45400    0.05900    1.000
    O52      O        0.29765    0.05950    0.47755    1.000
    O53      O        0.10847    0.86050    0.59180    1.000
    O54      O        0.15757    0.76842    0.57790    1.000
    C52      C        0.15180    0.82710    0.57060    1.000
    C53      C        0.20440    0.92760    0.53300    1.000
    C54      C        0.20380    0.86130    0.53370    1.000
    Li18     Li       0.34200    0.12770    0.52820    1.000
    H18      H        0.16600    0.95400    0.55900    1.000
    O55      O        0.20235    0.05950    0.52245    1.000
    O56      O        0.39153    0.86050    0.40820    1.000
    O57      O        0.34243    0.76842    0.42210    1.000
    C55      C        0.34820    0.82710    0.42940    1.000
    C56      C        0.29560    0.92760    0.46700    1.000
    C57      C        0.29620    0.86130    0.46630    1.000
    Li19     Li       0.15800    0.12770    0.47180    1.000
    H19      H        0.33400    0.95400    0.44100    1.000
    O58      O        0.70235    0.55950    0.02245    1.000
    O59      O        0.89153    0.36050    0.90820    1.000
    O60      O        0.84243    0.26842    0.92210    1.000
    C58      C        0.84820    0.32710    0.92940    1.000
    C59      C        0.79560    0.42760    0.96700    1.000
    C60      C        0.79620    0.36130    0.96630    1.000
    Li20     Li       0.65800    0.62770    0.97180    1.000
    H20      H        0.83400    0.45400    0.94100    1.000
    O61      O        0.29765    0.94050    0.02245    1.000
    O62      O        0.10847    0.13950    0.90820    1.000
    O63      O        0.15757    0.23158    0.92210    1.000
    C61      C        0.15180    0.17290    0.92940    1.000
    C62      C        0.20440    0.07240    0.96700    1.000
    C63      C        0.20380    0.13870    0.96630    1.000
    Li21     Li       0.34200    0.87230    0.97180    1.000
    H21      H        0.16600    0.04600    0.94100    1.000
    O64      O        0.79765    0.44050    0.52245    1.000
    O65      O        0.60847    0.63950    0.40820    1.000
    O66      O        0.65757    0.73158    0.42210    1.000
    C64      C        0.65180    0.67290    0.42940    1.000
    C65      C        0.70440    0.57240    0.46700    1.000
    C66      C        0.70380    0.63870    0.46630    1.000
    Li22     Li       0.84200    0.37230    0.47180    1.000
    H22      H        0.66600    0.54600    0.44100    1.000
    O67      O        0.70235    0.44050    0.47755    1.000
    O68      O        0.89153    0.63950    0.59180    1.000
    O69      O        0.84243    0.73158    0.57790    1.000
    C67      C        0.84820    0.67290    0.57060    1.000
    C68      C        0.79560    0.57240    0.53300    1.000
    C69      C        0.79620    0.63870    0.53370    1.000
    Li23     Li       0.65800    0.37230    0.52820    1.000
    H23      H        0.83400    0.54600    0.55900    1.000
    O70      O        0.20235    0.94050    0.97755    1.000
    O71      O        0.39153    0.13950    0.09180    1.000
    O72      O        0.34243    0.23158    0.07790    1.000
    C70      C        0.34820    0.17290    0.07060    1.000
    C71      C        0.29560    0.07240    0.03300    1.000
    C72      C        0.29620    0.13870    0.03370    1.000
    Li24     Li       0.15800    0.87230    0.02820    1.000
    H24      H        0.33400    0.04600    0.05900    1.000
    O73      O        0.04765    0.22755    0.80950    1.000
    O74      O        0.85847    0.34180    0.61050    1.000
    O75      O        0.90757    0.32790    0.51842    1.000
    C73      C        0.90180    0.32060    0.57710    1.000
    C74      C        0.95440    0.28300    0.67760    1.000
    C75      C        0.95380    0.28370    0.61130    1.000
    Li25     Li       0.09200    0.27820    0.87770    1.000
    H25      H        0.91600    0.30900    0.70400    1.000
    O76      O        0.54765    0.72755    0.30950    1.000
    O77      O        0.35847    0.84180    0.11050    1.000
    O78      O        0.40757    0.82790    0.01842    1.000
    C76      C        0.40180    0.82060    0.07710    1.000
    C77      C        0.45440    0.78300    0.17760    1.000
    C78      C        0.45380    0.78370    0.11130    1.000
    Li26     Li       0.59200    0.77820    0.37770    1.000
    H26      H        0.41600    0.80900    0.20400    1.000
    O79      O        0.45235    0.77245    0.30950    1.000
    O80      O        0.64153    0.65820    0.11050    1.000
    O81      O        0.59243    0.67210    0.01842    1.000
    C79      C        0.59820    0.67940    0.07710    1.000
    C80      C        0.54560    0.71700    0.17760    1.000
    C81      C        0.54620    0.71630    0.11130    1.000
    Li27     Li       0.40800    0.72180    0.37770    1.000
    H27      H        0.58400    0.69100    0.20400    1.000
    O82      O        0.95235    0.27245    0.80950    1.000
    O83      O        0.14153    0.15820    0.61050    1.000
    O84      O        0.09243    0.17210    0.51842    1.000
    C82      C        0.09820    0.17940    0.57710    1.000
    C83      C        0.04560    0.21700    0.67760    1.000
    C84      C        0.04620    0.21630    0.61130    1.000
    Li28     Li       0.90800    0.22180    0.87770    1.000
    H28      H        0.08400    0.19100    0.70400    1.000
    O85      O        0.54765    0.27245    0.19050    1.000
    O86      O        0.35847    0.15820    0.38950    1.000
    O87      O        0.40757    0.17210    0.48158    1.000
    C85      C        0.40180    0.17940    0.42290    1.000
    C86      C        0.45440    0.21700    0.32240    1.000
    C87      C        0.45380    0.21630    0.38870    1.000
    Li29     Li       0.59200    0.22180    0.12230    1.000
    H29      H        0.41600    0.19100    0.29600    1.000
    O88      O        0.04765    0.77245    0.69050    1.000
    O89      O        0.85847    0.65820    0.88950    1.000
    O90      O        0.90757    0.67210    0.98158    1.000
    C88      C        0.90180    0.67940    0.92290    1.000
    C89      C        0.95440    0.71700    0.82240    1.000
    C90      C        0.95380    0.71630    0.88870    1.000
    Li30     Li       0.09200    0.72180    0.62230    1.000
    H30      H        0.91600    0.69100    0.79600    1.000
    O91      O        0.95235    0.72755    0.69050    1.000
    O92      O        0.14153    0.84180    0.88950    1.000
    O93      O        0.09243    0.82790    0.98158    1.000
    C91      C        0.09820    0.82060    0.92290    1.000
    C92      C        0.04560    0.78300    0.82240    1.000
    C93      C        0.04620    0.78370    0.88870    1.000
    Li31     Li       0.90800    0.77820    0.62230    1.000
    H31      H        0.08400    0.80900    0.79600    1.000
    O94      O        0.45235    0.22755    0.19050    1.000
    O95      O        0.64153    0.34180    0.38950    1.000
    O96      O        0.59243    0.32790    0.48158    1.000
    C94      C        0.59820    0.32060    0.42290    1.000
    C95      C        0.54560    0.28300    0.32240    1.000
    C96      C        0.54620    0.28370    0.38870    1.000
    Li32     Li       0.40800    0.27820    0.12230    1.000
    H32      H        0.58400    0.30900    0.29600    1.000
    O97      O        0.22755    0.80950    0.04765    1.000
    O98      O        0.34180    0.61050    0.85847    1.000
    O99      O        0.32790    0.51842    0.90757    1.000
    C97      C        0.32060    0.57710    0.90180    1.000
    C98      C        0.28300    0.67760    0.95440    1.000
    C99      C        0.28370    0.61130    0.95380    1.000
    Li33     Li       0.27820    0.87770    0.09200    1.000
    H33      H        0.30900    0.70400    0.91600    1.000
    O100     O        0.72755    0.30950    0.54765    1.000
    O101     O        0.84180    0.11050    0.35847    1.000
    O102     O        0.82790    0.01842    0.40757    1.000
    C100     C        0.82060    0.07710    0.40180    1.000
    C101     C        0.78300    0.17760    0.45440    1.000
    C102     C        0.78370    0.11130    0.45380    1.000
    Li34     Li       0.77820    0.37770    0.59200    1.000
    H34      H        0.80900    0.20400    0.41600    1.000
    O103     O        0.77245    0.30950    0.45235    1.000
    O104     O        0.65820    0.11050    0.64153    1.000
    O105     O        0.67210    0.01842    0.59243    1.000
    C103     C        0.67940    0.07710    0.59820    1.000
    C104     C        0.71700    0.17760    0.54560    1.000
    C105     C        0.71630    0.11130    0.54620    1.000
    Li35     Li       0.72180    0.37770    0.40800    1.000
    H35      H        0.69100    0.20400    0.58400    1.000
    O106     O        0.27245    0.80950    0.95235    1.000
    O107     O        0.15820    0.61050    0.14153    1.000
    O108     O        0.17210    0.51842    0.09243    1.000
    C106     C        0.17940    0.57710    0.09820    1.000
    C107     C        0.21700    0.67760    0.04560    1.000
    C108     C        0.21630    0.61130    0.04620    1.000
    Li36     Li       0.22180    0.87770    0.90800    1.000
    H36      H        0.19100    0.70400    0.08400    1.000
    O109     O        0.27245    0.19050    0.54765    1.000
    O110     O        0.15820    0.38950    0.35847    1.000
    O111     O        0.17210    0.48158    0.40757    1.000
    C109     C        0.17940    0.42290    0.40180    1.000
    C110     C        0.21700    0.32240    0.45440    1.000
    C111     C        0.21630    0.38870    0.45380    1.000
    Li37     Li       0.22180    0.12230    0.59200    1.000
    H37      H        0.19100    0.29600    0.41600    1.000
    O112     O        0.77245    0.69050    0.04765    1.000
    O113     O        0.65820    0.88950    0.85847    1.000
    O114     O        0.67210    0.98158    0.90757    1.000
    C112     C        0.67940    0.92290    0.90180    1.000
    C113     C        0.71700    0.82240    0.95440    1.000
    C114     C        0.71630    0.88870    0.95380    1.000
    Li38     Li       0.72180    0.62230    0.09200    1.000
    H38      H        0.69100    0.79600    0.91600    1.000
    O115     O        0.72755    0.69050    0.95235    1.000
    O116     O        0.84180    0.88950    0.14153    1.000
    O117     O        0.82790    0.98158    0.09243    1.000
    C115     C        0.82060    0.92290    0.09820    1.000
    C116     C        0.78300    0.82240    0.04560    1.000
    C117     C        0.78370    0.88870    0.04620    1.000
    Li39     Li       0.77820    0.62230    0.90800    1.000
    H39      H        0.80900    0.79600    0.08400    1.000
    O118     O        0.22755    0.19050    0.45235    1.000
    O119     O        0.34180    0.38950    0.64153    1.000
    O120     O        0.32790    0.48158    0.59243    1.000
    C118     C        0.32060    0.42290    0.59820    1.000
    C119     C        0.28300    0.32240    0.54560    1.000
    C120     C        0.28370    0.38870    0.54620    1.000
    Li40     Li       0.27820    0.12230    0.40800    1.000
    H40      H        0.30900    0.29600    0.58400    1.000
    O121     O        0.80950    0.04765    0.22755    1.000
    O122     O        0.61050    0.85847    0.34180    1.000
    O123     O        0.51842    0.90757    0.32790    1.000
    C121     C        0.57710    0.90180    0.32060    1.000
    C122     C        0.67760    0.95440    0.28300    1.000
    C123     C        0.61130    0.95380    0.28370    1.000
    Li41     Li       0.87770    0.09200    0.27820    1.000
    H41      H        0.70400    0.91600    0.30900    1.000
    O124     O        0.30950    0.54765    0.72755    1.000
    O125     O        0.11050    0.35847    0.84180    1.000
    O126     O        0.01842    0.40757    0.82790    1.000
    C124     C        0.07710    0.40180    0.82060    1.000
    C125     C        0.17760    0.45440    0.78300    1.000
    C126     C        0.11130    0.45380    0.78370    1.000
    Li42     Li       0.37770    0.59200    0.77820    1.000
    H42      H        0.20400    0.41600    0.80900    1.000
    O127     O        0.30950    0.45235    0.77245    1.000
    O128     O        0.11050    0.64153    0.65820    1.000
    O129     O        0.01842    0.59243    0.67210    1.000
    C127     C        0.07710    0.59820    0.67940    1.000
    C128     C        0.17760    0.54560    0.71700    1.000
    C129     C        0.11130    0.54620    0.71630    1.000
    Li43     Li       0.37770    0.40800    0.72180    1.000
    H43      H        0.20400    0.58400    0.69100    1.000
    O130     O        0.80950    0.95235    0.27245    1.000
    O131     O        0.61050    0.14153    0.15820    1.000
    O132     O        0.51842    0.09243    0.17210    1.000
    C130     C        0.57710    0.09820    0.17940    1.000
    C131     C        0.67760    0.04560    0.21700    1.000
    C132     C        0.61130    0.04620    0.21630    1.000
    Li44     Li       0.87770    0.90800    0.22180    1.000
    H44      H        0.70400    0.08400    0.19100    1.000
    O133     O        0.19050    0.54765    0.27245    1.000
    O134     O        0.38950    0.35847    0.15820    1.000
    O135     O        0.48158    0.40757    0.17210    1.000
    C133     C        0.42290    0.40180    0.17940    1.000
    C134     C        0.32240    0.45440    0.21700    1.000
    C135     C        0.38870    0.45380    0.21630    1.000
    Li45     Li       0.12230    0.59200    0.22180    1.000
    H45      H        0.29600    0.41600    0.19100    1.000
    O136     O        0.69050    0.04765    0.77245    1.000
    O137     O        0.88950    0.85847    0.65820    1.000
    O138     O        0.98158    0.90757    0.67210    1.000
    C136     C        0.92290    0.90180    0.67940    1.000
    C137     C        0.82240    0.95440    0.71700    1.000
    C138     C        0.88870    0.95380    0.71630    1.000
    Li46     Li       0.62230    0.09200    0.72180    1.000
    H46      H        0.79600    0.91600    0.69100    1.000
    O139     O        0.69050    0.95235    0.72755    1.000
    O140     O        0.88950    0.14153    0.84180    1.000
    O141     O        0.98158    0.09243    0.82790    1.000
    C139     C        0.92290    0.09820    0.82060    1.000
    C140     C        0.82240    0.04560    0.78300    1.000
    C141     C        0.88870    0.04620    0.78370    1.000
    Li47     Li       0.62230    0.90800    0.77820    1.000
    H47      H        0.79600    0.08400    0.80900    1.000
    O142     O        0.19050    0.45235    0.22755    1.000
    O143     O        0.38950    0.64153    0.34180    1.000
    O144     O        0.48158    0.59243    0.32790    1.000
    C142     C        0.42290    0.59820    0.32060    1.000
    C143     C        0.32240    0.54560    0.28300    1.000
    C144     C        0.38870    0.54620    0.28370    1.000
    Li48     Li       0.12230    0.40800    0.27820    1.000
    H48      H        0.29600    0.58400    0.30900    1.000
    C145     C        0.00000    0.75000    0.46060    1.000
    C146     C        0.00000    0.75000    0.32990    1.000
    C147     C        0.00000    0.75000    0.53180    1.000
    H49      H        0.00000    0.75000    0.27500    1.000
    C148     C        0.50000    0.25000    0.96060    1.000
    C149     C        0.50000    0.25000    0.82990    1.000
    C150     C        0.50000    0.25000    0.03180    1.000
    H50      H        0.50000    0.25000    0.77500    1.000
    C151     C        0.00000    0.25000    0.03940    1.000
    C152     C        0.00000    0.25000    0.17010    1.000
    C153     C        0.00000    0.25000    0.96820    1.000
    H51      H        0.00000    0.25000    0.22500    1.000
    C154     C        0.50000    0.75000    0.53940    1.000
    C155     C        0.50000    0.75000    0.67010    1.000
    C156     C        0.50000    0.75000    0.46820    1.000
    H52      H        0.50000    0.75000    0.72500    1.000
    C157     C        0.46060    0.00000    0.75000    1.000
    C158     C        0.32990    0.00000    0.75000    1.000
    C159     C        0.53180    0.00000    0.75000    1.000
    H53      H        0.27500    0.00000    0.75000    1.000
    C160     C        0.96060    0.50000    0.25000    1.000
    C161     C        0.82990    0.50000    0.25000    1.000
    C162     C        0.03180    0.50000    0.25000    1.000
    H54      H        0.77500    0.50000    0.25000    1.000
    C163     C        0.03940    0.00000    0.25000    1.000
    C164     C        0.17010    0.00000    0.25000    1.000
    C165     C        0.96820    0.00000    0.25000    1.000
    H55      H        0.22500    0.00000    0.25000    1.000
    C166     C        0.53940    0.50000    0.75000    1.000
    C167     C        0.67010    0.50000    0.75000    1.000
    C168     C        0.46820    0.50000    0.75000    1.000
    H56      H        0.72500    0.50000    0.75000    1.000
    C169     C        0.75000    0.46060    0.00000    1.000
    C170     C        0.75000    0.32990    0.00000    1.000
    C171     C        0.75000    0.53180    0.00000    1.000
    H57      H        0.75000    0.27500    0.00000    1.000
    C172     C        0.25000    0.96060    0.50000    1.000
    C173     C        0.25000    0.82990    0.50000    1.000
    C174     C        0.25000    0.03180    0.50000    1.000
    H58      H        0.25000    0.77500    0.50000    1.000
    C175     C        0.25000    0.03940    0.00000    1.000
    C176     C        0.25000    0.17010    0.00000    1.000
    C177     C        0.25000    0.96820    0.00000    1.000
    H59      H        0.25000    0.22500    0.00000    1.000
    C178     C        0.75000    0.53940    0.50000    1.000
    C179     C        0.75000    0.67010    0.50000    1.000
    C180     C        0.75000    0.46820    0.50000    1.000
    H60      H        0.75000    0.72500    0.50000    1.000
    C181     C        0.00000    0.25000    0.71060    1.000
    C182     C        0.00000    0.25000    0.57990    1.000
    C183     C        0.00000    0.25000    0.78180    1.000
    H61      H        0.00000    0.25000    0.52500    1.000
    C184     C        0.50000    0.75000    0.21060    1.000
    C185     C        0.50000    0.75000    0.07990    1.000
    C186     C        0.50000    0.75000    0.28180    1.000
    H62      H        0.50000    0.75000    0.02500    1.000
    C187     C        0.50000    0.25000    0.28940    1.000
    C188     C        0.50000    0.25000    0.42010    1.000
    C189     C        0.50000    0.25000    0.21820    1.000
    H63      H        0.50000    0.25000    0.47500    1.000
    C190     C        0.00000    0.75000    0.78940    1.000
    C191     C        0.00000    0.75000    0.92010    1.000
    C192     C        0.00000    0.75000    0.71820    1.000
    H64      H        0.00000    0.75000    0.97500    1.000
    C193     C        0.25000    0.71060    0.00000    1.000
    C194     C        0.25000    0.57990    0.00000    1.000
    C195     C        0.25000    0.78180    0.00000    1.000
    H65      H        0.25000    0.52500    0.00000    1.000
    C196     C        0.75000    0.21060    0.50000    1.000
    C197     C        0.75000    0.07990    0.50000    1.000
    C198     C        0.75000    0.28180    0.50000    1.000
    H66      H        0.75000    0.02500    0.50000    1.000
    C199     C        0.25000    0.28940    0.50000    1.000
    C200     C        0.25000    0.42010    0.50000    1.000
    C201     C        0.25000    0.21820    0.50000    1.000
    H67      H        0.25000    0.47500    0.50000    1.000
    C202     C        0.75000    0.78940    0.00000    1.000
    C203     C        0.75000    0.92010    0.00000    1.000
    C204     C        0.75000    0.71820    0.00000    1.000
    H68      H        0.75000    0.97500    0.00000    1.000
    C205     C        0.71060    0.00000    0.25000    1.000
    C206     C        0.57990    0.00000    0.25000    1.000
    C207     C        0.78180    0.00000    0.25000    1.000
    H69      H        0.52500    0.00000    0.25000    1.000
    C208     C        0.21060    0.50000    0.75000    1.000
    C209     C        0.07990    0.50000    0.75000    1.000
    C210     C        0.28180    0.50000    0.75000    1.000
    H70      H        0.02500    0.50000    0.75000    1.000
    C211     C        0.28940    0.50000    0.25000    1.000
    C212     C        0.42010    0.50000    0.25000    1.000
    C213     C        0.21820    0.50000    0.25000    1.000
    H71      H        0.47500    0.50000    0.25000    1.000
    C214     C        0.78940    0.00000    0.75000    1.000
    C215     C        0.92010    0.00000    0.75000    1.000
    C216     C        0.71820    0.00000    0.75000    1.000
    H72      H        0.97500    0.00000    0.75000    1.000
