data_functionalizedCrystal
_audit_creation_method	'EQeq! by Chris Wilmer'
_symmetry_space_group_name_H-M	'P1'
_symmetry_Int_Tables_number	1
_symmetry_cell_setting	triclinic
loop_
_symmetry_equiv_pos_as_xyz
  x,y,z
_cell_length_a	6.6764
_cell_length_b	7.0684
_cell_length_c	7.8103
_cell_angle_alpha	111.141
_cell_angle_beta	95.415
_cell_angle_gamma	90.457
loop_
_atom_site_label
_atom_site_type_symbol
_atom_site_fract_x
_atom_site_fract_y
_atom_site_fract_z
_atom_site_charge
Mof_Pr	Pr	0.8682	0.77721	0.06593	2.39
Mof_Pr	Pr	0.1318	0.22279	0.93407	2.39
Mof_P 	P 	0.32502	0.74746	0.97927	0.536
Mof_P 	P 	0.67498	0.25254	0.02073	0.536
Mof_H 	H 	0.3622	0.7204	0.7978	-0.116
Mof_H 	H 	0.6378	0.2796	0.2022	-0.116
Mof_C 	C 	0.061	0.9083	0.5006	0.266
Mof_C 	C 	0.939	0.0917	0.4994	0.266
Mof_O 	O 	0.1985	0.9374	0.0341	-0.72
Mof_O 	O 	0.5198	0.7719	0.1013	-0.586
Mof_O 	O 	0.1832	0.5747	0.975	-0.741
Mof_O 	O 	0.0522	0.7599	0.3522	-0.514
Mof_O 	O 	0.8397	0.076	0.3509	-0.515
Mof_O 	O 	0.8015	0.0626	0.9659	-0.72
Mof_O 	O 	0.4802	0.2281	0.8987	-0.586
Mof_O 	O 	0.8168	0.4253	0.025	-0.741
Mof_O 	O 	0.9478	0.2401	0.6478	-0.514
Mof_O 	O 	0.1603	0.924	0.6491	-0.515
_end
