data_functionalizedCrystal
_audit_creation_method	'EQeq! by Chris Wilmer'
_symmetry_space_group_name_H-M	'P1'
_symmetry_Int_Tables_number	1
_symmetry_cell_setting	triclinic
loop_
_symmetry_equiv_pos_as_xyz
  x,y,z
_cell_length_a	14.745
_cell_length_b	11.024
_cell_length_c	13.287
_cell_angle_alpha	90
_cell_angle_beta	97.27
_cell_angle_gamma	90
loop_
_atom_site_label
_atom_site_type_symbol
_atom_site_fract_x
_atom_site_fract_y
_atom_site_fract_z
_atom_site_charge
Mof_Cu	Cu	0.0147	0.28742	0.23314	0.901
Mof_Cu	Cu	0.31441	0.1973	0.23652	0.888
Mof_O 	O 	0.943	0.1387	0.2119	-0.413
Mof_O 	O 	0.92091	0.9433	0.2392	-0.363
Mof_O 	O 	0.1279	0.2097	0.2199	-0.429
Mof_O 	O 	0.3862	0.3461	0.2308	-0.401
Mof_O 	O 	0.4502	0.4659	0.1273	-0.408
Mof_O 	O 	0.3989	0.4225	0.9198	-0.407
Mof_N 	N 	0.2298	0.0578	0.242	-0.272
Mof_N 	N 	0.0949	0.8913	0.2622	-0.143
Mof_N 	N 	0.301	0.215	0.0836	-0.152
Mof_N 	N 	0.3049	0.2645	0.8818	-0.249
Mof_C 	C 	0.141	0.0961	0.2339	0.247
Mof_C 	C 	0.0732	0.0069	0.2428	-0.21
Mof_C 	C 	0.9731	0.0335	0.2309	0.306
Mof_C 	C 	0.1825	0.8568	0.2726	-0.041
Mof_H 	H 	0.1984	0.7746	0.2873	0.048
Mof_C 	C 	0.2501	0.9415	0.2618	0.087
Mof_H 	H 	0.3122	0.9163	0.2687	0.002
Mof_C 	C 	0.3538	0.3358	0.9523	0.306
Mof_C 	C 	0.3505	0.3081	0.0566	-0.227
Mof_C 	C 	0.3992	0.3788	0.1431	0.367
Mof_C 	C 	0.2532	0.1465	0.0129	-0.094
Mof_H 	H 	0.2177	0.0805	0.0321	0.034
Mof_C 	C 	0.2558	0.1722	0.9118	0.097
Mof_H 	H 	0.2217	0.123	0.8619	0.008
Mof_Cu	Cu	0.9853	0.78742	0.26686	0.904
Mof_Cu	Cu	0.68559	0.6973	0.26348	0.892
Mof_O 	O 	0.057	0.6387	0.2881	-0.408
Mof_O 	O 	0.07909	0.4433	0.2608	-0.394
Mof_O 	O 	0.8721	0.7097	0.2801	-0.424
Mof_O 	O 	0.6138	0.8461	0.2692	-0.389
Mof_O 	O 	0.5498	0.9659	0.3727	-0.375
Mof_O 	O 	0.6011	0.9225	0.5802	-0.389
Mof_N 	N 	0.7702	0.5578	0.258	-0.245
Mof_N 	N 	0.9051	0.3913	0.2378	-0.171
Mof_N 	N 	0.699	0.715	0.4164	-0.168
Mof_N 	N 	0.6951	0.7645	0.6182	-0.229
Mof_C 	C 	0.859	0.5961	0.2661	0.242
Mof_C 	C 	0.9268	0.5069	0.2572	-0.179
Mof_C 	C 	0.0269	0.5335	0.2691	0.344
Mof_C 	C 	0.8175	0.3568	0.2274	-0.027
Mof_H 	H 	0.8016	0.2746	0.2127	0.032
Mof_C 	C 	0.7499	0.4415	0.2382	0.029
Mof_H 	H 	0.6878	0.4163	0.2313	0.007
Mof_C 	C 	0.6462	0.8358	0.5477	0.25
Mof_C 	C 	0.6495	0.8081	0.4434	-0.163
Mof_C 	C 	0.6008	0.8788	0.3569	0.352
Mof_C 	C 	0.7468	0.6465	0.4871	-0.009
Mof_H 	H 	0.7823	0.5805	0.4679	0.025
Mof_C 	C 	0.7442	0.6722	0.5882	0.018
Mof_H 	H 	0.7783	0.623	0.6381	0.033
Mof_Cu	Cu	0.9853	0.71258	0.76686	0.907
Mof_Cu	Cu	0.68559	0.8027	0.76348	0.896
Mof_O 	O 	0.057	0.8613	0.7881	-0.404
Mof_O 	O 	0.07909	0.0567	0.7608	-0.424
Mof_O 	O 	0.8721	0.7903	0.7801	-0.419
Mof_O 	O 	0.6138	0.6539	0.7692	-0.386
Mof_O 	O 	0.5498	0.5341	0.8727	-0.376
Mof_O 	O 	0.6011	0.5775	0.0802	-0.406
Mof_N 	N 	0.7702	0.9422	0.758	-0.219
Mof_N 	N 	0.9051	0.1087	0.7378	-0.19
Mof_N 	N 	0.699	0.785	0.9164	-0.182
Mof_N 	N 	0.6951	0.7355	0.1182	-0.214
Mof_C 	C 	0.859	0.9039	0.7661	0.242
Mof_C 	C 	0.9268	0.9931	0.7572	-0.148
Mof_C 	C 	0.0269	0.9665	0.7691	0.39
Mof_C 	C 	0.8175	0.1432	0.7274	-0.008
Mof_H 	H 	0.8016	0.2254	0.7127	0.035
Mof_C 	C 	0.7499	0.0585	0.7382	-0.018
Mof_H 	H 	0.6878	0.0837	0.7313	0.019
Mof_C 	C 	0.6462	0.6642	0.0477	0.197
Mof_C 	C 	0.6495	0.6919	0.9434	-0.112
Mof_C 	C 	0.6008	0.6212	0.8569	0.342
Mof_C 	C 	0.7468	0.8535	0.9871	0.072
Mof_H 	H 	0.7823	0.9195	0.9679	0.018
Mof_C 	C 	0.7442	0.8278	0.0882	-0.058
Mof_H 	H 	0.7783	0.877	0.1381	0.056
Mof_Cu	Cu	0.0147	0.21258	0.73314	0.905
Mof_Cu	Cu	0.31441	0.3027	0.73652	0.892
Mof_O 	O 	0.943	0.3613	0.7119	-0.408
Mof_O 	O 	0.92091	0.5567	0.7392	-0.388
Mof_O 	O 	0.1279	0.2903	0.7199	-0.424
Mof_O 	O 	0.3862	0.1539	0.7308	-0.397
Mof_O 	O 	0.4502	0.0341	0.6273	-0.409
Mof_O 	O 	0.3989	0.0775	0.4198	-0.425
Mof_N 	N 	0.2298	0.4422	0.742	-0.244
Mof_N 	N 	0.0949	0.6087	0.7622	-0.165
Mof_N 	N 	0.301	0.285	0.5836	-0.166
Mof_N 	N 	0.3049	0.2355	0.3818	-0.233
Mof_C 	C 	0.141	0.4039	0.7339	0.245
Mof_C 	C 	0.0732	0.4931	0.7428	-0.169
Mof_C 	C 	0.9731	0.4665	0.7309	0.343
Mof_C 	C 	0.1825	0.6432	0.7726	-0.021
Mof_H 	H 	0.1984	0.7254	0.7873	0.051
Mof_C 	C 	0.2501	0.5585	0.7618	0.036
Mof_H 	H 	0.3122	0.5837	0.7687	0.015
Mof_C 	C 	0.3538	0.1642	0.4523	0.252
Mof_C 	C 	0.3505	0.1919	0.5566	-0.175
Mof_C 	C 	0.3992	0.1212	0.6431	0.356
Mof_C 	C 	0.2532	0.3535	0.5129	-0.012
Mof_H 	H 	0.2177	0.4195	0.5321	0.027
Mof_C 	C 	0.2558	0.3278	0.4118	0.019
Mof_H 	H 	0.2217	0.377	0.3619	0.032
Mof_Cu	Cu	0.5	0.5	-0	0.906
Mof_Cu	Cu	0.5	0	0.5	0.907
_end
