# CIF file generated by openbabel 3.1.0, see https://openbabel.org
data_I
_chemical_name_common 'image0'
_cell_length_a 8.4258
_cell_length_b 9.271
_cell_length_c 12.824
_cell_angle_alpha 90
_cell_angle_beta 105.76
_cell_angle_gamma 90
_space_group_name_H-M_alt 'P 1'
_space_group_name_Hall 'P 1'
loop_
    _symmetry_equiv_pos_as_xyz
    x,y,z
loop_
    _atom_site_label
    _atom_site_type_symbol
    _atom_site_fract_x
    _atom_site_fract_y
    _atom_site_fract_z
    _atom_site_occupancy
    Mn1      Mn       0.25702    0.74841    0.01078    1.000
    N1       N        0.32562    0.79743    0.18860    1.000
    N2       N        0.26937    0.80010    0.26239    1.000
    N3       N        0.21348    0.80678    0.33612    1.000
    N4       N        0.04300    0.61974    0.01824    1.000
    N5       N        0.10732    0.94643    0.97211    1.000
    N6       N        0.48162    0.87531    0.00742    1.000
    N7       N        0.42938    0.55915    0.05486    1.000
    Mn2      Mn       0.74298    0.24841    0.48922    1.000
    N8       N        0.67438    0.29743    0.31140    1.000
    N9       N        0.73063    0.30010    0.23761    1.000
    N10      N        0.78652    0.30678    0.16388    1.000
    N11      N        0.95700    0.11974    0.48176    1.000
    N12      N        0.89268    0.44643    0.52789    1.000
    N13      N        0.51838    0.37531    0.49258    1.000
    N14      N        0.57062    0.05915    0.44514    1.000
    Mn3      Mn       0.74298    0.25159    0.98922    1.000
    N15      N        0.67438    0.20257    0.81140    1.000
    N16      N        0.73063    0.19990    0.73761    1.000
    N17      N        0.78652    0.19322    0.66388    1.000
    N18      N        0.95700    0.38026    0.98176    1.000
    N19      N        0.89268    0.05357    0.02789    1.000
    N20      N        0.51838    0.12469    0.99258    1.000
    N21      N        0.57062    0.44085    0.94514    1.000
    Mn4      Mn       0.25702    0.75159    0.51078    1.000
    N22      N        0.32562    0.70257    0.68860    1.000
    N23      N        0.26937    0.69990    0.76239    1.000
    N24      N        0.21348    0.69322    0.83612    1.000
    N25      N        0.04300    0.88026    0.51824    1.000
    N26      N        0.10732    0.55357    0.47211    1.000
    N27      N        0.48162    0.62469    0.50742    1.000
    N28      N        0.42938    0.94085    0.55486    1.000
    N29      N        0.00000    0.50000    0.00000    1.000
    N30      N        0.00000    0.00000    0.50000    1.000
    N31      N        0.00000    0.00000    0.00000    1.000
    N32      N        0.00000    0.50000    0.50000    1.000
    N33      N        0.50000    0.00000    0.00000    1.000
    N34      N        0.50000    0.50000    0.50000    1.000
    N35      N        0.50000    0.50000    0.00000    1.000
    N36      N        0.50000    0.00000    0.50000    1.000
