# CIF file generated by openbabel 3.1.0, see https://openbabel.org
data_I
_chemical_name_common 'image0'
_cell_length_a 32.84
_cell_length_b 8.998
_cell_length_c 34.21
_cell_angle_alpha 90
_cell_angle_beta 115.564
_cell_angle_gamma 90
_space_group_name_H-M_alt 'P 1'
_space_group_name_Hall 'P 1'
loop_
    _symmetry_equiv_pos_as_xyz
    x,y,z
loop_
    _atom_site_label
    _atom_site_type_symbol
    _atom_site_fract_x
    _atom_site_fract_y
    _atom_site_fract_z
    _atom_site_occupancy
    Sm1      Sm       0.00381    0.85755    0.88103    1.000
    O1       O        0.06850    0.91350    0.94906    1.000
    O2       O        0.13090    0.77110    0.96950    1.000
    O3       O        0.02980    0.09860    0.06839    1.000
    O4       O        0.07050    0.02900    0.13444    1.000
    O5       O        0.45320    0.81760    0.32786    1.000
    O6       O        0.46890    0.61710    0.30034    1.000
    O7       O        0.43880    0.70470    0.13940    1.000
    O8       O        0.36840    0.77040    0.09960    1.000
    H1       H        0.37350    0.73640    0.07990    1.000
    N1       N        0.33060    0.08200    0.20000    1.000
    H2       H        0.31760    0.12180    0.17480    1.000
    N2       N        0.18330    0.65990    0.12470    1.000
    H3       H        0.19990    0.61400    0.11490    1.000
    C1       C        0.40280    0.75190    0.13560    1.000
    C2       C        0.39730    0.80800    0.17550    1.000
    C3       C        0.42450    0.74790    0.21540    1.000
    H4       H        0.44500    0.67260    0.21820    1.000
    C4       C        0.42020    0.80390    0.25110    1.000
    C5       C        0.38930    0.91280    0.24710    1.000
    H5       H        0.38680    0.94740    0.27160    1.000
    C6       C        0.36120    0.97280    0.20570    1.000
    C7       C        0.36480    0.91220    0.17020    1.000
    H6       H        0.34510    0.94230    0.14250    1.000
    C8       C        0.44960    0.74110    0.29600    1.000
    C9       C        0.31800    0.13750    0.23350    1.000
    H7       H        0.34480    0.17230    0.25810    1.000
    H8       H        0.30510    0.05700    0.24340    1.000
    C10      C        0.28420    0.26320    0.21680    1.000
    C11      C        0.23770    0.23280    0.19510    1.000
    C12      C        0.20800    0.35670    0.18020    1.000
    C13      C        0.22420    0.50010    0.18590    1.000
    C14      C        0.27050    0.52970    0.20520    1.000
    C15      C        0.30050    0.41170    0.22100    1.000
    C16      C        0.22060    0.07540    0.18890    1.000
    H9       H        0.21240    0.04510    0.15950    1.000
    H10      H        0.19460    0.06950    0.19480    1.000
    H11      H        0.24380    0.01100    0.20830    1.000
    C17      C        0.15750    0.32500    0.15810    1.000
    H12      H        0.14510    0.33520    0.17870    1.000
    H13      H        0.15260    0.22550    0.14680    1.000
    H14      H        0.14300    0.39410    0.13480    1.000
    C18      C        0.35170    0.44400    0.24090    1.000
    H15      H        0.36800    0.35220    0.24530    1.000
    H16      H        0.36060    0.49370    0.26820    1.000
    H17      H        0.35830    0.50630    0.22160    1.000
    C19      C        0.19110    0.63050    0.16850    1.000
    H18      H        0.16280    0.60590    0.16970    1.000
    H19      H        0.20360    0.71790    0.18630    1.000
    C20      C        0.15140    0.75540    0.09720    1.000
    C21      C        0.14360    0.76010    0.05380    1.000
    H20      H        0.16170    0.70460    0.04450    1.000
    C22      C        0.10880    0.84730    0.02410    1.000
    C23      C        0.08210    0.93560    0.03710    1.000
    H21      H        0.05930    0.99470    0.01730    1.000
    C24      C        0.09060    0.93260    0.08050    1.000
    C25      C        0.12480    0.84610    0.11010    1.000
    H22      H        0.13020    0.84810    0.13910    1.000
    C26      C        0.10120    0.84430    0.97670    1.000
    C27      C        0.06320    0.03000    0.09600    1.000
    C28      C        0.28870    0.68600    0.20910    1.000
    H23      H        0.26450    0.75240    0.19240    1.000
    H24      H        0.31130    0.68890    0.19830    1.000
    H25      H        0.30180    0.71580    0.23890    1.000
    Sm2      Sm       0.50381    0.35755    0.88103    1.000
    O9       O        0.56850    0.41350    0.94906    1.000
    O10      O        0.63090    0.27110    0.96950    1.000
    O11      O        0.52980    0.59860    0.06839    1.000
    O12      O        0.57050    0.52900    0.13444    1.000
    O13      O        0.95320    0.31760    0.32786    1.000
    O14      O        0.96890    0.11710    0.30034    1.000
    O15      O        0.93880    0.20470    0.13940    1.000
    O16      O        0.86840    0.27040    0.09960    1.000
    H26      H        0.87350    0.23640    0.07990    1.000
    N3       N        0.83060    0.58200    0.20000    1.000
    H27      H        0.81760    0.62180    0.17480    1.000
    N4       N        0.68330    0.15990    0.12470    1.000
    H28      H        0.69990    0.11400    0.11490    1.000
    C29      C        0.90280    0.25190    0.13560    1.000
    C30      C        0.89730    0.30800    0.17550    1.000
    C31      C        0.92450    0.24790    0.21540    1.000
    H29      H        0.94500    0.17260    0.21820    1.000
    C32      C        0.92020    0.30390    0.25110    1.000
    C33      C        0.88930    0.41280    0.24710    1.000
    H30      H        0.88680    0.44740    0.27160    1.000
    C34      C        0.86120    0.47280    0.20570    1.000
    C35      C        0.86480    0.41220    0.17020    1.000
    H31      H        0.84510    0.44230    0.14250    1.000
    C36      C        0.94960    0.24110    0.29600    1.000
    C37      C        0.81800    0.63750    0.23350    1.000
    H32      H        0.84480    0.67230    0.25810    1.000
    H33      H        0.80510    0.55700    0.24340    1.000
    C38      C        0.78420    0.76320    0.21680    1.000
    C39      C        0.73770    0.73280    0.19510    1.000
    C40      C        0.70800    0.85670    0.18020    1.000
    C41      C        0.72420    0.00010    0.18590    1.000
    C42      C        0.77050    0.02970    0.20520    1.000
    C43      C        0.80050    0.91170    0.22100    1.000
    C44      C        0.72060    0.57540    0.18890    1.000
    H34      H        0.71240    0.54510    0.15950    1.000
    H35      H        0.69460    0.56950    0.19480    1.000
    H36      H        0.74380    0.51100    0.20830    1.000
    C45      C        0.65750    0.82500    0.15810    1.000
    H37      H        0.64510    0.83520    0.17870    1.000
    H38      H        0.65260    0.72550    0.14680    1.000
    H39      H        0.64300    0.89410    0.13480    1.000
    C46      C        0.85170    0.94400    0.24090    1.000
    H40      H        0.86800    0.85220    0.24530    1.000
    H41      H        0.86060    0.99370    0.26820    1.000
    H42      H        0.85830    0.00630    0.22160    1.000
    C47      C        0.69110    0.13050    0.16850    1.000
    H43      H        0.66280    0.10590    0.16970    1.000
    H44      H        0.70360    0.21790    0.18630    1.000
    C48      C        0.65140    0.25540    0.09720    1.000
    C49      C        0.64360    0.26010    0.05380    1.000
    H45      H        0.66170    0.20460    0.04450    1.000
    C50      C        0.60880    0.34730    0.02410    1.000
    C51      C        0.58210    0.43560    0.03710    1.000
    H46      H        0.55930    0.49470    0.01730    1.000
    C52      C        0.59060    0.43260    0.08050    1.000
    C53      C        0.62480    0.34610    0.11010    1.000
    H47      H        0.63020    0.34810    0.13910    1.000
    C54      C        0.60120    0.34430    0.97670    1.000
    C55      C        0.56320    0.53000    0.09600    1.000
    C56      C        0.78870    0.18600    0.20910    1.000
    H48      H        0.76450    0.25240    0.19240    1.000
    H49      H        0.81130    0.18890    0.19830    1.000
    H50      H        0.80180    0.21580    0.23890    1.000
    Sm3      Sm       0.99619    0.85755    0.61897    1.000
    O17      O        0.93150    0.91350    0.55094    1.000
    O18      O        0.86910    0.77110    0.53050    1.000
    O19      O        0.97020    0.09860    0.43161    1.000
    O20      O        0.92950    0.02900    0.36556    1.000
    O21      O        0.54680    0.81760    0.17214    1.000
    O22      O        0.53110    0.61710    0.19966    1.000
    O23      O        0.56120    0.70470    0.36060    1.000
    O24      O        0.63160    0.77040    0.40040    1.000
    H51      H        0.62650    0.73640    0.42010    1.000
    N5       N        0.66940    0.08200    0.30000    1.000
    H52      H        0.68240    0.12180    0.32520    1.000
    N6       N        0.81670    0.65990    0.37530    1.000
    H53      H        0.80010    0.61400    0.38510    1.000
    C57      C        0.59720    0.75190    0.36440    1.000
    C58      C        0.60270    0.80800    0.32450    1.000
    C59      C        0.57550    0.74790    0.28460    1.000
    H54      H        0.55500    0.67260    0.28180    1.000
    C60      C        0.57980    0.80390    0.24890    1.000
    C61      C        0.61070    0.91280    0.25290    1.000
    H55      H        0.61320    0.94740    0.22840    1.000
    C62      C        0.63880    0.97280    0.29430    1.000
    C63      C        0.63520    0.91220    0.32980    1.000
    H56      H        0.65490    0.94230    0.35750    1.000
    C64      C        0.55040    0.74110    0.20400    1.000
    C65      C        0.68200    0.13750    0.26650    1.000
    H57      H        0.65520    0.17230    0.24190    1.000
    H58      H        0.69490    0.05700    0.25660    1.000
    C66      C        0.71580    0.26320    0.28320    1.000
    C67      C        0.76230    0.23280    0.30490    1.000
    C68      C        0.79200    0.35670    0.31980    1.000
    C69      C        0.77580    0.50010    0.31410    1.000
    C70      C        0.72950    0.52970    0.29480    1.000
    C71      C        0.69950    0.41170    0.27900    1.000
    C72      C        0.77940    0.07540    0.31110    1.000
    H59      H        0.78760    0.04510    0.34050    1.000
    H60      H        0.80540    0.06950    0.30520    1.000
    H61      H        0.75620    0.01100    0.29170    1.000
    C73      C        0.84250    0.32500    0.34190    1.000
    H62      H        0.85490    0.33520    0.32130    1.000
    H63      H        0.84740    0.22550    0.35320    1.000
    H64      H        0.85700    0.39410    0.36520    1.000
    C74      C        0.64830    0.44400    0.25910    1.000
    H65      H        0.63200    0.35220    0.25470    1.000
    H66      H        0.63940    0.49370    0.23180    1.000
    H67      H        0.64170    0.50630    0.27840    1.000
    C75      C        0.80890    0.63050    0.33150    1.000
    H68      H        0.83720    0.60590    0.33030    1.000
    H69      H        0.79640    0.71790    0.31370    1.000
    C76      C        0.84860    0.75540    0.40280    1.000
    C77      C        0.85640    0.76010    0.44620    1.000
    H70      H        0.83830    0.70460    0.45550    1.000
    C78      C        0.89120    0.84730    0.47590    1.000
    C79      C        0.91790    0.93560    0.46290    1.000
    H71      H        0.94070    0.99470    0.48270    1.000
    C80      C        0.90940    0.93260    0.41950    1.000
    C81      C        0.87520    0.84610    0.38990    1.000
    H72      H        0.86980    0.84810    0.36090    1.000
    C82      C        0.89880    0.84430    0.52330    1.000
    C83      C        0.93680    0.03000    0.40400    1.000
    C84      C        0.71130    0.68600    0.29090    1.000
    H73      H        0.73550    0.75240    0.30760    1.000
    H74      H        0.68870    0.68890    0.30170    1.000
    H75      H        0.69820    0.71580    0.26110    1.000
    Sm4      Sm       0.49619    0.35755    0.61897    1.000
    O25      O        0.43150    0.41350    0.55094    1.000
    O26      O        0.36910    0.27110    0.53050    1.000
    O27      O        0.47020    0.59860    0.43161    1.000
    O28      O        0.42950    0.52900    0.36556    1.000
    O29      O        0.04680    0.31760    0.17214    1.000
    O30      O        0.03110    0.11710    0.19966    1.000
    O31      O        0.06120    0.20470    0.36060    1.000
    O32      O        0.13160    0.27040    0.40040    1.000
    H76      H        0.12650    0.23640    0.42010    1.000
    N7       N        0.16940    0.58200    0.30000    1.000
    H77      H        0.18240    0.62180    0.32520    1.000
    N8       N        0.31670    0.15990    0.37530    1.000
    H78      H        0.30010    0.11400    0.38510    1.000
    C85      C        0.09720    0.25190    0.36440    1.000
    C86      C        0.10270    0.30800    0.32450    1.000
    C87      C        0.07550    0.24790    0.28460    1.000
    H79      H        0.05500    0.17260    0.28180    1.000
    C88      C        0.07980    0.30390    0.24890    1.000
    C89      C        0.11070    0.41280    0.25290    1.000
    H80      H        0.11320    0.44740    0.22840    1.000
    C90      C        0.13880    0.47280    0.29430    1.000
    C91      C        0.13520    0.41220    0.32980    1.000
    H81      H        0.15490    0.44230    0.35750    1.000
    C92      C        0.05040    0.24110    0.20400    1.000
    C93      C        0.18200    0.63750    0.26650    1.000
    H82      H        0.15520    0.67230    0.24190    1.000
    H83      H        0.19490    0.55700    0.25660    1.000
    C94      C        0.21580    0.76320    0.28320    1.000
    C95      C        0.26230    0.73280    0.30490    1.000
    C96      C        0.29200    0.85670    0.31980    1.000
    C97      C        0.27580    0.00010    0.31410    1.000
    C98      C        0.22950    0.02970    0.29480    1.000
    C99      C        0.19950    0.91170    0.27900    1.000
    C100     C        0.27940    0.57540    0.31110    1.000
    H84      H        0.28760    0.54510    0.34050    1.000
    H85      H        0.30540    0.56950    0.30520    1.000
    H86      H        0.25620    0.51100    0.29170    1.000
    C101     C        0.34250    0.82500    0.34190    1.000
    H87      H        0.35490    0.83520    0.32130    1.000
    H88      H        0.34740    0.72550    0.35320    1.000
    H89      H        0.35700    0.89410    0.36520    1.000
    C102     C        0.14830    0.94400    0.25910    1.000
    H90      H        0.13200    0.85220    0.25470    1.000
    H91      H        0.13940    0.99370    0.23180    1.000
    H92      H        0.14170    0.00630    0.27840    1.000
    C103     C        0.30890    0.13050    0.33150    1.000
    H93      H        0.33720    0.10590    0.33030    1.000
    H94      H        0.29640    0.21790    0.31370    1.000
    C104     C        0.34860    0.25540    0.40280    1.000
    C105     C        0.35640    0.26010    0.44620    1.000
    H95      H        0.33830    0.20460    0.45550    1.000
    C106     C        0.39120    0.34730    0.47590    1.000
    C107     C        0.41790    0.43560    0.46290    1.000
    H96      H        0.44070    0.49470    0.48270    1.000
    C108     C        0.40940    0.43260    0.41950    1.000
    C109     C        0.37520    0.34610    0.38990    1.000
    H97      H        0.36980    0.34810    0.36090    1.000
    C110     C        0.39880    0.34430    0.52330    1.000
    C111     C        0.43680    0.53000    0.40400    1.000
    C112     C        0.21130    0.18600    0.29090    1.000
    H98      H        0.23550    0.25240    0.30760    1.000
    H99      H        0.18870    0.18890    0.30170    1.000
    H100     H        0.19820    0.21580    0.26110    1.000
    Sm5      Sm       0.99619    0.14245    0.11897    1.000
    O33      O        0.93150    0.08650    0.05094    1.000
    O34      O        0.86910    0.22890    0.03050    1.000
    O35      O        0.97020    0.90140    0.93161    1.000
    O36      O        0.92950    0.97100    0.86556    1.000
    O37      O        0.54680    0.18240    0.67214    1.000
    O38      O        0.53110    0.38290    0.69966    1.000
    O39      O        0.56120    0.29530    0.86060    1.000
    O40      O        0.63160    0.22960    0.90040    1.000
    H101     H        0.62650    0.26360    0.92010    1.000
    N9       N        0.66940    0.91800    0.80000    1.000
    H102     H        0.68240    0.87820    0.82520    1.000
    N10      N        0.81670    0.34010    0.87530    1.000
    H103     H        0.80010    0.38600    0.88510    1.000
    C113     C        0.59720    0.24810    0.86440    1.000
    C114     C        0.60270    0.19200    0.82450    1.000
    C115     C        0.57550    0.25210    0.78460    1.000
    H104     H        0.55500    0.32740    0.78180    1.000
    C116     C        0.57980    0.19610    0.74890    1.000
    C117     C        0.61070    0.08720    0.75290    1.000
    H105     H        0.61320    0.05260    0.72840    1.000
    C118     C        0.63880    0.02720    0.79430    1.000
    C119     C        0.63520    0.08780    0.82980    1.000
    H106     H        0.65490    0.05770    0.85750    1.000
    C120     C        0.55040    0.25890    0.70400    1.000
    C121     C        0.68200    0.86250    0.76650    1.000
    H107     H        0.65520    0.82770    0.74190    1.000
    H108     H        0.69490    0.94300    0.75660    1.000
    C122     C        0.71580    0.73680    0.78320    1.000
    C123     C        0.76230    0.76720    0.80490    1.000
    C124     C        0.79200    0.64330    0.81980    1.000
    C125     C        0.77580    0.49990    0.81410    1.000
    C126     C        0.72950    0.47030    0.79480    1.000
    C127     C        0.69950    0.58830    0.77900    1.000
    C128     C        0.77940    0.92460    0.81110    1.000
    H109     H        0.78760    0.95490    0.84050    1.000
    H110     H        0.80540    0.93050    0.80520    1.000
    H111     H        0.75620    0.98900    0.79170    1.000
    C129     C        0.84250    0.67500    0.84190    1.000
    H112     H        0.85490    0.66480    0.82130    1.000
    H113     H        0.84740    0.77450    0.85320    1.000
    H114     H        0.85700    0.60590    0.86520    1.000
    C130     C        0.64830    0.55600    0.75910    1.000
    H115     H        0.63200    0.64780    0.75470    1.000
    H116     H        0.63940    0.50630    0.73180    1.000
    H117     H        0.64170    0.49370    0.77840    1.000
    C131     C        0.80890    0.36950    0.83150    1.000
    H118     H        0.83720    0.39410    0.83030    1.000
    H119     H        0.79640    0.28210    0.81370    1.000
    C132     C        0.84860    0.24460    0.90280    1.000
    C133     C        0.85640    0.23990    0.94620    1.000
    H120     H        0.83830    0.29540    0.95550    1.000
    C134     C        0.89120    0.15270    0.97590    1.000
    C135     C        0.91790    0.06440    0.96290    1.000
    H121     H        0.94070    0.00530    0.98270    1.000
    C136     C        0.90940    0.06740    0.91950    1.000
    C137     C        0.87520    0.15390    0.88990    1.000
    H122     H        0.86980    0.15190    0.86090    1.000
    C138     C        0.89880    0.15570    0.02330    1.000
    C139     C        0.93680    0.97000    0.90400    1.000
    C140     C        0.71130    0.31400    0.79090    1.000
    H123     H        0.73550    0.24760    0.80760    1.000
    H124     H        0.68870    0.31110    0.80170    1.000
    H125     H        0.69820    0.28420    0.76110    1.000
    Sm6      Sm       0.49619    0.64245    0.11897    1.000
    O41      O        0.43150    0.58650    0.05094    1.000
    O42      O        0.36910    0.72890    0.03050    1.000
    O43      O        0.47020    0.40140    0.93161    1.000
    O44      O        0.42950    0.47100    0.86556    1.000
    O45      O        0.04680    0.68240    0.67214    1.000
    O46      O        0.03110    0.88290    0.69966    1.000
    O47      O        0.06120    0.79530    0.86060    1.000
    O48      O        0.13160    0.72960    0.90040    1.000
    H126     H        0.12650    0.76360    0.92010    1.000
    N11      N        0.16940    0.41800    0.80000    1.000
    H127     H        0.18240    0.37820    0.82520    1.000
    N12      N        0.31670    0.84010    0.87530    1.000
    H128     H        0.30010    0.88600    0.88510    1.000
    C141     C        0.09720    0.74810    0.86440    1.000
    C142     C        0.10270    0.69200    0.82450    1.000
    C143     C        0.07550    0.75210    0.78460    1.000
    H129     H        0.05500    0.82740    0.78180    1.000
    C144     C        0.07980    0.69610    0.74890    1.000
    C145     C        0.11070    0.58720    0.75290    1.000
    H130     H        0.11320    0.55260    0.72840    1.000
    C146     C        0.13880    0.52720    0.79430    1.000
    C147     C        0.13520    0.58780    0.82980    1.000
    H131     H        0.15490    0.55770    0.85750    1.000
    C148     C        0.05040    0.75890    0.70400    1.000
    C149     C        0.18200    0.36250    0.76650    1.000
    H132     H        0.15520    0.32770    0.74190    1.000
    H133     H        0.19490    0.44300    0.75660    1.000
    C150     C        0.21580    0.23680    0.78320    1.000
    C151     C        0.26230    0.26720    0.80490    1.000
    C152     C        0.29200    0.14330    0.81980    1.000
    C153     C        0.27580    0.99990    0.81410    1.000
    C154     C        0.22950    0.97030    0.79480    1.000
    C155     C        0.19950    0.08830    0.77900    1.000
    C156     C        0.27940    0.42460    0.81110    1.000
    H134     H        0.28760    0.45490    0.84050    1.000
    H135     H        0.30540    0.43050    0.80520    1.000
    H136     H        0.25620    0.48900    0.79170    1.000
    C157     C        0.34250    0.17500    0.84190    1.000
    H137     H        0.35490    0.16480    0.82130    1.000
    H138     H        0.34740    0.27450    0.85320    1.000
    H139     H        0.35700    0.10590    0.86520    1.000
    C158     C        0.14830    0.05600    0.75910    1.000
    H140     H        0.13200    0.14780    0.75470    1.000
    H141     H        0.13940    0.00630    0.73180    1.000
    H142     H        0.14170    0.99370    0.77840    1.000
    C159     C        0.30890    0.86950    0.83150    1.000
    H143     H        0.33720    0.89410    0.83030    1.000
    H144     H        0.29640    0.78210    0.81370    1.000
    C160     C        0.34860    0.74460    0.90280    1.000
    C161     C        0.35640    0.73990    0.94620    1.000
    H145     H        0.33830    0.79540    0.95550    1.000
    C162     C        0.39120    0.65270    0.97590    1.000
    C163     C        0.41790    0.56440    0.96290    1.000
    H146     H        0.44070    0.50530    0.98270    1.000
    C164     C        0.40940    0.56740    0.91950    1.000
    C165     C        0.37520    0.65390    0.88990    1.000
    H147     H        0.36980    0.65190    0.86090    1.000
    C166     C        0.39880    0.65570    0.02330    1.000
    C167     C        0.43680    0.47000    0.90400    1.000
    C168     C        0.21130    0.81400    0.79090    1.000
    H148     H        0.23550    0.74760    0.80760    1.000
    H149     H        0.18870    0.81110    0.80170    1.000
    H150     H        0.19820    0.78420    0.76110    1.000
    Sm7      Sm       0.00381    0.14245    0.38103    1.000
    O49      O        0.06850    0.08650    0.44906    1.000
    O50      O        0.13090    0.22890    0.46950    1.000
    O51      O        0.02980    0.90140    0.56839    1.000
    O52      O        0.07050    0.97100    0.63444    1.000
    O53      O        0.45320    0.18240    0.82786    1.000
    O54      O        0.46890    0.38290    0.80034    1.000
    O55      O        0.43880    0.29530    0.63940    1.000
    O56      O        0.36840    0.22960    0.59960    1.000
    H151     H        0.37350    0.26360    0.57990    1.000
    N13      N        0.33060    0.91800    0.70000    1.000
    H152     H        0.31760    0.87820    0.67480    1.000
    N14      N        0.18330    0.34010    0.62470    1.000
    H153     H        0.19990    0.38600    0.61490    1.000
    C169     C        0.40280    0.24810    0.63560    1.000
    C170     C        0.39730    0.19200    0.67550    1.000
    C171     C        0.42450    0.25210    0.71540    1.000
    H154     H        0.44500    0.32740    0.71820    1.000
    C172     C        0.42020    0.19610    0.75110    1.000
    C173     C        0.38930    0.08720    0.74710    1.000
    H155     H        0.38680    0.05260    0.77160    1.000
    C174     C        0.36120    0.02720    0.70570    1.000
    C175     C        0.36480    0.08780    0.67020    1.000
    H156     H        0.34510    0.05770    0.64250    1.000
    C176     C        0.44960    0.25890    0.79600    1.000
    C177     C        0.31800    0.86250    0.73350    1.000
    H157     H        0.34480    0.82770    0.75810    1.000
    H158     H        0.30510    0.94300    0.74340    1.000
    C178     C        0.28420    0.73680    0.71680    1.000
    C179     C        0.23770    0.76720    0.69510    1.000
    C180     C        0.20800    0.64330    0.68020    1.000
    C181     C        0.22420    0.49990    0.68590    1.000
    C182     C        0.27050    0.47030    0.70520    1.000
    C183     C        0.30050    0.58830    0.72100    1.000
    C184     C        0.22060    0.92460    0.68890    1.000
    H159     H        0.21240    0.95490    0.65950    1.000
    H160     H        0.19460    0.93050    0.69480    1.000
    H161     H        0.24380    0.98900    0.70830    1.000
    C185     C        0.15750    0.67500    0.65810    1.000
    H162     H        0.14510    0.66480    0.67870    1.000
    H163     H        0.15260    0.77450    0.64680    1.000
    H164     H        0.14300    0.60590    0.63480    1.000
    C186     C        0.35170    0.55600    0.74090    1.000
    H165     H        0.36800    0.64780    0.74530    1.000
    H166     H        0.36060    0.50630    0.76820    1.000
    H167     H        0.35830    0.49370    0.72160    1.000
    C187     C        0.19110    0.36950    0.66850    1.000
    H168     H        0.16280    0.39410    0.66970    1.000
    H169     H        0.20360    0.28210    0.68630    1.000
    C188     C        0.15140    0.24460    0.59720    1.000
    C189     C        0.14360    0.23990    0.55380    1.000
    H170     H        0.16170    0.29540    0.54450    1.000
    C190     C        0.10880    0.15270    0.52410    1.000
    C191     C        0.08210    0.06440    0.53710    1.000
    H171     H        0.05930    0.00530    0.51730    1.000
    C192     C        0.09060    0.06740    0.58050    1.000
    C193     C        0.12480    0.15390    0.61010    1.000
    H172     H        0.13020    0.15190    0.63910    1.000
    C194     C        0.10120    0.15570    0.47670    1.000
    C195     C        0.06320    0.97000    0.59600    1.000
    C196     C        0.28870    0.31400    0.70910    1.000
    H173     H        0.26450    0.24760    0.69240    1.000
    H174     H        0.31130    0.31110    0.69830    1.000
    H175     H        0.30180    0.28420    0.73890    1.000
    Sm8      Sm       0.50381    0.64245    0.38103    1.000
    O57      O        0.56850    0.58650    0.44906    1.000
    O58      O        0.63090    0.72890    0.46950    1.000
    O59      O        0.52980    0.40140    0.56839    1.000
    O60      O        0.57050    0.47100    0.63444    1.000
    O61      O        0.95320    0.68240    0.82786    1.000
    O62      O        0.96890    0.88290    0.80034    1.000
    O63      O        0.93880    0.79530    0.63940    1.000
    O64      O        0.86840    0.72960    0.59960    1.000
    H176     H        0.87350    0.76360    0.57990    1.000
    N15      N        0.83060    0.41800    0.70000    1.000
    H177     H        0.81760    0.37820    0.67480    1.000
    N16      N        0.68330    0.84010    0.62470    1.000
    H178     H        0.69990    0.88600    0.61490    1.000
    C197     C        0.90280    0.74810    0.63560    1.000
    C198     C        0.89730    0.69200    0.67550    1.000
    C199     C        0.92450    0.75210    0.71540    1.000
    H179     H        0.94500    0.82740    0.71820    1.000
    C200     C        0.92020    0.69610    0.75110    1.000
    C201     C        0.88930    0.58720    0.74710    1.000
    H180     H        0.88680    0.55260    0.77160    1.000
    C202     C        0.86120    0.52720    0.70570    1.000
    C203     C        0.86480    0.58780    0.67020    1.000
    H181     H        0.84510    0.55770    0.64250    1.000
    C204     C        0.94960    0.75890    0.79600    1.000
    C205     C        0.81800    0.36250    0.73350    1.000
    H182     H        0.84480    0.32770    0.75810    1.000
    H183     H        0.80510    0.44300    0.74340    1.000
    C206     C        0.78420    0.23680    0.71680    1.000
    C207     C        0.73770    0.26720    0.69510    1.000
    C208     C        0.70800    0.14330    0.68020    1.000
    C209     C        0.72420    0.99990    0.68590    1.000
    C210     C        0.77050    0.97030    0.70520    1.000
    C211     C        0.80050    0.08830    0.72100    1.000
    C212     C        0.72060    0.42460    0.68890    1.000
    H184     H        0.71240    0.45490    0.65950    1.000
    H185     H        0.69460    0.43050    0.69480    1.000
    H186     H        0.74380    0.48900    0.70830    1.000
    C213     C        0.65750    0.17500    0.65810    1.000
    H187     H        0.64510    0.16480    0.67870    1.000
    H188     H        0.65260    0.27450    0.64680    1.000
    H189     H        0.64300    0.10590    0.63480    1.000
    C214     C        0.85170    0.05600    0.74090    1.000
    H190     H        0.86800    0.14780    0.74530    1.000
    H191     H        0.86060    0.00630    0.76820    1.000
    H192     H        0.85830    0.99370    0.72160    1.000
    C215     C        0.69110    0.86950    0.66850    1.000
    H193     H        0.66280    0.89410    0.66970    1.000
    H194     H        0.70360    0.78210    0.68630    1.000
    C216     C        0.65140    0.74460    0.59720    1.000
    C217     C        0.64360    0.73990    0.55380    1.000
    H195     H        0.66170    0.79540    0.54450    1.000
    C218     C        0.60880    0.65270    0.52410    1.000
    C219     C        0.58210    0.56440    0.53710    1.000
    H196     H        0.55930    0.50530    0.51730    1.000
    C220     C        0.59060    0.56740    0.58050    1.000
    C221     C        0.62480    0.65390    0.61010    1.000
    H197     H        0.63020    0.65190    0.63910    1.000
    C222     C        0.60120    0.65570    0.47670    1.000
    C223     C        0.56320    0.47000    0.59600    1.000
    C224     C        0.78870    0.81400    0.70910    1.000
    H198     H        0.76450    0.74760    0.69240    1.000
    H199     H        0.81130    0.81110    0.69830    1.000
    H200     H        0.80180    0.78420    0.73890    1.000
