data_functionalizedCrystal
_audit_creation_method	'EQeq! by Chris Wilmer'
_symmetry_space_group_name_H-M	'P1'
_symmetry_Int_Tables_number	1
_symmetry_cell_setting	triclinic
loop_
_symmetry_equiv_pos_as_xyz
  x,y,z
_cell_length_a	9.113
_cell_length_b	15.904
_cell_length_c	16.014
_cell_angle_alpha	73.488
_cell_angle_beta	74.016
_cell_angle_gamma	76.264
loop_
_atom_site_label
_atom_site_type_symbol
_atom_site_fract_x
_atom_site_fract_y
_atom_site_fract_z
_atom_site_charge
Mof_N 	N 	0.7894	0.8298	0.4879	-0.099
Mof_N 	N 	0.7194	0.9178	0.4729	-0.199
Mof_N 	N 	0.9741	0.9159	0.4143	-0.12
Mof_N 	N 	0.6466	0.0958	0.4335	-0.216
Mof_N 	N 	0.3078	0.6114	0.4757	-0.245
Mof_N 	N 	0.1812	0.018	0.135	-0.174
Mof_N 	N 	0.1686	0.9893	0.0656	-0.167
Mof_N 	N 	0.3948	0.918	0.0979	-0.124
Mof_N 	N 	0.191	0.9141	0.934	-0.222
Mof_N 	N 	0.4619	0.9968	0.3736	-0.191
Mof_N 	N 	0.7185	0.6328	0.3566	-0.097
Mof_N 	N 	0.637	0.5638	0.3841	-0.203
Mof_N 	N 	0.6742	0.6054	0.2359	-0.13
Mof_N 	N 	0.4536	0.4476	0.4016	-0.23
Mof_N 	N 	0.9247	0.8809	0.0958	-0.216
Mof_C 	C 	0.6093	0.1852	0.4156	0.037
Mof_H 	H 	0.5062	0.2104	0.4337	0.007
Mof_C 	C 	0.7123	0.2404	0.373	-0.067
Mof_H 	H 	0.6796	0.3018	0.3618	0.057
Mof_C 	C 	0.8647	0.2057	0.3466	-0.059
Mof_H 	H 	0.9381	0.2423	0.3167	0.057
Mof_C 	C 	0.9061	0.1137	0.366	0.046
Mof_H 	H 	0.0094	0.0876	0.3503	-0.017
Mof_C 	C 	0.797	0.0618	0.4077	-0.073
Mof_C 	C 	0.8321	0.9643	0.43	0.17
Mof_C 	C 	0.9397	0.8332	0.4514	0.094
Mof_C 	C 	0.163	0.6005	0.5029	0.126
Mof_H 	H 	0.1424	0.5432	0.5299	-0.029
Mof_C 	C 	0.0386	0.6695	0.4937	-0.225
Mof_H 	H 	0.9379	0.6578	0.5133	0.131
Mof_C 	C 	0.0643	0.7544	0.4559	0.079
Mof_C 	C 	0.2155	0.766	0.4247	-0.161
Mof_H 	H 	0.2397	0.8223	0.3962	0.098
Mof_C 	C 	0.3313	0.6932	0.4361	0.1
Mof_H 	H 	0.4333	0.7025	0.4143	-0.01
Mof_C 	C 	0.201	0.8805	0.8651	0.134
Mof_H 	H 	0.1159	0.8959	0.839	-0.009
Mof_C 	C 	0.3234	0.8265	0.8309	-0.187
Mof_H 	H 	0.3232	0.8053	0.7825	0.103
Mof_C 	C 	0.4511	0.8023	0.8682	0.111
Mof_H 	H 	0.5389	0.7647	0.8455	-0.004
Mof_C 	C 	0.4448	0.8359	0.9414	-0.174
Mof_H 	H 	0.5285	0.8207	0.9686	0.122
Mof_C 	C 	0.3156	0.8907	0.9719	0.15
Mof_C 	C 	0.2973	0.9312	0.0452	0.012
Mof_C 	C 	0.3189	0.9728	0.1517	0.12
Mof_C 	C 	0.5233	0.9286	0.3355	0.124
Mof_H 	H 	0.5971	0.8845	0.3601	-0.014
Mof_C 	C 	0.4849	0.9194	0.2624	-0.183
Mof_H 	H 	0.5325	0.8705	0.238	0.105
Mof_C 	C 	0.3741	0.9837	0.2251	0.164
Mof_C 	C 	0.3146	0.0557	0.2613	-0.24
Mof_H 	H 	0.2435	0.1013	0.2361	0.099
Mof_C 	C 	0.3584	0.0618	0.3349	0.037
Mof_H 	H 	0.3159	0.1116	0.3585	-0.001
Mof_C 	C 	0.3625	0.3882	0.4139	0.076
Mof_H 	H 	0.3155	0.3622	0.472	-0.006
Mof_C 	C 	0.3359	0.3641	0.3449	-0.142
Mof_H 	H 	0.2721	0.3226	0.3556	0.073
Mof_C 	C 	0.4059	0.4028	0.2583	0.047
Mof_H 	H 	0.3906	0.3872	0.2099	0.002
Mof_C 	C 	0.4981	0.4642	0.2451	-0.123
Mof_H 	H 	0.5454	0.4911	0.1874	0.071
Mof_C 	C 	0.52	0.4857	0.317	0.05
Mof_C 	C 	0.6134	0.5504	0.3101	0.067
Mof_C 	C 	0.7374	0.6546	0.2689	0.084
Mof_C 	C 	0.9263	0.857	0.1827	0.086
Mof_H 	H 	0.9688	0.8916	0.2048	0.02
Mof_C 	C 	0.8686	0.784	0.2416	-0.139
Mof_H 	H 	0.8713	0.7709	0.3016	0.093
Mof_C 	C 	0.8072	0.7311	0.2106	0.067
Mof_C 	C 	0.8054	0.7556	0.1207	-0.145
Mof_H 	H 	0.7634	0.7224	0.0968	0.081
Mof_C 	C 	0.8655	0.8286	0.0675	0.089
Mof_H 	H 	0.8649	0.8426	0.0071	-0.016
Mof_N 	N 	0.2106	0.1702	0.5121	-0.1
Mof_N 	N 	0.2806	0.0822	0.5271	-0.191
Mof_N 	N 	0.0259	0.0841	0.5857	-0.13
Mof_N 	N 	0.3534	0.9042	0.5665	-0.251
Mof_N 	N 	0.6922	0.3886	0.5243	-0.23
Mof_N 	N 	0.8188	0.982	0.865	-0.031
Mof_N 	N 	0.8314	0.0107	0.9344	-0.225
Mof_N 	N 	0.6052	0.082	0.9021	-0.128
Mof_N 	N 	0.809	0.0859	0.066	-0.225
Mof_N 	N 	0.5381	0.0032	0.6264	-0.268
Mof_N 	N 	0.2815	0.3672	0.6434	-0.1
Mof_N 	N 	0.363	0.4362	0.6159	-0.203
Mof_N 	N 	0.3258	0.3946	0.7641	-0.124
Mof_N 	N 	0.5464	0.5524	0.5984	-0.231
Mof_N 	N 	0.0753	0.1191	0.9042	-0.232
Mof_C 	C 	0.3907	0.8148	0.5844	0.137
Mof_H 	H 	0.4938	0.7896	0.5663	-0.022
Mof_C 	C 	0.2877	0.7596	0.627	-0.234
Mof_H 	H 	0.3204	0.6982	0.6382	0.114
Mof_C 	C 	0.1353	0.7943	0.6534	0.177
Mof_H 	H 	0.0619	0.7577	0.6833	-0.039
Mof_C 	C 	0.0939	0.8863	0.634	-0.29
Mof_H 	H 	0.9906	0.9124	0.6497	0.173
Mof_C 	C 	0.203	0.9382	0.5923	0.199
Mof_C 	C 	0.1679	0.0357	0.57	-0.034
Mof_C 	C 	0.0603	0.1668	0.5486	0.053
Mof_C 	C 	0.837	0.3995	0.4971	0.065
Mof_H 	H 	0.8576	0.4568	0.4701	0.005
Mof_C 	C 	0.9614	0.3305	0.5063	-0.082
Mof_H 	H 	0.0621	0.3422	0.4867	0.042
Mof_C 	C 	0.9357	0.2456	0.5441	0.085
Mof_C 	C 	0.7845	0.234	0.5753	-0.148
Mof_H 	H 	0.7603	0.1777	0.6038	0.096
Mof_C 	C 	0.6687	0.3068	0.5639	0.093
Mof_H 	H 	0.5667	0.2975	0.5857	-0.007
Mof_C 	C 	0.799	0.1195	0.1349	0.073
Mof_H 	H 	0.8841	0.1041	0.161	-0.007
Mof_C 	C 	0.6766	0.1735	0.1691	-0.132
Mof_H 	H 	0.6768	0.1947	0.2175	0.076
Mof_C 	C 	0.5489	0.1977	0.1318	0.016
Mof_H 	H 	0.4611	0.2353	0.1545	0.014
Mof_C 	C 	0.5552	0.1641	0.0586	-0.076
Mof_H 	H 	0.4715	0.1793	0.0314	0.038
Mof_C 	C 	0.6844	0.1093	0.0281	-0.032
Mof_C 	C 	0.7027	0.0688	0.9548	0.143
Mof_C 	C 	0.6811	0.0272	0.8483	0.054
Mof_C 	C 	0.4767	0.0714	0.6645	0.057
Mof_H 	H 	0.4029	0.1155	0.6399	-0
Mof_C 	C 	0.5151	0.0806	0.7376	-0.116
Mof_H 	H 	0.4675	0.1295	0.762	0.083
Mof_C 	C 	0.6259	0.0163	0.7749	-0.013
Mof_C 	C 	0.6854	0.9443	0.7387	-0.043
Mof_H 	H 	0.7565	0.8987	0.7639	0.064
Mof_C 	C 	0.6416	0.9382	0.6651	0.109
Mof_H 	H 	0.6841	0.8884	0.6415	-0.007
Mof_C 	C 	0.6375	0.6118	0.5861	0.081
Mof_H 	H 	0.6845	0.6378	0.528	-0.005
Mof_C 	C 	0.6641	0.6359	0.6551	-0.141
Mof_H 	H 	0.7279	0.6774	0.6444	0.085
Mof_C 	C 	0.5941	0.5972	0.7417	0.056
Mof_H 	H 	0.6094	0.6128	0.7901	0.018
Mof_C 	C 	0.5019	0.5358	0.7549	-0.123
Mof_H 	H 	0.4546	0.5089	0.8126	0.087
Mof_C 	C 	0.48	0.5143	0.683	0.055
Mof_C 	C 	0.3866	0.4496	0.6899	0.067
Mof_C 	C 	0.2626	0.3454	0.7311	0.082
Mof_C 	C 	0.0737	0.143	0.8173	0.086
Mof_H 	H 	0.0312	0.1084	0.7952	-0.017
Mof_C 	C 	0.1314	0.216	0.7584	-0.149
Mof_H 	H 	0.1287	0.2291	0.6984	0.087
Mof_C 	C 	0.1928	0.2689	0.7894	0.07
Mof_C 	C 	0.1946	0.2444	0.8793	-0.145
Mof_H 	H 	0.2366	0.2776	0.9032	0.098
Mof_C 	C 	0.1345	0.1714	0.9325	0.089
Mof_H 	H 	0.1351	0.1574	0.9929	0.003
Mof_Ni	Ni	0.5	-1.34888e-17	0.5	1.026
Mof_Ni	Ni	0.5	0.5	0.5	1.055
Mof_Ni	Ni	-0	0	-0	0.988
_end
