data_functionalizedCrystal
_audit_creation_method	'EQeq! by Chris Wilmer'
_symmetry_space_group_name_H-M	'P1'
_symmetry_Int_Tables_number	1
_symmetry_cell_setting	triclinic
loop_
_symmetry_equiv_pos_as_xyz
  x,y,z
_cell_length_a	12.7559
_cell_length_b	12.7559
_cell_length_c	17.741
_cell_angle_alpha	90
_cell_angle_beta	90
_cell_angle_gamma	120
loop_
_atom_site_label
_atom_site_type_symbol
_atom_site_fract_x
_atom_site_fract_y
_atom_site_fract_z
_atom_site_charge
Mof_O 	O 	0.9402	0.349	0.0842	-0.297
Mof_O 	O 	0.8201	0.3873	0.1545	-0.421
Mof_C 	C 	0.8726	0.33	0.1398	0.392
Mof_C 	C 	0.824	0.202	0.1775	-0.12
Mof_H 	H 	0.7591	0.1386	0.1483	0.076
Mof_H 	H 	0.8882	0.1831	0.1841	0.074
Mof_C 	C 	0.898	0.278	0.2082	-0.072
Mof_H 	H 	0.9208	0.2181	0.1942	0.013
Mof_H 	H 	0.9622	0.3403	0.2382	0.061
Mof_O 	O 	0.651	0.5912	0.0842	-0.31
Mof_O 	O 	0.6127	0.4328	0.1545	-0.426
Mof_C 	C 	0.67	0.5426	0.1398	0.396
Mof_C 	C 	0.798	0.622	0.1775	-0.094
Mof_H 	H 	0.8614	0.6205	0.1483	0.083
Mof_H 	H 	0.8169	0.7051	0.1841	0.05
Mof_C 	C 	0.722	0.62	0.2082	-0.098
Mof_H 	H 	0.7819	0.7027	0.1942	0.04
Mof_H 	H 	0.6597	0.6219	0.2382	0.048
Mof_O 	O 	0.4088	0.0598	0.0842	-0.321
Mof_O 	O 	0.5672	0.1799	0.1545	-0.428
Mof_C 	C 	0.4574	0.1274	0.1398	0.388
Mof_C 	C 	0.378	0.176	0.1775	-0.085
Mof_H 	H 	0.3795	0.2409	0.1483	0.069
Mof_H 	H 	0.2949	0.1118	0.1841	0.033
Mof_C 	C 	0.38	0.102	0.2082	-0.092
Mof_H 	H 	0.2973	0.0792	0.1942	0.037
Mof_H 	H 	0.3781	0.0378	0.2382	0.026
Mof_O 	O 	0.0598	0.651	0.0842	-0.318
Mof_O 	O 	0.1799	0.6127	0.1545	-0.428
Mof_C 	C 	0.1274	0.67	0.1398	0.391
Mof_C 	C 	0.176	0.798	0.1775	-0.079
Mof_H 	H 	0.2409	0.8614	0.1483	0.077
Mof_H 	H 	0.1118	0.8169	0.1841	0.031
Mof_C 	C 	0.102	0.722	0.2082	-0.103
Mof_H 	H 	0.0792	0.7819	0.1942	0.047
Mof_H 	H 	0.0378	0.6597	0.2382	0.029
Mof_O 	O 	0.349	0.4088	0.0842	-0.315
Mof_O 	O 	0.3873	0.5672	0.1545	-0.425
Mof_C 	C 	0.33	0.4574	0.1398	0.391
Mof_C 	C 	0.202	0.378	0.1775	-0.105
Mof_H 	H 	0.1386	0.3795	0.1483	0.069
Mof_H 	H 	0.1831	0.2949	0.1841	0.055
Mof_C 	C 	0.278	0.38	0.2082	-0.077
Mof_H 	H 	0.2181	0.2973	0.1942	0.02
Mof_H 	H 	0.3403	0.3781	0.2382	0.042
Mof_O 	O 	0.5912	0.9402	0.0842	-0.294
Mof_O 	O 	0.4328	0.8201	0.1545	-0.421
Mof_C 	C 	0.5426	0.8726	0.1398	0.395
Mof_C 	C 	0.622	0.824	0.1775	-0.114
Mof_H 	H 	0.6205	0.7591	0.1483	0.082
Mof_H 	H 	0.7051	0.8882	0.1841	0.072
Mof_C 	C 	0.62	0.898	0.2082	-0.082
Mof_H 	H 	0.7027	0.9208	0.1942	0.023
Mof_H 	H 	0.6219	0.9622	0.2382	0.064
Mof_O 	O 	0.349	0.9402	0.4158	-0.286
Mof_O 	O 	0.3873	0.8201	0.3455	-0.417
Mof_C 	C 	0.33	0.8726	0.3602	0.393
Mof_C 	C 	0.202	0.824	0.3225	-0.117
Mof_H 	H 	0.1386	0.7591	0.3517	0.079
Mof_H 	H 	0.1831	0.8882	0.3159	0.075
Mof_C 	C 	0.278	0.898	0.2918	-0.075
Mof_H 	H 	0.2181	0.9208	0.3058	0.014
Mof_H 	H 	0.3403	0.9622	0.2618	0.062
Mof_O 	O 	0.5912	0.651	0.4158	-0.299
Mof_O 	O 	0.4328	0.6127	0.3455	-0.423
Mof_C 	C 	0.5426	0.67	0.3602	0.396
Mof_C 	C 	0.622	0.798	0.3225	-0.092
Mof_H 	H 	0.6205	0.8614	0.3517	0.086
Mof_H 	H 	0.7051	0.8169	0.3159	0.051
Mof_C 	C 	0.62	0.722	0.2918	-0.101
Mof_H 	H 	0.7027	0.7819	0.3058	0.041
Mof_H 	H 	0.6219	0.6597	0.2618	0.049
Mof_O 	O 	0.0598	0.4088	0.4158	-0.31
Mof_O 	O 	0.1799	0.5672	0.3455	-0.424
Mof_C 	C 	0.1274	0.4574	0.3602	0.389
Mof_C 	C 	0.176	0.378	0.3225	-0.082
Mof_H 	H 	0.2409	0.3795	0.3517	0.072
Mof_H 	H 	0.1118	0.2949	0.3159	0.034
Mof_C 	C 	0.102	0.38	0.2918	-0.095
Mof_H 	H 	0.0792	0.2973	0.3058	0.039
Mof_H 	H 	0.0378	0.3781	0.2618	0.027
Mof_O 	O 	0.651	0.0598	0.4158	-0.308
Mof_O 	O 	0.6127	0.1799	0.3455	-0.425
Mof_C 	C 	0.67	0.1274	0.3602	0.391
Mof_C 	C 	0.798	0.176	0.3225	-0.076
Mof_H 	H 	0.8614	0.2409	0.3517	0.08
Mof_H 	H 	0.8169	0.1118	0.3159	0.032
Mof_C 	C 	0.722	0.102	0.2918	-0.106
Mof_H 	H 	0.7819	0.0792	0.3058	0.048
Mof_H 	H 	0.6597	0.0378	0.2618	0.03
Mof_O 	O 	0.4088	0.349	0.4158	-0.304
Mof_O 	O 	0.5672	0.3873	0.3455	-0.422
Mof_C 	C 	0.4574	0.33	0.3602	0.391
Mof_C 	C 	0.378	0.202	0.3225	-0.103
Mof_H 	H 	0.3795	0.1386	0.3517	0.072
Mof_H 	H 	0.2949	0.1831	0.3159	0.056
Mof_C 	C 	0.38	0.278	0.2918	-0.08
Mof_H 	H 	0.2973	0.2181	0.3058	0.022
Mof_H 	H 	0.3781	0.3403	0.2618	0.043
Mof_O 	O 	0.9402	0.5912	0.4158	-0.284
Mof_O 	O 	0.8201	0.4328	0.3455	-0.418
Mof_C 	C 	0.8726	0.5426	0.3602	0.396
Mof_C 	C 	0.824	0.622	0.3225	-0.111
Mof_H 	H 	0.7591	0.6205	0.3517	0.085
Mof_H 	H 	0.8882	0.7051	0.3159	0.073
Mof_C 	C 	0.898	0.62	0.2918	-0.085
Mof_H 	H 	0.9208	0.7027	0.3058	0.024
Mof_H 	H 	0.9622	0.6219	0.2618	0.065
Mof_O 	O 	0.0598	0.651	0.9158	-0.275
Mof_O 	O 	0.1799	0.6127	0.8455	-0.414
Mof_C 	C 	0.1274	0.67	0.8602	0.387
Mof_C 	C 	0.176	0.798	0.8225	-0.072
Mof_H 	H 	0.2409	0.8614	0.8517	0.085
Mof_H 	H 	0.1118	0.8169	0.8159	0.032
Mof_C 	C 	0.102	0.722	0.7918	-0.108
Mof_H 	H 	0.0792	0.7819	0.8058	0.051
Mof_H 	H 	0.0378	0.6597	0.7618	0.031
Mof_O 	O 	0.349	0.4088	0.9158	-0.271
Mof_O 	O 	0.3873	0.5672	0.8455	-0.412
Mof_C 	C 	0.33	0.4574	0.8602	0.387
Mof_C 	C 	0.202	0.378	0.8225	-0.097
Mof_H 	H 	0.1386	0.3795	0.8517	0.078
Mof_H 	H 	0.1831	0.2949	0.8159	0.056
Mof_C 	C 	0.278	0.38	0.7918	-0.083
Mof_H 	H 	0.2181	0.2973	0.8058	0.025
Mof_H 	H 	0.3403	0.3781	0.7618	0.044
Mof_O 	O 	0.5912	0.9402	0.9158	-0.252
Mof_O 	O 	0.4328	0.8201	0.8455	-0.408
Mof_C 	C 	0.5426	0.8726	0.8602	0.392
Mof_C 	C 	0.622	0.824	0.8225	-0.106
Mof_H 	H 	0.6205	0.7591	0.8517	0.09
Mof_H 	H 	0.7051	0.8882	0.8159	0.072
Mof_C 	C 	0.62	0.898	0.7918	-0.087
Mof_H 	H 	0.7027	0.9208	0.8058	0.027
Mof_H 	H 	0.6219	0.9622	0.7618	0.066
Mof_O 	O 	0.9402	0.349	0.9158	-0.254
Mof_O 	O 	0.8201	0.3873	0.8455	-0.407
Mof_C 	C 	0.8726	0.33	0.8602	0.389
Mof_C 	C 	0.824	0.202	0.8225	-0.112
Mof_H 	H 	0.7591	0.1386	0.8517	0.084
Mof_H 	H 	0.8882	0.1831	0.8159	0.074
Mof_C 	C 	0.898	0.278	0.7918	-0.077
Mof_H 	H 	0.9208	0.2181	0.8058	0.018
Mof_H 	H 	0.9622	0.3403	0.7618	0.063
Mof_O 	O 	0.651	0.5912	0.9158	-0.267
Mof_O 	O 	0.6127	0.4328	0.8455	-0.413
Mof_C 	C 	0.67	0.5426	0.8602	0.392
Mof_C 	C 	0.798	0.622	0.8225	-0.087
Mof_H 	H 	0.8614	0.6205	0.8517	0.091
Mof_H 	H 	0.8169	0.7051	0.8159	0.051
Mof_C 	C 	0.722	0.62	0.7918	-0.103
Mof_H 	H 	0.7819	0.7027	0.8058	0.044
Mof_H 	H 	0.6597	0.6219	0.7618	0.05
Mof_O 	O 	0.4088	0.0598	0.9158	-0.278
Mof_O 	O 	0.5672	0.1799	0.8455	-0.414
Mof_C 	C 	0.4574	0.1274	0.8602	0.385
Mof_C 	C 	0.378	0.176	0.8225	-0.077
Mof_H 	H 	0.3795	0.2409	0.8517	0.078
Mof_H 	H 	0.2949	0.1118	0.8159	0.034
Mof_C 	C 	0.38	0.102	0.7918	-0.097
Mof_H 	H 	0.2973	0.0792	0.8058	0.042
Mof_H 	H 	0.3781	0.0378	0.7618	0.028
Mof_O 	O 	0.651	0.0598	0.5842	-0.308
Mof_O 	O 	0.6127	0.1799	0.6545	-0.425
Mof_C 	C 	0.67	0.1274	0.6398	0.391
Mof_C 	C 	0.798	0.176	0.6775	-0.076
Mof_H 	H 	0.8614	0.2409	0.6483	0.08
Mof_H 	H 	0.8169	0.1118	0.6841	0.032
Mof_C 	C 	0.722	0.102	0.7082	-0.106
Mof_H 	H 	0.7819	0.0792	0.6942	0.049
Mof_H 	H 	0.6597	0.0378	0.7382	0.03
Mof_O 	O 	0.4088	0.349	0.5842	-0.304
Mof_O 	O 	0.5672	0.3873	0.6545	-0.422
Mof_C 	C 	0.4574	0.33	0.6398	0.391
Mof_C 	C 	0.378	0.202	0.6775	-0.102
Mof_H 	H 	0.3795	0.1386	0.6483	0.072
Mof_H 	H 	0.2949	0.1831	0.6841	0.056
Mof_C 	C 	0.38	0.278	0.7082	-0.08
Mof_H 	H 	0.2973	0.2181	0.6942	0.023
Mof_H 	H 	0.3781	0.3403	0.7382	0.043
Mof_O 	O 	0.9402	0.5912	0.5842	-0.284
Mof_O 	O 	0.8201	0.4328	0.6545	-0.418
Mof_C 	C 	0.8726	0.5426	0.6398	0.395
Mof_C 	C 	0.824	0.622	0.6775	-0.111
Mof_H 	H 	0.7591	0.6205	0.6483	0.085
Mof_H 	H 	0.8882	0.7051	0.6841	0.072
Mof_C 	C 	0.898	0.62	0.7082	-0.085
Mof_H 	H 	0.9208	0.7027	0.6942	0.025
Mof_H 	H 	0.9622	0.6219	0.7382	0.064
Mof_O 	O 	0.349	0.9402	0.5842	-0.286
Mof_O 	O 	0.3873	0.8201	0.6545	-0.418
Mof_C 	C 	0.33	0.8726	0.6398	0.393
Mof_C 	C 	0.202	0.824	0.6775	-0.116
Mof_H 	H 	0.1386	0.7591	0.6483	0.078
Mof_H 	H 	0.1831	0.8882	0.6841	0.074
Mof_C 	C 	0.278	0.898	0.7082	-0.075
Mof_H 	H 	0.2181	0.9208	0.6942	0.016
Mof_H 	H 	0.3403	0.9622	0.7382	0.061
Mof_O 	O 	0.5912	0.651	0.5842	-0.299
Mof_O 	O 	0.4328	0.6127	0.6545	-0.423
Mof_C 	C 	0.5426	0.67	0.6398	0.396
Mof_C 	C 	0.622	0.798	0.6775	-0.091
Mof_H 	H 	0.6205	0.8614	0.6483	0.086
Mof_H 	H 	0.7051	0.8169	0.6841	0.051
Mof_C 	C 	0.62	0.722	0.7082	-0.101
Mof_H 	H 	0.7027	0.7819	0.6942	0.042
Mof_H 	H 	0.6219	0.6597	0.7382	0.049
Mof_O 	O 	0.0598	0.4088	0.5842	-0.31
Mof_O 	O 	0.1799	0.5672	0.6545	-0.425
Mof_C 	C 	0.1274	0.4574	0.6398	0.389
Mof_C 	C 	0.176	0.378	0.6775	-0.082
Mof_H 	H 	0.2409	0.3795	0.6483	0.072
Mof_H 	H 	0.1118	0.2949	0.6841	0.035
Mof_C 	C 	0.102	0.38	0.7082	-0.095
Mof_H 	H 	0.0792	0.2973	0.6942	0.039
Mof_H 	H 	0.0378	0.3781	0.7382	0.027
Mof_Gd	Gd	0.66667	0.33333	0.25	1.843
Mof_Gd	Gd	0.33333	0.66667	0.25	1.843
Mof_Gd	Gd	0.33333	0.66667	0.75	1.845
Mof_Gd	Gd	0.66667	0.33333	0.75	1.845
Mof_Cd	Cd	-0	0.5	-0	0.402
Mof_Cd	Cd	0.5	0.5	-0	0.432
Mof_Cd	Cd	0.5	0	-0	0.402
Mof_Cd	Cd	0.5	1.00976e-32	0.5	0.462
Mof_Cd	Cd	0.5	0.5	0.5	0.492
Mof_Cd	Cd	5.78898e-18	0.5	0.5	0.462
Mof_O 	O 	0.7804	0.2196	0.25	-0.241
Mof_O 	O 	0.7804	0.5608	0.25	-0.238
Mof_O 	O 	0.4392	0.2196	0.25	-0.245
Mof_O 	O 	0.2196	0.7804	0.25	-0.241
Mof_O 	O 	0.2196	0.4392	0.25	-0.245
Mof_O 	O 	0.5608	0.7804	0.25	-0.238
Mof_O 	O 	0.2196	0.7804	0.75	-0.242
Mof_O 	O 	0.2196	0.4392	0.75	-0.245
Mof_O 	O 	0.5608	0.7804	0.75	-0.238
Mof_O 	O 	0.7804	0.2196	0.75	-0.242
Mof_O 	O 	0.7804	0.5608	0.75	-0.238
Mof_O 	O 	0.4392	0.2196	0.75	-0.245
_end
