data_functionalizedCrystal
_audit_creation_method	'EQeq! by Chris Wilmer'
_symmetry_space_group_name_H-M	'P1'
_symmetry_Int_Tables_number	1
_symmetry_cell_setting	triclinic
loop_
_symmetry_equiv_pos_as_xyz
  x,y,z
_cell_length_a	15.123
_cell_length_b	23.0564
_cell_length_c	34.0427
_cell_angle_alpha	90
_cell_angle_beta	90
_cell_angle_gamma	90
loop_
_atom_site_label
_atom_site_type_symbol
_atom_site_fract_x
_atom_site_fract_y
_atom_site_fract_z
_atom_site_charge
Mof_O 	O 	0.6477	0.1908	0.87212	-0.495
Mof_O 	O 	0.5116	0.16877	0.85625	-0.502
Mof_O 	O 	0.3566	0.3077	0.02686	-0.543
Mof_O 	O 	0.4912	0.3344	0.04031	-0.502
Mof_C 	C 	0.4392	0.3071	0.01823	0.336
Mof_C 	C 	0.4698	0.2791	0.982	-0.046
Mof_C 	C 	0.4108	0.2536	0.9559	0.097
Mof_C 	C 	0.5601	0.2771	0.9746	-0.001
Mof_N 	N 	0.3211	0.2477	0.9614	-0.215
Mof_C 	C 	0.4421	0.2262	0.9223	-0.033
Mof_H 	H 	0.6004	0.2945	0.9924	0.033
Mof_C 	C 	0.5914	0.2497	0.941	-0.024
Mof_H 	H 	0.2964	0.2607	0.9831	0.12
Mof_H 	H 	0.2885	0.231	0.9433	0.121
Mof_H 	H 	0.4018	0.2088	0.9044	0.043
Mof_C 	C 	0.5324	0.2242	0.9148	-0.021
Mof_H 	H 	0.6531	0.2483	0.9359	0.042
Mof_C 	C 	0.5655	0.1938	0.87866	0.299
Mof_N 	N 	0.6605	0.4616	0.2269	-0.198
Mof_H 	H 	0.6861	0.4329	0.2142	0.115
Mof_H 	H 	0.6848	0.4755	0.2484	0.106
Mof_C 	C 	0.5493	0.4597	0.1786	-0.057
Mof_H 	H 	0.585	0.433	0.1645	0.057
Mof_C 	C 	0.5812	0.4852	0.2128	0.046
Mof_C 	C 	0.529	0.5243	0.2335	-0.053
Mof_C 	C 	0.4448	0.5379	0.22	0.001
Mof_H 	H 	0.4091	0.5647	0.2341	0.022
Mof_C 	C 	0.4129	0.5125	0.1858	-0.018
Mof_H 	H 	0.3553	0.5218	0.1765	0.029
Mof_O 	O 	0.6477	0.6908	0.37212	-0.495
Mof_O 	O 	0.5116	0.66877	0.35625	-0.502
Mof_O 	O 	0.3566	0.8077	0.52686	-0.543
Mof_O 	O 	0.4912	0.8344	0.54031	-0.502
Mof_C 	C 	0.4392	0.8071	0.51823	0.336
Mof_C 	C 	0.4698	0.7791	0.482	-0.046
Mof_C 	C 	0.4108	0.7536	0.4559	0.097
Mof_C 	C 	0.5601	0.7771	0.4746	-0.001
Mof_N 	N 	0.3211	0.7477	0.4614	-0.215
Mof_C 	C 	0.4421	0.7262	0.4223	-0.033
Mof_H 	H 	0.6004	0.7945	0.4924	0.033
Mof_C 	C 	0.5914	0.7497	0.441	-0.024
Mof_H 	H 	0.2964	0.7607	0.4831	0.12
Mof_H 	H 	0.2885	0.731	0.4433	0.121
Mof_H 	H 	0.4018	0.7088	0.4044	0.043
Mof_C 	C 	0.5324	0.7242	0.4148	-0.021
Mof_H 	H 	0.6531	0.7483	0.4359	0.042
Mof_C 	C 	0.5655	0.6938	0.37866	0.299
Mof_N 	N 	0.6605	0.9616	0.7269	-0.198
Mof_H 	H 	0.6861	0.9329	0.7142	0.115
Mof_H 	H 	0.6848	0.9755	0.7484	0.106
Mof_C 	C 	0.5493	0.9597	0.6786	-0.057
Mof_H 	H 	0.585	0.933	0.6645	0.057
Mof_C 	C 	0.5812	0.9852	0.7128	0.046
Mof_C 	C 	0.529	0.0243	0.7335	-0.053
Mof_C 	C 	0.4448	0.0379	0.72	0.001
Mof_H 	H 	0.4091	0.0647	0.7341	0.022
Mof_C 	C 	0.4129	0.0125	0.6858	-0.018
Mof_H 	H 	0.3553	0.0218	0.6765	0.03
Mof_O 	O 	0.1477	0.1908	0.37212	-0.495
Mof_O 	O 	0.0116	0.16877	0.35625	-0.502
Mof_O 	O 	0.8566	0.3077	0.52686	-0.544
Mof_O 	O 	0.9912	0.3344	0.54031	-0.503
Mof_C 	C 	0.9392	0.3071	0.51823	0.335
Mof_C 	C 	0.9698	0.2791	0.482	-0.047
Mof_C 	C 	0.9108	0.2536	0.4559	0.096
Mof_C 	C 	0.0601	0.2771	0.4746	-0.002
Mof_N 	N 	0.8211	0.2477	0.4614	-0.216
Mof_C 	C 	0.9421	0.2262	0.4223	-0.034
Mof_H 	H 	0.1004	0.2945	0.4924	0.032
Mof_C 	C 	0.0914	0.2497	0.441	-0.025
Mof_H 	H 	0.7964	0.2607	0.4831	0.119
Mof_H 	H 	0.7885	0.231	0.4433	0.12
Mof_H 	H 	0.9018	0.2088	0.4044	0.042
Mof_C 	C 	0.0324	0.2242	0.4148	-0.022
Mof_H 	H 	0.1531	0.2483	0.4359	0.041
Mof_C 	C 	0.0655	0.1938	0.37866	0.298
Mof_N 	N 	0.1605	0.4616	0.7269	-0.199
Mof_H 	H 	0.1861	0.4329	0.7142	0.114
Mof_H 	H 	0.1848	0.4755	0.7484	0.105
Mof_C 	C 	0.0493	0.4597	0.6786	-0.058
Mof_H 	H 	0.085	0.433	0.6645	0.056
Mof_C 	C 	0.0812	0.4852	0.7128	0.045
Mof_C 	C 	0.029	0.5243	0.7335	-0.054
Mof_C 	C 	0.9448	0.5379	0.72	-0
Mof_H 	H 	0.9091	0.5647	0.7341	0.021
Mof_C 	C 	0.9129	0.5125	0.6858	-0.019
Mof_H 	H 	0.8553	0.5218	0.6765	0.028
Mof_O 	O 	0.1477	0.6908	0.87212	-0.496
Mof_O 	O 	0.0116	0.66877	0.85625	-0.503
Mof_O 	O 	0.8566	0.8077	0.02686	-0.544
Mof_O 	O 	0.9912	0.8344	0.04031	-0.503
Mof_C 	C 	0.9392	0.8071	0.01823	0.335
Mof_C 	C 	0.9698	0.7791	0.982	-0.047
Mof_C 	C 	0.9108	0.7536	0.9559	0.096
Mof_C 	C 	0.0601	0.7771	0.9746	-0.002
Mof_N 	N 	0.8211	0.7477	0.9614	-0.216
Mof_C 	C 	0.9421	0.7262	0.9223	-0.034
Mof_H 	H 	0.1004	0.7945	0.9924	0.032
Mof_C 	C 	0.0914	0.7497	0.941	-0.025
Mof_H 	H 	0.7964	0.7607	0.9831	0.119
Mof_H 	H 	0.7885	0.731	0.9433	0.12
Mof_H 	H 	0.9018	0.7088	0.9044	0.042
Mof_C 	C 	0.0324	0.7242	0.9148	-0.022
Mof_H 	H 	0.1531	0.7483	0.9359	0.041
Mof_C 	C 	0.0655	0.6938	0.87866	0.298
Mof_N 	N 	0.1605	0.9616	0.2269	-0.199
Mof_H 	H 	0.1861	0.9329	0.2142	0.114
Mof_H 	H 	0.1848	0.9755	0.2484	0.105
Mof_C 	C 	0.0493	0.9597	0.1786	-0.058
Mof_H 	H 	0.085	0.933	0.1645	0.056
Mof_C 	C 	0.0812	0.9852	0.2128	0.045
Mof_C 	C 	0.029	0.0243	0.2335	-0.054
Mof_C 	C 	0.9448	0.0379	0.22	-0
Mof_H 	H 	0.9091	0.0647	0.2341	0.021
Mof_C 	C 	0.9129	0.0125	0.1858	-0.019
Mof_H 	H 	0.8553	0.0218	0.1765	0.028
Mof_O 	O 	0.1023	0.5592	0.87212	-0.496
Mof_O 	O 	0.2384	0.58123	0.85625	-0.503
Mof_O 	O 	0.3934	0.4423	0.02686	-0.544
Mof_O 	O 	0.2588	0.4156	0.04031	-0.503
Mof_C 	C 	0.3108	0.4429	0.01823	0.335
Mof_C 	C 	0.2802	0.4709	0.982	-0.047
Mof_C 	C 	0.3392	0.4964	0.9559	0.096
Mof_C 	C 	0.1899	0.4729	0.9746	-0.002
Mof_N 	N 	0.4289	0.5023	0.9614	-0.216
Mof_C 	C 	0.3079	0.5238	0.9223	-0.034
Mof_H 	H 	0.1496	0.4555	0.9924	0.032
Mof_C 	C 	0.1586	0.5003	0.941	-0.025
Mof_H 	H 	0.4536	0.4893	0.9831	0.119
Mof_H 	H 	0.4615	0.519	0.9433	0.12
Mof_H 	H 	0.3482	0.5412	0.9044	0.042
Mof_C 	C 	0.2176	0.5258	0.9148	-0.022
Mof_H 	H 	0.0969	0.5017	0.9359	0.041
Mof_C 	C 	0.1845	0.5562	0.87866	0.298
Mof_N 	N 	0.0895	0.2884	0.2269	-0.199
Mof_H 	H 	0.0639	0.3171	0.2142	0.114
Mof_H 	H 	0.0652	0.2745	0.2484	0.105
Mof_C 	C 	0.2007	0.2903	0.1786	-0.058
Mof_H 	H 	0.165	0.317	0.1645	0.056
Mof_C 	C 	0.1688	0.2648	0.2128	0.045
Mof_C 	C 	0.221	0.2257	0.2335	-0.054
Mof_C 	C 	0.3052	0.2121	0.22	-0
Mof_H 	H 	0.3409	0.1853	0.2341	0.021
Mof_C 	C 	0.3371	0.2375	0.1858	-0.019
Mof_H 	H 	0.3947	0.2282	0.1765	0.028
Mof_O 	O 	0.1023	0.0592	0.37212	-0.496
Mof_O 	O 	0.2384	0.08123	0.35625	-0.503
Mof_O 	O 	0.3934	0.9423	0.52686	-0.544
Mof_O 	O 	0.2588	0.9156	0.54031	-0.503
Mof_C 	C 	0.3108	0.9429	0.51823	0.335
Mof_C 	C 	0.2802	0.9709	0.482	-0.047
Mof_C 	C 	0.3392	0.9964	0.4559	0.096
Mof_C 	C 	0.1899	0.9729	0.4746	-0.002
Mof_N 	N 	0.4289	0.0023	0.4614	-0.216
Mof_C 	C 	0.3079	0.0238	0.4223	-0.034
Mof_H 	H 	0.1496	0.9555	0.4924	0.032
Mof_C 	C 	0.1586	0.0003	0.441	-0.025
Mof_H 	H 	0.4536	0.9893	0.4831	0.119
Mof_H 	H 	0.4615	0.019	0.4433	0.12
Mof_H 	H 	0.3482	0.0412	0.4044	0.042
Mof_C 	C 	0.2176	0.0258	0.4148	-0.022
Mof_H 	H 	0.0969	0.0017	0.4359	0.041
Mof_C 	C 	0.1845	0.0562	0.37866	0.298
Mof_N 	N 	0.0895	0.7884	0.7269	-0.199
Mof_H 	H 	0.0639	0.8171	0.7142	0.114
Mof_H 	H 	0.0652	0.7745	0.7484	0.105
Mof_C 	C 	0.2007	0.7903	0.6786	-0.058
Mof_H 	H 	0.165	0.817	0.6645	0.056
Mof_C 	C 	0.1688	0.7648	0.7128	0.045
Mof_C 	C 	0.221	0.7257	0.7335	-0.054
Mof_C 	C 	0.3052	0.7121	0.72	-0
Mof_H 	H 	0.3409	0.6853	0.7341	0.021
Mof_C 	C 	0.3371	0.7375	0.6858	-0.019
Mof_H 	H 	0.3947	0.7282	0.6765	0.028
Mof_O 	O 	0.6023	0.5592	0.37212	-0.496
Mof_O 	O 	0.7384	0.58123	0.35625	-0.503
Mof_O 	O 	0.8934	0.4423	0.52686	-0.544
Mof_O 	O 	0.7588	0.4156	0.54031	-0.503
Mof_C 	C 	0.8108	0.4429	0.51823	0.335
Mof_C 	C 	0.7802	0.4709	0.482	-0.047
Mof_C 	C 	0.8392	0.4964	0.4559	0.096
Mof_C 	C 	0.6899	0.4729	0.4746	-0.002
Mof_N 	N 	0.9289	0.5023	0.4614	-0.216
Mof_C 	C 	0.8079	0.5238	0.4223	-0.034
Mof_H 	H 	0.6496	0.4555	0.4924	0.032
Mof_C 	C 	0.6586	0.5003	0.441	-0.025
Mof_H 	H 	0.9536	0.4893	0.4831	0.119
Mof_H 	H 	0.9615	0.519	0.4433	0.12
Mof_H 	H 	0.8482	0.5412	0.4044	0.042
Mof_C 	C 	0.7176	0.5258	0.4148	-0.022
Mof_H 	H 	0.5969	0.5017	0.4359	0.041
Mof_C 	C 	0.6845	0.5562	0.37866	0.298
Mof_N 	N 	0.5895	0.2884	0.7269	-0.199
Mof_H 	H 	0.5639	0.3171	0.7142	0.114
Mof_H 	H 	0.5652	0.2745	0.7484	0.105
Mof_C 	C 	0.7007	0.2903	0.6786	-0.058
Mof_H 	H 	0.665	0.317	0.6645	0.056
Mof_C 	C 	0.6688	0.2648	0.7128	0.045
Mof_C 	C 	0.721	0.2257	0.7335	-0.054
Mof_C 	C 	0.8052	0.2121	0.72	-0
Mof_H 	H 	0.8409	0.1853	0.7341	0.021
Mof_C 	C 	0.8371	0.2375	0.6858	-0.019
Mof_H 	H 	0.8947	0.2282	0.6765	0.028
Mof_O 	O 	0.6023	0.0592	0.87212	-0.496
Mof_O 	O 	0.7384	0.08123	0.85625	-0.503
Mof_O 	O 	0.8934	0.9423	0.02686	-0.544
Mof_O 	O 	0.7588	0.9156	0.04031	-0.503
Mof_C 	C 	0.8108	0.9429	0.01823	0.335
Mof_C 	C 	0.7802	0.9709	0.982	-0.047
Mof_C 	C 	0.8392	0.9964	0.9559	0.097
Mof_C 	C 	0.6899	0.9729	0.9746	-0.002
Mof_N 	N 	0.9289	0.0023	0.9614	-0.216
Mof_C 	C 	0.8079	0.0238	0.9223	-0.034
Mof_H 	H 	0.6496	0.9555	0.9924	0.032
Mof_C 	C 	0.6586	0.0003	0.941	-0.026
Mof_H 	H 	0.9536	0.9893	0.9831	0.119
Mof_H 	H 	0.9615	0.019	0.9433	0.12
Mof_H 	H 	0.8482	0.0412	0.9044	0.042
Mof_C 	C 	0.7176	0.0258	0.9148	-0.022
Mof_H 	H 	0.5969	0.0017	0.9359	0.042
Mof_C 	C 	0.6845	0.0562	0.87866	0.298
Mof_N 	N 	0.5895	0.7884	0.2269	-0.199
Mof_H 	H 	0.5639	0.8171	0.2142	0.114
Mof_H 	H 	0.5652	0.7745	0.2484	0.105
Mof_C 	C 	0.7007	0.7903	0.1786	-0.058
Mof_H 	H 	0.665	0.817	0.1645	0.056
Mof_C 	C 	0.6688	0.7648	0.2128	0.045
Mof_C 	C 	0.721	0.7257	0.2335	-0.054
Mof_C 	C 	0.8052	0.7121	0.22	-0
Mof_H 	H 	0.8409	0.6853	0.2341	0.021
Mof_C 	C 	0.8371	0.7375	0.1858	-0.019
Mof_H 	H 	0.8947	0.7282	0.1765	0.028
Mof_O 	O 	0.8977	0.8092	0.12212	-0.496
Mof_O 	O 	0.7616	0.83123	0.10625	-0.503
Mof_O 	O 	0.6066	0.6923	0.27686	-0.544
Mof_O 	O 	0.7412	0.6656	0.29031	-0.503
Mof_C 	C 	0.6892	0.6929	0.26823	0.335
Mof_C 	C 	0.7198	0.7209	0.232	-0.047
Mof_C 	C 	0.6608	0.7464	0.2059	0.096
Mof_C 	C 	0.8101	0.7229	0.2246	-0.002
Mof_N 	N 	0.5711	0.7523	0.2114	-0.216
Mof_C 	C 	0.6921	0.7738	0.1723	-0.034
Mof_H 	H 	0.8504	0.7055	0.2424	0.032
Mof_C 	C 	0.8414	0.7503	0.191	-0.025
Mof_H 	H 	0.5464	0.7393	0.2331	0.119
Mof_H 	H 	0.5385	0.769	0.1933	0.12
Mof_H 	H 	0.6518	0.7912	0.1544	0.042
Mof_C 	C 	0.7824	0.7758	0.1648	-0.022
Mof_H 	H 	0.9031	0.7517	0.1859	0.041
Mof_C 	C 	0.8155	0.8062	0.12866	0.298
Mof_N 	N 	0.9105	0.5384	0.4769	-0.199
Mof_H 	H 	0.9361	0.5671	0.4642	0.114
Mof_H 	H 	0.9348	0.5245	0.4984	0.105
Mof_C 	C 	0.7993	0.5403	0.4286	-0.058
Mof_H 	H 	0.835	0.567	0.4145	0.056
Mof_C 	C 	0.8312	0.5148	0.4628	0.045
Mof_C 	C 	0.779	0.4757	0.4835	-0.054
Mof_C 	C 	0.6948	0.4621	0.47	-0
Mof_H 	H 	0.6591	0.4353	0.4841	0.021
Mof_C 	C 	0.6629	0.4875	0.4358	-0.019
Mof_H 	H 	0.6053	0.4782	0.4265	0.028
Mof_O 	O 	0.8977	0.3092	0.62212	-0.496
Mof_O 	O 	0.7616	0.33123	0.60625	-0.503
Mof_O 	O 	0.6066	0.1923	0.77686	-0.544
Mof_O 	O 	0.7412	0.1656	0.79031	-0.503
Mof_C 	C 	0.6892	0.1929	0.76823	0.335
Mof_C 	C 	0.7198	0.2209	0.732	-0.047
Mof_C 	C 	0.6608	0.2464	0.7059	0.096
Mof_C 	C 	0.8101	0.2229	0.7246	-0.002
Mof_N 	N 	0.5711	0.2523	0.7114	-0.216
Mof_C 	C 	0.6921	0.2738	0.6723	-0.034
Mof_H 	H 	0.8504	0.2055	0.7424	0.032
Mof_C 	C 	0.8414	0.2503	0.691	-0.025
Mof_H 	H 	0.5464	0.2393	0.7331	0.119
Mof_H 	H 	0.5385	0.269	0.6933	0.12
Mof_H 	H 	0.6518	0.2912	0.6544	0.042
Mof_C 	C 	0.7824	0.2758	0.6648	-0.022
Mof_H 	H 	0.9031	0.2517	0.6859	0.041
Mof_C 	C 	0.8155	0.3062	0.62866	0.298
Mof_N 	N 	0.9105	0.0384	0.9769	-0.199
Mof_H 	H 	0.9361	0.0671	0.9642	0.114
Mof_H 	H 	0.9348	0.0245	0.9984	0.105
Mof_C 	C 	0.7993	0.0403	0.9286	-0.058
Mof_H 	H 	0.835	0.067	0.9145	0.056
Mof_C 	C 	0.8312	0.0148	0.9628	0.044
Mof_C 	C 	0.779	0.9757	0.9835	-0.054
Mof_C 	C 	0.6948	0.9621	0.97	-0
Mof_H 	H 	0.6591	0.9353	0.9841	0.021
Mof_C 	C 	0.6629	0.9875	0.9358	-0.019
Mof_H 	H 	0.6053	0.9782	0.9265	0.028
Mof_O 	O 	0.3977	0.8092	0.62212	-0.496
Mof_O 	O 	0.2616	0.83123	0.60625	-0.503
Mof_O 	O 	0.1066	0.6923	0.77686	-0.544
Mof_O 	O 	0.2412	0.6656	0.79031	-0.503
Mof_C 	C 	0.1892	0.6929	0.76823	0.335
Mof_C 	C 	0.2198	0.7209	0.732	-0.047
Mof_C 	C 	0.1608	0.7464	0.7059	0.096
Mof_C 	C 	0.3101	0.7229	0.7246	-0.002
Mof_N 	N 	0.0711	0.7523	0.7114	-0.216
Mof_C 	C 	0.1921	0.7738	0.6723	-0.034
Mof_H 	H 	0.3504	0.7055	0.7424	0.032
Mof_C 	C 	0.3414	0.7503	0.691	-0.025
Mof_H 	H 	0.0464	0.7393	0.7331	0.119
Mof_H 	H 	0.0385	0.769	0.6933	0.12
Mof_H 	H 	0.1518	0.7912	0.6544	0.042
Mof_C 	C 	0.2824	0.7758	0.6648	-0.022
Mof_H 	H 	0.4031	0.7517	0.6859	0.041
Mof_C 	C 	0.3155	0.8062	0.62866	0.298
Mof_N 	N 	0.4105	0.5384	0.9769	-0.199
Mof_H 	H 	0.4361	0.5671	0.9642	0.114
Mof_H 	H 	0.4348	0.5245	0.9984	0.105
Mof_C 	C 	0.2993	0.5403	0.9286	-0.058
Mof_H 	H 	0.335	0.567	0.9145	0.056
Mof_C 	C 	0.3312	0.5148	0.9628	0.045
Mof_C 	C 	0.279	0.4757	0.9835	-0.054
Mof_C 	C 	0.1948	0.4621	0.97	-0
Mof_H 	H 	0.1591	0.4353	0.9841	0.021
Mof_C 	C 	0.1629	0.4875	0.9358	-0.019
Mof_H 	H 	0.1053	0.4782	0.9265	0.028
Mof_O 	O 	0.3977	0.3092	0.12212	-0.496
Mof_O 	O 	0.2616	0.33123	0.10625	-0.503
Mof_O 	O 	0.1066	0.1923	0.27686	-0.544
Mof_O 	O 	0.2412	0.1656	0.29031	-0.503
Mof_C 	C 	0.1892	0.1929	0.26823	0.335
Mof_C 	C 	0.2198	0.2209	0.232	-0.047
Mof_C 	C 	0.1608	0.2464	0.2059	0.096
Mof_C 	C 	0.3101	0.2229	0.2246	-0.002
Mof_N 	N 	0.0711	0.2523	0.2114	-0.216
Mof_C 	C 	0.1921	0.2738	0.1723	-0.034
Mof_H 	H 	0.3504	0.2055	0.2424	0.032
Mof_C 	C 	0.3414	0.2503	0.191	-0.025
Mof_H 	H 	0.0464	0.2393	0.2331	0.119
Mof_H 	H 	0.0385	0.269	0.1933	0.12
Mof_H 	H 	0.1518	0.2912	0.1544	0.042
Mof_C 	C 	0.2824	0.2758	0.1648	-0.022
Mof_H 	H 	0.4031	0.2517	0.1859	0.041
Mof_C 	C 	0.3155	0.3062	0.12866	0.298
Mof_N 	N 	0.4105	0.0384	0.4769	-0.199
Mof_H 	H 	0.4361	0.0671	0.4642	0.114
Mof_H 	H 	0.4348	0.0245	0.4984	0.105
Mof_C 	C 	0.2993	0.0403	0.4286	-0.058
Mof_H 	H 	0.335	0.067	0.4145	0.056
Mof_C 	C 	0.3312	0.0148	0.4628	0.045
Mof_C 	C 	0.279	0.9757	0.4835	-0.054
Mof_C 	C 	0.1948	0.9621	0.47	-0
Mof_H 	H 	0.1591	0.9353	0.4841	0.021
Mof_C 	C 	0.1629	0.9875	0.4358	-0.019
Mof_H 	H 	0.1053	0.9782	0.4265	0.028
Mof_O 	O 	0.3523	0.4408	0.12212	-0.496
Mof_O 	O 	0.4884	0.41877	0.10625	-0.503
Mof_O 	O 	0.6434	0.5577	0.27686	-0.544
Mof_O 	O 	0.5088	0.5844	0.29031	-0.503
Mof_C 	C 	0.5608	0.5571	0.26823	0.335
Mof_C 	C 	0.5302	0.5291	0.232	-0.047
Mof_C 	C 	0.5892	0.5036	0.2059	0.096
Mof_C 	C 	0.4399	0.5271	0.2246	-0.002
Mof_N 	N 	0.6789	0.4977	0.2114	-0.216
Mof_C 	C 	0.5579	0.4762	0.1723	-0.034
Mof_H 	H 	0.3996	0.5445	0.2424	0.032
Mof_C 	C 	0.4086	0.4997	0.191	-0.025
Mof_H 	H 	0.7036	0.5107	0.2331	0.119
Mof_H 	H 	0.7115	0.481	0.1933	0.12
Mof_H 	H 	0.5982	0.4588	0.1544	0.042
Mof_C 	C 	0.4676	0.4742	0.1648	-0.022
Mof_H 	H 	0.3469	0.4983	0.1859	0.041
Mof_C 	C 	0.4345	0.4438	0.12866	0.298
Mof_N 	N 	0.3395	0.7116	0.4769	-0.199
Mof_H 	H 	0.3139	0.6829	0.4642	0.114
Mof_H 	H 	0.3152	0.7255	0.4984	0.105
Mof_C 	C 	0.4507	0.7097	0.4286	-0.058
Mof_H 	H 	0.415	0.683	0.4145	0.056
Mof_C 	C 	0.4188	0.7352	0.4628	0.045
Mof_C 	C 	0.471	0.7743	0.4835	-0.054
Mof_C 	C 	0.5552	0.7879	0.47	-0
Mof_H 	H 	0.5909	0.8147	0.4841	0.021
Mof_C 	C 	0.5871	0.7625	0.4358	-0.019
Mof_H 	H 	0.6447	0.7718	0.4265	0.028
Mof_O 	O 	0.3523	0.9408	0.62212	-0.496
Mof_O 	O 	0.4884	0.91877	0.60625	-0.503
Mof_O 	O 	0.6434	0.0577	0.77686	-0.544
Mof_O 	O 	0.5088	0.0844	0.79031	-0.503
Mof_C 	C 	0.5608	0.0571	0.76823	0.335
Mof_C 	C 	0.5302	0.0291	0.732	-0.047
Mof_C 	C 	0.5892	0.0036	0.7059	0.096
Mof_C 	C 	0.4399	0.0271	0.7246	-0.002
Mof_N 	N 	0.6789	0.9977	0.7114	-0.216
Mof_C 	C 	0.5579	0.9762	0.6723	-0.034
Mof_H 	H 	0.3996	0.0445	0.7424	0.032
Mof_C 	C 	0.4086	0.9997	0.691	-0.025
Mof_H 	H 	0.7036	0.0107	0.7331	0.119
Mof_H 	H 	0.7115	0.981	0.6933	0.12
Mof_H 	H 	0.5982	0.9588	0.6544	0.042
Mof_C 	C 	0.4676	0.9742	0.6648	-0.022
Mof_H 	H 	0.3469	0.9983	0.6859	0.041
Mof_C 	C 	0.4345	0.9438	0.62866	0.298
Mof_N 	N 	0.3395	0.2116	0.9769	-0.199
Mof_H 	H 	0.3139	0.1829	0.9642	0.115
Mof_H 	H 	0.3152	0.2255	0.9984	0.105
Mof_C 	C 	0.4507	0.2097	0.9286	-0.058
Mof_H 	H 	0.415	0.183	0.9145	0.056
Mof_C 	C 	0.4188	0.2352	0.9628	0.045
Mof_C 	C 	0.471	0.2743	0.9835	-0.054
Mof_C 	C 	0.5552	0.2879	0.97	-0
Mof_H 	H 	0.5909	0.3147	0.9841	0.021
Mof_C 	C 	0.5871	0.2625	0.9358	-0.019
Mof_H 	H 	0.6447	0.2718	0.9265	0.028
Mof_O 	O 	0.8523	0.4408	0.62212	-0.496
Mof_O 	O 	0.9884	0.41877	0.60625	-0.503
Mof_O 	O 	0.1434	0.5577	0.77686	-0.544
Mof_O 	O 	0.0088	0.5844	0.79031	-0.503
Mof_C 	C 	0.0608	0.5571	0.76823	0.335
Mof_C 	C 	0.0302	0.5291	0.732	-0.047
Mof_C 	C 	0.0892	0.5036	0.7059	0.096
Mof_C 	C 	0.9399	0.5271	0.7246	-0.002
Mof_N 	N 	0.1789	0.4977	0.7114	-0.216
Mof_C 	C 	0.0579	0.4762	0.6723	-0.034
Mof_H 	H 	0.8996	0.5445	0.7424	0.032
Mof_C 	C 	0.9086	0.4997	0.691	-0.025
Mof_H 	H 	0.2036	0.5107	0.7331	0.119
Mof_H 	H 	0.2115	0.481	0.6933	0.12
Mof_H 	H 	0.0982	0.4588	0.6544	0.042
Mof_C 	C 	0.9676	0.4742	0.6648	-0.022
Mof_H 	H 	0.8469	0.4983	0.6859	0.041
Mof_C 	C 	0.9345	0.4438	0.62866	0.298
Mof_N 	N 	0.8395	0.7116	0.9769	-0.199
Mof_H 	H 	0.8139	0.6829	0.9642	0.114
Mof_H 	H 	0.8152	0.7255	0.9984	0.105
Mof_C 	C 	0.9507	0.7097	0.9286	-0.058
Mof_H 	H 	0.915	0.683	0.9145	0.056
Mof_C 	C 	0.9188	0.7352	0.9628	0.045
Mof_C 	C 	0.971	0.7743	0.9835	-0.054
Mof_C 	C 	0.0552	0.7879	0.97	-0
Mof_H 	H 	0.0909	0.8147	0.9841	0.021
Mof_C 	C 	0.0871	0.7625	0.9358	-0.019
Mof_H 	H 	0.1447	0.7718	0.9265	0.028
Mof_O 	O 	0.8523	0.9408	0.12212	-0.496
Mof_O 	O 	0.9884	0.91877	0.10625	-0.503
Mof_O 	O 	0.1434	0.0577	0.27686	-0.544
Mof_O 	O 	0.0088	0.0844	0.29031	-0.503
Mof_C 	C 	0.0608	0.0571	0.26823	0.335
Mof_C 	C 	0.0302	0.0291	0.232	-0.047
Mof_C 	C 	0.0892	0.0036	0.2059	0.096
Mof_C 	C 	0.9399	0.0271	0.2246	-0.002
Mof_N 	N 	0.1789	0.9977	0.2114	-0.216
Mof_C 	C 	0.0579	0.9762	0.1723	-0.034
Mof_H 	H 	0.8996	0.0445	0.2424	0.032
Mof_C 	C 	0.9086	0.9997	0.191	-0.026
Mof_H 	H 	0.2036	0.0107	0.2331	0.119
Mof_H 	H 	0.2115	0.981	0.1933	0.12
Mof_H 	H 	0.0982	0.9588	0.1544	0.042
Mof_C 	C 	0.9676	0.9742	0.1648	-0.022
Mof_H 	H 	0.8469	0.9983	0.1859	0.042
Mof_C 	C 	0.9345	0.9438	0.12866	0.298
Mof_N 	N 	0.8395	0.2116	0.4769	-0.199
Mof_H 	H 	0.8139	0.1829	0.4642	0.114
Mof_H 	H 	0.8152	0.2255	0.4984	0.105
Mof_C 	C 	0.9507	0.2097	0.4286	-0.058
Mof_H 	H 	0.915	0.183	0.4145	0.056
Mof_C 	C 	0.9188	0.2352	0.4628	0.045
Mof_C 	C 	0.971	0.2743	0.4835	-0.054
Mof_C 	C 	0.0552	0.2879	0.47	-0
Mof_H 	H 	0.0909	0.3147	0.4841	0.021
Mof_C 	C 	0.0871	0.2625	0.4358	-0.019
Mof_H 	H 	0.1447	0.2718	0.4265	0.028
Mof_In	In	0.375	0.375	0.07344	2.536
Mof_In	In	0.375	0.875	0.57344	2.536
Mof_In	In	0.875	0.375	0.57344	2.536
Mof_In	In	0.875	0.875	0.07344	2.536
Mof_In	In	0.625	0.625	0.32344	2.536
Mof_In	In	0.625	0.125	0.82344	2.536
Mof_In	In	0.125	0.625	0.82344	2.536
Mof_In	In	0.125	0.125	0.32344	2.536
Mof_O 	O 	0.1023	0.1908	0.87788	-0.496
Mof_O 	O 	0.2384	0.16877	0.89375	-0.503
Mof_O 	O 	0.3934	0.3077	0.72314	-0.544
Mof_O 	O 	0.2588	0.3344	0.70969	-0.503
Mof_C 	C 	0.3108	0.3071	0.73177	0.335
Mof_C 	C 	0.2802	0.2791	0.768	-0.047
Mof_C 	C 	0.3392	0.2536	0.7941	0.096
Mof_C 	C 	0.1899	0.2771	0.7754	-0.002
Mof_N 	N 	0.4289	0.2477	0.7886	-0.216
Mof_C 	C 	0.3079	0.2262	0.8277	-0.034
Mof_H 	H 	0.1496	0.2945	0.7576	0.032
Mof_C 	C 	0.1586	0.2497	0.809	-0.025
Mof_H 	H 	0.4536	0.2607	0.7669	0.119
Mof_H 	H 	0.4615	0.231	0.8067	0.12
Mof_H 	H 	0.3482	0.2088	0.8456	0.042
Mof_C 	C 	0.2176	0.2242	0.8352	-0.022
Mof_H 	H 	0.0969	0.2483	0.8141	0.041
Mof_C 	C 	0.1845	0.1938	0.87134	0.298
Mof_N 	N 	0.0895	0.4616	0.5231	-0.199
Mof_H 	H 	0.0639	0.4329	0.5358	0.114
Mof_H 	H 	0.0652	0.4755	0.5016	0.105
Mof_C 	C 	0.2007	0.4597	0.5714	-0.058
Mof_H 	H 	0.165	0.433	0.5855	0.056
Mof_C 	C 	0.1688	0.4852	0.5372	0.045
Mof_C 	C 	0.221	0.5243	0.5165	-0.054
Mof_C 	C 	0.3052	0.5379	0.53	-0
Mof_H 	H 	0.3409	0.5647	0.5159	0.021
Mof_C 	C 	0.3371	0.5125	0.5642	-0.019
Mof_H 	H 	0.3947	0.5218	0.5735	0.028
Mof_O 	O 	0.1023	0.6908	0.37788	-0.496
Mof_O 	O 	0.2384	0.66877	0.39375	-0.503
Mof_O 	O 	0.3934	0.8077	0.22314	-0.544
Mof_O 	O 	0.2588	0.8344	0.20969	-0.503
Mof_C 	C 	0.3108	0.8071	0.23177	0.335
Mof_C 	C 	0.2802	0.7791	0.268	-0.047
Mof_C 	C 	0.3392	0.7536	0.2941	0.096
Mof_C 	C 	0.1899	0.7771	0.2754	-0.002
Mof_N 	N 	0.4289	0.7477	0.2886	-0.216
Mof_C 	C 	0.3079	0.7262	0.3277	-0.034
Mof_H 	H 	0.1496	0.7945	0.2576	0.032
Mof_C 	C 	0.1586	0.7497	0.309	-0.025
Mof_H 	H 	0.4536	0.7607	0.2669	0.119
Mof_H 	H 	0.4615	0.731	0.3067	0.12
Mof_H 	H 	0.3482	0.7088	0.3456	0.042
Mof_C 	C 	0.2176	0.7242	0.3352	-0.022
Mof_H 	H 	0.0969	0.7483	0.3141	0.041
Mof_C 	C 	0.1845	0.6938	0.37134	0.298
Mof_N 	N 	0.0895	0.9616	0.0231	-0.199
Mof_H 	H 	0.0639	0.9329	0.0358	0.114
Mof_H 	H 	0.0652	0.9755	0.0016	0.105
Mof_C 	C 	0.2007	0.9597	0.0714	-0.058
Mof_H 	H 	0.165	0.933	0.0855	0.056
Mof_C 	C 	0.1688	0.9852	0.0372	0.044
Mof_C 	C 	0.221	0.0243	0.0165	-0.054
Mof_C 	C 	0.3052	0.0379	0.03	-0
Mof_H 	H 	0.3409	0.0647	0.0159	0.021
Mof_C 	C 	0.3371	0.0125	0.0642	-0.019
Mof_H 	H 	0.3947	0.0218	0.0735	0.028
Mof_O 	O 	0.6023	0.1908	0.37788	-0.496
Mof_O 	O 	0.7384	0.16877	0.39375	-0.503
Mof_O 	O 	0.8934	0.3077	0.22314	-0.544
Mof_O 	O 	0.7588	0.3344	0.20969	-0.503
Mof_C 	C 	0.8108	0.3071	0.23177	0.335
Mof_C 	C 	0.7802	0.2791	0.268	-0.047
Mof_C 	C 	0.8392	0.2536	0.2941	0.096
Mof_C 	C 	0.6899	0.2771	0.2754	-0.002
Mof_N 	N 	0.9289	0.2477	0.2886	-0.216
Mof_C 	C 	0.8079	0.2262	0.3277	-0.034
Mof_H 	H 	0.6496	0.2945	0.2576	0.032
Mof_C 	C 	0.6586	0.2497	0.309	-0.025
Mof_H 	H 	0.9536	0.2607	0.2669	0.119
Mof_H 	H 	0.9615	0.231	0.3067	0.12
Mof_H 	H 	0.8482	0.2088	0.3456	0.042
Mof_C 	C 	0.7176	0.2242	0.3352	-0.022
Mof_H 	H 	0.5969	0.2483	0.3141	0.041
Mof_C 	C 	0.6845	0.1938	0.37134	0.298
Mof_N 	N 	0.5895	0.4616	0.0231	-0.199
Mof_H 	H 	0.5639	0.4329	0.0358	0.114
Mof_H 	H 	0.5652	0.4755	0.0016	0.105
Mof_C 	C 	0.7007	0.4597	0.0714	-0.058
Mof_H 	H 	0.665	0.433	0.0855	0.056
Mof_C 	C 	0.6688	0.4852	0.0372	0.045
Mof_C 	C 	0.721	0.5243	0.0165	-0.054
Mof_C 	C 	0.8052	0.5379	0.03	-0
Mof_H 	H 	0.8409	0.5647	0.0159	0.021
Mof_C 	C 	0.8371	0.5125	0.0642	-0.019
Mof_H 	H 	0.8947	0.5218	0.0735	0.028
Mof_O 	O 	0.6023	0.6908	0.87788	-0.496
Mof_O 	O 	0.7384	0.66877	0.89375	-0.503
Mof_O 	O 	0.8934	0.8077	0.72314	-0.544
Mof_O 	O 	0.7588	0.8344	0.70969	-0.503
Mof_C 	C 	0.8108	0.8071	0.73177	0.335
Mof_C 	C 	0.7802	0.7791	0.768	-0.047
Mof_C 	C 	0.8392	0.7536	0.7941	0.096
Mof_C 	C 	0.6899	0.7771	0.7754	-0.002
Mof_N 	N 	0.9289	0.7477	0.7886	-0.216
Mof_C 	C 	0.8079	0.7262	0.8277	-0.034
Mof_H 	H 	0.6496	0.7945	0.7576	0.032
Mof_C 	C 	0.6586	0.7497	0.809	-0.025
Mof_H 	H 	0.9536	0.7607	0.7669	0.119
Mof_H 	H 	0.9615	0.731	0.8067	0.12
Mof_H 	H 	0.8482	0.7088	0.8456	0.042
Mof_C 	C 	0.7176	0.7242	0.8352	-0.022
Mof_H 	H 	0.5969	0.7483	0.8141	0.041
Mof_C 	C 	0.6845	0.6938	0.87134	0.298
Mof_N 	N 	0.5895	0.9616	0.5231	-0.199
Mof_H 	H 	0.5639	0.9329	0.5358	0.114
Mof_H 	H 	0.5652	0.9755	0.5016	0.105
Mof_C 	C 	0.7007	0.9597	0.5714	-0.058
Mof_H 	H 	0.665	0.933	0.5855	0.056
Mof_C 	C 	0.6688	0.9852	0.5372	0.045
Mof_C 	C 	0.721	0.0243	0.5165	-0.054
Mof_C 	C 	0.8052	0.0379	0.53	-0
Mof_H 	H 	0.8409	0.0647	0.5159	0.021
Mof_C 	C 	0.8371	0.0125	0.5642	-0.019
Mof_H 	H 	0.8947	0.0218	0.5735	0.028
Mof_O 	O 	0.6477	0.5592	0.87788	-0.496
Mof_O 	O 	0.5116	0.58123	0.89375	-0.503
Mof_O 	O 	0.3566	0.4423	0.72314	-0.544
Mof_O 	O 	0.4912	0.4156	0.70969	-0.503
Mof_C 	C 	0.4392	0.4429	0.73177	0.335
Mof_C 	C 	0.4698	0.4709	0.768	-0.047
Mof_C 	C 	0.4108	0.4964	0.7941	0.096
Mof_C 	C 	0.5601	0.4729	0.7754	-0.002
Mof_N 	N 	0.3211	0.5023	0.7886	-0.216
Mof_C 	C 	0.4421	0.5238	0.8277	-0.034
Mof_H 	H 	0.6004	0.4555	0.7576	0.032
Mof_C 	C 	0.5914	0.5003	0.809	-0.025
Mof_H 	H 	0.2964	0.4893	0.7669	0.119
Mof_H 	H 	0.2885	0.519	0.8067	0.12
Mof_H 	H 	0.4018	0.5412	0.8456	0.042
Mof_C 	C 	0.5324	0.5258	0.8352	-0.022
Mof_H 	H 	0.6531	0.5017	0.8141	0.041
Mof_C 	C 	0.5655	0.5562	0.87134	0.298
Mof_N 	N 	0.6605	0.2884	0.5231	-0.199
Mof_H 	H 	0.6861	0.3171	0.5358	0.114
Mof_H 	H 	0.6848	0.2745	0.5016	0.105
Mof_C 	C 	0.5493	0.2903	0.5714	-0.058
Mof_H 	H 	0.585	0.317	0.5855	0.056
Mof_C 	C 	0.5812	0.2648	0.5372	0.045
Mof_C 	C 	0.529	0.2257	0.5165	-0.054
Mof_C 	C 	0.4448	0.2121	0.53	-0
Mof_H 	H 	0.4091	0.1853	0.5159	0.021
Mof_C 	C 	0.4129	0.2375	0.5642	-0.019
Mof_H 	H 	0.3553	0.2282	0.5735	0.028
Mof_O 	O 	0.6477	0.0592	0.37788	-0.496
Mof_O 	O 	0.5116	0.08123	0.39375	-0.503
Mof_O 	O 	0.3566	0.9423	0.22314	-0.544
Mof_O 	O 	0.4912	0.9156	0.20969	-0.503
Mof_C 	C 	0.4392	0.9429	0.23177	0.335
Mof_C 	C 	0.4698	0.9709	0.268	-0.047
Mof_C 	C 	0.4108	0.9964	0.2941	0.096
Mof_C 	C 	0.5601	0.9729	0.2754	-0.002
Mof_N 	N 	0.3211	0.0023	0.2886	-0.216
Mof_C 	C 	0.4421	0.0238	0.3277	-0.034
Mof_H 	H 	0.6004	0.9555	0.2576	0.032
Mof_C 	C 	0.5914	0.0003	0.309	-0.025
Mof_H 	H 	0.2964	0.9893	0.2669	0.119
Mof_H 	H 	0.2885	0.019	0.3067	0.12
Mof_H 	H 	0.4018	0.0412	0.3456	0.042
Mof_C 	C 	0.5324	0.0258	0.3352	-0.022
Mof_H 	H 	0.6531	0.0017	0.3141	0.041
Mof_C 	C 	0.5655	0.0562	0.37134	0.298
Mof_N 	N 	0.6605	0.7884	0.0231	-0.199
Mof_H 	H 	0.6861	0.8171	0.0358	0.115
Mof_H 	H 	0.6848	0.7745	0.0016	0.105
Mof_C 	C 	0.5493	0.7903	0.0714	-0.058
Mof_H 	H 	0.585	0.817	0.0855	0.056
Mof_C 	C 	0.5812	0.7648	0.0372	0.045
Mof_C 	C 	0.529	0.7257	0.0165	-0.054
Mof_C 	C 	0.4448	0.7121	0.03	-0
Mof_H 	H 	0.4091	0.6853	0.0159	0.021
Mof_C 	C 	0.4129	0.7375	0.0642	-0.019
Mof_H 	H 	0.3553	0.7282	0.0735	0.028
Mof_O 	O 	0.1477	0.5592	0.37788	-0.496
Mof_O 	O 	0.0116	0.58123	0.39375	-0.503
Mof_O 	O 	0.8566	0.4423	0.22314	-0.544
Mof_O 	O 	0.9912	0.4156	0.20969	-0.503
Mof_C 	C 	0.9392	0.4429	0.23177	0.335
Mof_C 	C 	0.9698	0.4709	0.268	-0.047
Mof_C 	C 	0.9108	0.4964	0.2941	0.096
Mof_C 	C 	0.0601	0.4729	0.2754	-0.002
Mof_N 	N 	0.8211	0.5023	0.2886	-0.216
Mof_C 	C 	0.9421	0.5238	0.3277	-0.034
Mof_H 	H 	0.1004	0.4555	0.2576	0.032
Mof_C 	C 	0.0914	0.5003	0.309	-0.025
Mof_H 	H 	0.7964	0.4893	0.2669	0.119
Mof_H 	H 	0.7885	0.519	0.3067	0.12
Mof_H 	H 	0.9018	0.5412	0.3456	0.042
Mof_C 	C 	0.0324	0.5258	0.3352	-0.022
Mof_H 	H 	0.1531	0.5017	0.3141	0.041
Mof_C 	C 	0.0655	0.5562	0.37134	0.298
Mof_N 	N 	0.1605	0.2884	0.0231	-0.199
Mof_H 	H 	0.1861	0.3171	0.0358	0.114
Mof_H 	H 	0.1848	0.2745	0.0016	0.105
Mof_C 	C 	0.0493	0.2903	0.0714	-0.058
Mof_H 	H 	0.085	0.317	0.0855	0.056
Mof_C 	C 	0.0812	0.2648	0.0372	0.045
Mof_C 	C 	0.029	0.2257	0.0165	-0.054
Mof_C 	C 	0.9448	0.2121	0.03	-0
Mof_H 	H 	0.9091	0.1853	0.0159	0.021
Mof_C 	C 	0.9129	0.2375	0.0642	-0.019
Mof_H 	H 	0.8553	0.2282	0.0735	0.028
Mof_O 	O 	0.1477	0.0592	0.87788	-0.496
Mof_O 	O 	0.0116	0.08123	0.89375	-0.503
Mof_O 	O 	0.8566	0.9423	0.72314	-0.544
Mof_O 	O 	0.9912	0.9156	0.70969	-0.503
Mof_C 	C 	0.9392	0.9429	0.73177	0.335
Mof_C 	C 	0.9698	0.9709	0.768	-0.047
Mof_C 	C 	0.9108	0.9964	0.7941	0.096
Mof_C 	C 	0.0601	0.9729	0.7754	-0.002
Mof_N 	N 	0.8211	0.0023	0.7886	-0.216
Mof_C 	C 	0.9421	0.0238	0.8277	-0.034
Mof_H 	H 	0.1004	0.9555	0.7576	0.032
Mof_C 	C 	0.0914	0.0003	0.809	-0.026
Mof_H 	H 	0.7964	0.9893	0.7669	0.119
Mof_H 	H 	0.7885	0.019	0.8067	0.12
Mof_H 	H 	0.9018	0.0412	0.8456	0.042
Mof_C 	C 	0.0324	0.0258	0.8352	-0.022
Mof_H 	H 	0.1531	0.0017	0.8141	0.042
Mof_C 	C 	0.0655	0.0562	0.87134	0.298
Mof_N 	N 	0.1605	0.7884	0.5231	-0.199
Mof_H 	H 	0.1861	0.8171	0.5358	0.114
Mof_H 	H 	0.1848	0.7745	0.5016	0.105
Mof_C 	C 	0.0493	0.7903	0.5714	-0.058
Mof_H 	H 	0.085	0.817	0.5855	0.056
Mof_C 	C 	0.0812	0.7648	0.5372	0.045
Mof_C 	C 	0.029	0.7257	0.5165	-0.054
Mof_C 	C 	0.9448	0.7121	0.53	-0
Mof_H 	H 	0.9091	0.6853	0.5159	0.021
Mof_C 	C 	0.9129	0.7375	0.5642	-0.019
Mof_H 	H 	0.8553	0.7282	0.5735	0.028
Mof_O 	O 	0.3523	0.8092	0.12788	-0.496
Mof_O 	O 	0.4884	0.83123	0.14375	-0.503
Mof_O 	O 	0.6434	0.6923	0.97314	-0.544
Mof_O 	O 	0.5088	0.6656	0.95969	-0.503
Mof_C 	C 	0.5608	0.6929	0.98177	0.335
Mof_C 	C 	0.5302	0.7209	0.018	-0.047
Mof_C 	C 	0.5892	0.7464	0.0441	0.096
Mof_C 	C 	0.4399	0.7229	0.0254	-0.002
Mof_N 	N 	0.6789	0.7523	0.0386	-0.216
Mof_C 	C 	0.5579	0.7738	0.0777	-0.034
Mof_H 	H 	0.3996	0.7055	0.0076	0.032
Mof_C 	C 	0.4086	0.7503	0.059	-0.025
Mof_H 	H 	0.7036	0.7393	0.0169	0.119
Mof_H 	H 	0.7115	0.769	0.0567	0.12
Mof_H 	H 	0.5982	0.7912	0.0956	0.042
Mof_C 	C 	0.4676	0.7758	0.0852	-0.022
Mof_H 	H 	0.3469	0.7517	0.0641	0.041
Mof_C 	C 	0.4345	0.8062	0.12134	0.298
Mof_N 	N 	0.3395	0.5384	0.7731	-0.199
Mof_H 	H 	0.3139	0.5671	0.7858	0.114
Mof_H 	H 	0.3152	0.5245	0.7516	0.105
Mof_C 	C 	0.4507	0.5403	0.8214	-0.058
Mof_H 	H 	0.415	0.567	0.8355	0.056
Mof_C 	C 	0.4188	0.5148	0.7872	0.045
Mof_C 	C 	0.471	0.4757	0.7665	-0.054
Mof_C 	C 	0.5552	0.4621	0.78	-0
Mof_H 	H 	0.5909	0.4353	0.7659	0.021
Mof_C 	C 	0.5871	0.4875	0.8142	-0.019
Mof_H 	H 	0.6447	0.4782	0.8235	0.028
Mof_O 	O 	0.3523	0.3092	0.62788	-0.496
Mof_O 	O 	0.4884	0.33123	0.64375	-0.503
Mof_O 	O 	0.6434	0.1923	0.47314	-0.544
Mof_O 	O 	0.5088	0.1656	0.45969	-0.503
Mof_C 	C 	0.5608	0.1929	0.48177	0.335
Mof_C 	C 	0.5302	0.2209	0.518	-0.047
Mof_C 	C 	0.5892	0.2464	0.5441	0.096
Mof_C 	C 	0.4399	0.2229	0.5254	-0.002
Mof_N 	N 	0.6789	0.2523	0.5386	-0.216
Mof_C 	C 	0.5579	0.2738	0.5777	-0.034
Mof_H 	H 	0.3996	0.2055	0.5076	0.032
Mof_C 	C 	0.4086	0.2503	0.559	-0.025
Mof_H 	H 	0.7036	0.2393	0.5169	0.119
Mof_H 	H 	0.7115	0.269	0.5567	0.12
Mof_H 	H 	0.5982	0.2912	0.5956	0.042
Mof_C 	C 	0.4676	0.2758	0.5852	-0.022
Mof_H 	H 	0.3469	0.2517	0.5641	0.041
Mof_C 	C 	0.4345	0.3062	0.62134	0.298
Mof_N 	N 	0.3395	0.0384	0.2731	-0.199
Mof_H 	H 	0.3139	0.0671	0.2858	0.114
Mof_H 	H 	0.3152	0.0245	0.2516	0.105
Mof_C 	C 	0.4507	0.0403	0.3214	-0.058
Mof_H 	H 	0.415	0.067	0.3355	0.056
Mof_C 	C 	0.4188	0.0148	0.2872	0.045
Mof_C 	C 	0.471	0.9757	0.2665	-0.054
Mof_C 	C 	0.5552	0.9621	0.28	-0
Mof_H 	H 	0.5909	0.9353	0.2659	0.021
Mof_C 	C 	0.5871	0.9875	0.3142	-0.019
Mof_H 	H 	0.6447	0.9782	0.3235	0.029
Mof_O 	O 	0.8523	0.8092	0.62788	-0.496
Mof_O 	O 	0.9884	0.83123	0.64375	-0.503
Mof_O 	O 	0.1434	0.6923	0.47314	-0.544
Mof_O 	O 	0.0088	0.6656	0.45969	-0.503
Mof_C 	C 	0.0608	0.6929	0.48177	0.335
Mof_C 	C 	0.0302	0.7209	0.518	-0.047
Mof_C 	C 	0.0892	0.7464	0.5441	0.096
Mof_C 	C 	0.9399	0.7229	0.5254	-0.002
Mof_N 	N 	0.1789	0.7523	0.5386	-0.216
Mof_C 	C 	0.0579	0.7738	0.5777	-0.034
Mof_H 	H 	0.8996	0.7055	0.5076	0.032
Mof_C 	C 	0.9086	0.7503	0.559	-0.025
Mof_H 	H 	0.2036	0.7393	0.5169	0.119
Mof_H 	H 	0.2115	0.769	0.5567	0.12
Mof_H 	H 	0.0982	0.7912	0.5956	0.042
Mof_C 	C 	0.9676	0.7758	0.5852	-0.022
Mof_H 	H 	0.8469	0.7517	0.5641	0.041
Mof_C 	C 	0.9345	0.8062	0.62134	0.298
Mof_N 	N 	0.8395	0.5384	0.2731	-0.199
Mof_H 	H 	0.8139	0.5671	0.2858	0.114
Mof_H 	H 	0.8152	0.5245	0.2516	0.105
Mof_C 	C 	0.9507	0.5403	0.3214	-0.058
Mof_H 	H 	0.915	0.567	0.3355	0.056
Mof_C 	C 	0.9188	0.5148	0.2872	0.045
Mof_C 	C 	0.971	0.4757	0.2665	-0.054
Mof_C 	C 	0.0552	0.4621	0.28	-0
Mof_H 	H 	0.0909	0.4353	0.2659	0.021
Mof_C 	C 	0.0871	0.4875	0.3142	-0.019
Mof_H 	H 	0.1447	0.4782	0.3235	0.028
Mof_O 	O 	0.8523	0.3092	0.12788	-0.496
Mof_O 	O 	0.9884	0.33123	0.14375	-0.503
Mof_O 	O 	0.1434	0.1923	0.97314	-0.544
Mof_O 	O 	0.0088	0.1656	0.95969	-0.503
Mof_C 	C 	0.0608	0.1929	0.98177	0.335
Mof_C 	C 	0.0302	0.2209	0.018	-0.047
Mof_C 	C 	0.0892	0.2464	0.0441	0.096
Mof_C 	C 	0.9399	0.2229	0.0254	-0.002
Mof_N 	N 	0.1789	0.2523	0.0386	-0.216
Mof_C 	C 	0.0579	0.2738	0.0777	-0.034
Mof_H 	H 	0.8996	0.2055	0.0076	0.032
Mof_C 	C 	0.9086	0.2503	0.059	-0.025
Mof_H 	H 	0.2036	0.2393	0.0169	0.119
Mof_H 	H 	0.2115	0.269	0.0567	0.12
Mof_H 	H 	0.0982	0.2912	0.0956	0.042
Mof_C 	C 	0.9676	0.2758	0.0852	-0.022
Mof_H 	H 	0.8469	0.2517	0.0641	0.041
Mof_C 	C 	0.9345	0.3062	0.12134	0.298
Mof_N 	N 	0.8395	0.0384	0.7731	-0.199
Mof_H 	H 	0.8139	0.0671	0.7858	0.114
Mof_H 	H 	0.8152	0.0245	0.7516	0.105
Mof_C 	C 	0.9507	0.0403	0.8214	-0.058
Mof_H 	H 	0.915	0.067	0.8355	0.056
Mof_C 	C 	0.9188	0.0148	0.7872	0.045
Mof_C 	C 	0.971	0.9757	0.7665	-0.054
Mof_C 	C 	0.0552	0.9621	0.78	-0
Mof_H 	H 	0.0909	0.9353	0.7659	0.021
Mof_C 	C 	0.0871	0.9875	0.8142	-0.019
Mof_H 	H 	0.1447	0.9782	0.8235	0.028
Mof_O 	O 	0.8977	0.4408	0.12788	-0.496
Mof_O 	O 	0.7616	0.41877	0.14375	-0.503
Mof_O 	O 	0.6066	0.5577	0.97314	-0.544
Mof_O 	O 	0.7412	0.5844	0.95969	-0.503
Mof_C 	C 	0.6892	0.5571	0.98177	0.335
Mof_C 	C 	0.7198	0.5291	0.018	-0.047
Mof_C 	C 	0.6608	0.5036	0.0441	0.096
Mof_C 	C 	0.8101	0.5271	0.0254	-0.002
Mof_N 	N 	0.5711	0.4977	0.0386	-0.216
Mof_C 	C 	0.6921	0.4762	0.0777	-0.034
Mof_H 	H 	0.8504	0.5445	0.0076	0.032
Mof_C 	C 	0.8414	0.4997	0.059	-0.025
Mof_H 	H 	0.5464	0.5107	0.0169	0.119
Mof_H 	H 	0.5385	0.481	0.0567	0.12
Mof_H 	H 	0.6518	0.4588	0.0956	0.042
Mof_C 	C 	0.7824	0.4742	0.0852	-0.022
Mof_H 	H 	0.9031	0.4983	0.0641	0.041
Mof_C 	C 	0.8155	0.4438	0.12134	0.298
Mof_N 	N 	0.9105	0.7116	0.7731	-0.199
Mof_H 	H 	0.9361	0.6829	0.7858	0.114
Mof_H 	H 	0.9348	0.7255	0.7516	0.105
Mof_C 	C 	0.7993	0.7097	0.8214	-0.058
Mof_H 	H 	0.835	0.683	0.8355	0.056
Mof_C 	C 	0.8312	0.7352	0.7872	0.045
Mof_C 	C 	0.779	0.7743	0.7665	-0.054
Mof_C 	C 	0.6948	0.7879	0.78	-0
Mof_H 	H 	0.6591	0.8147	0.7659	0.021
Mof_C 	C 	0.6629	0.7625	0.8142	-0.019
Mof_H 	H 	0.6053	0.7718	0.8235	0.028
Mof_O 	O 	0.8977	0.9408	0.62788	-0.496
Mof_O 	O 	0.7616	0.91877	0.64375	-0.503
Mof_O 	O 	0.6066	0.0577	0.47314	-0.544
Mof_O 	O 	0.7412	0.0844	0.45969	-0.503
Mof_C 	C 	0.6892	0.0571	0.48177	0.335
Mof_C 	C 	0.7198	0.0291	0.518	-0.047
Mof_C 	C 	0.6608	0.0036	0.5441	0.096
Mof_C 	C 	0.8101	0.0271	0.5254	-0.002
Mof_N 	N 	0.5711	0.9977	0.5386	-0.216
Mof_C 	C 	0.6921	0.9762	0.5777	-0.034
Mof_H 	H 	0.8504	0.0445	0.5076	0.032
Mof_C 	C 	0.8414	0.9997	0.559	-0.025
Mof_H 	H 	0.5464	0.0107	0.5169	0.119
Mof_H 	H 	0.5385	0.981	0.5567	0.12
Mof_H 	H 	0.6518	0.9588	0.5956	0.042
Mof_C 	C 	0.7824	0.9742	0.5852	-0.022
Mof_H 	H 	0.9031	0.9983	0.5641	0.041
Mof_C 	C 	0.8155	0.9438	0.62134	0.298
Mof_N 	N 	0.9105	0.2116	0.2731	-0.199
Mof_H 	H 	0.9361	0.1829	0.2858	0.114
Mof_H 	H 	0.9348	0.2255	0.2516	0.105
Mof_C 	C 	0.7993	0.2097	0.3214	-0.058
Mof_H 	H 	0.835	0.183	0.3355	0.056
Mof_C 	C 	0.8312	0.2352	0.2872	0.045
Mof_C 	C 	0.779	0.2743	0.2665	-0.054
Mof_C 	C 	0.6948	0.2879	0.28	-0
Mof_H 	H 	0.6591	0.3147	0.2659	0.021
Mof_C 	C 	0.6629	0.2625	0.3142	-0.019
Mof_H 	H 	0.6053	0.2718	0.3235	0.028
Mof_O 	O 	0.3977	0.4408	0.62788	-0.496
Mof_O 	O 	0.2616	0.41877	0.64375	-0.503
Mof_O 	O 	0.1066	0.5577	0.47314	-0.544
Mof_O 	O 	0.2412	0.5844	0.45969	-0.503
Mof_C 	C 	0.1892	0.5571	0.48177	0.335
Mof_C 	C 	0.2198	0.5291	0.518	-0.047
Mof_C 	C 	0.1608	0.5036	0.5441	0.096
Mof_C 	C 	0.3101	0.5271	0.5254	-0.002
Mof_N 	N 	0.0711	0.4977	0.5386	-0.216
Mof_C 	C 	0.1921	0.4762	0.5777	-0.034
Mof_H 	H 	0.3504	0.5445	0.5076	0.032
Mof_C 	C 	0.3414	0.4997	0.559	-0.025
Mof_H 	H 	0.0464	0.5107	0.5169	0.119
Mof_H 	H 	0.0385	0.481	0.5567	0.12
Mof_H 	H 	0.1518	0.4588	0.5956	0.042
Mof_C 	C 	0.2824	0.4742	0.5852	-0.022
Mof_H 	H 	0.4031	0.4983	0.5641	0.041
Mof_C 	C 	0.3155	0.4438	0.62134	0.298
Mof_N 	N 	0.4105	0.7116	0.2731	-0.199
Mof_H 	H 	0.4361	0.6829	0.2858	0.114
Mof_H 	H 	0.4348	0.7255	0.2516	0.105
Mof_C 	C 	0.2993	0.7097	0.3214	-0.058
Mof_H 	H 	0.335	0.683	0.3355	0.056
Mof_C 	C 	0.3312	0.7352	0.2872	0.045
Mof_C 	C 	0.279	0.7743	0.2665	-0.054
Mof_C 	C 	0.1948	0.7879	0.28	-0
Mof_H 	H 	0.1591	0.8147	0.2659	0.021
Mof_C 	C 	0.1629	0.7625	0.3142	-0.019
Mof_H 	H 	0.1053	0.7718	0.3235	0.028
Mof_O 	O 	0.3977	0.9408	0.12788	-0.496
Mof_O 	O 	0.2616	0.91877	0.14375	-0.503
Mof_O 	O 	0.1066	0.0577	0.97314	-0.544
Mof_O 	O 	0.2412	0.0844	0.95969	-0.503
Mof_C 	C 	0.1892	0.0571	0.98177	0.335
Mof_C 	C 	0.2198	0.0291	0.018	-0.047
Mof_C 	C 	0.1608	0.0036	0.0441	0.097
Mof_C 	C 	0.3101	0.0271	0.0254	-0.002
Mof_N 	N 	0.0711	0.9977	0.0386	-0.216
Mof_C 	C 	0.1921	0.9762	0.0777	-0.034
Mof_H 	H 	0.3504	0.0445	0.0076	0.032
Mof_C 	C 	0.3414	0.9997	0.059	-0.026
Mof_H 	H 	0.0464	0.0107	0.0169	0.119
Mof_H 	H 	0.0385	0.981	0.0567	0.12
Mof_H 	H 	0.1518	0.9588	0.0956	0.042
Mof_C 	C 	0.2824	0.9742	0.0852	-0.022
Mof_H 	H 	0.4031	0.9983	0.0641	0.042
Mof_C 	C 	0.3155	0.9438	0.12134	0.298
Mof_N 	N 	0.4105	0.2116	0.7731	-0.199
Mof_H 	H 	0.4361	0.1829	0.7858	0.114
Mof_H 	H 	0.4348	0.2255	0.7516	0.105
Mof_C 	C 	0.2993	0.2097	0.8214	-0.058
Mof_H 	H 	0.335	0.183	0.8355	0.056
Mof_C 	C 	0.3312	0.2352	0.7872	0.045
Mof_C 	C 	0.279	0.2743	0.7665	-0.054
Mof_C 	C 	0.1948	0.2879	0.78	-0
Mof_H 	H 	0.1591	0.3147	0.7659	0.021
Mof_C 	C 	0.1629	0.2625	0.8142	-0.019
Mof_H 	H 	0.1053	0.2718	0.8235	0.028
Mof_In	In	0.375	0.375	0.67656	2.536
Mof_In	In	0.375	0.875	0.17656	2.536
Mof_In	In	0.875	0.375	0.17656	2.536
Mof_In	In	0.875	0.875	0.67656	2.536
Mof_In	In	0.625	0.625	0.92656	2.536
Mof_In	In	0.625	0.125	0.42656	2.536
Mof_In	In	0.125	0.625	0.42656	2.536
Mof_In	In	0.125	0.125	0.92656	2.536
_end
