data_functionalizedCrystal
_audit_creation_method	'EQeq! by Chris Wilmer'
_symmetry_space_group_name_H-M	'P1'
_symmetry_Int_Tables_number	1
_symmetry_cell_setting	triclinic
loop_
_symmetry_equiv_pos_as_xyz
  x,y,z
_cell_length_a	25.686
_cell_length_b	31.77
_cell_length_c	25.129
_cell_angle_alpha	90
_cell_angle_beta	90
_cell_angle_gamma	90
loop_
_atom_site_label
_atom_site_type_symbol
_atom_site_fract_x
_atom_site_fract_y
_atom_site_fract_z
_atom_site_charge
Mof_Mo	Mo	0.1957	0.02305	0.40609	0.989
Mof_Mo	Mo	0.335	0.17227	0.33934	1.008
Mof_Mo	Mo	0.20759	0.19747	0.36732	1.288
Mof_Mo	Mo	0.16164	0.07993	0.52642	1.014
Mof_Mo	Mo	0.29985	0.22884	0.45956	1.013
Mof_Mo	Mo	0.39511	0.04403	0.463	1.277
Mof_Mo	Mo	0.29508	0.01112	0.3819	1.08
Mof_Mo	Mo	0.31215	0.19319	0.55378	1.056
Mof_Mo	Mo	0.36471	0.09447	0.56939	1.272
Mof_Mo	Mo	0.37327	0.09513	0.34472	1.074
Mof_Mo	Mo	0.23416	0.10919	0.59101	1.058
Mof_Mo	Mo	0.13532	0.1201	0.40217	1.28
Mof_Zn	Zn	0.23562	0.09949	0.31447	1.207
Mof_Zn	Zn	0.2797	0.01695	0.52239	1.22
Mof_Zn	Zn	0.40608	0.15316	0.46173	1.222
Mof_Zn	Zn	0.18201	0.18692	0.50137	1.206
Mof_C 	C 	0.2517	0.1063	0.1988	0.019
Mof_H 	H 	0.2746	0.1276	0.2088	-0.032
Mof_C 	C 	0.252	0.094	0.1478	-0.08
Mof_H 	H 	0.274	0.107	0.1235	0.035
Mof_C 	C 	0.2189	0.0613	0.1313	-0.056
Mof_C 	C 	0.1834	0.0449	0.17	-0.087
Mof_H 	H 	0.1595	0.0242	0.1609	0.028
Mof_C 	C 	0.1856	0.0606	0.2211	0.026
Mof_H 	H 	0.1617	0.0504	0.2457	-0.038
Mof_C 	C 	0.2219	0.0416	0.0775	0.3
Mof_C 	C 	0.0817	0.1998	0.5502	0.041
Mof_H 	H 	0.0859	0.1718	0.5603	-0.036
Mof_C 	C 	0.0353	0.221	0.5602	-0.105
Mof_H 	H 	0.0082	0.2066	0.5767	0.05
Mof_C 	C 	0.0283	0.2614	0.5469	-0.03
Mof_C 	C 	0.0687	0.2824	0.5234	-0.12
Mof_H 	H 	0.0662	0.3105	0.5134	0.051
Mof_C 	C 	0.1133	0.2593	0.5153	0.068
Mof_H 	H 	0.1416	0.2735	0.5008	-0.053
Mof_C 	C 	0.977	0.283	0.5576	0.297
Mof_N 	N 	0.2199	0.0896	0.2374	-0.274
Mof_N 	N 	0.1196	0.2203	0.5259	-0.284
Mof_O 	O 	0.3484	0.0416	0.5268	-0.776
Mof_O 	O 	0.3056	0.0856	0.6074	-0.643
Mof_O 	O 	0.3669	0.1516	0.5778	-0.643
Mof_O 	O 	0.2493	0.2115	0.5132	-0.756
Mof_O 	O 	0.4184	0.0695	0.4016	-0.648
Mof_O 	O 	0.3408	0.2249	0.3891	-0.481
Mof_O 	O 	0.1163	0.1085	0.4704	-0.633
Mof_O 	O 	0.2656	0.1637	0.6015	-0.589
Mof_O 	O 	0.3556	0.0036	0.4334	-0.662
Mof_O 	O 	0.144	0.0653	0.3796	-0.642
Mof_O 	O 	0.2631	0.1919	0.322	-0.65
Mof_O 	O 	0.2356	0.2355	0.413	-0.652
Mof_O 	O 	0.2562	0.0061	0.4493	-0.731
Mof_O 	O 	0.2267	0.056	0.5521	-0.73
Mof_O 	O 	0.4013	0.1009	0.4989	-0.785
Mof_O 	O 	0.3865	0.1463	0.3864	-0.736
Mof_O 	O 	0.3085	0.1173	0.3157	-0.748
Mof_O 	O 	0.3555	0.1944	0.4902	-0.736
Mof_O 	O 	0.1579	0.0257	0.4794	-0.471
Mof_O 	O 	0.1889	0.1382	0.347	-0.79
Mof_O 	O 	0.164	0.1747	0.4274	-0.785
Mof_O 	O 	0.3429	0.0393	0.3375	-0.603
Mof_O 	O 	0.2397	0.0445	0.348	-0.749
Mof_O 	O 	0.1813	0.1372	0.5456	-0.751
Mof_O 	O 	0.2692	0.0338	0.0634	-0.474
Mof_O 	O 	0.1812	0.0334	0.0537	-0.313
Mof_O 	O 	0.9435	0.2641	0.5825	-0.324
Mof_O 	O 	0.9742	0.3201	0.5374	-0.478
Mof_Mo	Mo	0.6957	0.47695	0.59391	0.988
Mof_Mo	Mo	0.835	0.32773	0.66066	1.007
Mof_Mo	Mo	0.70759	0.30253	0.63268	1.288
Mof_Mo	Mo	0.66164	0.42007	0.47358	1.013
Mof_Mo	Mo	0.79985	0.27116	0.54044	1.012
Mof_Mo	Mo	0.89511	0.45597	0.537	1.276
Mof_Mo	Mo	0.79508	0.48888	0.6181	1.079
Mof_Mo	Mo	0.81215	0.30681	0.44622	1.055
Mof_Mo	Mo	0.86471	0.40553	0.43061	1.272
Mof_Mo	Mo	0.87327	0.40487	0.65528	1.073
Mof_Mo	Mo	0.73416	0.39081	0.40899	1.059
Mof_Mo	Mo	0.63532	0.3799	0.59783	1.281
Mof_Zn	Zn	0.73562	0.40051	0.68553	1.207
Mof_Zn	Zn	0.7797	0.48305	0.47761	1.22
Mof_Zn	Zn	0.90608	0.34684	0.53827	1.222
Mof_Zn	Zn	0.68201	0.31308	0.49863	1.206
Mof_C 	C 	0.7517	0.3937	0.8012	0.019
Mof_H 	H 	0.7746	0.3724	0.7912	-0.032
Mof_C 	C 	0.752	0.406	0.8522	-0.08
Mof_H 	H 	0.774	0.393	0.8765	0.034
Mof_C 	C 	0.7189	0.4387	0.8687	-0.056
Mof_C 	C 	0.6834	0.4551	0.83	-0.087
Mof_H 	H 	0.6595	0.4758	0.8391	0.028
Mof_C 	C 	0.6856	0.4394	0.7789	0.026
Mof_H 	H 	0.6617	0.4496	0.7543	-0.038
Mof_C 	C 	0.7219	0.4584	0.9225	0.3
Mof_C 	C 	0.5817	0.3002	0.4498	0.041
Mof_H 	H 	0.5859	0.3282	0.4397	-0.036
Mof_C 	C 	0.5353	0.279	0.4398	-0.105
Mof_H 	H 	0.5082	0.2934	0.4233	0.05
Mof_C 	C 	0.5283	0.2386	0.4531	-0.03
Mof_C 	C 	0.5687	0.2176	0.4766	-0.12
Mof_H 	H 	0.5662	0.1895	0.4866	0.051
Mof_C 	C 	0.6133	0.2407	0.4847	0.068
Mof_H 	H 	0.6416	0.2265	0.4992	-0.053
Mof_C 	C 	0.477	0.217	0.4424	0.297
Mof_N 	N 	0.7199	0.4104	0.7626	-0.274
Mof_N 	N 	0.6196	0.2797	0.4741	-0.284
Mof_O 	O 	0.8484	0.4584	0.4732	-0.776
Mof_O 	O 	0.8056	0.4144	0.3926	-0.643
Mof_O 	O 	0.8669	0.3484	0.4222	-0.643
Mof_O 	O 	0.7493	0.2885	0.4868	-0.756
Mof_O 	O 	0.9184	0.4305	0.5984	-0.648
Mof_O 	O 	0.8408	0.2751	0.6109	-0.481
Mof_O 	O 	0.6163	0.3915	0.5296	-0.633
Mof_O 	O 	0.7656	0.3363	0.3985	-0.589
Mof_O 	O 	0.8556	0.4964	0.5666	-0.662
Mof_O 	O 	0.644	0.4347	0.6204	-0.642
Mof_O 	O 	0.7631	0.3081	0.678	-0.65
Mof_O 	O 	0.7356	0.2645	0.587	-0.652
Mof_O 	O 	0.7562	0.4939	0.5507	-0.731
Mof_O 	O 	0.7267	0.444	0.4479	-0.73
Mof_O 	O 	0.9013	0.3991	0.5011	-0.785
Mof_O 	O 	0.8865	0.3537	0.6136	-0.736
Mof_O 	O 	0.8085	0.3827	0.6843	-0.748
Mof_O 	O 	0.8555	0.3056	0.5098	-0.736
Mof_O 	O 	0.6579	0.4743	0.5206	-0.471
Mof_O 	O 	0.6889	0.3618	0.653	-0.79
Mof_O 	O 	0.664	0.3253	0.5726	-0.785
Mof_O 	O 	0.8429	0.4607	0.6625	-0.603
Mof_O 	O 	0.7397	0.4555	0.652	-0.749
Mof_O 	O 	0.6813	0.3628	0.4544	-0.751
Mof_O 	O 	0.7692	0.4662	0.9366	-0.475
Mof_O 	O 	0.6812	0.4666	0.9463	-0.313
Mof_O 	O 	0.4435	0.2359	0.4175	-0.323
Mof_O 	O 	0.4742	0.1799	0.4626	-0.478
Mof_Mo	Mo	0.6957	0.52305	0.09391	0.988
Mof_Mo	Mo	0.835	0.67227	0.16066	1.007
Mof_Mo	Mo	0.70759	0.69747	0.13268	1.288
Mof_Mo	Mo	0.66164	0.57993	0.97358	1.012
Mof_Mo	Mo	0.79985	0.72884	0.04044	1.013
Mof_Mo	Mo	0.89511	0.54403	0.037	1.277
Mof_Mo	Mo	0.79508	0.51112	0.1181	1.079
Mof_Mo	Mo	0.81215	0.69319	0.94622	1.054
Mof_Mo	Mo	0.86471	0.59447	0.93061	1.271
Mof_Mo	Mo	0.87327	0.59513	0.15528	1.074
Mof_Mo	Mo	0.73416	0.60919	0.90899	1.058
Mof_Mo	Mo	0.63532	0.6201	0.09783	1.281
Mof_Zn	Zn	0.73562	0.59949	0.18553	1.207
Mof_Zn	Zn	0.7797	0.51695	0.97761	1.22
Mof_Zn	Zn	0.90608	0.65316	0.03827	1.222
Mof_Zn	Zn	0.68201	0.68692	0.99863	1.206
Mof_C 	C 	0.7517	0.6063	0.3012	0.019
Mof_H 	H 	0.7746	0.6276	0.2912	-0.031
Mof_C 	C 	0.752	0.594	0.3522	-0.08
Mof_H 	H 	0.774	0.607	0.3765	0.035
Mof_C 	C 	0.7189	0.5613	0.3687	-0.056
Mof_C 	C 	0.6834	0.5449	0.33	-0.087
Mof_H 	H 	0.6595	0.5242	0.3391	0.028
Mof_C 	C 	0.6856	0.5606	0.2789	0.026
Mof_H 	H 	0.6617	0.5504	0.2543	-0.038
Mof_C 	C 	0.7219	0.5416	0.4225	0.3
Mof_C 	C 	0.5817	0.6998	0.9498	0.041
Mof_H 	H 	0.5859	0.6718	0.9397	-0.036
Mof_C 	C 	0.5353	0.721	0.9398	-0.105
Mof_H 	H 	0.5082	0.7066	0.9233	0.05
Mof_C 	C 	0.5283	0.7614	0.9531	-0.03
Mof_C 	C 	0.5687	0.7824	0.9766	-0.12
Mof_H 	H 	0.5662	0.8105	0.9866	0.051
Mof_C 	C 	0.6133	0.7593	0.9847	0.068
Mof_H 	H 	0.6416	0.7735	0.9992	-0.053
Mof_C 	C 	0.477	0.783	0.9424	0.297
Mof_N 	N 	0.7199	0.5896	0.2626	-0.274
Mof_N 	N 	0.6196	0.7203	0.9741	-0.284
Mof_O 	O 	0.8484	0.5416	0.9732	-0.776
Mof_O 	O 	0.8056	0.5856	0.8926	-0.643
Mof_O 	O 	0.8669	0.6516	0.9222	-0.643
Mof_O 	O 	0.7493	0.7115	0.9868	-0.756
Mof_O 	O 	0.9184	0.5695	0.0984	-0.648
Mof_O 	O 	0.8408	0.7249	0.1109	-0.481
Mof_O 	O 	0.6163	0.6085	0.0296	-0.633
Mof_O 	O 	0.7656	0.6637	0.8985	-0.589
Mof_O 	O 	0.8556	0.5036	0.0666	-0.662
Mof_O 	O 	0.644	0.5653	0.1204	-0.642
Mof_O 	O 	0.7631	0.6919	0.178	-0.65
Mof_O 	O 	0.7356	0.7355	0.087	-0.652
Mof_O 	O 	0.7562	0.5061	0.0507	-0.731
Mof_O 	O 	0.7267	0.556	0.9479	-0.73
Mof_O 	O 	0.9013	0.6009	0.0011	-0.784
Mof_O 	O 	0.8865	0.6463	0.1136	-0.736
Mof_O 	O 	0.8085	0.6173	0.1843	-0.748
Mof_O 	O 	0.8555	0.6944	0.0098	-0.736
Mof_O 	O 	0.6579	0.5257	0.0206	-0.471
Mof_O 	O 	0.6889	0.6382	0.153	-0.79
Mof_O 	O 	0.664	0.6747	0.0726	-0.785
Mof_O 	O 	0.8429	0.5393	0.1625	-0.603
Mof_O 	O 	0.7397	0.5445	0.152	-0.749
Mof_O 	O 	0.6813	0.6372	0.9544	-0.751
Mof_O 	O 	0.7692	0.5338	0.4366	-0.475
Mof_O 	O 	0.6812	0.5334	0.4463	-0.313
Mof_O 	O 	0.4435	0.7641	0.9175	-0.323
Mof_O 	O 	0.4742	0.8201	0.9626	-0.478
Mof_Mo	Mo	0.1957	0.97695	0.90609	0.989
Mof_Mo	Mo	0.335	0.82773	0.83934	1.007
Mof_Mo	Mo	0.20759	0.80253	0.86732	1.288
Mof_Mo	Mo	0.16164	0.92007	0.02642	1.01
Mof_Mo	Mo	0.29985	0.77116	0.95956	1.014
Mof_Mo	Mo	0.39511	0.95597	0.963	1.277
Mof_Mo	Mo	0.29508	0.98888	0.8819	1.079
Mof_Mo	Mo	0.31215	0.80681	0.05378	1.054
Mof_Mo	Mo	0.36471	0.90553	0.06939	1.271
Mof_Mo	Mo	0.37327	0.90487	0.84472	1.074
Mof_Mo	Mo	0.23416	0.89081	0.09101	1.058
Mof_Mo	Mo	0.13532	0.8799	0.90217	1.281
Mof_Zn	Zn	0.23562	0.90051	0.81447	1.207
Mof_Zn	Zn	0.2797	0.98305	0.02239	1.22
Mof_Zn	Zn	0.40608	0.84684	0.96173	1.222
Mof_Zn	Zn	0.18201	0.81308	0.00137	1.205
Mof_C 	C 	0.2517	0.8937	0.6988	0.019
Mof_H 	H 	0.2746	0.8724	0.7088	-0.031
Mof_C 	C 	0.252	0.906	0.6478	-0.08
Mof_H 	H 	0.274	0.893	0.6235	0.035
Mof_C 	C 	0.2189	0.9387	0.6313	-0.056
Mof_C 	C 	0.1834	0.9551	0.67	-0.087
Mof_H 	H 	0.1595	0.9758	0.6609	0.028
Mof_C 	C 	0.1856	0.9394	0.7211	0.026
Mof_H 	H 	0.1617	0.9496	0.7457	-0.038
Mof_C 	C 	0.2219	0.9584	0.5775	0.3
Mof_C 	C 	0.0817	0.8002	0.0502	0.04
Mof_H 	H 	0.0859	0.8282	0.0603	-0.036
Mof_C 	C 	0.0353	0.779	0.0602	-0.103
Mof_H 	H 	0.0082	0.7934	0.0767	0.049
Mof_C 	C 	0.0283	0.7386	0.0469	-0.032
Mof_C 	C 	0.0687	0.7176	0.0234	-0.119
Mof_H 	H 	0.0662	0.6895	0.0134	0.05
Mof_C 	C 	0.1133	0.7407	0.0153	0.067
Mof_H 	H 	0.1416	0.7265	0.0008	-0.053
Mof_C 	C 	0.977	0.717	0.0576	0.299
Mof_N 	N 	0.2199	0.9104	0.7374	-0.274
Mof_N 	N 	0.1196	0.7797	0.0259	-0.284
Mof_O 	O 	0.3484	0.9584	0.0268	-0.776
Mof_O 	O 	0.3056	0.9144	0.1074	-0.643
Mof_O 	O 	0.3669	0.8484	0.0778	-0.643
Mof_O 	O 	0.2493	0.7885	0.0132	-0.756
Mof_O 	O 	0.4184	0.9305	0.9016	-0.648
Mof_O 	O 	0.3408	0.7751	0.8891	-0.481
Mof_O 	O 	0.1163	0.8915	0.9704	-0.631
Mof_O 	O 	0.2656	0.8363	0.1015	-0.589
Mof_O 	O 	0.3556	0.9964	0.9334	-0.662
Mof_O 	O 	0.144	0.9347	0.8796	-0.642
Mof_O 	O 	0.2631	0.8081	0.822	-0.65
Mof_O 	O 	0.2356	0.7645	0.913	-0.651
Mof_O 	O 	0.2562	0.9939	0.9493	-0.731
Mof_O 	O 	0.2267	0.944	0.0521	-0.73
Mof_O 	O 	0.4013	0.8991	0.9989	-0.784
Mof_O 	O 	0.3865	0.8537	0.8864	-0.736
Mof_O 	O 	0.3085	0.8827	0.8157	-0.748
Mof_O 	O 	0.3555	0.8056	0.9902	-0.736
Mof_O 	O 	0.1579	0.9743	0.9794	-0.47
Mof_O 	O 	0.1889	0.8618	0.847	-0.79
Mof_O 	O 	0.164	0.8253	0.9274	-0.785
Mof_O 	O 	0.3429	0.9607	0.8375	-0.603
Mof_O 	O 	0.2397	0.9555	0.848	-0.749
Mof_O 	O 	0.1813	0.8628	0.0456	-0.751
Mof_O 	O 	0.2692	0.9662	0.5634	-0.475
Mof_O 	O 	0.1812	0.9666	0.5537	-0.313
Mof_O 	O 	0.9435	0.7359	0.0825	-0.324
Mof_O 	O 	0.9742	0.6799	0.0374	-0.478
Mof_Mo	Mo	0.3043	0.47695	0.90609	0.988
Mof_Mo	Mo	0.165	0.32773	0.83934	1.007
Mof_Mo	Mo	0.29241	0.30253	0.86732	1.288
Mof_Mo	Mo	0.33836	0.42007	0.02642	1.012
Mof_Mo	Mo	0.20015	0.27116	0.95956	1.013
Mof_Mo	Mo	0.10489	0.45597	0.963	1.277
Mof_Mo	Mo	0.20492	0.48888	0.8819	1.079
Mof_Mo	Mo	0.18785	0.30681	0.05378	1.054
Mof_Mo	Mo	0.13529	0.40553	0.06939	1.271
Mof_Mo	Mo	0.12673	0.40487	0.84472	1.074
Mof_Mo	Mo	0.26584	0.39081	0.09101	1.058
Mof_Mo	Mo	0.36468	0.3799	0.90217	1.281
Mof_Zn	Zn	0.26438	0.40051	0.81447	1.207
Mof_Zn	Zn	0.2203	0.48305	0.02239	1.22
Mof_Zn	Zn	0.09392	0.34684	0.96173	1.222
Mof_Zn	Zn	0.31799	0.31308	0.00137	1.206
Mof_C 	C 	0.2483	0.3937	0.6988	0.019
Mof_H 	H 	0.2254	0.3724	0.7088	-0.031
Mof_C 	C 	0.248	0.406	0.6478	-0.08
Mof_H 	H 	0.226	0.393	0.6235	0.035
Mof_C 	C 	0.2811	0.4387	0.6313	-0.056
Mof_C 	C 	0.3166	0.4551	0.67	-0.087
Mof_H 	H 	0.3405	0.4758	0.6609	0.028
Mof_C 	C 	0.3144	0.4394	0.7211	0.026
Mof_H 	H 	0.3383	0.4496	0.7457	-0.038
Mof_C 	C 	0.2781	0.4584	0.5775	0.3
Mof_C 	C 	0.4183	0.3002	0.0502	0.041
Mof_H 	H 	0.4141	0.3282	0.0603	-0.036
Mof_C 	C 	0.4647	0.279	0.0602	-0.105
Mof_H 	H 	0.4918	0.2934	0.0767	0.05
Mof_C 	C 	0.4717	0.2386	0.0469	-0.03
Mof_C 	C 	0.4313	0.2176	0.0234	-0.12
Mof_H 	H 	0.4338	0.1895	0.0134	0.051
Mof_C 	C 	0.3867	0.2407	0.0153	0.068
Mof_H 	H 	0.3584	0.2265	0.0008	-0.053
Mof_C 	C 	0.523	0.217	0.0576	0.297
Mof_N 	N 	0.2801	0.4104	0.7374	-0.274
Mof_N 	N 	0.3804	0.2797	0.0259	-0.284
Mof_O 	O 	0.1516	0.4584	0.0268	-0.776
Mof_O 	O 	0.1944	0.4144	0.1074	-0.643
Mof_O 	O 	0.1331	0.3484	0.0778	-0.643
Mof_O 	O 	0.2507	0.2885	0.0132	-0.756
Mof_O 	O 	0.0816	0.4305	0.9016	-0.648
Mof_O 	O 	0.1592	0.2751	0.8891	-0.481
Mof_O 	O 	0.3837	0.3915	0.9704	-0.633
Mof_O 	O 	0.2344	0.3363	0.1015	-0.589
Mof_O 	O 	0.1444	0.4964	0.9334	-0.662
Mof_O 	O 	0.356	0.4347	0.8796	-0.642
Mof_O 	O 	0.2369	0.3081	0.822	-0.65
Mof_O 	O 	0.2644	0.2645	0.913	-0.652
Mof_O 	O 	0.2438	0.4939	0.9493	-0.731
Mof_O 	O 	0.2733	0.444	0.0521	-0.73
Mof_O 	O 	0.0987	0.3991	0.9989	-0.784
Mof_O 	O 	0.1135	0.3537	0.8864	-0.736
Mof_O 	O 	0.1915	0.3827	0.8157	-0.748
Mof_O 	O 	0.1445	0.3056	0.9902	-0.736
Mof_O 	O 	0.3421	0.4743	0.9794	-0.471
Mof_O 	O 	0.3111	0.3618	0.847	-0.79
Mof_O 	O 	0.336	0.3253	0.9274	-0.785
Mof_O 	O 	0.1571	0.4607	0.8375	-0.603
Mof_O 	O 	0.2603	0.4555	0.848	-0.749
Mof_O 	O 	0.3187	0.3628	0.0456	-0.751
Mof_O 	O 	0.2308	0.4662	0.5634	-0.475
Mof_O 	O 	0.3188	0.4666	0.5537	-0.313
Mof_O 	O 	0.5565	0.2359	0.0825	-0.323
Mof_O 	O 	0.5258	0.1799	0.0374	-0.478
Mof_Mo	Mo	0.8043	0.02305	0.09391	0.989
Mof_Mo	Mo	0.665	0.17227	0.16066	1.007
Mof_Mo	Mo	0.79241	0.19747	0.13268	1.288
Mof_Mo	Mo	0.83836	0.07993	0.97358	1.01
Mof_Mo	Mo	0.70015	0.22884	0.04044	1.014
Mof_Mo	Mo	0.60489	0.04403	0.037	1.277
Mof_Mo	Mo	0.70492	0.01112	0.1181	1.079
Mof_Mo	Mo	0.68785	0.19319	0.94622	1.054
Mof_Mo	Mo	0.63529	0.09447	0.93061	1.271
Mof_Mo	Mo	0.62673	0.09513	0.15528	1.074
Mof_Mo	Mo	0.76584	0.10919	0.90899	1.058
Mof_Mo	Mo	0.86468	0.1201	0.09783	1.281
Mof_Zn	Zn	0.76438	0.09949	0.18553	1.207
Mof_Zn	Zn	0.7203	0.01695	0.97761	1.22
Mof_Zn	Zn	0.59392	0.15316	0.03827	1.222
Mof_Zn	Zn	0.81799	0.18692	0.99863	1.205
Mof_C 	C 	0.7483	0.1063	0.3012	0.019
Mof_H 	H 	0.7254	0.1276	0.2912	-0.031
Mof_C 	C 	0.748	0.094	0.3522	-0.08
Mof_H 	H 	0.726	0.107	0.3765	0.035
Mof_C 	C 	0.7811	0.0613	0.3687	-0.056
Mof_C 	C 	0.8166	0.0449	0.33	-0.087
Mof_H 	H 	0.8405	0.0242	0.3391	0.028
Mof_C 	C 	0.8144	0.0606	0.2789	0.026
Mof_H 	H 	0.8383	0.0504	0.2543	-0.038
Mof_C 	C 	0.7781	0.0416	0.4225	0.3
Mof_C 	C 	0.9183	0.1998	0.9498	0.04
Mof_H 	H 	0.9141	0.1718	0.9397	-0.036
Mof_C 	C 	0.9647	0.221	0.9398	-0.103
Mof_H 	H 	0.9918	0.2066	0.9233	0.049
Mof_C 	C 	0.9717	0.2614	0.9531	-0.032
Mof_C 	C 	0.9313	0.2824	0.9766	-0.119
Mof_H 	H 	0.9338	0.3105	0.9866	0.05
Mof_C 	C 	0.8867	0.2593	0.9847	0.067
Mof_H 	H 	0.8584	0.2735	0.9992	-0.053
Mof_C 	C 	0.023	0.283	0.9424	0.299
Mof_N 	N 	0.7801	0.0896	0.2626	-0.274
Mof_N 	N 	0.8804	0.2203	0.9741	-0.284
Mof_O 	O 	0.6516	0.0416	0.9732	-0.776
Mof_O 	O 	0.6944	0.0856	0.8926	-0.643
Mof_O 	O 	0.6331	0.1516	0.9222	-0.643
Mof_O 	O 	0.7507	0.2115	0.9868	-0.756
Mof_O 	O 	0.5816	0.0695	0.0984	-0.648
Mof_O 	O 	0.6592	0.2249	0.1109	-0.481
Mof_O 	O 	0.8837	0.1085	0.0296	-0.631
Mof_O 	O 	0.7344	0.1637	0.8985	-0.589
Mof_O 	O 	0.6444	0.0036	0.0666	-0.662
Mof_O 	O 	0.856	0.0653	0.1204	-0.642
Mof_O 	O 	0.7369	0.1919	0.178	-0.65
Mof_O 	O 	0.7644	0.2355	0.087	-0.651
Mof_O 	O 	0.7438	0.0061	0.0507	-0.731
Mof_O 	O 	0.7733	0.056	0.9479	-0.73
Mof_O 	O 	0.5987	0.1009	0.0011	-0.784
Mof_O 	O 	0.6135	0.1463	0.1136	-0.736
Mof_O 	O 	0.6915	0.1173	0.1843	-0.748
Mof_O 	O 	0.6445	0.1944	0.0098	-0.736
Mof_O 	O 	0.8421	0.0257	0.0206	-0.47
Mof_O 	O 	0.8111	0.1382	0.153	-0.79
Mof_O 	O 	0.836	0.1747	0.0726	-0.785
Mof_O 	O 	0.6571	0.0393	0.1625	-0.603
Mof_O 	O 	0.7603	0.0445	0.152	-0.749
Mof_O 	O 	0.8187	0.1372	0.9544	-0.751
Mof_O 	O 	0.7308	0.0338	0.4366	-0.475
Mof_O 	O 	0.8188	0.0334	0.4463	-0.313
Mof_O 	O 	0.0565	0.2641	0.9175	-0.324
Mof_O 	O 	0.0258	0.3201	0.9626	-0.478
Mof_Mo	Mo	0.8043	0.97695	0.59391	0.988
Mof_Mo	Mo	0.665	0.82773	0.66066	1.007
Mof_Mo	Mo	0.79241	0.80253	0.63268	1.287
Mof_Mo	Mo	0.83836	0.92007	0.47358	1.013
Mof_Mo	Mo	0.70015	0.77116	0.54044	1.012
Mof_Mo	Mo	0.60489	0.95597	0.537	1.276
Mof_Mo	Mo	0.70492	0.98888	0.6181	1.079
Mof_Mo	Mo	0.68785	0.80681	0.44622	1.055
Mof_Mo	Mo	0.63529	0.90553	0.43061	1.272
Mof_Mo	Mo	0.62673	0.90487	0.65528	1.074
Mof_Mo	Mo	0.76584	0.89081	0.40899	1.058
Mof_Mo	Mo	0.86468	0.8799	0.59783	1.28
Mof_Zn	Zn	0.76438	0.90051	0.68553	1.207
Mof_Zn	Zn	0.7203	0.98305	0.47761	1.22
Mof_Zn	Zn	0.59392	0.84684	0.53827	1.222
Mof_Zn	Zn	0.81799	0.81308	0.49863	1.206
Mof_C 	C 	0.7483	0.8937	0.8012	0.019
Mof_H 	H 	0.7254	0.8724	0.7912	-0.032
Mof_C 	C 	0.748	0.906	0.8522	-0.08
Mof_H 	H 	0.726	0.893	0.8765	0.035
Mof_C 	C 	0.7811	0.9387	0.8687	-0.056
Mof_C 	C 	0.8166	0.9551	0.83	-0.087
Mof_H 	H 	0.8405	0.9758	0.8391	0.028
Mof_C 	C 	0.8144	0.9394	0.7789	0.026
Mof_H 	H 	0.8383	0.9496	0.7543	-0.038
Mof_C 	C 	0.7781	0.9584	0.9225	0.3
Mof_C 	C 	0.9183	0.8002	0.4498	0.041
Mof_H 	H 	0.9141	0.8282	0.4397	-0.036
Mof_C 	C 	0.9647	0.779	0.4398	-0.105
Mof_H 	H 	0.9918	0.7934	0.4233	0.05
Mof_C 	C 	0.9717	0.7386	0.4531	-0.03
Mof_C 	C 	0.9313	0.7176	0.4766	-0.12
Mof_H 	H 	0.9338	0.6895	0.4866	0.051
Mof_C 	C 	0.8867	0.7407	0.4847	0.068
Mof_H 	H 	0.8584	0.7265	0.4992	-0.053
Mof_C 	C 	0.023	0.717	0.4424	0.297
Mof_N 	N 	0.7801	0.9104	0.7626	-0.274
Mof_N 	N 	0.8804	0.7797	0.4741	-0.284
Mof_O 	O 	0.6516	0.9584	0.4732	-0.776
Mof_O 	O 	0.6944	0.9144	0.3926	-0.643
Mof_O 	O 	0.6331	0.8484	0.4222	-0.643
Mof_O 	O 	0.7507	0.7885	0.4868	-0.756
Mof_O 	O 	0.5816	0.9305	0.5984	-0.648
Mof_O 	O 	0.6592	0.7751	0.6109	-0.481
Mof_O 	O 	0.8837	0.8915	0.5296	-0.633
Mof_O 	O 	0.7344	0.8363	0.3985	-0.589
Mof_O 	O 	0.6444	0.9964	0.5666	-0.662
Mof_O 	O 	0.856	0.9347	0.6204	-0.642
Mof_O 	O 	0.7369	0.8081	0.678	-0.65
Mof_O 	O 	0.7644	0.7645	0.587	-0.652
Mof_O 	O 	0.7438	0.9939	0.5507	-0.731
Mof_O 	O 	0.7733	0.944	0.4479	-0.73
Mof_O 	O 	0.5987	0.8991	0.5011	-0.785
Mof_O 	O 	0.6135	0.8537	0.6136	-0.736
Mof_O 	O 	0.6915	0.8827	0.6843	-0.748
Mof_O 	O 	0.6445	0.8056	0.5098	-0.736
Mof_O 	O 	0.8421	0.9743	0.5206	-0.471
Mof_O 	O 	0.8111	0.8618	0.653	-0.79
Mof_O 	O 	0.836	0.8253	0.5726	-0.785
Mof_O 	O 	0.6571	0.9607	0.6625	-0.603
Mof_O 	O 	0.7603	0.9555	0.652	-0.749
Mof_O 	O 	0.8187	0.8628	0.4544	-0.751
Mof_O 	O 	0.7308	0.9662	0.9366	-0.474
Mof_O 	O 	0.8188	0.9666	0.9463	-0.313
Mof_O 	O 	0.0565	0.7359	0.4175	-0.324
Mof_O 	O 	0.0258	0.6799	0.4626	-0.478
Mof_Mo	Mo	0.3043	0.52305	0.40609	0.988
Mof_Mo	Mo	0.165	0.67227	0.33934	1.007
Mof_Mo	Mo	0.29241	0.69747	0.36732	1.288
Mof_Mo	Mo	0.33836	0.57993	0.52642	1.013
Mof_Mo	Mo	0.20015	0.72884	0.45956	1.012
Mof_Mo	Mo	0.10489	0.54403	0.463	1.276
Mof_Mo	Mo	0.20492	0.51112	0.3819	1.079
Mof_Mo	Mo	0.18785	0.69319	0.55378	1.055
Mof_Mo	Mo	0.13529	0.59447	0.56939	1.272
Mof_Mo	Mo	0.12673	0.59513	0.34472	1.073
Mof_Mo	Mo	0.26584	0.60919	0.59101	1.059
Mof_Mo	Mo	0.36468	0.6201	0.40217	1.281
Mof_Zn	Zn	0.26438	0.59949	0.31447	1.207
Mof_Zn	Zn	0.2203	0.51695	0.52239	1.22
Mof_Zn	Zn	0.09392	0.65316	0.46173	1.222
Mof_Zn	Zn	0.31799	0.68692	0.50137	1.206
Mof_C 	C 	0.2483	0.6063	0.1988	0.019
Mof_H 	H 	0.2254	0.6276	0.2088	-0.032
Mof_C 	C 	0.248	0.594	0.1478	-0.08
Mof_H 	H 	0.226	0.607	0.1235	0.034
Mof_C 	C 	0.2811	0.5613	0.1313	-0.056
Mof_C 	C 	0.3166	0.5449	0.17	-0.087
Mof_H 	H 	0.3405	0.5242	0.1609	0.028
Mof_C 	C 	0.3144	0.5606	0.2211	0.026
Mof_H 	H 	0.3383	0.5504	0.2457	-0.038
Mof_C 	C 	0.2781	0.5416	0.0775	0.3
Mof_C 	C 	0.4183	0.6998	0.5502	0.041
Mof_H 	H 	0.4141	0.6718	0.5603	-0.036
Mof_C 	C 	0.4647	0.721	0.5602	-0.105
Mof_H 	H 	0.4918	0.7066	0.5767	0.05
Mof_C 	C 	0.4717	0.7614	0.5469	-0.03
Mof_C 	C 	0.4313	0.7824	0.5234	-0.12
Mof_H 	H 	0.4338	0.8105	0.5134	0.051
Mof_C 	C 	0.3867	0.7593	0.5153	0.068
Mof_H 	H 	0.3584	0.7735	0.5008	-0.053
Mof_C 	C 	0.523	0.783	0.5576	0.297
Mof_N 	N 	0.2801	0.5896	0.2374	-0.274
Mof_N 	N 	0.3804	0.7203	0.5259	-0.284
Mof_O 	O 	0.1516	0.5416	0.5268	-0.776
Mof_O 	O 	0.1944	0.5856	0.6074	-0.643
Mof_O 	O 	0.1331	0.6516	0.5778	-0.643
Mof_O 	O 	0.2507	0.7115	0.5132	-0.756
Mof_O 	O 	0.0816	0.5695	0.4016	-0.648
Mof_O 	O 	0.1592	0.7249	0.3891	-0.481
Mof_O 	O 	0.3837	0.6085	0.4704	-0.633
Mof_O 	O 	0.2344	0.6637	0.6015	-0.589
Mof_O 	O 	0.1444	0.5036	0.4334	-0.662
Mof_O 	O 	0.356	0.5653	0.3796	-0.642
Mof_O 	O 	0.2369	0.6919	0.322	-0.65
Mof_O 	O 	0.2644	0.7355	0.413	-0.652
Mof_O 	O 	0.2438	0.5061	0.4493	-0.731
Mof_O 	O 	0.2733	0.556	0.5521	-0.73
Mof_O 	O 	0.0987	0.6009	0.4989	-0.785
Mof_O 	O 	0.1135	0.6463	0.3864	-0.736
Mof_O 	O 	0.1915	0.6173	0.3157	-0.748
Mof_O 	O 	0.1445	0.6944	0.4902	-0.736
Mof_O 	O 	0.3421	0.5257	0.4794	-0.471
Mof_O 	O 	0.3111	0.6382	0.347	-0.79
Mof_O 	O 	0.336	0.6747	0.4274	-0.785
Mof_O 	O 	0.1571	0.5393	0.3375	-0.603
Mof_O 	O 	0.2603	0.5445	0.348	-0.749
Mof_O 	O 	0.3187	0.6372	0.5456	-0.751
Mof_O 	O 	0.2308	0.5338	0.0634	-0.475
Mof_O 	O 	0.3188	0.5334	0.0537	-0.313
Mof_O 	O 	0.5565	0.7641	0.5825	-0.323
Mof_O 	O 	0.5258	0.8201	0.5374	-0.478
_end
