data_functionalizedCrystal
_audit_creation_method	'EQeq! by Chris Wilmer'
_symmetry_space_group_name_H-M	'P1'
_symmetry_Int_Tables_number	1
_symmetry_cell_setting	triclinic
loop_
_symmetry_equiv_pos_as_xyz
  x,y,z
_cell_length_a	13.0735
_cell_length_b	13.0828
_cell_length_c	15.6584
_cell_angle_alpha	82.741
_cell_angle_beta	68.059
_cell_angle_gamma	84.188
loop_
_atom_site_label
_atom_site_type_symbol
_atom_site_fract_x
_atom_site_fract_y
_atom_site_fract_z
_atom_site_charge
Mof_Zn	Zn	0.92263	0.69994	0.83111	1.216
Mof_Zn	Zn	0.03486	0.69837	0.62769	1.219
Mof_O 	O 	0.9441	0.8512	0.7847	-0.471
Mof_O 	O 	0.0207	0.8525	0.6315	-0.461
Mof_O 	O 	0.9369	0.5438	0.8158	-0.459
Mof_O 	O 	0.0286	0.5435	0.664	-0.46
Mof_O 	O 	0.7897	0.7097	0.7932	-0.466
Mof_O 	O 	0.8731	0.7006	0.6414	-0.473
Mof_O 	O 	0.0804	0.6861	0.8275	-0.457
Mof_O 	O 	0.1611	0.696	0.6739	-0.467
Mof_N 	N 	0.851	0.6822	0.972	-0.266
Mof_N 	N 	0.125	0.6839	0.4923	-0.26
Mof_C 	C 	0.7534	0.7221	0.0234	0.11
Mof_H 	H 	0.7153	0.7718	0.9946	-0.017
Mof_C 	C 	0.704	0.6942	0.1185	-0.187
Mof_H 	H 	0.6347	0.726	0.1533	0.09
Mof_C 	C 	0.7563	0.6205	0.1615	0.152
Mof_C 	C 	0.8586	0.582	0.1082	-0.193
Mof_H 	H 	0.8995	0.5337	0.1354	0.108
Mof_C 	C 	0.9016	0.6132	0.0158	0.114
Mof_H 	H 	0.9721	0.584	0.9804	-0.012
Mof_C 	C 	0.7094	0.5782	0.2594	-0.129
Mof_H 	H 	0.7587	0.541	0.2854	0.081
Mof_C 	C 	0.606	0.5881	0.3128	-0.018
Mof_H 	H 	0.5579	0.6287	0.2873	0.035
Mof_C 	C 	0.4425	0.5573	0.4519	-0.057
Mof_H 	H 	0.4017	0.5969	0.4189	0.053
Mof_C 	C 	0.5562	0.5422	0.4091	0.025
Mof_C 	C 	0.6125	0.4838	0.459	-0.056
Mof_H 	H 	0.6903	0.4718	0.4314	0.055
Mof_C 	C 	0.1884	0.7573	0.4367	0.103
Mof_H 	H 	0.1845	0.8221	0.4595	-0.007
Mof_C 	C 	0.2588	0.7434	0.3482	-0.175
Mof_H 	H 	0.3029	0.7978	0.3114	0.09
Mof_C 	C 	0.266	0.6503	0.3124	0.128
Mof_C 	C 	0.1996	0.573	0.3705	-0.166
Mof_H 	H 	0.2013	0.5077	0.3493	0.095
Mof_C 	C 	0.1319	0.5931	0.4586	0.092
Mof_H 	H 	0.0877	0.5399	0.4977	-0.002
Mof_C 	C 	0.3448	0.6315	0.2196	-0.112
Mof_H 	H 	0.4036	0.6763	0.1912	0.065
Mof_C 	C 	0.3391	0.5565	0.173	-0.035
Mof_H 	H 	0.2763	0.5162	0.1996	0.049
Mof_C 	C 	0.5276	0.5653	0.0496	-0.056
Mof_H 	H 	0.5471	0.6103	0.0834	0.05
Mof_C 	C 	0.4209	0.5298	0.0836	0.03
Mof_C 	C 	0.3949	0.4647	0.0331	-0.061
Mof_H 	H 	0.3228	0.4399	0.0553	0.055
Mof_C 	C 	0.9863	0.8953	0.7048	0.389
Mof_C 	C 	0.9943	0.01	0.6961	-0.086
Mof_C 	C 	0.954	0.0622	0.7724	-0.03
Mof_H 	H 	0.9193	0.0254	0.8311	0.056
Mof_C 	C 	0.962	0.1698	0.7671	0.026
Mof_C 	C 	0.0163	0.2235	0.6796	0.024
Mof_C 	C 	0.0563	0.1678	0.6005	-0.087
Mof_H 	H 	0.0911	0.2031	0.5412	0.063
Mof_C 	C 	0.0455	0.0642	0.6084	0.016
Mof_H 	H 	0.0726	0.0281	0.5546	0.042
Mof_C 	C 	0.9166	0.226	0.8452	-0.087
Mof_H 	H 	0.88	0.1905	0.9041	0.061
Mof_C 	C 	0.9238	0.3297	0.8384	0.019
Mof_H 	H 	0.8919	0.3659	0.8921	0.036
Mof_C 	C 	0.9786	0.3837	0.7517	-0.091
Mof_C 	C 	0.0237	0.3309	0.6744	-0.027
Mof_H 	H 	0.0605	0.3676	0.6161	0.054
Mof_C 	C 	0.982	0.4993	0.7433	0.377
Mof_C 	C 	0.7899	0.7065	0.7125	0.389
Mof_C 	C 	0.6789	0.7069	0.7044	-0.097
Mof_C 	C 	0.6709	0.7081	0.6176	0.023
Mof_H 	H 	0.7359	0.7096	0.5634	0.033
Mof_C 	C 	0.5702	0.707	0.6104	-0.09
Mof_H 	H 	0.566	0.7098	0.5509	0.065
Mof_C 	C 	0.4724	0.7018	0.6894	0.026
Mof_C 	C 	0.4801	0.6974	0.7777	0.024
Mof_C 	C 	0.5852	0.7011	0.7826	-0.027
Mof_H 	H 	0.5912	0.6996	0.8414	0.055
Mof_C 	C 	0.3669	0.7009	0.6836	-0.028
Mof_H 	H 	0.3607	0.7066	0.6246	0.056
Mof_C 	C 	0.2742	0.6921	0.7615	-0.091
Mof_C 	C 	0.2831	0.6841	0.8489	0.021
Mof_H 	H 	0.2186	0.6765	0.9031	0.038
Mof_C 	C 	0.3828	0.687	0.8569	-0.087
Mof_H 	H 	0.387	0.682	0.9166	0.064
Mof_C 	C 	0.1636	0.6917	0.7538	0.382
Mof_Zn	Zn	0.07737	0.30006	0.16889	1.215
Mof_Zn	Zn	0.96514	0.30163	0.37231	1.218
Mof_O 	O 	0.0559	0.1488	0.2153	-0.472
Mof_O 	O 	0.9793	0.1475	0.3685	-0.462
Mof_O 	O 	0.0631	0.4562	0.1842	-0.46
Mof_O 	O 	0.9714	0.4565	0.336	-0.461
Mof_O 	O 	0.2103	0.2903	0.2068	-0.466
Mof_O 	O 	0.1269	0.2994	0.3586	-0.473
Mof_O 	O 	0.9196	0.3139	0.1725	-0.457
Mof_O 	O 	0.8389	0.304	0.3261	-0.467
Mof_N 	N 	0.149	0.3178	0.028	-0.266
Mof_N 	N 	0.875	0.3161	0.5077	-0.26
Mof_C 	C 	0.2466	0.2779	0.9766	0.11
Mof_H 	H 	0.2847	0.2282	0.0054	-0.017
Mof_C 	C 	0.296	0.3058	0.8815	-0.187
Mof_H 	H 	0.3653	0.274	0.8467	0.09
Mof_C 	C 	0.2437	0.3795	0.8385	0.152
Mof_C 	C 	0.1414	0.418	0.8918	-0.193
Mof_H 	H 	0.1005	0.4663	0.8646	0.108
Mof_C 	C 	0.0984	0.3868	0.9842	0.114
Mof_H 	H 	0.0279	0.416	0.0196	-0.012
Mof_C 	C 	0.2906	0.4218	0.7406	-0.129
Mof_H 	H 	0.2413	0.459	0.7146	0.081
Mof_C 	C 	0.394	0.4119	0.6872	-0.018
Mof_H 	H 	0.4421	0.3713	0.7127	0.035
Mof_C 	C 	0.5575	0.4427	0.5481	-0.057
Mof_H 	H 	0.5983	0.4031	0.5811	0.053
Mof_C 	C 	0.4438	0.4578	0.5909	0.025
Mof_C 	C 	0.3875	0.5162	0.541	-0.056
Mof_H 	H 	0.3097	0.5282	0.5686	0.055
Mof_C 	C 	0.8116	0.2427	0.5633	0.103
Mof_H 	H 	0.8155	0.1779	0.5405	-0.007
Mof_C 	C 	0.7412	0.2566	0.6518	-0.175
Mof_H 	H 	0.6971	0.2022	0.6886	0.09
Mof_C 	C 	0.734	0.3497	0.6876	0.128
Mof_C 	C 	0.8004	0.427	0.6295	-0.166
Mof_H 	H 	0.7987	0.4923	0.6507	0.095
Mof_C 	C 	0.8681	0.4069	0.5414	0.092
Mof_H 	H 	0.9123	0.4601	0.5023	-0.002
Mof_C 	C 	0.6552	0.3685	0.7804	-0.112
Mof_H 	H 	0.5964	0.3237	0.8088	0.065
Mof_C 	C 	0.6609	0.4435	0.827	-0.035
Mof_H 	H 	0.7237	0.4838	0.8004	0.049
Mof_C 	C 	0.4724	0.4347	0.9504	-0.056
Mof_H 	H 	0.4529	0.3897	0.9166	0.05
Mof_C 	C 	0.5791	0.4702	0.9164	0.03
Mof_C 	C 	0.6051	0.5353	0.9669	-0.061
Mof_H 	H 	0.6772	0.5601	0.9447	0.055
Mof_C 	C 	0.0137	0.1047	0.2952	0.389
Mof_C 	C 	0.0057	0.99	0.3039	-0.086
Mof_C 	C 	0.046	0.9378	0.2276	-0.03
Mof_H 	H 	0.0807	0.9746	0.1689	0.056
Mof_C 	C 	0.038	0.8302	0.2329	0.026
Mof_C 	C 	0.9837	0.7765	0.3204	0.024
Mof_C 	C 	0.9437	0.8322	0.3995	-0.087
Mof_H 	H 	0.9089	0.7969	0.4588	0.063
Mof_C 	C 	0.9545	0.9358	0.3916	0.016
Mof_H 	H 	0.9274	0.9719	0.4454	0.042
Mof_C 	C 	0.0834	0.774	0.1548	-0.087
Mof_H 	H 	0.12	0.8095	0.0959	0.061
Mof_C 	C 	0.0762	0.6703	0.1616	0.019
Mof_H 	H 	0.1081	0.6341	0.1079	0.036
Mof_C 	C 	0.0214	0.6163	0.2483	-0.091
Mof_C 	C 	0.9763	0.6691	0.3256	-0.027
Mof_H 	H 	0.9395	0.6324	0.3839	0.054
Mof_C 	C 	0.018	0.5007	0.2567	0.377
Mof_C 	C 	0.2101	0.2935	0.2875	0.389
Mof_C 	C 	0.3211	0.2931	0.2956	-0.097
Mof_C 	C 	0.3291	0.2919	0.3824	0.023
Mof_H 	H 	0.2641	0.2904	0.4366	0.033
Mof_C 	C 	0.4298	0.293	0.3896	-0.09
Mof_H 	H 	0.434	0.2902	0.4491	0.065
Mof_C 	C 	0.5276	0.2982	0.3106	0.026
Mof_C 	C 	0.5199	0.3026	0.2223	0.024
Mof_C 	C 	0.4148	0.2989	0.2174	-0.027
Mof_H 	H 	0.4088	0.3004	0.1586	0.055
Mof_C 	C 	0.6331	0.2991	0.3164	-0.028
Mof_H 	H 	0.6393	0.2934	0.3754	0.056
Mof_C 	C 	0.7258	0.3079	0.2385	-0.091
Mof_C 	C 	0.7169	0.3159	0.1511	0.021
Mof_H 	H 	0.7814	0.3235	0.0969	0.038
Mof_C 	C 	0.6172	0.313	0.1431	-0.087
Mof_H 	H 	0.613	0.318	0.0834	0.064
Mof_C 	C 	0.8364	0.3083	0.2462	0.382
_end
