data_functionalizedCrystal
_audit_creation_method	'EQeq! by Chris Wilmer'
_symmetry_space_group_name_H-M	'P1'
_symmetry_Int_Tables_number	1
_symmetry_cell_setting	triclinic
loop_
_symmetry_equiv_pos_as_xyz
  x,y,z
_cell_length_a	10.7491
_cell_length_b	10.7585
_cell_length_c	11.8901
_cell_angle_alpha	70.146
_cell_angle_beta	78.016
_cell_angle_gamma	61.03
loop_
_atom_site_label
_atom_site_type_symbol
_atom_site_fract_x
_atom_site_fract_y
_atom_site_fract_z
_atom_site_charge
Mof_Eu	Eu	0.54906	0.99931	0.16441	2.443
Mof_Eu	Eu	0.45094	0.00069	0.83559	2.103
Mof_Cu	Cu	-0	0	-0	0.803
Mof_Cu	Cu	-2.5154e-17	0	0.5	0.818
Mof_H 	H 	0.0045	0.2707	0.5213	-0.115
Mof_H 	H 	0.9085	0.5206	0.4362	0.131
Mof_H 	H 	0.6965	0.4782	0.2252	0.092
Mof_H 	H 	0.7924	0.2309	0.3199	-0.023
Mof_H 	H 	0.9977	0.7217	0.1781	0.115
Mof_H 	H 	0.129	0.4699	0.2194	0.012
Mof_H 	H 	0.3912	0.5332	0.9374	0.054
Mof_H 	H 	0.2494	0.782	0.9011	0.001
Mof_H 	H 	0.9955	0.7293	0.4787	0.118
Mof_H 	H 	0.0915	0.4794	0.5638	0.018
Mof_H 	H 	0.3035	0.5218	0.7748	0.067
Mof_H 	H 	0.2076	0.7691	0.6801	0.023
Mof_H 	H 	0.0023	0.2783	0.8219	-0.115
Mof_H 	H 	0.871	0.5301	0.7806	0.153
Mof_H 	H 	0.6088	0.4668	0.0626	0.107
Mof_H 	H 	0.7506	0.218	0.0989	-0.057
Mof_C 	C 	0.1779	0.9775	0.2832	-0.054
Mof_C 	C 	0.173	0.9884	0.1655	0.047
Mof_C 	C 	0.2823	0.9655	0.3593	0.412
Mof_C 	C 	0.265	0.0019	0.0547	0.269
Mof_C 	C 	0.9411	0.3132	0.461	0.256
Mof_C 	C 	0.8842	0.4635	0.4099	-0.202
Mof_C 	C 	0.7912	0.5294	0.3199	0.061
Mof_C 	C 	0.7585	0.4387	0.2861	-0.141
Mof_C 	C 	0.8177	0.29	0.3425	0.104
Mof_C 	C 	0.7242	0.6929	0.2592	0.277
Mof_C 	C 	0.0774	0.6827	0.1287	-0.121
Mof_C 	C 	0.1562	0.5314	0.1546	0.026
Mof_C 	C 	0.277	0.4716	0.0827	-0.121
Mof_C 	C 	0.3109	0.5688	0.9873	0.002
Mof_C 	C 	0.2259	0.718	0.9664	0.079
Mof_C 	C 	0.3695	0.307	0.1087	0.334
Mof_C 	C 	0.8221	0.0225	0.7168	-0.011
Mof_C 	C 	0.827	0.0116	0.8345	-0.131
Mof_C 	C 	0.7177	0.0345	0.6407	0.366
Mof_C 	C 	0.735	0.9981	0.9453	0.535
Mof_C 	C 	0.0589	0.6868	0.539	-0.101
Mof_C 	C 	0.1158	0.5365	0.5901	0.005
Mof_C 	C 	0.2088	0.4706	0.6801	-0.059
Mof_C 	C 	0.2415	0.5613	0.7139	-0.051
Mof_C 	C 	0.1823	0.71	0.6575	0.038
Mof_C 	C 	0.2758	0.3071	0.7408	0.316
Mof_C 	C 	0.9226	0.3173	0.8713	0.282
Mof_C 	C 	0.8438	0.4686	0.8454	-0.237
Mof_C 	C 	0.723	0.5284	0.9173	0.132
Mof_C 	C 	0.6891	0.4312	0.0127	-0.224
Mof_C 	C 	0.7741	0.282	0.0336	0.112
Mof_C 	C 	0.6305	0.693	0.8913	0.241
Mof_N 	N 	0.0555	0.976	0.3375	-0.17
Mof_N 	N 	0.9775	0.982	0.2611	-0.012
Mof_N 	N 	0.0492	0.9892	0.1556	-0.186
Mof_N 	N 	0.9094	0.2261	0.4279	-0.24
Mof_N 	N 	0.1104	0.7753	0.0362	-0.198
Mof_N 	N 	0.9445	0.024	0.6625	-0.134
Mof_N 	N 	0.0225	0.018	0.7389	-0.146
Mof_N 	N 	0.9508	0.0108	0.8444	-0.113
Mof_N 	N 	0.0906	0.7739	0.5721	-0.168
Mof_N 	N 	0.8896	0.2247	0.9638	-0.23
Mof_O 	O 	0.2329	0.9915	0.4581	-0.324
Mof_O 	O 	0.4106	0.9243	0.3205	-0.529
Mof_O 	O 	0.3811	0.0021	0.0571	-0.669
Mof_O 	O 	0.2233	0.0129	0.9589	-0.5
Mof_O 	O 	0.7385	0.7797	0.2985	-0.432
Mof_O 	O 	0.652	0.7394	0.17	-0.447
Mof_O 	O 	0.4848	0.2591	0.0483	-0.515
Mof_O 	O 	0.3313	0.2219	0.1923	-0.513
Mof_O 	O 	0.7671	0.0085	0.5419	-0.371
Mof_O 	O 	0.5894	0.0757	0.6795	-0.524
Mof_O 	O 	0.6189	0.9979	0.9429	-0.587
Mof_O 	O 	0.7767	0.9871	0.0411	-0.555
Mof_O 	O 	0.2615	0.2203	0.7015	-0.442
Mof_O 	O 	0.348	0.2606	0.83	-0.429
Mof_O 	O 	0.5152	0.7409	0.9517	-0.379
Mof_O 	O 	0.6687	0.7781	0.8077	-0.376
_end
