data_functionalizedCrystal
_audit_creation_method	'EQeq! by Chris Wilmer'
_symmetry_space_group_name_H-M	'P1'
_symmetry_Int_Tables_number	1
_symmetry_cell_setting	triclinic
loop_
_symmetry_equiv_pos_as_xyz
  x,y,z
_cell_length_a	9.105
_cell_length_b	17.492
_cell_length_c	17.492
_cell_angle_alpha	90
_cell_angle_beta	90
_cell_angle_gamma	90
loop_
_atom_site_label
_atom_site_type_symbol
_atom_site_fract_x
_atom_site_fract_y
_atom_site_fract_z
_atom_site_charge
Mof_Cu	Cu	0.41513	0.95628	0.54372	0.905
Mof_Cu	Cu	0.41513	0.54372	0.95628	0.905
Mof_Cu	Cu	0.41513	0.95628	0.95628	0.905
Mof_Cu	Cu	0.41513	0.54372	0.54372	0.906
Mof_Cu	Cu	0.58487	0.04372	0.04372	0.909
Mof_Cu	Cu	0.58487	0.45628	0.45628	0.91
Mof_Cu	Cu	0.58487	0.04372	0.45628	0.91
Mof_Cu	Cu	0.58487	0.45628	0.04372	0.91
Mof_Si	Si	2.44541e-32	0.75	0.25	0.652
Mof_Si	Si	2.3525e-32	0.25	0.75	0.652
Mof_H 	H 	0.8601	0.8648	0.3483	0.016
Mof_H 	H 	0.8601	0.6352	0.1517	0.016
Mof_H 	H 	0.8601	0.1517	0.8648	0.016
Mof_H 	H 	0.8601	0.3483	0.6352	0.016
Mof_H 	H 	0.1399	0.1352	0.8483	-0.021
Mof_H 	H 	0.1399	0.3648	0.6517	-0.021
Mof_H 	H 	0.1399	0.8483	0.3648	-0.022
Mof_H 	H 	0.1399	0.6517	0.1352	-0.021
Mof_H 	H 	0.1399	0.1352	0.6517	-0.021
Mof_H 	H 	0.1399	0.3648	0.8483	-0.022
Mof_H 	H 	0.1399	0.8483	0.1352	-0.021
Mof_H 	H 	0.1399	0.6517	0.3648	-0.021
Mof_H 	H 	0.8601	0.8648	0.1517	0.016
Mof_H 	H 	0.8601	0.6352	0.3483	0.016
Mof_H 	H 	0.8601	0.1517	0.6352	0.016
Mof_H 	H 	0.8601	0.3483	0.8648	0.016
Mof_H 	H 	0.6104	0.75	0.4978	0.033
Mof_H 	H 	0.6104	0.75	0.0022	0.033
Mof_H 	H 	0.6104	0.0022	0.75	0.033
Mof_H 	H 	0.6104	0.4978	0.75	0.033
Mof_H 	H 	0.3896	0.25	0.9978	0.026
Mof_H 	H 	0.3896	0.25	0.5022	0.026
Mof_H 	H 	0.3896	0.9978	0.25	0.026
Mof_H 	H 	0.3896	0.5022	0.25	0.026
Mof_C 	C 	0.8269	0.81855	0.3681	0.112
Mof_C 	C 	0.7252	0.8187	0.4277	-0.147
Mof_C 	C 	0.6588	0.8905	0.4584	0.392
Mof_C 	C 	0.8269	0.68145	0.1319	0.112
Mof_C 	C 	0.7252	0.6813	0.0723	-0.148
Mof_C 	C 	0.6588	0.6095	0.0416	0.392
Mof_C 	C 	0.8269	0.1319	0.81855	0.112
Mof_C 	C 	0.7252	0.0723	0.8187	-0.148
Mof_C 	C 	0.6588	0.0416	0.8905	0.393
Mof_C 	C 	0.8269	0.3681	0.68145	0.112
Mof_C 	C 	0.7252	0.4277	0.6813	-0.147
Mof_C 	C 	0.6588	0.4584	0.6095	0.392
Mof_C 	C 	0.1731	0.18145	0.8681	0.141
Mof_C 	C 	0.2748	0.1813	0.9277	-0.179
Mof_C 	C 	0.3412	0.1095	0.9584	0.398
Mof_C 	C 	0.1731	0.31855	0.6319	0.141
Mof_C 	C 	0.2748	0.3187	0.5723	-0.179
Mof_C 	C 	0.3412	0.3905	0.5416	0.398
Mof_C 	C 	0.1731	0.8681	0.31855	0.141
Mof_C 	C 	0.2748	0.9277	0.3187	-0.179
Mof_C 	C 	0.3412	0.9584	0.3905	0.398
Mof_C 	C 	0.1731	0.6319	0.18145	0.141
Mof_C 	C 	0.2748	0.5723	0.1813	-0.179
Mof_C 	C 	0.3412	0.5416	0.1095	0.398
Mof_C 	C 	0.1731	0.18145	0.6319	0.141
Mof_C 	C 	0.2748	0.1813	0.5723	-0.179
Mof_C 	C 	0.3412	0.1095	0.5416	0.398
Mof_C 	C 	0.1731	0.31855	0.8681	0.141
Mof_C 	C 	0.2748	0.3187	0.9277	-0.179
Mof_C 	C 	0.3412	0.3905	0.9584	0.398
Mof_C 	C 	0.1731	0.8681	0.18145	0.141
Mof_C 	C 	0.2748	0.9277	0.1813	-0.179
Mof_C 	C 	0.3412	0.9584	0.1095	0.398
Mof_C 	C 	0.1731	0.6319	0.31855	0.141
Mof_C 	C 	0.2748	0.5723	0.3187	-0.179
Mof_C 	C 	0.3412	0.5416	0.3905	0.398
Mof_C 	C 	0.8269	0.81855	0.1319	0.112
Mof_C 	C 	0.7252	0.8187	0.0723	-0.148
Mof_C 	C 	0.6588	0.8905	0.0416	0.393
Mof_C 	C 	0.8269	0.68145	0.3681	0.112
Mof_C 	C 	0.7252	0.6813	0.4277	-0.147
Mof_C 	C 	0.6588	0.6095	0.4584	0.392
Mof_C 	C 	0.8269	0.1319	0.68145	0.112
Mof_C 	C 	0.7252	0.0723	0.6813	-0.148
Mof_C 	C 	0.6588	0.0416	0.6095	0.392
Mof_C 	C 	0.8269	0.3681	0.81855	0.112
Mof_C 	C 	0.7252	0.4277	0.8187	-0.147
Mof_C 	C 	0.6588	0.4584	0.8905	0.392
Mof_C 	C 	0.8795	0.75	0.3375	-0.217
Mof_C 	C 	0.6767	0.75	0.4573	0.093
Mof_C 	C 	0.8795	0.75	0.1625	-0.217
Mof_C 	C 	0.6767	0.75	0.0427	0.093
Mof_C 	C 	0.8795	0.1625	0.75	-0.217
Mof_C 	C 	0.6767	0.0427	0.75	0.093
Mof_C 	C 	0.8795	0.3375	0.75	-0.217
Mof_C 	C 	0.6767	0.4573	0.75	0.093
Mof_C 	C 	0.1205	0.25	0.8375	-0.29
Mof_C 	C 	0.3233	0.25	0.9573	0.111
Mof_C 	C 	0.1205	0.25	0.6625	-0.29
Mof_C 	C 	0.3233	0.25	0.5427	0.111
Mof_C 	C 	0.1205	0.8375	0.25	-0.29
Mof_C 	C 	0.3233	0.9573	0.25	0.111
Mof_C 	C 	0.1205	0.6625	0.25	-0.29
Mof_C 	C 	0.3233	0.5427	0.25	0.111
Mof_O 	O 	0.5589	0.8822	0.50621	-0.424
Mof_O 	O 	0.7045	0.953	0.4325	-0.395
Mof_O 	O 	0.5589	0.6178	0.99379	-0.424
Mof_O 	O 	0.7045	0.547	0.0675	-0.395
Mof_O 	O 	0.5589	0.99379	0.8822	-0.424
Mof_O 	O 	0.7045	0.0675	0.953	-0.395
Mof_O 	O 	0.5589	0.50621	0.6178	-0.424
Mof_O 	O 	0.7045	0.4325	0.547	-0.395
Mof_O 	O 	0.4411	0.1178	0.00621	-0.427
Mof_O 	O 	0.2955	0.047	0.9325	-0.414
Mof_O 	O 	0.4411	0.3822	0.49379	-0.427
Mof_O 	O 	0.2955	0.453	0.5675	-0.414
Mof_O 	O 	0.4411	0.00621	0.3822	-0.426
Mof_O 	O 	0.2955	0.9325	0.453	-0.415
Mof_O 	O 	0.4411	0.49379	0.1178	-0.427
Mof_O 	O 	0.2955	0.5675	0.047	-0.414
Mof_O 	O 	0.4411	0.1178	0.49379	-0.427
Mof_O 	O 	0.2955	0.047	0.5675	-0.414
Mof_O 	O 	0.4411	0.3822	0.00621	-0.426
Mof_O 	O 	0.2955	0.453	0.9325	-0.415
Mof_O 	O 	0.4411	0.00621	0.1178	-0.427
Mof_O 	O 	0.2955	0.9325	0.047	-0.414
Mof_O 	O 	0.4411	0.49379	0.3822	-0.427
Mof_O 	O 	0.2955	0.5675	0.453	-0.414
Mof_O 	O 	0.5589	0.8822	0.99379	-0.424
Mof_O 	O 	0.7045	0.953	0.0675	-0.395
Mof_O 	O 	0.5589	0.6178	0.50621	-0.424
Mof_O 	O 	0.7045	0.547	0.4325	-0.395
Mof_O 	O 	0.5589	0.99379	0.6178	-0.424
Mof_O 	O 	0.7045	0.0675	0.547	-0.395
Mof_O 	O 	0.5589	0.50621	0.8822	-0.424
Mof_O 	O 	0.7045	0.4325	0.953	-0.395
_end
