# CIF file generated by openbabel 3.1.0, see https://openbabel.org
data_I
_chemical_name_common 'image0'
_cell_length_a 9.1794
_cell_length_b 9.46
_cell_length_c 11.1538
_cell_angle_alpha 90.726
_cell_angle_beta 100.252
_cell_angle_gamma 105.265
_space_group_name_H-M_alt 'P 1'
_space_group_name_Hall 'P 1'
loop_
    _symmetry_equiv_pos_as_xyz
    x,y,z
loop_
    _atom_site_label
    _atom_site_type_symbol
    _atom_site_fract_x
    _atom_site_fract_y
    _atom_site_fract_z
    _atom_site_occupancy
    C1       C        0.07610    0.76430    0.30340    1.000
    C2       C        0.13380    0.86250    0.41760    1.000
    C3       C        0.14790    0.80480    0.53010    1.000
    H1       H        0.12600    0.70360    0.53520    1.000
    C4       C        0.19450    0.89610    0.63680    1.000
    C5       C        0.22860    0.04710    0.62880    1.000
    H2       H        0.25940    0.10920    0.69920    1.000
    C6       C        0.21630    0.10460    0.51530    1.000
    C7       C        0.16750    0.01430    0.40990    1.000
    H3       H        0.15720    0.05430    0.33410    1.000
    C8       C        0.19930    0.83090    0.75940    1.000
    C9       C        0.35370    0.35360    0.57910    1.000
    C10      C        0.32600    0.48550    0.60330    1.000
    H4       H        0.23140    0.50170    0.57140    1.000
    C11      C        0.44000    0.59440    0.67550    1.000
    H5       H        0.42200    0.68460    0.69050    1.000
    C12      C        0.57940    0.57130    0.72530    1.000
    C13      C        0.60410    0.43720    0.69900    1.000
    H6       H        0.69790    0.41980    0.73150    1.000
    C14      C        0.49190    0.32810    0.62520    1.000
    H7       H        0.51050    0.23880    0.60730    1.000
    C15      C        0.69780    0.68690    0.80400    1.000
    Cd1      Cd       0.16276    0.86615    0.03213    1.000
    Cd2      Cd       0.99696    0.47709    0.15004    1.000
    N1       N        0.67240    0.81150    0.84240    1.000
    N2       N        0.80670    0.88720    0.91120    1.000
    N3       N        0.90770    0.81170    0.91520    1.000
    N4       N        0.84240    0.68440    0.84730    1.000
    O1       O        0.04060    0.82050    0.20390    1.000
    O2       O        0.06260    0.62910    0.31400    1.000
    O3       O        0.15560    0.69390    0.75800    1.000
    O4       O        0.24640    0.91770    0.85350    1.000
    O5       O        0.23740    0.25360    0.50000    1.000
    O6       O        0.14160    0.62510    0.03130    1.000
    C16      C        0.92390    0.23570    0.69660    1.000
    C17      C        0.86620    0.13750    0.58240    1.000
    C18      C        0.85210    0.19520    0.46990    1.000
    H8       H        0.87400    0.29640    0.46480    1.000
    C19      C        0.80550    0.10390    0.36320    1.000
    C20      C        0.77140    0.95290    0.37120    1.000
    H9       H        0.74060    0.89080    0.30080    1.000
    C21      C        0.78370    0.89540    0.48470    1.000
    C22      C        0.83250    0.98570    0.59010    1.000
    H10      H        0.84280    0.94570    0.66590    1.000
    C23      C        0.80070    0.16910    0.24060    1.000
    C24      C        0.64630    0.64640    0.42090    1.000
    C25      C        0.67400    0.51450    0.39670    1.000
    H11      H        0.76860    0.49830    0.42860    1.000
    C26      C        0.56000    0.40560    0.32450    1.000
    H12      H        0.57800    0.31540    0.30950    1.000
    C27      C        0.42060    0.42870    0.27470    1.000
    C28      C        0.39590    0.56280    0.30100    1.000
    H13      H        0.30210    0.58020    0.26850    1.000
    C29      C        0.50810    0.67190    0.37480    1.000
    H14      H        0.48950    0.76120    0.39270    1.000
    C30      C        0.30220    0.31310    0.19600    1.000
    Cd3      Cd       0.83724    0.13385    0.96787    1.000
    Cd4      Cd       0.00304    0.52291    0.84996    1.000
    N5       N        0.32760    0.18850    0.15760    1.000
    N6       N        0.19330    0.11280    0.08880    1.000
    N7       N        0.09230    0.18830    0.08480    1.000
    N8       N        0.15760    0.31560    0.15270    1.000
    O7       O        0.95940    0.17950    0.79610    1.000
    O8       O        0.93740    0.37090    0.68600    1.000
    O9       O        0.84440    0.30610    0.24200    1.000
    O10      O        0.75360    0.08230    0.14650    1.000
    O11      O        0.76260    0.74640    0.50000    1.000
    O12      O        0.85840    0.37490    0.96870    1.000
