data_functionalizedCrystal
_audit_creation_method	'EQeq! by Chris Wilmer'
_symmetry_space_group_name_H-M	'P1'
_symmetry_Int_Tables_number	1
_symmetry_cell_setting	triclinic
loop_
_symmetry_equiv_pos_as_xyz
  x,y,z
_cell_length_a	8.7115
_cell_length_b	10.4316
_cell_length_c	10.8838
_cell_angle_alpha	90
_cell_angle_beta	90
_cell_angle_gamma	90
loop_
_atom_site_label
_atom_site_type_symbol
_atom_site_fract_x
_atom_site_fract_y
_atom_site_fract_z
_atom_site_charge
Mof_La	La	0.99213	0.10152	0.11264	2.196
Mof_P 	P 	0.8444	0.9167	0.3942	0.507
Mof_P 	P 	0.1944	0.9187	0.36069	0.458
Mof_O 	O 	0.8472	0.0044	0.2827	-0.499
Mof_O 	O 	0.8242	0.7759	0.3596	-0.501
Mof_O 	O 	0.7236	0.9591	0.4859	-0.504
Mof_O 	O 	0.1721	0.7866	0.2997	-0.453
Mof_O 	O 	0.1795	0.0288	0.2695	-0.474
Mof_O 	O 	0.3428	0.93	0.4345	-0.489
Mof_O 	O 	0.0457	0.8087	0.5447	-0.495
Mof_H 	H 	0.1348	0.7969	0.5661	0.242
Mof_C 	C 	0.036	0.928	0.4706	-0.004
Mof_C 	C 	0.0452	0.0442	0.5521	-0.33
Mof_H 	H 	0.1446	0.048	0.5899	0.107
Mof_H 	H 	0.9677	0.0387	0.6147	0.129
Mof_H 	H 	0.0289	0.12	0.5039	0.098
Mof_La	La	0.50787	0.89848	0.61264	2.21
Mof_P 	P 	0.6556	0.0833	0.8942	0.497
Mof_P 	P 	0.3056	0.0813	0.86069	0.463
Mof_O 	O 	0.6528	0.9956	0.7827	-0.494
Mof_O 	O 	0.6758	0.2241	0.8596	-0.501
Mof_O 	O 	0.7764	0.0409	0.9859	-0.503
Mof_O 	O 	0.3279	0.2134	0.7997	-0.454
Mof_O 	O 	0.3205	0.9712	0.7695	-0.487
Mof_O 	O 	0.1572	0.07	0.9345	-0.49
Mof_O 	O 	0.4543	0.1913	0.0447	-0.491
Mof_H 	H 	0.3652	0.2031	0.0661	0.243
Mof_C 	C 	0.464	0.072	0.9706	0.006
Mof_C 	C 	0.4548	0.9558	0.0521	-0.36
Mof_H 	H 	0.3554	0.952	0.0899	0.115
Mof_H 	H 	0.5323	0.9613	0.1147	0.14
Mof_H 	H 	0.4711	0.88	0.0039	0.107
Mof_La	La	0.00787	0.60152	0.38736	2.211
Mof_P 	P 	0.1556	0.4167	0.1058	0.502
Mof_P 	P 	0.8056	0.4187	0.13931	0.462
Mof_O 	O 	0.1528	0.5044	0.2173	-0.494
Mof_O 	O 	0.1758	0.2759	0.1404	-0.498
Mof_O 	O 	0.2764	0.4591	0.0141	-0.5
Mof_O 	O 	0.8279	0.2866	0.2003	-0.453
Mof_O 	O 	0.8205	0.5288	0.2305	-0.48
Mof_O 	O 	0.6572	0.43	0.0655	-0.486
Mof_O 	O 	0.9543	0.3087	0.9553	-0.488
Mof_H 	H 	0.8652	0.2969	0.9339	0.241
Mof_C 	C 	0.964	0.428	0.0294	-0.001
Mof_C 	C 	0.9548	0.5442	0.9479	-0.318
Mof_H 	H 	0.8554	0.548	0.9101	0.102
Mof_H 	H 	0.0323	0.5387	0.8853	0.119
Mof_H 	H 	0.9711	0.62	0.9961	0.095
Mof_La	La	0.49213	0.39848	0.88736	2.198
Mof_P 	P 	0.3444	0.5833	0.6058	0.497
Mof_P 	P 	0.6944	0.5813	0.63931	0.46
Mof_O 	O 	0.3472	0.4956	0.7173	-0.494
Mof_O 	O 	0.3242	0.7241	0.6404	-0.503
Mof_O 	O 	0.2236	0.5409	0.5141	-0.504
Mof_O 	O 	0.6721	0.7134	0.7003	-0.452
Mof_O 	O 	0.6795	0.4712	0.7305	-0.479
Mof_O 	O 	0.8428	0.57	0.5655	-0.485
Mof_O 	O 	0.5457	0.6913	0.4553	-0.496
Mof_H 	H 	0.6348	0.7031	0.4339	0.243
Mof_C 	C 	0.536	0.572	0.5294	0.015
Mof_C 	C 	0.5452	0.4558	0.4479	-0.373
Mof_H 	H 	0.6446	0.452	0.4101	0.118
Mof_H 	H 	0.4677	0.4613	0.3853	0.143
Mof_H 	H 	0.5289	0.38	0.4961	0.109
_end
