data_functionalizedCrystal
_audit_creation_method	'EQeq! by Chris Wilmer'
_symmetry_space_group_name_H-M	'P1'
_symmetry_Int_Tables_number	1
_symmetry_cell_setting	triclinic
loop_
_symmetry_equiv_pos_as_xyz
  x,y,z
_cell_length_a	18.1065
_cell_length_b	18.1065
_cell_length_c	18.1065
_cell_angle_alpha	60
_cell_angle_beta	60
_cell_angle_gamma	60
loop_
_atom_site_label
_atom_site_type_symbol
_atom_site_fract_x
_atom_site_fract_y
_atom_site_fract_z
_atom_site_charge
Mof_Zn	Zn	0.79354	0.61938	0.79354	1.216
Mof_Zn	Zn	0.61938	0.79354	0.79354	1.216
Mof_Zn	Zn	0.20646	0.20646	0.38062	1.216
Mof_Zn	Zn	0.79354	0.79354	0.79354	1.216
Mof_Zn	Zn	0.20646	0.38062	0.20646	1.216
Mof_Zn	Zn	0.20646	0.20646	0.20646	1.215
Mof_Zn	Zn	0.38062	0.20646	0.20646	1.215
Mof_Zn	Zn	0.79354	0.79354	0.61938	1.215
Mof_C 	C 	0.4129	0.5369	0.0251	-0
Mof_C 	C 	0.9749	0.4631	0.9749	0.001
Mof_C 	C 	0.5369	0.0251	0.0251	0
Mof_C 	C 	0.9461	0.5539	0.5539	-0.091
Mof_C 	C 	0.4129	0.0251	0.5369	0
Mof_C 	C 	0.5539	0.5539	0.9461	-0.091
Mof_C 	C 	0.3873	0.3873	0.1127	0.368
Mof_C 	C 	0.4631	0.5871	0.9749	0
Mof_C 	C 	0.5871	0.4631	0.9749	0.002
Mof_C 	C 	0.9461	0.9461	0.5539	-0.091
Mof_C 	C 	0.9461	0.5539	0.9461	-0.09
Mof_C 	C 	0.0251	0.5369	0.4129	0
Mof_C 	C 	0.0251	0.4129	0.0251	-0.001
Mof_C 	C 	0.8873	0.6127	0.8873	0.369
Mof_C 	C 	0.6127	0.8873	0.6127	0.368
Mof_C 	C 	0.3873	0.1127	0.1127	0.369
Mof_C 	C 	0.6127	0.8873	0.8873	0.368
Mof_C 	C 	0.6127	0.6127	0.8873	0.369
Mof_C 	C 	0.5369	0.4129	0.0251	-0.001
Mof_C 	C 	0.5871	0.9749	0.9749	-0
Mof_C 	C 	0.1127	0.3873	0.1127	0.369
Mof_C 	C 	0.4631	0.9749	0.9749	-0
Mof_C 	C 	0.0251	0.4129	0.5369	-0.001
Mof_C 	C 	0.8873	0.8873	0.6127	0.369
Mof_C 	C 	0.4631	0.9749	0.5871	-0.001
Mof_C 	C 	0.3873	0.1127	0.3873	0.369
Mof_C 	C 	0.0539	0.4461	0.0539	-0.09
Mof_C 	C 	0.4129	0.0251	0.0251	0
Mof_C 	C 	0.9749	0.9749	0.4631	0.002
Mof_C 	C 	0.8873	0.6127	0.6127	0.369
Mof_C 	C 	0.5369	0.0251	0.4129	0.002
Mof_C 	C 	0.9749	0.9749	0.5871	0.002
Mof_C 	C 	0.4461	0.0539	0.4461	-0.091
Mof_C 	C 	0.0251	0.5369	0.0251	0.001
Mof_C 	C 	0.0251	0.0251	0.4129	-0.002
Mof_C 	C 	0.1127	0.3873	0.3873	0.368
Mof_C 	C 	0.0251	0.0251	0.5369	-0.001
Mof_C 	C 	0.9749	0.4631	0.5871	0.001
Mof_C 	C 	0.9749	0.5871	0.4631	-0
Mof_C 	C 	0.5539	0.9461	0.9461	-0.091
Mof_C 	C 	0.9749	0.5871	0.9749	0
Mof_C 	C 	0.4461	0.0539	0.0539	-0.091
Mof_C 	C 	0.0539	0.4461	0.4461	-0.09
Mof_C 	C 	0.1127	0.1127	0.3873	0.368
Mof_C 	C 	0.0539	0.0539	0.4461	-0.09
Mof_C 	C 	0.5539	0.9461	0.5539	-0.09
Mof_C 	C 	0.5871	0.9749	0.4631	-0.002
Mof_C 	C 	0.4461	0.4461	0.0539	-0.09
Mof_O 	O 	0.1336	0.42978	0.1336	-0.505
Mof_O 	O 	0.1336	0.42978	0.30302	-0.505
Mof_O 	O 	0.8664	0.57022	0.8664	-0.505
Mof_O 	O 	0.30302	0.1336	0.42978	-0.505
Mof_O 	O 	0.1336	0.1336	0.42978	-0.505
Mof_O 	O 	0.8664	0.57022	0.69698	-0.505
Mof_O 	O 	0.69698	0.8664	0.57022	-0.505
Mof_O 	O 	0.8664	0.8664	0.57022	-0.505
Mof_O 	O 	0.1336	0.30302	0.1336	-0.505
Mof_O 	O 	0.42978	0.30302	0.1336	-0.505
Mof_O 	O 	0.8664	0.69698	0.8664	-0.505
Mof_O 	O 	0.1336	0.1336	0.30302	-0.505
Mof_O 	O 	0.69698	0.8664	0.8664	-0.505
Mof_O 	O 	0.57022	0.69698	0.8664	-0.505
Mof_O 	O 	0.57022	0.8664	0.8664	-0.505
Mof_O 	O 	0.1336	0.30302	0.42978	-0.505
Mof_O 	O 	0.25	0.25	0.25	-0.974
Mof_O 	O 	0.30302	0.42978	0.1336	-0.505
Mof_O 	O 	0.69698	0.57022	0.8664	-0.505
Mof_O 	O 	0.57022	0.8664	0.69698	-0.505
Mof_O 	O 	0.42978	0.1336	0.1336	-0.505
Mof_O 	O 	0.8664	0.8664	0.69698	-0.505
Mof_O 	O 	0.75	0.75	0.75	-0.974
Mof_O 	O 	0.30302	0.1336	0.1336	-0.505
Mof_O 	O 	0.8664	0.69698	0.57022	-0.505
Mof_O 	O 	0.42978	0.1336	0.30302	-0.505
Mof_H 	H 	0.33611	0.56917	0.04736	0.042
Mof_H 	H 	0.9549	0.42685	0.9549	0.041
Mof_H 	H 	0.56917	0.04736	0.04736	0.042
Mof_H 	H 	0.33611	0.04736	0.56917	0.042
Mof_H 	H 	0.43083	0.66389	0.95264	0.042
Mof_H 	H 	0.66335	0.42685	0.9549	0.041
Mof_H 	H 	0.04736	0.56917	0.33611	0.042
Mof_H 	H 	0.04736	0.33611	0.04736	0.042
Mof_H 	H 	0.56917	0.33611	0.04736	0.043
Mof_H 	H 	0.66389	0.95264	0.95264	0.042
Mof_H 	H 	0.43083	0.95264	0.95264	0.042
Mof_H 	H 	0.04736	0.33611	0.56917	0.042
Mof_H 	H 	0.43083	0.95264	0.66389	0.042
Mof_H 	H 	0.33611	0.04736	0.04736	0.042
Mof_H 	H 	0.9549	0.9549	0.42685	0.041
Mof_H 	H 	0.57315	0.0451	0.33665	0.041
Mof_H 	H 	0.9549	0.9549	0.66335	0.041
Mof_H 	H 	0.0451	0.57315	0.0451	0.041
Mof_H 	H 	0.04736	0.04736	0.33611	0.043
Mof_H 	H 	0.04736	0.04736	0.56917	0.043
Mof_H 	H 	0.9549	0.42685	0.66335	0.041
Mof_H 	H 	0.95264	0.66389	0.43083	0.042
Mof_H 	H 	0.9549	0.66335	0.9549	0.041
Mof_H 	H 	0.66389	0.95264	0.43083	0.043
_end
