data_functionalizedCrystal
_audit_creation_method	'EQeq! by Chris Wilmer'
_symmetry_space_group_name_H-M	'P1'
_symmetry_Int_Tables_number	1
_symmetry_cell_setting	triclinic
loop_
_symmetry_equiv_pos_as_xyz
  x,y,z
_cell_length_a	13.5065
_cell_length_b	13.5065
_cell_length_c	15.9076
_cell_angle_alpha	90
_cell_angle_beta	90
_cell_angle_gamma	90
loop_
_atom_site_label
_atom_site_type_symbol
_atom_site_fract_x
_atom_site_fract_y
_atom_site_fract_z
_atom_site_charge
Mof_S 	S 	0.19977	0.26432	0.42451	0.115
Mof_O 	O 	0.12432	0.44142	0.52348	-0.237
Mof_O 	O 	0.01301	0.5012	0.42841	-0.461
Mof_O 	O 	0.28308	0.11954	0.21921	-0.817
Mof_O 	O 	0.29951	0.07759	0.34507	-0.829
Mof_C 	C 	0.20631	0.22711	0.32166	-0.097
Mof_C 	C 	0.12569	0.36092	0.3938	-0.07
Mof_C 	C 	0.08871	0.43642	0.45315	0.352
Mof_C 	C 	0.26389	0.13985	0.29471	0.438
Mof_C 	C 	0.10621	0.36228	0.30856	0.014
Mof_H 	H 	0.06069	0.41702	0.27743	0.087
Mof_C 	C 	0.15309	0.28628	0.2672	0.028
Mof_H 	H 	0.14816	0.27437	0.20005	0.077
Mof_C 	C 	0.49795	0.21848	0.50826	0.025
Mof_C 	C 	0.40467	0.16478	0.5379	-0.175
Mof_S 	S 	0.73562	0.72592	0.91912	-0.004
Mof_O 	O 	0.80937	0.54624	0.01411	-0.27
Mof_O 	O 	0.9281	0.49511	0.92197	-0.646
Mof_O 	O 	0.66532	0.88372	0.71784	-0.852
Mof_O 	O 	0.63937	0.91631	0.84481	-0.851
Mof_C 	C 	0.73535	0.76961	0.81817	-0.102
Mof_C 	C 	0.81249	0.63234	0.88736	-0.097
Mof_C 	C 	0.84853	0.55553	0.9455	0.256
Mof_C 	C 	0.67905	0.85813	0.79305	0.413
Mof_C 	C 	0.83705	0.63619	0.80316	-0.021
Mof_H 	H 	0.88516	0.584	0.77166	0.018
Mof_C 	C 	0.79227	0.71447	0.76342	-0.016
Mof_H 	H 	0.80115	0.73081	0.69731	0.037
Mof_C 	C 	0.46266	0.79303	0.03534	0.042
Mof_C 	C 	0.56524	0.83553	0.05488	-0.106
Mof_S 	S 	0.7055	0.22613	0.17128	0.047
Mof_O 	O 	0.53126	0.14777	0.27117	-0.35
Mof_O 	O 	0.47028	0.03757	0.17592	-0.77
Mof_O 	O 	0.85275	0.30583	0.96603	-0.73
Mof_O 	O 	0.88903	0.3306	0.09233	-0.711
Mof_C 	C 	0.74266	0.23273	0.06848	-0.164
Mof_C 	C 	0.60964	0.15113	0.14074	-0.093
Mof_C 	C 	0.53512	0.1132	0.20048	0.385
Mof_C 	C 	0.82969	0.29069	0.04166	0.488
Mof_C 	C 	0.60821	0.13166	0.05549	-0.039
Mof_H 	H 	0.55383	0.08564	0.02442	0.073
Mof_C 	C 	0.68388	0.17902	0.01408	0.119
Mof_H 	H 	0.69579	0.17428	0.94697	-0.026
Mof_C 	C 	0.76758	0.50911	0.27962	0.015
Mof_C 	C 	0.80952	0.40747	0.30294	-0.16
Mof_S 	S 	0.24598	0.76289	0.67543	0.133
Mof_O 	O 	0.41626	0.85044	0.77575	-0.341
Mof_O 	O 	0.47448	0.96005	0.67855	-0.782
Mof_O 	O 	0.09354	0.69055	0.47105	-0.57
Mof_O 	O 	0.05725	0.66594	0.5975	-0.508
Mof_C 	C 	0.20539	0.7608	0.57331	-0.067
Mof_C 	C 	0.33827	0.84266	0.64516	-0.121
Mof_C 	C 	0.41176	0.88323	0.70442	0.399
Mof_C 	C 	0.11727	0.70459	0.54669	0.364
Mof_C 	C 	0.33679	0.86556	0.56054	0.024
Mof_H 	H 	0.38845	0.91502	0.52992	0.037
Mof_C 	C 	0.26119	0.81815	0.51931	-0.007
Mof_H 	H 	0.24663	0.82633	0.45279	0.067
Mof_C 	C 	0.53606	0.6077	0.7291	0.014
Mof_C 	C 	0.57432	0.64006	0.64273	-0.174
Mof_S 	S 	0.73375	0.27874	0.58718	0.039
Mof_O 	O 	0.79587	0.47053	0.50159	-0.341
Mof_O 	O 	0.93203	0.50334	0.58161	-0.696
Mof_O 	O 	0.66889	0.11717	0.78741	-0.859
Mof_O 	O 	0.63838	0.08597	0.66077	-0.843
Mof_C 	C 	0.73888	0.23014	0.68649	-0.107
Mof_C 	C 	0.81396	0.36956	0.61899	-0.123
Mof_C 	C 	0.84552	0.4505	0.56327	0.348
Mof_C 	C 	0.6811	0.14275	0.71201	0.416
Mof_C 	C 	0.84444	0.3605	0.70145	-0.009
Mof_H 	H 	0.89526	0.41035	0.73259	0.012
Mof_C 	C 	0.80069	0.28113	0.74033	-0.018
Mof_H 	H 	0.81333	0.26134	0.80534	0.033
Mof_C 	C 	0.44233	0.37909	0.45199	0.012
Mof_C 	C 	0.52537	0.45115	0.47563	-0.171
Mof_S 	S 	0.20407	0.73002	0.07898	0.153
Mof_O 	O 	0.12464	0.55402	0.98064	-0.293
Mof_O 	O 	0.0099	0.49896	0.07495	-0.412
Mof_O 	O 	0.28105	0.87774	0.28439	-0.823
Mof_O 	O 	0.30231	0.91808	0.15849	-0.82
Mof_C 	C 	0.20669	0.76996	0.18125	-0.101
Mof_C 	C 	0.12551	0.6367	0.10927	-0.087
Mof_C 	C 	0.08782	0.56119	0.05039	0.413
Mof_C 	C 	0.26441	0.85679	0.20858	0.441
Mof_C 	C 	0.10228	0.63822	0.1938	0.02
Mof_H 	H 	0.05349	0.58598	0.2245	0.087
Mof_C 	C 	0.14949	0.71389	0.23512	0.028
Mof_H 	H 	0.14175	0.728	0.30178	0.075
Mof_C 	C 	0.4987	0.62402	0.98509	-0.132
Mof_C 	C 	0.4165	0.56012	0.02323	-0.013
Mof_S 	S 	0.25563	0.24865	0.83659	0.114
Mof_O 	O 	0.4394	0.17529	0.74582	-0.353
Mof_O 	O 	0.47727	0.04475	0.83088	-0.784
Mof_O 	O 	0.0896	0.30862	0.0349	-0.453
Mof_O 	O 	0.05635	0.33375	0.90784	-0.445
Mof_C 	C 	0.20437	0.23967	0.93483	-0.016
Mof_C 	C 	0.3434	0.16394	0.86691	-0.136
Mof_C 	C 	0.42269	0.12965	0.81037	0.402
Mof_C 	C 	0.1152	0.29508	0.95969	0.262
Mof_C 	C 	0.33241	0.131	0.94856	0.066
Mof_H 	H 	0.37999	0.07713	0.97861	0.006
Mof_C 	C 	0.2534	0.17516	0.98773	-0.126
Mof_H 	H 	0.23157	0.15964	0.05184	0.137
Mof_C 	C 	0.54195	0.42554	0.72908	0.01
Mof_C 	C 	0.56748	0.39716	0.81982	-0.165
Mof_S 	S 	0.69548	0.75937	0.33764	0.039
Mof_O 	O 	0.50522	0.82268	0.2498	-0.358
Mof_O 	O 	0.46965	0.95807	0.32989	-0.769
Mof_O 	O 	0.85635	0.69428	0.53852	-0.706
Mof_O 	O 	0.89038	0.66771	0.41199	-0.743
Mof_C 	C 	0.74373	0.76515	0.43718	-0.114
Mof_C 	C 	0.60449	0.84038	0.36843	-0.109
Mof_C 	C 	0.52387	0.87208	0.31192	0.387
Mof_C 	C 	0.83184	0.70819	0.46307	0.4
Mof_C 	C 	0.61298	0.87095	0.45096	0.004
Mof_H 	H 	0.56294	0.92203	0.48166	0.038
Mof_C 	C 	0.69207	0.82711	0.49049	-0.008
Mof_H 	H 	0.71154	0.84033	0.55549	0.039
Mof_C 	C 	0.60537	0.47219	0.21554	0.015
Mof_C 	C 	0.53717	0.55596	0.24483	-0.173
Mof_In	In	0.97373	0.61524	0.50459	2.646
Mof_In	In	0.97082	0.38414	0.99962	2.359
Mof_In	In	0.35661	0.99806	0.25234	3.792
Mof_In	In	0.58844	0.00143	0.75341	3.811
Mof_N 	N 	0.48032	0.27924	0.43256	-0.187
Mof_N 	N 	0.46402	0.72442	0.96312	-0.189
Mof_N 	N 	0.708	0.50622	0.20184	-0.187
Mof_N 	N 	0.47888	0.51468	0.72467	-0.185
Mof_H 	H 	0.55493	0.1614	0.49385	0.033
Mof_H 	H 	0.5265	0.26399	0.56096	0.029
Mof_H 	H 	0.42351	0.11563	0.59115	0.087
Mof_H 	H 	0.37406	0.11804	0.48694	0.092
Mof_H 	H 	0.34795	0.21859	0.55931	0.086
Mof_H 	H 	0.41287	0.85627	0.02042	0.057
Mof_H 	H 	0.4325	0.75654	0.09244	0.031
Mof_H 	H 	0.59645	0.87272	0.99875	0.035
Mof_H 	H 	0.61648	0.7768	0.07679	0.059
Mof_H 	H 	0.5593	0.89176	0.10523	0.066
Mof_H 	H 	0.83127	0.56019	0.27015	-0.002
Mof_H 	H 	0.72384	0.53838	0.33327	0.03
Mof_H 	H 	0.86055	0.41492	0.35702	0.023
Mof_H 	H 	0.85243	0.37608	0.24983	0.035
Mof_H 	H 	0.74937	0.35579	0.32105	0.057
Mof_H 	H 	0.48756	0.66758	0.75364	0.028
Mof_H 	H 	0.59929	0.60111	0.7734	0.027
Mof_H 	H 	0.51147	0.65178	0.59881	0.063
Mof_H 	H 	0.6257	0.58409	0.61624	0.071
Mof_H 	H 	0.61477	0.71104	0.64876	0.079
Mof_H 	H 	0.40414	0.40919	0.3955	0.024
Mof_H 	H 	0.38662	0.37663	0.50342	0.031
Mof_H 	H 	0.49396	0.52652	0.48385	0.061
Mof_H 	H 	0.58209	0.45421	0.42525	0.067
Mof_H 	H 	0.56129	0.42879	0.53526	0.067
Mof_H 	H 	0.52497	0.58648	0.92706	0.045
Mof_H 	H 	0.5626	0.62653	0.02897	0.088
Mof_H 	H 	0.35256	0.55521	0.97952	0.011
Mof_H 	H 	0.39128	0.59082	0.08423	0.038
Mof_H 	H 	0.44503	0.48414	0.03439	0.045
Mof_H 	H 	0.50186	0.36223	0.70007	0.035
Mof_H 	H 	0.61148	0.43569	0.69272	0.029
Mof_H 	H 	0.61519	0.4543	0.8493	0.059
Mof_H 	H 	0.60829	0.32588	0.82036	0.071
Mof_H 	H 	0.49904	0.38778	0.85768	0.057
Mof_H 	H 	0.57535	0.44305	0.15528	0.028
Mof_H 	H 	0.60237	0.41044	0.26163	0.025
Mof_H 	H 	0.53815	0.6179	0.19892	0.071
Mof_H 	H 	0.56	0.58387	0.30742	0.068
Mof_H 	H 	0.46012	0.52787	0.24982	0.064
Mof_H 	H 	0.4298	0.24343	0.39304	0.085
Mof_H 	H 	0.39262	0.72027	0.9377	0.084
Mof_H 	H 	0.70731	0.577	0.17497	0.08
Mof_H 	H 	0.43809	0.51268	0.66869	0.084
Mof_H 	H 	0.74202	0.45937	0.15814	0.089
Mof_H 	H 	0.54664	0.28531	0.39885	0.085
Mof_H 	H 	0.42729	0.5136	0.7738	0.085
Mof_H 	H 	0.5096	0.7532	0.91582	0.085
_end
