# CIF file generated by openbabel 3.1.0, see https://openbabel.org
data_I
_chemical_name_common 'image0'
_cell_length_a 38.569
_cell_length_b 38.569
_cell_length_c 28.647
_cell_angle_alpha 90
_cell_angle_beta 90
_cell_angle_gamma 120
_space_group_name_H-M_alt 'P 1'
_space_group_name_Hall 'P 1'
loop_
    _symmetry_equiv_pos_as_xyz
    x,y,z
loop_
    _atom_site_label
    _atom_site_type_symbol
    _atom_site_fract_x
    _atom_site_fract_y
    _atom_site_fract_z
    _atom_site_occupancy
    Zn1      Zn       0.71944    0.24205    0.45337    1.000
    Zn2      Zn       0.73865    0.21700    0.54392    1.000
    Zn3      Zn       0.96966    0.23275    0.54976    1.000
    Zn4      Zn       0.01533    0.25878    0.46014    1.000
    C1       C        0.84180    0.26180    0.45620    1.000
    C2       C        0.84980    0.27860    0.41230    1.000
    H1       H        0.83040    0.28260    0.39660    1.000
    C3       C        0.88530    0.28940    0.39140    1.000
    C4       C        0.91420    0.28420    0.41310    1.000
    H2       H        0.93870    0.29150    0.39760    1.000
    C5       C        0.90740    0.26800    0.45850    1.000
    C6       C        0.87010    0.25700    0.47960    1.000
    H3       H        0.86460    0.24620    0.51020    1.000
    C7       C        0.80230    0.24910    0.47720    1.000
    C8       C        0.93670    0.25960    0.48170    1.000
    C9       C        0.92930    0.33830    0.28540    1.000
    C10      C        0.90140    0.34490    0.26360    1.000
    H4       H        0.87640    0.33680    0.27810    1.000
    C11      C        0.91010    0.36390    0.21890    1.000
    C12      C        0.94610    0.37490    0.19930    1.000
    H5       H        0.95160    0.38640    0.16900    1.000
    C13      C        0.97560    0.37000    0.22220    1.000
    C14      C        0.96640    0.35110    0.26460    1.000
    H6       H        0.98560    0.34670    0.28020    1.000
    C15      C        0.87990    0.37080    0.19670    1.000
    C16      C        0.01610    0.38390    0.20120    1.000
    C17      C        0.91950    0.13690    0.44870    1.000
    C18      C        0.92760    0.12750    0.40700    1.000
    H7       H        0.95200    0.14580    0.39220    1.000
    C19      C        0.90140    0.09160    0.38390    1.000
    C20      C        0.86440    0.06660    0.40190    1.000
    H8       H        0.84450    0.04480    0.38440    1.000
    C21      C        0.85660    0.07460    0.44780    1.000
    C22      C        0.88350    0.10860    0.47110    1.000
    H9       H        0.87800    0.11320    0.50210    1.000
    C23      C        0.94740    0.17450    0.47160    1.000
    C24      C        0.81730    0.04530    0.46910    1.000
    C25      C        0.98340    0.11000    0.25720    1.000
    H10      H        0.00420    0.13220    0.27340    1.000
    C26      C        0.99090    0.09940    0.21400    1.000
    C27      C        0.95910    0.06550    0.19040    1.000
    H11      H        0.96350    0.05810    0.16030    1.000
    C28      C        0.92370    0.04460    0.21080    1.000
    C29      C        0.91500    0.05360    0.25460    1.000
    H12      H        0.88970    0.03720    0.26890    1.000
    C30      C        0.94520    0.08830    0.27710    1.000
    C31      C        0.03170    0.12230    0.19490    1.000
    C32      C        0.88880    0.00540    0.18750    1.000
    N1       N        0.89090    0.30810    0.34540    1.000
    N2       N        0.92500    0.32050    0.32890    1.000
    N3       N        0.90790    0.08030    0.33950    1.000
    N4       N        0.94120    0.10090    0.32060    1.000
    O1       O        0.77624    0.25030    0.45220    1.000
    O2       O        0.79418    0.23370    0.51860    1.000
    O3       O        0.96583    0.26580    0.45660    1.000
    O4       O        0.93062    0.24770    0.52313    1.000
    O5       O        0.85124    0.36628    0.22137    1.000
    O6       O        0.88721    0.38497    0.15640    1.000
    O7       O        0.02151    0.39980    0.16010    1.000
    O8       O        0.04045    0.38387    0.22570    1.000
    O9       O        0.97697    0.20169    0.44746    1.000
    O10      O        0.93818    0.18077    0.51250    1.000
    O11      O        0.81000    0.05338    0.50970    1.000
    O12      O        0.79516    0.01670    0.44570    1.000
    O13      O        0.05776    0.14798    0.21930    1.000
    O14      O        0.03725    0.11451    0.15270    1.000
    O15      O        0.89609    0.99980    0.14730    1.000
    O16      O        0.85982    0.98585    0.21310    1.000
    Zn5      Zn       0.38611    0.57538    0.78670    1.000
    Zn6      Zn       0.40532    0.55033    0.87725    1.000
    Zn7      Zn       0.63633    0.56608    0.88309    1.000
    Zn8      Zn       0.68200    0.59211    0.79347    1.000
    C33      C        0.50847    0.59513    0.78953    1.000
    C34      C        0.51647    0.61193    0.74563    1.000
    H13      H        0.49707    0.61593    0.72993    1.000
    C35      C        0.55197    0.62273    0.72473    1.000
    C36      C        0.58087    0.61753    0.74643    1.000
    H14      H        0.60537    0.62483    0.73093    1.000
    C37      C        0.57407    0.60133    0.79183    1.000
    C38      C        0.53677    0.59033    0.81293    1.000
    H15      H        0.53127    0.57953    0.84353    1.000
    C39      C        0.46897    0.58243    0.81053    1.000
    C40      C        0.60337    0.59293    0.81503    1.000
    C41      C        0.59597    0.67163    0.61873    1.000
    C42      C        0.56807    0.67823    0.59693    1.000
    H16      H        0.54307    0.67013    0.61143    1.000
    C43      C        0.57677    0.69723    0.55223    1.000
    C44      C        0.61277    0.70823    0.53263    1.000
    H17      H        0.61827    0.71973    0.50233    1.000
    C45      C        0.64227    0.70333    0.55553    1.000
    C46      C        0.63307    0.68443    0.59793    1.000
    H18      H        0.65227    0.68003    0.61353    1.000
    C47      C        0.54657    0.70413    0.53003    1.000
    C48      C        0.68277    0.71723    0.53453    1.000
    C49      C        0.58617    0.47023    0.78203    1.000
    C50      C        0.59427    0.46083    0.74033    1.000
    H19      H        0.61867    0.47913    0.72553    1.000
    C51      C        0.56807    0.42493    0.71723    1.000
    C52      C        0.53107    0.39993    0.73523    1.000
    H20      H        0.51117    0.37813    0.71773    1.000
    C53      C        0.52327    0.40793    0.78113    1.000
    C54      C        0.55017    0.44193    0.80443    1.000
    H21      H        0.54467    0.44653    0.83543    1.000
    C55      C        0.61407    0.50783    0.80493    1.000
    C56      C        0.48397    0.37863    0.80243    1.000
    C57      C        0.65007    0.44333    0.59053    1.000
    H22      H        0.67087    0.46553    0.60673    1.000
    C58      C        0.65757    0.43273    0.54733    1.000
    C59      C        0.62577    0.39883    0.52373    1.000
    H23      H        0.63017    0.39143    0.49363    1.000
    C60      C        0.59037    0.37793    0.54413    1.000
    C61      C        0.58167    0.38693    0.58793    1.000
    H24      H        0.55637    0.37053    0.60223    1.000
    C62      C        0.61187    0.42163    0.61043    1.000
    C63      C        0.69837    0.45563    0.52823    1.000
    C64      C        0.55547    0.33873    0.52083    1.000
    N5       N        0.55757    0.64143    0.67873    1.000
    N6       N        0.59167    0.65383    0.66223    1.000
    N7       N        0.57457    0.41363    0.67283    1.000
    N8       N        0.60787    0.43423    0.65393    1.000
    O17      O        0.44291    0.58363    0.78553    1.000
    O18      O        0.46085    0.56703    0.85193    1.000
    O19      O        0.63250    0.59913    0.78993    1.000
    O20      O        0.59729    0.58103    0.85646    1.000
    O21      O        0.51791    0.69961    0.55470    1.000
    O22      O        0.55388    0.71830    0.48973    1.000
    O23      O        0.68818    0.73313    0.49343    1.000
    O24      O        0.70712    0.71720    0.55903    1.000
    O25      O        0.64364    0.53502    0.78079    1.000
    O26      O        0.60485    0.51410    0.84583    1.000
    O27      O        0.47667    0.38671    0.84303    1.000
    O28      O        0.46183    0.35003    0.77903    1.000
    O29      O        0.72443    0.48131    0.55263    1.000
    O30      O        0.70392    0.44784    0.48603    1.000
    O31      O        0.56276    0.33313    0.48063    1.000
    O32      O        0.52649    0.31918    0.54643    1.000
    Zn9      Zn       0.05277    0.90872    0.12004    1.000
    Zn10     Zn       0.07198    0.88367    0.21059    1.000
    Zn11     Zn       0.30299    0.89942    0.21643    1.000
    Zn12     Zn       0.34866    0.92545    0.12681    1.000
    C65      C        0.17513    0.92847    0.12287    1.000
    C66      C        0.18313    0.94527    0.07897    1.000
    H25      H        0.16373    0.94927    0.06327    1.000
    C67      C        0.21863    0.95607    0.05807    1.000
    C68      C        0.24753    0.95087    0.07977    1.000
    H26      H        0.27203    0.95817    0.06427    1.000
    C69      C        0.24073    0.93467    0.12517    1.000
    C70      C        0.20343    0.92367    0.14627    1.000
    H27      H        0.19793    0.91287    0.17687    1.000
    C71      C        0.13563    0.91577    0.14387    1.000
    C72      C        0.27003    0.92627    0.14837    1.000
    C73      C        0.26263    0.00497    0.95207    1.000
    C74      C        0.23473    0.01157    0.93027    1.000
    H28      H        0.20973    0.00347    0.94477    1.000
    C75      C        0.24343    0.03057    0.88557    1.000
    C76      C        0.27943    0.04157    0.86597    1.000
    H29      H        0.28493    0.05307    0.83567    1.000
    C77      C        0.30893    0.03667    0.88887    1.000
    C78      C        0.29973    0.01777    0.93127    1.000
    H30      H        0.31893    0.01337    0.94687    1.000
    C79      C        0.21323    0.03747    0.86337    1.000
    C80      C        0.34943    0.05057    0.86787    1.000
    C81      C        0.25283    0.80357    0.11537    1.000
    C82      C        0.26093    0.79417    0.07367    1.000
    H31      H        0.28533    0.81247    0.05887    1.000
    C83      C        0.23473    0.75827    0.05057    1.000
    C84      C        0.19773    0.73327    0.06857    1.000
    H32      H        0.17783    0.71147    0.05107    1.000
    C85      C        0.18993    0.74127    0.11447    1.000
    C86      C        0.21683    0.77527    0.13777    1.000
    H33      H        0.21133    0.77987    0.16877    1.000
    C87      C        0.28073    0.84117    0.13827    1.000
    C88      C        0.15063    0.71197    0.13577    1.000
    C89      C        0.31673    0.77667    0.92387    1.000
    H34      H        0.33753    0.79887    0.94007    1.000
    C90      C        0.32423    0.76607    0.88067    1.000
    C91      C        0.29243    0.73217    0.85707    1.000
    H35      H        0.29683    0.72477    0.82697    1.000
    C92      C        0.25703    0.71127    0.87747    1.000
    C93      C        0.24833    0.72027    0.92127    1.000
    H36      H        0.22303    0.70387    0.93557    1.000
    C94      C        0.27853    0.75497    0.94377    1.000
    C95      C        0.36503    0.78897    0.86157    1.000
    C96      C        0.22213    0.67207    0.85417    1.000
    N9       N        0.22423    0.97477    0.01207    1.000
    N10      N        0.25833    0.98717    0.99557    1.000
    N11      N        0.24123    0.74697    0.00617    1.000
    N12      N        0.27453    0.76757    0.98727    1.000
    O33      O        0.10957    0.91697    0.11887    1.000
    O34      O        0.12751    0.90037    0.18527    1.000
    O35      O        0.29916    0.93247    0.12327    1.000
    O36      O        0.26395    0.91437    0.18980    1.000
    O37      O        0.18457    0.03295    0.88804    1.000
    O38      O        0.22054    0.05164    0.82307    1.000
    O39      O        0.35484    0.06647    0.82677    1.000
    O40      O        0.37378    0.05054    0.89237    1.000
    O41      O        0.31030    0.86836    0.11413    1.000
    O42      O        0.27151    0.84744    0.17917    1.000
    O43      O        0.14333    0.72005    0.17637    1.000
    O44      O        0.12849    0.68337    0.11237    1.000
    O45      O        0.39109    0.81465    0.88597    1.000
    O46      O        0.37058    0.78118    0.81937    1.000
    O47      O        0.22942    0.66647    0.81397    1.000
    O48      O        0.19315    0.65252    0.87977    1.000
    Zn13     Zn       0.75795    0.47739    0.45337    1.000
    Zn14     Zn       0.78300    0.52165    0.54392    1.000
    Zn15     Zn       0.76725    0.73691    0.54976    1.000
    Zn16     Zn       0.74122    0.75655    0.46014    1.000
    C97      C        0.73820    0.58000    0.45620    1.000
    C98      C        0.72140    0.57120    0.41230    1.000
    H37      H        0.71740    0.54780    0.39660    1.000
    C99      C        0.71060    0.59590    0.39140    1.000
    C100     C        0.71580    0.63000    0.41310    1.000
    H38      H        0.70850    0.64720    0.39760    1.000
    C101     C        0.73200    0.63940    0.45850    1.000
    C102     C        0.74300    0.61310    0.47960    1.000
    H39      H        0.75380    0.61840    0.51020    1.000
    C103     C        0.75090    0.55320    0.47720    1.000
    C104     C        0.74040    0.67710    0.48170    1.000
    C105     C        0.66170    0.59100    0.28540    1.000
    C106     C        0.65510    0.55650    0.26360    1.000
    H40      H        0.66320    0.53960    0.27810    1.000
    C107     C        0.63610    0.54620    0.21890    1.000
    C108     C        0.62510    0.57120    0.19930    1.000
    H41      H        0.61360    0.56520    0.16900    1.000
    C109     C        0.63000    0.60560    0.22220    1.000
    C110     C        0.64890    0.61530    0.26460    1.000
    H42      H        0.65330    0.63890    0.28020    1.000
    C111     C        0.62920    0.50910    0.19670    1.000
    C112     C        0.61610    0.63220    0.20120    1.000
    C113     C        0.86310    0.78260    0.44870    1.000
    C114     C        0.87250    0.80010    0.40700    1.000
    H43      H        0.85420    0.80620    0.39220    1.000
    C115     C        0.90840    0.80980    0.38390    1.000
    C116     C        0.93340    0.79780    0.40190    1.000
    H44      H        0.95520    0.79970    0.38440    1.000
    C117     C        0.92540    0.78200    0.44780    1.000
    C118     C        0.89140    0.77490    0.47110    1.000
    H45      H        0.88680    0.76480    0.50210    1.000
    C119     C        0.82550    0.77290    0.47160    1.000
    C120     C        0.95470    0.77200    0.46910    1.000
    C121     C        0.89000    0.87340    0.25720    1.000
    H46      H        0.86780    0.87200    0.27340    1.000
    C122     C        0.90060    0.89150    0.21400    1.000
    C123     C        0.93450    0.89360    0.19040    1.000
    H47      H        0.94190    0.90540    0.16030    1.000
    C124     C        0.95540    0.87910    0.21080    1.000
    C125     C        0.94640    0.86140    0.25460    1.000
    H48      H        0.96280    0.85250    0.26890    1.000
    C126     C        0.91170    0.85690    0.27710    1.000
    C127     C        0.87770    0.90940    0.19490    1.000
    C128     C        0.99460    0.88340    0.18750    1.000
    N13      N        0.69190    0.58280    0.34540    1.000
    N14      N        0.67950    0.60450    0.32890    1.000
    N15      N        0.91970    0.82760    0.33950    1.000
    N16      N        0.89910    0.84030    0.32060    1.000
    O49      O        0.74970    0.52594    0.45220    1.000
    O50      O        0.76630    0.56048    0.51860    1.000
    O51      O        0.73420    0.70003    0.45660    1.000
    O52      O        0.75230    0.68292    0.52313    1.000
    O53      O        0.63372    0.48496    0.22137    1.000
    O54      O        0.61503    0.50224    0.15640    1.000
    O55      O        0.60020    0.62171    0.16010    1.000
    O56      O        0.61613    0.65658    0.22570    1.000
    O57      O        0.79831    0.77528    0.44746    1.000
    O58      O        0.81923    0.75741    0.51250    1.000
    O59      O        0.94662    0.75662    0.50970    1.000
    O60      O        0.98330    0.77846    0.44570    1.000
    O61      O        0.85202    0.90978    0.21930    1.000
    O62      O        0.88549    0.92274    0.15270    1.000
    O63      O        0.00020    0.89629    0.14730    1.000
    O64      O        0.01415    0.87397    0.21310    1.000
    Zn17     Zn       0.42462    0.81072    0.78670    1.000
    Zn18     Zn       0.44967    0.85498    0.87725    1.000
    Zn19     Zn       0.43392    0.07024    0.88309    1.000
    Zn20     Zn       0.40789    0.08988    0.79347    1.000
    C129     C        0.40487    0.91333    0.78953    1.000
    C130     C        0.38807    0.90453    0.74563    1.000
    H49      H        0.38407    0.88113    0.72993    1.000
    C131     C        0.37727    0.92923    0.72473    1.000
    C132     C        0.38247    0.96333    0.74643    1.000
    H50      H        0.37517    0.98053    0.73093    1.000
    C133     C        0.39867    0.97273    0.79183    1.000
    C134     C        0.40967    0.94643    0.81293    1.000
    H51      H        0.42047    0.95173    0.84353    1.000
    C135     C        0.41757    0.88653    0.81053    1.000
    C136     C        0.40707    0.01043    0.81503    1.000
    C137     C        0.32837    0.92433    0.61873    1.000
    C138     C        0.32177    0.88983    0.59693    1.000
    H52      H        0.32987    0.87293    0.61143    1.000
    C139     C        0.30277    0.87953    0.55223    1.000
    C140     C        0.29177    0.90453    0.53263    1.000
    H53      H        0.28027    0.89853    0.50233    1.000
    C141     C        0.29667    0.93893    0.55553    1.000
    C142     C        0.31557    0.94863    0.59793    1.000
    H54      H        0.31997    0.97223    0.61353    1.000
    C143     C        0.29587    0.84243    0.53003    1.000
    C144     C        0.28277    0.96553    0.53453    1.000
    C145     C        0.52977    0.11593    0.78203    1.000
    C146     C        0.53917    0.13343    0.74033    1.000
    H55      H        0.52087    0.13953    0.72553    1.000
    C147     C        0.57507    0.14313    0.71723    1.000
    C148     C        0.60007    0.13113    0.73523    1.000
    H56      H        0.62187    0.13303    0.71773    1.000
    C149     C        0.59207    0.11533    0.78113    1.000
    C150     C        0.55807    0.10823    0.80443    1.000
    H57      H        0.55347    0.09813    0.83543    1.000
    C151     C        0.49217    0.10623    0.80493    1.000
    C152     C        0.62137    0.10533    0.80243    1.000
    C153     C        0.55667    0.20673    0.59053    1.000
    H58      H        0.53447    0.20533    0.60673    1.000
    C154     C        0.56727    0.22483    0.54733    1.000
    C155     C        0.60117    0.22693    0.52373    1.000
    H59      H        0.60857    0.23873    0.49363    1.000
    C156     C        0.62207    0.21243    0.54413    1.000
    C157     C        0.61307    0.19473    0.58793    1.000
    H60      H        0.62947    0.18583    0.60223    1.000
    C158     C        0.57837    0.19023    0.61043    1.000
    C159     C        0.54437    0.24273    0.52823    1.000
    C160     C        0.66127    0.21673    0.52083    1.000
    N17      N        0.35857    0.91613    0.67873    1.000
    N18      N        0.34617    0.93783    0.66223    1.000
    N19      N        0.58637    0.16093    0.67283    1.000
    N20      N        0.56577    0.17363    0.65393    1.000
    O65      O        0.41637    0.85927    0.78553    1.000
    O66      O        0.43297    0.89381    0.85193    1.000
    O67      O        0.40087    0.03336    0.78993    1.000
    O68      O        0.41897    0.01625    0.85646    1.000
    O69      O        0.30039    0.81829    0.55470    1.000
    O70      O        0.28170    0.83557    0.48973    1.000
    O71      O        0.26687    0.95504    0.49343    1.000
    O72      O        0.28280    0.98991    0.55903    1.000
    O73      O        0.46498    0.10861    0.78079    1.000
    O74      O        0.48590    0.09074    0.84583    1.000
    O75      O        0.61329    0.08995    0.84303    1.000
    O76      O        0.64997    0.11179    0.77903    1.000
    O77      O        0.51869    0.24311    0.55263    1.000
    O78      O        0.55216    0.25607    0.48603    1.000
    O79      O        0.66687    0.22962    0.48063    1.000
    O80      O        0.68082    0.20730    0.54643    1.000
    Zn21     Zn       0.09128    0.14406    0.12004    1.000
    Zn22     Zn       0.11633    0.18832    0.21059    1.000
    Zn23     Zn       0.10058    0.40358    0.21643    1.000
    Zn24     Zn       0.07455    0.42322    0.12681    1.000
    C161     C        0.07153    0.24667    0.12287    1.000
    C162     C        0.05473    0.23787    0.07897    1.000
    H61      H        0.05073    0.21447    0.06327    1.000
    C163     C        0.04393    0.26257    0.05807    1.000
    C164     C        0.04913    0.29667    0.07977    1.000
    H62      H        0.04183    0.31387    0.06427    1.000
    C165     C        0.06533    0.30607    0.12517    1.000
    C166     C        0.07633    0.27977    0.14627    1.000
    H63      H        0.08713    0.28507    0.17687    1.000
    C167     C        0.08423    0.21987    0.14387    1.000
    C168     C        0.07373    0.34377    0.14837    1.000
    C169     C        0.99503    0.25767    0.95207    1.000
    C170     C        0.98843    0.22317    0.93027    1.000
    H64      H        0.99653    0.20627    0.94477    1.000
    C171     C        0.96943    0.21287    0.88557    1.000
    C172     C        0.95843    0.23787    0.86597    1.000
    H65      H        0.94693    0.23187    0.83567    1.000
    C173     C        0.96333    0.27227    0.88887    1.000
    C174     C        0.98223    0.28197    0.93127    1.000
    H66      H        0.98663    0.30557    0.94687    1.000
    C175     C        0.96253    0.17577    0.86337    1.000
    C176     C        0.94943    0.29887    0.86787    1.000
    C177     C        0.19643    0.44927    0.11537    1.000
    C178     C        0.20583    0.46677    0.07367    1.000
    H67      H        0.18753    0.47287    0.05887    1.000
    C179     C        0.24173    0.47647    0.05057    1.000
    C180     C        0.26673    0.46447    0.06857    1.000
    H68      H        0.28853    0.46637    0.05107    1.000
    C181     C        0.25873    0.44867    0.11447    1.000
    C182     C        0.22473    0.44157    0.13777    1.000
    H69      H        0.22013    0.43147    0.16877    1.000
    C183     C        0.15883    0.43957    0.13827    1.000
    C184     C        0.28803    0.43867    0.13577    1.000
    C185     C        0.22333    0.54007    0.92387    1.000
    H70      H        0.20113    0.53867    0.94007    1.000
    C186     C        0.23393    0.55817    0.88067    1.000
    C187     C        0.26783    0.56027    0.85707    1.000
    H71      H        0.27523    0.57207    0.82697    1.000
    C188     C        0.28873    0.54577    0.87747    1.000
    C189     C        0.27973    0.52807    0.92127    1.000
    H72      H        0.29613    0.51917    0.93557    1.000
    C190     C        0.24503    0.52357    0.94377    1.000
    C191     C        0.21103    0.57607    0.86157    1.000
    C192     C        0.32793    0.55007    0.85417    1.000
    N21      N        0.02523    0.24947    0.01207    1.000
    N22      N        0.01283    0.27117    0.99557    1.000
    N23      N        0.25303    0.49427    0.00617    1.000
    N24      N        0.23243    0.50697    0.98727    1.000
    O81      O        0.08303    0.19261    0.11887    1.000
    O82      O        0.09963    0.22715    0.18527    1.000
    O83      O        0.06753    0.36670    0.12327    1.000
    O84      O        0.08563    0.34959    0.18980    1.000
    O85      O        0.96705    0.15163    0.88804    1.000
    O86      O        0.94836    0.16891    0.82307    1.000
    O87      O        0.93353    0.28838    0.82677    1.000
    O88      O        0.94946    0.32325    0.89237    1.000
    O89      O        0.13164    0.44195    0.11413    1.000
    O90      O        0.15256    0.42408    0.17917    1.000
    O91      O        0.27995    0.42329    0.17637    1.000
    O92      O        0.31663    0.44513    0.11237    1.000
    O93      O        0.18535    0.57645    0.88597    1.000
    O94      O        0.21882    0.58941    0.81937    1.000
    O95      O        0.33353    0.56296    0.81397    1.000
    O96      O        0.34748    0.54064    0.87977    1.000
    Zn25     Zn       0.52261    0.28056    0.45337    1.000
    Zn26     Zn       0.47835    0.26135    0.54392    1.000
    Zn27     Zn       0.26309    0.03034    0.54976    1.000
    Zn28     Zn       0.24345    0.98467    0.46014    1.000
    C193     C        0.42000    0.15820    0.45620    1.000
    C194     C        0.42880    0.15020    0.41230    1.000
    H73      H        0.45220    0.16960    0.39660    1.000
    C195     C        0.40410    0.11470    0.39140    1.000
    C196     C        0.37000    0.08580    0.41310    1.000
    H74      H        0.35280    0.06130    0.39760    1.000
    C197     C        0.36060    0.09260    0.45850    1.000
    C198     C        0.38690    0.12990    0.47960    1.000
    H75      H        0.38160    0.13540    0.51020    1.000
    C199     C        0.44680    0.19770    0.47720    1.000
    C200     C        0.32290    0.06330    0.48170    1.000
    C201     C        0.40900    0.07070    0.28540    1.000
    C202     C        0.44350    0.09860    0.26360    1.000
    H76      H        0.46040    0.12360    0.27810    1.000
    C203     C        0.45380    0.08990    0.21890    1.000
    C204     C        0.42880    0.05390    0.19930    1.000
    H77      H        0.43480    0.04840    0.16900    1.000
    C205     C        0.39440    0.02440    0.22220    1.000
    C206     C        0.38470    0.03360    0.26460    1.000
    H78      H        0.36110    0.01440    0.28020    1.000
    C207     C        0.49090    0.12010    0.19670    1.000
    C208     C        0.36780    0.98390    0.20120    1.000
    C209     C        0.21740    0.08050    0.44870    1.000
    C210     C        0.19990    0.07240    0.40700    1.000
    H79      H        0.19380    0.04800    0.39220    1.000
    C211     C        0.19020    0.09860    0.38390    1.000
    C212     C        0.20220    0.13560    0.40190    1.000
    H80      H        0.20030    0.15550    0.38440    1.000
    C213     C        0.21800    0.14340    0.44780    1.000
    C214     C        0.22510    0.11650    0.47110    1.000
    H81      H        0.23520    0.12200    0.50210    1.000
    C215     C        0.22710    0.05260    0.47160    1.000
    C216     C        0.22800    0.18270    0.46910    1.000
    C217     C        0.12660    0.01660    0.25720    1.000
    H82      H        0.12800    0.99580    0.27340    1.000
    C218     C        0.10850    0.00910    0.21400    1.000
    C219     C        0.10640    0.04090    0.19040    1.000
    H83      H        0.09460    0.03650    0.16030    1.000
    C220     C        0.12090    0.07630    0.21080    1.000
    C221     C        0.13860    0.08500    0.25460    1.000
    H84      H        0.14750    0.11030    0.26890    1.000
    C222     C        0.14310    0.05480    0.27710    1.000
    C223     C        0.09060    0.96830    0.19490    1.000
    C224     C        0.11660    0.11120    0.18750    1.000
    N25      N        0.41720    0.10910    0.34540    1.000
    N26      N        0.39550    0.07500    0.32890    1.000
    N27      N        0.17240    0.09210    0.33950    1.000
    N28      N        0.15970    0.05880    0.32060    1.000
    O97      O        0.47406    0.22376    0.45220    1.000
    O98      O        0.43952    0.20582    0.51860    1.000
    O99      O        0.29997    0.03417    0.45660    1.000
    O100     O        0.31708    0.06938    0.52313    1.000
    O101     O        0.51504    0.14876    0.22137    1.000
    O102     O        0.49776    0.11279    0.15640    1.000
    O103     O        0.37829    0.97849    0.16010    1.000
    O104     O        0.34342    0.95955    0.22570    1.000
    O105     O        0.22472    0.02303    0.44746    1.000
    O106     O        0.24259    0.06182    0.51250    1.000
    O107     O        0.24338    0.19000    0.50970    1.000
    O108     O        0.22154    0.20484    0.44570    1.000
    O109     O        0.09022    0.94224    0.21930    1.000
    O110     O        0.07726    0.96275    0.15270    1.000
    O111     O        0.10371    0.10391    0.14730    1.000
    O112     O        0.12603    0.14018    0.21310    1.000
    Zn29     Zn       0.18928    0.61389    0.78670    1.000
    Zn30     Zn       0.14502    0.59468    0.87725    1.000
    Zn31     Zn       0.92976    0.36367    0.88309    1.000
    Zn32     Zn       0.91012    0.31800    0.79347    1.000
    C225     C        0.08667    0.49153    0.78953    1.000
    C226     C        0.09547    0.48353    0.74563    1.000
    H85      H        0.11887    0.50293    0.72993    1.000
    C227     C        0.07077    0.44803    0.72473    1.000
    C228     C        0.03667    0.41913    0.74643    1.000
    H86      H        0.01947    0.39463    0.73093    1.000
    C229     C        0.02727    0.42593    0.79183    1.000
    C230     C        0.05357    0.46323    0.81293    1.000
    H87      H        0.04827    0.46873    0.84353    1.000
    C231     C        0.11347    0.53103    0.81053    1.000
    C232     C        0.98957    0.39663    0.81503    1.000
    C233     C        0.07567    0.40403    0.61873    1.000
    C234     C        0.11017    0.43193    0.59693    1.000
    H88      H        0.12707    0.45693    0.61143    1.000
    C235     C        0.12047    0.42323    0.55223    1.000
    C236     C        0.09547    0.38723    0.53263    1.000
    H89      H        0.10147    0.38173    0.50233    1.000
    C237     C        0.06107    0.35773    0.55553    1.000
    C238     C        0.05137    0.36693    0.59793    1.000
    H90      H        0.02777    0.34773    0.61353    1.000
    C239     C        0.15757    0.45343    0.53003    1.000
    C240     C        0.03447    0.31723    0.53453    1.000
    C241     C        0.88407    0.41383    0.78203    1.000
    C242     C        0.86657    0.40573    0.74033    1.000
    H91      H        0.86047    0.38133    0.72553    1.000
    C243     C        0.85687    0.43193    0.71723    1.000
    C244     C        0.86887    0.46893    0.73523    1.000
    H92      H        0.86697    0.48883    0.71773    1.000
    C245     C        0.88467    0.47673    0.78113    1.000
    C246     C        0.89177    0.44983    0.80443    1.000
    H93      H        0.90187    0.45533    0.83543    1.000
    C247     C        0.89377    0.38593    0.80493    1.000
    C248     C        0.89467    0.51603    0.80243    1.000
    C249     C        0.79327    0.34993    0.59053    1.000
    H94      H        0.79467    0.32913    0.60673    1.000
    C250     C        0.77517    0.34243    0.54733    1.000
    C251     C        0.77307    0.37423    0.52373    1.000
    H95      H        0.76127    0.36983    0.49363    1.000
    C252     C        0.78757    0.40963    0.54413    1.000
    C253     C        0.80527    0.41833    0.58793    1.000
    H96      H        0.81417    0.44363    0.60223    1.000
    C254     C        0.80977    0.38813    0.61043    1.000
    C255     C        0.75727    0.30163    0.52823    1.000
    C256     C        0.78327    0.44453    0.52083    1.000
    N29      N        0.08387    0.44243    0.67873    1.000
    N30      N        0.06217    0.40833    0.66223    1.000
    N31      N        0.83907    0.42543    0.67283    1.000
    N32      N        0.82637    0.39213    0.65393    1.000
    O113     O        0.14073    0.55709    0.78553    1.000
    O114     O        0.10619    0.53915    0.85193    1.000
    O115     O        0.96664    0.36750    0.78993    1.000
    O116     O        0.98375    0.40271    0.85646    1.000
    O117     O        0.18171    0.48209    0.55470    1.000
    O118     O        0.16443    0.44612    0.48973    1.000
    O119     O        0.04496    0.31182    0.49343    1.000
    O120     O        0.01009    0.29288    0.55903    1.000
    O121     O        0.89139    0.35636    0.78079    1.000
    O122     O        0.90926    0.39515    0.84583    1.000
    O123     O        0.91005    0.52333    0.84303    1.000
    O124     O        0.88821    0.53817    0.77903    1.000
    O125     O        0.75689    0.27557    0.55263    1.000
    O126     O        0.74393    0.29608    0.48603    1.000
    O127     O        0.77038    0.43724    0.48063    1.000
    O128     O        0.79270    0.47351    0.54643    1.000
    Zn33     Zn       0.85594    0.94723    0.12004    1.000
    Zn34     Zn       0.81168    0.92802    0.21059    1.000
    Zn35     Zn       0.59642    0.69701    0.21643    1.000
    Zn36     Zn       0.57678    0.65134    0.12681    1.000
    C257     C        0.75333    0.82487    0.12287    1.000
    C258     C        0.76213    0.81687    0.07897    1.000
    H97      H        0.78553    0.83627    0.06327    1.000
    C259     C        0.73743    0.78137    0.05807    1.000
    C260     C        0.70333    0.75247    0.07977    1.000
    H98      H        0.68613    0.72797    0.06427    1.000
    C261     C        0.69393    0.75927    0.12517    1.000
    C262     C        0.72023    0.79657    0.14627    1.000
    H99      H        0.71493    0.80207    0.17687    1.000
    C263     C        0.78013    0.86437    0.14387    1.000
    C264     C        0.65623    0.72997    0.14837    1.000
    C265     C        0.74233    0.73737    0.95207    1.000
    C266     C        0.77683    0.76527    0.93027    1.000
    H100     H        0.79373    0.79027    0.94477    1.000
    C267     C        0.78713    0.75657    0.88557    1.000
    C268     C        0.76213    0.72057    0.86597    1.000
    H101     H        0.76813    0.71507    0.83567    1.000
    C269     C        0.72773    0.69107    0.88887    1.000
    C270     C        0.71803    0.70027    0.93127    1.000
    H102     H        0.69443    0.68107    0.94687    1.000
    C271     C        0.82423    0.78677    0.86337    1.000
    C272     C        0.70113    0.65057    0.86787    1.000
    C273     C        0.55073    0.74717    0.11537    1.000
    C274     C        0.53323    0.73907    0.07367    1.000
    H103     H        0.52713    0.71467    0.05887    1.000
    C275     C        0.52353    0.76527    0.05057    1.000
    C276     C        0.53553    0.80227    0.06857    1.000
    H104     H        0.53363    0.82217    0.05107    1.000
    C277     C        0.55133    0.81007    0.11447    1.000
    C278     C        0.55843    0.78317    0.13777    1.000
    H105     H        0.56853    0.78867    0.16877    1.000
    C279     C        0.56043    0.71927    0.13827    1.000
    C280     C        0.56133    0.84937    0.13577    1.000
    C281     C        0.45993    0.68327    0.92387    1.000
    H106     H        0.46133    0.66247    0.94007    1.000
    C282     C        0.44183    0.67577    0.88067    1.000
    C283     C        0.43973    0.70757    0.85707    1.000
    H107     H        0.42793    0.70317    0.82697    1.000
    C284     C        0.45423    0.74297    0.87747    1.000
    C285     C        0.47193    0.75167    0.92127    1.000
    H108     H        0.48083    0.77697    0.93557    1.000
    C286     C        0.47643    0.72147    0.94377    1.000
    C287     C        0.42393    0.63497    0.86157    1.000
    C288     C        0.44993    0.77787    0.85417    1.000
    N33      N        0.75053    0.77577    0.01207    1.000
    N34      N        0.72883    0.74167    0.99557    1.000
    N35      N        0.50573    0.75877    0.00617    1.000
    N36      N        0.49303    0.72547    0.98727    1.000
    O129     O        0.80739    0.89043    0.11887    1.000
    O130     O        0.77285    0.87249    0.18527    1.000
    O131     O        0.63330    0.70084    0.12327    1.000
    O132     O        0.65041    0.73605    0.18980    1.000
    O133     O        0.84837    0.81543    0.88804    1.000
    O134     O        0.83109    0.77946    0.82307    1.000
    O135     O        0.71162    0.64516    0.82677    1.000
    O136     O        0.67675    0.62622    0.89237    1.000
    O137     O        0.55805    0.68970    0.11413    1.000
    O138     O        0.57592    0.72849    0.17917    1.000
    O139     O        0.57671    0.85667    0.17637    1.000
    O140     O        0.55487    0.87151    0.11237    1.000
    O141     O        0.42355    0.60891    0.88597    1.000
    O142     O        0.41059    0.62942    0.81937    1.000
    O143     O        0.43704    0.77058    0.81397    1.000
    O144     O        0.45936    0.80685    0.87977    1.000
    Zn37     Zn       0.28056    0.75795    0.54663    1.000
    Zn38     Zn       0.26135    0.78300    0.45608    1.000
    Zn39     Zn       0.03034    0.76725    0.45024    1.000
    Zn40     Zn       0.98467    0.74122    0.53986    1.000
    C289     C        0.15820    0.73820    0.54380    1.000
    C290     C        0.15020    0.72140    0.58770    1.000
    H109     H        0.16960    0.71740    0.60340    1.000
    C291     C        0.11470    0.71060    0.60860    1.000
    C292     C        0.08580    0.71580    0.58690    1.000
    H110     H        0.06130    0.70850    0.60240    1.000
    C293     C        0.09260    0.73200    0.54150    1.000
    C294     C        0.12990    0.74300    0.52040    1.000
    H111     H        0.13540    0.75380    0.48980    1.000
    C295     C        0.19770    0.75090    0.52280    1.000
    C296     C        0.06330    0.74040    0.51830    1.000
    C297     C        0.07070    0.66170    0.71460    1.000
    C298     C        0.09860    0.65510    0.73640    1.000
    H112     H        0.12360    0.66320    0.72190    1.000
    C299     C        0.08990    0.63610    0.78110    1.000
    C300     C        0.05390    0.62510    0.80070    1.000
    H113     H        0.04840    0.61360    0.83100    1.000
    C301     C        0.02440    0.63000    0.77780    1.000
    C302     C        0.03360    0.64890    0.73540    1.000
    H114     H        0.01440    0.65330    0.71980    1.000
    C303     C        0.12010    0.62920    0.80330    1.000
    C304     C        0.98390    0.61610    0.79880    1.000
    C305     C        0.08050    0.86310    0.55130    1.000
    C306     C        0.07240    0.87250    0.59300    1.000
    H115     H        0.04800    0.85420    0.60780    1.000
    C307     C        0.09860    0.90840    0.61610    1.000
    C308     C        0.13560    0.93340    0.59810    1.000
    H116     H        0.15550    0.95520    0.61560    1.000
    C309     C        0.14340    0.92540    0.55220    1.000
    C310     C        0.11650    0.89140    0.52890    1.000
    H117     H        0.12200    0.88680    0.49790    1.000
    C311     C        0.05260    0.82550    0.52840    1.000
    C312     C        0.18270    0.95470    0.53090    1.000
    C313     C        0.01660    0.89000    0.74280    1.000
    H118     H        0.99580    0.86780    0.72660    1.000
    C314     C        0.00910    0.90060    0.78600    1.000
    C315     C        0.04090    0.93450    0.80960    1.000
    H119     H        0.03650    0.94190    0.83970    1.000
    C316     C        0.07630    0.95540    0.78920    1.000
    C317     C        0.08500    0.94640    0.74540    1.000
    H120     H        0.11030    0.96280    0.73110    1.000
    C318     C        0.05480    0.91170    0.72290    1.000
    C319     C        0.96830    0.87770    0.80510    1.000
    C320     C        0.11120    0.99460    0.81250    1.000
    N37      N        0.10910    0.69190    0.65460    1.000
    N38      N        0.07500    0.67950    0.67110    1.000
    N39      N        0.09210    0.91970    0.66050    1.000
    N40      N        0.05880    0.89910    0.67940    1.000
    O145     O        0.22376    0.74970    0.54780    1.000
    O146     O        0.20582    0.76630    0.48140    1.000
    O147     O        0.03417    0.73420    0.54340    1.000
    O148     O        0.06938    0.75230    0.47687    1.000
    O149     O        0.14876    0.63372    0.77863    1.000
    O150     O        0.11279    0.61503    0.84360    1.000
    O151     O        0.97849    0.60020    0.83990    1.000
    O152     O        0.95955    0.61613    0.77430    1.000
    O153     O        0.02303    0.79831    0.55254    1.000
    O154     O        0.06182    0.81923    0.48750    1.000
    O155     O        0.19000    0.94662    0.49030    1.000
    O156     O        0.20484    0.98330    0.55430    1.000
    O157     O        0.94224    0.85202    0.78070    1.000
    O158     O        0.96275    0.88549    0.84730    1.000
    O159     O        0.10391    0.00020    0.85270    1.000
    O160     O        0.14018    0.01415    0.78690    1.000
    Zn41     Zn       0.94723    0.09128    0.87996    1.000
    Zn42     Zn       0.92802    0.11633    0.78941    1.000
    Zn43     Zn       0.69701    0.10058    0.78357    1.000
    Zn44     Zn       0.65134    0.07455    0.87319    1.000
    C321     C        0.82487    0.07153    0.87713    1.000
    C322     C        0.81687    0.05473    0.92103    1.000
    H121     H        0.83627    0.05073    0.93673    1.000
    C323     C        0.78137    0.04393    0.94193    1.000
    C324     C        0.75247    0.04913    0.92023    1.000
    H122     H        0.72797    0.04183    0.93573    1.000
    C325     C        0.75927    0.06533    0.87483    1.000
    C326     C        0.79657    0.07633    0.85373    1.000
    H123     H        0.80207    0.08713    0.82313    1.000
    C327     C        0.86437    0.08423    0.85613    1.000
    C328     C        0.72997    0.07373    0.85163    1.000
    C329     C        0.73737    0.99503    0.04793    1.000
    C330     C        0.76527    0.98843    0.06973    1.000
    H124     H        0.79027    0.99653    0.05523    1.000
    C331     C        0.75657    0.96943    0.11443    1.000
    C332     C        0.72057    0.95843    0.13403    1.000
    H125     H        0.71507    0.94693    0.16433    1.000
    C333     C        0.69107    0.96333    0.11113    1.000
    C334     C        0.70027    0.98223    0.06873    1.000
    H126     H        0.68107    0.98663    0.05313    1.000
    C335     C        0.78677    0.96253    0.13663    1.000
    C336     C        0.65057    0.94943    0.13213    1.000
    C337     C        0.74717    0.19643    0.88463    1.000
    C338     C        0.73907    0.20583    0.92633    1.000
    H127     H        0.71467    0.18753    0.94113    1.000
    C339     C        0.76527    0.24173    0.94943    1.000
    C340     C        0.80227    0.26673    0.93143    1.000
    H128     H        0.82217    0.28853    0.94893    1.000
    C341     C        0.81007    0.25873    0.88553    1.000
    C342     C        0.78317    0.22473    0.86223    1.000
    H129     H        0.78867    0.22013    0.83123    1.000
    C343     C        0.71927    0.15883    0.86173    1.000
    C344     C        0.84937    0.28803    0.86423    1.000
    C345     C        0.68327    0.22333    0.07613    1.000
    H130     H        0.66247    0.20113    0.05993    1.000
    C346     C        0.67577    0.23393    0.11933    1.000
    C347     C        0.70757    0.26783    0.14293    1.000
    H131     H        0.70317    0.27523    0.17303    1.000
    C348     C        0.74297    0.28873    0.12253    1.000
    C349     C        0.75167    0.27973    0.07873    1.000
    H132     H        0.77697    0.29613    0.06443    1.000
    C350     C        0.72147    0.24503    0.05623    1.000
    C351     C        0.63497    0.21103    0.13843    1.000
    C352     C        0.77787    0.32793    0.14583    1.000
    N41      N        0.77577    0.02523    0.98793    1.000
    N42      N        0.74167    0.01283    0.00443    1.000
    N43      N        0.75877    0.25303    0.99383    1.000
    N44      N        0.72547    0.23243    0.01273    1.000
    O161     O        0.89043    0.08303    0.88113    1.000
    O162     O        0.87249    0.09963    0.81473    1.000
    O163     O        0.70084    0.06753    0.87673    1.000
    O164     O        0.73605    0.08563    0.81020    1.000
    O165     O        0.81543    0.96705    0.11196    1.000
    O166     O        0.77946    0.94836    0.17693    1.000
    O167     O        0.64516    0.93353    0.17323    1.000
    O168     O        0.62622    0.94946    0.10763    1.000
    O169     O        0.68970    0.13164    0.88587    1.000
    O170     O        0.72849    0.15256    0.82083    1.000
    O171     O        0.85667    0.27995    0.82363    1.000
    O172     O        0.87151    0.31663    0.88763    1.000
    O173     O        0.60891    0.18535    0.11403    1.000
    O174     O        0.62942    0.21882    0.18063    1.000
    O175     O        0.77058    0.33353    0.18603    1.000
    O176     O        0.80685    0.34748    0.12023    1.000
    Zn45     Zn       0.61389    0.42462    0.21330    1.000
    Zn46     Zn       0.59468    0.44967    0.12275    1.000
    Zn47     Zn       0.36367    0.43392    0.11691    1.000
    Zn48     Zn       0.31800    0.40789    0.20653    1.000
    C353     C        0.49153    0.40487    0.21047    1.000
    C354     C        0.48353    0.38807    0.25437    1.000
    H133     H        0.50293    0.38407    0.27007    1.000
    C355     C        0.44803    0.37727    0.27527    1.000
    C356     C        0.41913    0.38247    0.25357    1.000
    H134     H        0.39463    0.37517    0.26907    1.000
    C357     C        0.42593    0.39867    0.20817    1.000
    C358     C        0.46323    0.40967    0.18707    1.000
    H135     H        0.46873    0.42047    0.15647    1.000
    C359     C        0.53103    0.41757    0.18947    1.000
    C360     C        0.39663    0.40707    0.18497    1.000
    C361     C        0.40403    0.32837    0.38127    1.000
    C362     C        0.43193    0.32177    0.40307    1.000
    H136     H        0.45693    0.32987    0.38857    1.000
    C363     C        0.42323    0.30277    0.44777    1.000
    C364     C        0.38723    0.29177    0.46737    1.000
    H137     H        0.38173    0.28027    0.49767    1.000
    C365     C        0.35773    0.29667    0.44447    1.000
    C366     C        0.36693    0.31557    0.40207    1.000
    H138     H        0.34773    0.31997    0.38647    1.000
    C367     C        0.45343    0.29587    0.46997    1.000
    C368     C        0.31723    0.28277    0.46547    1.000
    C369     C        0.41383    0.52977    0.21797    1.000
    C370     C        0.40573    0.53917    0.25967    1.000
    H139     H        0.38133    0.52087    0.27447    1.000
    C371     C        0.43193    0.57507    0.28277    1.000
    C372     C        0.46893    0.60007    0.26477    1.000
    H140     H        0.48883    0.62187    0.28227    1.000
    C373     C        0.47673    0.59207    0.21887    1.000
    C374     C        0.44983    0.55807    0.19557    1.000
    H141     H        0.45533    0.55347    0.16457    1.000
    C375     C        0.38593    0.49217    0.19507    1.000
    C376     C        0.51603    0.62137    0.19757    1.000
    C377     C        0.34993    0.55667    0.40947    1.000
    H142     H        0.32913    0.53447    0.39327    1.000
    C378     C        0.34243    0.56727    0.45267    1.000
    C379     C        0.37423    0.60117    0.47627    1.000
    H143     H        0.36983    0.60857    0.50637    1.000
    C380     C        0.40963    0.62207    0.45587    1.000
    C381     C        0.41833    0.61307    0.41207    1.000
    H144     H        0.44363    0.62947    0.39777    1.000
    C382     C        0.38813    0.57837    0.38957    1.000
    C383     C        0.30163    0.54437    0.47177    1.000
    C384     C        0.44453    0.66127    0.47917    1.000
    N45      N        0.44243    0.35857    0.32127    1.000
    N46      N        0.40833    0.34617    0.33777    1.000
    N47      N        0.42543    0.58637    0.32717    1.000
    N48      N        0.39213    0.56577    0.34607    1.000
    O177     O        0.55709    0.41637    0.21447    1.000
    O178     O        0.53915    0.43297    0.14807    1.000
    O179     O        0.36750    0.40087    0.21007    1.000
    O180     O        0.40271    0.41897    0.14354    1.000
    O181     O        0.48209    0.30039    0.44530    1.000
    O182     O        0.44612    0.28170    0.51027    1.000
    O183     O        0.31182    0.26687    0.50657    1.000
    O184     O        0.29288    0.28280    0.44097    1.000
    O185     O        0.35636    0.46498    0.21921    1.000
    O186     O        0.39515    0.48590    0.15417    1.000
    O187     O        0.52333    0.61329    0.15697    1.000
    O188     O        0.53817    0.64997    0.22097    1.000
    O189     O        0.27557    0.51869    0.44737    1.000
    O190     O        0.29608    0.55216    0.51397    1.000
    O191     O        0.43724    0.66687    0.51937    1.000
    O192     O        0.47351    0.68082    0.45357    1.000
    Zn49     Zn       0.24205    0.52261    0.54663    1.000
    Zn50     Zn       0.21700    0.47835    0.45608    1.000
    Zn51     Zn       0.23275    0.26309    0.45024    1.000
    Zn52     Zn       0.25878    0.24345    0.53986    1.000
    C385     C        0.26180    0.42000    0.54380    1.000
    C386     C        0.27860    0.42880    0.58770    1.000
    H145     H        0.28260    0.45220    0.60340    1.000
    C387     C        0.28940    0.40410    0.60860    1.000
    C388     C        0.28420    0.37000    0.58690    1.000
    H146     H        0.29150    0.35280    0.60240    1.000
    C389     C        0.26800    0.36060    0.54150    1.000
    C390     C        0.25700    0.38690    0.52040    1.000
    H147     H        0.24620    0.38160    0.48980    1.000
    C391     C        0.24910    0.44680    0.52280    1.000
    C392     C        0.25960    0.32290    0.51830    1.000
    C393     C        0.33830    0.40900    0.71460    1.000
    C394     C        0.34490    0.44350    0.73640    1.000
    H148     H        0.33680    0.46040    0.72190    1.000
    C395     C        0.36390    0.45380    0.78110    1.000
    C396     C        0.37490    0.42880    0.80070    1.000
    H149     H        0.38640    0.43480    0.83100    1.000
    C397     C        0.37000    0.39440    0.77780    1.000
    C398     C        0.35110    0.38470    0.73540    1.000
    H150     H        0.34670    0.36110    0.71980    1.000
    C399     C        0.37080    0.49090    0.80330    1.000
    C400     C        0.38390    0.36780    0.79880    1.000
    C401     C        0.13690    0.21740    0.55130    1.000
    C402     C        0.12750    0.19990    0.59300    1.000
    H151     H        0.14580    0.19380    0.60780    1.000
    C403     C        0.09160    0.19020    0.61610    1.000
    C404     C        0.06660    0.20220    0.59810    1.000
    H152     H        0.04480    0.20030    0.61560    1.000
    C405     C        0.07460    0.21800    0.55220    1.000
    C406     C        0.10860    0.22510    0.52890    1.000
    H153     H        0.11320    0.23520    0.49790    1.000
    C407     C        0.17450    0.22710    0.52840    1.000
    C408     C        0.04530    0.22800    0.53090    1.000
    C409     C        0.11000    0.12660    0.74280    1.000
    H154     H        0.13220    0.12800    0.72660    1.000
    C410     C        0.09940    0.10850    0.78600    1.000
    C411     C        0.06550    0.10640    0.80960    1.000
    H155     H        0.05810    0.09460    0.83970    1.000
    C412     C        0.04460    0.12090    0.78920    1.000
    C413     C        0.05360    0.13860    0.74540    1.000
    H156     H        0.03720    0.14750    0.73110    1.000
    C414     C        0.08830    0.14310    0.72290    1.000
    C415     C        0.12230    0.09060    0.80510    1.000
    C416     C        0.00540    0.11660    0.81250    1.000
    N49      N        0.30810    0.41720    0.65460    1.000
    N50      N        0.32050    0.39550    0.67110    1.000
    N51      N        0.08030    0.17240    0.66050    1.000
    N52      N        0.10090    0.15970    0.67940    1.000
    O193     O        0.25030    0.47406    0.54780    1.000
    O194     O        0.23370    0.43952    0.48140    1.000
    O195     O        0.26580    0.29997    0.54340    1.000
    O196     O        0.24770    0.31708    0.47687    1.000
    O197     O        0.36628    0.51504    0.77863    1.000
    O198     O        0.38497    0.49776    0.84360    1.000
    O199     O        0.39980    0.37829    0.83990    1.000
    O200     O        0.38387    0.34342    0.77430    1.000
    O201     O        0.20169    0.22472    0.55254    1.000
    O202     O        0.18077    0.24259    0.48750    1.000
    O203     O        0.05338    0.24338    0.49030    1.000
    O204     O        0.01670    0.22154    0.55430    1.000
    O205     O        0.14798    0.09022    0.78070    1.000
    O206     O        0.11451    0.07726    0.84730    1.000
    O207     O        0.99980    0.10371    0.85270    1.000
    O208     O        0.98585    0.12603    0.78690    1.000
    Zn53     Zn       0.90872    0.85594    0.87996    1.000
    Zn54     Zn       0.88367    0.81168    0.78941    1.000
    Zn55     Zn       0.89942    0.59642    0.78357    1.000
    Zn56     Zn       0.92545    0.57678    0.87319    1.000
    C417     C        0.92847    0.75333    0.87713    1.000
    C418     C        0.94527    0.76213    0.92103    1.000
    H157     H        0.94927    0.78553    0.93673    1.000
    C419     C        0.95607    0.73743    0.94193    1.000
    C420     C        0.95087    0.70333    0.92023    1.000
    H158     H        0.95817    0.68613    0.93573    1.000
    C421     C        0.93467    0.69393    0.87483    1.000
    C422     C        0.92367    0.72023    0.85373    1.000
    H159     H        0.91287    0.71493    0.82313    1.000
    C423     C        0.91577    0.78013    0.85613    1.000
    C424     C        0.92627    0.65623    0.85163    1.000
    C425     C        0.00497    0.74233    0.04793    1.000
    C426     C        0.01157    0.77683    0.06973    1.000
    H160     H        0.00347    0.79373    0.05523    1.000
    C427     C        0.03057    0.78713    0.11443    1.000
    C428     C        0.04157    0.76213    0.13403    1.000
    H161     H        0.05307    0.76813    0.16433    1.000
    C429     C        0.03667    0.72773    0.11113    1.000
    C430     C        0.01777    0.71803    0.06873    1.000
    H162     H        0.01337    0.69443    0.05313    1.000
    C431     C        0.03747    0.82423    0.13663    1.000
    C432     C        0.05057    0.70113    0.13213    1.000
    C433     C        0.80357    0.55073    0.88463    1.000
    C434     C        0.79417    0.53323    0.92633    1.000
    H163     H        0.81247    0.52713    0.94113    1.000
    C435     C        0.75827    0.52353    0.94943    1.000
    C436     C        0.73327    0.53553    0.93143    1.000
    H164     H        0.71147    0.53363    0.94893    1.000
    C437     C        0.74127    0.55133    0.88553    1.000
    C438     C        0.77527    0.55843    0.86223    1.000
    H165     H        0.77987    0.56853    0.83123    1.000
    C439     C        0.84117    0.56043    0.86173    1.000
    C440     C        0.71197    0.56133    0.86423    1.000
    C441     C        0.77667    0.45993    0.07613    1.000
    H166     H        0.79887    0.46133    0.05993    1.000
    C442     C        0.76607    0.44183    0.11933    1.000
    C443     C        0.73217    0.43973    0.14293    1.000
    H167     H        0.72477    0.42793    0.17303    1.000
    C444     C        0.71127    0.45423    0.12253    1.000
    C445     C        0.72027    0.47193    0.07873    1.000
    H168     H        0.70387    0.48083    0.06443    1.000
    C446     C        0.75497    0.47643    0.05623    1.000
    C447     C        0.78897    0.42393    0.13843    1.000
    C448     C        0.67207    0.44993    0.14583    1.000
    N53      N        0.97477    0.75053    0.98793    1.000
    N54      N        0.98717    0.72883    0.00443    1.000
    N55      N        0.74697    0.50573    0.99383    1.000
    N56      N        0.76757    0.49303    0.01273    1.000
    O209     O        0.91697    0.80739    0.88113    1.000
    O210     O        0.90037    0.77285    0.81473    1.000
    O211     O        0.93247    0.63330    0.87673    1.000
    O212     O        0.91437    0.65041    0.81020    1.000
    O213     O        0.03295    0.84837    0.11196    1.000
    O214     O        0.05164    0.83109    0.17693    1.000
    O215     O        0.06647    0.71162    0.17323    1.000
    O216     O        0.05054    0.67675    0.10763    1.000
    O217     O        0.86836    0.55805    0.88587    1.000
    O218     O        0.84744    0.57592    0.82083    1.000
    O219     O        0.72005    0.57671    0.82363    1.000
    O220     O        0.68337    0.55487    0.88763    1.000
    O221     O        0.81465    0.42355    0.11403    1.000
    O222     O        0.78118    0.41059    0.18063    1.000
    O223     O        0.66647    0.43704    0.18603    1.000
    O224     O        0.65252    0.45936    0.12023    1.000
    Zn57     Zn       0.57538    0.18928    0.21330    1.000
    Zn58     Zn       0.55033    0.14502    0.12275    1.000
    Zn59     Zn       0.56608    0.92976    0.11691    1.000
    Zn60     Zn       0.59211    0.91012    0.20653    1.000
    C449     C        0.59513    0.08667    0.21047    1.000
    C450     C        0.61193    0.09547    0.25437    1.000
    H169     H        0.61593    0.11887    0.27007    1.000
    C451     C        0.62273    0.07077    0.27527    1.000
    C452     C        0.61753    0.03667    0.25357    1.000
    H170     H        0.62483    0.01947    0.26907    1.000
    C453     C        0.60133    0.02727    0.20817    1.000
    C454     C        0.59033    0.05357    0.18707    1.000
    H171     H        0.57953    0.04827    0.15647    1.000
    C455     C        0.58243    0.11347    0.18947    1.000
    C456     C        0.59293    0.98957    0.18497    1.000
    C457     C        0.67163    0.07567    0.38127    1.000
    C458     C        0.67823    0.11017    0.40307    1.000
    H172     H        0.67013    0.12707    0.38857    1.000
    C459     C        0.69723    0.12047    0.44777    1.000
    C460     C        0.70823    0.09547    0.46737    1.000
    H173     H        0.71973    0.10147    0.49767    1.000
    C461     C        0.70333    0.06107    0.44447    1.000
    C462     C        0.68443    0.05137    0.40207    1.000
    H174     H        0.68003    0.02777    0.38647    1.000
    C463     C        0.70413    0.15757    0.46997    1.000
    C464     C        0.71723    0.03447    0.46547    1.000
    C465     C        0.47023    0.88407    0.21797    1.000
    C466     C        0.46083    0.86657    0.25967    1.000
    H175     H        0.47913    0.86047    0.27447    1.000
    C467     C        0.42493    0.85687    0.28277    1.000
    C468     C        0.39993    0.86887    0.26477    1.000
    H176     H        0.37813    0.86697    0.28227    1.000
    C469     C        0.40793    0.88467    0.21887    1.000
    C470     C        0.44193    0.89177    0.19557    1.000
    H177     H        0.44653    0.90187    0.16457    1.000
    C471     C        0.50783    0.89377    0.19507    1.000
    C472     C        0.37863    0.89467    0.19757    1.000
    C473     C        0.44333    0.79327    0.40947    1.000
    H178     H        0.46553    0.79467    0.39327    1.000
    C474     C        0.43273    0.77517    0.45267    1.000
    C475     C        0.39883    0.77307    0.47627    1.000
    H179     H        0.39143    0.76127    0.50637    1.000
    C476     C        0.37793    0.78757    0.45587    1.000
    C477     C        0.38693    0.80527    0.41207    1.000
    H180     H        0.37053    0.81417    0.39777    1.000
    C478     C        0.42163    0.80977    0.38957    1.000
    C479     C        0.45563    0.75727    0.47177    1.000
    C480     C        0.33873    0.78327    0.47917    1.000
    N57      N        0.64143    0.08387    0.32127    1.000
    N58      N        0.65383    0.06217    0.33777    1.000
    N59      N        0.41363    0.83907    0.32717    1.000
    N60      N        0.43423    0.82637    0.34607    1.000
    O225     O        0.58363    0.14073    0.21447    1.000
    O226     O        0.56703    0.10619    0.14807    1.000
    O227     O        0.59913    0.96664    0.21007    1.000
    O228     O        0.58103    0.98375    0.14354    1.000
    O229     O        0.69961    0.18171    0.44530    1.000
    O230     O        0.71830    0.16443    0.51027    1.000
    O231     O        0.73313    0.04496    0.50657    1.000
    O232     O        0.71720    0.01009    0.44097    1.000
    O233     O        0.53502    0.89139    0.21921    1.000
    O234     O        0.51410    0.90926    0.15417    1.000
    O235     O        0.38671    0.91005    0.15697    1.000
    O236     O        0.35003    0.88821    0.22097    1.000
    O237     O        0.48131    0.75689    0.44737    1.000
    O238     O        0.44784    0.74393    0.51397    1.000
    O239     O        0.33313    0.77038    0.51937    1.000
    O240     O        0.31918    0.79270    0.45357    1.000
    Zn61     Zn       0.47739    0.71944    0.54663    1.000
    Zn62     Zn       0.52165    0.73865    0.45608    1.000
    Zn63     Zn       0.73691    0.96966    0.45024    1.000
    Zn64     Zn       0.75655    0.01533    0.53986    1.000
    C481     C        0.58000    0.84180    0.54380    1.000
    C482     C        0.57120    0.84980    0.58770    1.000
    H181     H        0.54780    0.83040    0.60340    1.000
    C483     C        0.59590    0.88530    0.60860    1.000
    C484     C        0.63000    0.91420    0.58690    1.000
    H182     H        0.64720    0.93870    0.60240    1.000
    C485     C        0.63940    0.90740    0.54150    1.000
    C486     C        0.61310    0.87010    0.52040    1.000
    H183     H        0.61840    0.86460    0.48980    1.000
    C487     C        0.55320    0.80230    0.52280    1.000
    C488     C        0.67710    0.93670    0.51830    1.000
    C489     C        0.59100    0.92930    0.71460    1.000
    C490     C        0.55650    0.90140    0.73640    1.000
    H184     H        0.53960    0.87640    0.72190    1.000
    C491     C        0.54620    0.91010    0.78110    1.000
    C492     C        0.57120    0.94610    0.80070    1.000
    H185     H        0.56520    0.95160    0.83100    1.000
    C493     C        0.60560    0.97560    0.77780    1.000
    C494     C        0.61530    0.96640    0.73540    1.000
    H186     H        0.63890    0.98560    0.71980    1.000
    C495     C        0.50910    0.87990    0.80330    1.000
    C496     C        0.63220    0.01610    0.79880    1.000
    C497     C        0.78260    0.91950    0.55130    1.000
    C498     C        0.80010    0.92760    0.59300    1.000
    H187     H        0.80620    0.95200    0.60780    1.000
    C499     C        0.80980    0.90140    0.61610    1.000
    C500     C        0.79780    0.86440    0.59810    1.000
    H188     H        0.79970    0.84450    0.61560    1.000
    C501     C        0.78200    0.85660    0.55220    1.000
    C502     C        0.77490    0.88350    0.52890    1.000
    H189     H        0.76480    0.87800    0.49790    1.000
    C503     C        0.77290    0.94740    0.52840    1.000
    C504     C        0.77200    0.81730    0.53090    1.000
    C505     C        0.87340    0.98340    0.74280    1.000
    H190     H        0.87200    0.00420    0.72660    1.000
    C506     C        0.89150    0.99090    0.78600    1.000
    C507     C        0.89360    0.95910    0.80960    1.000
    H191     H        0.90540    0.96350    0.83970    1.000
    C508     C        0.87910    0.92370    0.78920    1.000
    C509     C        0.86140    0.91500    0.74540    1.000
    H192     H        0.85250    0.88970    0.73110    1.000
    C510     C        0.85690    0.94520    0.72290    1.000
    C511     C        0.90940    0.03170    0.80510    1.000
    C512     C        0.88340    0.88880    0.81250    1.000
    N61      N        0.58280    0.89090    0.65460    1.000
    N62      N        0.60450    0.92500    0.67110    1.000
    N63      N        0.82760    0.90790    0.66050    1.000
    N64      N        0.84030    0.94120    0.67940    1.000
    O241     O        0.52594    0.77624    0.54780    1.000
    O242     O        0.56048    0.79418    0.48140    1.000
    O243     O        0.70003    0.96583    0.54340    1.000
    O244     O        0.68292    0.93062    0.47687    1.000
    O245     O        0.48496    0.85124    0.77863    1.000
    O246     O        0.50224    0.88721    0.84360    1.000
    O247     O        0.62171    0.02151    0.83990    1.000
    O248     O        0.65658    0.04045    0.77430    1.000
    O249     O        0.77528    0.97697    0.55254    1.000
    O250     O        0.75741    0.93818    0.48750    1.000
    O251     O        0.75662    0.81000    0.49030    1.000
    O252     O        0.77846    0.79516    0.55430    1.000
    O253     O        0.90978    0.05776    0.78070    1.000
    O254     O        0.92274    0.03725    0.84730    1.000
    O255     O        0.89629    0.89609    0.85270    1.000
    O256     O        0.87397    0.85982    0.78690    1.000
    Zn65     Zn       0.14406    0.05277    0.87996    1.000
    Zn66     Zn       0.18832    0.07198    0.78941    1.000
    Zn67     Zn       0.40358    0.30299    0.78357    1.000
    Zn68     Zn       0.42322    0.34866    0.87319    1.000
    C513     C        0.24667    0.17513    0.87713    1.000
    C514     C        0.23787    0.18313    0.92103    1.000
    H193     H        0.21447    0.16373    0.93673    1.000
    C515     C        0.26257    0.21863    0.94193    1.000
    C516     C        0.29667    0.24753    0.92023    1.000
    H194     H        0.31387    0.27203    0.93573    1.000
    C517     C        0.30607    0.24073    0.87483    1.000
    C518     C        0.27977    0.20343    0.85373    1.000
    H195     H        0.28507    0.19793    0.82313    1.000
    C519     C        0.21987    0.13563    0.85613    1.000
    C520     C        0.34377    0.27003    0.85163    1.000
    C521     C        0.25767    0.26263    0.04793    1.000
    C522     C        0.22317    0.23473    0.06973    1.000
    H196     H        0.20627    0.20973    0.05523    1.000
    C523     C        0.21287    0.24343    0.11443    1.000
    C524     C        0.23787    0.27943    0.13403    1.000
    H197     H        0.23187    0.28493    0.16433    1.000
    C525     C        0.27227    0.30893    0.11113    1.000
    C526     C        0.28197    0.29973    0.06873    1.000
    H198     H        0.30557    0.31893    0.05313    1.000
    C527     C        0.17577    0.21323    0.13663    1.000
    C528     C        0.29887    0.34943    0.13213    1.000
    C529     C        0.44927    0.25283    0.88463    1.000
    C530     C        0.46677    0.26093    0.92633    1.000
    H199     H        0.47287    0.28533    0.94113    1.000
    C531     C        0.47647    0.23473    0.94943    1.000
    C532     C        0.46447    0.19773    0.93143    1.000
    H200     H        0.46637    0.17783    0.94893    1.000
    C533     C        0.44867    0.18993    0.88553    1.000
    C534     C        0.44157    0.21683    0.86223    1.000
    H201     H        0.43147    0.21133    0.83123    1.000
    C535     C        0.43957    0.28073    0.86173    1.000
    C536     C        0.43867    0.15063    0.86423    1.000
    C537     C        0.54007    0.31673    0.07613    1.000
    H202     H        0.53867    0.33753    0.05993    1.000
    C538     C        0.55817    0.32423    0.11933    1.000
    C539     C        0.56027    0.29243    0.14293    1.000
    H203     H        0.57207    0.29683    0.17303    1.000
    C540     C        0.54577    0.25703    0.12253    1.000
    C541     C        0.52807    0.24833    0.07873    1.000
    H204     H        0.51917    0.22303    0.06443    1.000
    C542     C        0.52357    0.27853    0.05623    1.000
    C543     C        0.57607    0.36503    0.13843    1.000
    C544     C        0.55007    0.22213    0.14583    1.000
    N65      N        0.24947    0.22423    0.98793    1.000
    N66      N        0.27117    0.25833    0.00443    1.000
    N67      N        0.49427    0.24123    0.99383    1.000
    N68      N        0.50697    0.27453    0.01273    1.000
    O257     O        0.19261    0.10957    0.88113    1.000
    O258     O        0.22715    0.12751    0.81473    1.000
    O259     O        0.36670    0.29916    0.87673    1.000
    O260     O        0.34959    0.26395    0.81020    1.000
    O261     O        0.15163    0.18457    0.11196    1.000
    O262     O        0.16891    0.22054    0.17693    1.000
    O263     O        0.28838    0.35484    0.17323    1.000
    O264     O        0.32325    0.37378    0.10763    1.000
    O265     O        0.44195    0.31030    0.88587    1.000
    O266     O        0.42408    0.27151    0.82083    1.000
    O267     O        0.42329    0.14333    0.82363    1.000
    O268     O        0.44513    0.12849    0.88763    1.000
    O269     O        0.57645    0.39109    0.11403    1.000
    O270     O        0.58941    0.37058    0.18063    1.000
    O271     O        0.56296    0.22942    0.18603    1.000
    O272     O        0.54064    0.19315    0.12023    1.000
    Zn69     Zn       0.81072    0.38611    0.21330    1.000
    Zn70     Zn       0.85498    0.40532    0.12275    1.000
    Zn71     Zn       0.07024    0.63633    0.11691    1.000
    Zn72     Zn       0.08988    0.68200    0.20653    1.000
    C545     C        0.91333    0.50847    0.21047    1.000
    C546     C        0.90453    0.51647    0.25437    1.000
    H205     H        0.88113    0.49707    0.27007    1.000
    C547     C        0.92923    0.55197    0.27527    1.000
    C548     C        0.96333    0.58087    0.25357    1.000
    H206     H        0.98053    0.60537    0.26907    1.000
    C549     C        0.97273    0.57407    0.20817    1.000
    C550     C        0.94643    0.53677    0.18707    1.000
    H207     H        0.95173    0.53127    0.15647    1.000
    C551     C        0.88653    0.46897    0.18947    1.000
    C552     C        0.01043    0.60337    0.18497    1.000
    C553     C        0.92433    0.59597    0.38127    1.000
    C554     C        0.88983    0.56807    0.40307    1.000
    H208     H        0.87293    0.54307    0.38857    1.000
    C555     C        0.87953    0.57677    0.44777    1.000
    C556     C        0.90453    0.61277    0.46737    1.000
    H209     H        0.89853    0.61827    0.49767    1.000
    C557     C        0.93893    0.64227    0.44447    1.000
    C558     C        0.94863    0.63307    0.40207    1.000
    H210     H        0.97223    0.65227    0.38647    1.000
    C559     C        0.84243    0.54657    0.46997    1.000
    C560     C        0.96553    0.68277    0.46547    1.000
    C561     C        0.11593    0.58617    0.21797    1.000
    C562     C        0.13343    0.59427    0.25967    1.000
    H211     H        0.13953    0.61867    0.27447    1.000
    C563     C        0.14313    0.56807    0.28277    1.000
    C564     C        0.13113    0.53107    0.26477    1.000
    H212     H        0.13303    0.51117    0.28227    1.000
    C565     C        0.11533    0.52327    0.21887    1.000
    C566     C        0.10823    0.55017    0.19557    1.000
    H213     H        0.09813    0.54467    0.16457    1.000
    C567     C        0.10623    0.61407    0.19507    1.000
    C568     C        0.10533    0.48397    0.19757    1.000
    C569     C        0.20673    0.65007    0.40947    1.000
    H214     H        0.20533    0.67087    0.39327    1.000
    C570     C        0.22483    0.65757    0.45267    1.000
    C571     C        0.22693    0.62577    0.47627    1.000
    H215     H        0.23873    0.63017    0.50637    1.000
    C572     C        0.21243    0.59037    0.45587    1.000
    C573     C        0.19473    0.58167    0.41207    1.000
    H216     H        0.18583    0.55637    0.39777    1.000
    C574     C        0.19023    0.61187    0.38957    1.000
    C575     C        0.24273    0.69837    0.47177    1.000
    C576     C        0.21673    0.55547    0.47917    1.000
    N69      N        0.91613    0.55757    0.32127    1.000
    N70      N        0.93783    0.59167    0.33777    1.000
    N71      N        0.16093    0.57457    0.32717    1.000
    N72      N        0.17363    0.60787    0.34607    1.000
    O273     O        0.85927    0.44291    0.21447    1.000
    O274     O        0.89381    0.46085    0.14807    1.000
    O275     O        0.03336    0.63250    0.21007    1.000
    O276     O        0.01625    0.59729    0.14354    1.000
    O277     O        0.81829    0.51791    0.44530    1.000
    O278     O        0.83557    0.55388    0.51027    1.000
    O279     O        0.95504    0.68818    0.50657    1.000
    O280     O        0.98991    0.70712    0.44097    1.000
    O281     O        0.10861    0.64364    0.21921    1.000
    O282     O        0.09074    0.60485    0.15417    1.000
    O283     O        0.08995    0.47667    0.15697    1.000
    O284     O        0.11179    0.46183    0.22097    1.000
    O285     O        0.24311    0.72443    0.44737    1.000
    O286     O        0.25607    0.70392    0.51397    1.000
    O287     O        0.22962    0.56276    0.51937    1.000
    O288     O        0.20730    0.52649    0.45357    1.000
