data_functionalizedCrystal
_audit_creation_method	'EQeq! by Chris Wilmer'
_symmetry_space_group_name_H-M	'P1'
_symmetry_Int_Tables_number	1
_symmetry_cell_setting	triclinic
loop_
_symmetry_equiv_pos_as_xyz
  x,y,z
_cell_length_a	14.8229
_cell_length_b	19.213
_cell_length_c	19.213
_cell_angle_alpha	66.372
_cell_angle_beta	75.0979
_cell_angle_gamma	104.902
loop_
_atom_site_label
_atom_site_type_symbol
_atom_site_fract_x
_atom_site_fract_y
_atom_site_fract_z
_atom_site_charge
Mof_Mn	Mn	0.92369	0.04235	0.67154	0.843
Mof_Mn	Mn	0.59523	0.67154	0.28611	0.842
Mof_Mn	Mn	0.88134	0.28611	0.04235	0.797
Mof_Mn	Mn	0.07631	0.95765	0.32846	0.84
Mof_Mn	Mn	0.40477	0.32846	0.71389	0.841
Mof_Mn	Mn	0.11866	0.71389	0.95765	0.886
Mof_Mn	Mn	-1.28452e-17	0	0.5	0.935
Mof_Mn	Mn	0.5	0.5	0.5	1.049
Mof_Mn	Mn	-2.56905e-17	0.5	-0	0.926
Mof_H 	H 	0.732	0.6349	0.549	0.019
Mof_H 	H 	0.855	0.7135	0.582	0.096
Mof_H 	H 	0.5979	0.4533	0.7802	0.001
Mof_H 	H 	0.703	0.5238	0.8231	0.097
Mof_H 	H 	0.9714	0.8087	0.8128	0.063
Mof_H 	H 	0.8415	0.7932	0.6575	0.054
Mof_H 	H 	0.8691	0.5899	0.8163	0.048
Mof_H 	H 	0.281	0.549	0.8161	0.021
Mof_H 	H 	0.437	0.582	0.7045	0.087
Mof_H 	H 	0.3781	0.7802	0.7665	0.005
Mof_H 	H 	0.5261	0.8231	0.6531	0.095
Mof_H 	H 	0.7842	0.8128	0.3785	0.051
Mof_H 	H 	0.499	0.6575	0.5493	0.049
Mof_H 	H 	0.6854	0.8163	0.5938	0.047
Mof_H 	H 	0.0971	0.8161	0.6349	0.012
Mof_H 	H 	0.1415	0.7045	0.7135	0.082
Mof_H 	H 	0.1446	0.7665	0.4533	-0.005
Mof_H 	H 	0.1792	0.6531	0.5238	0.085
Mof_H 	H 	0.1627	0.3785	0.8087	0.049
Mof_H 	H 	0.0483	0.5493	0.7932	0.046
Mof_H 	H 	0.2792	0.5938	0.5899	0.045
Mof_H 	H 	0.268	0.3651	0.451	0.016
Mof_H 	H 	0.145	0.2865	0.418	0.08
Mof_H 	H 	0.4021	0.5467	0.2198	-0.004
Mof_H 	H 	0.297	0.4762	0.1769	0.084
Mof_H 	H 	0.0286	0.1913	0.1872	0.028
Mof_H 	H 	0.1585	0.2068	0.3425	0.047
Mof_H 	H 	0.1309	0.4101	0.1837	0.037
Mof_H 	H 	0.719	0.451	0.1839	0.017
Mof_H 	H 	0.563	0.418	0.2955	0.087
Mof_H 	H 	0.6219	0.2198	0.2335	-0.005
Mof_H 	H 	0.4739	0.1769	0.3469	0.084
Mof_H 	H 	0.2158	0.1872	0.6215	0.037
Mof_H 	H 	0.501	0.3425	0.4507	0.047
Mof_H 	H 	0.3146	0.1837	0.4062	0.037
Mof_H 	H 	0.9029	0.1839	0.3651	0.026
Mof_H 	H 	0.8585	0.2955	0.2865	0.093
Mof_H 	H 	0.8554	0.2335	0.5467	0.004
Mof_H 	H 	0.8208	0.3469	0.4762	0.093
Mof_H 	H 	0.8373	0.6215	0.1913	0.041
Mof_H 	H 	0.9517	0.4507	0.2068	0.054
Mof_H 	H 	0.7208	0.4062	0.4101	0.038
Mof_C 	C 	0.5887	0.4867	0.6378	0.466
Mof_C 	C 	0.6586	0.5353	0.663	-0.189
Mof_C 	C 	0.7293	0.6132	0.6026	0.086
Mof_C 	C 	0.8016	0.6628	0.6225	-0.146
Mof_C 	C 	0.7838	0.6278	0.7078	0.101
Mof_C 	C 	0.649	0.5057	0.7408	0.115
Mof_C 	C 	0.7106	0.5479	0.768	-0.169
Mof_C 	C 	0.9673	0.6539	0.8881	0.428
Mof_C 	C 	0.9253	0.6901	0.8235	-0.093
Mof_C 	C 	0.9395	0.778	0.7923	0.03
Mof_C 	C 	0.9053	0.8133	0.7334	-0.075
Mof_C 	C 	0.8609	0.7681	0.7002	-0.006
Mof_C 	C 	0.8453	0.682	0.7329	-0.028
Mof_C 	C 	0.8791	0.6455	0.7951	0.008
Mof_C 	C 	0.9144	0.9002	0.7018	0.33
Mof_C 	C 	0.2265	0.6378	0.8755	0.459
Mof_C 	C 	0.3216	0.663	0.8017	-0.182
Mof_C 	C 	0.3319	0.6026	0.7842	0.079
Mof_C 	C 	0.4241	0.6225	0.7147	-0.142
Mof_C 	C 	0.4916	0.7078	0.6644	0.094
Mof_C 	C 	0.3898	0.7408	0.7535	0.108
Mof_C 	C 	0.4786	0.768	0.6841	-0.165
Mof_C 	C 	0.8554	0.8881	0.458	0.371
Mof_C 	C 	0.7488	0.8235	0.4864	-0.087
Mof_C 	C 	0.7318	0.7923	0.4297	0.022
Mof_C 	C 	0.6387	0.7334	0.4533	-0.088
Mof_C 	C 	0.5611	0.7002	0.5317	-0.01
Mof_C 	C 	0.5782	0.7329	0.5851	-0.03
Mof_C 	C 	0.6742	0.7951	0.5594	-0.004
Mof_C 	C 	0.6162	0.7018	0.398	0.336
Mof_C 	C 	0.102	0.8755	0.4867	0.457
Mof_C 	C 	0.1233	0.8017	0.5353	-0.189
Mof_C 	C 	0.1161	0.7842	0.6132	0.076
Mof_C 	C 	0.1388	0.7147	0.6628	-0.147
Mof_C 	C 	0.156	0.6644	0.6278	0.088
Mof_C 	C 	0.1433	0.7535	0.5057	0.105
Mof_C 	C 	0.1627	0.6841	0.5479	-0.169
Mof_C 	C 	0.3134	0.458	0.6539	0.375
Mof_C 	C 	0.2352	0.4864	0.6901	-0.089
Mof_C 	C 	0.1615	0.4297	0.778	-0.003
Mof_C 	C 	0.092	0.4533	0.8133	-0.051
Mof_C 	C 	0.0928	0.5317	0.7681	-0.034
Mof_C 	C 	0.1633	0.5851	0.682	-0.026
Mof_C 	C 	0.2336	0.5594	0.6455	-0.011
Mof_C 	C 	0.0142	0.398	0.9002	0.213
Mof_C 	C 	0.4113	0.5133	0.3622	0.463
Mof_C 	C 	0.3414	0.4647	0.337	-0.19
Mof_C 	C 	0.2707	0.3868	0.3974	0.078
Mof_C 	C 	0.1984	0.3372	0.3775	-0.146
Mof_C 	C 	0.2162	0.3722	0.2922	0.09
Mof_C 	C 	0.351	0.4943	0.2592	0.107
Mof_C 	C 	0.2894	0.4521	0.232	-0.17
Mof_C 	C 	0.0327	0.3461	0.1119	0.321
Mof_C 	C 	0.0747	0.3099	0.1765	-0.097
Mof_C 	C 	0.0605	0.222	0.2077	0.015
Mof_C 	C 	0.0947	0.1867	0.2666	-0.1
Mof_C 	C 	0.1391	0.2319	0.2998	-0.014
Mof_C 	C 	0.1547	0.318	0.2671	-0.038
Mof_C 	C 	0.1209	0.3545	0.2049	-0.009
Mof_C 	C 	0.0856	0.0998	0.2982	0.331
Mof_C 	C 	0.7735	0.3622	0.1245	0.452
Mof_C 	C 	0.6784	0.337	0.1983	-0.186
Mof_C 	C 	0.6681	0.3974	0.2158	0.077
Mof_C 	C 	0.5759	0.3775	0.2853	-0.146
Mof_C 	C 	0.5084	0.2922	0.3356	0.094
Mof_C 	C 	0.6102	0.2592	0.2465	0.106
Mof_C 	C 	0.5214	0.232	0.3159	-0.17
Mof_C 	C 	0.1446	0.1119	0.542	0.375
Mof_C 	C 	0.2512	0.1765	0.5136	-0.105
Mof_C 	C 	0.2682	0.2077	0.5703	0.028
Mof_C 	C 	0.3613	0.2666	0.5467	-0.098
Mof_C 	C 	0.4389	0.2998	0.4683	-0.006
Mof_C 	C 	0.4218	0.2671	0.4149	-0.038
Mof_C 	C 	0.3258	0.2049	0.4406	0.004
Mof_C 	C 	0.3838	0.2982	0.602	0.338
Mof_C 	C 	0.898	0.1245	0.5133	0.456
Mof_C 	C 	0.8767	0.1983	0.4647	-0.18
Mof_C 	C 	0.8839	0.2158	0.3868	0.081
Mof_C 	C 	0.8612	0.2853	0.3372	-0.142
Mof_C 	C 	0.844	0.3356	0.3722	0.1
Mof_C 	C 	0.8567	0.2465	0.4943	0.109
Mof_C 	C 	0.8373	0.3159	0.4521	-0.166
Mof_C 	C 	0.6866	0.542	0.3461	0.384
Mof_C 	C 	0.7648	0.5136	0.3099	-0.107
Mof_C 	C 	0.8385	0.5703	0.222	0.05
Mof_C 	C 	0.908	0.5467	0.1867	-0.124
Mof_C 	C 	0.9072	0.4683	0.2319	0.014
Mof_C 	C 	0.8367	0.4149	0.318	-0.041
Mof_C 	C 	0.7664	0.4406	0.3545	0.012
Mof_C 	C 	0.9858	0.602	0.0998	0.442
Mof_O 	O 	0.9103	0.9416	0.6346	-0.378
Mof_O 	O 	0.9569	0.5808	0.9161	-0.358
Mof_O 	O 	0.5879	0.519	0.5696	-0.418
Mof_O 	O 	0.527	0.4155	0.6956	-0.453
Mof_O 	O 	0.0157	0.7085	0.9028	-0.429
Mof_O 	O 	0.922	0.9254	0.7531	-0.331
Mof_O 	O 	0.5449	0.6346	0.4238	-0.423
Mof_O 	O 	0.873	0.9161	0.5031	-0.351
Mof_O 	O 	0.1575	0.5696	0.9114	-0.396
Mof_O 	O 	0.2226	0.6956	0.8889	-0.45
Mof_O 	O 	0.9185	0.9028	0.3887	-0.358
Mof_O 	O 	0.6751	0.7531	0.3215	-0.361
Mof_O 	O 	0.9687	0.4238	0.9416	-0.318
Mof_O 	O 	0.3761	0.5031	0.5808	-0.394
Mof_O 	O 	0.0689	0.9114	0.519	-0.406
Mof_O 	O 	0.1115	0.8889	0.4155	-0.454
Mof_O 	O 	0.3072	0.3887	0.7085	-0.392
Mof_O 	O 	0.9966	0.3215	0.9254	-0.281
Mof_O 	O 	0.0897	0.0584	0.3654	-0.434
Mof_O 	O 	0.0431	0.4192	0.0839	-0.387
Mof_O 	O 	0.4121	0.481	0.4304	-0.42
Mof_O 	O 	0.473	0.5845	0.3044	-0.457
Mof_O 	O 	0.9843	0.2915	0.0972	-0.349
Mof_O 	O 	0.078	0.0746	0.2469	-0.396
Mof_O 	O 	0.4551	0.3654	0.5762	-0.424
Mof_O 	O 	0.127	0.0839	0.4969	-0.397
Mof_O 	O 	0.8425	0.4304	0.0886	-0.401
Mof_O 	O 	0.7774	0.3044	0.1111	-0.451
Mof_O 	O 	0.0815	0.0972	0.6113	-0.416
Mof_O 	O 	0.3249	0.2469	0.6785	-0.372
Mof_O 	O 	0.0313	0.5762	0.0584	-0.489
Mof_O 	O 	0.6239	0.4969	0.4192	-0.394
Mof_O 	O 	0.9311	0.0886	0.481	-0.394
Mof_O 	O 	0.8885	0.1111	0.5845	-0.447
Mof_O 	O 	0.6928	0.6113	0.2915	-0.391
Mof_O 	O 	0.0034	0.6785	0.0746	-0.445
_end
