# CIF file generated by openbabel 3.1.0, see https://openbabel.org
data_I
_chemical_name_common 'image0'
_cell_length_a 12.3251
_cell_length_b 12.3251
_cell_length_c 6.981
_cell_angle_alpha 90
_cell_angle_beta 90
_cell_angle_gamma 90
_space_group_name_H-M_alt 'P 1'
_space_group_name_Hall 'P 1'
loop_
    _symmetry_equiv_pos_as_xyz
    x,y,z
loop_
    _atom_site_label
    _atom_site_type_symbol
    _atom_site_fract_x
    _atom_site_fract_y
    _atom_site_fract_z
    _atom_site_occupancy
    N1       N        0.65270    0.34240    0.16950    1.000
    C1       C        0.59440    0.30070    0.30200    1.000
    C2       C        0.53000    0.35790    0.43000    1.000
    C3       C        0.53350    0.46910    0.43200    1.000
    C4       C        0.59440    0.51380    0.29400    1.000
    C5       C        0.65500    0.45120    0.17100    1.000
    H1       H        0.59600    0.21400    0.32600    1.000
    H2       H        0.47500    0.31900    0.52900    1.000
    H3       H        0.59300    0.60100    0.27900    1.000
    H4       H        0.70600    0.49300    0.06900    1.000
    N2       N        0.84730    0.15760    0.16950    1.000
    C6       C        0.90560    0.19930    0.30200    1.000
    C7       C        0.97000    0.14210    0.43000    1.000
    C8       C        0.96650    0.03090    0.43200    1.000
    C9       C        0.90560    0.98620    0.29400    1.000
    C10      C        0.84500    0.04880    0.17100    1.000
    H5       H        0.90400    0.28600    0.32600    1.000
    H6       H        0.02500    0.18100    0.52900    1.000
    H7       H        0.90700    0.89900    0.27900    1.000
    H8       H        0.79400    0.00700    0.06900    1.000
    N3       N        0.15760    0.65270    0.16950    1.000
    C11      C        0.19930    0.59440    0.30200    1.000
    C12      C        0.14210    0.53000    0.43000    1.000
    C13      C        0.03090    0.53350    0.43200    1.000
    C14      C        0.98620    0.59440    0.29400    1.000
    C15      C        0.04880    0.65500    0.17100    1.000
    H9       H        0.28600    0.59600    0.32600    1.000
    H10      H        0.18100    0.47500    0.52900    1.000
    H11      H        0.89900    0.59300    0.27900    1.000
    H12      H        0.00700    0.70600    0.06900    1.000
    N4       N        0.34240    0.84730    0.16950    1.000
    C16      C        0.30070    0.90560    0.30200    1.000
    C17      C        0.35790    0.97000    0.43000    1.000
    C18      C        0.46910    0.96650    0.43200    1.000
    C19      C        0.51380    0.90560    0.29400    1.000
    C20      C        0.45120    0.84500    0.17100    1.000
    H13      H        0.21400    0.90400    0.32600    1.000
    H14      H        0.31900    0.02500    0.52900    1.000
    H15      H        0.60100    0.90700    0.27900    1.000
    H16      H        0.49300    0.79400    0.06900    1.000
    N5       N        0.34730    0.65760    0.83050    1.000
    C21      C        0.40560    0.69930    0.69800    1.000
    C22      C        0.47000    0.64210    0.57000    1.000
    C23      C        0.46650    0.53090    0.56800    1.000
    C24      C        0.40560    0.48620    0.70600    1.000
    C25      C        0.34500    0.54880    0.82900    1.000
    H17      H        0.40400    0.78600    0.67400    1.000
    H18      H        0.52500    0.68100    0.47100    1.000
    H19      H        0.40700    0.39900    0.72100    1.000
    H20      H        0.29400    0.50700    0.93100    1.000
    N6       N        0.15270    0.84240    0.83050    1.000
    C26      C        0.09440    0.80070    0.69800    1.000
    C27      C        0.03000    0.85790    0.57000    1.000
    C28      C        0.03350    0.96910    0.56800    1.000
    C29      C        0.09440    0.01380    0.70600    1.000
    C30      C        0.15500    0.95120    0.82900    1.000
    H21      H        0.09600    0.71400    0.67400    1.000
    H22      H        0.97500    0.81900    0.47100    1.000
    H23      H        0.09300    0.10100    0.72100    1.000
    H24      H        0.20600    0.99300    0.93100    1.000
    N7       N        0.84240    0.34730    0.83050    1.000
    C31      C        0.80070    0.40560    0.69800    1.000
    C32      C        0.85790    0.47000    0.57000    1.000
    C33      C        0.96910    0.46650    0.56800    1.000
    C34      C        0.01380    0.40560    0.70600    1.000
    C35      C        0.95120    0.34500    0.82900    1.000
    H25      H        0.71400    0.40400    0.67400    1.000
    H26      H        0.81900    0.52500    0.47100    1.000
    H27      H        0.10100    0.40700    0.72100    1.000
    H28      H        0.99300    0.29400    0.93100    1.000
    N8       N        0.65760    0.15270    0.83050    1.000
    C36      C        0.69930    0.09440    0.69800    1.000
    C37      C        0.64210    0.03000    0.57000    1.000
    C38      C        0.53090    0.03350    0.56800    1.000
    C39      C        0.48620    0.09440    0.70600    1.000
    C40      C        0.54880    0.15500    0.82900    1.000
    H29      H        0.78600    0.09600    0.67400    1.000
    H30      H        0.68100    0.97500    0.47100    1.000
    H31      H        0.39900    0.09300    0.72100    1.000
    H32      H        0.50700    0.20600    0.93100    1.000
    Cu1      Cu       0.75000    0.25000    0.00000    1.000
    Cu2      Cu       0.25000    0.75000    0.00000    1.000
