data_functionalizedCrystal
_audit_creation_method	'EQeq! by Chris Wilmer'
_symmetry_space_group_name_H-M	'P1'
_symmetry_Int_Tables_number	1
_symmetry_cell_setting	triclinic
loop_
_symmetry_equiv_pos_as_xyz
  x,y,z
_cell_length_a	52.5078
_cell_length_b	52.5078
_cell_length_c	52.5078
_cell_angle_alpha	90
_cell_angle_beta	90
_cell_angle_gamma	90
loop_
_atom_site_label
_atom_site_type_symbol
_atom_site_fract_x
_atom_site_fract_y
_atom_site_fract_z
_atom_site_charge
Mof_Cu	Cu	0.2497	0.1428	0.10759	0.907
Mof_O 	O 	0.37024	0.0263	0.08885	-0.409
Mof_O 	O 	0.33998	0.02655	0.11847	-0.414
Mof_O 	O 	0.27755	0.09383	0.12112	-0.408
Mof_O 	O 	0.2745	0.12206	0.0895	-0.405
Mof_O 	O 	0.34302	0.12499	0.02603	-0.412
Mof_O 	O 	0.37274	0.09464	0.02602	-0.412
Mof_O 	O 	0.27773	0.15841	0.12709	-0.411
Mof_O 	O 	0.27469	0.13051	0.15889	-0.421
Mof_C 	C 	0.35042	0.03507	0.099	0.384
Mof_C 	C 	0.33837	0.0579	0.08689	-0.124
Mof_C 	C 	0.31702	0.06855	0.09778	0.071
Mof_H 	H 	0.3095	0.061	0.1124	0.043
Mof_C 	C 	0.30652	0.09057	0.0872	-0.122
Mof_C 	C 	0.31791	0.10219	0.06637	0.072
Mof_H 	H 	0.3109	0.1174	0.0596	0.042
Mof_C 	C 	0.33934	0.0917	0.05543	-0.124
Mof_C 	C 	0.34972	0.06919	0.06555	0.069
Mof_H 	H 	0.3643	0.0617	0.058	0.043
Mof_C 	C 	0.28445	0.10312	0.10023	0.376
Mof_C 	C 	0.35269	0.105	0.03408	0.385
Mof_C 	C 	0.28384	0.14933	0.14812	0.395
Mof_C 	C 	0.30554	0.16217	0.16114	-0.127
Mof_C 	C 	0.31613	0.15094	0.18314	0.073
Mof_H 	H 	0.3084	0.1363	0.1903	0.042
Mof_Cu	Cu	0.2497	0.6428	0.60759	0.907
Mof_O 	O 	0.37024	0.5263	0.58885	-0.409
Mof_O 	O 	0.33998	0.52655	0.61847	-0.413
Mof_O 	O 	0.27755	0.59383	0.62112	-0.408
Mof_O 	O 	0.2745	0.62206	0.5895	-0.405
Mof_O 	O 	0.34302	0.62499	0.52603	-0.411
Mof_O 	O 	0.37274	0.59464	0.52602	-0.411
Mof_O 	O 	0.27773	0.65841	0.62709	-0.411
Mof_O 	O 	0.27469	0.63051	0.65889	-0.421
Mof_C 	C 	0.35042	0.53507	0.599	0.384
Mof_C 	C 	0.33837	0.5579	0.58689	-0.124
Mof_C 	C 	0.31702	0.56855	0.59778	0.071
Mof_H 	H 	0.3095	0.561	0.6124	0.043
Mof_C 	C 	0.30652	0.59057	0.5872	-0.122
Mof_C 	C 	0.31791	0.60219	0.56637	0.072
Mof_H 	H 	0.3109	0.6174	0.5596	0.042
Mof_C 	C 	0.33934	0.5917	0.55543	-0.123
Mof_C 	C 	0.34972	0.56919	0.56555	0.069
Mof_H 	H 	0.3643	0.5617	0.558	0.043
Mof_C 	C 	0.28445	0.60312	0.60023	0.376
Mof_C 	C 	0.35269	0.605	0.53408	0.384
Mof_C 	C 	0.28384	0.64933	0.64812	0.395
Mof_C 	C 	0.30554	0.66217	0.66114	-0.127
Mof_C 	C 	0.31613	0.65094	0.68314	0.073
Mof_H 	H 	0.3084	0.6363	0.6903	0.042
Mof_Cu	Cu	0.7497	0.1428	0.60759	0.907
Mof_O 	O 	0.87024	0.0263	0.58885	-0.409
Mof_O 	O 	0.83998	0.02655	0.61847	-0.414
Mof_O 	O 	0.77755	0.09383	0.62112	-0.408
Mof_O 	O 	0.7745	0.12206	0.5895	-0.405
Mof_O 	O 	0.84302	0.12499	0.52603	-0.411
Mof_O 	O 	0.87274	0.09464	0.52602	-0.411
Mof_O 	O 	0.77773	0.15841	0.62709	-0.411
Mof_O 	O 	0.77469	0.13051	0.65889	-0.421
Mof_C 	C 	0.85042	0.03507	0.599	0.384
Mof_C 	C 	0.83837	0.0579	0.58689	-0.124
Mof_C 	C 	0.81702	0.06855	0.59778	0.071
Mof_H 	H 	0.8095	0.061	0.6124	0.043
Mof_C 	C 	0.80652	0.09057	0.5872	-0.122
Mof_C 	C 	0.81791	0.10219	0.56637	0.072
Mof_H 	H 	0.8109	0.1174	0.5596	0.042
Mof_C 	C 	0.83934	0.0917	0.55543	-0.124
Mof_C 	C 	0.84972	0.06919	0.56555	0.069
Mof_H 	H 	0.8643	0.0617	0.558	0.043
Mof_C 	C 	0.78445	0.10312	0.60023	0.376
Mof_C 	C 	0.85269	0.105	0.53408	0.384
Mof_C 	C 	0.78384	0.14933	0.64812	0.395
Mof_C 	C 	0.80554	0.16217	0.66114	-0.127
Mof_C 	C 	0.81613	0.15094	0.68314	0.073
Mof_H 	H 	0.8084	0.1363	0.6903	0.042
Mof_Cu	Cu	0.7497	0.6428	0.10759	0.907
Mof_O 	O 	0.87024	0.5263	0.08885	-0.409
Mof_O 	O 	0.83998	0.52655	0.11847	-0.413
Mof_O 	O 	0.77755	0.59383	0.12112	-0.408
Mof_O 	O 	0.7745	0.62206	0.0895	-0.405
Mof_O 	O 	0.84302	0.62499	0.02603	-0.412
Mof_O 	O 	0.87274	0.59464	0.02602	-0.412
Mof_O 	O 	0.77773	0.65841	0.12709	-0.411
Mof_O 	O 	0.77469	0.63051	0.15889	-0.421
Mof_C 	C 	0.85042	0.53507	0.099	0.384
Mof_C 	C 	0.83837	0.5579	0.08689	-0.124
Mof_C 	C 	0.81702	0.56855	0.09778	0.071
Mof_H 	H 	0.8095	0.561	0.1124	0.043
Mof_C 	C 	0.80652	0.59057	0.0872	-0.122
Mof_C 	C 	0.81791	0.60219	0.06637	0.072
Mof_H 	H 	0.8109	0.6174	0.0596	0.042
Mof_C 	C 	0.83934	0.5917	0.05543	-0.124
Mof_C 	C 	0.84972	0.56919	0.06555	0.069
Mof_H 	H 	0.8643	0.5617	0.058	0.043
Mof_C 	C 	0.78445	0.60312	0.10023	0.376
Mof_C 	C 	0.85269	0.605	0.03408	0.384
Mof_C 	C 	0.78384	0.64933	0.14812	0.395
Mof_C 	C 	0.80554	0.66217	0.16114	-0.127
Mof_C 	C 	0.81613	0.65094	0.18314	0.073
Mof_H 	H 	0.8084	0.6363	0.1903	0.042
Mof_Cu	Cu	0.7503	0.8572	0.10759	0.907
Mof_O 	O 	0.62976	0.9737	0.08885	-0.408
Mof_O 	O 	0.66002	0.97345	0.11847	-0.413
Mof_O 	O 	0.72245	0.90617	0.12112	-0.408
Mof_O 	O 	0.7255	0.87794	0.0895	-0.405
Mof_O 	O 	0.65698	0.87501	0.02603	-0.412
Mof_O 	O 	0.62726	0.90536	0.02602	-0.412
Mof_O 	O 	0.72227	0.84159	0.12709	-0.411
Mof_O 	O 	0.72531	0.86949	0.15889	-0.421
Mof_C 	C 	0.64958	0.96493	0.099	0.384
Mof_C 	C 	0.66163	0.9421	0.08689	-0.124
Mof_C 	C 	0.68298	0.93145	0.09778	0.071
Mof_H 	H 	0.6905	0.939	0.1124	0.043
Mof_C 	C 	0.69348	0.90943	0.0872	-0.122
Mof_C 	C 	0.68209	0.89781	0.06637	0.072
Mof_H 	H 	0.6891	0.8826	0.0596	0.042
Mof_C 	C 	0.66066	0.9083	0.05543	-0.123
Mof_C 	C 	0.65028	0.93081	0.06555	0.069
Mof_H 	H 	0.6357	0.9383	0.058	0.043
Mof_C 	C 	0.71555	0.89688	0.10023	0.376
Mof_C 	C 	0.64731	0.895	0.03408	0.384
Mof_C 	C 	0.71616	0.85067	0.14812	0.395
Mof_C 	C 	0.69446	0.83783	0.16114	-0.127
Mof_C 	C 	0.68387	0.84906	0.18314	0.073
Mof_H 	H 	0.6916	0.8637	0.1903	0.042
Mof_Cu	Cu	0.7503	0.3572	0.60759	0.907
Mof_O 	O 	0.62976	0.4737	0.58885	-0.409
Mof_O 	O 	0.66002	0.47345	0.61847	-0.413
Mof_O 	O 	0.72245	0.40617	0.62112	-0.408
Mof_O 	O 	0.7255	0.37794	0.5895	-0.405
Mof_O 	O 	0.65698	0.37501	0.52603	-0.411
Mof_O 	O 	0.62726	0.40536	0.52602	-0.411
Mof_O 	O 	0.72227	0.34159	0.62709	-0.411
Mof_O 	O 	0.72531	0.36949	0.65889	-0.421
Mof_C 	C 	0.64958	0.46493	0.599	0.384
Mof_C 	C 	0.66163	0.4421	0.58689	-0.124
Mof_C 	C 	0.68298	0.43145	0.59778	0.071
Mof_H 	H 	0.6905	0.439	0.6124	0.043
Mof_C 	C 	0.69348	0.40943	0.5872	-0.122
Mof_C 	C 	0.68209	0.39781	0.56637	0.072
Mof_H 	H 	0.6891	0.3826	0.5596	0.042
Mof_C 	C 	0.66066	0.4083	0.55543	-0.123
Mof_C 	C 	0.65028	0.43081	0.56555	0.069
Mof_H 	H 	0.6357	0.4383	0.558	0.043
Mof_C 	C 	0.71555	0.39688	0.60023	0.376
Mof_C 	C 	0.64731	0.395	0.53408	0.384
Mof_C 	C 	0.71616	0.35067	0.64812	0.395
Mof_C 	C 	0.69446	0.33783	0.66114	-0.127
Mof_C 	C 	0.68387	0.34906	0.68314	0.073
Mof_H 	H 	0.6916	0.3637	0.6903	0.042
Mof_Cu	Cu	0.2503	0.8572	0.60759	0.907
Mof_O 	O 	0.12976	0.9737	0.58885	-0.408
Mof_O 	O 	0.16002	0.97345	0.61847	-0.413
Mof_O 	O 	0.22245	0.90617	0.62112	-0.408
Mof_O 	O 	0.2255	0.87794	0.5895	-0.405
Mof_O 	O 	0.15698	0.87501	0.52603	-0.411
Mof_O 	O 	0.12726	0.90536	0.52602	-0.411
Mof_O 	O 	0.22227	0.84159	0.62709	-0.411
Mof_O 	O 	0.22531	0.86949	0.65889	-0.421
Mof_C 	C 	0.14958	0.96493	0.599	0.384
Mof_C 	C 	0.16163	0.9421	0.58689	-0.123
Mof_C 	C 	0.18298	0.93145	0.59778	0.071
Mof_H 	H 	0.1905	0.939	0.6124	0.043
Mof_C 	C 	0.19348	0.90943	0.5872	-0.122
Mof_C 	C 	0.18209	0.89781	0.56637	0.072
Mof_H 	H 	0.1891	0.8826	0.5596	0.042
Mof_C 	C 	0.16066	0.9083	0.55543	-0.123
Mof_C 	C 	0.15028	0.93081	0.56555	0.069
Mof_H 	H 	0.1357	0.9383	0.558	0.043
Mof_C 	C 	0.21555	0.89688	0.60023	0.376
Mof_C 	C 	0.14731	0.895	0.53408	0.384
Mof_C 	C 	0.21616	0.85067	0.64812	0.395
Mof_C 	C 	0.19446	0.83783	0.66114	-0.127
Mof_C 	C 	0.18387	0.84906	0.68314	0.073
Mof_H 	H 	0.1916	0.8637	0.6903	0.042
Mof_Cu	Cu	0.2503	0.3572	0.10759	0.907
Mof_O 	O 	0.12976	0.4737	0.08885	-0.409
Mof_O 	O 	0.16002	0.47345	0.11847	-0.413
Mof_O 	O 	0.22245	0.40617	0.12112	-0.408
Mof_O 	O 	0.2255	0.37794	0.0895	-0.405
Mof_O 	O 	0.15698	0.37501	0.02603	-0.412
Mof_O 	O 	0.12726	0.40536	0.02602	-0.412
Mof_O 	O 	0.22227	0.34159	0.12709	-0.411
Mof_O 	O 	0.22531	0.36949	0.15889	-0.421
Mof_C 	C 	0.14958	0.46493	0.099	0.384
Mof_C 	C 	0.16163	0.4421	0.08689	-0.124
Mof_C 	C 	0.18298	0.43145	0.09778	0.071
Mof_H 	H 	0.1905	0.439	0.1124	0.043
Mof_C 	C 	0.19348	0.40943	0.0872	-0.122
Mof_C 	C 	0.18209	0.39781	0.06637	0.072
Mof_H 	H 	0.1891	0.3826	0.0596	0.042
Mof_C 	C 	0.16066	0.4083	0.05543	-0.124
Mof_C 	C 	0.15028	0.43081	0.06555	0.069
Mof_H 	H 	0.1357	0.4383	0.058	0.043
Mof_C 	C 	0.21555	0.39688	0.10023	0.376
Mof_C 	C 	0.14731	0.395	0.03408	0.385
Mof_C 	C 	0.21616	0.35067	0.14812	0.395
Mof_C 	C 	0.19446	0.33783	0.16114	-0.127
Mof_C 	C 	0.18387	0.34906	0.18314	0.073
Mof_H 	H 	0.1916	0.3637	0.1903	0.042
Mof_Cu	Cu	0.7503	0.1428	0.89241	0.907
Mof_O 	O 	0.62976	0.0263	0.91115	-0.409
Mof_O 	O 	0.66002	0.02655	0.88153	-0.414
Mof_O 	O 	0.72245	0.09383	0.87888	-0.408
Mof_O 	O 	0.7255	0.12206	0.9105	-0.405
Mof_O 	O 	0.65698	0.12499	0.97397	-0.411
Mof_O 	O 	0.62726	0.09464	0.97398	-0.411
Mof_O 	O 	0.72227	0.15841	0.87291	-0.411
Mof_O 	O 	0.72531	0.13051	0.84111	-0.421
Mof_C 	C 	0.64958	0.03507	0.901	0.384
Mof_C 	C 	0.66163	0.0579	0.91311	-0.124
Mof_C 	C 	0.68298	0.06855	0.90222	0.071
Mof_H 	H 	0.6905	0.061	0.8876	0.043
Mof_C 	C 	0.69348	0.09057	0.9128	-0.122
Mof_C 	C 	0.68209	0.10219	0.93363	0.072
Mof_H 	H 	0.6891	0.1174	0.9404	0.042
Mof_C 	C 	0.66066	0.0917	0.94457	-0.123
Mof_C 	C 	0.65028	0.06919	0.93445	0.069
Mof_H 	H 	0.6357	0.0617	0.942	0.043
Mof_C 	C 	0.71555	0.10312	0.89977	0.376
Mof_C 	C 	0.64731	0.105	0.96592	0.384
Mof_C 	C 	0.71616	0.14933	0.85188	0.395
Mof_C 	C 	0.69446	0.16217	0.83886	-0.127
Mof_C 	C 	0.68387	0.15094	0.81686	0.073
Mof_H 	H 	0.6916	0.1363	0.8097	0.042
Mof_Cu	Cu	0.7503	0.6428	0.39241	0.907
Mof_O 	O 	0.62976	0.5263	0.41115	-0.409
Mof_O 	O 	0.66002	0.52655	0.38153	-0.413
Mof_O 	O 	0.72245	0.59383	0.37888	-0.408
Mof_O 	O 	0.7255	0.62206	0.4105	-0.405
Mof_O 	O 	0.65698	0.62499	0.47397	-0.411
Mof_O 	O 	0.62726	0.59464	0.47398	-0.411
Mof_O 	O 	0.72227	0.65841	0.37291	-0.411
Mof_O 	O 	0.72531	0.63051	0.34111	-0.421
Mof_C 	C 	0.64958	0.53507	0.401	0.383
Mof_C 	C 	0.66163	0.5579	0.41311	-0.125
Mof_C 	C 	0.68298	0.56855	0.40222	0.07
Mof_H 	H 	0.6905	0.561	0.3876	0.042
Mof_C 	C 	0.69348	0.59057	0.4128	-0.123
Mof_C 	C 	0.68209	0.60219	0.43363	0.071
Mof_H 	H 	0.6891	0.6174	0.4404	0.041
Mof_C 	C 	0.66066	0.5917	0.44457	-0.124
Mof_C 	C 	0.65028	0.56919	0.43445	0.068
Mof_H 	H 	0.6357	0.5617	0.442	0.042
Mof_C 	C 	0.71555	0.60312	0.39977	0.375
Mof_C 	C 	0.64731	0.605	0.46592	0.383
Mof_C 	C 	0.71616	0.64933	0.35188	0.394
Mof_C 	C 	0.69446	0.66217	0.33886	-0.128
Mof_C 	C 	0.68387	0.65094	0.31686	0.072
Mof_H 	H 	0.6916	0.6363	0.3097	0.041
Mof_Cu	Cu	0.2503	0.1428	0.39241	0.906
Mof_O 	O 	0.12976	0.0263	0.41115	-0.41
Mof_O 	O 	0.16002	0.02655	0.38153	-0.415
Mof_O 	O 	0.22245	0.09383	0.37888	-0.409
Mof_O 	O 	0.2255	0.12206	0.4105	-0.406
Mof_O 	O 	0.15698	0.12499	0.47397	-0.412
Mof_O 	O 	0.12726	0.09464	0.47398	-0.412
Mof_O 	O 	0.22227	0.15841	0.37291	-0.412
Mof_O 	O 	0.22531	0.13051	0.34111	-0.422
Mof_C 	C 	0.14958	0.03507	0.401	0.383
Mof_C 	C 	0.16163	0.0579	0.41311	-0.125
Mof_C 	C 	0.18298	0.06855	0.40222	0.07
Mof_H 	H 	0.1905	0.061	0.3876	0.042
Mof_C 	C 	0.19348	0.09057	0.4128	-0.123
Mof_C 	C 	0.18209	0.10219	0.43363	0.071
Mof_H 	H 	0.1891	0.1174	0.4404	0.041
Mof_C 	C 	0.16066	0.0917	0.44457	-0.125
Mof_C 	C 	0.15028	0.06919	0.43445	0.068
Mof_H 	H 	0.1357	0.0617	0.442	0.042
Mof_C 	C 	0.21555	0.10312	0.39977	0.375
Mof_C 	C 	0.14731	0.105	0.46592	0.383
Mof_C 	C 	0.21616	0.14933	0.35188	0.394
Mof_C 	C 	0.19446	0.16217	0.33886	-0.128
Mof_C 	C 	0.18387	0.15094	0.31686	0.072
Mof_H 	H 	0.1916	0.1363	0.3097	0.041
Mof_Cu	Cu	0.2503	0.6428	0.89241	0.906
Mof_O 	O 	0.12976	0.5263	0.91115	-0.409
Mof_O 	O 	0.16002	0.52655	0.88153	-0.414
Mof_O 	O 	0.22245	0.59383	0.87888	-0.409
Mof_O 	O 	0.2255	0.62206	0.9105	-0.406
Mof_O 	O 	0.15698	0.62499	0.97397	-0.412
Mof_O 	O 	0.12726	0.59464	0.97398	-0.412
Mof_O 	O 	0.22227	0.65841	0.87291	-0.412
Mof_O 	O 	0.22531	0.63051	0.84111	-0.422
Mof_C 	C 	0.14958	0.53507	0.901	0.383
Mof_C 	C 	0.16163	0.5579	0.91311	-0.125
Mof_C 	C 	0.18298	0.56855	0.90222	0.07
Mof_H 	H 	0.1905	0.561	0.8876	0.042
Mof_C 	C 	0.19348	0.59057	0.9128	-0.123
Mof_C 	C 	0.18209	0.60219	0.93363	0.071
Mof_H 	H 	0.1891	0.6174	0.9404	0.041
Mof_C 	C 	0.16066	0.5917	0.94457	-0.124
Mof_C 	C 	0.15028	0.56919	0.93445	0.068
Mof_H 	H 	0.1357	0.5617	0.942	0.042
Mof_C 	C 	0.21555	0.60312	0.89977	0.375
Mof_C 	C 	0.14731	0.605	0.96592	0.383
Mof_C 	C 	0.21616	0.64933	0.85188	0.394
Mof_C 	C 	0.19446	0.66217	0.83886	-0.128
Mof_C 	C 	0.18387	0.65094	0.81686	0.072
Mof_H 	H 	0.1916	0.6363	0.8097	0.041
Mof_Cu	Cu	0.2497	0.8572	0.89241	0.906
Mof_O 	O 	0.37024	0.9737	0.91115	-0.409
Mof_O 	O 	0.33998	0.97345	0.88153	-0.414
Mof_O 	O 	0.27755	0.90617	0.87888	-0.409
Mof_O 	O 	0.2745	0.87794	0.9105	-0.406
Mof_O 	O 	0.34302	0.87501	0.97397	-0.412
Mof_O 	O 	0.37274	0.90536	0.97398	-0.412
Mof_O 	O 	0.27773	0.84159	0.87291	-0.412
Mof_O 	O 	0.27469	0.86949	0.84111	-0.422
Mof_C 	C 	0.35042	0.96493	0.901	0.383
Mof_C 	C 	0.33837	0.9421	0.91311	-0.124
Mof_C 	C 	0.31702	0.93145	0.90222	0.07
Mof_H 	H 	0.3095	0.939	0.8876	0.042
Mof_C 	C 	0.30652	0.90943	0.9128	-0.122
Mof_C 	C 	0.31791	0.89781	0.93363	0.071
Mof_H 	H 	0.3109	0.8826	0.9404	0.041
Mof_C 	C 	0.33934	0.9083	0.94457	-0.124
Mof_C 	C 	0.34972	0.93081	0.93445	0.068
Mof_H 	H 	0.3643	0.9383	0.942	0.042
Mof_C 	C 	0.28445	0.89688	0.89977	0.375
Mof_C 	C 	0.35269	0.895	0.96592	0.383
Mof_C 	C 	0.28384	0.85067	0.85188	0.394
Mof_C 	C 	0.30554	0.83783	0.83886	-0.128
Mof_C 	C 	0.31613	0.84906	0.81686	0.072
Mof_H 	H 	0.3084	0.8637	0.8097	0.041
Mof_Cu	Cu	0.2497	0.3572	0.39241	0.906
Mof_O 	O 	0.37024	0.4737	0.41115	-0.41
Mof_O 	O 	0.33998	0.47345	0.38153	-0.414
Mof_O 	O 	0.27755	0.40617	0.37888	-0.409
Mof_O 	O 	0.2745	0.37794	0.4105	-0.406
Mof_O 	O 	0.34302	0.37501	0.47397	-0.412
Mof_O 	O 	0.37274	0.40536	0.47398	-0.412
Mof_O 	O 	0.27773	0.34159	0.37291	-0.412
Mof_O 	O 	0.27469	0.36949	0.34111	-0.422
Mof_C 	C 	0.35042	0.46493	0.401	0.383
Mof_C 	C 	0.33837	0.4421	0.41311	-0.125
Mof_C 	C 	0.31702	0.43145	0.40222	0.07
Mof_H 	H 	0.3095	0.439	0.3876	0.042
Mof_C 	C 	0.30652	0.40943	0.4128	-0.123
Mof_C 	C 	0.31791	0.39781	0.43363	0.071
Mof_H 	H 	0.3109	0.3826	0.4404	0.041
Mof_C 	C 	0.33934	0.4083	0.44457	-0.124
Mof_C 	C 	0.34972	0.43081	0.43445	0.068
Mof_H 	H 	0.3643	0.4383	0.442	0.042
Mof_C 	C 	0.28445	0.39688	0.39977	0.375
Mof_C 	C 	0.35269	0.395	0.46592	0.383
Mof_C 	C 	0.28384	0.35067	0.35188	0.394
Mof_C 	C 	0.30554	0.33783	0.33886	-0.128
Mof_C 	C 	0.31613	0.34906	0.31686	0.072
Mof_H 	H 	0.3084	0.3637	0.3097	0.041
Mof_Cu	Cu	0.7497	0.8572	0.39241	0.906
Mof_O 	O 	0.87024	0.9737	0.41115	-0.409
Mof_O 	O 	0.83998	0.97345	0.38153	-0.414
Mof_O 	O 	0.77755	0.90617	0.37888	-0.409
Mof_O 	O 	0.7745	0.87794	0.4105	-0.406
Mof_O 	O 	0.84302	0.87501	0.47397	-0.412
Mof_O 	O 	0.87274	0.90536	0.47398	-0.412
Mof_O 	O 	0.77773	0.84159	0.37291	-0.412
Mof_O 	O 	0.77469	0.86949	0.34111	-0.422
Mof_C 	C 	0.85042	0.96493	0.401	0.383
Mof_C 	C 	0.83837	0.9421	0.41311	-0.124
Mof_C 	C 	0.81702	0.93145	0.40222	0.07
Mof_H 	H 	0.8095	0.939	0.3876	0.042
Mof_C 	C 	0.80652	0.90943	0.4128	-0.123
Mof_C 	C 	0.81791	0.89781	0.43363	0.071
Mof_H 	H 	0.8109	0.8826	0.4404	0.041
Mof_C 	C 	0.83934	0.9083	0.44457	-0.124
Mof_C 	C 	0.84972	0.93081	0.43445	0.068
Mof_H 	H 	0.8643	0.9383	0.442	0.042
Mof_C 	C 	0.78445	0.89688	0.39977	0.375
Mof_C 	C 	0.85269	0.895	0.46592	0.383
Mof_C 	C 	0.78384	0.85067	0.35188	0.394
Mof_C 	C 	0.80554	0.83783	0.33886	-0.128
Mof_C 	C 	0.81613	0.84906	0.31686	0.072
Mof_H 	H 	0.8084	0.8637	0.3097	0.041
Mof_Cu	Cu	0.7497	0.3572	0.89241	0.906
Mof_O 	O 	0.87024	0.4737	0.91115	-0.409
Mof_O 	O 	0.83998	0.47345	0.88153	-0.414
Mof_O 	O 	0.77755	0.40617	0.87888	-0.409
Mof_O 	O 	0.7745	0.37794	0.9105	-0.406
Mof_O 	O 	0.84302	0.37501	0.97397	-0.412
Mof_O 	O 	0.87274	0.40536	0.97398	-0.412
Mof_O 	O 	0.77773	0.34159	0.87291	-0.412
Mof_O 	O 	0.77469	0.36949	0.84111	-0.422
Mof_C 	C 	0.85042	0.46493	0.901	0.383
Mof_C 	C 	0.83837	0.4421	0.91311	-0.125
Mof_C 	C 	0.81702	0.43145	0.90222	0.07
Mof_H 	H 	0.8095	0.439	0.8876	0.042
Mof_C 	C 	0.80652	0.40943	0.9128	-0.123
Mof_C 	C 	0.81791	0.39781	0.93363	0.071
Mof_H 	H 	0.8109	0.3826	0.9404	0.041
Mof_C 	C 	0.83934	0.4083	0.94457	-0.124
Mof_C 	C 	0.84972	0.43081	0.93445	0.068
Mof_H 	H 	0.8643	0.4383	0.942	0.042
Mof_C 	C 	0.78445	0.39688	0.89977	0.375
Mof_C 	C 	0.85269	0.395	0.96592	0.383
Mof_C 	C 	0.78384	0.35067	0.85188	0.394
Mof_C 	C 	0.80554	0.33783	0.83886	-0.128
Mof_C 	C 	0.81613	0.34906	0.81686	0.072
Mof_H 	H 	0.8084	0.3637	0.8097	0.041
Mof_Cu	Cu	0.10759	0.2497	0.1428	0.906
Mof_O 	O 	0.08885	0.37024	0.0263	-0.41
Mof_O 	O 	0.11847	0.33998	0.02655	-0.415
Mof_O 	O 	0.12112	0.27755	0.09383	-0.409
Mof_O 	O 	0.0895	0.2745	0.12206	-0.406
Mof_O 	O 	0.02603	0.34302	0.12499	-0.413
Mof_O 	O 	0.02602	0.37274	0.09464	-0.413
Mof_O 	O 	0.12709	0.27773	0.15841	-0.412
Mof_O 	O 	0.15889	0.27469	0.13051	-0.422
Mof_C 	C 	0.099	0.35042	0.03507	0.383
Mof_C 	C 	0.08689	0.33837	0.0579	-0.125
Mof_C 	C 	0.09778	0.31702	0.06855	0.07
Mof_H 	H 	0.1124	0.3095	0.061	0.042
Mof_C 	C 	0.0872	0.30652	0.09057	-0.123
Mof_C 	C 	0.06637	0.31791	0.10219	0.071
Mof_H 	H 	0.0596	0.3109	0.1174	0.041
Mof_C 	C 	0.05543	0.33934	0.0917	-0.125
Mof_C 	C 	0.06555	0.34972	0.06919	0.068
Mof_H 	H 	0.058	0.3643	0.0617	0.042
Mof_C 	C 	0.10023	0.28445	0.10312	0.375
Mof_C 	C 	0.03408	0.35269	0.105	0.384
Mof_C 	C 	0.14812	0.28384	0.14933	0.394
Mof_C 	C 	0.16114	0.30554	0.16217	-0.128
Mof_C 	C 	0.18314	0.31613	0.15094	0.072
Mof_H 	H 	0.1903	0.3084	0.1363	0.041
Mof_Cu	Cu	0.10759	0.7497	0.6428	0.906
Mof_O 	O 	0.08885	0.87024	0.5263	-0.41
Mof_O 	O 	0.11847	0.83998	0.52655	-0.414
Mof_O 	O 	0.12112	0.77755	0.59383	-0.409
Mof_O 	O 	0.0895	0.7745	0.62206	-0.406
Mof_O 	O 	0.02603	0.84302	0.62499	-0.413
Mof_O 	O 	0.02602	0.87274	0.59464	-0.413
Mof_O 	O 	0.12709	0.77773	0.65841	-0.412
Mof_O 	O 	0.15889	0.77469	0.63051	-0.422
Mof_C 	C 	0.099	0.85042	0.53507	0.383
Mof_C 	C 	0.08689	0.83837	0.5579	-0.125
Mof_C 	C 	0.09778	0.81702	0.56855	0.07
Mof_H 	H 	0.1124	0.8095	0.561	0.042
Mof_C 	C 	0.0872	0.80652	0.59057	-0.123
Mof_C 	C 	0.06637	0.81791	0.60219	0.071
Mof_H 	H 	0.0596	0.8109	0.6174	0.041
Mof_C 	C 	0.05543	0.83934	0.5917	-0.125
Mof_C 	C 	0.06555	0.84972	0.56919	0.068
Mof_H 	H 	0.058	0.8643	0.5617	0.042
Mof_C 	C 	0.10023	0.78445	0.60312	0.375
Mof_C 	C 	0.03408	0.85269	0.605	0.383
Mof_C 	C 	0.14812	0.78384	0.64933	0.394
Mof_C 	C 	0.16114	0.80554	0.66217	-0.128
Mof_C 	C 	0.18314	0.81613	0.65094	0.072
Mof_H 	H 	0.1903	0.8084	0.6363	0.041
Mof_Cu	Cu	0.60759	0.2497	0.6428	0.906
Mof_O 	O 	0.58885	0.37024	0.5263	-0.41
Mof_O 	O 	0.61847	0.33998	0.52655	-0.414
Mof_O 	O 	0.62112	0.27755	0.59383	-0.409
Mof_O 	O 	0.5895	0.2745	0.62206	-0.406
Mof_O 	O 	0.52603	0.34302	0.62499	-0.412
Mof_O 	O 	0.52602	0.37274	0.59464	-0.412
Mof_O 	O 	0.62709	0.27773	0.65841	-0.412
Mof_O 	O 	0.65889	0.27469	0.63051	-0.422
Mof_C 	C 	0.599	0.35042	0.53507	0.383
Mof_C 	C 	0.58689	0.33837	0.5579	-0.125
Mof_C 	C 	0.59778	0.31702	0.56855	0.07
Mof_H 	H 	0.6124	0.3095	0.561	0.042
Mof_C 	C 	0.5872	0.30652	0.59057	-0.123
Mof_C 	C 	0.56637	0.31791	0.60219	0.071
Mof_H 	H 	0.5596	0.3109	0.6174	0.041
Mof_C 	C 	0.55543	0.33934	0.5917	-0.124
Mof_C 	C 	0.56555	0.34972	0.56919	0.068
Mof_H 	H 	0.558	0.3643	0.5617	0.042
Mof_C 	C 	0.60023	0.28445	0.60312	0.375
Mof_C 	C 	0.53408	0.35269	0.605	0.383
Mof_C 	C 	0.64812	0.28384	0.64933	0.394
Mof_C 	C 	0.66114	0.30554	0.66217	-0.128
Mof_C 	C 	0.68314	0.31613	0.65094	0.072
Mof_H 	H 	0.6903	0.3084	0.6363	0.041
Mof_Cu	Cu	0.60759	0.7497	0.1428	0.906
Mof_O 	O 	0.58885	0.87024	0.0263	-0.41
Mof_O 	O 	0.61847	0.83998	0.02655	-0.415
Mof_O 	O 	0.62112	0.77755	0.09383	-0.409
Mof_O 	O 	0.5895	0.7745	0.12206	-0.406
Mof_O 	O 	0.52603	0.84302	0.12499	-0.412
Mof_O 	O 	0.52602	0.87274	0.09464	-0.412
Mof_O 	O 	0.62709	0.77773	0.15841	-0.412
Mof_O 	O 	0.65889	0.77469	0.13051	-0.422
Mof_C 	C 	0.599	0.85042	0.03507	0.383
Mof_C 	C 	0.58689	0.83837	0.0579	-0.125
Mof_C 	C 	0.59778	0.81702	0.06855	0.07
Mof_H 	H 	0.6124	0.8095	0.061	0.042
Mof_C 	C 	0.5872	0.80652	0.09057	-0.123
Mof_C 	C 	0.56637	0.81791	0.10219	0.071
Mof_H 	H 	0.5596	0.8109	0.1174	0.041
Mof_C 	C 	0.55543	0.83934	0.0917	-0.125
Mof_C 	C 	0.56555	0.84972	0.06919	0.068
Mof_H 	H 	0.558	0.8643	0.0617	0.042
Mof_C 	C 	0.60023	0.78445	0.10312	0.375
Mof_C 	C 	0.53408	0.85269	0.105	0.383
Mof_C 	C 	0.64812	0.78384	0.14933	0.394
Mof_C 	C 	0.66114	0.80554	0.16217	-0.128
Mof_C 	C 	0.68314	0.81613	0.15094	0.072
Mof_H 	H 	0.6903	0.8084	0.1363	0.041
Mof_Cu	Cu	0.10759	0.7503	0.8572	0.906
Mof_O 	O 	0.08885	0.62976	0.9737	-0.409
Mof_O 	O 	0.11847	0.66002	0.97345	-0.414
Mof_O 	O 	0.12112	0.72245	0.90617	-0.409
Mof_O 	O 	0.0895	0.7255	0.87794	-0.406
Mof_O 	O 	0.02603	0.65698	0.87501	-0.413
Mof_O 	O 	0.02602	0.62726	0.90536	-0.413
Mof_O 	O 	0.12709	0.72227	0.84159	-0.412
Mof_O 	O 	0.15889	0.72531	0.86949	-0.422
Mof_C 	C 	0.099	0.64958	0.96493	0.383
Mof_C 	C 	0.08689	0.66163	0.9421	-0.125
Mof_C 	C 	0.09778	0.68298	0.93145	0.07
Mof_H 	H 	0.1124	0.6905	0.939	0.042
Mof_C 	C 	0.0872	0.69348	0.90943	-0.123
Mof_C 	C 	0.06637	0.68209	0.89781	0.071
Mof_H 	H 	0.0596	0.6891	0.8826	0.041
Mof_C 	C 	0.05543	0.66066	0.9083	-0.124
Mof_C 	C 	0.06555	0.65028	0.93081	0.068
Mof_H 	H 	0.058	0.6357	0.9383	0.042
Mof_C 	C 	0.10023	0.71555	0.89688	0.375
Mof_C 	C 	0.03408	0.64731	0.895	0.383
Mof_C 	C 	0.14812	0.71616	0.85067	0.394
Mof_C 	C 	0.16114	0.69446	0.83783	-0.128
Mof_C 	C 	0.18314	0.68387	0.84906	0.072
Mof_H 	H 	0.1903	0.6916	0.8637	0.041
Mof_Cu	Cu	0.10759	0.2503	0.3572	0.906
Mof_O 	O 	0.08885	0.12976	0.4737	-0.41
Mof_O 	O 	0.11847	0.16002	0.47345	-0.414
Mof_O 	O 	0.12112	0.22245	0.40617	-0.409
Mof_O 	O 	0.0895	0.2255	0.37794	-0.406
Mof_O 	O 	0.02603	0.15698	0.37501	-0.413
Mof_O 	O 	0.02602	0.12726	0.40536	-0.413
Mof_O 	O 	0.12709	0.22227	0.34159	-0.412
Mof_O 	O 	0.15889	0.22531	0.36949	-0.422
Mof_C 	C 	0.099	0.14958	0.46493	0.383
Mof_C 	C 	0.08689	0.16163	0.4421	-0.125
Mof_C 	C 	0.09778	0.18298	0.43145	0.07
Mof_H 	H 	0.1124	0.1905	0.439	0.042
Mof_C 	C 	0.0872	0.19348	0.40943	-0.123
Mof_C 	C 	0.06637	0.18209	0.39781	0.071
Mof_H 	H 	0.0596	0.1891	0.3826	0.041
Mof_C 	C 	0.05543	0.16066	0.4083	-0.125
Mof_C 	C 	0.06555	0.15028	0.43081	0.068
Mof_H 	H 	0.058	0.1357	0.4383	0.042
Mof_C 	C 	0.10023	0.21555	0.39688	0.375
Mof_C 	C 	0.03408	0.14731	0.395	0.384
Mof_C 	C 	0.14812	0.21616	0.35067	0.394
Mof_C 	C 	0.16114	0.19446	0.33783	-0.128
Mof_C 	C 	0.18314	0.18387	0.34906	0.072
Mof_H 	H 	0.1903	0.1916	0.3637	0.041
Mof_Cu	Cu	0.60759	0.7503	0.3572	0.906
Mof_O 	O 	0.58885	0.62976	0.4737	-0.41
Mof_O 	O 	0.61847	0.66002	0.47345	-0.414
Mof_O 	O 	0.62112	0.72245	0.40617	-0.409
Mof_O 	O 	0.5895	0.7255	0.37794	-0.406
Mof_O 	O 	0.52603	0.65698	0.37501	-0.412
Mof_O 	O 	0.52602	0.62726	0.40536	-0.412
Mof_O 	O 	0.62709	0.72227	0.34159	-0.412
Mof_O 	O 	0.65889	0.72531	0.36949	-0.422
Mof_C 	C 	0.599	0.64958	0.46493	0.383
Mof_C 	C 	0.58689	0.66163	0.4421	-0.125
Mof_C 	C 	0.59778	0.68298	0.43145	0.07
Mof_H 	H 	0.6124	0.6905	0.439	0.042
Mof_C 	C 	0.5872	0.69348	0.40943	-0.123
Mof_C 	C 	0.56637	0.68209	0.39781	0.071
Mof_H 	H 	0.5596	0.6891	0.3826	0.041
Mof_C 	C 	0.55543	0.66066	0.4083	-0.124
Mof_C 	C 	0.56555	0.65028	0.43081	0.068
Mof_H 	H 	0.558	0.6357	0.4383	0.042
Mof_C 	C 	0.60023	0.71555	0.39688	0.375
Mof_C 	C 	0.53408	0.64731	0.395	0.383
Mof_C 	C 	0.64812	0.71616	0.35067	0.394
Mof_C 	C 	0.66114	0.69446	0.33783	-0.128
Mof_C 	C 	0.68314	0.68387	0.34906	0.072
Mof_H 	H 	0.6903	0.6916	0.3637	0.041
Mof_Cu	Cu	0.60759	0.2503	0.8572	0.906
Mof_O 	O 	0.58885	0.12976	0.9737	-0.409
Mof_O 	O 	0.61847	0.16002	0.97345	-0.414
Mof_O 	O 	0.62112	0.22245	0.90617	-0.409
Mof_O 	O 	0.5895	0.2255	0.87794	-0.406
Mof_O 	O 	0.52603	0.15698	0.87501	-0.412
Mof_O 	O 	0.52602	0.12726	0.90536	-0.412
Mof_O 	O 	0.62709	0.22227	0.84159	-0.412
Mof_O 	O 	0.65889	0.22531	0.86949	-0.422
Mof_C 	C 	0.599	0.14958	0.96493	0.383
Mof_C 	C 	0.58689	0.16163	0.9421	-0.124
Mof_C 	C 	0.59778	0.18298	0.93145	0.07
Mof_H 	H 	0.6124	0.1905	0.939	0.042
Mof_C 	C 	0.5872	0.19348	0.90943	-0.123
Mof_C 	C 	0.56637	0.18209	0.89781	0.071
Mof_H 	H 	0.5596	0.1891	0.8826	0.041
Mof_C 	C 	0.55543	0.16066	0.9083	-0.124
Mof_C 	C 	0.56555	0.15028	0.93081	0.068
Mof_H 	H 	0.558	0.1357	0.9383	0.042
Mof_C 	C 	0.60023	0.21555	0.89688	0.375
Mof_C 	C 	0.53408	0.14731	0.895	0.383
Mof_C 	C 	0.64812	0.21616	0.85067	0.394
Mof_C 	C 	0.66114	0.19446	0.83783	-0.128
Mof_C 	C 	0.68314	0.18387	0.84906	0.072
Mof_H 	H 	0.6903	0.1916	0.8637	0.041
Mof_Cu	Cu	0.89241	0.7503	0.1428	0.906
Mof_O 	O 	0.91115	0.62976	0.0263	-0.41
Mof_O 	O 	0.88153	0.66002	0.02655	-0.415
Mof_O 	O 	0.87888	0.72245	0.09383	-0.409
Mof_O 	O 	0.9105	0.7255	0.12206	-0.406
Mof_O 	O 	0.97397	0.65698	0.12499	-0.412
Mof_O 	O 	0.97398	0.62726	0.09464	-0.412
Mof_O 	O 	0.87291	0.72227	0.15841	-0.412
Mof_O 	O 	0.84111	0.72531	0.13051	-0.422
Mof_C 	C 	0.901	0.64958	0.03507	0.383
Mof_C 	C 	0.91311	0.66163	0.0579	-0.125
Mof_C 	C 	0.90222	0.68298	0.06855	0.07
Mof_H 	H 	0.8876	0.6905	0.061	0.042
Mof_C 	C 	0.9128	0.69348	0.09057	-0.123
Mof_C 	C 	0.93363	0.68209	0.10219	0.071
Mof_H 	H 	0.9404	0.6891	0.1174	0.041
Mof_C 	C 	0.94457	0.66066	0.0917	-0.124
Mof_C 	C 	0.93445	0.65028	0.06919	0.068
Mof_H 	H 	0.942	0.6357	0.0617	0.042
Mof_C 	C 	0.89977	0.71555	0.10312	0.375
Mof_C 	C 	0.96592	0.64731	0.105	0.383
Mof_C 	C 	0.85188	0.71616	0.14933	0.394
Mof_C 	C 	0.83886	0.69446	0.16217	-0.128
Mof_C 	C 	0.81686	0.68387	0.15094	0.072
Mof_H 	H 	0.8097	0.6916	0.1363	0.041
Mof_Cu	Cu	0.89241	0.2503	0.6428	0.906
Mof_O 	O 	0.91115	0.12976	0.5263	-0.409
Mof_O 	O 	0.88153	0.16002	0.52655	-0.414
Mof_O 	O 	0.87888	0.22245	0.59383	-0.409
Mof_O 	O 	0.9105	0.2255	0.62206	-0.406
Mof_O 	O 	0.97397	0.15698	0.62499	-0.412
Mof_O 	O 	0.97398	0.12726	0.59464	-0.412
Mof_O 	O 	0.87291	0.22227	0.65841	-0.412
Mof_O 	O 	0.84111	0.22531	0.63051	-0.422
Mof_C 	C 	0.901	0.14958	0.53507	0.383
Mof_C 	C 	0.91311	0.16163	0.5579	-0.125
Mof_C 	C 	0.90222	0.18298	0.56855	0.07
Mof_H 	H 	0.8876	0.1905	0.561	0.042
Mof_C 	C 	0.9128	0.19348	0.59057	-0.123
Mof_C 	C 	0.93363	0.18209	0.60219	0.071
Mof_H 	H 	0.9404	0.1891	0.6174	0.041
Mof_C 	C 	0.94457	0.16066	0.5917	-0.124
Mof_C 	C 	0.93445	0.15028	0.56919	0.068
Mof_H 	H 	0.942	0.1357	0.5617	0.042
Mof_C 	C 	0.89977	0.21555	0.60312	0.375
Mof_C 	C 	0.96592	0.14731	0.605	0.383
Mof_C 	C 	0.85188	0.21616	0.64933	0.394
Mof_C 	C 	0.83886	0.19446	0.66217	-0.128
Mof_C 	C 	0.81686	0.18387	0.65094	0.072
Mof_H 	H 	0.8097	0.1916	0.6363	0.041
Mof_Cu	Cu	0.39241	0.7503	0.6428	0.906
Mof_O 	O 	0.41115	0.62976	0.5263	-0.41
Mof_O 	O 	0.38153	0.66002	0.52655	-0.414
Mof_O 	O 	0.37888	0.72245	0.59383	-0.409
Mof_O 	O 	0.4105	0.7255	0.62206	-0.406
Mof_O 	O 	0.47397	0.65698	0.62499	-0.412
Mof_O 	O 	0.47398	0.62726	0.59464	-0.412
Mof_O 	O 	0.37291	0.72227	0.65841	-0.412
Mof_O 	O 	0.34111	0.72531	0.63051	-0.422
Mof_C 	C 	0.401	0.64958	0.53507	0.383
Mof_C 	C 	0.41311	0.66163	0.5579	-0.125
Mof_C 	C 	0.40222	0.68298	0.56855	0.07
Mof_H 	H 	0.3876	0.6905	0.561	0.042
Mof_C 	C 	0.4128	0.69348	0.59057	-0.123
Mof_C 	C 	0.43363	0.68209	0.60219	0.071
Mof_H 	H 	0.4404	0.6891	0.6174	0.041
Mof_C 	C 	0.44457	0.66066	0.5917	-0.124
Mof_C 	C 	0.43445	0.65028	0.56919	0.068
Mof_H 	H 	0.442	0.6357	0.5617	0.042
Mof_C 	C 	0.39977	0.71555	0.60312	0.375
Mof_C 	C 	0.46592	0.64731	0.605	0.383
Mof_C 	C 	0.35188	0.71616	0.64933	0.394
Mof_C 	C 	0.33886	0.69446	0.66217	-0.128
Mof_C 	C 	0.31686	0.68387	0.65094	0.072
Mof_H 	H 	0.3097	0.6916	0.6363	0.041
Mof_Cu	Cu	0.39241	0.2503	0.1428	0.906
Mof_O 	O 	0.41115	0.12976	0.0263	-0.41
Mof_O 	O 	0.38153	0.16002	0.02655	-0.415
Mof_O 	O 	0.37888	0.22245	0.09383	-0.409
Mof_O 	O 	0.4105	0.2255	0.12206	-0.406
Mof_O 	O 	0.47397	0.15698	0.12499	-0.412
Mof_O 	O 	0.47398	0.12726	0.09464	-0.412
Mof_O 	O 	0.37291	0.22227	0.15841	-0.412
Mof_O 	O 	0.34111	0.22531	0.13051	-0.422
Mof_C 	C 	0.401	0.14958	0.03507	0.383
Mof_C 	C 	0.41311	0.16163	0.0579	-0.125
Mof_C 	C 	0.40222	0.18298	0.06855	0.07
Mof_H 	H 	0.3876	0.1905	0.061	0.042
Mof_C 	C 	0.4128	0.19348	0.09057	-0.123
Mof_C 	C 	0.43363	0.18209	0.10219	0.071
Mof_H 	H 	0.4404	0.1891	0.1174	0.041
Mof_C 	C 	0.44457	0.16066	0.0917	-0.125
Mof_C 	C 	0.43445	0.15028	0.06919	0.068
Mof_H 	H 	0.442	0.1357	0.0617	0.042
Mof_C 	C 	0.39977	0.21555	0.10312	0.375
Mof_C 	C 	0.46592	0.14731	0.105	0.383
Mof_C 	C 	0.35188	0.21616	0.14933	0.394
Mof_C 	C 	0.33886	0.19446	0.16217	-0.128
Mof_C 	C 	0.31686	0.18387	0.15094	0.072
Mof_H 	H 	0.3097	0.1916	0.1363	0.041
Mof_Cu	Cu	0.89241	0.2497	0.8572	0.906
Mof_O 	O 	0.91115	0.37024	0.9737	-0.409
Mof_O 	O 	0.88153	0.33998	0.97345	-0.414
Mof_O 	O 	0.87888	0.27755	0.90617	-0.409
Mof_O 	O 	0.9105	0.2745	0.87794	-0.406
Mof_O 	O 	0.97397	0.34302	0.87501	-0.412
Mof_O 	O 	0.97398	0.37274	0.90536	-0.412
Mof_O 	O 	0.87291	0.27773	0.84159	-0.412
Mof_O 	O 	0.84111	0.27469	0.86949	-0.422
Mof_C 	C 	0.901	0.35042	0.96493	0.383
Mof_C 	C 	0.91311	0.33837	0.9421	-0.124
Mof_C 	C 	0.90222	0.31702	0.93145	0.07
Mof_H 	H 	0.8876	0.3095	0.939	0.042
Mof_C 	C 	0.9128	0.30652	0.90943	-0.122
Mof_C 	C 	0.93363	0.31791	0.89781	0.071
Mof_H 	H 	0.9404	0.3109	0.8826	0.041
Mof_C 	C 	0.94457	0.33934	0.9083	-0.124
Mof_C 	C 	0.93445	0.34972	0.93081	0.068
Mof_H 	H 	0.942	0.3643	0.9383	0.042
Mof_C 	C 	0.89977	0.28445	0.89688	0.375
Mof_C 	C 	0.96592	0.35269	0.895	0.383
Mof_C 	C 	0.85188	0.28384	0.85067	0.394
Mof_C 	C 	0.83886	0.30554	0.83783	-0.128
Mof_C 	C 	0.81686	0.31613	0.84906	0.072
Mof_H 	H 	0.8097	0.3084	0.8637	0.041
Mof_Cu	Cu	0.89241	0.7497	0.3572	0.906
Mof_O 	O 	0.91115	0.87024	0.4737	-0.409
Mof_O 	O 	0.88153	0.83998	0.47345	-0.414
Mof_O 	O 	0.87888	0.77755	0.40617	-0.409
Mof_O 	O 	0.9105	0.7745	0.37794	-0.406
Mof_O 	O 	0.97397	0.84302	0.37501	-0.412
Mof_O 	O 	0.97398	0.87274	0.40536	-0.412
Mof_O 	O 	0.87291	0.77773	0.34159	-0.412
Mof_O 	O 	0.84111	0.77469	0.36949	-0.422
Mof_C 	C 	0.901	0.85042	0.46493	0.383
Mof_C 	C 	0.91311	0.83837	0.4421	-0.125
Mof_C 	C 	0.90222	0.81702	0.43145	0.07
Mof_H 	H 	0.8876	0.8095	0.439	0.042
Mof_C 	C 	0.9128	0.80652	0.40943	-0.123
Mof_C 	C 	0.93363	0.81791	0.39781	0.071
Mof_H 	H 	0.9404	0.8109	0.3826	0.041
Mof_C 	C 	0.94457	0.83934	0.4083	-0.124
Mof_C 	C 	0.93445	0.84972	0.43081	0.068
Mof_H 	H 	0.942	0.8643	0.4383	0.042
Mof_C 	C 	0.89977	0.78445	0.39688	0.375
Mof_C 	C 	0.96592	0.85269	0.395	0.383
Mof_C 	C 	0.85188	0.78384	0.35067	0.394
Mof_C 	C 	0.83886	0.80554	0.33783	-0.128
Mof_C 	C 	0.81686	0.81613	0.34906	0.072
Mof_H 	H 	0.8097	0.8084	0.3637	0.041
Mof_Cu	Cu	0.39241	0.2497	0.3572	0.906
Mof_O 	O 	0.41115	0.37024	0.4737	-0.41
Mof_O 	O 	0.38153	0.33998	0.47345	-0.414
Mof_O 	O 	0.37888	0.27755	0.40617	-0.409
Mof_O 	O 	0.4105	0.2745	0.37794	-0.406
Mof_O 	O 	0.47397	0.34302	0.37501	-0.412
Mof_O 	O 	0.47398	0.37274	0.40536	-0.412
Mof_O 	O 	0.37291	0.27773	0.34159	-0.412
Mof_O 	O 	0.34111	0.27469	0.36949	-0.422
Mof_C 	C 	0.401	0.35042	0.46493	0.383
Mof_C 	C 	0.41311	0.33837	0.4421	-0.125
Mof_C 	C 	0.40222	0.31702	0.43145	0.07
Mof_H 	H 	0.3876	0.3095	0.439	0.042
Mof_C 	C 	0.4128	0.30652	0.40943	-0.123
Mof_C 	C 	0.43363	0.31791	0.39781	0.071
Mof_H 	H 	0.4404	0.3109	0.3826	0.041
Mof_C 	C 	0.44457	0.33934	0.4083	-0.124
Mof_C 	C 	0.43445	0.34972	0.43081	0.068
Mof_H 	H 	0.442	0.3643	0.4383	0.042
Mof_C 	C 	0.39977	0.28445	0.39688	0.375
Mof_C 	C 	0.46592	0.35269	0.395	0.383
Mof_C 	C 	0.35188	0.28384	0.35067	0.394
Mof_C 	C 	0.33886	0.30554	0.33783	-0.128
Mof_C 	C 	0.31686	0.31613	0.34906	0.072
Mof_H 	H 	0.3097	0.3084	0.3637	0.041
Mof_Cu	Cu	0.39241	0.7497	0.8572	0.906
Mof_O 	O 	0.41115	0.87024	0.9737	-0.409
Mof_O 	O 	0.38153	0.83998	0.97345	-0.414
Mof_O 	O 	0.37888	0.77755	0.90617	-0.409
Mof_O 	O 	0.4105	0.7745	0.87794	-0.406
Mof_O 	O 	0.47397	0.84302	0.87501	-0.412
Mof_O 	O 	0.47398	0.87274	0.90536	-0.412
Mof_O 	O 	0.37291	0.77773	0.84159	-0.412
Mof_O 	O 	0.34111	0.77469	0.86949	-0.422
Mof_C 	C 	0.401	0.85042	0.96493	0.383
Mof_C 	C 	0.41311	0.83837	0.9421	-0.124
Mof_C 	C 	0.40222	0.81702	0.93145	0.07
Mof_H 	H 	0.3876	0.8095	0.939	0.042
Mof_C 	C 	0.4128	0.80652	0.90943	-0.123
Mof_C 	C 	0.43363	0.81791	0.89781	0.071
Mof_H 	H 	0.4404	0.8109	0.8826	0.041
Mof_C 	C 	0.44457	0.83934	0.9083	-0.124
Mof_C 	C 	0.43445	0.84972	0.93081	0.068
Mof_H 	H 	0.442	0.8643	0.9383	0.042
Mof_C 	C 	0.39977	0.78445	0.89688	0.375
Mof_C 	C 	0.46592	0.85269	0.895	0.383
Mof_C 	C 	0.35188	0.78384	0.85067	0.394
Mof_C 	C 	0.33886	0.80554	0.83783	-0.128
Mof_C 	C 	0.31686	0.81613	0.84906	0.072
Mof_H 	H 	0.3097	0.8084	0.8637	0.041
Mof_Cu	Cu	0.1428	0.10759	0.2497	0.906
Mof_O 	O 	0.0263	0.08885	0.37024	-0.41
Mof_O 	O 	0.02655	0.11847	0.33998	-0.415
Mof_O 	O 	0.09383	0.12112	0.27755	-0.409
Mof_O 	O 	0.12206	0.0895	0.2745	-0.406
Mof_O 	O 	0.12499	0.02603	0.34302	-0.413
Mof_O 	O 	0.09464	0.02602	0.37274	-0.413
Mof_O 	O 	0.15841	0.12709	0.27773	-0.412
Mof_O 	O 	0.13051	0.15889	0.27469	-0.422
Mof_C 	C 	0.03507	0.099	0.35042	0.383
Mof_C 	C 	0.0579	0.08689	0.33837	-0.125
Mof_C 	C 	0.06855	0.09778	0.31702	0.07
Mof_H 	H 	0.061	0.1124	0.3095	0.042
Mof_C 	C 	0.09057	0.0872	0.30652	-0.123
Mof_C 	C 	0.10219	0.06637	0.31791	0.071
Mof_H 	H 	0.1174	0.0596	0.3109	0.041
Mof_C 	C 	0.0917	0.05543	0.33934	-0.125
Mof_C 	C 	0.06919	0.06555	0.34972	0.068
Mof_H 	H 	0.0617	0.058	0.3643	0.042
Mof_C 	C 	0.10312	0.10023	0.28445	0.375
Mof_C 	C 	0.105	0.03408	0.35269	0.384
Mof_C 	C 	0.14933	0.14812	0.28384	0.394
Mof_C 	C 	0.16217	0.16114	0.30554	-0.128
Mof_C 	C 	0.15094	0.18314	0.31613	0.072
Mof_H 	H 	0.1363	0.1903	0.3084	0.041
Mof_Cu	Cu	0.1428	0.60759	0.7497	0.906
Mof_O 	O 	0.0263	0.58885	0.87024	-0.41
Mof_O 	O 	0.02655	0.61847	0.83998	-0.415
Mof_O 	O 	0.09383	0.62112	0.77755	-0.409
Mof_O 	O 	0.12206	0.5895	0.7745	-0.406
Mof_O 	O 	0.12499	0.52603	0.84302	-0.412
Mof_O 	O 	0.09464	0.52602	0.87274	-0.412
Mof_O 	O 	0.15841	0.62709	0.77773	-0.412
Mof_O 	O 	0.13051	0.65889	0.77469	-0.422
Mof_C 	C 	0.03507	0.599	0.85042	0.383
Mof_C 	C 	0.0579	0.58689	0.83837	-0.125
Mof_C 	C 	0.06855	0.59778	0.81702	0.07
Mof_H 	H 	0.061	0.6124	0.8095	0.042
Mof_C 	C 	0.09057	0.5872	0.80652	-0.123
Mof_C 	C 	0.10219	0.56637	0.81791	0.071
Mof_H 	H 	0.1174	0.5596	0.8109	0.041
Mof_C 	C 	0.0917	0.55543	0.83934	-0.125
Mof_C 	C 	0.06919	0.56555	0.84972	0.068
Mof_H 	H 	0.0617	0.558	0.8643	0.042
Mof_C 	C 	0.10312	0.60023	0.78445	0.375
Mof_C 	C 	0.105	0.53408	0.85269	0.383
Mof_C 	C 	0.14933	0.64812	0.78384	0.394
Mof_C 	C 	0.16217	0.66114	0.80554	-0.128
Mof_C 	C 	0.15094	0.68314	0.81613	0.072
Mof_H 	H 	0.1363	0.6903	0.8084	0.041
Mof_Cu	Cu	0.6428	0.10759	0.7497	0.906
Mof_O 	O 	0.5263	0.08885	0.87024	-0.41
Mof_O 	O 	0.52655	0.11847	0.83998	-0.414
Mof_O 	O 	0.59383	0.12112	0.77755	-0.409
Mof_O 	O 	0.62206	0.0895	0.7745	-0.406
Mof_O 	O 	0.62499	0.02603	0.84302	-0.413
Mof_O 	O 	0.59464	0.02602	0.87274	-0.413
Mof_O 	O 	0.65841	0.12709	0.77773	-0.412
Mof_O 	O 	0.63051	0.15889	0.77469	-0.422
Mof_C 	C 	0.53507	0.099	0.85042	0.383
Mof_C 	C 	0.5579	0.08689	0.83837	-0.125
Mof_C 	C 	0.56855	0.09778	0.81702	0.07
Mof_H 	H 	0.561	0.1124	0.8095	0.042
Mof_C 	C 	0.59057	0.0872	0.80652	-0.123
Mof_C 	C 	0.60219	0.06637	0.81791	0.071
Mof_H 	H 	0.6174	0.0596	0.8109	0.041
Mof_C 	C 	0.5917	0.05543	0.83934	-0.125
Mof_C 	C 	0.56919	0.06555	0.84972	0.068
Mof_H 	H 	0.5617	0.058	0.8643	0.042
Mof_C 	C 	0.60312	0.10023	0.78445	0.375
Mof_C 	C 	0.605	0.03408	0.85269	0.383
Mof_C 	C 	0.64933	0.14812	0.78384	0.394
Mof_C 	C 	0.66217	0.16114	0.80554	-0.128
Mof_C 	C 	0.65094	0.18314	0.81613	0.072
Mof_H 	H 	0.6363	0.1903	0.8084	0.041
Mof_Cu	Cu	0.6428	0.60759	0.2497	0.906
Mof_O 	O 	0.5263	0.58885	0.37024	-0.41
Mof_O 	O 	0.52655	0.61847	0.33998	-0.414
Mof_O 	O 	0.59383	0.62112	0.27755	-0.409
Mof_O 	O 	0.62206	0.5895	0.2745	-0.406
Mof_O 	O 	0.62499	0.52603	0.34302	-0.412
Mof_O 	O 	0.59464	0.52602	0.37274	-0.412
Mof_O 	O 	0.65841	0.62709	0.27773	-0.412
Mof_O 	O 	0.63051	0.65889	0.27469	-0.422
Mof_C 	C 	0.53507	0.599	0.35042	0.383
Mof_C 	C 	0.5579	0.58689	0.33837	-0.125
Mof_C 	C 	0.56855	0.59778	0.31702	0.07
Mof_H 	H 	0.561	0.6124	0.3095	0.042
Mof_C 	C 	0.59057	0.5872	0.30652	-0.123
Mof_C 	C 	0.60219	0.56637	0.31791	0.071
Mof_H 	H 	0.6174	0.5596	0.3109	0.041
Mof_C 	C 	0.5917	0.55543	0.33934	-0.124
Mof_C 	C 	0.56919	0.56555	0.34972	0.068
Mof_H 	H 	0.5617	0.558	0.3643	0.042
Mof_C 	C 	0.60312	0.60023	0.28445	0.375
Mof_C 	C 	0.605	0.53408	0.35269	0.383
Mof_C 	C 	0.64933	0.64812	0.28384	0.394
Mof_C 	C 	0.66217	0.66114	0.30554	-0.128
Mof_C 	C 	0.65094	0.68314	0.31613	0.072
Mof_H 	H 	0.6363	0.6903	0.3084	0.041
Mof_Cu	Cu	0.8572	0.10759	0.7503	0.906
Mof_O 	O 	0.9737	0.08885	0.62976	-0.409
Mof_O 	O 	0.97345	0.11847	0.66002	-0.414
Mof_O 	O 	0.90617	0.12112	0.72245	-0.409
Mof_O 	O 	0.87794	0.0895	0.7255	-0.406
Mof_O 	O 	0.87501	0.02603	0.65698	-0.413
Mof_O 	O 	0.90536	0.02602	0.62726	-0.413
Mof_O 	O 	0.84159	0.12709	0.72227	-0.412
Mof_O 	O 	0.86949	0.15889	0.72531	-0.422
Mof_C 	C 	0.96493	0.099	0.64958	0.383
Mof_C 	C 	0.9421	0.08689	0.66163	-0.125
Mof_C 	C 	0.93145	0.09778	0.68298	0.07
Mof_H 	H 	0.939	0.1124	0.6905	0.042
Mof_C 	C 	0.90943	0.0872	0.69348	-0.123
Mof_C 	C 	0.89781	0.06637	0.68209	0.071
Mof_H 	H 	0.8826	0.0596	0.6891	0.041
Mof_C 	C 	0.9083	0.05543	0.66066	-0.124
Mof_C 	C 	0.93081	0.06555	0.65028	0.068
Mof_H 	H 	0.9383	0.058	0.6357	0.042
Mof_C 	C 	0.89688	0.10023	0.71555	0.375
Mof_C 	C 	0.895	0.03408	0.64731	0.383
Mof_C 	C 	0.85067	0.14812	0.71616	0.394
Mof_C 	C 	0.83783	0.16114	0.69446	-0.128
Mof_C 	C 	0.84906	0.18314	0.68387	0.072
Mof_H 	H 	0.8637	0.1903	0.6916	0.041
Mof_Cu	Cu	0.8572	0.60759	0.2503	0.906
Mof_O 	O 	0.9737	0.58885	0.12976	-0.409
Mof_O 	O 	0.97345	0.61847	0.16002	-0.414
Mof_O 	O 	0.90617	0.62112	0.22245	-0.409
Mof_O 	O 	0.87794	0.5895	0.2255	-0.406
Mof_O 	O 	0.87501	0.52603	0.15698	-0.412
Mof_O 	O 	0.90536	0.52602	0.12726	-0.412
Mof_O 	O 	0.84159	0.62709	0.22227	-0.412
Mof_O 	O 	0.86949	0.65889	0.22531	-0.422
Mof_C 	C 	0.96493	0.599	0.14958	0.383
Mof_C 	C 	0.9421	0.58689	0.16163	-0.124
Mof_C 	C 	0.93145	0.59778	0.18298	0.07
Mof_H 	H 	0.939	0.6124	0.1905	0.042
Mof_C 	C 	0.90943	0.5872	0.19348	-0.123
Mof_C 	C 	0.89781	0.56637	0.18209	0.071
Mof_H 	H 	0.8826	0.5596	0.1891	0.041
Mof_C 	C 	0.9083	0.55543	0.16066	-0.124
Mof_C 	C 	0.93081	0.56555	0.15028	0.068
Mof_H 	H 	0.9383	0.558	0.1357	0.042
Mof_C 	C 	0.89688	0.60023	0.21555	0.375
Mof_C 	C 	0.895	0.53408	0.14731	0.383
Mof_C 	C 	0.85067	0.64812	0.21616	0.394
Mof_C 	C 	0.83783	0.66114	0.19446	-0.128
Mof_C 	C 	0.84906	0.68314	0.18387	0.072
Mof_H 	H 	0.8637	0.6903	0.1916	0.041
Mof_Cu	Cu	0.3572	0.10759	0.2503	0.906
Mof_O 	O 	0.4737	0.08885	0.12976	-0.41
Mof_O 	O 	0.47345	0.11847	0.16002	-0.414
Mof_O 	O 	0.40617	0.12112	0.22245	-0.409
Mof_O 	O 	0.37794	0.0895	0.2255	-0.406
Mof_O 	O 	0.37501	0.02603	0.15698	-0.413
Mof_O 	O 	0.40536	0.02602	0.12726	-0.413
Mof_O 	O 	0.34159	0.12709	0.22227	-0.412
Mof_O 	O 	0.36949	0.15889	0.22531	-0.422
Mof_C 	C 	0.46493	0.099	0.14958	0.383
Mof_C 	C 	0.4421	0.08689	0.16163	-0.125
Mof_C 	C 	0.43145	0.09778	0.18298	0.07
Mof_H 	H 	0.439	0.1124	0.1905	0.042
Mof_C 	C 	0.40943	0.0872	0.19348	-0.123
Mof_C 	C 	0.39781	0.06637	0.18209	0.071
Mof_H 	H 	0.3826	0.0596	0.1891	0.041
Mof_C 	C 	0.4083	0.05543	0.16066	-0.125
Mof_C 	C 	0.43081	0.06555	0.15028	0.068
Mof_H 	H 	0.4383	0.058	0.1357	0.042
Mof_C 	C 	0.39688	0.10023	0.21555	0.375
Mof_C 	C 	0.395	0.03408	0.14731	0.384
Mof_C 	C 	0.35067	0.14812	0.21616	0.394
Mof_C 	C 	0.33783	0.16114	0.19446	-0.128
Mof_C 	C 	0.34906	0.18314	0.18387	0.072
Mof_H 	H 	0.3637	0.1903	0.1916	0.041
Mof_Cu	Cu	0.3572	0.60759	0.7503	0.906
Mof_O 	O 	0.4737	0.58885	0.62976	-0.41
Mof_O 	O 	0.47345	0.61847	0.66002	-0.414
Mof_O 	O 	0.40617	0.62112	0.72245	-0.409
Mof_O 	O 	0.37794	0.5895	0.7255	-0.406
Mof_O 	O 	0.37501	0.52603	0.65698	-0.412
Mof_O 	O 	0.40536	0.52602	0.62726	-0.412
Mof_O 	O 	0.34159	0.62709	0.72227	-0.412
Mof_O 	O 	0.36949	0.65889	0.72531	-0.422
Mof_C 	C 	0.46493	0.599	0.64958	0.383
Mof_C 	C 	0.4421	0.58689	0.66163	-0.125
Mof_C 	C 	0.43145	0.59778	0.68298	0.07
Mof_H 	H 	0.439	0.6124	0.6905	0.042
Mof_C 	C 	0.40943	0.5872	0.69348	-0.123
Mof_C 	C 	0.39781	0.56637	0.68209	0.071
Mof_H 	H 	0.3826	0.5596	0.6891	0.041
Mof_C 	C 	0.4083	0.55543	0.66066	-0.124
Mof_C 	C 	0.43081	0.56555	0.65028	0.068
Mof_H 	H 	0.4383	0.558	0.6357	0.042
Mof_C 	C 	0.39688	0.60023	0.71555	0.375
Mof_C 	C 	0.395	0.53408	0.64731	0.383
Mof_C 	C 	0.35067	0.64812	0.71616	0.394
Mof_C 	C 	0.33783	0.66114	0.69446	-0.128
Mof_C 	C 	0.34906	0.68314	0.68387	0.072
Mof_H 	H 	0.3637	0.6903	0.6916	0.041
Mof_Cu	Cu	0.1428	0.89241	0.7503	0.906
Mof_O 	O 	0.0263	0.91115	0.62976	-0.41
Mof_O 	O 	0.02655	0.88153	0.66002	-0.415
Mof_O 	O 	0.09383	0.87888	0.72245	-0.409
Mof_O 	O 	0.12206	0.9105	0.7255	-0.406
Mof_O 	O 	0.12499	0.97397	0.65698	-0.412
Mof_O 	O 	0.09464	0.97398	0.62726	-0.412
Mof_O 	O 	0.15841	0.87291	0.72227	-0.412
Mof_O 	O 	0.13051	0.84111	0.72531	-0.422
Mof_C 	C 	0.03507	0.901	0.64958	0.383
Mof_C 	C 	0.0579	0.91311	0.66163	-0.125
Mof_C 	C 	0.06855	0.90222	0.68298	0.07
Mof_H 	H 	0.061	0.8876	0.6905	0.042
Mof_C 	C 	0.09057	0.9128	0.69348	-0.123
Mof_C 	C 	0.10219	0.93363	0.68209	0.071
Mof_H 	H 	0.1174	0.9404	0.6891	0.041
Mof_C 	C 	0.0917	0.94457	0.66066	-0.124
Mof_C 	C 	0.06919	0.93445	0.65028	0.068
Mof_H 	H 	0.0617	0.942	0.6357	0.042
Mof_C 	C 	0.10312	0.89977	0.71555	0.375
Mof_C 	C 	0.105	0.96592	0.64731	0.383
Mof_C 	C 	0.14933	0.85188	0.71616	0.394
Mof_C 	C 	0.16217	0.83886	0.69446	-0.128
Mof_C 	C 	0.15094	0.81686	0.68387	0.072
Mof_H 	H 	0.1363	0.8097	0.6916	0.041
Mof_Cu	Cu	0.1428	0.39241	0.2503	0.906
Mof_O 	O 	0.0263	0.41115	0.12976	-0.41
Mof_O 	O 	0.02655	0.38153	0.16002	-0.415
Mof_O 	O 	0.09383	0.37888	0.22245	-0.409
Mof_O 	O 	0.12206	0.4105	0.2255	-0.406
Mof_O 	O 	0.12499	0.47397	0.15698	-0.412
Mof_O 	O 	0.09464	0.47398	0.12726	-0.412
Mof_O 	O 	0.15841	0.37291	0.22227	-0.412
Mof_O 	O 	0.13051	0.34111	0.22531	-0.422
Mof_C 	C 	0.03507	0.401	0.14958	0.383
Mof_C 	C 	0.0579	0.41311	0.16163	-0.125
Mof_C 	C 	0.06855	0.40222	0.18298	0.07
Mof_H 	H 	0.061	0.3876	0.1905	0.042
Mof_C 	C 	0.09057	0.4128	0.19348	-0.123
Mof_C 	C 	0.10219	0.43363	0.18209	0.071
Mof_H 	H 	0.1174	0.4404	0.1891	0.041
Mof_C 	C 	0.0917	0.44457	0.16066	-0.125
Mof_C 	C 	0.06919	0.43445	0.15028	0.068
Mof_H 	H 	0.0617	0.442	0.1357	0.042
Mof_C 	C 	0.10312	0.39977	0.21555	0.375
Mof_C 	C 	0.105	0.46592	0.14731	0.383
Mof_C 	C 	0.14933	0.35188	0.21616	0.394
Mof_C 	C 	0.16217	0.33886	0.19446	-0.128
Mof_C 	C 	0.15094	0.31686	0.18387	0.072
Mof_H 	H 	0.1363	0.3097	0.1916	0.041
Mof_Cu	Cu	0.6428	0.89241	0.2503	0.906
Mof_O 	O 	0.5263	0.91115	0.12976	-0.409
Mof_O 	O 	0.52655	0.88153	0.16002	-0.414
Mof_O 	O 	0.59383	0.87888	0.22245	-0.409
Mof_O 	O 	0.62206	0.9105	0.2255	-0.406
Mof_O 	O 	0.62499	0.97397	0.15698	-0.412
Mof_O 	O 	0.59464	0.97398	0.12726	-0.412
Mof_O 	O 	0.65841	0.87291	0.22227	-0.412
Mof_O 	O 	0.63051	0.84111	0.22531	-0.422
Mof_C 	C 	0.53507	0.901	0.14958	0.383
Mof_C 	C 	0.5579	0.91311	0.16163	-0.125
Mof_C 	C 	0.56855	0.90222	0.18298	0.07
Mof_H 	H 	0.561	0.8876	0.1905	0.042
Mof_C 	C 	0.59057	0.9128	0.19348	-0.123
Mof_C 	C 	0.60219	0.93363	0.18209	0.071
Mof_H 	H 	0.6174	0.9404	0.1891	0.041
Mof_C 	C 	0.5917	0.94457	0.16066	-0.124
Mof_C 	C 	0.56919	0.93445	0.15028	0.068
Mof_H 	H 	0.5617	0.942	0.1357	0.042
Mof_C 	C 	0.60312	0.89977	0.21555	0.375
Mof_C 	C 	0.605	0.96592	0.14731	0.383
Mof_C 	C 	0.64933	0.85188	0.21616	0.394
Mof_C 	C 	0.66217	0.83886	0.19446	-0.128
Mof_C 	C 	0.65094	0.81686	0.18387	0.072
Mof_H 	H 	0.6363	0.8097	0.1916	0.041
Mof_Cu	Cu	0.6428	0.39241	0.7503	0.906
Mof_O 	O 	0.5263	0.41115	0.62976	-0.41
Mof_O 	O 	0.52655	0.38153	0.66002	-0.414
Mof_O 	O 	0.59383	0.37888	0.72245	-0.409
Mof_O 	O 	0.62206	0.4105	0.7255	-0.406
Mof_O 	O 	0.62499	0.47397	0.65698	-0.412
Mof_O 	O 	0.59464	0.47398	0.62726	-0.412
Mof_O 	O 	0.65841	0.37291	0.72227	-0.412
Mof_O 	O 	0.63051	0.34111	0.72531	-0.422
Mof_C 	C 	0.53507	0.401	0.64958	0.383
Mof_C 	C 	0.5579	0.41311	0.66163	-0.125
Mof_C 	C 	0.56855	0.40222	0.68298	0.07
Mof_H 	H 	0.561	0.3876	0.6905	0.042
Mof_C 	C 	0.59057	0.4128	0.69348	-0.123
Mof_C 	C 	0.60219	0.43363	0.68209	0.071
Mof_H 	H 	0.6174	0.4404	0.6891	0.041
Mof_C 	C 	0.5917	0.44457	0.66066	-0.124
Mof_C 	C 	0.56919	0.43445	0.65028	0.068
Mof_H 	H 	0.5617	0.442	0.6357	0.042
Mof_C 	C 	0.60312	0.39977	0.71555	0.375
Mof_C 	C 	0.605	0.46592	0.64731	0.383
Mof_C 	C 	0.64933	0.35188	0.71616	0.394
Mof_C 	C 	0.66217	0.33886	0.69446	-0.128
Mof_C 	C 	0.65094	0.31686	0.68387	0.072
Mof_H 	H 	0.6363	0.3097	0.6916	0.041
Mof_Cu	Cu	0.8572	0.89241	0.2497	0.906
Mof_O 	O 	0.9737	0.91115	0.37024	-0.409
Mof_O 	O 	0.97345	0.88153	0.33998	-0.414
Mof_O 	O 	0.90617	0.87888	0.27755	-0.409
Mof_O 	O 	0.87794	0.9105	0.2745	-0.406
Mof_O 	O 	0.87501	0.97397	0.34302	-0.412
Mof_O 	O 	0.90536	0.97398	0.37274	-0.412
Mof_O 	O 	0.84159	0.87291	0.27773	-0.412
Mof_O 	O 	0.86949	0.84111	0.27469	-0.422
Mof_C 	C 	0.96493	0.901	0.35042	0.383
Mof_C 	C 	0.9421	0.91311	0.33837	-0.124
Mof_C 	C 	0.93145	0.90222	0.31702	0.07
Mof_H 	H 	0.939	0.8876	0.3095	0.042
Mof_C 	C 	0.90943	0.9128	0.30652	-0.122
Mof_C 	C 	0.89781	0.93363	0.31791	0.071
Mof_H 	H 	0.8826	0.9404	0.3109	0.041
Mof_C 	C 	0.9083	0.94457	0.33934	-0.124
Mof_C 	C 	0.93081	0.93445	0.34972	0.068
Mof_H 	H 	0.9383	0.942	0.3643	0.042
Mof_C 	C 	0.89688	0.89977	0.28445	0.375
Mof_C 	C 	0.895	0.96592	0.35269	0.383
Mof_C 	C 	0.85067	0.85188	0.28384	0.394
Mof_C 	C 	0.83783	0.83886	0.30554	-0.128
Mof_C 	C 	0.84906	0.81686	0.31613	0.072
Mof_H 	H 	0.8637	0.8097	0.3084	0.041
Mof_Cu	Cu	0.8572	0.39241	0.7497	0.906
Mof_O 	O 	0.9737	0.41115	0.87024	-0.409
Mof_O 	O 	0.97345	0.38153	0.83998	-0.414
Mof_O 	O 	0.90617	0.37888	0.77755	-0.409
Mof_O 	O 	0.87794	0.4105	0.7745	-0.406
Mof_O 	O 	0.87501	0.47397	0.84302	-0.412
Mof_O 	O 	0.90536	0.47398	0.87274	-0.412
Mof_O 	O 	0.84159	0.37291	0.77773	-0.412
Mof_O 	O 	0.86949	0.34111	0.77469	-0.422
Mof_C 	C 	0.96493	0.401	0.85042	0.383
Mof_C 	C 	0.9421	0.41311	0.83837	-0.124
Mof_C 	C 	0.93145	0.40222	0.81702	0.07
Mof_H 	H 	0.939	0.3876	0.8095	0.042
Mof_C 	C 	0.90943	0.4128	0.80652	-0.123
Mof_C 	C 	0.89781	0.43363	0.81791	0.071
Mof_H 	H 	0.8826	0.4404	0.8109	0.041
Mof_C 	C 	0.9083	0.44457	0.83934	-0.124
Mof_C 	C 	0.93081	0.43445	0.84972	0.068
Mof_H 	H 	0.9383	0.442	0.8643	0.042
Mof_C 	C 	0.89688	0.39977	0.78445	0.375
Mof_C 	C 	0.895	0.46592	0.85269	0.383
Mof_C 	C 	0.85067	0.35188	0.78384	0.394
Mof_C 	C 	0.83783	0.33886	0.80554	-0.128
Mof_C 	C 	0.84906	0.31686	0.81613	0.072
Mof_H 	H 	0.8637	0.3097	0.8084	0.041
Mof_Cu	Cu	0.3572	0.89241	0.7497	0.906
Mof_O 	O 	0.4737	0.91115	0.87024	-0.409
Mof_O 	O 	0.47345	0.88153	0.83998	-0.414
Mof_O 	O 	0.40617	0.87888	0.77755	-0.409
Mof_O 	O 	0.37794	0.9105	0.7745	-0.406
Mof_O 	O 	0.37501	0.97397	0.84302	-0.412
Mof_O 	O 	0.40536	0.97398	0.87274	-0.412
Mof_O 	O 	0.34159	0.87291	0.77773	-0.412
Mof_O 	O 	0.36949	0.84111	0.77469	-0.422
Mof_C 	C 	0.46493	0.901	0.85042	0.383
Mof_C 	C 	0.4421	0.91311	0.83837	-0.125
Mof_C 	C 	0.43145	0.90222	0.81702	0.07
Mof_H 	H 	0.439	0.8876	0.8095	0.042
Mof_C 	C 	0.40943	0.9128	0.80652	-0.123
Mof_C 	C 	0.39781	0.93363	0.81791	0.071
Mof_H 	H 	0.3826	0.9404	0.8109	0.041
Mof_C 	C 	0.4083	0.94457	0.83934	-0.124
Mof_C 	C 	0.43081	0.93445	0.84972	0.068
Mof_H 	H 	0.4383	0.942	0.8643	0.042
Mof_C 	C 	0.39688	0.89977	0.78445	0.375
Mof_C 	C 	0.395	0.96592	0.85269	0.383
Mof_C 	C 	0.35067	0.85188	0.78384	0.394
Mof_C 	C 	0.33783	0.83886	0.80554	-0.128
Mof_C 	C 	0.34906	0.81686	0.81613	0.072
Mof_H 	H 	0.3637	0.8097	0.8084	0.041
Mof_Cu	Cu	0.3572	0.39241	0.2497	0.906
Mof_O 	O 	0.4737	0.41115	0.37024	-0.41
Mof_O 	O 	0.47345	0.38153	0.33998	-0.414
Mof_O 	O 	0.40617	0.37888	0.27755	-0.409
Mof_O 	O 	0.37794	0.4105	0.2745	-0.406
Mof_O 	O 	0.37501	0.47397	0.34302	-0.412
Mof_O 	O 	0.40536	0.47398	0.37274	-0.412
Mof_O 	O 	0.34159	0.37291	0.27773	-0.412
Mof_O 	O 	0.36949	0.34111	0.27469	-0.422
Mof_C 	C 	0.46493	0.401	0.35042	0.383
Mof_C 	C 	0.4421	0.41311	0.33837	-0.125
Mof_C 	C 	0.43145	0.40222	0.31702	0.07
Mof_H 	H 	0.439	0.3876	0.3095	0.042
Mof_C 	C 	0.40943	0.4128	0.30652	-0.123
Mof_C 	C 	0.39781	0.43363	0.31791	0.071
Mof_H 	H 	0.3826	0.4404	0.3109	0.041
Mof_C 	C 	0.4083	0.44457	0.33934	-0.124
Mof_C 	C 	0.43081	0.43445	0.34972	0.068
Mof_H 	H 	0.4383	0.442	0.3643	0.042
Mof_C 	C 	0.39688	0.39977	0.28445	0.375
Mof_C 	C 	0.395	0.46592	0.35269	0.383
Mof_C 	C 	0.35067	0.35188	0.28384	0.394
Mof_C 	C 	0.33783	0.33886	0.30554	-0.128
Mof_C 	C 	0.34906	0.31686	0.31613	0.072
Mof_H 	H 	0.3637	0.3097	0.3084	0.041
Mof_Cu	Cu	0.6428	0.7497	0.39241	0.906
Mof_O 	O 	0.5263	0.87024	0.41115	-0.409
Mof_O 	O 	0.52655	0.83998	0.38153	-0.414
Mof_O 	O 	0.59383	0.77755	0.37888	-0.409
Mof_O 	O 	0.62206	0.7745	0.4105	-0.406
Mof_O 	O 	0.62499	0.84302	0.47397	-0.412
Mof_O 	O 	0.59464	0.87274	0.47398	-0.412
Mof_O 	O 	0.65841	0.77773	0.37291	-0.412
Mof_O 	O 	0.63051	0.77469	0.34111	-0.422
Mof_C 	C 	0.53507	0.85042	0.401	0.383
Mof_C 	C 	0.5579	0.83837	0.41311	-0.125
Mof_C 	C 	0.56855	0.81702	0.40222	0.07
Mof_H 	H 	0.561	0.8095	0.3876	0.042
Mof_C 	C 	0.59057	0.80652	0.4128	-0.123
Mof_C 	C 	0.60219	0.81791	0.43363	0.071
Mof_H 	H 	0.6174	0.8109	0.4404	0.041
Mof_C 	C 	0.5917	0.83934	0.44457	-0.124
Mof_C 	C 	0.56919	0.84972	0.43445	0.068
Mof_H 	H 	0.5617	0.8643	0.442	0.042
Mof_C 	C 	0.60312	0.78445	0.39977	0.375
Mof_C 	C 	0.605	0.85269	0.46592	0.383
Mof_C 	C 	0.64933	0.78384	0.35188	0.394
Mof_C 	C 	0.66217	0.80554	0.33886	-0.128
Mof_C 	C 	0.65094	0.81613	0.31686	0.072
Mof_H 	H 	0.6363	0.8084	0.3097	0.041
Mof_Cu	Cu	0.6428	0.2497	0.89241	0.906
Mof_O 	O 	0.5263	0.37024	0.91115	-0.409
Mof_O 	O 	0.52655	0.33998	0.88153	-0.414
Mof_O 	O 	0.59383	0.27755	0.87888	-0.409
Mof_O 	O 	0.62206	0.2745	0.9105	-0.406
Mof_O 	O 	0.62499	0.34302	0.97397	-0.412
Mof_O 	O 	0.59464	0.37274	0.97398	-0.412
Mof_O 	O 	0.65841	0.27773	0.87291	-0.412
Mof_O 	O 	0.63051	0.27469	0.84111	-0.422
Mof_C 	C 	0.53507	0.35042	0.901	0.383
Mof_C 	C 	0.5579	0.33837	0.91311	-0.125
Mof_C 	C 	0.56855	0.31702	0.90222	0.07
Mof_H 	H 	0.561	0.3095	0.8876	0.042
Mof_C 	C 	0.59057	0.30652	0.9128	-0.123
Mof_C 	C 	0.60219	0.31791	0.93363	0.071
Mof_H 	H 	0.6174	0.3109	0.9404	0.041
Mof_C 	C 	0.5917	0.33934	0.94457	-0.124
Mof_C 	C 	0.56919	0.34972	0.93445	0.068
Mof_H 	H 	0.5617	0.3643	0.942	0.042
Mof_C 	C 	0.60312	0.28445	0.89977	0.375
Mof_C 	C 	0.605	0.35269	0.96592	0.383
Mof_C 	C 	0.64933	0.28384	0.85188	0.394
Mof_C 	C 	0.66217	0.30554	0.83886	-0.128
Mof_C 	C 	0.65094	0.31613	0.81686	0.072
Mof_H 	H 	0.6363	0.3084	0.8097	0.041
Mof_Cu	Cu	0.1428	0.7497	0.89241	0.906
Mof_O 	O 	0.0263	0.87024	0.91115	-0.41
Mof_O 	O 	0.02655	0.83998	0.88153	-0.415
Mof_O 	O 	0.09383	0.77755	0.87888	-0.409
Mof_O 	O 	0.12206	0.7745	0.9105	-0.406
Mof_O 	O 	0.12499	0.84302	0.97397	-0.412
Mof_O 	O 	0.09464	0.87274	0.97398	-0.412
Mof_O 	O 	0.15841	0.77773	0.87291	-0.412
Mof_O 	O 	0.13051	0.77469	0.84111	-0.422
Mof_C 	C 	0.03507	0.85042	0.901	0.383
Mof_C 	C 	0.0579	0.83837	0.91311	-0.125
Mof_C 	C 	0.06855	0.81702	0.90222	0.07
Mof_H 	H 	0.061	0.8095	0.8876	0.042
Mof_C 	C 	0.09057	0.80652	0.9128	-0.123
Mof_C 	C 	0.10219	0.81791	0.93363	0.071
Mof_H 	H 	0.1174	0.8109	0.9404	0.041
Mof_C 	C 	0.0917	0.83934	0.94457	-0.124
Mof_C 	C 	0.06919	0.84972	0.93445	0.068
Mof_H 	H 	0.0617	0.8643	0.942	0.042
Mof_C 	C 	0.10312	0.78445	0.89977	0.375
Mof_C 	C 	0.105	0.85269	0.96592	0.383
Mof_C 	C 	0.14933	0.78384	0.85188	0.394
Mof_C 	C 	0.16217	0.80554	0.83886	-0.128
Mof_C 	C 	0.15094	0.81613	0.81686	0.072
Mof_H 	H 	0.1363	0.8084	0.8097	0.041
Mof_Cu	Cu	0.1428	0.2497	0.39241	0.906
Mof_O 	O 	0.0263	0.37024	0.41115	-0.41
Mof_O 	O 	0.02655	0.33998	0.38153	-0.415
Mof_O 	O 	0.09383	0.27755	0.37888	-0.409
Mof_O 	O 	0.12206	0.2745	0.4105	-0.406
Mof_O 	O 	0.12499	0.34302	0.47397	-0.412
Mof_O 	O 	0.09464	0.37274	0.47398	-0.412
Mof_O 	O 	0.15841	0.27773	0.37291	-0.412
Mof_O 	O 	0.13051	0.27469	0.34111	-0.422
Mof_C 	C 	0.03507	0.35042	0.401	0.383
Mof_C 	C 	0.0579	0.33837	0.41311	-0.125
Mof_C 	C 	0.06855	0.31702	0.40222	0.07
Mof_H 	H 	0.061	0.3095	0.3876	0.042
Mof_C 	C 	0.09057	0.30652	0.4128	-0.123
Mof_C 	C 	0.10219	0.31791	0.43363	0.071
Mof_H 	H 	0.1174	0.3109	0.4404	0.041
Mof_C 	C 	0.0917	0.33934	0.44457	-0.125
Mof_C 	C 	0.06919	0.34972	0.43445	0.068
Mof_H 	H 	0.0617	0.3643	0.442	0.042
Mof_C 	C 	0.10312	0.28445	0.39977	0.375
Mof_C 	C 	0.105	0.35269	0.46592	0.383
Mof_C 	C 	0.14933	0.28384	0.35188	0.394
Mof_C 	C 	0.16217	0.30554	0.33886	-0.128
Mof_C 	C 	0.15094	0.31613	0.31686	0.072
Mof_H 	H 	0.1363	0.3084	0.3097	0.041
Mof_Cu	Cu	0.3572	0.2503	0.39241	0.906
Mof_O 	O 	0.4737	0.12976	0.41115	-0.41
Mof_O 	O 	0.47345	0.16002	0.38153	-0.414
Mof_O 	O 	0.40617	0.22245	0.37888	-0.409
Mof_O 	O 	0.37794	0.2255	0.4105	-0.406
Mof_O 	O 	0.37501	0.15698	0.47397	-0.412
Mof_O 	O 	0.40536	0.12726	0.47398	-0.412
Mof_O 	O 	0.34159	0.22227	0.37291	-0.412
Mof_O 	O 	0.36949	0.22531	0.34111	-0.422
Mof_C 	C 	0.46493	0.14958	0.401	0.383
Mof_C 	C 	0.4421	0.16163	0.41311	-0.125
Mof_C 	C 	0.43145	0.18298	0.40222	0.07
Mof_H 	H 	0.439	0.1905	0.3876	0.042
Mof_C 	C 	0.40943	0.19348	0.4128	-0.123
Mof_C 	C 	0.39781	0.18209	0.43363	0.071
Mof_H 	H 	0.3826	0.1891	0.4404	0.041
Mof_C 	C 	0.4083	0.16066	0.44457	-0.124
Mof_C 	C 	0.43081	0.15028	0.43445	0.068
Mof_H 	H 	0.4383	0.1357	0.442	0.042
Mof_C 	C 	0.39688	0.21555	0.39977	0.375
Mof_C 	C 	0.395	0.14731	0.46592	0.383
Mof_C 	C 	0.35067	0.21616	0.35188	0.394
Mof_C 	C 	0.33783	0.19446	0.33886	-0.128
Mof_C 	C 	0.34906	0.18387	0.31686	0.072
Mof_H 	H 	0.3637	0.1916	0.3097	0.041
Mof_Cu	Cu	0.3572	0.7503	0.89241	0.906
Mof_O 	O 	0.4737	0.62976	0.91115	-0.409
Mof_O 	O 	0.47345	0.66002	0.88153	-0.414
Mof_O 	O 	0.40617	0.72245	0.87888	-0.409
Mof_O 	O 	0.37794	0.7255	0.9105	-0.406
Mof_O 	O 	0.37501	0.65698	0.97397	-0.412
Mof_O 	O 	0.40536	0.62726	0.97398	-0.412
Mof_O 	O 	0.34159	0.72227	0.87291	-0.412
Mof_O 	O 	0.36949	0.72531	0.84111	-0.422
Mof_C 	C 	0.46493	0.64958	0.901	0.383
Mof_C 	C 	0.4421	0.66163	0.91311	-0.125
Mof_C 	C 	0.43145	0.68298	0.90222	0.07
Mof_H 	H 	0.439	0.6905	0.8876	0.042
Mof_C 	C 	0.40943	0.69348	0.9128	-0.123
Mof_C 	C 	0.39781	0.68209	0.93363	0.071
Mof_H 	H 	0.3826	0.6891	0.9404	0.041
Mof_C 	C 	0.4083	0.66066	0.94457	-0.124
Mof_C 	C 	0.43081	0.65028	0.93445	0.068
Mof_H 	H 	0.4383	0.6357	0.942	0.042
Mof_C 	C 	0.39688	0.71555	0.89977	0.375
Mof_C 	C 	0.395	0.64731	0.96592	0.383
Mof_C 	C 	0.35067	0.71616	0.85188	0.394
Mof_C 	C 	0.33783	0.69446	0.83886	-0.128
Mof_C 	C 	0.34906	0.68387	0.81686	0.072
Mof_H 	H 	0.3637	0.6916	0.8097	0.041
Mof_Cu	Cu	0.8572	0.2503	0.89241	0.906
Mof_O 	O 	0.9737	0.12976	0.91115	-0.409
Mof_O 	O 	0.97345	0.16002	0.88153	-0.414
Mof_O 	O 	0.90617	0.22245	0.87888	-0.409
Mof_O 	O 	0.87794	0.2255	0.9105	-0.406
Mof_O 	O 	0.87501	0.15698	0.97397	-0.412
Mof_O 	O 	0.90536	0.12726	0.97398	-0.412
Mof_O 	O 	0.84159	0.22227	0.87291	-0.412
Mof_O 	O 	0.86949	0.22531	0.84111	-0.422
Mof_C 	C 	0.96493	0.14958	0.901	0.383
Mof_C 	C 	0.9421	0.16163	0.91311	-0.124
Mof_C 	C 	0.93145	0.18298	0.90222	0.07
Mof_H 	H 	0.939	0.1905	0.8876	0.042
Mof_C 	C 	0.90943	0.19348	0.9128	-0.122
Mof_C 	C 	0.89781	0.18209	0.93363	0.071
Mof_H 	H 	0.8826	0.1891	0.9404	0.041
Mof_C 	C 	0.9083	0.16066	0.94457	-0.124
Mof_C 	C 	0.93081	0.15028	0.93445	0.068
Mof_H 	H 	0.9383	0.1357	0.942	0.042
Mof_C 	C 	0.89688	0.21555	0.89977	0.375
Mof_C 	C 	0.895	0.14731	0.96592	0.383
Mof_C 	C 	0.85067	0.21616	0.85188	0.394
Mof_C 	C 	0.83783	0.19446	0.83886	-0.128
Mof_C 	C 	0.84906	0.18387	0.81686	0.072
Mof_H 	H 	0.8637	0.1916	0.8097	0.041
Mof_Cu	Cu	0.8572	0.7503	0.39241	0.906
Mof_O 	O 	0.9737	0.62976	0.41115	-0.409
Mof_O 	O 	0.97345	0.66002	0.38153	-0.414
Mof_O 	O 	0.90617	0.72245	0.37888	-0.409
Mof_O 	O 	0.87794	0.7255	0.4105	-0.406
Mof_O 	O 	0.87501	0.65698	0.47397	-0.412
Mof_O 	O 	0.90536	0.62726	0.47398	-0.412
Mof_O 	O 	0.84159	0.72227	0.37291	-0.412
Mof_O 	O 	0.86949	0.72531	0.34111	-0.422
Mof_C 	C 	0.96493	0.64958	0.401	0.383
Mof_C 	C 	0.9421	0.66163	0.41311	-0.124
Mof_C 	C 	0.93145	0.68298	0.40222	0.07
Mof_H 	H 	0.939	0.6905	0.3876	0.042
Mof_C 	C 	0.90943	0.69348	0.4128	-0.123
Mof_C 	C 	0.89781	0.68209	0.43363	0.071
Mof_H 	H 	0.8826	0.6891	0.4404	0.041
Mof_C 	C 	0.9083	0.66066	0.44457	-0.124
Mof_C 	C 	0.93081	0.65028	0.43445	0.068
Mof_H 	H 	0.9383	0.6357	0.442	0.042
Mof_C 	C 	0.89688	0.71555	0.39977	0.375
Mof_C 	C 	0.895	0.64731	0.46592	0.383
Mof_C 	C 	0.85067	0.71616	0.35188	0.394
Mof_C 	C 	0.83783	0.69446	0.33886	-0.128
Mof_C 	C 	0.84906	0.68387	0.31686	0.072
Mof_H 	H 	0.8637	0.6916	0.3097	0.041
Mof_Cu	Cu	0.6428	0.2503	0.60759	0.906
Mof_O 	O 	0.5263	0.12976	0.58885	-0.41
Mof_O 	O 	0.52655	0.16002	0.61847	-0.414
Mof_O 	O 	0.59383	0.22245	0.62112	-0.409
Mof_O 	O 	0.62206	0.2255	0.5895	-0.406
Mof_O 	O 	0.62499	0.15698	0.52603	-0.412
Mof_O 	O 	0.59464	0.12726	0.52602	-0.412
Mof_O 	O 	0.65841	0.22227	0.62709	-0.412
Mof_O 	O 	0.63051	0.22531	0.65889	-0.422
Mof_C 	C 	0.53507	0.14958	0.599	0.383
Mof_C 	C 	0.5579	0.16163	0.58689	-0.125
Mof_C 	C 	0.56855	0.18298	0.59778	0.07
Mof_H 	H 	0.561	0.1905	0.6124	0.042
Mof_C 	C 	0.59057	0.19348	0.5872	-0.123
Mof_C 	C 	0.60219	0.18209	0.56637	0.071
Mof_H 	H 	0.6174	0.1891	0.5596	0.041
Mof_C 	C 	0.5917	0.16066	0.55543	-0.124
Mof_C 	C 	0.56919	0.15028	0.56555	0.068
Mof_H 	H 	0.5617	0.1357	0.558	0.042
Mof_C 	C 	0.60312	0.21555	0.60023	0.375
Mof_C 	C 	0.605	0.14731	0.53408	0.383
Mof_C 	C 	0.64933	0.21616	0.64812	0.394
Mof_C 	C 	0.66217	0.19446	0.66114	-0.128
Mof_C 	C 	0.65094	0.18387	0.68314	0.072
Mof_H 	H 	0.6363	0.1916	0.6903	0.041
Mof_Cu	Cu	0.6428	0.7503	0.10759	0.906
Mof_O 	O 	0.5263	0.62976	0.08885	-0.41
Mof_O 	O 	0.52655	0.66002	0.11847	-0.414
Mof_O 	O 	0.59383	0.72245	0.12112	-0.409
Mof_O 	O 	0.62206	0.7255	0.0895	-0.406
Mof_O 	O 	0.62499	0.65698	0.02603	-0.413
Mof_O 	O 	0.59464	0.62726	0.02602	-0.413
Mof_O 	O 	0.65841	0.72227	0.12709	-0.412
Mof_O 	O 	0.63051	0.72531	0.15889	-0.422
Mof_C 	C 	0.53507	0.64958	0.099	0.383
Mof_C 	C 	0.5579	0.66163	0.08689	-0.125
Mof_C 	C 	0.56855	0.68298	0.09778	0.07
Mof_H 	H 	0.561	0.6905	0.1124	0.042
Mof_C 	C 	0.59057	0.69348	0.0872	-0.123
Mof_C 	C 	0.60219	0.68209	0.06637	0.071
Mof_H 	H 	0.6174	0.6891	0.0596	0.041
Mof_C 	C 	0.5917	0.66066	0.05543	-0.125
Mof_C 	C 	0.56919	0.65028	0.06555	0.068
Mof_H 	H 	0.5617	0.6357	0.058	0.042
Mof_C 	C 	0.60312	0.71555	0.10023	0.375
Mof_C 	C 	0.605	0.64731	0.03408	0.383
Mof_C 	C 	0.64933	0.71616	0.14812	0.394
Mof_C 	C 	0.66217	0.69446	0.16114	-0.128
Mof_C 	C 	0.65094	0.68387	0.18314	0.072
Mof_H 	H 	0.6363	0.6916	0.1903	0.041
Mof_Cu	Cu	0.1428	0.2503	0.10759	0.906
Mof_O 	O 	0.0263	0.12976	0.08885	-0.41
Mof_O 	O 	0.02655	0.16002	0.11847	-0.415
Mof_O 	O 	0.09383	0.22245	0.12112	-0.409
Mof_O 	O 	0.12206	0.2255	0.0895	-0.406
Mof_O 	O 	0.12499	0.15698	0.02603	-0.413
Mof_O 	O 	0.09464	0.12726	0.02602	-0.413
Mof_O 	O 	0.15841	0.22227	0.12709	-0.412
Mof_O 	O 	0.13051	0.22531	0.15889	-0.422
Mof_C 	C 	0.03507	0.14958	0.099	0.383
Mof_C 	C 	0.0579	0.16163	0.08689	-0.125
Mof_C 	C 	0.06855	0.18298	0.09778	0.071
Mof_H 	H 	0.061	0.1905	0.1124	0.042
Mof_C 	C 	0.09057	0.19348	0.0872	-0.123
Mof_C 	C 	0.10219	0.18209	0.06637	0.071
Mof_H 	H 	0.1174	0.1891	0.0596	0.041
Mof_C 	C 	0.0917	0.16066	0.05543	-0.125
Mof_C 	C 	0.06919	0.15028	0.06555	0.068
Mof_H 	H 	0.0617	0.1357	0.058	0.042
Mof_C 	C 	0.10312	0.21555	0.10023	0.375
Mof_C 	C 	0.105	0.14731	0.03408	0.384
Mof_C 	C 	0.14933	0.21616	0.14812	0.394
Mof_C 	C 	0.16217	0.19446	0.16114	-0.128
Mof_C 	C 	0.15094	0.18387	0.18314	0.072
Mof_H 	H 	0.1363	0.1916	0.1903	0.041
Mof_Cu	Cu	0.1428	0.7503	0.60759	0.906
Mof_O 	O 	0.0263	0.62976	0.58885	-0.41
Mof_O 	O 	0.02655	0.66002	0.61847	-0.415
Mof_O 	O 	0.09383	0.72245	0.62112	-0.409
Mof_O 	O 	0.12206	0.7255	0.5895	-0.406
Mof_O 	O 	0.12499	0.65698	0.52603	-0.412
Mof_O 	O 	0.09464	0.62726	0.52602	-0.412
Mof_O 	O 	0.15841	0.72227	0.62709	-0.412
Mof_O 	O 	0.13051	0.72531	0.65889	-0.422
Mof_C 	C 	0.03507	0.64958	0.599	0.383
Mof_C 	C 	0.0579	0.66163	0.58689	-0.125
Mof_C 	C 	0.06855	0.68298	0.59778	0.07
Mof_H 	H 	0.061	0.6905	0.6124	0.042
Mof_C 	C 	0.09057	0.69348	0.5872	-0.123
Mof_C 	C 	0.10219	0.68209	0.56637	0.071
Mof_H 	H 	0.1174	0.6891	0.5596	0.041
Mof_C 	C 	0.0917	0.66066	0.55543	-0.125
Mof_C 	C 	0.06919	0.65028	0.56555	0.068
Mof_H 	H 	0.0617	0.6357	0.558	0.042
Mof_C 	C 	0.10312	0.71555	0.60023	0.375
Mof_C 	C 	0.105	0.64731	0.53408	0.383
Mof_C 	C 	0.14933	0.71616	0.64812	0.394
Mof_C 	C 	0.16217	0.69446	0.66114	-0.128
Mof_C 	C 	0.15094	0.68387	0.68314	0.072
Mof_H 	H 	0.1363	0.6916	0.6903	0.041
Mof_Cu	Cu	0.3572	0.7497	0.60759	0.906
Mof_O 	O 	0.4737	0.87024	0.58885	-0.409
Mof_O 	O 	0.47345	0.83998	0.61847	-0.414
Mof_O 	O 	0.40617	0.77755	0.62112	-0.409
Mof_O 	O 	0.37794	0.7745	0.5895	-0.406
Mof_O 	O 	0.37501	0.84302	0.52603	-0.412
Mof_O 	O 	0.40536	0.87274	0.52602	-0.412
Mof_O 	O 	0.34159	0.77773	0.62709	-0.412
Mof_O 	O 	0.36949	0.77469	0.65889	-0.422
Mof_C 	C 	0.46493	0.85042	0.599	0.383
Mof_C 	C 	0.4421	0.83837	0.58689	-0.125
Mof_C 	C 	0.43145	0.81702	0.59778	0.07
Mof_H 	H 	0.439	0.8095	0.6124	0.042
Mof_C 	C 	0.40943	0.80652	0.5872	-0.123
Mof_C 	C 	0.39781	0.81791	0.56637	0.071
Mof_H 	H 	0.3826	0.8109	0.5596	0.041
Mof_C 	C 	0.4083	0.83934	0.55543	-0.124
Mof_C 	C 	0.43081	0.84972	0.56555	0.068
Mof_H 	H 	0.4383	0.8643	0.558	0.042
Mof_C 	C 	0.39688	0.78445	0.60023	0.375
Mof_C 	C 	0.395	0.85269	0.53408	0.383
Mof_C 	C 	0.35067	0.78384	0.64812	0.394
Mof_C 	C 	0.33783	0.80554	0.66114	-0.128
Mof_C 	C 	0.34906	0.81613	0.68314	0.072
Mof_H 	H 	0.3637	0.8084	0.6903	0.041
Mof_Cu	Cu	0.3572	0.2497	0.10759	0.906
Mof_O 	O 	0.4737	0.37024	0.08885	-0.41
Mof_O 	O 	0.47345	0.33998	0.11847	-0.414
Mof_O 	O 	0.40617	0.27755	0.12112	-0.409
Mof_O 	O 	0.37794	0.2745	0.0895	-0.406
Mof_O 	O 	0.37501	0.34302	0.02603	-0.413
Mof_O 	O 	0.40536	0.37274	0.02602	-0.413
Mof_O 	O 	0.34159	0.27773	0.12709	-0.412
Mof_O 	O 	0.36949	0.27469	0.15889	-0.422
Mof_C 	C 	0.46493	0.35042	0.099	0.383
Mof_C 	C 	0.4421	0.33837	0.08689	-0.125
Mof_C 	C 	0.43145	0.31702	0.09778	0.07
Mof_H 	H 	0.439	0.3095	0.1124	0.042
Mof_C 	C 	0.40943	0.30652	0.0872	-0.123
Mof_C 	C 	0.39781	0.31791	0.06637	0.071
Mof_H 	H 	0.3826	0.3109	0.0596	0.041
Mof_C 	C 	0.4083	0.33934	0.05543	-0.125
Mof_C 	C 	0.43081	0.34972	0.06555	0.068
Mof_H 	H 	0.4383	0.3643	0.058	0.042
Mof_C 	C 	0.39688	0.28445	0.10023	0.375
Mof_C 	C 	0.395	0.35269	0.03408	0.383
Mof_C 	C 	0.35067	0.28384	0.14812	0.394
Mof_C 	C 	0.33783	0.30554	0.16114	-0.128
Mof_C 	C 	0.34906	0.31613	0.18314	0.072
Mof_H 	H 	0.3637	0.3084	0.1903	0.041
Mof_Cu	Cu	0.8572	0.7497	0.10759	0.906
Mof_O 	O 	0.9737	0.87024	0.08885	-0.409
Mof_O 	O 	0.97345	0.83998	0.11847	-0.414
Mof_O 	O 	0.90617	0.77755	0.12112	-0.409
Mof_O 	O 	0.87794	0.7745	0.0895	-0.406
Mof_O 	O 	0.87501	0.84302	0.02603	-0.413
Mof_O 	O 	0.90536	0.87274	0.02602	-0.413
Mof_O 	O 	0.84159	0.77773	0.12709	-0.412
Mof_O 	O 	0.86949	0.77469	0.15889	-0.422
Mof_C 	C 	0.96493	0.85042	0.099	0.383
Mof_C 	C 	0.9421	0.83837	0.08689	-0.125
Mof_C 	C 	0.93145	0.81702	0.09778	0.07
Mof_H 	H 	0.939	0.8095	0.1124	0.042
Mof_C 	C 	0.90943	0.80652	0.0872	-0.123
Mof_C 	C 	0.89781	0.81791	0.06637	0.071
Mof_H 	H 	0.8826	0.8109	0.0596	0.041
Mof_C 	C 	0.9083	0.83934	0.05543	-0.124
Mof_C 	C 	0.93081	0.84972	0.06555	0.068
Mof_H 	H 	0.9383	0.8643	0.058	0.042
Mof_C 	C 	0.89688	0.78445	0.10023	0.375
Mof_C 	C 	0.895	0.85269	0.03408	0.383
Mof_C 	C 	0.85067	0.78384	0.14812	0.394
Mof_C 	C 	0.83783	0.80554	0.16114	-0.128
Mof_C 	C 	0.84906	0.81613	0.18314	0.072
Mof_H 	H 	0.8637	0.8084	0.1903	0.041
Mof_Cu	Cu	0.8572	0.2497	0.60759	0.906
Mof_O 	O 	0.9737	0.37024	0.58885	-0.409
Mof_O 	O 	0.97345	0.33998	0.61847	-0.414
Mof_O 	O 	0.90617	0.27755	0.62112	-0.409
Mof_O 	O 	0.87794	0.2745	0.5895	-0.406
Mof_O 	O 	0.87501	0.34302	0.52603	-0.412
Mof_O 	O 	0.90536	0.37274	0.52602	-0.412
Mof_O 	O 	0.84159	0.27773	0.62709	-0.412
Mof_O 	O 	0.86949	0.27469	0.65889	-0.422
Mof_C 	C 	0.96493	0.35042	0.599	0.383
Mof_C 	C 	0.9421	0.33837	0.58689	-0.124
Mof_C 	C 	0.93145	0.31702	0.59778	0.07
Mof_H 	H 	0.939	0.3095	0.6124	0.042
Mof_C 	C 	0.90943	0.30652	0.5872	-0.123
Mof_C 	C 	0.89781	0.31791	0.56637	0.071
Mof_H 	H 	0.8826	0.3109	0.5596	0.041
Mof_C 	C 	0.9083	0.33934	0.55543	-0.124
Mof_C 	C 	0.93081	0.34972	0.56555	0.068
Mof_H 	H 	0.9383	0.3643	0.558	0.042
Mof_C 	C 	0.89688	0.28445	0.60023	0.375
Mof_C 	C 	0.895	0.35269	0.53408	0.383
Mof_C 	C 	0.85067	0.28384	0.64812	0.394
Mof_C 	C 	0.83783	0.30554	0.66114	-0.128
Mof_C 	C 	0.84906	0.31613	0.68314	0.072
Mof_H 	H 	0.8637	0.3084	0.6903	0.041
Mof_Cu	Cu	0.7497	0.60759	0.3572	0.906
Mof_O 	O 	0.87024	0.58885	0.4737	-0.409
Mof_O 	O 	0.83998	0.61847	0.47345	-0.414
Mof_O 	O 	0.77755	0.62112	0.40617	-0.409
Mof_O 	O 	0.7745	0.5895	0.37794	-0.406
Mof_O 	O 	0.84302	0.52603	0.37501	-0.412
Mof_O 	O 	0.87274	0.52602	0.40536	-0.412
Mof_O 	O 	0.77773	0.62709	0.34159	-0.412
Mof_O 	O 	0.77469	0.65889	0.36949	-0.422
Mof_C 	C 	0.85042	0.599	0.46493	0.383
Mof_C 	C 	0.83837	0.58689	0.4421	-0.125
Mof_C 	C 	0.81702	0.59778	0.43145	0.07
Mof_H 	H 	0.8095	0.6124	0.439	0.042
Mof_C 	C 	0.80652	0.5872	0.40943	-0.123
Mof_C 	C 	0.81791	0.56637	0.39781	0.071
Mof_H 	H 	0.8109	0.5596	0.3826	0.041
Mof_C 	C 	0.83934	0.55543	0.4083	-0.124
Mof_C 	C 	0.84972	0.56555	0.43081	0.068
Mof_H 	H 	0.8643	0.558	0.4383	0.042
Mof_C 	C 	0.78445	0.60023	0.39688	0.375
Mof_C 	C 	0.85269	0.53408	0.395	0.383
Mof_C 	C 	0.78384	0.64812	0.35067	0.394
Mof_C 	C 	0.80554	0.66114	0.33783	-0.128
Mof_C 	C 	0.81613	0.68314	0.34906	0.072
Mof_H 	H 	0.8084	0.6903	0.3637	0.041
Mof_Cu	Cu	0.7497	0.10759	0.8572	0.906
Mof_O 	O 	0.87024	0.08885	0.9737	-0.409
Mof_O 	O 	0.83998	0.11847	0.97345	-0.414
Mof_O 	O 	0.77755	0.12112	0.90617	-0.409
Mof_O 	O 	0.7745	0.0895	0.87794	-0.406
Mof_O 	O 	0.84302	0.02603	0.87501	-0.413
Mof_O 	O 	0.87274	0.02602	0.90536	-0.413
Mof_O 	O 	0.77773	0.12709	0.84159	-0.412
Mof_O 	O 	0.77469	0.15889	0.86949	-0.422
Mof_C 	C 	0.85042	0.099	0.96493	0.383
Mof_C 	C 	0.83837	0.08689	0.9421	-0.125
Mof_C 	C 	0.81702	0.09778	0.93145	0.07
Mof_H 	H 	0.8095	0.1124	0.939	0.042
Mof_C 	C 	0.80652	0.0872	0.90943	-0.123
Mof_C 	C 	0.81791	0.06637	0.89781	0.071
Mof_H 	H 	0.8109	0.0596	0.8826	0.041
Mof_C 	C 	0.83934	0.05543	0.9083	-0.124
Mof_C 	C 	0.84972	0.06555	0.93081	0.068
Mof_H 	H 	0.8643	0.058	0.9383	0.042
Mof_C 	C 	0.78445	0.10023	0.89688	0.375
Mof_C 	C 	0.85269	0.03408	0.895	0.383
Mof_C 	C 	0.78384	0.14812	0.85067	0.394
Mof_C 	C 	0.80554	0.16114	0.83783	-0.128
Mof_C 	C 	0.81613	0.18314	0.84906	0.072
Mof_H 	H 	0.8084	0.1903	0.8637	0.041
Mof_Cu	Cu	0.2497	0.60759	0.8572	0.906
Mof_O 	O 	0.37024	0.58885	0.9737	-0.409
Mof_O 	O 	0.33998	0.61847	0.97345	-0.414
Mof_O 	O 	0.27755	0.62112	0.90617	-0.409
Mof_O 	O 	0.2745	0.5895	0.87794	-0.406
Mof_O 	O 	0.34302	0.52603	0.87501	-0.412
Mof_O 	O 	0.37274	0.52602	0.90536	-0.412
Mof_O 	O 	0.27773	0.62709	0.84159	-0.412
Mof_O 	O 	0.27469	0.65889	0.86949	-0.422
Mof_C 	C 	0.35042	0.599	0.96493	0.383
Mof_C 	C 	0.33837	0.58689	0.9421	-0.124
Mof_C 	C 	0.31702	0.59778	0.93145	0.07
Mof_H 	H 	0.3095	0.6124	0.939	0.042
Mof_C 	C 	0.30652	0.5872	0.90943	-0.123
Mof_C 	C 	0.31791	0.56637	0.89781	0.071
Mof_H 	H 	0.3109	0.5596	0.8826	0.041
Mof_C 	C 	0.33934	0.55543	0.9083	-0.124
Mof_C 	C 	0.34972	0.56555	0.93081	0.068
Mof_H 	H 	0.3643	0.558	0.9383	0.042
Mof_C 	C 	0.28445	0.60023	0.89688	0.375
Mof_C 	C 	0.35269	0.53408	0.895	0.383
Mof_C 	C 	0.28384	0.64812	0.85067	0.394
Mof_C 	C 	0.30554	0.66114	0.83783	-0.128
Mof_C 	C 	0.31613	0.68314	0.84906	0.072
Mof_H 	H 	0.3084	0.6903	0.8637	0.041
Mof_Cu	Cu	0.2497	0.10759	0.3572	0.906
Mof_O 	O 	0.37024	0.08885	0.4737	-0.41
Mof_O 	O 	0.33998	0.11847	0.47345	-0.414
Mof_O 	O 	0.27755	0.12112	0.40617	-0.409
Mof_O 	O 	0.2745	0.0895	0.37794	-0.406
Mof_O 	O 	0.34302	0.02603	0.37501	-0.413
Mof_O 	O 	0.37274	0.02602	0.40536	-0.413
Mof_O 	O 	0.27773	0.12709	0.34159	-0.412
Mof_O 	O 	0.27469	0.15889	0.36949	-0.422
Mof_C 	C 	0.35042	0.099	0.46493	0.383
Mof_C 	C 	0.33837	0.08689	0.4421	-0.125
Mof_C 	C 	0.31702	0.09778	0.43145	0.07
Mof_H 	H 	0.3095	0.1124	0.439	0.042
Mof_C 	C 	0.30652	0.0872	0.40943	-0.123
Mof_C 	C 	0.31791	0.06637	0.39781	0.071
Mof_H 	H 	0.3109	0.0596	0.3826	0.041
Mof_C 	C 	0.33934	0.05543	0.4083	-0.125
Mof_C 	C 	0.34972	0.06555	0.43081	0.068
Mof_H 	H 	0.3643	0.058	0.4383	0.042
Mof_C 	C 	0.28445	0.10023	0.39688	0.375
Mof_C 	C 	0.35269	0.03408	0.395	0.383
Mof_C 	C 	0.28384	0.14812	0.35067	0.394
Mof_C 	C 	0.30554	0.16114	0.33783	-0.128
Mof_C 	C 	0.31613	0.18314	0.34906	0.072
Mof_H 	H 	0.3084	0.1903	0.3637	0.041
Mof_Cu	Cu	0.2503	0.60759	0.6428	0.906
Mof_O 	O 	0.12976	0.58885	0.5263	-0.41
Mof_O 	O 	0.16002	0.61847	0.52655	-0.414
Mof_O 	O 	0.22245	0.62112	0.59383	-0.409
Mof_O 	O 	0.2255	0.5895	0.62206	-0.406
Mof_O 	O 	0.15698	0.52603	0.62499	-0.412
Mof_O 	O 	0.12726	0.52602	0.59464	-0.412
Mof_O 	O 	0.22227	0.62709	0.65841	-0.412
Mof_O 	O 	0.22531	0.65889	0.63051	-0.422
Mof_C 	C 	0.14958	0.599	0.53507	0.383
Mof_C 	C 	0.16163	0.58689	0.5579	-0.125
Mof_C 	C 	0.18298	0.59778	0.56855	0.07
Mof_H 	H 	0.1905	0.6124	0.561	0.042
Mof_C 	C 	0.19348	0.5872	0.59057	-0.123
Mof_C 	C 	0.18209	0.56637	0.60219	0.071
Mof_H 	H 	0.1891	0.5596	0.6174	0.041
Mof_C 	C 	0.16066	0.55543	0.5917	-0.124
Mof_C 	C 	0.15028	0.56555	0.56919	0.068
Mof_H 	H 	0.1357	0.558	0.5617	0.042
Mof_C 	C 	0.21555	0.60023	0.60312	0.375
Mof_C 	C 	0.14731	0.53408	0.605	0.383
Mof_C 	C 	0.21616	0.64812	0.64933	0.394
Mof_C 	C 	0.19446	0.66114	0.66217	-0.128
Mof_C 	C 	0.18387	0.68314	0.65094	0.072
Mof_H 	H 	0.1916	0.6903	0.6363	0.041
Mof_Cu	Cu	0.2503	0.10759	0.1428	0.906
Mof_O 	O 	0.12976	0.08885	0.0263	-0.41
Mof_O 	O 	0.16002	0.11847	0.02655	-0.415
Mof_O 	O 	0.22245	0.12112	0.09383	-0.409
Mof_O 	O 	0.2255	0.0895	0.12206	-0.406
Mof_O 	O 	0.15698	0.02603	0.12499	-0.413
Mof_O 	O 	0.12726	0.02602	0.09464	-0.413
Mof_O 	O 	0.22227	0.12709	0.15841	-0.412
Mof_O 	O 	0.22531	0.15889	0.13051	-0.422
Mof_C 	C 	0.14958	0.099	0.03507	0.383
Mof_C 	C 	0.16163	0.08689	0.0579	-0.125
Mof_C 	C 	0.18298	0.09778	0.06855	0.071
Mof_H 	H 	0.1905	0.1124	0.061	0.042
Mof_C 	C 	0.19348	0.0872	0.09057	-0.123
Mof_C 	C 	0.18209	0.06637	0.10219	0.071
Mof_H 	H 	0.1891	0.0596	0.1174	0.041
Mof_C 	C 	0.16066	0.05543	0.0917	-0.125
Mof_C 	C 	0.15028	0.06555	0.06919	0.068
Mof_H 	H 	0.1357	0.058	0.0617	0.042
Mof_C 	C 	0.21555	0.10023	0.10312	0.375
Mof_C 	C 	0.14731	0.03408	0.105	0.384
Mof_C 	C 	0.21616	0.14812	0.14933	0.394
Mof_C 	C 	0.19446	0.16114	0.16217	-0.128
Mof_C 	C 	0.18387	0.18314	0.15094	0.072
Mof_H 	H 	0.1916	0.1903	0.1363	0.041
Mof_Cu	Cu	0.7503	0.60759	0.1428	0.906
Mof_O 	O 	0.62976	0.58885	0.0263	-0.41
Mof_O 	O 	0.66002	0.61847	0.02655	-0.415
Mof_O 	O 	0.72245	0.62112	0.09383	-0.409
Mof_O 	O 	0.7255	0.5895	0.12206	-0.406
Mof_O 	O 	0.65698	0.52603	0.12499	-0.412
Mof_O 	O 	0.62726	0.52602	0.09464	-0.412
Mof_O 	O 	0.72227	0.62709	0.15841	-0.412
Mof_O 	O 	0.72531	0.65889	0.13051	-0.422
Mof_C 	C 	0.64958	0.599	0.03507	0.383
Mof_C 	C 	0.66163	0.58689	0.0579	-0.125
Mof_C 	C 	0.68298	0.59778	0.06855	0.07
Mof_H 	H 	0.6905	0.6124	0.061	0.042
Mof_C 	C 	0.69348	0.5872	0.09057	-0.123
Mof_C 	C 	0.68209	0.56637	0.10219	0.071
Mof_H 	H 	0.6891	0.5596	0.1174	0.041
Mof_C 	C 	0.66066	0.55543	0.0917	-0.125
Mof_C 	C 	0.65028	0.56555	0.06919	0.068
Mof_H 	H 	0.6357	0.558	0.0617	0.042
Mof_C 	C 	0.71555	0.60023	0.10312	0.375
Mof_C 	C 	0.64731	0.53408	0.105	0.383
Mof_C 	C 	0.71616	0.64812	0.14933	0.394
Mof_C 	C 	0.69446	0.66114	0.16217	-0.128
Mof_C 	C 	0.68387	0.68314	0.15094	0.072
Mof_H 	H 	0.6916	0.6903	0.1363	0.041
Mof_Cu	Cu	0.7503	0.10759	0.6428	0.906
Mof_O 	O 	0.62976	0.08885	0.5263	-0.41
Mof_O 	O 	0.66002	0.11847	0.52655	-0.414
Mof_O 	O 	0.72245	0.12112	0.59383	-0.409
Mof_O 	O 	0.7255	0.0895	0.62206	-0.406
Mof_O 	O 	0.65698	0.02603	0.62499	-0.413
Mof_O 	O 	0.62726	0.02602	0.59464	-0.413
Mof_O 	O 	0.72227	0.12709	0.65841	-0.412
Mof_O 	O 	0.72531	0.15889	0.63051	-0.422
Mof_C 	C 	0.64958	0.099	0.53507	0.383
Mof_C 	C 	0.66163	0.08689	0.5579	-0.125
Mof_C 	C 	0.68298	0.09778	0.56855	0.07
Mof_H 	H 	0.6905	0.1124	0.561	0.042
Mof_C 	C 	0.69348	0.0872	0.59057	-0.123
Mof_C 	C 	0.68209	0.06637	0.60219	0.071
Mof_H 	H 	0.6891	0.0596	0.6174	0.041
Mof_C 	C 	0.66066	0.05543	0.5917	-0.125
Mof_C 	C 	0.65028	0.06555	0.56919	0.068
Mof_H 	H 	0.6357	0.058	0.5617	0.042
Mof_C 	C 	0.71555	0.10023	0.60312	0.375
Mof_C 	C 	0.64731	0.03408	0.605	0.383
Mof_C 	C 	0.71616	0.14812	0.64933	0.394
Mof_C 	C 	0.69446	0.16114	0.66217	-0.128
Mof_C 	C 	0.68387	0.18314	0.65094	0.072
Mof_H 	H 	0.6916	0.1903	0.6363	0.041
Mof_Cu	Cu	0.2503	0.39241	0.3572	0.906
Mof_O 	O 	0.12976	0.41115	0.4737	-0.41
Mof_O 	O 	0.16002	0.38153	0.47345	-0.414
Mof_O 	O 	0.22245	0.37888	0.40617	-0.409
Mof_O 	O 	0.2255	0.4105	0.37794	-0.406
Mof_O 	O 	0.15698	0.47397	0.37501	-0.412
Mof_O 	O 	0.12726	0.47398	0.40536	-0.412
Mof_O 	O 	0.22227	0.37291	0.34159	-0.412
Mof_O 	O 	0.22531	0.34111	0.36949	-0.422
Mof_C 	C 	0.14958	0.401	0.46493	0.383
Mof_C 	C 	0.16163	0.41311	0.4421	-0.125
Mof_C 	C 	0.18298	0.40222	0.43145	0.07
Mof_H 	H 	0.1905	0.3876	0.439	0.042
Mof_C 	C 	0.19348	0.4128	0.40943	-0.123
Mof_C 	C 	0.18209	0.43363	0.39781	0.071
Mof_H 	H 	0.1891	0.4404	0.3826	0.041
Mof_C 	C 	0.16066	0.44457	0.4083	-0.124
Mof_C 	C 	0.15028	0.43445	0.43081	0.068
Mof_H 	H 	0.1357	0.442	0.4383	0.042
Mof_C 	C 	0.21555	0.39977	0.39688	0.375
Mof_C 	C 	0.14731	0.46592	0.395	0.383
Mof_C 	C 	0.21616	0.35188	0.35067	0.394
Mof_C 	C 	0.19446	0.33886	0.33783	-0.128
Mof_C 	C 	0.18387	0.31686	0.34906	0.072
Mof_H 	H 	0.1916	0.3097	0.3637	0.041
Mof_Cu	Cu	0.2503	0.89241	0.8572	0.906
Mof_O 	O 	0.12976	0.91115	0.9737	-0.409
Mof_O 	O 	0.16002	0.88153	0.97345	-0.414
Mof_O 	O 	0.22245	0.87888	0.90617	-0.409
Mof_O 	O 	0.2255	0.9105	0.87794	-0.406
Mof_O 	O 	0.15698	0.97397	0.87501	-0.412
Mof_O 	O 	0.12726	0.97398	0.90536	-0.412
Mof_O 	O 	0.22227	0.87291	0.84159	-0.412
Mof_O 	O 	0.22531	0.84111	0.86949	-0.422
Mof_C 	C 	0.14958	0.901	0.96493	0.383
Mof_C 	C 	0.16163	0.91311	0.9421	-0.124
Mof_C 	C 	0.18298	0.90222	0.93145	0.07
Mof_H 	H 	0.1905	0.8876	0.939	0.042
Mof_C 	C 	0.19348	0.9128	0.90943	-0.122
Mof_C 	C 	0.18209	0.93363	0.89781	0.071
Mof_H 	H 	0.1891	0.9404	0.8826	0.041
Mof_C 	C 	0.16066	0.94457	0.9083	-0.124
Mof_C 	C 	0.15028	0.93445	0.93081	0.068
Mof_H 	H 	0.1357	0.942	0.9383	0.042
Mof_C 	C 	0.21555	0.89977	0.89688	0.375
Mof_C 	C 	0.14731	0.96592	0.895	0.383
Mof_C 	C 	0.21616	0.85188	0.85067	0.394
Mof_C 	C 	0.19446	0.83886	0.83783	-0.128
Mof_C 	C 	0.18387	0.81686	0.84906	0.072
Mof_H 	H 	0.1916	0.8097	0.8637	0.041
Mof_Cu	Cu	0.7503	0.39241	0.8572	0.906
Mof_O 	O 	0.62976	0.41115	0.9737	-0.409
Mof_O 	O 	0.66002	0.38153	0.97345	-0.414
Mof_O 	O 	0.72245	0.37888	0.90617	-0.409
Mof_O 	O 	0.7255	0.4105	0.87794	-0.406
Mof_O 	O 	0.65698	0.47397	0.87501	-0.412
Mof_O 	O 	0.62726	0.47398	0.90536	-0.412
Mof_O 	O 	0.72227	0.37291	0.84159	-0.412
Mof_O 	O 	0.72531	0.34111	0.86949	-0.422
Mof_C 	C 	0.64958	0.401	0.96493	0.383
Mof_C 	C 	0.66163	0.41311	0.9421	-0.124
Mof_C 	C 	0.68298	0.40222	0.93145	0.07
Mof_H 	H 	0.6905	0.3876	0.939	0.042
Mof_C 	C 	0.69348	0.4128	0.90943	-0.123
Mof_C 	C 	0.68209	0.43363	0.89781	0.071
Mof_H 	H 	0.6891	0.4404	0.8826	0.041
Mof_C 	C 	0.66066	0.44457	0.9083	-0.124
Mof_C 	C 	0.65028	0.43445	0.93081	0.068
Mof_H 	H 	0.6357	0.442	0.9383	0.042
Mof_C 	C 	0.71555	0.39977	0.89688	0.375
Mof_C 	C 	0.64731	0.46592	0.895	0.383
Mof_C 	C 	0.71616	0.35188	0.85067	0.394
Mof_C 	C 	0.69446	0.33886	0.83783	-0.128
Mof_C 	C 	0.68387	0.31686	0.84906	0.072
Mof_H 	H 	0.6916	0.3097	0.8637	0.041
Mof_Cu	Cu	0.7503	0.89241	0.3572	0.906
Mof_O 	O 	0.62976	0.91115	0.4737	-0.409
Mof_O 	O 	0.66002	0.88153	0.47345	-0.414
Mof_O 	O 	0.72245	0.87888	0.40617	-0.409
Mof_O 	O 	0.7255	0.9105	0.37794	-0.406
Mof_O 	O 	0.65698	0.97397	0.37501	-0.412
Mof_O 	O 	0.62726	0.97398	0.40536	-0.412
Mof_O 	O 	0.72227	0.87291	0.34159	-0.412
Mof_O 	O 	0.72531	0.84111	0.36949	-0.422
Mof_C 	C 	0.64958	0.901	0.46493	0.383
Mof_C 	C 	0.66163	0.91311	0.4421	-0.125
Mof_C 	C 	0.68298	0.90222	0.43145	0.07
Mof_H 	H 	0.6905	0.8876	0.439	0.042
Mof_C 	C 	0.69348	0.9128	0.40943	-0.123
Mof_C 	C 	0.68209	0.93363	0.39781	0.071
Mof_H 	H 	0.6891	0.9404	0.3826	0.041
Mof_C 	C 	0.66066	0.94457	0.4083	-0.124
Mof_C 	C 	0.65028	0.93445	0.43081	0.068
Mof_H 	H 	0.6357	0.942	0.4383	0.042
Mof_C 	C 	0.71555	0.89977	0.39688	0.375
Mof_C 	C 	0.64731	0.96592	0.395	0.383
Mof_C 	C 	0.71616	0.85188	0.35067	0.394
Mof_C 	C 	0.69446	0.83886	0.33783	-0.128
Mof_C 	C 	0.68387	0.81686	0.34906	0.072
Mof_H 	H 	0.6916	0.8097	0.3637	0.041
Mof_Cu	Cu	0.7497	0.39241	0.6428	0.906
Mof_O 	O 	0.87024	0.41115	0.5263	-0.409
Mof_O 	O 	0.83998	0.38153	0.52655	-0.414
Mof_O 	O 	0.77755	0.37888	0.59383	-0.409
Mof_O 	O 	0.7745	0.4105	0.62206	-0.406
Mof_O 	O 	0.84302	0.47397	0.62499	-0.412
Mof_O 	O 	0.87274	0.47398	0.59464	-0.412
Mof_O 	O 	0.77773	0.37291	0.65841	-0.412
Mof_O 	O 	0.77469	0.34111	0.63051	-0.422
Mof_C 	C 	0.85042	0.401	0.53507	0.383
Mof_C 	C 	0.83837	0.41311	0.5579	-0.125
Mof_C 	C 	0.81702	0.40222	0.56855	0.07
Mof_H 	H 	0.8095	0.3876	0.561	0.042
Mof_C 	C 	0.80652	0.4128	0.59057	-0.123
Mof_C 	C 	0.81791	0.43363	0.60219	0.071
Mof_H 	H 	0.8109	0.4404	0.6174	0.041
Mof_C 	C 	0.83934	0.44457	0.5917	-0.124
Mof_C 	C 	0.84972	0.43445	0.56919	0.068
Mof_H 	H 	0.8643	0.442	0.5617	0.042
Mof_C 	C 	0.78445	0.39977	0.60312	0.375
Mof_C 	C 	0.85269	0.46592	0.605	0.383
Mof_C 	C 	0.78384	0.35188	0.64933	0.394
Mof_C 	C 	0.80554	0.33886	0.66217	-0.128
Mof_C 	C 	0.81613	0.31686	0.65094	0.072
Mof_H 	H 	0.8084	0.3097	0.6363	0.041
Mof_Cu	Cu	0.7497	0.89241	0.1428	0.906
Mof_O 	O 	0.87024	0.91115	0.0263	-0.41
Mof_O 	O 	0.83998	0.88153	0.02655	-0.415
Mof_O 	O 	0.77755	0.87888	0.09383	-0.409
Mof_O 	O 	0.7745	0.9105	0.12206	-0.406
Mof_O 	O 	0.84302	0.97397	0.12499	-0.412
Mof_O 	O 	0.87274	0.97398	0.09464	-0.412
Mof_O 	O 	0.77773	0.87291	0.15841	-0.412
Mof_O 	O 	0.77469	0.84111	0.13051	-0.422
Mof_C 	C 	0.85042	0.901	0.03507	0.383
Mof_C 	C 	0.83837	0.91311	0.0579	-0.125
Mof_C 	C 	0.81702	0.90222	0.06855	0.07
Mof_H 	H 	0.8095	0.8876	0.061	0.042
Mof_C 	C 	0.80652	0.9128	0.09057	-0.123
Mof_C 	C 	0.81791	0.93363	0.10219	0.071
Mof_H 	H 	0.8109	0.9404	0.1174	0.041
Mof_C 	C 	0.83934	0.94457	0.0917	-0.124
Mof_C 	C 	0.84972	0.93445	0.06919	0.068
Mof_H 	H 	0.8643	0.942	0.0617	0.042
Mof_C 	C 	0.78445	0.89977	0.10312	0.375
Mof_C 	C 	0.85269	0.96592	0.105	0.383
Mof_C 	C 	0.78384	0.85188	0.14933	0.394
Mof_C 	C 	0.80554	0.83886	0.16217	-0.128
Mof_C 	C 	0.81613	0.81686	0.15094	0.072
Mof_H 	H 	0.8084	0.8097	0.1363	0.041
Mof_Cu	Cu	0.2497	0.39241	0.1428	0.906
Mof_O 	O 	0.37024	0.41115	0.0263	-0.41
Mof_O 	O 	0.33998	0.38153	0.02655	-0.415
Mof_O 	O 	0.27755	0.37888	0.09383	-0.409
Mof_O 	O 	0.2745	0.4105	0.12206	-0.406
Mof_O 	O 	0.34302	0.47397	0.12499	-0.412
Mof_O 	O 	0.37274	0.47398	0.09464	-0.412
Mof_O 	O 	0.27773	0.37291	0.15841	-0.412
Mof_O 	O 	0.27469	0.34111	0.13051	-0.422
Mof_C 	C 	0.35042	0.401	0.03507	0.383
Mof_C 	C 	0.33837	0.41311	0.0579	-0.125
Mof_C 	C 	0.31702	0.40222	0.06855	0.07
Mof_H 	H 	0.3095	0.3876	0.061	0.042
Mof_C 	C 	0.30652	0.4128	0.09057	-0.123
Mof_C 	C 	0.31791	0.43363	0.10219	0.071
Mof_H 	H 	0.3109	0.4404	0.1174	0.041
Mof_C 	C 	0.33934	0.44457	0.0917	-0.125
Mof_C 	C 	0.34972	0.43445	0.06919	0.068
Mof_H 	H 	0.3643	0.442	0.0617	0.042
Mof_C 	C 	0.28445	0.39977	0.10312	0.375
Mof_C 	C 	0.35269	0.46592	0.105	0.383
Mof_C 	C 	0.28384	0.35188	0.14933	0.394
Mof_C 	C 	0.30554	0.33886	0.16217	-0.128
Mof_C 	C 	0.31613	0.31686	0.15094	0.072
Mof_H 	H 	0.3084	0.3097	0.1363	0.041
Mof_Cu	Cu	0.2497	0.89241	0.6428	0.906
Mof_O 	O 	0.37024	0.91115	0.5263	-0.409
Mof_O 	O 	0.33998	0.88153	0.52655	-0.414
Mof_O 	O 	0.27755	0.87888	0.59383	-0.409
Mof_O 	O 	0.2745	0.9105	0.62206	-0.406
Mof_O 	O 	0.34302	0.97397	0.62499	-0.412
Mof_O 	O 	0.37274	0.97398	0.59464	-0.412
Mof_O 	O 	0.27773	0.87291	0.65841	-0.412
Mof_O 	O 	0.27469	0.84111	0.63051	-0.422
Mof_C 	C 	0.35042	0.901	0.53507	0.383
Mof_C 	C 	0.33837	0.91311	0.5579	-0.125
Mof_C 	C 	0.31702	0.90222	0.56855	0.07
Mof_H 	H 	0.3095	0.8876	0.561	0.042
Mof_C 	C 	0.30652	0.9128	0.59057	-0.123
Mof_C 	C 	0.31791	0.93363	0.60219	0.071
Mof_H 	H 	0.3109	0.9404	0.6174	0.041
Mof_C 	C 	0.33934	0.94457	0.5917	-0.124
Mof_C 	C 	0.34972	0.93445	0.56919	0.068
Mof_H 	H 	0.3643	0.942	0.5617	0.042
Mof_C 	C 	0.28445	0.89977	0.60312	0.375
Mof_C 	C 	0.35269	0.96592	0.605	0.383
Mof_C 	C 	0.28384	0.85188	0.64933	0.394
Mof_C 	C 	0.30554	0.83886	0.66217	-0.128
Mof_C 	C 	0.31613	0.81686	0.65094	0.072
Mof_H 	H 	0.3084	0.8097	0.6363	0.041
Mof_Cu	Cu	0.60759	0.6428	0.2503	0.906
Mof_O 	O 	0.58885	0.5263	0.12976	-0.41
Mof_O 	O 	0.61847	0.52655	0.16002	-0.414
Mof_O 	O 	0.62112	0.59383	0.22245	-0.409
Mof_O 	O 	0.5895	0.62206	0.2255	-0.406
Mof_O 	O 	0.52603	0.62499	0.15698	-0.412
Mof_O 	O 	0.52602	0.59464	0.12726	-0.412
Mof_O 	O 	0.62709	0.65841	0.22227	-0.412
Mof_O 	O 	0.65889	0.63051	0.22531	-0.422
Mof_C 	C 	0.599	0.53507	0.14958	0.383
Mof_C 	C 	0.58689	0.5579	0.16163	-0.125
Mof_C 	C 	0.59778	0.56855	0.18298	0.07
Mof_H 	H 	0.6124	0.561	0.1905	0.042
Mof_C 	C 	0.5872	0.59057	0.19348	-0.123
Mof_C 	C 	0.56637	0.60219	0.18209	0.071
Mof_H 	H 	0.5596	0.6174	0.1891	0.041
Mof_C 	C 	0.55543	0.5917	0.16066	-0.124
Mof_C 	C 	0.56555	0.56919	0.15028	0.068
Mof_H 	H 	0.558	0.5617	0.1357	0.042
Mof_C 	C 	0.60023	0.60312	0.21555	0.375
Mof_C 	C 	0.53408	0.605	0.14731	0.383
Mof_C 	C 	0.64812	0.64933	0.21616	0.394
Mof_C 	C 	0.66114	0.66217	0.19446	-0.128
Mof_C 	C 	0.68314	0.65094	0.18387	0.072
Mof_H 	H 	0.6903	0.6363	0.1916	0.041
Mof_Cu	Cu	0.60759	0.1428	0.7503	0.906
Mof_O 	O 	0.58885	0.0263	0.62976	-0.41
Mof_O 	O 	0.61847	0.02655	0.66002	-0.415
Mof_O 	O 	0.62112	0.09383	0.72245	-0.409
Mof_O 	O 	0.5895	0.12206	0.7255	-0.406
Mof_O 	O 	0.52603	0.12499	0.65698	-0.412
Mof_O 	O 	0.52602	0.09464	0.62726	-0.412
Mof_O 	O 	0.62709	0.15841	0.72227	-0.412
Mof_O 	O 	0.65889	0.13051	0.72531	-0.422
Mof_C 	C 	0.599	0.03507	0.64958	0.383
Mof_C 	C 	0.58689	0.0579	0.66163	-0.125
Mof_C 	C 	0.59778	0.06855	0.68298	0.07
Mof_H 	H 	0.6124	0.061	0.6905	0.042
Mof_C 	C 	0.5872	0.09057	0.69348	-0.123
Mof_C 	C 	0.56637	0.10219	0.68209	0.071
Mof_H 	H 	0.5596	0.1174	0.6891	0.041
Mof_C 	C 	0.55543	0.0917	0.66066	-0.125
Mof_C 	C 	0.56555	0.06919	0.65028	0.068
Mof_H 	H 	0.558	0.0617	0.6357	0.042
Mof_C 	C 	0.60023	0.10312	0.71555	0.375
Mof_C 	C 	0.53408	0.105	0.64731	0.383
Mof_C 	C 	0.64812	0.14933	0.71616	0.394
Mof_C 	C 	0.66114	0.16217	0.69446	-0.128
Mof_C 	C 	0.68314	0.15094	0.68387	0.072
Mof_H 	H 	0.6903	0.1363	0.6916	0.041
Mof_Cu	Cu	0.10759	0.6428	0.7503	0.906
Mof_O 	O 	0.08885	0.5263	0.62976	-0.41
Mof_O 	O 	0.11847	0.52655	0.66002	-0.414
Mof_O 	O 	0.12112	0.59383	0.72245	-0.409
Mof_O 	O 	0.0895	0.62206	0.7255	-0.406
Mof_O 	O 	0.02603	0.62499	0.65698	-0.413
Mof_O 	O 	0.02602	0.59464	0.62726	-0.413
Mof_O 	O 	0.12709	0.65841	0.72227	-0.412
Mof_O 	O 	0.15889	0.63051	0.72531	-0.422
Mof_C 	C 	0.099	0.53507	0.64958	0.383
Mof_C 	C 	0.08689	0.5579	0.66163	-0.125
Mof_C 	C 	0.09778	0.56855	0.68298	0.07
Mof_H 	H 	0.1124	0.561	0.6905	0.042
Mof_C 	C 	0.0872	0.59057	0.69348	-0.123
Mof_C 	C 	0.06637	0.60219	0.68209	0.071
Mof_H 	H 	0.0596	0.6174	0.6891	0.041
Mof_C 	C 	0.05543	0.5917	0.66066	-0.125
Mof_C 	C 	0.06555	0.56919	0.65028	0.068
Mof_H 	H 	0.058	0.5617	0.6357	0.042
Mof_C 	C 	0.10023	0.60312	0.71555	0.375
Mof_C 	C 	0.03408	0.605	0.64731	0.383
Mof_C 	C 	0.14812	0.64933	0.71616	0.394
Mof_C 	C 	0.16114	0.66217	0.69446	-0.128
Mof_C 	C 	0.18314	0.65094	0.68387	0.072
Mof_H 	H 	0.1903	0.6363	0.6916	0.041
Mof_Cu	Cu	0.10759	0.1428	0.2503	0.906
Mof_O 	O 	0.08885	0.0263	0.12976	-0.41
Mof_O 	O 	0.11847	0.02655	0.16002	-0.415
Mof_O 	O 	0.12112	0.09383	0.22245	-0.409
Mof_O 	O 	0.0895	0.12206	0.2255	-0.406
Mof_O 	O 	0.02603	0.12499	0.15698	-0.413
Mof_O 	O 	0.02602	0.09464	0.12726	-0.413
Mof_O 	O 	0.12709	0.15841	0.22227	-0.412
Mof_O 	O 	0.15889	0.13051	0.22531	-0.422
Mof_C 	C 	0.099	0.03507	0.14958	0.383
Mof_C 	C 	0.08689	0.0579	0.16163	-0.125
Mof_C 	C 	0.09778	0.06855	0.18298	0.071
Mof_H 	H 	0.1124	0.061	0.1905	0.042
Mof_C 	C 	0.0872	0.09057	0.19348	-0.123
Mof_C 	C 	0.06637	0.10219	0.18209	0.071
Mof_H 	H 	0.0596	0.1174	0.1891	0.041
Mof_C 	C 	0.05543	0.0917	0.16066	-0.125
Mof_C 	C 	0.06555	0.06919	0.15028	0.068
Mof_H 	H 	0.058	0.0617	0.1357	0.042
Mof_C 	C 	0.10023	0.10312	0.21555	0.375
Mof_C 	C 	0.03408	0.105	0.14731	0.384
Mof_C 	C 	0.14812	0.14933	0.21616	0.394
Mof_C 	C 	0.16114	0.16217	0.19446	-0.128
Mof_C 	C 	0.18314	0.15094	0.18387	0.072
Mof_H 	H 	0.1903	0.1363	0.1916	0.041
Mof_Cu	Cu	0.60759	0.3572	0.7497	0.906
Mof_O 	O 	0.58885	0.4737	0.87024	-0.409
Mof_O 	O 	0.61847	0.47345	0.83998	-0.414
Mof_O 	O 	0.62112	0.40617	0.77755	-0.409
Mof_O 	O 	0.5895	0.37794	0.7745	-0.406
Mof_O 	O 	0.52603	0.37501	0.84302	-0.412
Mof_O 	O 	0.52602	0.40536	0.87274	-0.412
Mof_O 	O 	0.62709	0.34159	0.77773	-0.412
Mof_O 	O 	0.65889	0.36949	0.77469	-0.422
Mof_C 	C 	0.599	0.46493	0.85042	0.383
Mof_C 	C 	0.58689	0.4421	0.83837	-0.125
Mof_C 	C 	0.59778	0.43145	0.81702	0.07
Mof_H 	H 	0.6124	0.439	0.8095	0.042
Mof_C 	C 	0.5872	0.40943	0.80652	-0.123
Mof_C 	C 	0.56637	0.39781	0.81791	0.071
Mof_H 	H 	0.5596	0.3826	0.8109	0.041
Mof_C 	C 	0.55543	0.4083	0.83934	-0.124
Mof_C 	C 	0.56555	0.43081	0.84972	0.068
Mof_H 	H 	0.558	0.4383	0.8643	0.042
Mof_C 	C 	0.60023	0.39688	0.78445	0.375
Mof_C 	C 	0.53408	0.395	0.85269	0.383
Mof_C 	C 	0.64812	0.35067	0.78384	0.394
Mof_C 	C 	0.66114	0.33783	0.80554	-0.128
Mof_C 	C 	0.68314	0.34906	0.81613	0.072
Mof_H 	H 	0.6903	0.3637	0.8084	0.041
Mof_Cu	Cu	0.60759	0.8572	0.2497	0.906
Mof_O 	O 	0.58885	0.9737	0.37024	-0.409
Mof_O 	O 	0.61847	0.97345	0.33998	-0.414
Mof_O 	O 	0.62112	0.90617	0.27755	-0.409
Mof_O 	O 	0.5895	0.87794	0.2745	-0.406
Mof_O 	O 	0.52603	0.87501	0.34302	-0.412
Mof_O 	O 	0.52602	0.90536	0.37274	-0.412
Mof_O 	O 	0.62709	0.84159	0.27773	-0.412
Mof_O 	O 	0.65889	0.86949	0.27469	-0.422
Mof_C 	C 	0.599	0.96493	0.35042	0.383
Mof_C 	C 	0.58689	0.9421	0.33837	-0.124
Mof_C 	C 	0.59778	0.93145	0.31702	0.07
Mof_H 	H 	0.6124	0.939	0.3095	0.042
Mof_C 	C 	0.5872	0.90943	0.30652	-0.123
Mof_C 	C 	0.56637	0.89781	0.31791	0.071
Mof_H 	H 	0.5596	0.8826	0.3109	0.041
Mof_C 	C 	0.55543	0.9083	0.33934	-0.124
Mof_C 	C 	0.56555	0.93081	0.34972	0.068
Mof_H 	H 	0.558	0.9383	0.3643	0.042
Mof_C 	C 	0.60023	0.89688	0.28445	0.375
Mof_C 	C 	0.53408	0.895	0.35269	0.383
Mof_C 	C 	0.64812	0.85067	0.28384	0.394
Mof_C 	C 	0.66114	0.83783	0.30554	-0.128
Mof_C 	C 	0.68314	0.84906	0.31613	0.072
Mof_H 	H 	0.6903	0.8637	0.3084	0.041
Mof_Cu	Cu	0.10759	0.3572	0.2497	0.906
Mof_O 	O 	0.08885	0.4737	0.37024	-0.41
Mof_O 	O 	0.11847	0.47345	0.33998	-0.414
Mof_O 	O 	0.12112	0.40617	0.27755	-0.409
Mof_O 	O 	0.0895	0.37794	0.2745	-0.406
Mof_O 	O 	0.02603	0.37501	0.34302	-0.413
Mof_O 	O 	0.02602	0.40536	0.37274	-0.413
Mof_O 	O 	0.12709	0.34159	0.27773	-0.412
Mof_O 	O 	0.15889	0.36949	0.27469	-0.422
Mof_C 	C 	0.099	0.46493	0.35042	0.383
Mof_C 	C 	0.08689	0.4421	0.33837	-0.125
Mof_C 	C 	0.09778	0.43145	0.31702	0.07
Mof_H 	H 	0.1124	0.439	0.3095	0.042
Mof_C 	C 	0.0872	0.40943	0.30652	-0.123
Mof_C 	C 	0.06637	0.39781	0.31791	0.071
Mof_H 	H 	0.0596	0.3826	0.3109	0.041
Mof_C 	C 	0.05543	0.4083	0.33934	-0.125
Mof_C 	C 	0.06555	0.43081	0.34972	0.068
Mof_H 	H 	0.058	0.4383	0.3643	0.042
Mof_C 	C 	0.10023	0.39688	0.28445	0.375
Mof_C 	C 	0.03408	0.395	0.35269	0.383
Mof_C 	C 	0.14812	0.35067	0.28384	0.394
Mof_C 	C 	0.16114	0.33783	0.30554	-0.128
Mof_C 	C 	0.18314	0.34906	0.31613	0.072
Mof_H 	H 	0.1903	0.3637	0.3084	0.041
Mof_Cu	Cu	0.10759	0.8572	0.7497	0.906
Mof_O 	O 	0.08885	0.9737	0.87024	-0.409
Mof_O 	O 	0.11847	0.97345	0.83998	-0.414
Mof_O 	O 	0.12112	0.90617	0.77755	-0.409
Mof_O 	O 	0.0895	0.87794	0.7745	-0.406
Mof_O 	O 	0.02603	0.87501	0.84302	-0.413
Mof_O 	O 	0.02602	0.90536	0.87274	-0.413
Mof_O 	O 	0.12709	0.84159	0.77773	-0.412
Mof_O 	O 	0.15889	0.86949	0.77469	-0.422
Mof_C 	C 	0.099	0.96493	0.85042	0.383
Mof_C 	C 	0.08689	0.9421	0.83837	-0.125
Mof_C 	C 	0.09778	0.93145	0.81702	0.07
Mof_H 	H 	0.1124	0.939	0.8095	0.042
Mof_C 	C 	0.0872	0.90943	0.80652	-0.123
Mof_C 	C 	0.06637	0.89781	0.81791	0.071
Mof_H 	H 	0.0596	0.8826	0.8109	0.041
Mof_C 	C 	0.05543	0.9083	0.83934	-0.124
Mof_C 	C 	0.06555	0.93081	0.84972	0.068
Mof_H 	H 	0.058	0.9383	0.8643	0.042
Mof_C 	C 	0.10023	0.89688	0.78445	0.375
Mof_C 	C 	0.03408	0.895	0.85269	0.383
Mof_C 	C 	0.14812	0.85067	0.78384	0.394
Mof_C 	C 	0.16114	0.83783	0.80554	-0.128
Mof_C 	C 	0.18314	0.84906	0.81613	0.072
Mof_H 	H 	0.1903	0.8637	0.8084	0.041
Mof_Cu	Cu	0.39241	0.6428	0.7497	0.906
Mof_O 	O 	0.41115	0.5263	0.87024	-0.409
Mof_O 	O 	0.38153	0.52655	0.83998	-0.414
Mof_O 	O 	0.37888	0.59383	0.77755	-0.409
Mof_O 	O 	0.4105	0.62206	0.7745	-0.406
Mof_O 	O 	0.47397	0.62499	0.84302	-0.412
Mof_O 	O 	0.47398	0.59464	0.87274	-0.412
Mof_O 	O 	0.37291	0.65841	0.77773	-0.412
Mof_O 	O 	0.34111	0.63051	0.77469	-0.422
Mof_C 	C 	0.401	0.53507	0.85042	0.383
Mof_C 	C 	0.41311	0.5579	0.83837	-0.125
Mof_C 	C 	0.40222	0.56855	0.81702	0.07
Mof_H 	H 	0.3876	0.561	0.8095	0.042
Mof_C 	C 	0.4128	0.59057	0.80652	-0.123
Mof_C 	C 	0.43363	0.60219	0.81791	0.071
Mof_H 	H 	0.4404	0.6174	0.8109	0.041
Mof_C 	C 	0.44457	0.5917	0.83934	-0.124
Mof_C 	C 	0.43445	0.56919	0.84972	0.068
Mof_H 	H 	0.442	0.5617	0.8643	0.042
Mof_C 	C 	0.39977	0.60312	0.78445	0.375
Mof_C 	C 	0.46592	0.605	0.85269	0.383
Mof_C 	C 	0.35188	0.64933	0.78384	0.394
Mof_C 	C 	0.33886	0.66217	0.80554	-0.128
Mof_C 	C 	0.31686	0.65094	0.81613	0.072
Mof_H 	H 	0.3097	0.6363	0.8084	0.041
Mof_Cu	Cu	0.39241	0.1428	0.2497	0.906
Mof_O 	O 	0.41115	0.0263	0.37024	-0.41
Mof_O 	O 	0.38153	0.02655	0.33998	-0.415
Mof_O 	O 	0.37888	0.09383	0.27755	-0.409
Mof_O 	O 	0.4105	0.12206	0.2745	-0.406
Mof_O 	O 	0.47397	0.12499	0.34302	-0.412
Mof_O 	O 	0.47398	0.09464	0.37274	-0.412
Mof_O 	O 	0.37291	0.15841	0.27773	-0.412
Mof_O 	O 	0.34111	0.13051	0.27469	-0.422
Mof_C 	C 	0.401	0.03507	0.35042	0.383
Mof_C 	C 	0.41311	0.0579	0.33837	-0.125
Mof_C 	C 	0.40222	0.06855	0.31702	0.07
Mof_H 	H 	0.3876	0.061	0.3095	0.042
Mof_C 	C 	0.4128	0.09057	0.30652	-0.123
Mof_C 	C 	0.43363	0.10219	0.31791	0.071
Mof_H 	H 	0.4404	0.1174	0.3109	0.041
Mof_C 	C 	0.44457	0.0917	0.33934	-0.125
Mof_C 	C 	0.43445	0.06919	0.34972	0.068
Mof_H 	H 	0.442	0.0617	0.3643	0.042
Mof_C 	C 	0.39977	0.10312	0.28445	0.375
Mof_C 	C 	0.46592	0.105	0.35269	0.383
Mof_C 	C 	0.35188	0.14933	0.28384	0.394
Mof_C 	C 	0.33886	0.16217	0.30554	-0.128
Mof_C 	C 	0.31686	0.15094	0.31613	0.072
Mof_H 	H 	0.3097	0.1363	0.3084	0.041
Mof_Cu	Cu	0.89241	0.6428	0.2497	0.906
Mof_O 	O 	0.91115	0.5263	0.37024	-0.409
Mof_O 	O 	0.88153	0.52655	0.33998	-0.414
Mof_O 	O 	0.87888	0.59383	0.27755	-0.409
Mof_O 	O 	0.9105	0.62206	0.2745	-0.406
Mof_O 	O 	0.97397	0.62499	0.34302	-0.412
Mof_O 	O 	0.97398	0.59464	0.37274	-0.412
Mof_O 	O 	0.87291	0.65841	0.27773	-0.412
Mof_O 	O 	0.84111	0.63051	0.27469	-0.422
Mof_C 	C 	0.901	0.53507	0.35042	0.383
Mof_C 	C 	0.91311	0.5579	0.33837	-0.125
Mof_C 	C 	0.90222	0.56855	0.31702	0.07
Mof_H 	H 	0.8876	0.561	0.3095	0.042
Mof_C 	C 	0.9128	0.59057	0.30652	-0.123
Mof_C 	C 	0.93363	0.60219	0.31791	0.071
Mof_H 	H 	0.9404	0.6174	0.3109	0.041
Mof_C 	C 	0.94457	0.5917	0.33934	-0.124
Mof_C 	C 	0.93445	0.56919	0.34972	0.068
Mof_H 	H 	0.942	0.5617	0.3643	0.042
Mof_C 	C 	0.89977	0.60312	0.28445	0.375
Mof_C 	C 	0.96592	0.605	0.35269	0.383
Mof_C 	C 	0.85188	0.64933	0.28384	0.394
Mof_C 	C 	0.83886	0.66217	0.30554	-0.128
Mof_C 	C 	0.81686	0.65094	0.31613	0.072
Mof_H 	H 	0.8097	0.6363	0.3084	0.041
Mof_Cu	Cu	0.89241	0.1428	0.7497	0.906
Mof_O 	O 	0.91115	0.0263	0.87024	-0.41
Mof_O 	O 	0.88153	0.02655	0.83998	-0.415
Mof_O 	O 	0.87888	0.09383	0.77755	-0.409
Mof_O 	O 	0.9105	0.12206	0.7745	-0.406
Mof_O 	O 	0.97397	0.12499	0.84302	-0.412
Mof_O 	O 	0.97398	0.09464	0.87274	-0.412
Mof_O 	O 	0.87291	0.15841	0.77773	-0.412
Mof_O 	O 	0.84111	0.13051	0.77469	-0.422
Mof_C 	C 	0.901	0.03507	0.85042	0.383
Mof_C 	C 	0.91311	0.0579	0.83837	-0.125
Mof_C 	C 	0.90222	0.06855	0.81702	0.07
Mof_H 	H 	0.8876	0.061	0.8095	0.042
Mof_C 	C 	0.9128	0.09057	0.80652	-0.123
Mof_C 	C 	0.93363	0.10219	0.81791	0.071
Mof_H 	H 	0.9404	0.1174	0.8109	0.041
Mof_C 	C 	0.94457	0.0917	0.83934	-0.124
Mof_C 	C 	0.93445	0.06919	0.84972	0.068
Mof_H 	H 	0.942	0.0617	0.8643	0.042
Mof_C 	C 	0.89977	0.10312	0.78445	0.375
Mof_C 	C 	0.96592	0.105	0.85269	0.383
Mof_C 	C 	0.85188	0.14933	0.78384	0.394
Mof_C 	C 	0.83886	0.16217	0.80554	-0.128
Mof_C 	C 	0.81686	0.15094	0.81613	0.072
Mof_H 	H 	0.8097	0.1363	0.8084	0.041
Mof_Cu	Cu	0.39241	0.3572	0.2503	0.906
Mof_O 	O 	0.41115	0.4737	0.12976	-0.41
Mof_O 	O 	0.38153	0.47345	0.16002	-0.414
Mof_O 	O 	0.37888	0.40617	0.22245	-0.409
Mof_O 	O 	0.4105	0.37794	0.2255	-0.406
Mof_O 	O 	0.47397	0.37501	0.15698	-0.412
Mof_O 	O 	0.47398	0.40536	0.12726	-0.412
Mof_O 	O 	0.37291	0.34159	0.22227	-0.412
Mof_O 	O 	0.34111	0.36949	0.22531	-0.422
Mof_C 	C 	0.401	0.46493	0.14958	0.383
Mof_C 	C 	0.41311	0.4421	0.16163	-0.125
Mof_C 	C 	0.40222	0.43145	0.18298	0.07
Mof_H 	H 	0.3876	0.439	0.1905	0.042
Mof_C 	C 	0.4128	0.40943	0.19348	-0.123
Mof_C 	C 	0.43363	0.39781	0.18209	0.071
Mof_H 	H 	0.4404	0.3826	0.1891	0.041
Mof_C 	C 	0.44457	0.4083	0.16066	-0.124
Mof_C 	C 	0.43445	0.43081	0.15028	0.068
Mof_H 	H 	0.442	0.4383	0.1357	0.042
Mof_C 	C 	0.39977	0.39688	0.21555	0.375
Mof_C 	C 	0.46592	0.395	0.14731	0.383
Mof_C 	C 	0.35188	0.35067	0.21616	0.394
Mof_C 	C 	0.33886	0.33783	0.19446	-0.128
Mof_C 	C 	0.31686	0.34906	0.18387	0.072
Mof_H 	H 	0.3097	0.3637	0.1916	0.041
Mof_Cu	Cu	0.39241	0.8572	0.7503	0.906
Mof_O 	O 	0.41115	0.9737	0.62976	-0.409
Mof_O 	O 	0.38153	0.97345	0.66002	-0.414
Mof_O 	O 	0.37888	0.90617	0.72245	-0.409
Mof_O 	O 	0.4105	0.87794	0.7255	-0.406
Mof_O 	O 	0.47397	0.87501	0.65698	-0.412
Mof_O 	O 	0.47398	0.90536	0.62726	-0.412
Mof_O 	O 	0.37291	0.84159	0.72227	-0.412
Mof_O 	O 	0.34111	0.86949	0.72531	-0.422
Mof_C 	C 	0.401	0.96493	0.64958	0.383
Mof_C 	C 	0.41311	0.9421	0.66163	-0.124
Mof_C 	C 	0.40222	0.93145	0.68298	0.07
Mof_H 	H 	0.3876	0.939	0.6905	0.042
Mof_C 	C 	0.4128	0.90943	0.69348	-0.123
Mof_C 	C 	0.43363	0.89781	0.68209	0.071
Mof_H 	H 	0.4404	0.8826	0.6891	0.041
Mof_C 	C 	0.44457	0.9083	0.66066	-0.124
Mof_C 	C 	0.43445	0.93081	0.65028	0.068
Mof_H 	H 	0.442	0.9383	0.6357	0.042
Mof_C 	C 	0.39977	0.89688	0.71555	0.375
Mof_C 	C 	0.46592	0.895	0.64731	0.383
Mof_C 	C 	0.35188	0.85067	0.71616	0.394
Mof_C 	C 	0.33886	0.83783	0.69446	-0.128
Mof_C 	C 	0.31686	0.84906	0.68387	0.072
Mof_H 	H 	0.3097	0.8637	0.6916	0.041
Mof_Cu	Cu	0.89241	0.3572	0.7503	0.906
Mof_O 	O 	0.91115	0.4737	0.62976	-0.409
Mof_O 	O 	0.88153	0.47345	0.66002	-0.414
Mof_O 	O 	0.87888	0.40617	0.72245	-0.409
Mof_O 	O 	0.9105	0.37794	0.7255	-0.406
Mof_O 	O 	0.97397	0.37501	0.65698	-0.412
Mof_O 	O 	0.97398	0.40536	0.62726	-0.412
Mof_O 	O 	0.87291	0.34159	0.72227	-0.412
Mof_O 	O 	0.84111	0.36949	0.72531	-0.422
Mof_C 	C 	0.901	0.46493	0.64958	0.383
Mof_C 	C 	0.91311	0.4421	0.66163	-0.125
Mof_C 	C 	0.90222	0.43145	0.68298	0.07
Mof_H 	H 	0.8876	0.439	0.6905	0.042
Mof_C 	C 	0.9128	0.40943	0.69348	-0.123
Mof_C 	C 	0.93363	0.39781	0.68209	0.071
Mof_H 	H 	0.9404	0.3826	0.6891	0.041
Mof_C 	C 	0.94457	0.4083	0.66066	-0.124
Mof_C 	C 	0.93445	0.43081	0.65028	0.068
Mof_H 	H 	0.942	0.4383	0.6357	0.042
Mof_C 	C 	0.89977	0.39688	0.71555	0.375
Mof_C 	C 	0.96592	0.395	0.64731	0.383
Mof_C 	C 	0.85188	0.35067	0.71616	0.394
Mof_C 	C 	0.83886	0.33783	0.69446	-0.128
Mof_C 	C 	0.81686	0.34906	0.68387	0.072
Mof_H 	H 	0.8097	0.3637	0.6916	0.041
Mof_Cu	Cu	0.89241	0.8572	0.2503	0.906
Mof_O 	O 	0.91115	0.9737	0.12976	-0.409
Mof_O 	O 	0.88153	0.97345	0.16002	-0.414
Mof_O 	O 	0.87888	0.90617	0.22245	-0.409
Mof_O 	O 	0.9105	0.87794	0.2255	-0.406
Mof_O 	O 	0.97397	0.87501	0.15698	-0.412
Mof_O 	O 	0.97398	0.90536	0.12726	-0.412
Mof_O 	O 	0.87291	0.84159	0.22227	-0.412
Mof_O 	O 	0.84111	0.86949	0.22531	-0.422
Mof_C 	C 	0.901	0.96493	0.14958	0.383
Mof_C 	C 	0.91311	0.9421	0.16163	-0.124
Mof_C 	C 	0.90222	0.93145	0.18298	0.07
Mof_H 	H 	0.8876	0.939	0.1905	0.042
Mof_C 	C 	0.9128	0.90943	0.19348	-0.122
Mof_C 	C 	0.93363	0.89781	0.18209	0.071
Mof_H 	H 	0.9404	0.8826	0.1891	0.041
Mof_C 	C 	0.94457	0.9083	0.16066	-0.124
Mof_C 	C 	0.93445	0.93081	0.15028	0.068
Mof_H 	H 	0.942	0.9383	0.1357	0.042
Mof_C 	C 	0.89977	0.89688	0.21555	0.375
Mof_C 	C 	0.96592	0.895	0.14731	0.383
Mof_C 	C 	0.85188	0.85067	0.21616	0.394
Mof_C 	C 	0.83886	0.83783	0.19446	-0.128
Mof_C 	C 	0.81686	0.84906	0.18387	0.072
Mof_H 	H 	0.8097	0.8637	0.1916	0.041
Mof_Cu	Cu	0.7503	0.8572	0.89241	0.906
Mof_O 	O 	0.62976	0.9737	0.91115	-0.409
Mof_O 	O 	0.66002	0.97345	0.88153	-0.414
Mof_O 	O 	0.72245	0.90617	0.87888	-0.409
Mof_O 	O 	0.7255	0.87794	0.9105	-0.406
Mof_O 	O 	0.65698	0.87501	0.97397	-0.412
Mof_O 	O 	0.62726	0.90536	0.97398	-0.412
Mof_O 	O 	0.72227	0.84159	0.87291	-0.412
Mof_O 	O 	0.72531	0.86949	0.84111	-0.422
Mof_C 	C 	0.64958	0.96493	0.901	0.383
Mof_C 	C 	0.66163	0.9421	0.91311	-0.124
Mof_C 	C 	0.68298	0.93145	0.90222	0.07
Mof_H 	H 	0.6905	0.939	0.8876	0.042
Mof_C 	C 	0.69348	0.90943	0.9128	-0.122
Mof_C 	C 	0.68209	0.89781	0.93363	0.071
Mof_H 	H 	0.6891	0.8826	0.9404	0.041
Mof_C 	C 	0.66066	0.9083	0.94457	-0.124
Mof_C 	C 	0.65028	0.93081	0.93445	0.068
Mof_H 	H 	0.6357	0.9383	0.942	0.042
Mof_C 	C 	0.71555	0.89688	0.89977	0.375
Mof_C 	C 	0.64731	0.895	0.96592	0.383
Mof_C 	C 	0.71616	0.85067	0.85188	0.394
Mof_C 	C 	0.69446	0.83783	0.83886	-0.128
Mof_C 	C 	0.68387	0.84906	0.81686	0.072
Mof_H 	H 	0.6916	0.8637	0.8097	0.041
Mof_Cu	Cu	0.7503	0.3572	0.39241	0.906
Mof_O 	O 	0.62976	0.4737	0.41115	-0.41
Mof_O 	O 	0.66002	0.47345	0.38153	-0.414
Mof_O 	O 	0.72245	0.40617	0.37888	-0.409
Mof_O 	O 	0.7255	0.37794	0.4105	-0.406
Mof_O 	O 	0.65698	0.37501	0.47397	-0.412
Mof_O 	O 	0.62726	0.40536	0.47398	-0.412
Mof_O 	O 	0.72227	0.34159	0.37291	-0.412
Mof_O 	O 	0.72531	0.36949	0.34111	-0.422
Mof_C 	C 	0.64958	0.46493	0.401	0.383
Mof_C 	C 	0.66163	0.4421	0.41311	-0.125
Mof_C 	C 	0.68298	0.43145	0.40222	0.07
Mof_H 	H 	0.6905	0.439	0.3876	0.042
Mof_C 	C 	0.69348	0.40943	0.4128	-0.123
Mof_C 	C 	0.68209	0.39781	0.43363	0.071
Mof_H 	H 	0.6891	0.3826	0.4404	0.041
Mof_C 	C 	0.66066	0.4083	0.44457	-0.124
Mof_C 	C 	0.65028	0.43081	0.43445	0.068
Mof_H 	H 	0.6357	0.4383	0.442	0.042
Mof_C 	C 	0.71555	0.39688	0.39977	0.375
Mof_C 	C 	0.64731	0.395	0.46592	0.383
Mof_C 	C 	0.71616	0.35067	0.35188	0.394
Mof_C 	C 	0.69446	0.33783	0.33886	-0.128
Mof_C 	C 	0.68387	0.34906	0.31686	0.072
Mof_H 	H 	0.6916	0.3637	0.3097	0.041
Mof_Cu	Cu	0.2503	0.8572	0.39241	0.906
Mof_O 	O 	0.12976	0.9737	0.41115	-0.409
Mof_O 	O 	0.16002	0.97345	0.38153	-0.414
Mof_O 	O 	0.22245	0.90617	0.37888	-0.409
Mof_O 	O 	0.2255	0.87794	0.4105	-0.406
Mof_O 	O 	0.15698	0.87501	0.47397	-0.412
Mof_O 	O 	0.12726	0.90536	0.47398	-0.412
Mof_O 	O 	0.22227	0.84159	0.37291	-0.412
Mof_O 	O 	0.22531	0.86949	0.34111	-0.422
Mof_C 	C 	0.14958	0.96493	0.401	0.383
Mof_C 	C 	0.16163	0.9421	0.41311	-0.124
Mof_C 	C 	0.18298	0.93145	0.40222	0.07
Mof_H 	H 	0.1905	0.939	0.3876	0.042
Mof_C 	C 	0.19348	0.90943	0.4128	-0.123
Mof_C 	C 	0.18209	0.89781	0.43363	0.071
Mof_H 	H 	0.1891	0.8826	0.4404	0.041
Mof_C 	C 	0.16066	0.9083	0.44457	-0.124
Mof_C 	C 	0.15028	0.93081	0.43445	0.068
Mof_H 	H 	0.1357	0.9383	0.442	0.042
Mof_C 	C 	0.21555	0.89688	0.39977	0.375
Mof_C 	C 	0.14731	0.895	0.46592	0.383
Mof_C 	C 	0.21616	0.85067	0.35188	0.394
Mof_C 	C 	0.19446	0.83783	0.33886	-0.128
Mof_C 	C 	0.18387	0.84906	0.31686	0.072
Mof_H 	H 	0.1916	0.8637	0.3097	0.041
Mof_Cu	Cu	0.2503	0.3572	0.89241	0.906
Mof_O 	O 	0.12976	0.4737	0.91115	-0.409
Mof_O 	O 	0.16002	0.47345	0.88153	-0.414
Mof_O 	O 	0.22245	0.40617	0.87888	-0.409
Mof_O 	O 	0.2255	0.37794	0.9105	-0.406
Mof_O 	O 	0.15698	0.37501	0.97397	-0.412
Mof_O 	O 	0.12726	0.40536	0.97398	-0.412
Mof_O 	O 	0.22227	0.34159	0.87291	-0.412
Mof_O 	O 	0.22531	0.36949	0.84111	-0.422
Mof_C 	C 	0.14958	0.46493	0.901	0.383
Mof_C 	C 	0.16163	0.4421	0.91311	-0.125
Mof_C 	C 	0.18298	0.43145	0.90222	0.07
Mof_H 	H 	0.1905	0.439	0.8876	0.042
Mof_C 	C 	0.19348	0.40943	0.9128	-0.123
Mof_C 	C 	0.18209	0.39781	0.93363	0.071
Mof_H 	H 	0.1891	0.3826	0.9404	0.041
Mof_C 	C 	0.16066	0.4083	0.94457	-0.124
Mof_C 	C 	0.15028	0.43081	0.93445	0.068
Mof_H 	H 	0.1357	0.4383	0.942	0.042
Mof_C 	C 	0.21555	0.39688	0.89977	0.375
Mof_C 	C 	0.14731	0.395	0.96592	0.383
Mof_C 	C 	0.21616	0.35067	0.85188	0.394
Mof_C 	C 	0.19446	0.33783	0.83886	-0.128
Mof_C 	C 	0.18387	0.34906	0.81686	0.072
Mof_H 	H 	0.1916	0.3637	0.8097	0.041
Mof_Cu	Cu	0.2497	0.1428	0.89241	0.906
Mof_O 	O 	0.37024	0.0263	0.91115	-0.41
Mof_O 	O 	0.33998	0.02655	0.88153	-0.415
Mof_O 	O 	0.27755	0.09383	0.87888	-0.409
Mof_O 	O 	0.2745	0.12206	0.9105	-0.406
Mof_O 	O 	0.34302	0.12499	0.97397	-0.412
Mof_O 	O 	0.37274	0.09464	0.97398	-0.412
Mof_O 	O 	0.27773	0.15841	0.87291	-0.412
Mof_O 	O 	0.27469	0.13051	0.84111	-0.422
Mof_C 	C 	0.35042	0.03507	0.901	0.383
Mof_C 	C 	0.33837	0.0579	0.91311	-0.125
Mof_C 	C 	0.31702	0.06855	0.90222	0.07
Mof_H 	H 	0.3095	0.061	0.8876	0.042
Mof_C 	C 	0.30652	0.09057	0.9128	-0.123
Mof_C 	C 	0.31791	0.10219	0.93363	0.071
Mof_H 	H 	0.3109	0.1174	0.9404	0.041
Mof_C 	C 	0.33934	0.0917	0.94457	-0.124
Mof_C 	C 	0.34972	0.06919	0.93445	0.068
Mof_H 	H 	0.3643	0.0617	0.942	0.042
Mof_C 	C 	0.28445	0.10312	0.89977	0.375
Mof_C 	C 	0.35269	0.105	0.96592	0.383
Mof_C 	C 	0.28384	0.14933	0.85188	0.394
Mof_C 	C 	0.30554	0.16217	0.83886	-0.128
Mof_C 	C 	0.31613	0.15094	0.81686	0.072
Mof_H 	H 	0.3084	0.1363	0.8097	0.041
Mof_Cu	Cu	0.2497	0.6428	0.39241	0.906
Mof_O 	O 	0.37024	0.5263	0.41115	-0.41
Mof_O 	O 	0.33998	0.52655	0.38153	-0.414
Mof_O 	O 	0.27755	0.59383	0.37888	-0.409
Mof_O 	O 	0.2745	0.62206	0.4105	-0.406
Mof_O 	O 	0.34302	0.62499	0.47397	-0.412
Mof_O 	O 	0.37274	0.59464	0.47398	-0.412
Mof_O 	O 	0.27773	0.65841	0.37291	-0.412
Mof_O 	O 	0.27469	0.63051	0.34111	-0.422
Mof_C 	C 	0.35042	0.53507	0.401	0.383
Mof_C 	C 	0.33837	0.5579	0.41311	-0.125
Mof_C 	C 	0.31702	0.56855	0.40222	0.07
Mof_H 	H 	0.3095	0.561	0.3876	0.042
Mof_C 	C 	0.30652	0.59057	0.4128	-0.123
Mof_C 	C 	0.31791	0.60219	0.43363	0.071
Mof_H 	H 	0.3109	0.6174	0.4404	0.041
Mof_C 	C 	0.33934	0.5917	0.44457	-0.124
Mof_C 	C 	0.34972	0.56919	0.43445	0.068
Mof_H 	H 	0.3643	0.5617	0.442	0.042
Mof_C 	C 	0.28445	0.60312	0.39977	0.375
Mof_C 	C 	0.35269	0.605	0.46592	0.383
Mof_C 	C 	0.28384	0.64933	0.35188	0.394
Mof_C 	C 	0.30554	0.66217	0.33886	-0.128
Mof_C 	C 	0.31613	0.65094	0.31686	0.072
Mof_H 	H 	0.3084	0.6363	0.3097	0.041
Mof_Cu	Cu	0.7497	0.1428	0.39241	0.906
Mof_O 	O 	0.87024	0.0263	0.41115	-0.41
Mof_O 	O 	0.83998	0.02655	0.38153	-0.415
Mof_O 	O 	0.77755	0.09383	0.37888	-0.409
Mof_O 	O 	0.7745	0.12206	0.4105	-0.406
Mof_O 	O 	0.84302	0.12499	0.47397	-0.412
Mof_O 	O 	0.87274	0.09464	0.47398	-0.412
Mof_O 	O 	0.77773	0.15841	0.37291	-0.412
Mof_O 	O 	0.77469	0.13051	0.34111	-0.422
Mof_C 	C 	0.85042	0.03507	0.401	0.383
Mof_C 	C 	0.83837	0.0579	0.41311	-0.125
Mof_C 	C 	0.81702	0.06855	0.40222	0.07
Mof_H 	H 	0.8095	0.061	0.3876	0.042
Mof_C 	C 	0.80652	0.09057	0.4128	-0.123
Mof_C 	C 	0.81791	0.10219	0.43363	0.071
Mof_H 	H 	0.8109	0.1174	0.4404	0.041
Mof_C 	C 	0.83934	0.0917	0.44457	-0.125
Mof_C 	C 	0.84972	0.06919	0.43445	0.068
Mof_H 	H 	0.8643	0.0617	0.442	0.042
Mof_C 	C 	0.78445	0.10312	0.39977	0.375
Mof_C 	C 	0.85269	0.105	0.46592	0.383
Mof_C 	C 	0.78384	0.14933	0.35188	0.394
Mof_C 	C 	0.80554	0.16217	0.33886	-0.128
Mof_C 	C 	0.81613	0.15094	0.31686	0.072
Mof_H 	H 	0.8084	0.1363	0.3097	0.041
Mof_Cu	Cu	0.7497	0.6428	0.89241	0.906
Mof_O 	O 	0.87024	0.5263	0.91115	-0.409
Mof_O 	O 	0.83998	0.52655	0.88153	-0.414
Mof_O 	O 	0.77755	0.59383	0.87888	-0.409
Mof_O 	O 	0.7745	0.62206	0.9105	-0.406
Mof_O 	O 	0.84302	0.62499	0.97397	-0.412
Mof_O 	O 	0.87274	0.59464	0.97398	-0.412
Mof_O 	O 	0.77773	0.65841	0.87291	-0.412
Mof_O 	O 	0.77469	0.63051	0.84111	-0.422
Mof_C 	C 	0.85042	0.53507	0.901	0.383
Mof_C 	C 	0.83837	0.5579	0.91311	-0.125
Mof_C 	C 	0.81702	0.56855	0.90222	0.07
Mof_H 	H 	0.8095	0.561	0.8876	0.042
Mof_C 	C 	0.80652	0.59057	0.9128	-0.123
Mof_C 	C 	0.81791	0.60219	0.93363	0.071
Mof_H 	H 	0.8109	0.6174	0.9404	0.041
Mof_C 	C 	0.83934	0.5917	0.94457	-0.124
Mof_C 	C 	0.84972	0.56919	0.93445	0.068
Mof_H 	H 	0.8643	0.5617	0.942	0.042
Mof_C 	C 	0.78445	0.60312	0.89977	0.375
Mof_C 	C 	0.85269	0.605	0.96592	0.383
Mof_C 	C 	0.78384	0.64933	0.85188	0.394
Mof_C 	C 	0.80554	0.66217	0.83886	-0.128
Mof_C 	C 	0.81613	0.65094	0.81686	0.072
Mof_H 	H 	0.8084	0.6363	0.8097	0.041
Mof_Cu	Cu	0.2497	0.8572	0.10759	0.906
Mof_O 	O 	0.37024	0.9737	0.08885	-0.409
Mof_O 	O 	0.33998	0.97345	0.11847	-0.414
Mof_O 	O 	0.27755	0.90617	0.12112	-0.409
Mof_O 	O 	0.2745	0.87794	0.0895	-0.406
Mof_O 	O 	0.34302	0.87501	0.02603	-0.413
Mof_O 	O 	0.37274	0.90536	0.02602	-0.413
Mof_O 	O 	0.27773	0.84159	0.12709	-0.412
Mof_O 	O 	0.27469	0.86949	0.15889	-0.422
Mof_C 	C 	0.35042	0.96493	0.099	0.383
Mof_C 	C 	0.33837	0.9421	0.08689	-0.125
Mof_C 	C 	0.31702	0.93145	0.09778	0.07
Mof_H 	H 	0.3095	0.939	0.1124	0.042
Mof_C 	C 	0.30652	0.90943	0.0872	-0.123
Mof_C 	C 	0.31791	0.89781	0.06637	0.071
Mof_H 	H 	0.3109	0.8826	0.0596	0.041
Mof_C 	C 	0.33934	0.9083	0.05543	-0.124
Mof_C 	C 	0.34972	0.93081	0.06555	0.068
Mof_H 	H 	0.3643	0.9383	0.058	0.042
Mof_C 	C 	0.28445	0.89688	0.10023	0.375
Mof_C 	C 	0.35269	0.895	0.03408	0.383
Mof_C 	C 	0.28384	0.85067	0.14812	0.394
Mof_C 	C 	0.30554	0.83783	0.16114	-0.128
Mof_C 	C 	0.31613	0.84906	0.18314	0.072
Mof_H 	H 	0.3084	0.8637	0.1903	0.041
Mof_Cu	Cu	0.2497	0.3572	0.60759	0.906
Mof_O 	O 	0.37024	0.4737	0.58885	-0.41
Mof_O 	O 	0.33998	0.47345	0.61847	-0.414
Mof_O 	O 	0.27755	0.40617	0.62112	-0.409
Mof_O 	O 	0.2745	0.37794	0.5895	-0.406
Mof_O 	O 	0.34302	0.37501	0.52603	-0.412
Mof_O 	O 	0.37274	0.40536	0.52602	-0.412
Mof_O 	O 	0.27773	0.34159	0.62709	-0.412
Mof_O 	O 	0.27469	0.36949	0.65889	-0.422
Mof_C 	C 	0.35042	0.46493	0.599	0.383
Mof_C 	C 	0.33837	0.4421	0.58689	-0.125
Mof_C 	C 	0.31702	0.43145	0.59778	0.07
Mof_H 	H 	0.3095	0.439	0.6124	0.042
Mof_C 	C 	0.30652	0.40943	0.5872	-0.123
Mof_C 	C 	0.31791	0.39781	0.56637	0.071
Mof_H 	H 	0.3109	0.3826	0.5596	0.041
Mof_C 	C 	0.33934	0.4083	0.55543	-0.124
Mof_C 	C 	0.34972	0.43081	0.56555	0.068
Mof_H 	H 	0.3643	0.4383	0.558	0.042
Mof_C 	C 	0.28445	0.39688	0.60023	0.375
Mof_C 	C 	0.35269	0.395	0.53408	0.383
Mof_C 	C 	0.28384	0.35067	0.64812	0.394
Mof_C 	C 	0.30554	0.33783	0.66114	-0.128
Mof_C 	C 	0.31613	0.34906	0.68314	0.072
Mof_H 	H 	0.3084	0.3637	0.6903	0.041
Mof_Cu	Cu	0.7497	0.8572	0.60759	0.906
Mof_O 	O 	0.87024	0.9737	0.58885	-0.409
Mof_O 	O 	0.83998	0.97345	0.61847	-0.414
Mof_O 	O 	0.77755	0.90617	0.62112	-0.409
Mof_O 	O 	0.7745	0.87794	0.5895	-0.406
Mof_O 	O 	0.84302	0.87501	0.52603	-0.412
Mof_O 	O 	0.87274	0.90536	0.52602	-0.412
Mof_O 	O 	0.77773	0.84159	0.62709	-0.412
Mof_O 	O 	0.77469	0.86949	0.65889	-0.422
Mof_C 	C 	0.85042	0.96493	0.599	0.383
Mof_C 	C 	0.83837	0.9421	0.58689	-0.124
Mof_C 	C 	0.81702	0.93145	0.59778	0.07
Mof_H 	H 	0.8095	0.939	0.6124	0.042
Mof_C 	C 	0.80652	0.90943	0.5872	-0.123
Mof_C 	C 	0.81791	0.89781	0.56637	0.071
Mof_H 	H 	0.8109	0.8826	0.5596	0.041
Mof_C 	C 	0.83934	0.9083	0.55543	-0.124
Mof_C 	C 	0.84972	0.93081	0.56555	0.068
Mof_H 	H 	0.8643	0.9383	0.558	0.042
Mof_C 	C 	0.78445	0.89688	0.60023	0.375
Mof_C 	C 	0.85269	0.895	0.53408	0.383
Mof_C 	C 	0.78384	0.85067	0.64812	0.394
Mof_C 	C 	0.80554	0.83783	0.66114	-0.128
Mof_C 	C 	0.81613	0.84906	0.68314	0.072
Mof_H 	H 	0.8084	0.8637	0.6903	0.041
Mof_Cu	Cu	0.7497	0.3572	0.10759	0.906
Mof_O 	O 	0.87024	0.4737	0.08885	-0.41
Mof_O 	O 	0.83998	0.47345	0.11847	-0.414
Mof_O 	O 	0.77755	0.40617	0.12112	-0.409
Mof_O 	O 	0.7745	0.37794	0.0895	-0.406
Mof_O 	O 	0.84302	0.37501	0.02603	-0.413
Mof_O 	O 	0.87274	0.40536	0.02602	-0.413
Mof_O 	O 	0.77773	0.34159	0.12709	-0.412
Mof_O 	O 	0.77469	0.36949	0.15889	-0.422
Mof_C 	C 	0.85042	0.46493	0.099	0.383
Mof_C 	C 	0.83837	0.4421	0.08689	-0.125
Mof_C 	C 	0.81702	0.43145	0.09778	0.07
Mof_H 	H 	0.8095	0.439	0.1124	0.042
Mof_C 	C 	0.80652	0.40943	0.0872	-0.123
Mof_C 	C 	0.81791	0.39781	0.06637	0.071
Mof_H 	H 	0.8109	0.3826	0.0596	0.041
Mof_C 	C 	0.83934	0.4083	0.05543	-0.125
Mof_C 	C 	0.84972	0.43081	0.06555	0.068
Mof_H 	H 	0.8643	0.4383	0.058	0.042
Mof_C 	C 	0.78445	0.39688	0.10023	0.375
Mof_C 	C 	0.85269	0.395	0.03408	0.383
Mof_C 	C 	0.78384	0.35067	0.14812	0.394
Mof_C 	C 	0.80554	0.33783	0.16114	-0.128
Mof_C 	C 	0.81613	0.34906	0.18314	0.072
Mof_H 	H 	0.8084	0.3637	0.1903	0.041
Mof_Cu	Cu	0.7503	0.1428	0.10759	0.906
Mof_O 	O 	0.62976	0.0263	0.08885	-0.41
Mof_O 	O 	0.66002	0.02655	0.11847	-0.415
Mof_O 	O 	0.72245	0.09383	0.12112	-0.409
Mof_O 	O 	0.7255	0.12206	0.0895	-0.406
Mof_O 	O 	0.65698	0.12499	0.02603	-0.413
Mof_O 	O 	0.62726	0.09464	0.02602	-0.413
Mof_O 	O 	0.72227	0.15841	0.12709	-0.412
Mof_O 	O 	0.72531	0.13051	0.15889	-0.422
Mof_C 	C 	0.64958	0.03507	0.099	0.383
Mof_C 	C 	0.66163	0.0579	0.08689	-0.125
Mof_C 	C 	0.68298	0.06855	0.09778	0.07
Mof_H 	H 	0.6905	0.061	0.1124	0.041
Mof_C 	C 	0.69348	0.09057	0.0872	-0.123
Mof_C 	C 	0.68209	0.10219	0.06637	0.071
Mof_H 	H 	0.6891	0.1174	0.0596	0.041
Mof_C 	C 	0.66066	0.0917	0.05543	-0.125
Mof_C 	C 	0.65028	0.06919	0.06555	0.068
Mof_H 	H 	0.6357	0.0617	0.058	0.042
Mof_C 	C 	0.71555	0.10312	0.10023	0.375
Mof_C 	C 	0.64731	0.105	0.03408	0.384
Mof_C 	C 	0.71616	0.14933	0.14812	0.394
Mof_C 	C 	0.69446	0.16217	0.16114	-0.128
Mof_C 	C 	0.68387	0.15094	0.18314	0.072
Mof_H 	H 	0.6916	0.1363	0.1903	0.041
Mof_Cu	Cu	0.7503	0.6428	0.60759	0.906
Mof_O 	O 	0.62976	0.5263	0.58885	-0.41
Mof_O 	O 	0.66002	0.52655	0.61847	-0.414
Mof_O 	O 	0.72245	0.59383	0.62112	-0.409
Mof_O 	O 	0.7255	0.62206	0.5895	-0.406
Mof_O 	O 	0.65698	0.62499	0.52603	-0.412
Mof_O 	O 	0.62726	0.59464	0.52602	-0.412
Mof_O 	O 	0.72227	0.65841	0.62709	-0.412
Mof_O 	O 	0.72531	0.63051	0.65889	-0.422
Mof_C 	C 	0.64958	0.53507	0.599	0.383
Mof_C 	C 	0.66163	0.5579	0.58689	-0.125
Mof_C 	C 	0.68298	0.56855	0.59778	0.07
Mof_H 	H 	0.6905	0.561	0.6124	0.042
Mof_C 	C 	0.69348	0.59057	0.5872	-0.123
Mof_C 	C 	0.68209	0.60219	0.56637	0.071
Mof_H 	H 	0.6891	0.6174	0.5596	0.041
Mof_C 	C 	0.66066	0.5917	0.55543	-0.124
Mof_C 	C 	0.65028	0.56919	0.56555	0.068
Mof_H 	H 	0.6357	0.5617	0.558	0.042
Mof_C 	C 	0.71555	0.60312	0.60023	0.375
Mof_C 	C 	0.64731	0.605	0.53408	0.383
Mof_C 	C 	0.71616	0.64933	0.64812	0.394
Mof_C 	C 	0.69446	0.66217	0.66114	-0.128
Mof_C 	C 	0.68387	0.65094	0.68314	0.072
Mof_H 	H 	0.6916	0.6363	0.6903	0.041
Mof_Cu	Cu	0.2503	0.1428	0.60759	0.906
Mof_O 	O 	0.12976	0.0263	0.58885	-0.41
Mof_O 	O 	0.16002	0.02655	0.61847	-0.415
Mof_O 	O 	0.22245	0.09383	0.62112	-0.409
Mof_O 	O 	0.2255	0.12206	0.5895	-0.406
Mof_O 	O 	0.15698	0.12499	0.52603	-0.412
Mof_O 	O 	0.12726	0.09464	0.52602	-0.412
Mof_O 	O 	0.22227	0.15841	0.62709	-0.412
Mof_O 	O 	0.22531	0.13051	0.65889	-0.422
Mof_C 	C 	0.14958	0.03507	0.599	0.383
Mof_C 	C 	0.16163	0.0579	0.58689	-0.125
Mof_C 	C 	0.18298	0.06855	0.59778	0.07
Mof_H 	H 	0.1905	0.061	0.6124	0.042
Mof_C 	C 	0.19348	0.09057	0.5872	-0.123
Mof_C 	C 	0.18209	0.10219	0.56637	0.071
Mof_H 	H 	0.1891	0.1174	0.5596	0.041
Mof_C 	C 	0.16066	0.0917	0.55543	-0.125
Mof_C 	C 	0.15028	0.06919	0.56555	0.068
Mof_H 	H 	0.1357	0.0617	0.558	0.042
Mof_C 	C 	0.21555	0.10312	0.60023	0.375
Mof_C 	C 	0.14731	0.105	0.53408	0.383
Mof_C 	C 	0.21616	0.14933	0.64812	0.394
Mof_C 	C 	0.19446	0.16217	0.66114	-0.128
Mof_C 	C 	0.18387	0.15094	0.68314	0.072
Mof_H 	H 	0.1916	0.1363	0.6903	0.041
Mof_Cu	Cu	0.2503	0.6428	0.10759	0.906
Mof_O 	O 	0.12976	0.5263	0.08885	-0.41
Mof_O 	O 	0.16002	0.52655	0.11847	-0.414
Mof_O 	O 	0.22245	0.59383	0.12112	-0.409
Mof_O 	O 	0.2255	0.62206	0.0895	-0.406
Mof_O 	O 	0.15698	0.62499	0.02603	-0.413
Mof_O 	O 	0.12726	0.59464	0.02602	-0.413
Mof_O 	O 	0.22227	0.65841	0.12709	-0.412
Mof_O 	O 	0.22531	0.63051	0.15889	-0.422
Mof_C 	C 	0.14958	0.53507	0.099	0.383
Mof_C 	C 	0.16163	0.5579	0.08689	-0.125
Mof_C 	C 	0.18298	0.56855	0.09778	0.07
Mof_H 	H 	0.1905	0.561	0.1124	0.042
Mof_C 	C 	0.19348	0.59057	0.0872	-0.123
Mof_C 	C 	0.18209	0.60219	0.06637	0.071
Mof_H 	H 	0.1891	0.6174	0.0596	0.041
Mof_C 	C 	0.16066	0.5917	0.05543	-0.125
Mof_C 	C 	0.15028	0.56919	0.06555	0.068
Mof_H 	H 	0.1357	0.5617	0.058	0.042
Mof_C 	C 	0.21555	0.60312	0.10023	0.375
Mof_C 	C 	0.14731	0.605	0.03408	0.384
Mof_C 	C 	0.21616	0.64933	0.14812	0.394
Mof_C 	C 	0.19446	0.66217	0.16114	-0.128
Mof_C 	C 	0.18387	0.65094	0.18314	0.072
Mof_H 	H 	0.1916	0.6363	0.1903	0.041
Mof_Cu	Cu	0.89241	0.7503	0.8572	0.906
Mof_O 	O 	0.91115	0.62976	0.9737	-0.409
Mof_O 	O 	0.88153	0.66002	0.97345	-0.414
Mof_O 	O 	0.87888	0.72245	0.90617	-0.409
Mof_O 	O 	0.9105	0.7255	0.87794	-0.406
Mof_O 	O 	0.97397	0.65698	0.87501	-0.412
Mof_O 	O 	0.97398	0.62726	0.90536	-0.412
Mof_O 	O 	0.87291	0.72227	0.84159	-0.412
Mof_O 	O 	0.84111	0.72531	0.86949	-0.422
Mof_C 	C 	0.901	0.64958	0.96493	0.383
Mof_C 	C 	0.91311	0.66163	0.9421	-0.124
Mof_C 	C 	0.90222	0.68298	0.93145	0.07
Mof_H 	H 	0.8876	0.6905	0.939	0.042
Mof_C 	C 	0.9128	0.69348	0.90943	-0.122
Mof_C 	C 	0.93363	0.68209	0.89781	0.071
Mof_H 	H 	0.9404	0.6891	0.8826	0.041
Mof_C 	C 	0.94457	0.66066	0.9083	-0.124
Mof_C 	C 	0.93445	0.65028	0.93081	0.068
Mof_H 	H 	0.942	0.6357	0.9383	0.042
Mof_C 	C 	0.89977	0.71555	0.89688	0.375
Mof_C 	C 	0.96592	0.64731	0.895	0.383
Mof_C 	C 	0.85188	0.71616	0.85067	0.394
Mof_C 	C 	0.83886	0.69446	0.83783	-0.128
Mof_C 	C 	0.81686	0.68387	0.84906	0.072
Mof_H 	H 	0.8097	0.6916	0.8637	0.041
Mof_Cu	Cu	0.89241	0.2503	0.3572	0.906
Mof_O 	O 	0.91115	0.12976	0.4737	-0.409
Mof_O 	O 	0.88153	0.16002	0.47345	-0.414
Mof_O 	O 	0.87888	0.22245	0.40617	-0.409
Mof_O 	O 	0.9105	0.2255	0.37794	-0.406
Mof_O 	O 	0.97397	0.15698	0.37501	-0.412
Mof_O 	O 	0.97398	0.12726	0.40536	-0.412
Mof_O 	O 	0.87291	0.22227	0.34159	-0.412
Mof_O 	O 	0.84111	0.22531	0.36949	-0.422
Mof_C 	C 	0.901	0.14958	0.46493	0.383
Mof_C 	C 	0.91311	0.16163	0.4421	-0.125
Mof_C 	C 	0.90222	0.18298	0.43145	0.07
Mof_H 	H 	0.8876	0.1905	0.439	0.042
Mof_C 	C 	0.9128	0.19348	0.40943	-0.123
Mof_C 	C 	0.93363	0.18209	0.39781	0.071
Mof_H 	H 	0.9404	0.1891	0.3826	0.041
Mof_C 	C 	0.94457	0.16066	0.4083	-0.124
Mof_C 	C 	0.93445	0.15028	0.43081	0.068
Mof_H 	H 	0.942	0.1357	0.4383	0.042
Mof_C 	C 	0.89977	0.21555	0.39688	0.375
Mof_C 	C 	0.96592	0.14731	0.395	0.383
Mof_C 	C 	0.85188	0.21616	0.35067	0.394
Mof_C 	C 	0.83886	0.19446	0.33783	-0.128
Mof_C 	C 	0.81686	0.18387	0.34906	0.072
Mof_H 	H 	0.8097	0.1916	0.3637	0.041
Mof_Cu	Cu	0.39241	0.7503	0.3572	0.906
Mof_O 	O 	0.41115	0.62976	0.4737	-0.41
Mof_O 	O 	0.38153	0.66002	0.47345	-0.414
Mof_O 	O 	0.37888	0.72245	0.40617	-0.409
Mof_O 	O 	0.4105	0.7255	0.37794	-0.406
Mof_O 	O 	0.47397	0.65698	0.37501	-0.412
Mof_O 	O 	0.47398	0.62726	0.40536	-0.412
Mof_O 	O 	0.37291	0.72227	0.34159	-0.412
Mof_O 	O 	0.34111	0.72531	0.36949	-0.422
Mof_C 	C 	0.401	0.64958	0.46493	0.383
Mof_C 	C 	0.41311	0.66163	0.4421	-0.125
Mof_C 	C 	0.40222	0.68298	0.43145	0.07
Mof_H 	H 	0.3876	0.6905	0.439	0.042
Mof_C 	C 	0.4128	0.69348	0.40943	-0.123
Mof_C 	C 	0.43363	0.68209	0.39781	0.071
Mof_H 	H 	0.4404	0.6891	0.3826	0.041
Mof_C 	C 	0.44457	0.66066	0.4083	-0.124
Mof_C 	C 	0.43445	0.65028	0.43081	0.068
Mof_H 	H 	0.442	0.6357	0.4383	0.042
Mof_C 	C 	0.39977	0.71555	0.39688	0.375
Mof_C 	C 	0.46592	0.64731	0.395	0.383
Mof_C 	C 	0.35188	0.71616	0.35067	0.394
Mof_C 	C 	0.33886	0.69446	0.33783	-0.128
Mof_C 	C 	0.31686	0.68387	0.34906	0.072
Mof_H 	H 	0.3097	0.6916	0.3637	0.041
Mof_Cu	Cu	0.39241	0.2503	0.8572	0.906
Mof_O 	O 	0.41115	0.12976	0.9737	-0.409
Mof_O 	O 	0.38153	0.16002	0.97345	-0.414
Mof_O 	O 	0.37888	0.22245	0.90617	-0.409
Mof_O 	O 	0.4105	0.2255	0.87794	-0.406
Mof_O 	O 	0.47397	0.15698	0.87501	-0.412
Mof_O 	O 	0.47398	0.12726	0.90536	-0.412
Mof_O 	O 	0.37291	0.22227	0.84159	-0.412
Mof_O 	O 	0.34111	0.22531	0.86949	-0.422
Mof_C 	C 	0.401	0.14958	0.96493	0.383
Mof_C 	C 	0.41311	0.16163	0.9421	-0.124
Mof_C 	C 	0.40222	0.18298	0.93145	0.07
Mof_H 	H 	0.3876	0.1905	0.939	0.042
Mof_C 	C 	0.4128	0.19348	0.90943	-0.123
Mof_C 	C 	0.43363	0.18209	0.89781	0.071
Mof_H 	H 	0.4404	0.1891	0.8826	0.041
Mof_C 	C 	0.44457	0.16066	0.9083	-0.124
Mof_C 	C 	0.43445	0.15028	0.93081	0.068
Mof_H 	H 	0.442	0.1357	0.9383	0.042
Mof_C 	C 	0.39977	0.21555	0.89688	0.375
Mof_C 	C 	0.46592	0.14731	0.895	0.383
Mof_C 	C 	0.35188	0.21616	0.85067	0.394
Mof_C 	C 	0.33886	0.19446	0.83783	-0.128
Mof_C 	C 	0.31686	0.18387	0.84906	0.072
Mof_H 	H 	0.3097	0.1916	0.8637	0.041
Mof_Cu	Cu	0.89241	0.2497	0.1428	0.906
Mof_O 	O 	0.91115	0.37024	0.0263	-0.41
Mof_O 	O 	0.88153	0.33998	0.02655	-0.415
Mof_O 	O 	0.87888	0.27755	0.09383	-0.409
Mof_O 	O 	0.9105	0.2745	0.12206	-0.406
Mof_O 	O 	0.97397	0.34302	0.12499	-0.412
Mof_O 	O 	0.97398	0.37274	0.09464	-0.412
Mof_O 	O 	0.87291	0.27773	0.15841	-0.412
Mof_O 	O 	0.84111	0.27469	0.13051	-0.422
Mof_C 	C 	0.901	0.35042	0.03507	0.383
Mof_C 	C 	0.91311	0.33837	0.0579	-0.125
Mof_C 	C 	0.90222	0.31702	0.06855	0.07
Mof_H 	H 	0.8876	0.3095	0.061	0.042
Mof_C 	C 	0.9128	0.30652	0.09057	-0.123
Mof_C 	C 	0.93363	0.31791	0.10219	0.071
Mof_H 	H 	0.9404	0.3109	0.1174	0.041
Mof_C 	C 	0.94457	0.33934	0.0917	-0.124
Mof_C 	C 	0.93445	0.34972	0.06919	0.068
Mof_H 	H 	0.942	0.3643	0.0617	0.042
Mof_C 	C 	0.89977	0.28445	0.10312	0.375
Mof_C 	C 	0.96592	0.35269	0.105	0.383
Mof_C 	C 	0.85188	0.28384	0.14933	0.394
Mof_C 	C 	0.83886	0.30554	0.16217	-0.128
Mof_C 	C 	0.81686	0.31613	0.15094	0.072
Mof_H 	H 	0.8097	0.3084	0.1363	0.041
Mof_Cu	Cu	0.89241	0.7497	0.6428	0.906
Mof_O 	O 	0.91115	0.87024	0.5263	-0.409
Mof_O 	O 	0.88153	0.83998	0.52655	-0.414
Mof_O 	O 	0.87888	0.77755	0.59383	-0.409
Mof_O 	O 	0.9105	0.7745	0.62206	-0.406
Mof_O 	O 	0.97397	0.84302	0.62499	-0.412
Mof_O 	O 	0.97398	0.87274	0.59464	-0.412
Mof_O 	O 	0.87291	0.77773	0.65841	-0.412
Mof_O 	O 	0.84111	0.77469	0.63051	-0.422
Mof_C 	C 	0.901	0.85042	0.53507	0.383
Mof_C 	C 	0.91311	0.83837	0.5579	-0.125
Mof_C 	C 	0.90222	0.81702	0.56855	0.07
Mof_H 	H 	0.8876	0.8095	0.561	0.042
Mof_C 	C 	0.9128	0.80652	0.59057	-0.123
Mof_C 	C 	0.93363	0.81791	0.60219	0.071
Mof_H 	H 	0.9404	0.8109	0.6174	0.041
Mof_C 	C 	0.94457	0.83934	0.5917	-0.124
Mof_C 	C 	0.93445	0.84972	0.56919	0.068
Mof_H 	H 	0.942	0.8643	0.5617	0.042
Mof_C 	C 	0.89977	0.78445	0.60312	0.375
Mof_C 	C 	0.96592	0.85269	0.605	0.383
Mof_C 	C 	0.85188	0.78384	0.64933	0.394
Mof_C 	C 	0.83886	0.80554	0.66217	-0.128
Mof_C 	C 	0.81686	0.81613	0.65094	0.072
Mof_H 	H 	0.8097	0.8084	0.6363	0.041
Mof_Cu	Cu	0.39241	0.2497	0.6428	0.906
Mof_O 	O 	0.41115	0.37024	0.5263	-0.41
Mof_O 	O 	0.38153	0.33998	0.52655	-0.414
Mof_O 	O 	0.37888	0.27755	0.59383	-0.409
Mof_O 	O 	0.4105	0.2745	0.62206	-0.406
Mof_O 	O 	0.47397	0.34302	0.62499	-0.412
Mof_O 	O 	0.47398	0.37274	0.59464	-0.412
Mof_O 	O 	0.37291	0.27773	0.65841	-0.412
Mof_O 	O 	0.34111	0.27469	0.63051	-0.422
Mof_C 	C 	0.401	0.35042	0.53507	0.383
Mof_C 	C 	0.41311	0.33837	0.5579	-0.125
Mof_C 	C 	0.40222	0.31702	0.56855	0.07
Mof_H 	H 	0.3876	0.3095	0.561	0.042
Mof_C 	C 	0.4128	0.30652	0.59057	-0.123
Mof_C 	C 	0.43363	0.31791	0.60219	0.071
Mof_H 	H 	0.4404	0.3109	0.6174	0.041
Mof_C 	C 	0.44457	0.33934	0.5917	-0.124
Mof_C 	C 	0.43445	0.34972	0.56919	0.068
Mof_H 	H 	0.442	0.3643	0.5617	0.042
Mof_C 	C 	0.39977	0.28445	0.60312	0.375
Mof_C 	C 	0.46592	0.35269	0.605	0.383
Mof_C 	C 	0.35188	0.28384	0.64933	0.394
Mof_C 	C 	0.33886	0.30554	0.66217	-0.128
Mof_C 	C 	0.31686	0.31613	0.65094	0.072
Mof_H 	H 	0.3097	0.3084	0.6363	0.041
Mof_Cu	Cu	0.39241	0.7497	0.1428	0.906
Mof_O 	O 	0.41115	0.87024	0.0263	-0.41
Mof_O 	O 	0.38153	0.83998	0.02655	-0.415
Mof_O 	O 	0.37888	0.77755	0.09383	-0.409
Mof_O 	O 	0.4105	0.7745	0.12206	-0.406
Mof_O 	O 	0.47397	0.84302	0.12499	-0.412
Mof_O 	O 	0.47398	0.87274	0.09464	-0.412
Mof_O 	O 	0.37291	0.77773	0.15841	-0.412
Mof_O 	O 	0.34111	0.77469	0.13051	-0.422
Mof_C 	C 	0.401	0.85042	0.03507	0.383
Mof_C 	C 	0.41311	0.83837	0.0579	-0.125
Mof_C 	C 	0.40222	0.81702	0.06855	0.07
Mof_H 	H 	0.3876	0.8095	0.061	0.042
Mof_C 	C 	0.4128	0.80652	0.09057	-0.123
Mof_C 	C 	0.43363	0.81791	0.10219	0.071
Mof_H 	H 	0.4404	0.8109	0.1174	0.041
Mof_C 	C 	0.44457	0.83934	0.0917	-0.125
Mof_C 	C 	0.43445	0.84972	0.06919	0.068
Mof_H 	H 	0.442	0.8643	0.0617	0.042
Mof_C 	C 	0.39977	0.78445	0.10312	0.375
Mof_C 	C 	0.46592	0.85269	0.105	0.383
Mof_C 	C 	0.35188	0.78384	0.14933	0.394
Mof_C 	C 	0.33886	0.80554	0.16217	-0.128
Mof_C 	C 	0.31686	0.81613	0.15094	0.072
Mof_H 	H 	0.3097	0.8084	0.1363	0.041
Mof_Cu	Cu	0.10759	0.2497	0.8572	0.906
Mof_O 	O 	0.08885	0.37024	0.9737	-0.409
Mof_O 	O 	0.11847	0.33998	0.97345	-0.414
Mof_O 	O 	0.12112	0.27755	0.90617	-0.409
Mof_O 	O 	0.0895	0.2745	0.87794	-0.406
Mof_O 	O 	0.02603	0.34302	0.87501	-0.413
Mof_O 	O 	0.02602	0.37274	0.90536	-0.413
Mof_O 	O 	0.12709	0.27773	0.84159	-0.412
Mof_O 	O 	0.15889	0.27469	0.86949	-0.422
Mof_C 	C 	0.099	0.35042	0.96493	0.383
Mof_C 	C 	0.08689	0.33837	0.9421	-0.125
Mof_C 	C 	0.09778	0.31702	0.93145	0.07
Mof_H 	H 	0.1124	0.3095	0.939	0.042
Mof_C 	C 	0.0872	0.30652	0.90943	-0.123
Mof_C 	C 	0.06637	0.31791	0.89781	0.071
Mof_H 	H 	0.0596	0.3109	0.8826	0.041
Mof_C 	C 	0.05543	0.33934	0.9083	-0.124
Mof_C 	C 	0.06555	0.34972	0.93081	0.068
Mof_H 	H 	0.058	0.3643	0.9383	0.042
Mof_C 	C 	0.10023	0.28445	0.89688	0.375
Mof_C 	C 	0.03408	0.35269	0.895	0.383
Mof_C 	C 	0.14812	0.28384	0.85067	0.394
Mof_C 	C 	0.16114	0.30554	0.83783	-0.128
Mof_C 	C 	0.18314	0.31613	0.84906	0.072
Mof_H 	H 	0.1903	0.3084	0.8637	0.041
Mof_Cu	Cu	0.10759	0.7497	0.3572	0.906
Mof_O 	O 	0.08885	0.87024	0.4737	-0.41
Mof_O 	O 	0.11847	0.83998	0.47345	-0.414
Mof_O 	O 	0.12112	0.77755	0.40617	-0.409
Mof_O 	O 	0.0895	0.7745	0.37794	-0.406
Mof_O 	O 	0.02603	0.84302	0.37501	-0.413
Mof_O 	O 	0.02602	0.87274	0.40536	-0.413
Mof_O 	O 	0.12709	0.77773	0.34159	-0.412
Mof_O 	O 	0.15889	0.77469	0.36949	-0.422
Mof_C 	C 	0.099	0.85042	0.46493	0.383
Mof_C 	C 	0.08689	0.83837	0.4421	-0.125
Mof_C 	C 	0.09778	0.81702	0.43145	0.07
Mof_H 	H 	0.1124	0.8095	0.439	0.042
Mof_C 	C 	0.0872	0.80652	0.40943	-0.123
Mof_C 	C 	0.06637	0.81791	0.39781	0.071
Mof_H 	H 	0.0596	0.8109	0.3826	0.041
Mof_C 	C 	0.05543	0.83934	0.4083	-0.125
Mof_C 	C 	0.06555	0.84972	0.43081	0.068
Mof_H 	H 	0.058	0.8643	0.4383	0.042
Mof_C 	C 	0.10023	0.78445	0.39688	0.375
Mof_C 	C 	0.03408	0.85269	0.395	0.383
Mof_C 	C 	0.14812	0.78384	0.35067	0.394
Mof_C 	C 	0.16114	0.80554	0.33783	-0.128
Mof_C 	C 	0.18314	0.81613	0.34906	0.072
Mof_H 	H 	0.1903	0.8084	0.3637	0.041
Mof_Cu	Cu	0.60759	0.2497	0.3572	0.906
Mof_O 	O 	0.58885	0.37024	0.4737	-0.41
Mof_O 	O 	0.61847	0.33998	0.47345	-0.414
Mof_O 	O 	0.62112	0.27755	0.40617	-0.409
Mof_O 	O 	0.5895	0.2745	0.37794	-0.406
Mof_O 	O 	0.52603	0.34302	0.37501	-0.412
Mof_O 	O 	0.52602	0.37274	0.40536	-0.412
Mof_O 	O 	0.62709	0.27773	0.34159	-0.412
Mof_O 	O 	0.65889	0.27469	0.36949	-0.422
Mof_C 	C 	0.599	0.35042	0.46493	0.383
Mof_C 	C 	0.58689	0.33837	0.4421	-0.125
Mof_C 	C 	0.59778	0.31702	0.43145	0.07
Mof_H 	H 	0.6124	0.3095	0.439	0.042
Mof_C 	C 	0.5872	0.30652	0.40943	-0.123
Mof_C 	C 	0.56637	0.31791	0.39781	0.071
Mof_H 	H 	0.5596	0.3109	0.3826	0.041
Mof_C 	C 	0.55543	0.33934	0.4083	-0.124
Mof_C 	C 	0.56555	0.34972	0.43081	0.068
Mof_H 	H 	0.558	0.3643	0.4383	0.042
Mof_C 	C 	0.60023	0.28445	0.39688	0.375
Mof_C 	C 	0.53408	0.35269	0.395	0.383
Mof_C 	C 	0.64812	0.28384	0.35067	0.394
Mof_C 	C 	0.66114	0.30554	0.33783	-0.128
Mof_C 	C 	0.68314	0.31613	0.34906	0.072
Mof_H 	H 	0.6903	0.3084	0.3637	0.041
Mof_Cu	Cu	0.60759	0.7497	0.8572	0.906
Mof_O 	O 	0.58885	0.87024	0.9737	-0.409
Mof_O 	O 	0.61847	0.83998	0.97345	-0.414
Mof_O 	O 	0.62112	0.77755	0.90617	-0.409
Mof_O 	O 	0.5895	0.7745	0.87794	-0.406
Mof_O 	O 	0.52603	0.84302	0.87501	-0.412
Mof_O 	O 	0.52602	0.87274	0.90536	-0.412
Mof_O 	O 	0.62709	0.77773	0.84159	-0.412
Mof_O 	O 	0.65889	0.77469	0.86949	-0.422
Mof_C 	C 	0.599	0.85042	0.96493	0.383
Mof_C 	C 	0.58689	0.83837	0.9421	-0.124
Mof_C 	C 	0.59778	0.81702	0.93145	0.07
Mof_H 	H 	0.6124	0.8095	0.939	0.042
Mof_C 	C 	0.5872	0.80652	0.90943	-0.123
Mof_C 	C 	0.56637	0.81791	0.89781	0.071
Mof_H 	H 	0.5596	0.8109	0.8826	0.041
Mof_C 	C 	0.55543	0.83934	0.9083	-0.124
Mof_C 	C 	0.56555	0.84972	0.93081	0.068
Mof_H 	H 	0.558	0.8643	0.9383	0.042
Mof_C 	C 	0.60023	0.78445	0.89688	0.375
Mof_C 	C 	0.53408	0.85269	0.895	0.383
Mof_C 	C 	0.64812	0.78384	0.85067	0.394
Mof_C 	C 	0.66114	0.80554	0.83783	-0.128
Mof_C 	C 	0.68314	0.81613	0.84906	0.072
Mof_H 	H 	0.6903	0.8084	0.8637	0.041
Mof_Cu	Cu	0.10759	0.7503	0.1428	0.906
Mof_O 	O 	0.08885	0.62976	0.0263	-0.41
Mof_O 	O 	0.11847	0.66002	0.02655	-0.415
Mof_O 	O 	0.12112	0.72245	0.09383	-0.409
Mof_O 	O 	0.0895	0.7255	0.12206	-0.406
Mof_O 	O 	0.02603	0.65698	0.12499	-0.413
Mof_O 	O 	0.02602	0.62726	0.09464	-0.413
Mof_O 	O 	0.12709	0.72227	0.15841	-0.412
Mof_O 	O 	0.15889	0.72531	0.13051	-0.422
Mof_C 	C 	0.099	0.64958	0.03507	0.383
Mof_C 	C 	0.08689	0.66163	0.0579	-0.125
Mof_C 	C 	0.09778	0.68298	0.06855	0.07
Mof_H 	H 	0.1124	0.6905	0.061	0.041
Mof_C 	C 	0.0872	0.69348	0.09057	-0.123
Mof_C 	C 	0.06637	0.68209	0.10219	0.071
Mof_H 	H 	0.0596	0.6891	0.1174	0.041
Mof_C 	C 	0.05543	0.66066	0.0917	-0.125
Mof_C 	C 	0.06555	0.65028	0.06919	0.068
Mof_H 	H 	0.058	0.6357	0.0617	0.042
Mof_C 	C 	0.10023	0.71555	0.10312	0.375
Mof_C 	C 	0.03408	0.64731	0.105	0.384
Mof_C 	C 	0.14812	0.71616	0.14933	0.394
Mof_C 	C 	0.16114	0.69446	0.16217	-0.128
Mof_C 	C 	0.18314	0.68387	0.15094	0.072
Mof_H 	H 	0.1903	0.6916	0.1363	0.041
Mof_Cu	Cu	0.10759	0.2503	0.6428	0.906
Mof_O 	O 	0.08885	0.12976	0.5263	-0.41
Mof_O 	O 	0.11847	0.16002	0.52655	-0.414
Mof_O 	O 	0.12112	0.22245	0.59383	-0.409
Mof_O 	O 	0.0895	0.2255	0.62206	-0.406
Mof_O 	O 	0.02603	0.15698	0.62499	-0.413
Mof_O 	O 	0.02602	0.12726	0.59464	-0.413
Mof_O 	O 	0.12709	0.22227	0.65841	-0.412
Mof_O 	O 	0.15889	0.22531	0.63051	-0.422
Mof_C 	C 	0.099	0.14958	0.53507	0.383
Mof_C 	C 	0.08689	0.16163	0.5579	-0.125
Mof_C 	C 	0.09778	0.18298	0.56855	0.07
Mof_H 	H 	0.1124	0.1905	0.561	0.042
Mof_C 	C 	0.0872	0.19348	0.59057	-0.123
Mof_C 	C 	0.06637	0.18209	0.60219	0.071
Mof_H 	H 	0.0596	0.1891	0.6174	0.041
Mof_C 	C 	0.05543	0.16066	0.5917	-0.125
Mof_C 	C 	0.06555	0.15028	0.56919	0.068
Mof_H 	H 	0.058	0.1357	0.5617	0.042
Mof_C 	C 	0.10023	0.21555	0.60312	0.375
Mof_C 	C 	0.03408	0.14731	0.605	0.384
Mof_C 	C 	0.14812	0.21616	0.64933	0.394
Mof_C 	C 	0.16114	0.19446	0.66217	-0.128
Mof_C 	C 	0.18314	0.18387	0.65094	0.072
Mof_H 	H 	0.1903	0.1916	0.6363	0.041
Mof_Cu	Cu	0.60759	0.7503	0.6428	0.906
Mof_O 	O 	0.58885	0.62976	0.5263	-0.41
Mof_O 	O 	0.61847	0.66002	0.52655	-0.414
Mof_O 	O 	0.62112	0.72245	0.59383	-0.409
Mof_O 	O 	0.5895	0.7255	0.62206	-0.406
Mof_O 	O 	0.52603	0.65698	0.62499	-0.412
Mof_O 	O 	0.52602	0.62726	0.59464	-0.412
Mof_O 	O 	0.62709	0.72227	0.65841	-0.412
Mof_O 	O 	0.65889	0.72531	0.63051	-0.422
Mof_C 	C 	0.599	0.64958	0.53507	0.383
Mof_C 	C 	0.58689	0.66163	0.5579	-0.125
Mof_C 	C 	0.59778	0.68298	0.56855	0.07
Mof_H 	H 	0.6124	0.6905	0.561	0.042
Mof_C 	C 	0.5872	0.69348	0.59057	-0.123
Mof_C 	C 	0.56637	0.68209	0.60219	0.071
Mof_H 	H 	0.5596	0.6891	0.6174	0.041
Mof_C 	C 	0.55543	0.66066	0.5917	-0.124
Mof_C 	C 	0.56555	0.65028	0.56919	0.068
Mof_H 	H 	0.558	0.6357	0.5617	0.042
Mof_C 	C 	0.60023	0.71555	0.60312	0.375
Mof_C 	C 	0.53408	0.64731	0.605	0.383
Mof_C 	C 	0.64812	0.71616	0.64933	0.394
Mof_C 	C 	0.66114	0.69446	0.66217	-0.128
Mof_C 	C 	0.68314	0.68387	0.65094	0.072
Mof_H 	H 	0.6903	0.6916	0.6363	0.041
Mof_Cu	Cu	0.60759	0.2503	0.1428	0.906
Mof_O 	O 	0.58885	0.12976	0.0263	-0.41
Mof_O 	O 	0.61847	0.16002	0.02655	-0.415
Mof_O 	O 	0.62112	0.22245	0.09383	-0.409
Mof_O 	O 	0.5895	0.2255	0.12206	-0.406
Mof_O 	O 	0.52603	0.15698	0.12499	-0.412
Mof_O 	O 	0.52602	0.12726	0.09464	-0.412
Mof_O 	O 	0.62709	0.22227	0.15841	-0.412
Mof_O 	O 	0.65889	0.22531	0.13051	-0.422
Mof_C 	C 	0.599	0.14958	0.03507	0.383
Mof_C 	C 	0.58689	0.16163	0.0579	-0.125
Mof_C 	C 	0.59778	0.18298	0.06855	0.07
Mof_H 	H 	0.6124	0.1905	0.061	0.042
Mof_C 	C 	0.5872	0.19348	0.09057	-0.123
Mof_C 	C 	0.56637	0.18209	0.10219	0.071
Mof_H 	H 	0.5596	0.1891	0.1174	0.041
Mof_C 	C 	0.55543	0.16066	0.0917	-0.125
Mof_C 	C 	0.56555	0.15028	0.06919	0.068
Mof_H 	H 	0.558	0.1357	0.0617	0.042
Mof_C 	C 	0.60023	0.21555	0.10312	0.375
Mof_C 	C 	0.53408	0.14731	0.105	0.383
Mof_C 	C 	0.64812	0.21616	0.14933	0.394
Mof_C 	C 	0.66114	0.19446	0.16217	-0.128
Mof_C 	C 	0.68314	0.18387	0.15094	0.072
Mof_H 	H 	0.6903	0.1916	0.1363	0.041
Mof_Cu	Cu	0.8572	0.89241	0.7503	0.906
Mof_O 	O 	0.9737	0.91115	0.62976	-0.409
Mof_O 	O 	0.97345	0.88153	0.66002	-0.414
Mof_O 	O 	0.90617	0.87888	0.72245	-0.409
Mof_O 	O 	0.87794	0.9105	0.7255	-0.406
Mof_O 	O 	0.87501	0.97397	0.65698	-0.412
Mof_O 	O 	0.90536	0.97398	0.62726	-0.412
Mof_O 	O 	0.84159	0.87291	0.72227	-0.412
Mof_O 	O 	0.86949	0.84111	0.72531	-0.422
Mof_C 	C 	0.96493	0.901	0.64958	0.383
Mof_C 	C 	0.9421	0.91311	0.66163	-0.124
Mof_C 	C 	0.93145	0.90222	0.68298	0.07
Mof_H 	H 	0.939	0.8876	0.6905	0.042
Mof_C 	C 	0.90943	0.9128	0.69348	-0.122
Mof_C 	C 	0.89781	0.93363	0.68209	0.071
Mof_H 	H 	0.8826	0.9404	0.6891	0.041
Mof_C 	C 	0.9083	0.94457	0.66066	-0.124
Mof_C 	C 	0.93081	0.93445	0.65028	0.068
Mof_H 	H 	0.9383	0.942	0.6357	0.042
Mof_C 	C 	0.89688	0.89977	0.71555	0.375
Mof_C 	C 	0.895	0.96592	0.64731	0.383
Mof_C 	C 	0.85067	0.85188	0.71616	0.394
Mof_C 	C 	0.83783	0.83886	0.69446	-0.128
Mof_C 	C 	0.84906	0.81686	0.68387	0.072
Mof_H 	H 	0.8637	0.8097	0.6916	0.041
Mof_Cu	Cu	0.8572	0.39241	0.2503	0.906
Mof_O 	O 	0.9737	0.41115	0.12976	-0.409
Mof_O 	O 	0.97345	0.38153	0.16002	-0.414
Mof_O 	O 	0.90617	0.37888	0.22245	-0.409
Mof_O 	O 	0.87794	0.4105	0.2255	-0.406
Mof_O 	O 	0.87501	0.47397	0.15698	-0.412
Mof_O 	O 	0.90536	0.47398	0.12726	-0.412
Mof_O 	O 	0.84159	0.37291	0.22227	-0.412
Mof_O 	O 	0.86949	0.34111	0.22531	-0.422
Mof_C 	C 	0.96493	0.401	0.14958	0.383
Mof_C 	C 	0.9421	0.41311	0.16163	-0.124
Mof_C 	C 	0.93145	0.40222	0.18298	0.07
Mof_H 	H 	0.939	0.3876	0.1905	0.042
Mof_C 	C 	0.90943	0.4128	0.19348	-0.123
Mof_C 	C 	0.89781	0.43363	0.18209	0.071
Mof_H 	H 	0.8826	0.4404	0.1891	0.041
Mof_C 	C 	0.9083	0.44457	0.16066	-0.124
Mof_C 	C 	0.93081	0.43445	0.15028	0.068
Mof_H 	H 	0.9383	0.442	0.1357	0.042
Mof_C 	C 	0.89688	0.39977	0.21555	0.375
Mof_C 	C 	0.895	0.46592	0.14731	0.383
Mof_C 	C 	0.85067	0.35188	0.21616	0.394
Mof_C 	C 	0.83783	0.33886	0.19446	-0.128
Mof_C 	C 	0.84906	0.31686	0.18387	0.072
Mof_H 	H 	0.8637	0.3097	0.1916	0.041
Mof_Cu	Cu	0.3572	0.89241	0.2503	0.906
Mof_O 	O 	0.4737	0.91115	0.12976	-0.409
Mof_O 	O 	0.47345	0.88153	0.16002	-0.414
Mof_O 	O 	0.40617	0.87888	0.22245	-0.409
Mof_O 	O 	0.37794	0.9105	0.2255	-0.406
Mof_O 	O 	0.37501	0.97397	0.15698	-0.412
Mof_O 	O 	0.40536	0.97398	0.12726	-0.412
Mof_O 	O 	0.34159	0.87291	0.22227	-0.412
Mof_O 	O 	0.36949	0.84111	0.22531	-0.422
Mof_C 	C 	0.46493	0.901	0.14958	0.383
Mof_C 	C 	0.4421	0.91311	0.16163	-0.125
Mof_C 	C 	0.43145	0.90222	0.18298	0.07
Mof_H 	H 	0.439	0.8876	0.1905	0.042
Mof_C 	C 	0.40943	0.9128	0.19348	-0.123
Mof_C 	C 	0.39781	0.93363	0.18209	0.071
Mof_H 	H 	0.3826	0.9404	0.1891	0.041
Mof_C 	C 	0.4083	0.94457	0.16066	-0.124
Mof_C 	C 	0.43081	0.93445	0.15028	0.068
Mof_H 	H 	0.4383	0.942	0.1357	0.042
Mof_C 	C 	0.39688	0.89977	0.21555	0.375
Mof_C 	C 	0.395	0.96592	0.14731	0.383
Mof_C 	C 	0.35067	0.85188	0.21616	0.394
Mof_C 	C 	0.33783	0.83886	0.19446	-0.128
Mof_C 	C 	0.34906	0.81686	0.18387	0.072
Mof_H 	H 	0.3637	0.8097	0.1916	0.041
Mof_Cu	Cu	0.3572	0.39241	0.7503	0.906
Mof_O 	O 	0.4737	0.41115	0.62976	-0.41
Mof_O 	O 	0.47345	0.38153	0.66002	-0.414
Mof_O 	O 	0.40617	0.37888	0.72245	-0.409
Mof_O 	O 	0.37794	0.4105	0.7255	-0.406
Mof_O 	O 	0.37501	0.47397	0.65698	-0.412
Mof_O 	O 	0.40536	0.47398	0.62726	-0.412
Mof_O 	O 	0.34159	0.37291	0.72227	-0.412
Mof_O 	O 	0.36949	0.34111	0.72531	-0.422
Mof_C 	C 	0.46493	0.401	0.64958	0.383
Mof_C 	C 	0.4421	0.41311	0.66163	-0.125
Mof_C 	C 	0.43145	0.40222	0.68298	0.07
Mof_H 	H 	0.439	0.3876	0.6905	0.042
Mof_C 	C 	0.40943	0.4128	0.69348	-0.123
Mof_C 	C 	0.39781	0.43363	0.68209	0.071
Mof_H 	H 	0.3826	0.4404	0.6891	0.041
Mof_C 	C 	0.4083	0.44457	0.66066	-0.124
Mof_C 	C 	0.43081	0.43445	0.65028	0.068
Mof_H 	H 	0.4383	0.442	0.6357	0.042
Mof_C 	C 	0.39688	0.39977	0.71555	0.375
Mof_C 	C 	0.395	0.46592	0.64731	0.383
Mof_C 	C 	0.35067	0.35188	0.71616	0.394
Mof_C 	C 	0.33783	0.33886	0.69446	-0.128
Mof_C 	C 	0.34906	0.31686	0.68387	0.072
Mof_H 	H 	0.3637	0.3097	0.6916	0.041
Mof_Cu	Cu	0.1428	0.89241	0.2497	0.906
Mof_O 	O 	0.0263	0.91115	0.37024	-0.41
Mof_O 	O 	0.02655	0.88153	0.33998	-0.415
Mof_O 	O 	0.09383	0.87888	0.27755	-0.409
Mof_O 	O 	0.12206	0.9105	0.2745	-0.406
Mof_O 	O 	0.12499	0.97397	0.34302	-0.412
Mof_O 	O 	0.09464	0.97398	0.37274	-0.412
Mof_O 	O 	0.15841	0.87291	0.27773	-0.412
Mof_O 	O 	0.13051	0.84111	0.27469	-0.422
Mof_C 	C 	0.03507	0.901	0.35042	0.383
Mof_C 	C 	0.0579	0.91311	0.33837	-0.125
Mof_C 	C 	0.06855	0.90222	0.31702	0.07
Mof_H 	H 	0.061	0.8876	0.3095	0.042
Mof_C 	C 	0.09057	0.9128	0.30652	-0.123
Mof_C 	C 	0.10219	0.93363	0.31791	0.071
Mof_H 	H 	0.1174	0.9404	0.3109	0.041
Mof_C 	C 	0.0917	0.94457	0.33934	-0.124
Mof_C 	C 	0.06919	0.93445	0.34972	0.068
Mof_H 	H 	0.0617	0.942	0.3643	0.042
Mof_C 	C 	0.10312	0.89977	0.28445	0.375
Mof_C 	C 	0.105	0.96592	0.35269	0.383
Mof_C 	C 	0.14933	0.85188	0.28384	0.394
Mof_C 	C 	0.16217	0.83886	0.30554	-0.128
Mof_C 	C 	0.15094	0.81686	0.31613	0.072
Mof_H 	H 	0.1363	0.8097	0.3084	0.041
Mof_Cu	Cu	0.1428	0.39241	0.7497	0.906
Mof_O 	O 	0.0263	0.41115	0.87024	-0.41
Mof_O 	O 	0.02655	0.38153	0.83998	-0.415
Mof_O 	O 	0.09383	0.37888	0.77755	-0.409
Mof_O 	O 	0.12206	0.4105	0.7745	-0.406
Mof_O 	O 	0.12499	0.47397	0.84302	-0.412
Mof_O 	O 	0.09464	0.47398	0.87274	-0.412
Mof_O 	O 	0.15841	0.37291	0.77773	-0.412
Mof_O 	O 	0.13051	0.34111	0.77469	-0.422
Mof_C 	C 	0.03507	0.401	0.85042	0.383
Mof_C 	C 	0.0579	0.41311	0.83837	-0.125
Mof_C 	C 	0.06855	0.40222	0.81702	0.07
Mof_H 	H 	0.061	0.3876	0.8095	0.042
Mof_C 	C 	0.09057	0.4128	0.80652	-0.123
Mof_C 	C 	0.10219	0.43363	0.81791	0.071
Mof_H 	H 	0.1174	0.4404	0.8109	0.041
Mof_C 	C 	0.0917	0.44457	0.83934	-0.125
Mof_C 	C 	0.06919	0.43445	0.84972	0.068
Mof_H 	H 	0.0617	0.442	0.8643	0.042
Mof_C 	C 	0.10312	0.39977	0.78445	0.375
Mof_C 	C 	0.105	0.46592	0.85269	0.383
Mof_C 	C 	0.14933	0.35188	0.78384	0.394
Mof_C 	C 	0.16217	0.33886	0.80554	-0.128
Mof_C 	C 	0.15094	0.31686	0.81613	0.072
Mof_H 	H 	0.1363	0.3097	0.8084	0.041
Mof_Cu	Cu	0.6428	0.89241	0.7497	0.906
Mof_O 	O 	0.5263	0.91115	0.87024	-0.409
Mof_O 	O 	0.52655	0.88153	0.83998	-0.414
Mof_O 	O 	0.59383	0.87888	0.77755	-0.409
Mof_O 	O 	0.62206	0.9105	0.7745	-0.406
Mof_O 	O 	0.62499	0.97397	0.84302	-0.412
Mof_O 	O 	0.59464	0.97398	0.87274	-0.412
Mof_O 	O 	0.65841	0.87291	0.77773	-0.412
Mof_O 	O 	0.63051	0.84111	0.77469	-0.422
Mof_C 	C 	0.53507	0.901	0.85042	0.383
Mof_C 	C 	0.5579	0.91311	0.83837	-0.125
Mof_C 	C 	0.56855	0.90222	0.81702	0.07
Mof_H 	H 	0.561	0.8876	0.8095	0.042
Mof_C 	C 	0.59057	0.9128	0.80652	-0.123
Mof_C 	C 	0.60219	0.93363	0.81791	0.071
Mof_H 	H 	0.6174	0.9404	0.8109	0.041
Mof_C 	C 	0.5917	0.94457	0.83934	-0.124
Mof_C 	C 	0.56919	0.93445	0.84972	0.068
Mof_H 	H 	0.5617	0.942	0.8643	0.042
Mof_C 	C 	0.60312	0.89977	0.78445	0.375
Mof_C 	C 	0.605	0.96592	0.85269	0.383
Mof_C 	C 	0.64933	0.85188	0.78384	0.394
Mof_C 	C 	0.66217	0.83886	0.80554	-0.128
Mof_C 	C 	0.65094	0.81686	0.81613	0.072
Mof_H 	H 	0.6363	0.8097	0.8084	0.041
Mof_Cu	Cu	0.6428	0.39241	0.2497	0.906
Mof_O 	O 	0.5263	0.41115	0.37024	-0.41
Mof_O 	O 	0.52655	0.38153	0.33998	-0.414
Mof_O 	O 	0.59383	0.37888	0.27755	-0.409
Mof_O 	O 	0.62206	0.4105	0.2745	-0.406
Mof_O 	O 	0.62499	0.47397	0.34302	-0.412
Mof_O 	O 	0.59464	0.47398	0.37274	-0.412
Mof_O 	O 	0.65841	0.37291	0.27773	-0.412
Mof_O 	O 	0.63051	0.34111	0.27469	-0.422
Mof_C 	C 	0.53507	0.401	0.35042	0.383
Mof_C 	C 	0.5579	0.41311	0.33837	-0.125
Mof_C 	C 	0.56855	0.40222	0.31702	0.07
Mof_H 	H 	0.561	0.3876	0.3095	0.042
Mof_C 	C 	0.59057	0.4128	0.30652	-0.123
Mof_C 	C 	0.60219	0.43363	0.31791	0.071
Mof_H 	H 	0.6174	0.4404	0.3109	0.041
Mof_C 	C 	0.5917	0.44457	0.33934	-0.124
Mof_C 	C 	0.56919	0.43445	0.34972	0.068
Mof_H 	H 	0.5617	0.442	0.3643	0.042
Mof_C 	C 	0.60312	0.39977	0.28445	0.375
Mof_C 	C 	0.605	0.46592	0.35269	0.383
Mof_C 	C 	0.64933	0.35188	0.28384	0.394
Mof_C 	C 	0.66217	0.33886	0.30554	-0.128
Mof_C 	C 	0.65094	0.31686	0.31613	0.072
Mof_H 	H 	0.6363	0.3097	0.3084	0.041
Mof_Cu	Cu	0.8572	0.10759	0.2497	0.906
Mof_O 	O 	0.9737	0.08885	0.37024	-0.409
Mof_O 	O 	0.97345	0.11847	0.33998	-0.414
Mof_O 	O 	0.90617	0.12112	0.27755	-0.409
Mof_O 	O 	0.87794	0.0895	0.2745	-0.406
Mof_O 	O 	0.87501	0.02603	0.34302	-0.413
Mof_O 	O 	0.90536	0.02602	0.37274	-0.413
Mof_O 	O 	0.84159	0.12709	0.27773	-0.412
Mof_O 	O 	0.86949	0.15889	0.27469	-0.422
Mof_C 	C 	0.96493	0.099	0.35042	0.383
Mof_C 	C 	0.9421	0.08689	0.33837	-0.125
Mof_C 	C 	0.93145	0.09778	0.31702	0.07
Mof_H 	H 	0.939	0.1124	0.3095	0.042
Mof_C 	C 	0.90943	0.0872	0.30652	-0.123
Mof_C 	C 	0.89781	0.06637	0.31791	0.071
Mof_H 	H 	0.8826	0.0596	0.3109	0.041
Mof_C 	C 	0.9083	0.05543	0.33934	-0.124
Mof_C 	C 	0.93081	0.06555	0.34972	0.068
Mof_H 	H 	0.9383	0.058	0.3643	0.042
Mof_C 	C 	0.89688	0.10023	0.28445	0.375
Mof_C 	C 	0.895	0.03408	0.35269	0.383
Mof_C 	C 	0.85067	0.14812	0.28384	0.394
Mof_C 	C 	0.83783	0.16114	0.30554	-0.128
Mof_C 	C 	0.84906	0.18314	0.31613	0.072
Mof_H 	H 	0.8637	0.1903	0.3084	0.041
Mof_Cu	Cu	0.8572	0.60759	0.7497	0.906
Mof_O 	O 	0.9737	0.58885	0.87024	-0.409
Mof_O 	O 	0.97345	0.61847	0.83998	-0.414
Mof_O 	O 	0.90617	0.62112	0.77755	-0.409
Mof_O 	O 	0.87794	0.5895	0.7745	-0.406
Mof_O 	O 	0.87501	0.52603	0.84302	-0.412
Mof_O 	O 	0.90536	0.52602	0.87274	-0.412
Mof_O 	O 	0.84159	0.62709	0.77773	-0.412
Mof_O 	O 	0.86949	0.65889	0.77469	-0.422
Mof_C 	C 	0.96493	0.599	0.85042	0.383
Mof_C 	C 	0.9421	0.58689	0.83837	-0.124
Mof_C 	C 	0.93145	0.59778	0.81702	0.07
Mof_H 	H 	0.939	0.6124	0.8095	0.042
Mof_C 	C 	0.90943	0.5872	0.80652	-0.123
Mof_C 	C 	0.89781	0.56637	0.81791	0.071
Mof_H 	H 	0.8826	0.5596	0.8109	0.041
Mof_C 	C 	0.9083	0.55543	0.83934	-0.124
Mof_C 	C 	0.93081	0.56555	0.84972	0.068
Mof_H 	H 	0.9383	0.558	0.8643	0.042
Mof_C 	C 	0.89688	0.60023	0.78445	0.375
Mof_C 	C 	0.895	0.53408	0.85269	0.383
Mof_C 	C 	0.85067	0.64812	0.78384	0.394
Mof_C 	C 	0.83783	0.66114	0.80554	-0.128
Mof_C 	C 	0.84906	0.68314	0.81613	0.072
Mof_H 	H 	0.8637	0.6903	0.8084	0.041
Mof_Cu	Cu	0.3572	0.10759	0.7497	0.906
Mof_O 	O 	0.4737	0.08885	0.87024	-0.41
Mof_O 	O 	0.47345	0.11847	0.83998	-0.414
Mof_O 	O 	0.40617	0.12112	0.77755	-0.409
Mof_O 	O 	0.37794	0.0895	0.7745	-0.406
Mof_O 	O 	0.37501	0.02603	0.84302	-0.413
Mof_O 	O 	0.40536	0.02602	0.87274	-0.413
Mof_O 	O 	0.34159	0.12709	0.77773	-0.412
Mof_O 	O 	0.36949	0.15889	0.77469	-0.422
Mof_C 	C 	0.46493	0.099	0.85042	0.383
Mof_C 	C 	0.4421	0.08689	0.83837	-0.125
Mof_C 	C 	0.43145	0.09778	0.81702	0.07
Mof_H 	H 	0.439	0.1124	0.8095	0.042
Mof_C 	C 	0.40943	0.0872	0.80652	-0.123
Mof_C 	C 	0.39781	0.06637	0.81791	0.071
Mof_H 	H 	0.3826	0.0596	0.8109	0.041
Mof_C 	C 	0.4083	0.05543	0.83934	-0.125
Mof_C 	C 	0.43081	0.06555	0.84972	0.068
Mof_H 	H 	0.4383	0.058	0.8643	0.042
Mof_C 	C 	0.39688	0.10023	0.78445	0.375
Mof_C 	C 	0.395	0.03408	0.85269	0.383
Mof_C 	C 	0.35067	0.14812	0.78384	0.394
Mof_C 	C 	0.33783	0.16114	0.80554	-0.128
Mof_C 	C 	0.34906	0.18314	0.81613	0.072
Mof_H 	H 	0.3637	0.1903	0.8084	0.041
Mof_Cu	Cu	0.3572	0.60759	0.2497	0.906
Mof_O 	O 	0.4737	0.58885	0.37024	-0.41
Mof_O 	O 	0.47345	0.61847	0.33998	-0.414
Mof_O 	O 	0.40617	0.62112	0.27755	-0.409
Mof_O 	O 	0.37794	0.5895	0.2745	-0.406
Mof_O 	O 	0.37501	0.52603	0.34302	-0.412
Mof_O 	O 	0.40536	0.52602	0.37274	-0.412
Mof_O 	O 	0.34159	0.62709	0.27773	-0.412
Mof_O 	O 	0.36949	0.65889	0.27469	-0.422
Mof_C 	C 	0.46493	0.599	0.35042	0.383
Mof_C 	C 	0.4421	0.58689	0.33837	-0.125
Mof_C 	C 	0.43145	0.59778	0.31702	0.07
Mof_H 	H 	0.439	0.6124	0.3095	0.042
Mof_C 	C 	0.40943	0.5872	0.30652	-0.123
Mof_C 	C 	0.39781	0.56637	0.31791	0.071
Mof_H 	H 	0.3826	0.5596	0.3109	0.041
Mof_C 	C 	0.4083	0.55543	0.33934	-0.124
Mof_C 	C 	0.43081	0.56555	0.34972	0.068
Mof_H 	H 	0.4383	0.558	0.3643	0.042
Mof_C 	C 	0.39688	0.60023	0.28445	0.375
Mof_C 	C 	0.395	0.53408	0.35269	0.383
Mof_C 	C 	0.35067	0.64812	0.28384	0.394
Mof_C 	C 	0.33783	0.66114	0.30554	-0.128
Mof_C 	C 	0.34906	0.68314	0.31613	0.072
Mof_H 	H 	0.3637	0.6903	0.3084	0.041
Mof_Cu	Cu	0.1428	0.10759	0.7503	0.906
Mof_O 	O 	0.0263	0.08885	0.62976	-0.41
Mof_O 	O 	0.02655	0.11847	0.66002	-0.415
Mof_O 	O 	0.09383	0.12112	0.72245	-0.409
Mof_O 	O 	0.12206	0.0895	0.7255	-0.406
Mof_O 	O 	0.12499	0.02603	0.65698	-0.413
Mof_O 	O 	0.09464	0.02602	0.62726	-0.413
Mof_O 	O 	0.15841	0.12709	0.72227	-0.412
Mof_O 	O 	0.13051	0.15889	0.72531	-0.422
Mof_C 	C 	0.03507	0.099	0.64958	0.383
Mof_C 	C 	0.0579	0.08689	0.66163	-0.125
Mof_C 	C 	0.06855	0.09778	0.68298	0.07
Mof_H 	H 	0.061	0.1124	0.6905	0.041
Mof_C 	C 	0.09057	0.0872	0.69348	-0.123
Mof_C 	C 	0.10219	0.06637	0.68209	0.071
Mof_H 	H 	0.1174	0.0596	0.6891	0.041
Mof_C 	C 	0.0917	0.05543	0.66066	-0.125
Mof_C 	C 	0.06919	0.06555	0.65028	0.068
Mof_H 	H 	0.0617	0.058	0.6357	0.042
Mof_C 	C 	0.10312	0.10023	0.71555	0.375
Mof_C 	C 	0.105	0.03408	0.64731	0.384
Mof_C 	C 	0.14933	0.14812	0.71616	0.394
Mof_C 	C 	0.16217	0.16114	0.69446	-0.128
Mof_C 	C 	0.15094	0.18314	0.68387	0.072
Mof_H 	H 	0.1363	0.1903	0.6916	0.041
Mof_Cu	Cu	0.1428	0.60759	0.2503	0.906
Mof_O 	O 	0.0263	0.58885	0.12976	-0.41
Mof_O 	O 	0.02655	0.61847	0.16002	-0.415
Mof_O 	O 	0.09383	0.62112	0.22245	-0.409
Mof_O 	O 	0.12206	0.5895	0.2255	-0.406
Mof_O 	O 	0.12499	0.52603	0.15698	-0.412
Mof_O 	O 	0.09464	0.52602	0.12726	-0.412
Mof_O 	O 	0.15841	0.62709	0.22227	-0.412
Mof_O 	O 	0.13051	0.65889	0.22531	-0.422
Mof_C 	C 	0.03507	0.599	0.14958	0.383
Mof_C 	C 	0.0579	0.58689	0.16163	-0.125
Mof_C 	C 	0.06855	0.59778	0.18298	0.07
Mof_H 	H 	0.061	0.6124	0.1905	0.042
Mof_C 	C 	0.09057	0.5872	0.19348	-0.123
Mof_C 	C 	0.10219	0.56637	0.18209	0.071
Mof_H 	H 	0.1174	0.5596	0.1891	0.041
Mof_C 	C 	0.0917	0.55543	0.16066	-0.125
Mof_C 	C 	0.06919	0.56555	0.15028	0.068
Mof_H 	H 	0.0617	0.558	0.1357	0.042
Mof_C 	C 	0.10312	0.60023	0.21555	0.375
Mof_C 	C 	0.105	0.53408	0.14731	0.383
Mof_C 	C 	0.14933	0.64812	0.21616	0.394
Mof_C 	C 	0.16217	0.66114	0.19446	-0.128
Mof_C 	C 	0.15094	0.68314	0.18387	0.072
Mof_H 	H 	0.1363	0.6903	0.1916	0.041
Mof_Cu	Cu	0.6428	0.10759	0.2503	0.906
Mof_O 	O 	0.5263	0.08885	0.12976	-0.41
Mof_O 	O 	0.52655	0.11847	0.16002	-0.414
Mof_O 	O 	0.59383	0.12112	0.22245	-0.409
Mof_O 	O 	0.62206	0.0895	0.2255	-0.406
Mof_O 	O 	0.62499	0.02603	0.15698	-0.413
Mof_O 	O 	0.59464	0.02602	0.12726	-0.413
Mof_O 	O 	0.65841	0.12709	0.22227	-0.412
Mof_O 	O 	0.63051	0.15889	0.22531	-0.422
Mof_C 	C 	0.53507	0.099	0.14958	0.383
Mof_C 	C 	0.5579	0.08689	0.16163	-0.125
Mof_C 	C 	0.56855	0.09778	0.18298	0.07
Mof_H 	H 	0.561	0.1124	0.1905	0.042
Mof_C 	C 	0.59057	0.0872	0.19348	-0.123
Mof_C 	C 	0.60219	0.06637	0.18209	0.071
Mof_H 	H 	0.6174	0.0596	0.1891	0.041
Mof_C 	C 	0.5917	0.05543	0.16066	-0.125
Mof_C 	C 	0.56919	0.06555	0.15028	0.068
Mof_H 	H 	0.5617	0.058	0.1357	0.042
Mof_C 	C 	0.60312	0.10023	0.21555	0.375
Mof_C 	C 	0.605	0.03408	0.14731	0.384
Mof_C 	C 	0.64933	0.14812	0.21616	0.394
Mof_C 	C 	0.66217	0.16114	0.19446	-0.128
Mof_C 	C 	0.65094	0.18314	0.18387	0.072
Mof_H 	H 	0.6363	0.1903	0.1916	0.041
Mof_Cu	Cu	0.6428	0.60759	0.7503	0.906
Mof_O 	O 	0.5263	0.58885	0.62976	-0.41
Mof_O 	O 	0.52655	0.61847	0.66002	-0.414
Mof_O 	O 	0.59383	0.62112	0.72245	-0.409
Mof_O 	O 	0.62206	0.5895	0.7255	-0.406
Mof_O 	O 	0.62499	0.52603	0.65698	-0.412
Mof_O 	O 	0.59464	0.52602	0.62726	-0.412
Mof_O 	O 	0.65841	0.62709	0.72227	-0.412
Mof_O 	O 	0.63051	0.65889	0.72531	-0.422
Mof_C 	C 	0.53507	0.599	0.64958	0.383
Mof_C 	C 	0.5579	0.58689	0.66163	-0.125
Mof_C 	C 	0.56855	0.59778	0.68298	0.07
Mof_H 	H 	0.561	0.6124	0.6905	0.042
Mof_C 	C 	0.59057	0.5872	0.69348	-0.123
Mof_C 	C 	0.60219	0.56637	0.68209	0.071
Mof_H 	H 	0.6174	0.5596	0.6891	0.041
Mof_C 	C 	0.5917	0.55543	0.66066	-0.124
Mof_C 	C 	0.56919	0.56555	0.65028	0.068
Mof_H 	H 	0.5617	0.558	0.6357	0.042
Mof_C 	C 	0.60312	0.60023	0.71555	0.375
Mof_C 	C 	0.605	0.53408	0.64731	0.383
Mof_C 	C 	0.64933	0.64812	0.71616	0.394
Mof_C 	C 	0.66217	0.66114	0.69446	-0.128
Mof_C 	C 	0.65094	0.68314	0.68387	0.072
Mof_H 	H 	0.6363	0.6903	0.6916	0.041
Mof_Cu	Cu	0.3572	0.2503	0.60759	0.906
Mof_O 	O 	0.4737	0.12976	0.58885	-0.41
Mof_O 	O 	0.47345	0.16002	0.61847	-0.414
Mof_O 	O 	0.40617	0.22245	0.62112	-0.409
Mof_O 	O 	0.37794	0.2255	0.5895	-0.406
Mof_O 	O 	0.37501	0.15698	0.52603	-0.412
Mof_O 	O 	0.40536	0.12726	0.52602	-0.412
Mof_O 	O 	0.34159	0.22227	0.62709	-0.412
Mof_O 	O 	0.36949	0.22531	0.65889	-0.422
Mof_C 	C 	0.46493	0.14958	0.599	0.383
Mof_C 	C 	0.4421	0.16163	0.58689	-0.125
Mof_C 	C 	0.43145	0.18298	0.59778	0.07
Mof_H 	H 	0.439	0.1905	0.6124	0.042
Mof_C 	C 	0.40943	0.19348	0.5872	-0.123
Mof_C 	C 	0.39781	0.18209	0.56637	0.071
Mof_H 	H 	0.3826	0.1891	0.5596	0.041
Mof_C 	C 	0.4083	0.16066	0.55543	-0.124
Mof_C 	C 	0.43081	0.15028	0.56555	0.068
Mof_H 	H 	0.4383	0.1357	0.558	0.042
Mof_C 	C 	0.39688	0.21555	0.60023	0.375
Mof_C 	C 	0.395	0.14731	0.53408	0.383
Mof_C 	C 	0.35067	0.21616	0.64812	0.394
Mof_C 	C 	0.33783	0.19446	0.66114	-0.128
Mof_C 	C 	0.34906	0.18387	0.68314	0.072
Mof_H 	H 	0.3637	0.1916	0.6903	0.041
Mof_Cu	Cu	0.3572	0.7503	0.10759	0.906
Mof_O 	O 	0.4737	0.62976	0.08885	-0.41
Mof_O 	O 	0.47345	0.66002	0.11847	-0.414
Mof_O 	O 	0.40617	0.72245	0.12112	-0.409
Mof_O 	O 	0.37794	0.7255	0.0895	-0.406
Mof_O 	O 	0.37501	0.65698	0.02603	-0.413
Mof_O 	O 	0.40536	0.62726	0.02602	-0.413
Mof_O 	O 	0.34159	0.72227	0.12709	-0.412
Mof_O 	O 	0.36949	0.72531	0.15889	-0.422
Mof_C 	C 	0.46493	0.64958	0.099	0.383
Mof_C 	C 	0.4421	0.66163	0.08689	-0.125
Mof_C 	C 	0.43145	0.68298	0.09778	0.07
Mof_H 	H 	0.439	0.6905	0.1124	0.042
Mof_C 	C 	0.40943	0.69348	0.0872	-0.123
Mof_C 	C 	0.39781	0.68209	0.06637	0.071
Mof_H 	H 	0.3826	0.6891	0.0596	0.041
Mof_C 	C 	0.4083	0.66066	0.05543	-0.125
Mof_C 	C 	0.43081	0.65028	0.06555	0.068
Mof_H 	H 	0.4383	0.6357	0.058	0.042
Mof_C 	C 	0.39688	0.71555	0.10023	0.375
Mof_C 	C 	0.395	0.64731	0.03408	0.383
Mof_C 	C 	0.35067	0.71616	0.14812	0.394
Mof_C 	C 	0.33783	0.69446	0.16114	-0.128
Mof_C 	C 	0.34906	0.68387	0.18314	0.072
Mof_H 	H 	0.3637	0.6916	0.1903	0.041
Mof_Cu	Cu	0.8572	0.2503	0.10759	0.906
Mof_O 	O 	0.9737	0.12976	0.08885	-0.409
Mof_O 	O 	0.97345	0.16002	0.11847	-0.414
Mof_O 	O 	0.90617	0.22245	0.12112	-0.409
Mof_O 	O 	0.87794	0.2255	0.0895	-0.406
Mof_O 	O 	0.87501	0.15698	0.02603	-0.413
Mof_O 	O 	0.90536	0.12726	0.02602	-0.413
Mof_O 	O 	0.84159	0.22227	0.12709	-0.412
Mof_O 	O 	0.86949	0.22531	0.15889	-0.422
Mof_C 	C 	0.96493	0.14958	0.099	0.383
Mof_C 	C 	0.9421	0.16163	0.08689	-0.125
Mof_C 	C 	0.93145	0.18298	0.09778	0.07
Mof_H 	H 	0.939	0.1905	0.1124	0.042
Mof_C 	C 	0.90943	0.19348	0.0872	-0.123
Mof_C 	C 	0.89781	0.18209	0.06637	0.071
Mof_H 	H 	0.8826	0.1891	0.0596	0.041
Mof_C 	C 	0.9083	0.16066	0.05543	-0.124
Mof_C 	C 	0.93081	0.15028	0.06555	0.068
Mof_H 	H 	0.9383	0.1357	0.058	0.042
Mof_C 	C 	0.89688	0.21555	0.10023	0.375
Mof_C 	C 	0.895	0.14731	0.03408	0.383
Mof_C 	C 	0.85067	0.21616	0.14812	0.394
Mof_C 	C 	0.83783	0.19446	0.16114	-0.128
Mof_C 	C 	0.84906	0.18387	0.18314	0.072
Mof_H 	H 	0.8637	0.1916	0.1903	0.041
Mof_Cu	Cu	0.8572	0.7503	0.60759	0.906
Mof_O 	O 	0.9737	0.62976	0.58885	-0.409
Mof_O 	O 	0.97345	0.66002	0.61847	-0.414
Mof_O 	O 	0.90617	0.72245	0.62112	-0.409
Mof_O 	O 	0.87794	0.7255	0.5895	-0.406
Mof_O 	O 	0.87501	0.65698	0.52603	-0.412
Mof_O 	O 	0.90536	0.62726	0.52602	-0.412
Mof_O 	O 	0.84159	0.72227	0.62709	-0.412
Mof_O 	O 	0.86949	0.72531	0.65889	-0.422
Mof_C 	C 	0.96493	0.64958	0.599	0.383
Mof_C 	C 	0.9421	0.66163	0.58689	-0.124
Mof_C 	C 	0.93145	0.68298	0.59778	0.07
Mof_H 	H 	0.939	0.6905	0.6124	0.042
Mof_C 	C 	0.90943	0.69348	0.5872	-0.123
Mof_C 	C 	0.89781	0.68209	0.56637	0.071
Mof_H 	H 	0.8826	0.6891	0.5596	0.041
Mof_C 	C 	0.9083	0.66066	0.55543	-0.124
Mof_C 	C 	0.93081	0.65028	0.56555	0.068
Mof_H 	H 	0.9383	0.6357	0.558	0.042
Mof_C 	C 	0.89688	0.71555	0.60023	0.375
Mof_C 	C 	0.895	0.64731	0.53408	0.383
Mof_C 	C 	0.85067	0.71616	0.64812	0.394
Mof_C 	C 	0.83783	0.69446	0.66114	-0.128
Mof_C 	C 	0.84906	0.68387	0.68314	0.072
Mof_H 	H 	0.8637	0.6916	0.6903	0.041
Mof_Cu	Cu	0.6428	0.7497	0.60759	0.906
Mof_O 	O 	0.5263	0.87024	0.58885	-0.409
Mof_O 	O 	0.52655	0.83998	0.61847	-0.414
Mof_O 	O 	0.59383	0.77755	0.62112	-0.409
Mof_O 	O 	0.62206	0.7745	0.5895	-0.406
Mof_O 	O 	0.62499	0.84302	0.52603	-0.412
Mof_O 	O 	0.59464	0.87274	0.52602	-0.412
Mof_O 	O 	0.65841	0.77773	0.62709	-0.412
Mof_O 	O 	0.63051	0.77469	0.65889	-0.422
Mof_C 	C 	0.53507	0.85042	0.599	0.383
Mof_C 	C 	0.5579	0.83837	0.58689	-0.125
Mof_C 	C 	0.56855	0.81702	0.59778	0.07
Mof_H 	H 	0.561	0.8095	0.6124	0.042
Mof_C 	C 	0.59057	0.80652	0.5872	-0.123
Mof_C 	C 	0.60219	0.81791	0.56637	0.071
Mof_H 	H 	0.6174	0.8109	0.5596	0.041
Mof_C 	C 	0.5917	0.83934	0.55543	-0.124
Mof_C 	C 	0.56919	0.84972	0.56555	0.068
Mof_H 	H 	0.5617	0.8643	0.558	0.042
Mof_C 	C 	0.60312	0.78445	0.60023	0.375
Mof_C 	C 	0.605	0.85269	0.53408	0.383
Mof_C 	C 	0.64933	0.78384	0.64812	0.394
Mof_C 	C 	0.66217	0.80554	0.66114	-0.128
Mof_C 	C 	0.65094	0.81613	0.68314	0.072
Mof_H 	H 	0.6363	0.8084	0.6903	0.041
Mof_Cu	Cu	0.6428	0.2497	0.10759	0.906
Mof_O 	O 	0.5263	0.37024	0.08885	-0.41
Mof_O 	O 	0.52655	0.33998	0.11847	-0.414
Mof_O 	O 	0.59383	0.27755	0.12112	-0.409
Mof_O 	O 	0.62206	0.2745	0.0895	-0.406
Mof_O 	O 	0.62499	0.34302	0.02603	-0.413
Mof_O 	O 	0.59464	0.37274	0.02602	-0.413
Mof_O 	O 	0.65841	0.27773	0.12709	-0.412
Mof_O 	O 	0.63051	0.27469	0.15889	-0.422
Mof_C 	C 	0.53507	0.35042	0.099	0.383
Mof_C 	C 	0.5579	0.33837	0.08689	-0.125
Mof_C 	C 	0.56855	0.31702	0.09778	0.07
Mof_H 	H 	0.561	0.3095	0.1124	0.042
Mof_C 	C 	0.59057	0.30652	0.0872	-0.123
Mof_C 	C 	0.60219	0.31791	0.06637	0.071
Mof_H 	H 	0.6174	0.3109	0.0596	0.041
Mof_C 	C 	0.5917	0.33934	0.05543	-0.125
Mof_C 	C 	0.56919	0.34972	0.06555	0.068
Mof_H 	H 	0.5617	0.3643	0.058	0.042
Mof_C 	C 	0.60312	0.28445	0.10023	0.375
Mof_C 	C 	0.605	0.35269	0.03408	0.383
Mof_C 	C 	0.64933	0.28384	0.14812	0.394
Mof_C 	C 	0.66217	0.30554	0.16114	-0.128
Mof_C 	C 	0.65094	0.31613	0.18314	0.072
Mof_H 	H 	0.6363	0.3084	0.1903	0.041
Mof_Cu	Cu	0.1428	0.7497	0.10759	0.906
Mof_O 	O 	0.0263	0.87024	0.08885	-0.41
Mof_O 	O 	0.02655	0.83998	0.11847	-0.415
Mof_O 	O 	0.09383	0.77755	0.12112	-0.409
Mof_O 	O 	0.12206	0.7745	0.0895	-0.406
Mof_O 	O 	0.12499	0.84302	0.02603	-0.413
Mof_O 	O 	0.09464	0.87274	0.02602	-0.413
Mof_O 	O 	0.15841	0.77773	0.12709	-0.412
Mof_O 	O 	0.13051	0.77469	0.15889	-0.422
Mof_C 	C 	0.03507	0.85042	0.099	0.383
Mof_C 	C 	0.0579	0.83837	0.08689	-0.125
Mof_C 	C 	0.06855	0.81702	0.09778	0.07
Mof_H 	H 	0.061	0.8095	0.1124	0.041
Mof_C 	C 	0.09057	0.80652	0.0872	-0.123
Mof_C 	C 	0.10219	0.81791	0.06637	0.071
Mof_H 	H 	0.1174	0.8109	0.0596	0.041
Mof_C 	C 	0.0917	0.83934	0.05543	-0.125
Mof_C 	C 	0.06919	0.84972	0.06555	0.068
Mof_H 	H 	0.0617	0.8643	0.058	0.042
Mof_C 	C 	0.10312	0.78445	0.10023	0.375
Mof_C 	C 	0.105	0.85269	0.03408	0.384
Mof_C 	C 	0.14933	0.78384	0.14812	0.394
Mof_C 	C 	0.16217	0.80554	0.16114	-0.128
Mof_C 	C 	0.15094	0.81613	0.18314	0.072
Mof_H 	H 	0.1363	0.8084	0.1903	0.041
Mof_Cu	Cu	0.1428	0.2497	0.60759	0.906
Mof_O 	O 	0.0263	0.37024	0.58885	-0.41
Mof_O 	O 	0.02655	0.33998	0.61847	-0.415
Mof_O 	O 	0.09383	0.27755	0.62112	-0.409
Mof_O 	O 	0.12206	0.2745	0.5895	-0.406
Mof_O 	O 	0.12499	0.34302	0.52603	-0.412
Mof_O 	O 	0.09464	0.37274	0.52602	-0.412
Mof_O 	O 	0.15841	0.27773	0.62709	-0.412
Mof_O 	O 	0.13051	0.27469	0.65889	-0.422
Mof_C 	C 	0.03507	0.35042	0.599	0.383
Mof_C 	C 	0.0579	0.33837	0.58689	-0.125
Mof_C 	C 	0.06855	0.31702	0.59778	0.07
Mof_H 	H 	0.061	0.3095	0.6124	0.042
Mof_C 	C 	0.09057	0.30652	0.5872	-0.123
Mof_C 	C 	0.10219	0.31791	0.56637	0.071
Mof_H 	H 	0.1174	0.3109	0.5596	0.041
Mof_C 	C 	0.0917	0.33934	0.55543	-0.125
Mof_C 	C 	0.06919	0.34972	0.56555	0.068
Mof_H 	H 	0.0617	0.3643	0.558	0.042
Mof_C 	C 	0.10312	0.28445	0.60023	0.375
Mof_C 	C 	0.105	0.35269	0.53408	0.383
Mof_C 	C 	0.14933	0.28384	0.64812	0.394
Mof_C 	C 	0.16217	0.30554	0.66114	-0.128
Mof_C 	C 	0.15094	0.31613	0.68314	0.072
Mof_H 	H 	0.1363	0.3084	0.6903	0.041
Mof_Cu	Cu	0.3572	0.7497	0.39241	0.906
Mof_O 	O 	0.4737	0.87024	0.41115	-0.409
Mof_O 	O 	0.47345	0.83998	0.38153	-0.414
Mof_O 	O 	0.40617	0.77755	0.37888	-0.409
Mof_O 	O 	0.37794	0.7745	0.4105	-0.406
Mof_O 	O 	0.37501	0.84302	0.47397	-0.412
Mof_O 	O 	0.40536	0.87274	0.47398	-0.412
Mof_O 	O 	0.34159	0.77773	0.37291	-0.412
Mof_O 	O 	0.36949	0.77469	0.34111	-0.422
Mof_C 	C 	0.46493	0.85042	0.401	0.383
Mof_C 	C 	0.4421	0.83837	0.41311	-0.125
Mof_C 	C 	0.43145	0.81702	0.40222	0.07
Mof_H 	H 	0.439	0.8095	0.3876	0.042
Mof_C 	C 	0.40943	0.80652	0.4128	-0.123
Mof_C 	C 	0.39781	0.81791	0.43363	0.071
Mof_H 	H 	0.3826	0.8109	0.4404	0.041
Mof_C 	C 	0.4083	0.83934	0.44457	-0.124
Mof_C 	C 	0.43081	0.84972	0.43445	0.068
Mof_H 	H 	0.4383	0.8643	0.442	0.042
Mof_C 	C 	0.39688	0.78445	0.39977	0.375
Mof_C 	C 	0.395	0.85269	0.46592	0.383
Mof_C 	C 	0.35067	0.78384	0.35188	0.394
Mof_C 	C 	0.33783	0.80554	0.33886	-0.128
Mof_C 	C 	0.34906	0.81613	0.31686	0.072
Mof_H 	H 	0.3637	0.8084	0.3097	0.041
Mof_Cu	Cu	0.3572	0.2497	0.89241	0.906
Mof_O 	O 	0.4737	0.37024	0.91115	-0.409
Mof_O 	O 	0.47345	0.33998	0.88153	-0.414
Mof_O 	O 	0.40617	0.27755	0.87888	-0.409
Mof_O 	O 	0.37794	0.2745	0.9105	-0.406
Mof_O 	O 	0.37501	0.34302	0.97397	-0.412
Mof_O 	O 	0.40536	0.37274	0.97398	-0.412
Mof_O 	O 	0.34159	0.27773	0.87291	-0.412
Mof_O 	O 	0.36949	0.27469	0.84111	-0.422
Mof_C 	C 	0.46493	0.35042	0.901	0.383
Mof_C 	C 	0.4421	0.33837	0.91311	-0.125
Mof_C 	C 	0.43145	0.31702	0.90222	0.07
Mof_H 	H 	0.439	0.3095	0.8876	0.042
Mof_C 	C 	0.40943	0.30652	0.9128	-0.123
Mof_C 	C 	0.39781	0.31791	0.93363	0.071
Mof_H 	H 	0.3826	0.3109	0.9404	0.041
Mof_C 	C 	0.4083	0.33934	0.94457	-0.124
Mof_C 	C 	0.43081	0.34972	0.93445	0.068
Mof_H 	H 	0.4383	0.3643	0.942	0.042
Mof_C 	C 	0.39688	0.28445	0.89977	0.375
Mof_C 	C 	0.395	0.35269	0.96592	0.383
Mof_C 	C 	0.35067	0.28384	0.85188	0.394
Mof_C 	C 	0.33783	0.30554	0.83886	-0.128
Mof_C 	C 	0.34906	0.31613	0.81686	0.072
Mof_H 	H 	0.3637	0.3084	0.8097	0.041
Mof_Cu	Cu	0.8572	0.7497	0.89241	0.906
Mof_O 	O 	0.9737	0.87024	0.91115	-0.409
Mof_O 	O 	0.97345	0.83998	0.88153	-0.414
Mof_O 	O 	0.90617	0.77755	0.87888	-0.409
Mof_O 	O 	0.87794	0.7745	0.9105	-0.406
Mof_O 	O 	0.87501	0.84302	0.97397	-0.412
Mof_O 	O 	0.90536	0.87274	0.97398	-0.412
Mof_O 	O 	0.84159	0.77773	0.87291	-0.412
Mof_O 	O 	0.86949	0.77469	0.84111	-0.422
Mof_C 	C 	0.96493	0.85042	0.901	0.383
Mof_C 	C 	0.9421	0.83837	0.91311	-0.124
Mof_C 	C 	0.93145	0.81702	0.90222	0.07
Mof_H 	H 	0.939	0.8095	0.8876	0.042
Mof_C 	C 	0.90943	0.80652	0.9128	-0.122
Mof_C 	C 	0.89781	0.81791	0.93363	0.071
Mof_H 	H 	0.8826	0.8109	0.9404	0.041
Mof_C 	C 	0.9083	0.83934	0.94457	-0.124
Mof_C 	C 	0.93081	0.84972	0.93445	0.068
Mof_H 	H 	0.9383	0.8643	0.942	0.042
Mof_C 	C 	0.89688	0.78445	0.89977	0.375
Mof_C 	C 	0.895	0.85269	0.96592	0.383
Mof_C 	C 	0.85067	0.78384	0.85188	0.394
Mof_C 	C 	0.83783	0.80554	0.83886	-0.128
Mof_C 	C 	0.84906	0.81613	0.81686	0.072
Mof_H 	H 	0.8637	0.8084	0.8097	0.041
Mof_Cu	Cu	0.8572	0.2497	0.39241	0.906
Mof_O 	O 	0.9737	0.37024	0.41115	-0.409
Mof_O 	O 	0.97345	0.33998	0.38153	-0.414
Mof_O 	O 	0.90617	0.27755	0.37888	-0.409
Mof_O 	O 	0.87794	0.2745	0.4105	-0.406
Mof_O 	O 	0.87501	0.34302	0.47397	-0.412
Mof_O 	O 	0.90536	0.37274	0.47398	-0.412
Mof_O 	O 	0.84159	0.27773	0.37291	-0.412
Mof_O 	O 	0.86949	0.27469	0.34111	-0.422
Mof_C 	C 	0.96493	0.35042	0.401	0.383
Mof_C 	C 	0.9421	0.33837	0.41311	-0.124
Mof_C 	C 	0.93145	0.31702	0.40222	0.07
Mof_H 	H 	0.939	0.3095	0.3876	0.042
Mof_C 	C 	0.90943	0.30652	0.4128	-0.123
Mof_C 	C 	0.89781	0.31791	0.43363	0.071
Mof_H 	H 	0.8826	0.3109	0.4404	0.041
Mof_C 	C 	0.9083	0.33934	0.44457	-0.124
Mof_C 	C 	0.93081	0.34972	0.43445	0.068
Mof_H 	H 	0.9383	0.3643	0.442	0.042
Mof_C 	C 	0.89688	0.28445	0.39977	0.375
Mof_C 	C 	0.895	0.35269	0.46592	0.383
Mof_C 	C 	0.85067	0.28384	0.35188	0.394
Mof_C 	C 	0.83783	0.30554	0.33886	-0.128
Mof_C 	C 	0.84906	0.31613	0.31686	0.072
Mof_H 	H 	0.8637	0.3084	0.3097	0.041
Mof_Cu	Cu	0.6428	0.2503	0.39241	0.906
Mof_O 	O 	0.5263	0.12976	0.41115	-0.41
Mof_O 	O 	0.52655	0.16002	0.38153	-0.414
Mof_O 	O 	0.59383	0.22245	0.37888	-0.409
Mof_O 	O 	0.62206	0.2255	0.4105	-0.406
Mof_O 	O 	0.62499	0.15698	0.47397	-0.412
Mof_O 	O 	0.59464	0.12726	0.47398	-0.412
Mof_O 	O 	0.65841	0.22227	0.37291	-0.412
Mof_O 	O 	0.63051	0.22531	0.34111	-0.422
Mof_C 	C 	0.53507	0.14958	0.401	0.383
Mof_C 	C 	0.5579	0.16163	0.41311	-0.125
Mof_C 	C 	0.56855	0.18298	0.40222	0.07
Mof_H 	H 	0.561	0.1905	0.3876	0.042
Mof_C 	C 	0.59057	0.19348	0.4128	-0.123
Mof_C 	C 	0.60219	0.18209	0.43363	0.071
Mof_H 	H 	0.6174	0.1891	0.4404	0.041
Mof_C 	C 	0.5917	0.16066	0.44457	-0.124
Mof_C 	C 	0.56919	0.15028	0.43445	0.068
Mof_H 	H 	0.5617	0.1357	0.442	0.042
Mof_C 	C 	0.60312	0.21555	0.39977	0.375
Mof_C 	C 	0.605	0.14731	0.46592	0.383
Mof_C 	C 	0.64933	0.21616	0.35188	0.394
Mof_C 	C 	0.66217	0.19446	0.33886	-0.128
Mof_C 	C 	0.65094	0.18387	0.31686	0.072
Mof_H 	H 	0.6363	0.1916	0.3097	0.041
Mof_Cu	Cu	0.6428	0.7503	0.89241	0.906
Mof_O 	O 	0.5263	0.62976	0.91115	-0.409
Mof_O 	O 	0.52655	0.66002	0.88153	-0.414
Mof_O 	O 	0.59383	0.72245	0.87888	-0.409
Mof_O 	O 	0.62206	0.7255	0.9105	-0.406
Mof_O 	O 	0.62499	0.65698	0.97397	-0.412
Mof_O 	O 	0.59464	0.62726	0.97398	-0.412
Mof_O 	O 	0.65841	0.72227	0.87291	-0.412
Mof_O 	O 	0.63051	0.72531	0.84111	-0.422
Mof_C 	C 	0.53507	0.64958	0.901	0.383
Mof_C 	C 	0.5579	0.66163	0.91311	-0.125
Mof_C 	C 	0.56855	0.68298	0.90222	0.07
Mof_H 	H 	0.561	0.6905	0.8876	0.042
Mof_C 	C 	0.59057	0.69348	0.9128	-0.123
Mof_C 	C 	0.60219	0.68209	0.93363	0.071
Mof_H 	H 	0.6174	0.6891	0.9404	0.041
Mof_C 	C 	0.5917	0.66066	0.94457	-0.124
Mof_C 	C 	0.56919	0.65028	0.93445	0.068
Mof_H 	H 	0.5617	0.6357	0.942	0.042
Mof_C 	C 	0.60312	0.71555	0.89977	0.375
Mof_C 	C 	0.605	0.64731	0.96592	0.383
Mof_C 	C 	0.64933	0.71616	0.85188	0.394
Mof_C 	C 	0.66217	0.69446	0.83886	-0.128
Mof_C 	C 	0.65094	0.68387	0.81686	0.072
Mof_H 	H 	0.6363	0.6916	0.8097	0.041
Mof_Cu	Cu	0.1428	0.2503	0.89241	0.906
Mof_O 	O 	0.0263	0.12976	0.91115	-0.41
Mof_O 	O 	0.02655	0.16002	0.88153	-0.415
Mof_O 	O 	0.09383	0.22245	0.87888	-0.409
Mof_O 	O 	0.12206	0.2255	0.9105	-0.406
Mof_O 	O 	0.12499	0.15698	0.97397	-0.412
Mof_O 	O 	0.09464	0.12726	0.97398	-0.412
Mof_O 	O 	0.15841	0.22227	0.87291	-0.412
Mof_O 	O 	0.13051	0.22531	0.84111	-0.422
Mof_C 	C 	0.03507	0.14958	0.901	0.383
Mof_C 	C 	0.0579	0.16163	0.91311	-0.125
Mof_C 	C 	0.06855	0.18298	0.90222	0.07
Mof_H 	H 	0.061	0.1905	0.8876	0.042
Mof_C 	C 	0.09057	0.19348	0.9128	-0.123
Mof_C 	C 	0.10219	0.18209	0.93363	0.071
Mof_H 	H 	0.1174	0.1891	0.9404	0.041
Mof_C 	C 	0.0917	0.16066	0.94457	-0.124
Mof_C 	C 	0.06919	0.15028	0.93445	0.068
Mof_H 	H 	0.0617	0.1357	0.942	0.042
Mof_C 	C 	0.10312	0.21555	0.89977	0.375
Mof_C 	C 	0.105	0.14731	0.96592	0.383
Mof_C 	C 	0.14933	0.21616	0.85188	0.394
Mof_C 	C 	0.16217	0.19446	0.83886	-0.128
Mof_C 	C 	0.15094	0.18387	0.81686	0.072
Mof_H 	H 	0.1363	0.1916	0.8097	0.041
Mof_Cu	Cu	0.1428	0.7503	0.39241	0.906
Mof_O 	O 	0.0263	0.62976	0.41115	-0.41
Mof_O 	O 	0.02655	0.66002	0.38153	-0.415
Mof_O 	O 	0.09383	0.72245	0.37888	-0.409
Mof_O 	O 	0.12206	0.7255	0.4105	-0.406
Mof_O 	O 	0.12499	0.65698	0.47397	-0.412
Mof_O 	O 	0.09464	0.62726	0.47398	-0.412
Mof_O 	O 	0.15841	0.72227	0.37291	-0.412
Mof_O 	O 	0.13051	0.72531	0.34111	-0.422
Mof_C 	C 	0.03507	0.64958	0.401	0.383
Mof_C 	C 	0.0579	0.66163	0.41311	-0.125
Mof_C 	C 	0.06855	0.68298	0.40222	0.07
Mof_H 	H 	0.061	0.6905	0.3876	0.042
Mof_C 	C 	0.09057	0.69348	0.4128	-0.123
Mof_C 	C 	0.10219	0.68209	0.43363	0.071
Mof_H 	H 	0.1174	0.6891	0.4404	0.041
Mof_C 	C 	0.0917	0.66066	0.44457	-0.125
Mof_C 	C 	0.06919	0.65028	0.43445	0.068
Mof_H 	H 	0.0617	0.6357	0.442	0.042
Mof_C 	C 	0.10312	0.71555	0.39977	0.375
Mof_C 	C 	0.105	0.64731	0.46592	0.383
Mof_C 	C 	0.14933	0.71616	0.35188	0.394
Mof_C 	C 	0.16217	0.69446	0.33886	-0.128
Mof_C 	C 	0.15094	0.68387	0.31686	0.072
Mof_H 	H 	0.1363	0.6916	0.3097	0.041
Mof_Cu	Cu	0.2503	0.39241	0.6428	0.906
Mof_O 	O 	0.12976	0.41115	0.5263	-0.41
Mof_O 	O 	0.16002	0.38153	0.52655	-0.414
Mof_O 	O 	0.22245	0.37888	0.59383	-0.409
Mof_O 	O 	0.2255	0.4105	0.62206	-0.406
Mof_O 	O 	0.15698	0.47397	0.62499	-0.412
Mof_O 	O 	0.12726	0.47398	0.59464	-0.412
Mof_O 	O 	0.22227	0.37291	0.65841	-0.412
Mof_O 	O 	0.22531	0.34111	0.63051	-0.422
Mof_C 	C 	0.14958	0.401	0.53507	0.383
Mof_C 	C 	0.16163	0.41311	0.5579	-0.125
Mof_C 	C 	0.18298	0.40222	0.56855	0.07
Mof_H 	H 	0.1905	0.3876	0.561	0.042
Mof_C 	C 	0.19348	0.4128	0.59057	-0.123
Mof_C 	C 	0.18209	0.43363	0.60219	0.071
Mof_H 	H 	0.1891	0.4404	0.6174	0.041
Mof_C 	C 	0.16066	0.44457	0.5917	-0.124
Mof_C 	C 	0.15028	0.43445	0.56919	0.068
Mof_H 	H 	0.1357	0.442	0.5617	0.042
Mof_C 	C 	0.21555	0.39977	0.60312	0.375
Mof_C 	C 	0.14731	0.46592	0.605	0.383
Mof_C 	C 	0.21616	0.35188	0.64933	0.394
Mof_C 	C 	0.19446	0.33886	0.66217	-0.128
Mof_C 	C 	0.18387	0.31686	0.65094	0.072
Mof_H 	H 	0.1916	0.3097	0.6363	0.041
Mof_Cu	Cu	0.2503	0.89241	0.1428	0.906
Mof_O 	O 	0.12976	0.91115	0.0263	-0.41
Mof_O 	O 	0.16002	0.88153	0.02655	-0.415
Mof_O 	O 	0.22245	0.87888	0.09383	-0.409
Mof_O 	O 	0.2255	0.9105	0.12206	-0.406
Mof_O 	O 	0.15698	0.97397	0.12499	-0.412
Mof_O 	O 	0.12726	0.97398	0.09464	-0.412
Mof_O 	O 	0.22227	0.87291	0.15841	-0.412
Mof_O 	O 	0.22531	0.84111	0.13051	-0.422
Mof_C 	C 	0.14958	0.901	0.03507	0.383
Mof_C 	C 	0.16163	0.91311	0.0579	-0.125
Mof_C 	C 	0.18298	0.90222	0.06855	0.07
Mof_H 	H 	0.1905	0.8876	0.061	0.042
Mof_C 	C 	0.19348	0.9128	0.09057	-0.123
Mof_C 	C 	0.18209	0.93363	0.10219	0.071
Mof_H 	H 	0.1891	0.9404	0.1174	0.041
Mof_C 	C 	0.16066	0.94457	0.0917	-0.124
Mof_C 	C 	0.15028	0.93445	0.06919	0.068
Mof_H 	H 	0.1357	0.942	0.0617	0.042
Mof_C 	C 	0.21555	0.89977	0.10312	0.375
Mof_C 	C 	0.14731	0.96592	0.105	0.383
Mof_C 	C 	0.21616	0.85188	0.14933	0.394
Mof_C 	C 	0.19446	0.83886	0.16217	-0.128
Mof_C 	C 	0.18387	0.81686	0.15094	0.072
Mof_H 	H 	0.1916	0.8097	0.1363	0.041
Mof_Cu	Cu	0.7503	0.39241	0.1428	0.906
Mof_O 	O 	0.62976	0.41115	0.0263	-0.41
Mof_O 	O 	0.66002	0.38153	0.02655	-0.415
Mof_O 	O 	0.72245	0.37888	0.09383	-0.409
Mof_O 	O 	0.7255	0.4105	0.12206	-0.406
Mof_O 	O 	0.65698	0.47397	0.12499	-0.412
Mof_O 	O 	0.62726	0.47398	0.09464	-0.412
Mof_O 	O 	0.72227	0.37291	0.15841	-0.412
Mof_O 	O 	0.72531	0.34111	0.13051	-0.422
Mof_C 	C 	0.64958	0.401	0.03507	0.383
Mof_C 	C 	0.66163	0.41311	0.0579	-0.125
Mof_C 	C 	0.68298	0.40222	0.06855	0.07
Mof_H 	H 	0.6905	0.3876	0.061	0.042
Mof_C 	C 	0.69348	0.4128	0.09057	-0.123
Mof_C 	C 	0.68209	0.43363	0.10219	0.071
Mof_H 	H 	0.6891	0.4404	0.1174	0.041
Mof_C 	C 	0.66066	0.44457	0.0917	-0.125
Mof_C 	C 	0.65028	0.43445	0.06919	0.068
Mof_H 	H 	0.6357	0.442	0.0617	0.042
Mof_C 	C 	0.71555	0.39977	0.10312	0.375
Mof_C 	C 	0.64731	0.46592	0.105	0.383
Mof_C 	C 	0.71616	0.35188	0.14933	0.394
Mof_C 	C 	0.69446	0.33886	0.16217	-0.128
Mof_C 	C 	0.68387	0.31686	0.15094	0.072
Mof_H 	H 	0.6916	0.3097	0.1363	0.041
Mof_Cu	Cu	0.7503	0.89241	0.6428	0.906
Mof_O 	O 	0.62976	0.91115	0.5263	-0.409
Mof_O 	O 	0.66002	0.88153	0.52655	-0.414
Mof_O 	O 	0.72245	0.87888	0.59383	-0.409
Mof_O 	O 	0.7255	0.9105	0.62206	-0.406
Mof_O 	O 	0.65698	0.97397	0.62499	-0.412
Mof_O 	O 	0.62726	0.97398	0.59464	-0.412
Mof_O 	O 	0.72227	0.87291	0.65841	-0.412
Mof_O 	O 	0.72531	0.84111	0.63051	-0.422
Mof_C 	C 	0.64958	0.901	0.53507	0.383
Mof_C 	C 	0.66163	0.91311	0.5579	-0.125
Mof_C 	C 	0.68298	0.90222	0.56855	0.07
Mof_H 	H 	0.6905	0.8876	0.561	0.042
Mof_C 	C 	0.69348	0.9128	0.59057	-0.123
Mof_C 	C 	0.68209	0.93363	0.60219	0.071
Mof_H 	H 	0.6891	0.9404	0.6174	0.041
Mof_C 	C 	0.66066	0.94457	0.5917	-0.124
Mof_C 	C 	0.65028	0.93445	0.56919	0.068
Mof_H 	H 	0.6357	0.942	0.5617	0.042
Mof_C 	C 	0.71555	0.89977	0.60312	0.375
Mof_C 	C 	0.64731	0.96592	0.605	0.383
Mof_C 	C 	0.71616	0.85188	0.64933	0.394
Mof_C 	C 	0.69446	0.83886	0.66217	-0.128
Mof_C 	C 	0.68387	0.81686	0.65094	0.072
Mof_H 	H 	0.6916	0.8097	0.6363	0.041
Mof_Cu	Cu	0.7497	0.39241	0.3572	0.906
Mof_O 	O 	0.87024	0.41115	0.4737	-0.409
Mof_O 	O 	0.83998	0.38153	0.47345	-0.414
Mof_O 	O 	0.77755	0.37888	0.40617	-0.409
Mof_O 	O 	0.7745	0.4105	0.37794	-0.406
Mof_O 	O 	0.84302	0.47397	0.37501	-0.412
Mof_O 	O 	0.87274	0.47398	0.40536	-0.412
Mof_O 	O 	0.77773	0.37291	0.34159	-0.412
Mof_O 	O 	0.77469	0.34111	0.36949	-0.422
Mof_C 	C 	0.85042	0.401	0.46493	0.383
Mof_C 	C 	0.83837	0.41311	0.4421	-0.125
Mof_C 	C 	0.81702	0.40222	0.43145	0.07
Mof_H 	H 	0.8095	0.3876	0.439	0.042
Mof_C 	C 	0.80652	0.4128	0.40943	-0.123
Mof_C 	C 	0.81791	0.43363	0.39781	0.071
Mof_H 	H 	0.8109	0.4404	0.3826	0.041
Mof_C 	C 	0.83934	0.44457	0.4083	-0.124
Mof_C 	C 	0.84972	0.43445	0.43081	0.068
Mof_H 	H 	0.8643	0.442	0.4383	0.042
Mof_C 	C 	0.78445	0.39977	0.39688	0.375
Mof_C 	C 	0.85269	0.46592	0.395	0.383
Mof_C 	C 	0.78384	0.35188	0.35067	0.394
Mof_C 	C 	0.80554	0.33886	0.33783	-0.128
Mof_C 	C 	0.81613	0.31686	0.34906	0.072
Mof_H 	H 	0.8084	0.3097	0.3637	0.041
Mof_Cu	Cu	0.7497	0.89241	0.8572	0.906
Mof_O 	O 	0.87024	0.91115	0.9737	-0.409
Mof_O 	O 	0.83998	0.88153	0.97345	-0.414
Mof_O 	O 	0.77755	0.87888	0.90617	-0.409
Mof_O 	O 	0.7745	0.9105	0.87794	-0.406
Mof_O 	O 	0.84302	0.97397	0.87501	-0.412
Mof_O 	O 	0.87274	0.97398	0.90536	-0.412
Mof_O 	O 	0.77773	0.87291	0.84159	-0.412
Mof_O 	O 	0.77469	0.84111	0.86949	-0.422
Mof_C 	C 	0.85042	0.901	0.96493	0.383
Mof_C 	C 	0.83837	0.91311	0.9421	-0.124
Mof_C 	C 	0.81702	0.90222	0.93145	0.07
Mof_H 	H 	0.8095	0.8876	0.939	0.042
Mof_C 	C 	0.80652	0.9128	0.90943	-0.122
Mof_C 	C 	0.81791	0.93363	0.89781	0.071
Mof_H 	H 	0.8109	0.9404	0.8826	0.041
Mof_C 	C 	0.83934	0.94457	0.9083	-0.124
Mof_C 	C 	0.84972	0.93445	0.93081	0.068
Mof_H 	H 	0.8643	0.942	0.9383	0.042
Mof_C 	C 	0.78445	0.89977	0.89688	0.375
Mof_C 	C 	0.85269	0.96592	0.895	0.383
Mof_C 	C 	0.78384	0.85188	0.85067	0.394
Mof_C 	C 	0.80554	0.83886	0.83783	-0.128
Mof_C 	C 	0.81613	0.81686	0.84906	0.072
Mof_H 	H 	0.8084	0.8097	0.8637	0.041
Mof_Cu	Cu	0.2497	0.39241	0.8572	0.906
Mof_O 	O 	0.37024	0.41115	0.9737	-0.409
Mof_O 	O 	0.33998	0.38153	0.97345	-0.414
Mof_O 	O 	0.27755	0.37888	0.90617	-0.409
Mof_O 	O 	0.2745	0.4105	0.87794	-0.406
Mof_O 	O 	0.34302	0.47397	0.87501	-0.412
Mof_O 	O 	0.37274	0.47398	0.90536	-0.412
Mof_O 	O 	0.27773	0.37291	0.84159	-0.412
Mof_O 	O 	0.27469	0.34111	0.86949	-0.422
Mof_C 	C 	0.35042	0.401	0.96493	0.383
Mof_C 	C 	0.33837	0.41311	0.9421	-0.124
Mof_C 	C 	0.31702	0.40222	0.93145	0.07
Mof_H 	H 	0.3095	0.3876	0.939	0.042
Mof_C 	C 	0.30652	0.4128	0.90943	-0.123
Mof_C 	C 	0.31791	0.43363	0.89781	0.071
Mof_H 	H 	0.3109	0.4404	0.8826	0.041
Mof_C 	C 	0.33934	0.44457	0.9083	-0.124
Mof_C 	C 	0.34972	0.43445	0.93081	0.068
Mof_H 	H 	0.3643	0.442	0.9383	0.042
Mof_C 	C 	0.28445	0.39977	0.89688	0.375
Mof_C 	C 	0.35269	0.46592	0.895	0.383
Mof_C 	C 	0.28384	0.35188	0.85067	0.394
Mof_C 	C 	0.30554	0.33886	0.83783	-0.128
Mof_C 	C 	0.31613	0.31686	0.84906	0.072
Mof_H 	H 	0.3084	0.3097	0.8637	0.041
Mof_Cu	Cu	0.2497	0.89241	0.3572	0.906
Mof_O 	O 	0.37024	0.91115	0.4737	-0.409
Mof_O 	O 	0.33998	0.88153	0.47345	-0.414
Mof_O 	O 	0.27755	0.87888	0.40617	-0.409
Mof_O 	O 	0.2745	0.9105	0.37794	-0.406
Mof_O 	O 	0.34302	0.97397	0.37501	-0.412
Mof_O 	O 	0.37274	0.97398	0.40536	-0.412
Mof_O 	O 	0.27773	0.87291	0.34159	-0.412
Mof_O 	O 	0.27469	0.84111	0.36949	-0.422
Mof_C 	C 	0.35042	0.901	0.46493	0.383
Mof_C 	C 	0.33837	0.91311	0.4421	-0.125
Mof_C 	C 	0.31702	0.90222	0.43145	0.07
Mof_H 	H 	0.3095	0.8876	0.439	0.042
Mof_C 	C 	0.30652	0.9128	0.40943	-0.123
Mof_C 	C 	0.31791	0.93363	0.39781	0.071
Mof_H 	H 	0.3109	0.9404	0.3826	0.041
Mof_C 	C 	0.33934	0.94457	0.4083	-0.124
Mof_C 	C 	0.34972	0.93445	0.43081	0.068
Mof_H 	H 	0.3643	0.942	0.4383	0.042
Mof_C 	C 	0.28445	0.89977	0.39688	0.375
Mof_C 	C 	0.35269	0.96592	0.395	0.383
Mof_C 	C 	0.28384	0.85188	0.35067	0.394
Mof_C 	C 	0.30554	0.83886	0.33783	-0.128
Mof_C 	C 	0.31613	0.81686	0.34906	0.072
Mof_H 	H 	0.3084	0.8097	0.3637	0.041
Mof_Cu	Cu	0.7497	0.60759	0.6428	0.906
Mof_O 	O 	0.87024	0.58885	0.5263	-0.409
Mof_O 	O 	0.83998	0.61847	0.52655	-0.414
Mof_O 	O 	0.77755	0.62112	0.59383	-0.409
Mof_O 	O 	0.7745	0.5895	0.62206	-0.406
Mof_O 	O 	0.84302	0.52603	0.62499	-0.412
Mof_O 	O 	0.87274	0.52602	0.59464	-0.412
Mof_O 	O 	0.77773	0.62709	0.65841	-0.412
Mof_O 	O 	0.77469	0.65889	0.63051	-0.422
Mof_C 	C 	0.85042	0.599	0.53507	0.383
Mof_C 	C 	0.83837	0.58689	0.5579	-0.125
Mof_C 	C 	0.81702	0.59778	0.56855	0.07
Mof_H 	H 	0.8095	0.6124	0.561	0.042
Mof_C 	C 	0.80652	0.5872	0.59057	-0.123
Mof_C 	C 	0.81791	0.56637	0.60219	0.071
Mof_H 	H 	0.8109	0.5596	0.6174	0.041
Mof_C 	C 	0.83934	0.55543	0.5917	-0.124
Mof_C 	C 	0.84972	0.56555	0.56919	0.068
Mof_H 	H 	0.8643	0.558	0.5617	0.042
Mof_C 	C 	0.78445	0.60023	0.60312	0.375
Mof_C 	C 	0.85269	0.53408	0.605	0.383
Mof_C 	C 	0.78384	0.64812	0.64933	0.394
Mof_C 	C 	0.80554	0.66114	0.66217	-0.128
Mof_C 	C 	0.81613	0.68314	0.65094	0.072
Mof_H 	H 	0.8084	0.6903	0.6363	0.041
Mof_Cu	Cu	0.7497	0.10759	0.1428	0.906
Mof_O 	O 	0.87024	0.08885	0.0263	-0.41
Mof_O 	O 	0.83998	0.11847	0.02655	-0.415
Mof_O 	O 	0.77755	0.12112	0.09383	-0.409
Mof_O 	O 	0.7745	0.0895	0.12206	-0.406
Mof_O 	O 	0.84302	0.02603	0.12499	-0.413
Mof_O 	O 	0.87274	0.02602	0.09464	-0.413
Mof_O 	O 	0.77773	0.12709	0.15841	-0.412
Mof_O 	O 	0.77469	0.15889	0.13051	-0.422
Mof_C 	C 	0.85042	0.099	0.03507	0.383
Mof_C 	C 	0.83837	0.08689	0.0579	-0.125
Mof_C 	C 	0.81702	0.09778	0.06855	0.07
Mof_H 	H 	0.8095	0.1124	0.061	0.041
Mof_C 	C 	0.80652	0.0872	0.09057	-0.123
Mof_C 	C 	0.81791	0.06637	0.10219	0.071
Mof_H 	H 	0.8109	0.0596	0.1174	0.041
Mof_C 	C 	0.83934	0.05543	0.0917	-0.125
Mof_C 	C 	0.84972	0.06555	0.06919	0.068
Mof_H 	H 	0.8643	0.058	0.0617	0.042
Mof_C 	C 	0.78445	0.10023	0.10312	0.375
Mof_C 	C 	0.85269	0.03408	0.105	0.384
Mof_C 	C 	0.78384	0.14812	0.14933	0.394
Mof_C 	C 	0.80554	0.16114	0.16217	-0.128
Mof_C 	C 	0.81613	0.18314	0.15094	0.072
Mof_H 	H 	0.8084	0.1903	0.1363	0.041
Mof_Cu	Cu	0.2497	0.60759	0.1428	0.906
Mof_O 	O 	0.37024	0.58885	0.0263	-0.41
Mof_O 	O 	0.33998	0.61847	0.02655	-0.415
Mof_O 	O 	0.27755	0.62112	0.09383	-0.409
Mof_O 	O 	0.2745	0.5895	0.12206	-0.406
Mof_O 	O 	0.34302	0.52603	0.12499	-0.412
Mof_O 	O 	0.37274	0.52602	0.09464	-0.412
Mof_O 	O 	0.27773	0.62709	0.15841	-0.412
Mof_O 	O 	0.27469	0.65889	0.13051	-0.422
Mof_C 	C 	0.35042	0.599	0.03507	0.383
Mof_C 	C 	0.33837	0.58689	0.0579	-0.125
Mof_C 	C 	0.31702	0.59778	0.06855	0.07
Mof_H 	H 	0.3095	0.6124	0.061	0.042
Mof_C 	C 	0.30652	0.5872	0.09057	-0.123
Mof_C 	C 	0.31791	0.56637	0.10219	0.071
Mof_H 	H 	0.3109	0.5596	0.1174	0.041
Mof_C 	C 	0.33934	0.55543	0.0917	-0.125
Mof_C 	C 	0.34972	0.56555	0.06919	0.068
Mof_H 	H 	0.3643	0.558	0.0617	0.042
Mof_C 	C 	0.28445	0.60023	0.10312	0.375
Mof_C 	C 	0.35269	0.53408	0.105	0.383
Mof_C 	C 	0.28384	0.64812	0.14933	0.394
Mof_C 	C 	0.30554	0.66114	0.16217	-0.128
Mof_C 	C 	0.31613	0.68314	0.15094	0.072
Mof_H 	H 	0.3084	0.6903	0.1363	0.041
Mof_Cu	Cu	0.2497	0.10759	0.6428	0.906
Mof_O 	O 	0.37024	0.08885	0.5263	-0.41
Mof_O 	O 	0.33998	0.11847	0.52655	-0.414
Mof_O 	O 	0.27755	0.12112	0.59383	-0.409
Mof_O 	O 	0.2745	0.0895	0.62206	-0.406
Mof_O 	O 	0.34302	0.02603	0.62499	-0.413
Mof_O 	O 	0.37274	0.02602	0.59464	-0.413
Mof_O 	O 	0.27773	0.12709	0.65841	-0.412
Mof_O 	O 	0.27469	0.15889	0.63051	-0.422
Mof_C 	C 	0.35042	0.099	0.53507	0.383
Mof_C 	C 	0.33837	0.08689	0.5579	-0.125
Mof_C 	C 	0.31702	0.09778	0.56855	0.07
Mof_H 	H 	0.3095	0.1124	0.561	0.042
Mof_C 	C 	0.30652	0.0872	0.59057	-0.123
Mof_C 	C 	0.31791	0.06637	0.60219	0.071
Mof_H 	H 	0.3109	0.0596	0.6174	0.041
Mof_C 	C 	0.33934	0.05543	0.5917	-0.125
Mof_C 	C 	0.34972	0.06555	0.56919	0.068
Mof_H 	H 	0.3643	0.058	0.5617	0.042
Mof_C 	C 	0.28445	0.10023	0.60312	0.375
Mof_C 	C 	0.35269	0.03408	0.605	0.383
Mof_C 	C 	0.28384	0.14812	0.64933	0.394
Mof_C 	C 	0.30554	0.16114	0.66217	-0.128
Mof_C 	C 	0.31613	0.18314	0.65094	0.072
Mof_H 	H 	0.3084	0.1903	0.6363	0.041
Mof_Cu	Cu	0.2503	0.60759	0.3572	0.906
Mof_O 	O 	0.12976	0.58885	0.4737	-0.41
Mof_O 	O 	0.16002	0.61847	0.47345	-0.414
Mof_O 	O 	0.22245	0.62112	0.40617	-0.409
Mof_O 	O 	0.2255	0.5895	0.37794	-0.406
Mof_O 	O 	0.15698	0.52603	0.37501	-0.412
Mof_O 	O 	0.12726	0.52602	0.40536	-0.412
Mof_O 	O 	0.22227	0.62709	0.34159	-0.412
Mof_O 	O 	0.22531	0.65889	0.36949	-0.422
Mof_C 	C 	0.14958	0.599	0.46493	0.383
Mof_C 	C 	0.16163	0.58689	0.4421	-0.125
Mof_C 	C 	0.18298	0.59778	0.43145	0.07
Mof_H 	H 	0.1905	0.6124	0.439	0.042
Mof_C 	C 	0.19348	0.5872	0.40943	-0.123
Mof_C 	C 	0.18209	0.56637	0.39781	0.071
Mof_H 	H 	0.1891	0.5596	0.3826	0.041
Mof_C 	C 	0.16066	0.55543	0.4083	-0.124
Mof_C 	C 	0.15028	0.56555	0.43081	0.068
Mof_H 	H 	0.1357	0.558	0.4383	0.042
Mof_C 	C 	0.21555	0.60023	0.39688	0.375
Mof_C 	C 	0.14731	0.53408	0.395	0.383
Mof_C 	C 	0.21616	0.64812	0.35067	0.394
Mof_C 	C 	0.19446	0.66114	0.33783	-0.128
Mof_C 	C 	0.18387	0.68314	0.34906	0.072
Mof_H 	H 	0.1916	0.6903	0.3637	0.041
Mof_Cu	Cu	0.2503	0.10759	0.8572	0.906
Mof_O 	O 	0.12976	0.08885	0.9737	-0.409
Mof_O 	O 	0.16002	0.11847	0.97345	-0.414
Mof_O 	O 	0.22245	0.12112	0.90617	-0.409
Mof_O 	O 	0.2255	0.0895	0.87794	-0.406
Mof_O 	O 	0.15698	0.02603	0.87501	-0.413
Mof_O 	O 	0.12726	0.02602	0.90536	-0.413
Mof_O 	O 	0.22227	0.12709	0.84159	-0.412
Mof_O 	O 	0.22531	0.15889	0.86949	-0.422
Mof_C 	C 	0.14958	0.099	0.96493	0.383
Mof_C 	C 	0.16163	0.08689	0.9421	-0.125
Mof_C 	C 	0.18298	0.09778	0.93145	0.07
Mof_H 	H 	0.1905	0.1124	0.939	0.042
Mof_C 	C 	0.19348	0.0872	0.90943	-0.123
Mof_C 	C 	0.18209	0.06637	0.89781	0.071
Mof_H 	H 	0.1891	0.0596	0.8826	0.041
Mof_C 	C 	0.16066	0.05543	0.9083	-0.124
Mof_C 	C 	0.15028	0.06555	0.93081	0.068
Mof_H 	H 	0.1357	0.058	0.9383	0.042
Mof_C 	C 	0.21555	0.10023	0.89688	0.375
Mof_C 	C 	0.14731	0.03408	0.895	0.383
Mof_C 	C 	0.21616	0.14812	0.85067	0.394
Mof_C 	C 	0.19446	0.16114	0.83783	-0.128
Mof_C 	C 	0.18387	0.18314	0.84906	0.072
Mof_H 	H 	0.1916	0.1903	0.8637	0.041
Mof_Cu	Cu	0.7503	0.60759	0.8572	0.906
Mof_O 	O 	0.62976	0.58885	0.9737	-0.409
Mof_O 	O 	0.66002	0.61847	0.97345	-0.414
Mof_O 	O 	0.72245	0.62112	0.90617	-0.409
Mof_O 	O 	0.7255	0.5895	0.87794	-0.406
Mof_O 	O 	0.65698	0.52603	0.87501	-0.412
Mof_O 	O 	0.62726	0.52602	0.90536	-0.412
Mof_O 	O 	0.72227	0.62709	0.84159	-0.412
Mof_O 	O 	0.72531	0.65889	0.86949	-0.422
Mof_C 	C 	0.64958	0.599	0.96493	0.383
Mof_C 	C 	0.66163	0.58689	0.9421	-0.124
Mof_C 	C 	0.68298	0.59778	0.93145	0.07
Mof_H 	H 	0.6905	0.6124	0.939	0.042
Mof_C 	C 	0.69348	0.5872	0.90943	-0.123
Mof_C 	C 	0.68209	0.56637	0.89781	0.071
Mof_H 	H 	0.6891	0.5596	0.8826	0.041
Mof_C 	C 	0.66066	0.55543	0.9083	-0.124
Mof_C 	C 	0.65028	0.56555	0.93081	0.068
Mof_H 	H 	0.6357	0.558	0.9383	0.042
Mof_C 	C 	0.71555	0.60023	0.89688	0.375
Mof_C 	C 	0.64731	0.53408	0.895	0.383
Mof_C 	C 	0.71616	0.64812	0.85067	0.394
Mof_C 	C 	0.69446	0.66114	0.83783	-0.128
Mof_C 	C 	0.68387	0.68314	0.84906	0.072
Mof_H 	H 	0.6916	0.6903	0.8637	0.041
Mof_Cu	Cu	0.7503	0.10759	0.3572	0.906
Mof_O 	O 	0.62976	0.08885	0.4737	-0.41
Mof_O 	O 	0.66002	0.11847	0.47345	-0.414
Mof_O 	O 	0.72245	0.12112	0.40617	-0.409
Mof_O 	O 	0.7255	0.0895	0.37794	-0.406
Mof_O 	O 	0.65698	0.02603	0.37501	-0.413
Mof_O 	O 	0.62726	0.02602	0.40536	-0.413
Mof_O 	O 	0.72227	0.12709	0.34159	-0.412
Mof_O 	O 	0.72531	0.15889	0.36949	-0.422
Mof_C 	C 	0.64958	0.099	0.46493	0.383
Mof_C 	C 	0.66163	0.08689	0.4421	-0.125
Mof_C 	C 	0.68298	0.09778	0.43145	0.07
Mof_H 	H 	0.6905	0.1124	0.439	0.042
Mof_C 	C 	0.69348	0.0872	0.40943	-0.123
Mof_C 	C 	0.68209	0.06637	0.39781	0.071
Mof_H 	H 	0.6891	0.0596	0.3826	0.041
Mof_C 	C 	0.66066	0.05543	0.4083	-0.125
Mof_C 	C 	0.65028	0.06555	0.43081	0.068
Mof_H 	H 	0.6357	0.058	0.4383	0.042
Mof_C 	C 	0.71555	0.10023	0.39688	0.375
Mof_C 	C 	0.64731	0.03408	0.395	0.383
Mof_C 	C 	0.71616	0.14812	0.35067	0.394
Mof_C 	C 	0.69446	0.16114	0.33783	-0.128
Mof_C 	C 	0.68387	0.18314	0.34906	0.072
Mof_H 	H 	0.6916	0.1903	0.3637	0.041
Mof_Cu	Cu	0.39241	0.3572	0.7497	0.906
Mof_O 	O 	0.41115	0.4737	0.87024	-0.409
Mof_O 	O 	0.38153	0.47345	0.83998	-0.414
Mof_O 	O 	0.37888	0.40617	0.77755	-0.409
Mof_O 	O 	0.4105	0.37794	0.7745	-0.406
Mof_O 	O 	0.47397	0.37501	0.84302	-0.412
Mof_O 	O 	0.47398	0.40536	0.87274	-0.412
Mof_O 	O 	0.37291	0.34159	0.77773	-0.412
Mof_O 	O 	0.34111	0.36949	0.77469	-0.422
Mof_C 	C 	0.401	0.46493	0.85042	0.383
Mof_C 	C 	0.41311	0.4421	0.83837	-0.125
Mof_C 	C 	0.40222	0.43145	0.81702	0.07
Mof_H 	H 	0.3876	0.439	0.8095	0.042
Mof_C 	C 	0.4128	0.40943	0.80652	-0.123
Mof_C 	C 	0.43363	0.39781	0.81791	0.071
Mof_H 	H 	0.4404	0.3826	0.8109	0.041
Mof_C 	C 	0.44457	0.4083	0.83934	-0.124
Mof_C 	C 	0.43445	0.43081	0.84972	0.068
Mof_H 	H 	0.442	0.4383	0.8643	0.042
Mof_C 	C 	0.39977	0.39688	0.78445	0.375
Mof_C 	C 	0.46592	0.395	0.85269	0.383
Mof_C 	C 	0.35188	0.35067	0.78384	0.394
Mof_C 	C 	0.33886	0.33783	0.80554	-0.128
Mof_C 	C 	0.31686	0.34906	0.81613	0.072
Mof_H 	H 	0.3097	0.3637	0.8084	0.041
Mof_Cu	Cu	0.39241	0.8572	0.2497	0.906
Mof_O 	O 	0.41115	0.9737	0.37024	-0.409
Mof_O 	O 	0.38153	0.97345	0.33998	-0.414
Mof_O 	O 	0.37888	0.90617	0.27755	-0.409
Mof_O 	O 	0.4105	0.87794	0.2745	-0.406
Mof_O 	O 	0.47397	0.87501	0.34302	-0.412
Mof_O 	O 	0.47398	0.90536	0.37274	-0.412
Mof_O 	O 	0.37291	0.84159	0.27773	-0.412
Mof_O 	O 	0.34111	0.86949	0.27469	-0.422
Mof_C 	C 	0.401	0.96493	0.35042	0.383
Mof_C 	C 	0.41311	0.9421	0.33837	-0.124
Mof_C 	C 	0.40222	0.93145	0.31702	0.07
Mof_H 	H 	0.3876	0.939	0.3095	0.042
Mof_C 	C 	0.4128	0.90943	0.30652	-0.123
Mof_C 	C 	0.43363	0.89781	0.31791	0.071
Mof_H 	H 	0.4404	0.8826	0.3109	0.041
Mof_C 	C 	0.44457	0.9083	0.33934	-0.124
Mof_C 	C 	0.43445	0.93081	0.34972	0.068
Mof_H 	H 	0.442	0.9383	0.3643	0.042
Mof_C 	C 	0.39977	0.89688	0.28445	0.375
Mof_C 	C 	0.46592	0.895	0.35269	0.383
Mof_C 	C 	0.35188	0.85067	0.28384	0.394
Mof_C 	C 	0.33886	0.83783	0.30554	-0.128
Mof_C 	C 	0.31686	0.84906	0.31613	0.072
Mof_H 	H 	0.3097	0.8637	0.3084	0.041
Mof_Cu	Cu	0.89241	0.3572	0.2497	0.906
Mof_O 	O 	0.91115	0.4737	0.37024	-0.409
Mof_O 	O 	0.88153	0.47345	0.33998	-0.414
Mof_O 	O 	0.87888	0.40617	0.27755	-0.409
Mof_O 	O 	0.9105	0.37794	0.2745	-0.406
Mof_O 	O 	0.97397	0.37501	0.34302	-0.412
Mof_O 	O 	0.97398	0.40536	0.37274	-0.412
Mof_O 	O 	0.87291	0.34159	0.27773	-0.412
Mof_O 	O 	0.84111	0.36949	0.27469	-0.422
Mof_C 	C 	0.901	0.46493	0.35042	0.383
Mof_C 	C 	0.91311	0.4421	0.33837	-0.125
Mof_C 	C 	0.90222	0.43145	0.31702	0.07
Mof_H 	H 	0.8876	0.439	0.3095	0.042
Mof_C 	C 	0.9128	0.40943	0.30652	-0.123
Mof_C 	C 	0.93363	0.39781	0.31791	0.071
Mof_H 	H 	0.9404	0.3826	0.3109	0.041
Mof_C 	C 	0.94457	0.4083	0.33934	-0.124
Mof_C 	C 	0.93445	0.43081	0.34972	0.068
Mof_H 	H 	0.942	0.4383	0.3643	0.042
Mof_C 	C 	0.89977	0.39688	0.28445	0.375
Mof_C 	C 	0.96592	0.395	0.35269	0.383
Mof_C 	C 	0.85188	0.35067	0.28384	0.394
Mof_C 	C 	0.83886	0.33783	0.30554	-0.128
Mof_C 	C 	0.81686	0.34906	0.31613	0.072
Mof_H 	H 	0.8097	0.3637	0.3084	0.041
Mof_Cu	Cu	0.89241	0.8572	0.7497	0.906
Mof_O 	O 	0.91115	0.9737	0.87024	-0.409
Mof_O 	O 	0.88153	0.97345	0.83998	-0.414
Mof_O 	O 	0.87888	0.90617	0.77755	-0.409
Mof_O 	O 	0.9105	0.87794	0.7745	-0.406
Mof_O 	O 	0.97397	0.87501	0.84302	-0.412
Mof_O 	O 	0.97398	0.90536	0.87274	-0.412
Mof_O 	O 	0.87291	0.84159	0.77773	-0.412
Mof_O 	O 	0.84111	0.86949	0.77469	-0.422
Mof_C 	C 	0.901	0.96493	0.85042	0.383
Mof_C 	C 	0.91311	0.9421	0.83837	-0.124
Mof_C 	C 	0.90222	0.93145	0.81702	0.07
Mof_H 	H 	0.8876	0.939	0.8095	0.042
Mof_C 	C 	0.9128	0.90943	0.80652	-0.122
Mof_C 	C 	0.93363	0.89781	0.81791	0.071
Mof_H 	H 	0.9404	0.8826	0.8109	0.041
Mof_C 	C 	0.94457	0.9083	0.83934	-0.124
Mof_C 	C 	0.93445	0.93081	0.84972	0.068
Mof_H 	H 	0.942	0.9383	0.8643	0.042
Mof_C 	C 	0.89977	0.89688	0.78445	0.375
Mof_C 	C 	0.96592	0.895	0.85269	0.383
Mof_C 	C 	0.85188	0.85067	0.78384	0.394
Mof_C 	C 	0.83886	0.83783	0.80554	-0.128
Mof_C 	C 	0.81686	0.84906	0.81613	0.072
Mof_H 	H 	0.8097	0.8637	0.8084	0.041
Mof_Cu	Cu	0.39241	0.6428	0.2503	0.906
Mof_O 	O 	0.41115	0.5263	0.12976	-0.41
Mof_O 	O 	0.38153	0.52655	0.16002	-0.414
Mof_O 	O 	0.37888	0.59383	0.22245	-0.409
Mof_O 	O 	0.4105	0.62206	0.2255	-0.406
Mof_O 	O 	0.47397	0.62499	0.15698	-0.412
Mof_O 	O 	0.47398	0.59464	0.12726	-0.412
Mof_O 	O 	0.37291	0.65841	0.22227	-0.412
Mof_O 	O 	0.34111	0.63051	0.22531	-0.422
Mof_C 	C 	0.401	0.53507	0.14958	0.383
Mof_C 	C 	0.41311	0.5579	0.16163	-0.125
Mof_C 	C 	0.40222	0.56855	0.18298	0.07
Mof_H 	H 	0.3876	0.561	0.1905	0.042
Mof_C 	C 	0.4128	0.59057	0.19348	-0.123
Mof_C 	C 	0.43363	0.60219	0.18209	0.071
Mof_H 	H 	0.4404	0.6174	0.1891	0.041
Mof_C 	C 	0.44457	0.5917	0.16066	-0.124
Mof_C 	C 	0.43445	0.56919	0.15028	0.068
Mof_H 	H 	0.442	0.5617	0.1357	0.042
Mof_C 	C 	0.39977	0.60312	0.21555	0.375
Mof_C 	C 	0.46592	0.605	0.14731	0.383
Mof_C 	C 	0.35188	0.64933	0.21616	0.394
Mof_C 	C 	0.33886	0.66217	0.19446	-0.128
Mof_C 	C 	0.31686	0.65094	0.18387	0.072
Mof_H 	H 	0.3097	0.6363	0.1916	0.041
Mof_Cu	Cu	0.39241	0.1428	0.7503	0.906
Mof_O 	O 	0.41115	0.0263	0.62976	-0.41
Mof_O 	O 	0.38153	0.02655	0.66002	-0.415
Mof_O 	O 	0.37888	0.09383	0.72245	-0.409
Mof_O 	O 	0.4105	0.12206	0.7255	-0.406
Mof_O 	O 	0.47397	0.12499	0.65698	-0.412
Mof_O 	O 	0.47398	0.09464	0.62726	-0.412
Mof_O 	O 	0.37291	0.15841	0.72227	-0.412
Mof_O 	O 	0.34111	0.13051	0.72531	-0.422
Mof_C 	C 	0.401	0.03507	0.64958	0.383
Mof_C 	C 	0.41311	0.0579	0.66163	-0.125
Mof_C 	C 	0.40222	0.06855	0.68298	0.07
Mof_H 	H 	0.3876	0.061	0.6905	0.042
Mof_C 	C 	0.4128	0.09057	0.69348	-0.123
Mof_C 	C 	0.43363	0.10219	0.68209	0.071
Mof_H 	H 	0.4404	0.1174	0.6891	0.041
Mof_C 	C 	0.44457	0.0917	0.66066	-0.125
Mof_C 	C 	0.43445	0.06919	0.65028	0.068
Mof_H 	H 	0.442	0.0617	0.6357	0.042
Mof_C 	C 	0.39977	0.10312	0.71555	0.375
Mof_C 	C 	0.46592	0.105	0.64731	0.383
Mof_C 	C 	0.35188	0.14933	0.71616	0.394
Mof_C 	C 	0.33886	0.16217	0.69446	-0.128
Mof_C 	C 	0.31686	0.15094	0.68387	0.072
Mof_H 	H 	0.3097	0.1363	0.6916	0.041
Mof_Cu	Cu	0.89241	0.6428	0.7503	0.906
Mof_O 	O 	0.91115	0.5263	0.62976	-0.409
Mof_O 	O 	0.88153	0.52655	0.66002	-0.414
Mof_O 	O 	0.87888	0.59383	0.72245	-0.409
Mof_O 	O 	0.9105	0.62206	0.7255	-0.406
Mof_O 	O 	0.97397	0.62499	0.65698	-0.412
Mof_O 	O 	0.97398	0.59464	0.62726	-0.412
Mof_O 	O 	0.87291	0.65841	0.72227	-0.412
Mof_O 	O 	0.84111	0.63051	0.72531	-0.422
Mof_C 	C 	0.901	0.53507	0.64958	0.383
Mof_C 	C 	0.91311	0.5579	0.66163	-0.125
Mof_C 	C 	0.90222	0.56855	0.68298	0.07
Mof_H 	H 	0.8876	0.561	0.6905	0.042
Mof_C 	C 	0.9128	0.59057	0.69348	-0.123
Mof_C 	C 	0.93363	0.60219	0.68209	0.071
Mof_H 	H 	0.9404	0.6174	0.6891	0.041
Mof_C 	C 	0.94457	0.5917	0.66066	-0.124
Mof_C 	C 	0.93445	0.56919	0.65028	0.068
Mof_H 	H 	0.942	0.5617	0.6357	0.042
Mof_C 	C 	0.89977	0.60312	0.71555	0.375
Mof_C 	C 	0.96592	0.605	0.64731	0.383
Mof_C 	C 	0.85188	0.64933	0.71616	0.394
Mof_C 	C 	0.83886	0.66217	0.69446	-0.128
Mof_C 	C 	0.81686	0.65094	0.68387	0.072
Mof_H 	H 	0.8097	0.6363	0.6916	0.041
Mof_Cu	Cu	0.89241	0.1428	0.2503	0.906
Mof_O 	O 	0.91115	0.0263	0.12976	-0.41
Mof_O 	O 	0.88153	0.02655	0.16002	-0.415
Mof_O 	O 	0.87888	0.09383	0.22245	-0.409
Mof_O 	O 	0.9105	0.12206	0.2255	-0.406
Mof_O 	O 	0.97397	0.12499	0.15698	-0.412
Mof_O 	O 	0.97398	0.09464	0.12726	-0.412
Mof_O 	O 	0.87291	0.15841	0.22227	-0.412
Mof_O 	O 	0.84111	0.13051	0.22531	-0.422
Mof_C 	C 	0.901	0.03507	0.14958	0.383
Mof_C 	C 	0.91311	0.0579	0.16163	-0.125
Mof_C 	C 	0.90222	0.06855	0.18298	0.07
Mof_H 	H 	0.8876	0.061	0.1905	0.042
Mof_C 	C 	0.9128	0.09057	0.19348	-0.123
Mof_C 	C 	0.93363	0.10219	0.18209	0.071
Mof_H 	H 	0.9404	0.1174	0.1891	0.041
Mof_C 	C 	0.94457	0.0917	0.16066	-0.124
Mof_C 	C 	0.93445	0.06919	0.15028	0.068
Mof_H 	H 	0.942	0.0617	0.1357	0.042
Mof_C 	C 	0.89977	0.10312	0.21555	0.375
Mof_C 	C 	0.96592	0.105	0.14731	0.383
Mof_C 	C 	0.85188	0.14933	0.21616	0.394
Mof_C 	C 	0.83886	0.16217	0.19446	-0.128
Mof_C 	C 	0.81686	0.15094	0.18387	0.072
Mof_H 	H 	0.8097	0.1363	0.1916	0.041
Mof_Cu	Cu	0.60759	0.3572	0.2503	0.906
Mof_O 	O 	0.58885	0.4737	0.12976	-0.41
Mof_O 	O 	0.61847	0.47345	0.16002	-0.414
Mof_O 	O 	0.62112	0.40617	0.22245	-0.409
Mof_O 	O 	0.5895	0.37794	0.2255	-0.406
Mof_O 	O 	0.52603	0.37501	0.15698	-0.412
Mof_O 	O 	0.52602	0.40536	0.12726	-0.412
Mof_O 	O 	0.62709	0.34159	0.22227	-0.412
Mof_O 	O 	0.65889	0.36949	0.22531	-0.422
Mof_C 	C 	0.599	0.46493	0.14958	0.383
Mof_C 	C 	0.58689	0.4421	0.16163	-0.125
Mof_C 	C 	0.59778	0.43145	0.18298	0.07
Mof_H 	H 	0.6124	0.439	0.1905	0.042
Mof_C 	C 	0.5872	0.40943	0.19348	-0.123
Mof_C 	C 	0.56637	0.39781	0.18209	0.071
Mof_H 	H 	0.5596	0.3826	0.1891	0.041
Mof_C 	C 	0.55543	0.4083	0.16066	-0.124
Mof_C 	C 	0.56555	0.43081	0.15028	0.068
Mof_H 	H 	0.558	0.4383	0.1357	0.042
Mof_C 	C 	0.60023	0.39688	0.21555	0.375
Mof_C 	C 	0.53408	0.395	0.14731	0.383
Mof_C 	C 	0.64812	0.35067	0.21616	0.394
Mof_C 	C 	0.66114	0.33783	0.19446	-0.128
Mof_C 	C 	0.68314	0.34906	0.18387	0.072
Mof_H 	H 	0.6903	0.3637	0.1916	0.041
Mof_Cu	Cu	0.60759	0.8572	0.7503	0.906
Mof_O 	O 	0.58885	0.9737	0.62976	-0.409
Mof_O 	O 	0.61847	0.97345	0.66002	-0.414
Mof_O 	O 	0.62112	0.90617	0.72245	-0.409
Mof_O 	O 	0.5895	0.87794	0.7255	-0.406
Mof_O 	O 	0.52603	0.87501	0.65698	-0.412
Mof_O 	O 	0.52602	0.90536	0.62726	-0.412
Mof_O 	O 	0.62709	0.84159	0.72227	-0.412
Mof_O 	O 	0.65889	0.86949	0.72531	-0.422
Mof_C 	C 	0.599	0.96493	0.64958	0.383
Mof_C 	C 	0.58689	0.9421	0.66163	-0.124
Mof_C 	C 	0.59778	0.93145	0.68298	0.07
Mof_H 	H 	0.6124	0.939	0.6905	0.042
Mof_C 	C 	0.5872	0.90943	0.69348	-0.123
Mof_C 	C 	0.56637	0.89781	0.68209	0.071
Mof_H 	H 	0.5596	0.8826	0.6891	0.041
Mof_C 	C 	0.55543	0.9083	0.66066	-0.124
Mof_C 	C 	0.56555	0.93081	0.65028	0.068
Mof_H 	H 	0.558	0.9383	0.6357	0.042
Mof_C 	C 	0.60023	0.89688	0.71555	0.375
Mof_C 	C 	0.53408	0.895	0.64731	0.383
Mof_C 	C 	0.64812	0.85067	0.71616	0.394
Mof_C 	C 	0.66114	0.83783	0.69446	-0.128
Mof_C 	C 	0.68314	0.84906	0.68387	0.072
Mof_H 	H 	0.6903	0.8637	0.6916	0.041
Mof_Cu	Cu	0.10759	0.3572	0.7503	0.906
Mof_O 	O 	0.08885	0.4737	0.62976	-0.41
Mof_O 	O 	0.11847	0.47345	0.66002	-0.414
Mof_O 	O 	0.12112	0.40617	0.72245	-0.409
Mof_O 	O 	0.0895	0.37794	0.7255	-0.406
Mof_O 	O 	0.02603	0.37501	0.65698	-0.413
Mof_O 	O 	0.02602	0.40536	0.62726	-0.413
Mof_O 	O 	0.12709	0.34159	0.72227	-0.412
Mof_O 	O 	0.15889	0.36949	0.72531	-0.422
Mof_C 	C 	0.099	0.46493	0.64958	0.383
Mof_C 	C 	0.08689	0.4421	0.66163	-0.125
Mof_C 	C 	0.09778	0.43145	0.68298	0.07
Mof_H 	H 	0.1124	0.439	0.6905	0.042
Mof_C 	C 	0.0872	0.40943	0.69348	-0.123
Mof_C 	C 	0.06637	0.39781	0.68209	0.071
Mof_H 	H 	0.0596	0.3826	0.6891	0.041
Mof_C 	C 	0.05543	0.4083	0.66066	-0.125
Mof_C 	C 	0.06555	0.43081	0.65028	0.068
Mof_H 	H 	0.058	0.4383	0.6357	0.042
Mof_C 	C 	0.10023	0.39688	0.71555	0.375
Mof_C 	C 	0.03408	0.395	0.64731	0.383
Mof_C 	C 	0.14812	0.35067	0.71616	0.394
Mof_C 	C 	0.16114	0.33783	0.69446	-0.128
Mof_C 	C 	0.18314	0.34906	0.68387	0.072
Mof_H 	H 	0.1903	0.3637	0.6916	0.041
Mof_Cu	Cu	0.10759	0.8572	0.2503	0.906
Mof_O 	O 	0.08885	0.9737	0.12976	-0.409
Mof_O 	O 	0.11847	0.97345	0.16002	-0.414
Mof_O 	O 	0.12112	0.90617	0.22245	-0.409
Mof_O 	O 	0.0895	0.87794	0.2255	-0.406
Mof_O 	O 	0.02603	0.87501	0.15698	-0.413
Mof_O 	O 	0.02602	0.90536	0.12726	-0.413
Mof_O 	O 	0.12709	0.84159	0.22227	-0.412
Mof_O 	O 	0.15889	0.86949	0.22531	-0.422
Mof_C 	C 	0.099	0.96493	0.14958	0.383
Mof_C 	C 	0.08689	0.9421	0.16163	-0.125
Mof_C 	C 	0.09778	0.93145	0.18298	0.07
Mof_H 	H 	0.1124	0.939	0.1905	0.042
Mof_C 	C 	0.0872	0.90943	0.19348	-0.123
Mof_C 	C 	0.06637	0.89781	0.18209	0.071
Mof_H 	H 	0.0596	0.8826	0.1891	0.041
Mof_C 	C 	0.05543	0.9083	0.16066	-0.124
Mof_C 	C 	0.06555	0.93081	0.15028	0.068
Mof_H 	H 	0.058	0.9383	0.1357	0.042
Mof_C 	C 	0.10023	0.89688	0.21555	0.375
Mof_C 	C 	0.03408	0.895	0.14731	0.383
Mof_C 	C 	0.14812	0.85067	0.21616	0.394
Mof_C 	C 	0.16114	0.83783	0.19446	-0.128
Mof_C 	C 	0.18314	0.84906	0.18387	0.072
Mof_H 	H 	0.1903	0.8637	0.1916	0.041
Mof_Cu	Cu	0.60759	0.6428	0.7497	0.906
Mof_O 	O 	0.58885	0.5263	0.87024	-0.409
Mof_O 	O 	0.61847	0.52655	0.83998	-0.414
Mof_O 	O 	0.62112	0.59383	0.77755	-0.409
Mof_O 	O 	0.5895	0.62206	0.7745	-0.406
Mof_O 	O 	0.52603	0.62499	0.84302	-0.412
Mof_O 	O 	0.52602	0.59464	0.87274	-0.412
Mof_O 	O 	0.62709	0.65841	0.77773	-0.412
Mof_O 	O 	0.65889	0.63051	0.77469	-0.422
Mof_C 	C 	0.599	0.53507	0.85042	0.383
Mof_C 	C 	0.58689	0.5579	0.83837	-0.125
Mof_C 	C 	0.59778	0.56855	0.81702	0.07
Mof_H 	H 	0.6124	0.561	0.8095	0.042
Mof_C 	C 	0.5872	0.59057	0.80652	-0.123
Mof_C 	C 	0.56637	0.60219	0.81791	0.071
Mof_H 	H 	0.5596	0.6174	0.8109	0.041
Mof_C 	C 	0.55543	0.5917	0.83934	-0.124
Mof_C 	C 	0.56555	0.56919	0.84972	0.068
Mof_H 	H 	0.558	0.5617	0.8643	0.042
Mof_C 	C 	0.60023	0.60312	0.78445	0.375
Mof_C 	C 	0.53408	0.605	0.85269	0.383
Mof_C 	C 	0.64812	0.64933	0.78384	0.394
Mof_C 	C 	0.66114	0.66217	0.80554	-0.128
Mof_C 	C 	0.68314	0.65094	0.81613	0.072
Mof_H 	H 	0.6903	0.6363	0.8084	0.041
Mof_Cu	Cu	0.60759	0.1428	0.2497	0.906
Mof_O 	O 	0.58885	0.0263	0.37024	-0.41
Mof_O 	O 	0.61847	0.02655	0.33998	-0.415
Mof_O 	O 	0.62112	0.09383	0.27755	-0.409
Mof_O 	O 	0.5895	0.12206	0.2745	-0.406
Mof_O 	O 	0.52603	0.12499	0.34302	-0.412
Mof_O 	O 	0.52602	0.09464	0.37274	-0.412
Mof_O 	O 	0.62709	0.15841	0.27773	-0.412
Mof_O 	O 	0.65889	0.13051	0.27469	-0.422
Mof_C 	C 	0.599	0.03507	0.35042	0.383
Mof_C 	C 	0.58689	0.0579	0.33837	-0.125
Mof_C 	C 	0.59778	0.06855	0.31702	0.07
Mof_H 	H 	0.6124	0.061	0.3095	0.042
Mof_C 	C 	0.5872	0.09057	0.30652	-0.123
Mof_C 	C 	0.56637	0.10219	0.31791	0.071
Mof_H 	H 	0.5596	0.1174	0.3109	0.041
Mof_C 	C 	0.55543	0.0917	0.33934	-0.125
Mof_C 	C 	0.56555	0.06919	0.34972	0.068
Mof_H 	H 	0.558	0.0617	0.3643	0.042
Mof_C 	C 	0.60023	0.10312	0.28445	0.375
Mof_C 	C 	0.53408	0.105	0.35269	0.383
Mof_C 	C 	0.64812	0.14933	0.28384	0.394
Mof_C 	C 	0.66114	0.16217	0.30554	-0.128
Mof_C 	C 	0.68314	0.15094	0.31613	0.072
Mof_H 	H 	0.6903	0.1363	0.3084	0.041
Mof_Cu	Cu	0.10759	0.6428	0.2497	0.906
Mof_O 	O 	0.08885	0.5263	0.37024	-0.41
Mof_O 	O 	0.11847	0.52655	0.33998	-0.414
Mof_O 	O 	0.12112	0.59383	0.27755	-0.409
Mof_O 	O 	0.0895	0.62206	0.2745	-0.406
Mof_O 	O 	0.02603	0.62499	0.34302	-0.413
Mof_O 	O 	0.02602	0.59464	0.37274	-0.413
Mof_O 	O 	0.12709	0.65841	0.27773	-0.412
Mof_O 	O 	0.15889	0.63051	0.27469	-0.422
Mof_C 	C 	0.099	0.53507	0.35042	0.383
Mof_C 	C 	0.08689	0.5579	0.33837	-0.125
Mof_C 	C 	0.09778	0.56855	0.31702	0.07
Mof_H 	H 	0.1124	0.561	0.3095	0.042
Mof_C 	C 	0.0872	0.59057	0.30652	-0.123
Mof_C 	C 	0.06637	0.60219	0.31791	0.071
Mof_H 	H 	0.0596	0.6174	0.3109	0.041
Mof_C 	C 	0.05543	0.5917	0.33934	-0.125
Mof_C 	C 	0.06555	0.56919	0.34972	0.068
Mof_H 	H 	0.058	0.5617	0.3643	0.042
Mof_C 	C 	0.10023	0.60312	0.28445	0.375
Mof_C 	C 	0.03408	0.605	0.35269	0.383
Mof_C 	C 	0.14812	0.64933	0.28384	0.394
Mof_C 	C 	0.16114	0.66217	0.30554	-0.128
Mof_C 	C 	0.18314	0.65094	0.31613	0.072
Mof_H 	H 	0.1903	0.6363	0.3084	0.041
Mof_Cu	Cu	0.10759	0.1428	0.7497	0.906
Mof_O 	O 	0.08885	0.0263	0.87024	-0.41
Mof_O 	O 	0.11847	0.02655	0.83998	-0.415
Mof_O 	O 	0.12112	0.09383	0.77755	-0.409
Mof_O 	O 	0.0895	0.12206	0.7745	-0.406
Mof_O 	O 	0.02603	0.12499	0.84302	-0.413
Mof_O 	O 	0.02602	0.09464	0.87274	-0.413
Mof_O 	O 	0.12709	0.15841	0.77773	-0.412
Mof_O 	O 	0.15889	0.13051	0.77469	-0.422
Mof_C 	C 	0.099	0.03507	0.85042	0.383
Mof_C 	C 	0.08689	0.0579	0.83837	-0.125
Mof_C 	C 	0.09778	0.06855	0.81702	0.07
Mof_H 	H 	0.1124	0.061	0.8095	0.041
Mof_C 	C 	0.0872	0.09057	0.80652	-0.123
Mof_C 	C 	0.06637	0.10219	0.81791	0.071
Mof_H 	H 	0.0596	0.1174	0.8109	0.041
Mof_C 	C 	0.05543	0.0917	0.83934	-0.125
Mof_C 	C 	0.06555	0.06919	0.84972	0.068
Mof_H 	H 	0.058	0.0617	0.8643	0.042
Mof_C 	C 	0.10023	0.10312	0.78445	0.375
Mof_C 	C 	0.03408	0.105	0.85269	0.384
Mof_C 	C 	0.14812	0.14933	0.78384	0.394
Mof_C 	C 	0.16114	0.16217	0.80554	-0.128
Mof_C 	C 	0.18314	0.15094	0.81613	0.072
Mof_H 	H 	0.1903	0.1363	0.8084	0.041
Mof_Cu	Cu	0.39054	0	0.10535	0.908
Mof_Cu	Cu	0.35466	-1.39498e-33	0.14009	0.908
Mof_Cu	Cu	0.39054	0.5	0.60535	0.908
Mof_Cu	Cu	0.35466	0.5	0.64009	0.908
Mof_Cu	Cu	0.89054	0	0.60535	0.908
Mof_Cu	Cu	0.85466	0	0.64009	0.908
Mof_Cu	Cu	0.89054	0.5	0.10535	0.908
Mof_Cu	Cu	0.85466	0.5	0.14009	0.908
Mof_Cu	Cu	0.60946	0	0.10535	0.908
Mof_Cu	Cu	0.64534	-1.39498e-33	0.14009	0.908
Mof_Cu	Cu	0.60946	0.5	0.60535	0.908
Mof_Cu	Cu	0.64534	0.5	0.64009	0.908
Mof_Cu	Cu	0.10946	0	0.60535	0.908
Mof_Cu	Cu	0.14534	0	0.64009	0.908
Mof_Cu	Cu	0.10946	0.5	0.10535	0.908
Mof_Cu	Cu	0.14534	0.5	0.14009	0.908
Mof_Cu	Cu	0.60946	0	0.89465	0.908
Mof_Cu	Cu	0.64534	0	0.85991	0.908
Mof_Cu	Cu	0.60946	0.5	0.39465	0.908
Mof_Cu	Cu	0.64534	0.5	0.35991	0.908
Mof_Cu	Cu	0.10946	-2.78997e-33	0.39465	0.908
Mof_Cu	Cu	0.14534	0	0.35991	0.908
Mof_Cu	Cu	0.10946	0.5	0.89465	0.908
Mof_Cu	Cu	0.14534	0.5	0.85991	0.908
Mof_Cu	Cu	0.39054	0	0.89465	0.908
Mof_Cu	Cu	0.35466	0	0.85991	0.908
Mof_Cu	Cu	0.39054	0.5	0.39465	0.908
Mof_Cu	Cu	0.35466	0.5	0.35991	0.908
Mof_Cu	Cu	0.89054	-2.78997e-33	0.39465	0.908
Mof_Cu	Cu	0.85466	0	0.35991	0.908
Mof_Cu	Cu	0.89054	0.5	0.89465	0.909
Mof_Cu	Cu	0.85466	0.5	0.85991	0.908
Mof_Cu	Cu	0.10535	0.39054	-0	0.908
Mof_Cu	Cu	0.14009	0.35466	-0	0.908
Mof_Cu	Cu	0.10535	0.89054	0.5	0.908
Mof_Cu	Cu	0.14009	0.85466	0.5	0.908
Mof_Cu	Cu	0.60535	0.39054	0.5	0.908
Mof_Cu	Cu	0.64009	0.35466	0.5	0.908
Mof_Cu	Cu	0.60535	0.89054	-0	0.908
Mof_Cu	Cu	0.64009	0.85466	-0	0.908
Mof_Cu	Cu	0.10535	0.60946	-0	0.908
Mof_Cu	Cu	0.14009	0.64534	-0	0.908
Mof_Cu	Cu	0.10535	0.10946	0.5	0.908
Mof_Cu	Cu	0.14009	0.14534	0.5	0.908
Mof_Cu	Cu	0.60535	0.60946	0.5	0.908
Mof_Cu	Cu	0.64009	0.64534	0.5	0.908
Mof_Cu	Cu	0.60535	0.10946	-0	0.908
Mof_Cu	Cu	0.64009	0.14534	-0	0.908
Mof_Cu	Cu	0.89465	0.60946	-0	0.908
Mof_Cu	Cu	0.85991	0.64534	-0	0.908
Mof_Cu	Cu	0.89465	0.10946	0.5	0.908
Mof_Cu	Cu	0.85991	0.14534	0.5	0.908
Mof_Cu	Cu	0.39465	0.60946	0.5	0.908
Mof_Cu	Cu	0.35991	0.64534	0.5	0.908
Mof_Cu	Cu	0.39465	0.10946	-0	0.908
Mof_Cu	Cu	0.35991	0.14534	-0	0.908
Mof_Cu	Cu	0.89465	0.39054	-0	0.908
Mof_Cu	Cu	0.85991	0.35466	-0	0.908
Mof_Cu	Cu	0.89465	0.89054	0.5	0.909
Mof_Cu	Cu	0.85991	0.85466	0.5	0.908
Mof_Cu	Cu	0.39465	0.39054	0.5	0.908
Mof_Cu	Cu	0.35991	0.35466	0.5	0.908
Mof_Cu	Cu	0.39465	0.89054	-0	0.908
Mof_Cu	Cu	0.35991	0.85466	-0	0.908
Mof_Cu	Cu	1.46429e-33	0.10535	0.39054	0.908
Mof_Cu	Cu	-4.25017e-33	0.14009	0.35466	0.908
Mof_Cu	Cu	-7.82087e-33	0.60535	0.89054	0.908
Mof_Cu	Cu	1.43643e-32	0.64009	0.85466	0.908
Mof_Cu	Cu	0.5	0.10535	0.89054	0.908
Mof_Cu	Cu	0.5	0.14009	0.85466	0.908
Mof_Cu	Cu	0.5	0.60535	0.39054	0.908
Mof_Cu	Cu	0.5	0.64009	0.35466	0.908
Mof_Cu	Cu	-3.29482e-33	0.10535	0.60946	0.908
Mof_Cu	Cu	-3.16029e-33	0.14009	0.64534	0.908
Mof_Cu	Cu	4.59536e-33	0.60535	0.10946	0.908
Mof_Cu	Cu	-2.24503e-33	0.64009	0.14534	0.908
Mof_Cu	Cu	0.5	0.10535	0.10946	0.908
Mof_Cu	Cu	0.5	0.14009	0.14534	0.908
Mof_Cu	Cu	0.5	0.60535	0.60946	0.908
Mof_Cu	Cu	0.5	0.64009	0.64534	0.908
Mof_Cu	Cu	-3.29482e-33	0.89465	0.60946	0.908
Mof_Cu	Cu	7.99957e-33	0.85991	0.64534	0.908
Mof_Cu	Cu	-9.84574e-34	0.39465	0.10946	0.908
Mof_Cu	Cu	3.3349e-33	0.35991	0.14534	0.908
Mof_Cu	Cu	0.5	0.89465	0.10946	0.908
Mof_Cu	Cu	0.5	0.85991	0.14534	0.908
Mof_Cu	Cu	0.5	0.39465	0.60946	0.908
Mof_Cu	Cu	0.5	0.35991	0.64534	0.908
Mof_Cu	Cu	9.83419e-33	0.89465	0.39054	0.908
Mof_Cu	Cu	4.11973e-33	0.85991	0.35466	0.908
Mof_Cu	Cu	-7.82087e-33	0.39465	0.89054	0.908
Mof_Cu	Cu	3.20446e-33	0.35991	0.85466	0.908
Mof_Cu	Cu	0.5	0.89465	0.89054	0.909
Mof_Cu	Cu	0.5	0.85991	0.85466	0.908
Mof_Cu	Cu	0.5	0.39465	0.39054	0.908
Mof_Cu	Cu	0.5	0.35991	0.35466	0.908
Mof_Cu	Cu	0.5	0.89054	0.39465	0.909
Mof_Cu	Cu	0.5	0.85466	0.35991	0.908
Mof_Cu	Cu	0.5	0.39054	0.89465	0.909
Mof_Cu	Cu	0.5	0.35466	0.85991	0.908
Mof_Cu	Cu	3.3544e-33	0.89054	0.89465	0.908
Mof_Cu	Cu	1.4384e-32	0.85466	0.85991	0.908
Mof_Cu	Cu	-6.8902e-33	0.39054	0.39465	0.908
Mof_Cu	Cu	-1.44052e-33	0.35466	0.35991	0.908
Mof_Cu	Cu	0.5	0.10946	0.39465	0.908
Mof_Cu	Cu	0.5	0.14534	0.35991	0.908
Mof_Cu	Cu	0.5	0.60946	0.89465	0.909
Mof_Cu	Cu	0.5	0.64534	0.85991	0.908
Mof_Cu	Cu	3.3544e-33	0.10946	0.89465	0.908
Mof_Cu	Cu	3.22415e-33	0.14534	0.85991	0.908
Mof_Cu	Cu	1.4797e-33	0.60946	0.39465	0.908
Mof_Cu	Cu	1.25093e-32	0.64534	0.35991	0.908
Mof_Cu	Cu	0.5	0.10946	0.60535	0.908
Mof_Cu	Cu	0.5	0.14534	0.64009	0.908
Mof_Cu	Cu	0.5	0.60946	0.10535	0.908
Mof_Cu	Cu	0.5	0.64534	0.14009	0.908
Mof_Cu	Cu	3.94999e-34	0.10946	0.10535	0.908
Mof_Cu	Cu	-2.26471e-33	0.14534	0.14009	0.908
Mof_Cu	Cu	-3.31023e-33	0.60946	0.60535	0.908
Mof_Cu	Cu	7.97989e-33	0.64534	0.64009	0.908
Mof_Cu	Cu	0.5	0.89054	0.60535	0.909
Mof_Cu	Cu	0.5	0.85466	0.64009	0.908
Mof_Cu	Cu	0.5	0.39054	0.10535	0.908
Mof_Cu	Cu	0.5	0.35466	0.14009	0.908
Mof_Cu	Cu	1.01599e-32	0.89054	0.10535	0.908
Mof_Cu	Cu	1.02901e-32	0.85466	0.14009	0.908
Mof_Cu	Cu	-3.31023e-33	0.39054	0.60535	0.908
Mof_Cu	Cu	2.39995e-33	0.35466	0.64009	0.908
Mof_Cu	Cu	0.89054	0.60535	0.5	0.909
Mof_Cu	Cu	0.85466	0.64009	0.5	0.908
Mof_Cu	Cu	0.89054	0.10535	-0	0.908
Mof_Cu	Cu	0.85466	0.14009	-0	0.908
Mof_Cu	Cu	0.39054	0.60535	-0	0.908
Mof_Cu	Cu	0.35466	0.64009	-0	0.908
Mof_Cu	Cu	0.39054	0.10535	0.5	0.908
Mof_Cu	Cu	0.35466	0.14009	0.5	0.908
Mof_Cu	Cu	0.10946	0.60535	0.5	0.908
Mof_Cu	Cu	0.14534	0.64009	0.5	0.908
Mof_Cu	Cu	0.10946	0.10535	-0	0.908
Mof_Cu	Cu	0.14534	0.14009	-0	0.908
Mof_Cu	Cu	0.60946	0.60535	-0	0.908
Mof_Cu	Cu	0.64534	0.64009	-0	0.908
Mof_Cu	Cu	0.60946	0.10535	0.5	0.908
Mof_Cu	Cu	0.64534	0.14009	0.5	0.908
Mof_Cu	Cu	0.10946	0.39465	0.5	0.908
Mof_Cu	Cu	0.14534	0.35991	0.5	0.908
Mof_Cu	Cu	0.10946	0.89465	-0	0.908
Mof_Cu	Cu	0.14534	0.85991	-0	0.908
Mof_Cu	Cu	0.60946	0.39465	-0	0.908
Mof_Cu	Cu	0.64534	0.35991	-0	0.908
Mof_Cu	Cu	0.60946	0.89465	0.5	0.909
Mof_Cu	Cu	0.64534	0.85991	0.5	0.908
Mof_Cu	Cu	0.89054	0.39465	0.5	0.909
Mof_Cu	Cu	0.85466	0.35991	0.5	0.908
Mof_Cu	Cu	0.89054	0.89465	-0	0.908
Mof_Cu	Cu	0.85466	0.85991	-0	0.908
Mof_Cu	Cu	0.39054	0.39465	-0	0.908
Mof_Cu	Cu	0.35466	0.35991	-0	0.908
Mof_Cu	Cu	0.39054	0.89465	0.5	0.909
Mof_Cu	Cu	0.35466	0.85991	0.5	0.908
Mof_Cu	Cu	0.60535	0.5	0.10946	0.908
Mof_Cu	Cu	0.64009	0.5	0.14534	0.908
Mof_Cu	Cu	0.60535	-5.57993e-33	0.60946	0.908
Mof_Cu	Cu	0.64009	0	0.64534	0.908
Mof_Cu	Cu	0.10535	0.5	0.60946	0.908
Mof_Cu	Cu	0.14009	0.5	0.64534	0.908
Mof_Cu	Cu	0.10535	0	0.10946	0.908
Mof_Cu	Cu	0.14009	1.39498e-33	0.14534	0.908
Mof_Cu	Cu	0.60535	0.5	0.89054	0.909
Mof_Cu	Cu	0.64009	0.5	0.85466	0.908
Mof_Cu	Cu	0.60535	-2.78997e-33	0.39054	0.908
Mof_Cu	Cu	0.64009	-2.78997e-33	0.35466	0.908
Mof_Cu	Cu	0.10535	0.5	0.39054	0.908
Mof_Cu	Cu	0.14009	0.5	0.35466	0.908
Mof_Cu	Cu	0.10535	0	0.89054	0.908
Mof_Cu	Cu	0.14009	1.11599e-32	0.85466	0.908
Mof_Cu	Cu	0.39465	0.5	0.89054	0.909
Mof_Cu	Cu	0.35991	0.5	0.85466	0.908
Mof_Cu	Cu	0.39465	-2.78997e-33	0.39054	0.908
Mof_Cu	Cu	0.35991	-2.78997e-33	0.35466	0.908
Mof_Cu	Cu	0.89465	0.5	0.39054	0.909
Mof_Cu	Cu	0.85991	0.5	0.35466	0.908
Mof_Cu	Cu	0.89465	0	0.89054	0.908
Mof_Cu	Cu	0.85991	1.11599e-32	0.85466	0.908
Mof_Cu	Cu	0.39465	0.5	0.10946	0.908
Mof_Cu	Cu	0.35991	0.5	0.14534	0.908
Mof_Cu	Cu	0.39465	-5.57993e-33	0.60946	0.908
Mof_Cu	Cu	0.35991	0	0.64534	0.908
Mof_Cu	Cu	0.89465	0.5	0.60946	0.909
Mof_Cu	Cu	0.85991	0.5	0.64534	0.908
Mof_Cu	Cu	0.89465	0	0.10946	0.908
Mof_Cu	Cu	0.85991	1.39498e-33	0.14534	0.908
_end
