# CIF file generated by openbabel 3.1.0, see https://openbabel.org
data_I
_chemical_name_common 'image0'
_cell_length_a 12.537
_cell_length_b 14.977
_cell_length_c 15.404
_cell_angle_alpha 90
_cell_angle_beta 90
_cell_angle_gamma 90
_space_group_name_H-M_alt 'P 1'
_space_group_name_Hall 'P 1'
loop_
    _symmetry_equiv_pos_as_xyz
    x,y,z
loop_
    _atom_site_label
    _atom_site_type_symbol
    _atom_site_fract_x
    _atom_site_fract_y
    _atom_site_fract_z
    _atom_site_occupancy
    Mg1      Mg       0.99616    0.53021    0.94990    1.000
    Mg2      Mg       0.79941    0.67543    0.83546    1.000
    C1       C        0.90680    0.33610    0.71890    1.000
    H1       H        0.95810    0.32260    0.76140    1.000
    C2       C        0.81650    0.30010    0.58600    1.000
    H2       H        0.80590    0.26120    0.53880    1.000
    C3       C        0.89060    0.27820    0.64980    1.000
    O1       O        0.94190    0.46190    0.85070    1.000
    O2       O        0.80510    0.54390    0.80390    1.000
    C4       C        0.84770    0.41350    0.72520    1.000
    C5       C        0.86700    0.47880    0.79930    1.000
    C6       C        0.75790    0.37860    0.59120    1.000
    C7       C        0.77380    0.43510    0.66190    1.000
    H3       H        0.73400    0.48820    0.66660    1.000
    C8       C        0.13470    0.44460    0.04280    1.000
    O3       O        0.10790    0.52050    0.06750    1.000
    C9       C        0.95640    0.19400    0.64290    1.000
    O4       O        0.09380    0.42220    0.97760    1.000
    O5       O        0.03890    0.18990    0.68810    1.000
    O6       O        0.92380    0.13490    0.59140    1.000
    C10      C        0.67490    0.40310    0.52580    1.000
    O7       O        0.65870    0.35250    0.46340    1.000
    O8       O        0.62210    0.47340    0.53650    1.000
    C11      C        0.19570    0.39920    0.08350    1.000
    H4       H        0.24980    0.43680    0.10970    1.000
    H5       H        0.22950    0.35640    0.04500    1.000
    H6       H        0.15720    0.36760    0.12860    1.000
    Mg3      Mg       0.50384    0.46979    0.44990    1.000
    Mg4      Mg       0.70059    0.32457    0.33546    1.000
    C12      C        0.59320    0.66390    0.21890    1.000
    H7       H        0.54190    0.67740    0.26140    1.000
    C13      C        0.68350    0.69990    0.08600    1.000
    H8       H        0.69410    0.73880    0.03880    1.000
    C14      C        0.60940    0.72180    0.14980    1.000
    O9       O        0.55810    0.53810    0.35070    1.000
    O10      O        0.69490    0.45610    0.30390    1.000
    C15      C        0.65230    0.58650    0.22520    1.000
    C16      C        0.63300    0.52120    0.29930    1.000
    C17      C        0.74210    0.62140    0.09120    1.000
    C18      C        0.72620    0.56490    0.16190    1.000
    H9       H        0.76600    0.51180    0.16660    1.000
    C19      C        0.36530    0.55540    0.54280    1.000
    O11      O        0.39210    0.47950    0.56750    1.000
    C20      C        0.54360    0.80600    0.14290    1.000
    O12      O        0.40620    0.57780    0.47760    1.000
    O13      O        0.46110    0.81010    0.18810    1.000
    O14      O        0.57620    0.86510    0.09140    1.000
    C21      C        0.82510    0.59690    0.02580    1.000
    O15      O        0.84130    0.64750    0.96340    1.000
    O16      O        0.87790    0.52660    0.03650    1.000
    C22      C        0.30430    0.60080    0.58350    1.000
    H10      H        0.25020    0.56320    0.60970    1.000
    H11      H        0.27050    0.64360    0.54500    1.000
    H12      H        0.34280    0.63240    0.62860    1.000
    Mg5      Mg       0.00384    0.03021    0.55010    1.000
    Mg6      Mg       0.20059    0.17543    0.66454    1.000
    C23      C        0.09320    0.83610    0.78110    1.000
    H13      H        0.04190    0.82260    0.73860    1.000
    C24      C        0.18350    0.80010    0.91400    1.000
    H14      H        0.19410    0.76120    0.96120    1.000
    C25      C        0.10940    0.77820    0.85020    1.000
    O17      O        0.05810    0.96190    0.64930    1.000
    O18      O        0.19490    0.04390    0.69610    1.000
    C26      C        0.15230    0.91350    0.77480    1.000
    C27      C        0.13300    0.97880    0.70070    1.000
    C28      C        0.24210    0.87860    0.90880    1.000
    C29      C        0.22620    0.93510    0.83810    1.000
    H15      H        0.26600    0.98820    0.83340    1.000
    C30      C        0.86530    0.94460    0.45720    1.000
    O19      O        0.89210    0.02050    0.43250    1.000
    C31      C        0.04360    0.69400    0.85710    1.000
    O20      O        0.90620    0.92220    0.52240    1.000
    O21      O        0.96110    0.68990    0.81190    1.000
    O22      O        0.07620    0.63490    0.90860    1.000
    C32      C        0.32510    0.90310    0.97420    1.000
    O23      O        0.34130    0.85250    0.03660    1.000
    O24      O        0.37790    0.97340    0.96350    1.000
    C33      C        0.80430    0.89920    0.41650    1.000
    H16      H        0.75020    0.93680    0.39030    1.000
    H17      H        0.77050    0.85640    0.45500    1.000
    H18      H        0.84280    0.86760    0.37140    1.000
    Mg7      Mg       0.49616    0.96979    0.05010    1.000
    Mg8      Mg       0.29941    0.82457    0.16454    1.000
    C34      C        0.40680    0.16390    0.28110    1.000
    H19      H        0.45810    0.17740    0.23860    1.000
    C35      C        0.31650    0.19990    0.41400    1.000
    H20      H        0.30590    0.23880    0.46120    1.000
    C36      C        0.39060    0.22180    0.35020    1.000
    O25      O        0.44190    0.03810    0.14930    1.000
    O26      O        0.30510    0.95610    0.19610    1.000
    C37      C        0.34770    0.08650    0.27480    1.000
    C38      C        0.36700    0.02120    0.20070    1.000
    C39      C        0.25790    0.12140    0.40880    1.000
    C40      C        0.27380    0.06490    0.33810    1.000
    H21      H        0.23400    0.01180    0.33340    1.000
    C41      C        0.63470    0.05540    0.95720    1.000
    O27      O        0.60790    0.97950    0.93250    1.000
    C42      C        0.45640    0.30600    0.35710    1.000
    O28      O        0.59380    0.07780    0.02240    1.000
    O29      O        0.53890    0.31010    0.31190    1.000
    O30      O        0.42380    0.36510    0.40860    1.000
    C43      C        0.17490    0.09690    0.47420    1.000
    O31      O        0.15870    0.14750    0.53660    1.000
    O32      O        0.12210    0.02660    0.46350    1.000
    C44      C        0.69570    0.10080    0.91650    1.000
    H22      H        0.74980    0.06320    0.89030    1.000
    H23      H        0.72950    0.14360    0.95500    1.000
    H24      H        0.65720    0.13240    0.87140    1.000
