# CIF file generated by openbabel 3.1.0, see https://openbabel.org
data_I
_chemical_name_common 'LAJDUV_charged'
_cell_length_a 8.935
_cell_length_b 8.935
_cell_length_c 10.878
_cell_angle_alpha 90
_cell_angle_beta 90
_cell_angle_gamma 120
_space_group_name_H-M_alt 'P 1'
_space_group_name_Hall 'P 1'
loop_
    _symmetry_equiv_pos_as_xyz
    x,y,z
loop_
    _atom_site_label
    _atom_site_type_symbol
    _atom_site_fract_x
    _atom_site_fract_y
    _atom_site_fract_z
    _atom_site_occupancy
    Ti1      Ti       0.50000    0.00000    0.66667    1.000
    Ti2      Ti       0.50000    0.50000    0.00000    1.000
    Ti3      Ti       0.00000    0.50000    0.33333    1.000
    C1       C        0.30800    0.69200    0.50000    1.000
    C2       C        0.21045    0.78955    0.50000    1.000
    C3       C        0.38400    0.69200    0.83333    1.000
    C4       C        0.57910    0.78955    0.83333    1.000
    C5       C        0.30800    0.61600    0.16667    1.000
    C6       C        0.21045    0.42090    0.16667    1.000
    C7       C        0.69200    0.30800    0.50000    1.000
    C8       C        0.78955    0.21045    0.50000    1.000
    C9       C        0.61600    0.30800    0.83333    1.000
    C10      C        0.42090    0.21045    0.83333    1.000
    C11      C        0.69200    0.38400    0.16667    1.000
    C12      C        0.78955    0.57910    0.16667    1.000
    O1       O        0.44890    0.76290    0.55700    1.000
    O2       O        0.07680    0.72730    0.43720    1.000
    O3       O        0.31400    0.55110    0.89033    1.000
    O4       O        0.65050    0.92320    0.77053    1.000
    O5       O        0.23710    0.68600    0.22367    1.000
    O6       O        0.27270    0.34950    0.10387    1.000
    O7       O        0.55110    0.23710    0.55700    1.000
    O8       O        0.92320    0.27270    0.43720    1.000
    O9       O        0.68600    0.44890    0.89033    1.000
    O10      O        0.34950    0.07680    0.77053    1.000
    O11      O        0.76290    0.31400    0.22367    1.000
    O12      O        0.72730    0.65050    0.10387    1.000
    O13      O        0.68600    0.23710    0.77633    1.000
    O14      O        0.34950    0.27270    0.89613    1.000
    O15      O        0.76290    0.44890    0.44300    1.000
    O16      O        0.72730    0.07680    0.56280    1.000
    O17      O        0.55110    0.31400    0.10967    1.000
    O18      O        0.92320    0.65050    0.22947    1.000
    O19      O        0.31400    0.76290    0.77633    1.000
    O20      O        0.65050    0.72730    0.89613    1.000
    O21      O        0.23710    0.55110    0.44300    1.000
    O22      O        0.27270    0.92320    0.56280    1.000
    O23      O        0.44890    0.68600    0.10967    1.000
    O24      O        0.07680    0.34950    0.22947    1.000
    H1       H        0.02820    0.10970    0.94940    1.000
    H2       H        0.97180    0.89030    0.94940    1.000
    H3       H        0.10970    0.02820    0.05060    1.000
    H4       H        0.89030    0.97180    0.05060    1.000
    N1       N        0.00000    0.00000    0.00000    1.000
    H5       H        0.08150    0.97180    0.28273    1.000
    H6       H        0.91850    0.02820    0.28273    1.000
    H7       H        0.91850    0.89030    0.38393    1.000
    H8       H        0.08150    0.10970    0.38393    1.000
    N2       N        0.00000    0.00000    0.33333    1.000
    H9       H        0.89030    0.91850    0.61607    1.000
    H10      H        0.10970    0.08150    0.61607    1.000
    H11      H        0.97180    0.08150    0.71727    1.000
    H12      H        0.02820    0.91850    0.71727    1.000
    N3       N        0.00000    0.00000    0.66667    1.000
