data_functionalizedCrystal
_audit_creation_method	'EQeq! by Chris Wilmer'
_symmetry_space_group_name_H-M	'P1'
_symmetry_Int_Tables_number	1
_symmetry_cell_setting	triclinic
loop_
_symmetry_equiv_pos_as_xyz
  x,y,z
_cell_length_a	15.578
_cell_length_b	15.578
_cell_length_c	16.521
_cell_angle_alpha	90
_cell_angle_beta	90
_cell_angle_gamma	120
loop_
_atom_site_label
_atom_site_type_symbol
_atom_site_fract_x
_atom_site_fract_y
_atom_site_fract_z
_atom_site_charge
Mof_Zn	Zn	0.25908	0.51816	0.75	1.231
Mof_Zn	Zn	0.25908	0.74092	0.75	1.231
Mof_Zn	Zn	0.48184	0.74092	0.75	1.231
Mof_Zn	Zn	0.74092	0.48184	0.25	1.231
Mof_Zn	Zn	0.74092	0.25908	0.25	1.231
Mof_Zn	Zn	0.51816	0.25908	0.25	1.231
Mof_H 	H 	0.692	0.4539	0.478	0.07
Mof_H 	H 	0.7664	0.4816	0.6024	0.043
Mof_H 	H 	0.7106	0.5411	0.7115	0.036
Mof_H 	H 	0.5776	0.5643	0.695	0.062
Mof_H 	H 	0.7619	0.308	0.478	0.071
Mof_H 	H 	0.7152	0.2336	0.6024	0.044
Mof_H 	H 	0.8305	0.2894	0.7115	0.037
Mof_H 	H 	0.9867	0.4224	0.695	0.063
Mof_H 	H 	0.5461	0.2381	0.478	0.071
Mof_H 	H 	0.5184	0.2848	0.6024	0.044
Mof_H 	H 	0.4589	0.1695	0.7115	0.037
Mof_H 	H 	0.4357	0.0133	0.695	0.063
Mof_H 	H 	0.7619	0.4539	0.022	0.071
Mof_H 	H 	0.7152	0.4816	0.8976	0.044
Mof_H 	H 	0.8305	0.5411	0.7885	0.037
Mof_H 	H 	0.9867	0.5643	0.805	0.063
Mof_H 	H 	0.5461	0.308	0.022	0.071
Mof_H 	H 	0.5184	0.2336	0.8976	0.044
Mof_H 	H 	0.4589	0.2894	0.7885	0.037
Mof_H 	H 	0.4357	0.4224	0.805	0.063
Mof_H 	H 	0.692	0.2381	0.022	0.071
Mof_H 	H 	0.7664	0.2848	0.8976	0.044
Mof_H 	H 	0.7106	0.1695	0.7885	0.037
Mof_H 	H 	0.5776	0.0133	0.805	0.063
Mof_H 	H 	0.308	0.5461	0.522	0.071
Mof_H 	H 	0.2336	0.5184	0.3976	0.044
Mof_H 	H 	0.2894	0.4589	0.2885	0.037
Mof_H 	H 	0.4224	0.4357	0.305	0.063
Mof_H 	H 	0.2381	0.692	0.522	0.071
Mof_H 	H 	0.2848	0.7664	0.3976	0.044
Mof_H 	H 	0.1695	0.7106	0.2885	0.037
Mof_H 	H 	0.0133	0.5776	0.305	0.063
Mof_H 	H 	0.4539	0.7619	0.522	0.071
Mof_H 	H 	0.4816	0.7152	0.3976	0.044
Mof_H 	H 	0.5411	0.8305	0.2885	0.037
Mof_H 	H 	0.5643	0.9867	0.305	0.063
Mof_H 	H 	0.2381	0.5461	0.978	0.071
Mof_H 	H 	0.2848	0.5184	0.1024	0.044
Mof_H 	H 	0.1695	0.4589	0.2115	0.037
Mof_H 	H 	0.0133	0.4357	0.195	0.063
Mof_H 	H 	0.4539	0.692	0.978	0.071
Mof_H 	H 	0.4816	0.7664	0.1024	0.044
Mof_H 	H 	0.5411	0.7106	0.2115	0.037
Mof_H 	H 	0.5643	0.5776	0.195	0.063
Mof_H 	H 	0.308	0.7619	0.978	0.071
Mof_H 	H 	0.2336	0.7152	0.1024	0.044
Mof_H 	H 	0.2894	0.8305	0.2115	0.037
Mof_H 	H 	0.4224	0.9867	0.195	0.063
Mof_C 	C 	0.4335	0.5727	0.63462	0.388
Mof_C 	C 	0.4669	0.5348	0.56469	-0.122
Mof_C 	C 	0.5491	0.5217	0.57547	0.05
Mof_C 	C 	0.5824	0.4859	0.50944	0.051
Mof_C 	C 	0.667	0.4745	0.52183	-0.079
Mof_C 	C 	0.712	0.4923	0.5948	-0.026
Mof_C 	C 	0.6779	0.5274	0.6607	-0.024
Mof_C 	C 	0.5995	0.5412	0.6507	-0.079
Mof_C 	C 	0.1392	0.5665	0.63462	0.388
Mof_C 	C 	0.0679	0.5331	0.56469	-0.122
Mof_C 	C 	0.9726	0.4509	0.57547	0.05
Mof_C 	C 	0.9035	0.4176	0.50944	0.051
Mof_C 	C 	0.8075	0.333	0.52183	-0.079
Mof_C 	C 	0.7803	0.288	0.5948	-0.026
Mof_C 	C 	0.8495	0.3221	0.6607	-0.025
Mof_C 	C 	0.9417	0.4005	0.6507	-0.079
Mof_C 	C 	0.4273	0.8608	0.63462	0.388
Mof_C 	C 	0.4652	0.9321	0.56469	-0.122
Mof_C 	C 	0.4783	0.0274	0.57547	0.05
Mof_C 	C 	0.5141	0.0965	0.50944	0.051
Mof_C 	C 	0.5255	0.1925	0.52183	-0.079
Mof_C 	C 	0.5077	0.2197	0.5948	-0.026
Mof_C 	C 	0.4726	0.1505	0.6607	-0.025
Mof_C 	C 	0.4588	0.0583	0.6507	-0.079
Mof_C 	C 	0.1392	0.5727	0.86538	0.388
Mof_C 	C 	0.0679	0.5348	0.93531	-0.122
Mof_C 	C 	0.9726	0.5217	0.92453	0.049
Mof_C 	C 	0.9035	0.4859	0.99056	0.051
Mof_C 	C 	0.8075	0.4745	0.97817	-0.079
Mof_C 	C 	0.7803	0.4923	0.9052	-0.025
Mof_C 	C 	0.8495	0.5274	0.8393	-0.025
Mof_C 	C 	0.9417	0.5412	0.8493	-0.078
Mof_C 	C 	0.4273	0.5665	0.86538	0.388
Mof_C 	C 	0.4652	0.5331	0.93531	-0.122
Mof_C 	C 	0.4783	0.4509	0.92453	0.05
Mof_C 	C 	0.5141	0.4176	0.99056	0.051
Mof_C 	C 	0.5255	0.333	0.97817	-0.079
Mof_C 	C 	0.5077	0.288	0.9052	-0.025
Mof_C 	C 	0.4726	0.3221	0.8393	-0.025
Mof_C 	C 	0.4588	0.4005	0.8493	-0.079
Mof_C 	C 	0.4335	0.8608	0.86538	0.388
Mof_C 	C 	0.4669	0.9321	0.93531	-0.122
Mof_C 	C 	0.5491	0.0274	0.92453	0.049
Mof_C 	C 	0.5824	0.0965	0.99056	0.051
Mof_C 	C 	0.667	0.1925	0.97817	-0.079
Mof_C 	C 	0.712	0.2197	0.9052	-0.025
Mof_C 	C 	0.6779	0.1505	0.8393	-0.025
Mof_C 	C 	0.5995	0.0583	0.8493	-0.078
Mof_C 	C 	0.5665	0.4273	0.36538	0.388
Mof_C 	C 	0.5331	0.4652	0.43531	-0.122
Mof_C 	C 	0.4509	0.4783	0.42453	0.05
Mof_C 	C 	0.4176	0.5141	0.49056	0.051
Mof_C 	C 	0.333	0.5255	0.47817	-0.079
Mof_C 	C 	0.288	0.5077	0.4052	-0.026
Mof_C 	C 	0.3221	0.4726	0.3393	-0.024
Mof_C 	C 	0.4005	0.4588	0.3493	-0.079
Mof_C 	C 	0.8608	0.4335	0.36538	0.388
Mof_C 	C 	0.9321	0.4669	0.43531	-0.122
Mof_C 	C 	0.0274	0.5491	0.42453	0.05
Mof_C 	C 	0.0965	0.5824	0.49056	0.051
Mof_C 	C 	0.1925	0.667	0.47817	-0.079
Mof_C 	C 	0.2197	0.712	0.4052	-0.026
Mof_C 	C 	0.1505	0.6779	0.3393	-0.025
Mof_C 	C 	0.0583	0.5995	0.3493	-0.079
Mof_C 	C 	0.5727	0.1392	0.36538	0.388
Mof_C 	C 	0.5348	0.0679	0.43531	-0.122
Mof_C 	C 	0.5217	0.9726	0.42453	0.05
Mof_C 	C 	0.4859	0.9035	0.49056	0.051
Mof_C 	C 	0.4745	0.8075	0.47817	-0.079
Mof_C 	C 	0.4923	0.7803	0.4052	-0.026
Mof_C 	C 	0.5274	0.8495	0.3393	-0.025
Mof_C 	C 	0.5412	0.9417	0.3493	-0.079
Mof_C 	C 	0.8608	0.4273	0.13462	0.388
Mof_C 	C 	0.9321	0.4652	0.06469	-0.122
Mof_C 	C 	0.0274	0.4783	0.07547	0.049
Mof_C 	C 	0.0965	0.5141	0.00944	0.051
Mof_C 	C 	0.1925	0.5255	0.02183	-0.079
Mof_C 	C 	0.2197	0.5077	0.0948	-0.025
Mof_C 	C 	0.1505	0.4726	0.1607	-0.025
Mof_C 	C 	0.0583	0.4588	0.1507	-0.078
Mof_C 	C 	0.5727	0.4335	0.13462	0.388
Mof_C 	C 	0.5348	0.4669	0.06469	-0.122
Mof_C 	C 	0.5217	0.5491	0.07547	0.05
Mof_C 	C 	0.4859	0.5824	0.00944	0.051
Mof_C 	C 	0.4745	0.667	0.02183	-0.079
Mof_C 	C 	0.4923	0.712	0.0948	-0.025
Mof_C 	C 	0.5274	0.6779	0.1607	-0.025
Mof_C 	C 	0.5412	0.5995	0.1507	-0.079
Mof_C 	C 	0.5665	0.1392	0.13462	0.388
Mof_C 	C 	0.5331	0.0679	0.06469	-0.122
Mof_C 	C 	0.4509	0.9726	0.07547	0.049
Mof_C 	C 	0.4176	0.9035	0.00944	0.051
Mof_C 	C 	0.333	0.8075	0.02183	-0.079
Mof_C 	C 	0.288	0.7803	0.0948	-0.025
Mof_C 	C 	0.3221	0.8495	0.1607	-0.025
Mof_C 	C 	0.4005	0.9417	0.1507	-0.078
Mof_O 	O 	0.36017	0.50769	0.67465	-0.441
Mof_O 	O 	0.48135	0.66442	0.64734	-0.443
Mof_O 	O 	0.14752	0.63983	0.67465	-0.441
Mof_O 	O 	0.18307	0.51865	0.64734	-0.443
Mof_O 	O 	0.49231	0.85248	0.67465	-0.441
Mof_O 	O 	0.33558	0.81693	0.64734	-0.443
Mof_O 	O 	0.14752	0.50769	0.82535	-0.441
Mof_O 	O 	0.18307	0.66442	0.85266	-0.443
Mof_O 	O 	0.49231	0.63983	0.82535	-0.441
Mof_O 	O 	0.33558	0.51865	0.85266	-0.443
Mof_O 	O 	0.36017	0.85248	0.82535	-0.441
Mof_O 	O 	0.48135	0.81693	0.85266	-0.443
Mof_O 	O 	0.63983	0.49231	0.32535	-0.441
Mof_O 	O 	0.51865	0.33558	0.35266	-0.443
Mof_O 	O 	0.85248	0.36017	0.32535	-0.441
Mof_O 	O 	0.81693	0.48135	0.35266	-0.443
Mof_O 	O 	0.50769	0.14752	0.32535	-0.441
Mof_O 	O 	0.66442	0.18307	0.35266	-0.443
Mof_O 	O 	0.85248	0.49231	0.17465	-0.441
Mof_O 	O 	0.81693	0.33558	0.14734	-0.443
Mof_O 	O 	0.50769	0.36017	0.17465	-0.441
Mof_O 	O 	0.66442	0.48135	0.14734	-0.443
Mof_O 	O 	0.63983	0.14752	0.17465	-0.441
Mof_O 	O 	0.51865	0.18307	0.14734	-0.443
Mof_O 	O 	0.33333	0.66666	0.75	-0.629
Mof_O 	O 	0.66667	0.33334	0.25	-0.629
_end
