# CIF file generated by openbabel 3.1.0, see https://openbabel.org
data_I
_chemical_name_common 'image0'
_cell_length_a 18.0026
_cell_length_b 18.0026
_cell_length_c 13.3316
_cell_angle_alpha 90
_cell_angle_beta 90
_cell_angle_gamma 120
_space_group_name_H-M_alt 'P 1'
_space_group_name_Hall 'P 1'
loop_
    _symmetry_equiv_pos_as_xyz
    x,y,z
loop_
    _atom_site_label
    _atom_site_type_symbol
    _atom_site_fract_x
    _atom_site_fract_y
    _atom_site_fract_z
    _atom_site_occupancy
    Be1      Be       0.40450    0.04760    0.61840    1.000
    P1       P        0.08082    0.70125    0.58981    1.000
    H1       H        0.12550    0.78160    0.54650    1.000
    O1       O        0.38510    0.12130    0.65590    1.000
    O2       O        0.49526    0.06090    0.65560    1.000
    O3       O        0.32860    0.95283    0.65480    1.000
    O4       O        0.14423    0.68720    0.65010    1.000
    O5       O        0.04940    0.63940    0.50270    1.000
    O6       O        0.00870    0.69600    0.65170    1.000
    Be2      Be       0.95240    0.35690    0.61840    1.000
    P2       P        0.29875    0.37957    0.58981    1.000
    H2       H        0.21840    0.34390    0.54650    1.000
    O7       O        0.87870    0.26380    0.65590    1.000
    O8       O        0.93910    0.43436    0.65560    1.000
    O9       O        0.04717    0.37577    0.65480    1.000
    O10      O        0.31280    0.45703    0.65010    1.000
    O11      O        0.36060    0.41000    0.50270    1.000
    O12      O        0.30400    0.31270    0.65170    1.000
    Be3      Be       0.64310    0.59550    0.61840    1.000
    P3       P        0.62043    0.91918    0.58981    1.000
    H3       H        0.65610    0.87450    0.54650    1.000
    O13      O        0.73620    0.61490    0.65590    1.000
    O14      O        0.56564    0.50474    0.65560    1.000
    O15      O        0.62423    0.67140    0.65480    1.000
    O16      O        0.54297    0.85577    0.65010    1.000
    O17      O        0.59000    0.95060    0.50270    1.000
    O18      O        0.68730    0.99130    0.65170    1.000
    Be4      Be       0.59550    0.95240    0.11840    1.000
    P4       P        0.91918    0.29875    0.08981    1.000
    H4       H        0.87450    0.21840    0.04650    1.000
    O19      O        0.61490    0.87870    0.15590    1.000
    O20      O        0.50474    0.93910    0.15560    1.000
    O21      O        0.67140    0.04717    0.15480    1.000
    O22      O        0.85577    0.31280    0.15010    1.000
    O23      O        0.95060    0.36060    0.00270    1.000
    O24      O        0.99130    0.30400    0.15170    1.000
    Be5      Be       0.04760    0.64310    0.11840    1.000
    P5       P        0.70125    0.62043    0.08981    1.000
    H5       H        0.78160    0.65610    0.04650    1.000
    O25      O        0.12130    0.73620    0.15590    1.000
    O26      O        0.06090    0.56564    0.15560    1.000
    O27      O        0.95283    0.62423    0.15480    1.000
    O28      O        0.68720    0.54297    0.15010    1.000
    O29      O        0.63940    0.59000    0.00270    1.000
    O30      O        0.69600    0.68730    0.15170    1.000
    Be6      Be       0.35690    0.40450    0.11840    1.000
    P6       P        0.37957    0.08082    0.08981    1.000
    H6       H        0.34390    0.12550    0.04650    1.000
    O31      O        0.26380    0.38510    0.15590    1.000
    O32      O        0.43436    0.49526    0.15560    1.000
    O33      O        0.37577    0.32860    0.15480    1.000
    O34      O        0.45703    0.14423    0.15010    1.000
    O35      O        0.41000    0.04940    0.00270    1.000
    O36      O        0.31270    0.00870    0.15170    1.000
    Be7      Be       0.59550    0.95240    0.38160    1.000
    P7       P        0.91918    0.29875    0.41019    1.000
    H7       H        0.87450    0.21840    0.45350    1.000
    O37      O        0.61490    0.87870    0.34410    1.000
    O38      O        0.50474    0.93910    0.34440    1.000
    O39      O        0.67140    0.04717    0.34520    1.000
    O40      O        0.85577    0.31280    0.34990    1.000
    O41      O        0.95060    0.36060    0.49730    1.000
    O42      O        0.99130    0.30400    0.34830    1.000
    Be8      Be       0.04760    0.64310    0.38160    1.000
    P8       P        0.70125    0.62043    0.41019    1.000
    H8       H        0.78160    0.65610    0.45350    1.000
    O43      O        0.12130    0.73620    0.34410    1.000
    O44      O        0.06090    0.56564    0.34440    1.000
    O45      O        0.95283    0.62423    0.34520    1.000
    O46      O        0.68720    0.54297    0.34990    1.000
    O47      O        0.63940    0.59000    0.49730    1.000
    O48      O        0.69600    0.68730    0.34830    1.000
    Be9      Be       0.35690    0.40450    0.38160    1.000
    P9       P        0.37957    0.08082    0.41019    1.000
    H9       H        0.34390    0.12550    0.45350    1.000
    O49      O        0.26380    0.38510    0.34410    1.000
    O50      O        0.43436    0.49526    0.34440    1.000
    O51      O        0.37577    0.32860    0.34520    1.000
    O52      O        0.45703    0.14423    0.34990    1.000
    O53      O        0.41000    0.04940    0.49730    1.000
    O54      O        0.31270    0.00870    0.34830    1.000
    Be10     Be       0.40450    0.04760    0.88160    1.000
    P10      P        0.08082    0.70125    0.91019    1.000
    H10      H        0.12550    0.78160    0.95350    1.000
    O55      O        0.38510    0.12130    0.84410    1.000
    O56      O        0.49526    0.06090    0.84440    1.000
    O57      O        0.32860    0.95283    0.84520    1.000
    O58      O        0.14423    0.68720    0.84990    1.000
    O59      O        0.04940    0.63940    0.99730    1.000
    O60      O        0.00870    0.69600    0.84830    1.000
    Be11     Be       0.95240    0.35690    0.88160    1.000
    P11      P        0.29875    0.37957    0.91019    1.000
    H11      H        0.21840    0.34390    0.95350    1.000
    O61      O        0.87870    0.26380    0.84410    1.000
    O62      O        0.93910    0.43436    0.84440    1.000
    O63      O        0.04717    0.37577    0.84520    1.000
    O64      O        0.31280    0.45703    0.84990    1.000
    O65      O        0.36060    0.41000    0.99730    1.000
    O66      O        0.30400    0.31270    0.84830    1.000
    Be12     Be       0.64310    0.59550    0.88160    1.000
    P12      P        0.62043    0.91918    0.91019    1.000
    H12      H        0.65610    0.87450    0.95350    1.000
    O67      O        0.73620    0.61490    0.84410    1.000
    O68      O        0.56564    0.50474    0.84440    1.000
    O69      O        0.62423    0.67140    0.84520    1.000
    O70      O        0.54297    0.85577    0.84990    1.000
    O71      O        0.59000    0.95060    0.99730    1.000
    O72      O        0.68730    0.99130    0.84830    1.000
    Be13     Be       0.35390    0.30790    0.75000    1.000
    Be14     Be       0.20090    0.71510    0.75000    1.000
    P13      P        0.39807    0.17228    0.75000    1.000
    H13      H        0.48270    0.23680    0.75000    1.000
    P14      P        0.52521    0.03717    0.75000    1.000
    H14      H        0.49600    0.96230    0.75000    1.000
    P15      P        0.28302    0.90626    0.75000    1.000
    H15      H        0.20170    0.90050    0.75000    1.000
    O73      O        0.34270    0.21310    0.75000    1.000
    O74      O        0.62120    0.07530    0.75000    1.000
    O75      O        0.27050    0.81740    0.75000    1.000
    O76      O        0.25230    0.66380    0.75000    1.000
    Be15     Be       0.69210    0.04600    0.75000    1.000
    Be16     Be       0.28490    0.48580    0.75000    1.000
    P16      P        0.82772    0.22579    0.75000    1.000
    H16      H        0.76320    0.24590    0.75000    1.000
    P17      P        0.96283    0.48804    0.75000    1.000
    H17      H        0.03770    0.53370    0.75000    1.000
    P18      P        0.09374    0.37676    0.75000    1.000
    H18      H        0.09950    0.30120    0.75000    1.000
    O77      O        0.78690    0.12960    0.75000    1.000
    O78      O        0.92470    0.54590    0.75000    1.000
    O79      O        0.18260    0.45310    0.75000    1.000
    O80      O        0.33620    0.58850    0.75000    1.000
    Be17     Be       0.95400    0.64610    0.75000    1.000
    Be18     Be       0.51420    0.79910    0.75000    1.000
    P19      P        0.77421    0.60193    0.75000    1.000
    H19      H        0.75410    0.51730    0.75000    1.000
    P20      P        0.51196    0.47479    0.75000    1.000
    H20      H        0.46630    0.50400    0.75000    1.000
    P21      P        0.62324    0.71698    0.75000    1.000
    H21      H        0.69880    0.79830    0.75000    1.000
    O81      O        0.87040    0.65730    0.75000    1.000
    O82      O        0.45410    0.37880    0.75000    1.000
    O83      O        0.54690    0.72950    0.75000    1.000
    O84      O        0.41150    0.74770    0.75000    1.000
    Be19     Be       0.64610    0.69210    0.25000    1.000
    Be20     Be       0.79910    0.28490    0.25000    1.000
    P22      P        0.60193    0.82772    0.25000    1.000
    H22      H        0.51730    0.76320    0.25000    1.000
    P23      P        0.47479    0.96283    0.25000    1.000
    H23      H        0.50400    0.03770    0.25000    1.000
    P24      P        0.71698    0.09374    0.25000    1.000
    H24      H        0.79830    0.09950    0.25000    1.000
    O85      O        0.65730    0.78690    0.25000    1.000
    O86      O        0.37880    0.92470    0.25000    1.000
    O87      O        0.72950    0.18260    0.25000    1.000
    O88      O        0.74770    0.33620    0.25000    1.000
    Be21     Be       0.30790    0.95400    0.25000    1.000
    Be22     Be       0.71510    0.51420    0.25000    1.000
    P25      P        0.17228    0.77421    0.25000    1.000
    H25      H        0.23680    0.75410    0.25000    1.000
    P26      P        0.03717    0.51196    0.25000    1.000
    H26      H        0.96230    0.46630    0.25000    1.000
    P27      P        0.90626    0.62324    0.25000    1.000
    H27      H        0.90050    0.69880    0.25000    1.000
    O89      O        0.21310    0.87040    0.25000    1.000
    O90      O        0.07530    0.45410    0.25000    1.000
    O91      O        0.81740    0.54690    0.25000    1.000
    O92      O        0.66380    0.41150    0.25000    1.000
    Be23     Be       0.04600    0.35390    0.25000    1.000
    Be24     Be       0.48580    0.20090    0.25000    1.000
    P28      P        0.22579    0.39807    0.25000    1.000
    H28      H        0.24590    0.48270    0.25000    1.000
    P29      P        0.48804    0.52521    0.25000    1.000
    H29      H        0.53370    0.49600    0.25000    1.000
    P30      P        0.37676    0.28302    0.25000    1.000
    H30      H        0.30120    0.20170    0.25000    1.000
    O93      O        0.12960    0.34270    0.25000    1.000
    O94      O        0.54590    0.62120    0.25000    1.000
    O95      O        0.45310    0.27050    0.25000    1.000
    O96      O        0.58850    0.25230    0.25000    1.000
    P31      P        0.33333    0.66667    0.75000    1.000
    P32      P        0.66667    0.33333    0.25000    1.000
    H31      H        0.33333    0.66667    0.65810    1.000
    H32      H        0.66667    0.33333    0.15810    1.000
    H33      H        0.66667    0.33333    0.34190    1.000
    H34      H        0.33333    0.66667    0.84190    1.000
