data_functionalizedCrystal
_audit_creation_method	'EQeq! by Chris Wilmer'
_symmetry_space_group_name_H-M	'P1'
_symmetry_Int_Tables_number	1
_symmetry_cell_setting	triclinic
loop_
_symmetry_equiv_pos_as_xyz
  x,y,z
_cell_length_a	19.4778
_cell_length_b	13.9542
_cell_length_c	23.761
_cell_angle_alpha	90
_cell_angle_beta	104.444
_cell_angle_gamma	90
loop_
_atom_site_label
_atom_site_type_symbol
_atom_site_fract_x
_atom_site_fract_y
_atom_site_fract_z
_atom_site_charge
Mof_Ba	Ba	0.68237	0.75179	0.27033	1.612
Mof_Ba	Ba	0.8359	0.92812	0.19408	1.799
Mof_Ba	Ba	0.68011	0.43885	0.31513	1.725
Mof_Ba	Ba	0.46847	0.44796	0.36189	1.848
Mof_Ba	Ba	0.15623	0.67145	0.18658	1.77
Mof_Ba	Ba	0.9779	0.44319	0.3734	1.809
Mof_C 	C 	0.7471	0.4259	0.5145	0.058
Mof_C 	C 	0.6872	0.3682	0.4955	-0.154
Mof_C 	C 	0.6894	0.273	0.5104	0.057
Mof_H 	H 	0.6483	0.2362	0.5	0.002
Mof_C 	C 	0.7522	0.2313	0.541	-0.159
Mof_H 	H 	0.7537	0.1667	0.5507	0.065
Mof_C 	C 	0.8123	0.2865	0.5568	0.047
Mof_H 	H 	0.8552	0.2577	0.5749	-0.018
Mof_C 	C 	0.8102	0.3828	0.5463	-0.177
Mof_C 	C 	0.748	0.5317	0.5042	0.102
Mof_C 	C 	0.7891	0.5717	0.4696	-0.226
Mof_C 	C 	0.7972	0.6696	0.4676	0.097
Mof_H 	H 	0.8261	0.6953	0.4455	-0.051
Mof_C 	C 	0.7631	0.7303	0.4978	-0.225
Mof_H 	H 	0.7684	0.7963	0.4955	0.074
Mof_C 	C 	0.7218	0.6931	0.5309	0.11
Mof_H 	H 	0.6985	0.7338	0.551	-0.042
Mof_C 	C 	0.7143	0.5949	0.5347	-0.222
Mof_C 	C 	0.6195	0.4	0.4528	0.373
Mof_C 	C 	0.8775	0.44	0.5704	0.389
Mof_C 	C 	0.825	0.5089	0.4352	0.408
Mof_C 	C 	0.6707	0.5587	0.5745	0.406
Mof_C 	C 	0.4154	0.6262	0.1986	0.033
Mof_C 	C 	0.4819	0.5875	0.1986	-0.182
Mof_C 	C 	0.4959	0.5549	0.1471	0.057
Mof_H 	H 	0.5406	0.5306	0.1477	-0.014
Mof_C 	C 	0.4446	0.5581	0.0955	-0.164
Mof_H 	H 	0.4539	0.535	0.0614	0.067
Mof_C 	C 	0.3788	0.5963	0.0951	0.058
Mof_H 	H 	0.3439	0.598	0.0604	0.001
Mof_C 	C 	0.3636	0.6319	0.1449	-0.167
Mof_C 	C 	0.4016	0.6639	0.2535	0.129
Mof_C 	C 	0.436	0.7474	0.2774	-0.287
Mof_C 	C 	0.4272	0.7811	0.3306	0.133
Mof_H 	H 	0.4523	0.8346	0.3479	-0.055
Mof_C 	C 	0.3819	0.7357	0.3572	-0.28
Mof_H 	H 	0.3763	0.7587	0.3925	0.1
Mof_C 	C 	0.3446	0.6568	0.3328	0.125
Mof_H 	H 	0.312	0.6288	0.3504	-0.074
Mof_C 	C 	0.3553	0.6176	0.281	-0.318
Mof_C 	C 	0.5416	0.5796	0.253	0.407
Mof_C 	C 	0.2918	0.6747	0.1413	0.38
Mof_C 	C 	0.4819	0.8022	0.2463	0.495
Mof_C 	C 	0.3167	0.5268	0.2579	0.448
Mof_C 	C 	0.892	0.6057	0.1981	0.056
Mof_C 	C 	0.8235	0.612	0.1598	-0.171
Mof_C 	C 	0.8091	0.5609	0.1078	0.064
Mof_H 	H 	0.7637	0.5627	0.0833	-0.003
Mof_C 	C 	0.8611	0.5072	0.0919	-0.169
Mof_H 	H 	0.8515	0.4764	0.0561	0.063
Mof_C 	C 	0.9282	0.4998	0.1301	0.073
Mof_H 	H 	0.963	0.4633	0.1197	-0.027
Mof_C 	C 	0.9433	0.5457	0.1828	-0.194
Mof_C 	C 	0.9135	0.662	0.2526	0.093
Mof_C 	C 	0.9647	0.7346	0.256	-0.252
Mof_C 	C 	0.9943	0.7793	0.3088	0.079
Mof_H 	H 	0.0305	0.8238	0.3114	-0.04
Mof_C 	C 	0.9703	0.7582	0.3572	-0.208
Mof_H 	H 	0.9905	0.788	0.3924	0.071
Mof_C 	C 	0.9163	0.6928	0.3532	0.06
Mof_H 	H 	0.8984	0.6812	0.3854	-0.037
Mof_C 	C 	0.8879	0.6435	0.3009	-0.264
Mof_C 	C 	0.7657	0.6736	0.1727	0.392
Mof_C 	C 	0.0148	0.5247	0.2247	0.428
Mof_C 	C 	0.9842	0.7719	0.2024	0.416
Mof_C 	C 	0.8313	0.5673	0.2988	0.428
Mof_O 	O 	0.6241	0.4563	0.41238	-0.511
Mof_O 	O 	0.5621	0.3657	0.45854	-0.431
Mof_O 	O 	0.9347	0.4085	0.56281	-0.438
Mof_O 	O 	0.8744	0.5138	0.59927	-0.555
Mof_O 	O 	0.8881	0.5266	0.43412	-0.464
Mof_O 	O 	0.7899	0.4386	0.40797	-0.502
Mof_O 	O 	0.6069	0.5436	0.55418	-0.462
Mof_O 	O 	0.7015	0.5496	0.6282	-0.513
Mof_O 	O 	0.5282	0.5667	0.30113	-0.532
Mof_O 	O 	0.6037	0.5851	0.24569	-0.554
Mof_O 	O 	0.2398	0.6304	0.1111	-0.451
Mof_O 	O 	0.2864	0.749	0.1693	-0.56
Mof_O 	O 	0.4515	0.8538	0.2048	-0.588
Mof_O 	O 	0.547	0.7945	0.2636	-0.516
Mof_O 	O 	0.3507	0.4519	0.25847	-0.564
Mof_O 	O 	0.2489	0.533	0.24016	-0.591
Mof_O 	O 	0.7809	0.7523	0.19703	-0.576
Mof_O 	O 	0.7039	0.6403	0.1573	-0.377
Mof_O 	O 	0.0687	0.523	0.20409	-0.552
Mof_O 	O 	0.0176	0.5054	0.2763	-0.544
Mof_O 	O 	0.0483	0.7761	0.20242	-0.579
Mof_O 	O 	0.935	0.8034	0.16211	-0.541
Mof_O 	O 	0.8486	0.482	0.2966	-0.524
Mof_O 	O 	0.7703	0.5963	0.3003	-0.578
Mof_O 	O 	0.4115	0.2594	0.3536	-0.863
Mof_H 	H 	0.3873	0.2506	0.3784	0.323
Mof_H 	H 	0.4442	0.2176	0.3587	0.327
Mof_O 	O 	0.1466	0.6396	0.3057	-1.302
Mof_H 	H 	0.1747	0.6629	0.3267	0.616
Mof_H 	H 	0.1066	0.6563	0.3108	0.458
Mof_O 	O 	0.1176	0.8033	0.09732	-0.935
Mof_H 	H 	0.1462	0.8504	0.1038	0.322
Mof_H 	H 	0.1193	0.7765	0.0655	0.331
Mof_Ba	Ba	0.31763	0.25179	0.22967	1.613
Mof_Ba	Ba	0.1641	0.42812	0.30592	1.801
Mof_Ba	Ba	0.31989	0.93885	0.18487	1.719
Mof_Ba	Ba	0.53153	0.94796	0.13811	1.844
Mof_Ba	Ba	0.84377	0.17145	0.31342	1.771
Mof_Ba	Ba	0.0221	0.94319	0.1266	1.795
Mof_C 	C 	0.2529	0.9259	0.9855	0.078
Mof_C 	C 	0.3128	0.8682	0.0045	-0.176
Mof_C 	C 	0.3106	0.773	0.9896	0.083
Mof_H 	H 	0.3517	0.7362	-0	-0.008
Mof_C 	C 	0.2478	0.7313	0.959	-0.179
Mof_H 	H 	0.2463	0.6667	0.9493	0.072
Mof_C 	C 	0.1877	0.7865	0.9432	0.063
Mof_H 	H 	0.1448	0.7577	0.9251	-0.024
Mof_C 	C 	0.1898	0.8828	0.9537	-0.189
Mof_C 	C 	0.252	0.0317	0.9958	0.085
Mof_C 	C 	0.2109	0.0717	0.0304	-0.214
Mof_C 	C 	0.2028	0.1696	0.0324	0.086
Mof_H 	H 	0.1739	0.1953	0.0545	-0.047
Mof_C 	C 	0.2369	0.2303	0.0022	-0.21
Mof_H 	H 	0.2316	0.2963	0.0045	0.069
Mof_C 	C 	0.2782	0.1931	0.9691	0.096
Mof_H 	H 	0.3015	0.2338	0.949	-0.037
Mof_C 	C 	0.2857	0.0949	0.9653	-0.213
Mof_C 	C 	0.3805	0.9	0.0472	0.379
Mof_C 	C 	0.1225	0.94	0.9296	0.396
Mof_C 	C 	0.175	0.0089	0.0648	0.409
Mof_C 	C 	0.3293	0.0587	0.9255	0.402
Mof_C 	C 	0.5846	0.1262	0.3014	0.033
Mof_C 	C 	0.5181	0.0875	0.3014	-0.181
Mof_C 	C 	0.5041	0.0549	0.3529	0.056
Mof_H 	H 	0.4594	0.0306	0.3523	-0.013
Mof_C 	C 	0.5554	0.0581	0.4045	-0.163
Mof_H 	H 	0.5461	0.035	0.4386	0.067
Mof_C 	C 	0.6212	0.0963	0.4049	0.057
Mof_H 	H 	0.6561	0.098	0.4396	0.002
Mof_C 	C 	0.6364	0.1319	0.3551	-0.166
Mof_C 	C 	0.5984	0.1639	0.2465	0.129
Mof_C 	C 	0.564	0.2474	0.2226	-0.287
Mof_C 	C 	0.5728	0.2811	0.1694	0.134
Mof_H 	H 	0.5477	0.3346	0.1521	-0.055
Mof_C 	C 	0.6181	0.2357	0.1428	-0.28
Mof_H 	H 	0.6237	0.2587	0.1075	0.101
Mof_C 	C 	0.6554	0.1568	0.1672	0.126
Mof_H 	H 	0.688	0.1288	0.1496	-0.073
Mof_C 	C 	0.6447	0.1176	0.219	-0.319
Mof_C 	C 	0.4584	0.0796	0.247	0.407
Mof_C 	C 	0.7082	0.1747	0.3587	0.38
Mof_C 	C 	0.5181	0.3022	0.2537	0.495
Mof_C 	C 	0.6833	0.0268	0.2421	0.451
Mof_C 	C 	0.108	0.1057	0.3019	0.051
Mof_C 	C 	0.1765	0.112	0.3402	-0.164
Mof_C 	C 	0.1909	0.0609	0.3922	0.052
Mof_H 	H 	0.2363	0.0627	0.4167	0.001
Mof_C 	C 	0.1389	0.0072	0.4081	-0.148
Mof_H 	H 	0.1485	0.9764	0.4439	0.055
Mof_C 	C 	0.0718	0.9998	0.3699	0.053
Mof_H 	H 	0.037	0.9633	0.3803	-0.021
Mof_C 	C 	0.0567	0.0457	0.3172	-0.182
Mof_C 	C 	0.0865	0.162	0.2474	0.094
Mof_C 	C 	0.0353	0.2346	0.244	-0.251
Mof_C 	C 	0.0057	0.2793	0.1912	0.073
Mof_H 	H 	0.9695	0.3238	0.1886	-0.036
Mof_C 	C 	0.0297	0.2582	0.1428	-0.205
Mof_H 	H 	0.0095	0.288	0.1076	0.069
Mof_C 	C 	0.0837	0.1928	0.1468	0.06
Mof_H 	H 	0.1016	0.1812	0.1146	-0.037
Mof_C 	C 	0.1121	0.1435	0.1991	-0.265
Mof_C 	C 	0.2343	0.1736	0.3273	0.389
Mof_C 	C 	0.9852	0.0247	0.2753	0.424
Mof_C 	C 	0.0158	0.2719	0.2976	0.414
Mof_C 	C 	0.1687	0.0673	0.2012	0.433
Mof_O 	O 	0.3759	0.9563	0.08762	-0.514
Mof_O 	O 	0.4379	0.8657	0.04146	-0.433
Mof_O 	O 	0.0653	0.9085	0.93719	-0.437
Mof_O 	O 	0.1256	0.0138	0.90073	-0.557
Mof_O 	O 	0.1119	0.0266	0.06588	-0.461
Mof_O 	O 	0.2101	0.9386	0.09203	-0.505
Mof_O 	O 	0.3931	0.0436	0.94582	-0.462
Mof_O 	O 	0.2985	0.0496	0.8718	-0.513
Mof_O 	O 	0.4718	0.0667	0.19887	-0.529
Mof_O 	O 	0.3963	0.0851	0.25431	-0.552
Mof_O 	O 	0.7602	0.1304	0.3889	-0.45
Mof_O 	O 	0.7136	0.249	0.3307	-0.561
Mof_O 	O 	0.5485	0.3538	0.2952	-0.589
Mof_O 	O 	0.453	0.2945	0.2364	-0.516
Mof_O 	O 	0.6493	0.9519	0.24153	-0.566
Mof_O 	O 	0.7511	0.033	0.25984	-0.591
Mof_O 	O 	0.2191	0.2523	0.30297	-0.575
Mof_O 	O 	0.2961	0.1403	0.3427	-0.376
Mof_O 	O 	0.9313	0.023	0.29591	-0.55
Mof_O 	O 	0.9824	0.0054	0.2237	-0.54
Mof_O 	O 	0.9517	0.2761	0.29758	-0.578
Mof_O 	O 	0.065	0.3034	0.33789	-0.542
Mof_O 	O 	0.1514	0.982	0.2034	-0.528
Mof_O 	O 	0.2297	0.0963	0.1997	-0.578
Mof_O 	O 	0.5885	0.7594	0.1464	-0.863
Mof_H 	H 	0.6127	0.7506	0.1216	0.323
Mof_H 	H 	0.5558	0.7176	0.1413	0.327
Mof_O 	O 	0.8534	0.1396	0.1943	-1.301
Mof_H 	H 	0.8253	0.1629	0.1733	0.616
Mof_H 	H 	0.8934	0.1563	0.1892	0.458
Mof_O 	O 	0.8824	0.3033	0.40268	-0.936
Mof_H 	H 	0.8538	0.3504	0.3962	0.322
Mof_H 	H 	0.8807	0.2765	0.4345	0.333
Mof_Ba	Ba	0.31763	0.24821	0.72967	1.612
Mof_Ba	Ba	0.1641	0.07188	0.80592	1.799
Mof_Ba	Ba	0.31989	0.56115	0.68487	1.725
Mof_Ba	Ba	0.53153	0.55204	0.63811	1.848
Mof_Ba	Ba	0.84377	0.32855	0.81342	1.77
Mof_Ba	Ba	0.0221	0.55681	0.6266	1.809
Mof_C 	C 	0.2529	0.5741	0.4855	0.058
Mof_C 	C 	0.3128	0.6318	0.5045	-0.154
Mof_C 	C 	0.3106	0.727	0.4896	0.057
Mof_H 	H 	0.3517	0.7638	0.5	0.002
Mof_C 	C 	0.2478	0.7687	0.459	-0.159
Mof_H 	H 	0.2463	0.8333	0.4493	0.065
Mof_C 	C 	0.1877	0.7135	0.4432	0.047
Mof_H 	H 	0.1448	0.7423	0.4251	-0.018
Mof_C 	C 	0.1898	0.6172	0.4537	-0.177
Mof_C 	C 	0.252	0.4683	0.4958	0.102
Mof_C 	C 	0.2109	0.4283	0.5304	-0.226
Mof_C 	C 	0.2028	0.3304	0.5324	0.097
Mof_H 	H 	0.1739	0.3047	0.5545	-0.051
Mof_C 	C 	0.2369	0.2697	0.5022	-0.225
Mof_H 	H 	0.2316	0.2037	0.5045	0.074
Mof_C 	C 	0.2782	0.3069	0.4691	0.11
Mof_H 	H 	0.3015	0.2662	0.449	-0.042
Mof_C 	C 	0.2857	0.4051	0.4653	-0.222
Mof_C 	C 	0.3805	0.6	0.5472	0.373
Mof_C 	C 	0.1225	0.56	0.4296	0.389
Mof_C 	C 	0.175	0.4911	0.5648	0.408
Mof_C 	C 	0.3293	0.4413	0.4255	0.406
Mof_C 	C 	0.5846	0.3738	0.8014	0.033
Mof_C 	C 	0.5181	0.4125	0.8014	-0.182
Mof_C 	C 	0.5041	0.4451	0.8529	0.057
Mof_H 	H 	0.4594	0.4694	0.8523	-0.014
Mof_C 	C 	0.5554	0.4419	0.9045	-0.164
Mof_H 	H 	0.5461	0.465	0.9386	0.067
Mof_C 	C 	0.6212	0.4037	0.9049	0.058
Mof_H 	H 	0.6561	0.402	0.9396	0.001
Mof_C 	C 	0.6364	0.3681	0.8551	-0.167
Mof_C 	C 	0.5984	0.3361	0.7465	0.129
Mof_C 	C 	0.564	0.2526	0.7226	-0.287
Mof_C 	C 	0.5728	0.2189	0.6694	0.133
Mof_H 	H 	0.5477	0.1654	0.6521	-0.055
Mof_C 	C 	0.6181	0.2643	0.6428	-0.28
Mof_H 	H 	0.6237	0.2413	0.6075	0.1
Mof_C 	C 	0.6554	0.3432	0.6672	0.125
Mof_H 	H 	0.688	0.3712	0.6496	-0.074
Mof_C 	C 	0.6447	0.3824	0.719	-0.318
Mof_C 	C 	0.4584	0.4204	0.747	0.407
Mof_C 	C 	0.7082	0.3253	0.8587	0.38
Mof_C 	C 	0.5181	0.1978	0.7537	0.495
Mof_C 	C 	0.6833	0.4732	0.7421	0.448
Mof_C 	C 	0.108	0.3943	0.8019	0.056
Mof_C 	C 	0.1765	0.388	0.8402	-0.171
Mof_C 	C 	0.1909	0.4391	0.8922	0.064
Mof_H 	H 	0.2363	0.4373	0.9167	-0.003
Mof_C 	C 	0.1389	0.4928	0.9081	-0.169
Mof_H 	H 	0.1485	0.5236	0.9439	0.063
Mof_C 	C 	0.0718	0.5002	0.8699	0.073
Mof_H 	H 	0.037	0.5367	0.8803	-0.027
Mof_C 	C 	0.0567	0.4543	0.8172	-0.194
Mof_C 	C 	0.0865	0.338	0.7474	0.093
Mof_C 	C 	0.0353	0.2654	0.744	-0.252
Mof_C 	C 	0.0057	0.2207	0.6912	0.078
Mof_H 	H 	0.9695	0.1762	0.6886	-0.04
Mof_C 	C 	0.0297	0.2418	0.6428	-0.208
Mof_H 	H 	0.0095	0.212	0.6076	0.071
Mof_C 	C 	0.0837	0.3072	0.6468	0.06
Mof_H 	H 	0.1016	0.3188	0.6146	-0.037
Mof_C 	C 	0.1121	0.3565	0.6991	-0.264
Mof_C 	C 	0.2343	0.3264	0.8273	0.392
Mof_C 	C 	0.9852	0.4753	0.7753	0.428
Mof_C 	C 	0.0158	0.2281	0.7976	0.416
Mof_C 	C 	0.1687	0.4327	0.7012	0.428
Mof_O 	O 	0.3759	0.5437	0.58762	-0.511
Mof_O 	O 	0.4379	0.6343	0.54146	-0.431
Mof_O 	O 	0.0653	0.5915	0.43719	-0.438
Mof_O 	O 	0.1256	0.4862	0.40073	-0.555
Mof_O 	O 	0.1119	0.4734	0.56588	-0.464
Mof_O 	O 	0.2101	0.5614	0.59203	-0.502
Mof_O 	O 	0.3931	0.4564	0.44582	-0.462
Mof_O 	O 	0.2985	0.4504	0.3718	-0.513
Mof_O 	O 	0.4718	0.4333	0.69887	-0.532
Mof_O 	O 	0.3963	0.4149	0.75431	-0.554
Mof_O 	O 	0.7602	0.3696	0.8889	-0.451
Mof_O 	O 	0.7136	0.251	0.8307	-0.56
Mof_O 	O 	0.5485	0.1462	0.7952	-0.588
Mof_O 	O 	0.453	0.2055	0.7364	-0.516
Mof_O 	O 	0.6493	0.5481	0.74153	-0.564
Mof_O 	O 	0.7511	0.467	0.75984	-0.591
Mof_O 	O 	0.2191	0.2477	0.80297	-0.576
Mof_O 	O 	0.2961	0.3597	0.8427	-0.377
Mof_O 	O 	0.9313	0.477	0.79591	-0.552
Mof_O 	O 	0.9824	0.4946	0.7237	-0.544
Mof_O 	O 	0.9517	0.2239	0.79758	-0.579
Mof_O 	O 	0.065	0.1966	0.83789	-0.542
Mof_O 	O 	0.1514	0.518	0.7034	-0.524
Mof_O 	O 	0.2297	0.4037	0.6997	-0.578
Mof_O 	O 	0.5885	0.7406	0.6464	-0.863
Mof_H 	H 	0.6127	0.7494	0.6216	0.323
Mof_H 	H 	0.5558	0.7824	0.6413	0.327
Mof_O 	O 	0.8534	0.3604	0.6943	-1.302
Mof_H 	H 	0.8253	0.3371	0.6733	0.616
Mof_H 	H 	0.8934	0.3437	0.6892	0.458
Mof_O 	O 	0.8824	0.1967	0.90268	-0.935
Mof_H 	H 	0.8538	0.1496	0.8962	0.322
Mof_H 	H 	0.8807	0.2235	0.9345	0.331
Mof_Ba	Ba	0.68237	0.74821	0.77033	1.613
Mof_Ba	Ba	0.8359	0.57188	0.69408	1.801
Mof_Ba	Ba	0.68011	0.06115	0.81513	1.719
Mof_Ba	Ba	0.46847	0.05204	0.86189	1.844
Mof_Ba	Ba	0.15623	0.82855	0.68658	1.771
Mof_Ba	Ba	0.9779	0.05681	0.8734	1.795
Mof_C 	C 	0.7471	0.0741	0.0145	0.077
Mof_C 	C 	0.6872	0.1318	0.9955	-0.174
Mof_C 	C 	0.6894	0.227	0.0104	0.077
Mof_H 	H 	0.6483	0.2638	-0	-0.003
Mof_C 	C 	0.7522	0.2687	0.041	-0.174
Mof_H 	H 	0.7537	0.3333	0.0507	0.07
Mof_C 	C 	0.8123	0.2135	0.0568	0.06
Mof_H 	H 	0.8552	0.2423	0.0749	-0.023
Mof_C 	C 	0.8102	0.1172	0.0463	-0.188
Mof_C 	C 	0.748	0.9683	0.0042	0.087
Mof_C 	C 	0.7891	0.9283	0.9696	-0.216
Mof_C 	C 	0.7972	0.8304	0.9676	0.088
Mof_H 	H 	0.8261	0.8047	0.9455	-0.048
Mof_C 	C 	0.7631	0.7697	0.9978	-0.213
Mof_H 	H 	0.7684	0.7037	0.9955	0.069
Mof_C 	C 	0.7218	0.8069	0.0309	0.099
Mof_H 	H 	0.6985	0.7662	0.051	-0.038
Mof_C 	C 	0.7143	0.9051	0.0347	-0.214
Mof_C 	C 	0.6195	0.1	0.9528	0.379
Mof_C 	C 	0.8775	0.06	0.0704	0.395
Mof_C 	C 	0.825	0.9911	0.9352	0.409
Mof_C 	C 	0.6707	0.9413	0.0745	0.403
Mof_C 	C 	0.4154	0.8738	0.6986	0.032
Mof_C 	C 	0.4819	0.9125	0.6986	-0.181
Mof_C 	C 	0.4959	0.9451	0.6471	0.056
Mof_H 	H 	0.5406	0.9694	0.6477	-0.013
Mof_C 	C 	0.4446	0.9419	0.5955	-0.163
Mof_H 	H 	0.4539	0.965	0.5614	0.067
Mof_C 	C 	0.3788	0.9037	0.5951	0.057
Mof_H 	H 	0.3439	0.902	0.5604	0.002
Mof_C 	C 	0.3636	0.8681	0.6449	-0.166
Mof_C 	C 	0.4016	0.8361	0.7535	0.129
Mof_C 	C 	0.436	0.7526	0.7774	-0.287
Mof_C 	C 	0.4272	0.7189	0.8306	0.134
Mof_H 	H 	0.4523	0.6654	0.8479	-0.055
Mof_C 	C 	0.3819	0.7643	0.8572	-0.28
Mof_H 	H 	0.3763	0.7413	0.8925	0.101
Mof_C 	C 	0.3446	0.8432	0.8328	0.126
Mof_H 	H 	0.312	0.8712	0.8504	-0.073
Mof_C 	C 	0.3553	0.8824	0.781	-0.319
Mof_C 	C 	0.5416	0.9204	0.753	0.407
Mof_C 	C 	0.2918	0.8253	0.6413	0.38
Mof_C 	C 	0.4819	0.6978	0.7463	0.495
Mof_C 	C 	0.3167	0.9732	0.7579	0.451
Mof_C 	C 	0.892	0.8943	0.6981	0.051
Mof_C 	C 	0.8235	0.888	0.6598	-0.164
Mof_C 	C 	0.8091	0.9391	0.6078	0.053
Mof_H 	H 	0.7637	0.9373	0.5833	0.001
Mof_C 	C 	0.8611	0.9928	0.5919	-0.148
Mof_H 	H 	0.8515	0.0236	0.5561	0.055
Mof_C 	C 	0.9282	0.0002	0.6301	0.054
Mof_H 	H 	0.963	0.0367	0.6197	-0.021
Mof_C 	C 	0.9433	0.9543	0.6828	-0.182
Mof_C 	C 	0.9135	0.838	0.7526	0.094
Mof_C 	C 	0.9647	0.7654	0.756	-0.251
Mof_C 	C 	0.9943	0.7207	0.8088	0.073
Mof_H 	H 	0.0305	0.6762	0.8114	-0.036
Mof_C 	C 	0.9703	0.7418	0.8572	-0.205
Mof_H 	H 	0.9905	0.712	0.8924	0.069
Mof_C 	C 	0.9163	0.8072	0.8532	0.06
Mof_H 	H 	0.8984	0.8188	0.8854	-0.037
Mof_C 	C 	0.8879	0.8565	0.8009	-0.265
Mof_C 	C 	0.7657	0.8264	0.6727	0.389
Mof_C 	C 	0.0148	0.9753	0.7247	0.424
Mof_C 	C 	0.9842	0.7281	0.7024	0.414
Mof_C 	C 	0.8313	0.9327	0.7988	0.433
Mof_O 	O 	0.6241	0.0437	0.91238	-0.514
Mof_O 	O 	0.5621	0.1343	0.95854	-0.434
Mof_O 	O 	0.9347	0.0915	0.06281	-0.437
Mof_O 	O 	0.8744	0.9862	0.09927	-0.557
Mof_O 	O 	0.8881	0.9734	0.93412	-0.461
Mof_O 	O 	0.7899	0.0614	0.90797	-0.506
Mof_O 	O 	0.6069	0.9564	0.05418	-0.462
Mof_O 	O 	0.7015	0.9504	0.1282	-0.513
Mof_O 	O 	0.5282	0.9333	0.80113	-0.529
Mof_O 	O 	0.6037	0.9149	0.74569	-0.552
Mof_O 	O 	0.2398	0.8696	0.6111	-0.45
Mof_O 	O 	0.2864	0.751	0.6693	-0.561
Mof_O 	O 	0.4515	0.6462	0.7048	-0.589
Mof_O 	O 	0.547	0.7055	0.7636	-0.516
Mof_O 	O 	0.3507	0.0481	0.75847	-0.566
Mof_O 	O 	0.2489	0.967	0.74016	-0.591
Mof_O 	O 	0.7809	0.7477	0.69703	-0.575
Mof_O 	O 	0.7039	0.8597	0.6573	-0.376
Mof_O 	O 	0.0687	0.977	0.70409	-0.55
Mof_O 	O 	0.0176	0.9946	0.7763	-0.54
Mof_O 	O 	0.0483	0.7239	0.70242	-0.578
Mof_O 	O 	0.935	0.6966	0.66211	-0.542
Mof_O 	O 	0.8486	0.018	0.7966	-0.528
Mof_O 	O 	0.7703	0.9037	0.8003	-0.578
Mof_O 	O 	0.4115	0.2406	0.8536	-0.863
Mof_H 	H 	0.3873	0.2494	0.8784	0.323
Mof_H 	H 	0.4442	0.2824	0.8587	0.327
Mof_O 	O 	0.1466	0.8604	0.8057	-1.301
Mof_H 	H 	0.1747	0.8371	0.8267	0.616
Mof_H 	H 	0.1066	0.8437	0.8108	0.458
Mof_O 	O 	0.1176	0.6967	0.59732	-0.936
Mof_H 	H 	0.1462	0.6496	0.6038	0.322
Mof_H 	H 	0.1193	0.7235	0.5655	0.333
_end
