# CIF file generated by openbabel 3.1.0, see https://openbabel.org
data_I
_chemical_name_common 'image0'
_cell_length_a 13.4495
_cell_length_b 13.4495
_cell_length_c 25.413
_cell_angle_alpha 90
_cell_angle_beta 90
_cell_angle_gamma 90
_space_group_name_H-M_alt 'P 1'
_space_group_name_Hall 'P 1'
loop_
    _symmetry_equiv_pos_as_xyz
    x,y,z
loop_
    _atom_site_label
    _atom_site_type_symbol
    _atom_site_fract_x
    _atom_site_fract_y
    _atom_site_fract_z
    _atom_site_occupancy
    C1       C        0.16010    0.72570    0.83160    1.000
    H1       H        0.09820    0.70470    0.85630    1.000
    H2       H        0.13870    0.78960    0.80850    1.000
    C2       C        0.11100    0.62100    0.76870    1.000
    O1       O        0.02780    0.63610    0.76950    1.000
    C3       C        0.12710    0.61100    0.75760    1.000
    O2       O        0.05790    0.67310    0.74610    1.000
    C4       C        0.15340    0.52800    0.73150    1.000
    C5       C        0.08780    0.48860    0.69420    1.000
    H3       H        0.01530    0.52140    0.68840    1.000
    C6       C        0.11690    0.40770    0.66530    1.000
    H4       H        0.06560    0.37790    0.63670    1.000
    C7       C        0.26910    0.40230    0.70650    1.000
    H5       H        0.34140    0.36850    0.71100    1.000
    C8       C        0.24600    0.48280    0.73750    1.000
    H6       H        0.29860    0.51050    0.76610    1.000
    N1       N        0.20630    0.36340    0.67078    1.000
    N2       N        0.64270    0.70850    0.05300    1.000
    O3       O        0.18770    0.64390    0.79740    1.000
    O4       O        0.35280    0.68170    0.93536    1.000
    O5       O        0.45710    0.57520    0.89659    1.000
    Cl1      Cl       0.08274    0.18162    0.61463    1.000
    C9       C        0.27410    0.65860    0.89910    1.000
    H7       H        0.20850    0.63620    0.92060    1.000
    H8       H        0.29630    0.59750    0.87410    1.000
    C10      C        0.43750    0.63230    0.93160    1.000
    C11      C        0.50740    0.65840    0.97510    1.000
    C12      C        0.60310    0.62020    0.97490    1.000
    H9       H        0.62690    0.57060    0.94390    1.000
    C13      C        0.66720    0.64620    0.01450    1.000
    H10      H        0.74100    0.61450    0.01450    1.000
    C14      C        0.54920    0.74480    0.05320    1.000
    H11      H        0.52770    0.79460    0.08460    1.000
    C15      C        0.48070    0.72150    0.01570    1.000
    H12      H        0.40650    0.75190    0.01760    1.000
    C16      C        0.33990    0.77430    0.83160    1.000
    H13      H        0.40180    0.79530    0.85630    1.000
    H14      H        0.36130    0.71040    0.80850    1.000
    C17      C        0.38900    0.87900    0.76870    1.000
    O6       O        0.47220    0.86390    0.76950    1.000
    C18      C        0.37290    0.88900    0.75760    1.000
    O7       O        0.44210    0.82690    0.74610    1.000
    C19      C        0.34660    0.97200    0.73150    1.000
    C20      C        0.41220    0.01140    0.69420    1.000
    H15      H        0.48470    0.97860    0.68840    1.000
    C21      C        0.38310    0.09230    0.66530    1.000
    H16      H        0.43440    0.12210    0.63670    1.000
    C22      C        0.23090    0.09770    0.70650    1.000
    H17      H        0.15860    0.13150    0.71100    1.000
    C23      C        0.25400    0.01720    0.73750    1.000
    H18      H        0.20140    0.98950    0.76610    1.000
    N3       N        0.29370    0.13660    0.67078    1.000
    N4       N        0.85730    0.79150    0.05300    1.000
    O8       O        0.31230    0.85610    0.79740    1.000
    O9       O        0.14720    0.81830    0.93536    1.000
    O10      O        0.04290    0.92480    0.89659    1.000
    Cl2      Cl       0.41726    0.31838    0.61463    1.000
    C24      C        0.22590    0.84140    0.89910    1.000
    H19      H        0.29150    0.86380    0.92060    1.000
    H20      H        0.20370    0.90250    0.87410    1.000
    C25      C        0.06250    0.86770    0.93160    1.000
    C26      C        0.99260    0.84160    0.97510    1.000
    C27      C        0.89690    0.87980    0.97490    1.000
    H21      H        0.87310    0.92940    0.94390    1.000
    C28      C        0.83280    0.85380    0.01450    1.000
    H22      H        0.75900    0.88550    0.01450    1.000
    C29      C        0.95080    0.75520    0.05320    1.000
    H23      H        0.97230    0.70540    0.08460    1.000
    C30      C        0.01930    0.77850    0.01570    1.000
    H24      H        0.09350    0.74810    0.01760    1.000
    C31      C        0.27430    0.66010    0.33160    1.000
    H25      H        0.29530    0.59820    0.35630    1.000
    H26      H        0.21040    0.63870    0.30850    1.000
    C32      C        0.37900    0.61100    0.26870    1.000
    O11      O        0.36390    0.52780    0.26950    1.000
    C33      C        0.38900    0.62710    0.25760    1.000
    O12      O        0.32690    0.55790    0.24610    1.000
    C34      C        0.47200    0.65340    0.23150    1.000
    C35      C        0.51140    0.58780    0.19420    1.000
    H27      H        0.47860    0.51530    0.18840    1.000
    C36      C        0.59230    0.61690    0.16530    1.000
    H28      H        0.62210    0.56560    0.13670    1.000
    C37      C        0.59770    0.76910    0.20650    1.000
    H29      H        0.63150    0.84140    0.21100    1.000
    C38      C        0.51720    0.74600    0.23750    1.000
    H30      H        0.48950    0.79860    0.26610    1.000
    N5       N        0.63660    0.70630    0.17078    1.000
    N6       N        0.29150    0.14270    0.55300    1.000
    O13      O        0.35610    0.68770    0.29740    1.000
    O14      O        0.31830    0.85280    0.43536    1.000
    O15      O        0.42480    0.95710    0.39659    1.000
    Cl3      Cl       0.81838    0.58274    0.11463    1.000
    C39      C        0.34140    0.77410    0.39910    1.000
    H31      H        0.36380    0.70850    0.42060    1.000
    H32      H        0.40250    0.79630    0.37410    1.000
    C40      C        0.36770    0.93750    0.43160    1.000
    C41      C        0.34160    0.00740    0.47510    1.000
    C42      C        0.37980    0.10310    0.47490    1.000
    H33      H        0.42940    0.12690    0.44390    1.000
    C43      C        0.35380    0.16720    0.51450    1.000
    H34      H        0.38550    0.24100    0.51450    1.000
    C44      C        0.25520    0.04920    0.55320    1.000
    H35      H        0.20540    0.02770    0.58460    1.000
    C45      C        0.27850    0.98070    0.51570    1.000
    H36      H        0.24810    0.90650    0.51760    1.000
    C46      C        0.22570    0.83990    0.33160    1.000
    H37      H        0.20470    0.90180    0.35630    1.000
    H38      H        0.28960    0.86130    0.30850    1.000
    C47      C        0.12100    0.88900    0.26870    1.000
    O16      O        0.13610    0.97220    0.26950    1.000
    C48      C        0.11100    0.87290    0.25760    1.000
    O17      O        0.17310    0.94210    0.24610    1.000
    C49      C        0.02800    0.84660    0.23150    1.000
    C50      C        0.98860    0.91220    0.19420    1.000
    H39      H        0.02140    0.98470    0.18840    1.000
    C51      C        0.90770    0.88310    0.16530    1.000
    H40      H        0.87790    0.93440    0.13670    1.000
    C52      C        0.90230    0.73090    0.20650    1.000
    H41      H        0.86850    0.65860    0.21100    1.000
    C53      C        0.98280    0.75400    0.23750    1.000
    H42      H        0.01050    0.70140    0.26610    1.000
    N7       N        0.86340    0.79370    0.17078    1.000
    N8       N        0.20850    0.35730    0.55300    1.000
    O18      O        0.14390    0.81230    0.29740    1.000
    O19      O        0.18170    0.64720    0.43536    1.000
    O20      O        0.07520    0.54290    0.39659    1.000
    Cl4      Cl       0.68162    0.91726    0.11463    1.000
    C54      C        0.15860    0.72590    0.39910    1.000
    H43      H        0.13620    0.79150    0.42060    1.000
    H44      H        0.09750    0.70370    0.37410    1.000
    C55      C        0.13230    0.56250    0.43160    1.000
    C56      C        0.15840    0.49260    0.47510    1.000
    C57      C        0.12020    0.39690    0.47490    1.000
    H45      H        0.07060    0.37310    0.44390    1.000
    C58      C        0.14620    0.33280    0.51450    1.000
    H46      H        0.11450    0.25900    0.51450    1.000
    C59      C        0.24480    0.45080    0.55320    1.000
    H47      H        0.29460    0.47230    0.58460    1.000
    C60      C        0.22150    0.51930    0.51570    1.000
    H48      H        0.25190    0.59350    0.51760    1.000
    C61      C        0.25000    0.75000    0.86510    1.000
    C62      C        0.25000    0.75000    0.36510    1.000
    Co1      Co       0.25000    0.25000    0.61390    1.000
    Co2      Co       0.75000    0.75000    0.11390    1.000
    C63      C        0.83990    0.27430    0.16840    1.000
    H49      H        0.90180    0.29530    0.14370    1.000
    H50      H        0.86130    0.21040    0.19150    1.000
    C64      C        0.88900    0.37900    0.23130    1.000
    O21      O        0.97220    0.36390    0.23050    1.000
    C65      C        0.87290    0.38900    0.24240    1.000
    O22      O        0.94210    0.32690    0.25390    1.000
    C66      C        0.84660    0.47200    0.26850    1.000
    C67      C        0.91220    0.51140    0.30580    1.000
    H51      H        0.98470    0.47860    0.31160    1.000
    C68      C        0.88310    0.59230    0.33470    1.000
    H52      H        0.93440    0.62210    0.36330    1.000
    C69      C        0.73090    0.59770    0.29350    1.000
    H53      H        0.65860    0.63150    0.28900    1.000
    C70      C        0.75400    0.51720    0.26250    1.000
    H54      H        0.70140    0.48950    0.23390    1.000
    N9       N        0.79370    0.63660    0.32922    1.000
    N10      N        0.35730    0.29150    0.94700    1.000
    O23      O        0.81230    0.35610    0.20260    1.000
    O24      O        0.64720    0.31830    0.06464    1.000
    O25      O        0.54290    0.42480    0.10341    1.000
    Cl5      Cl       0.91726    0.81838    0.38537    1.000
    C71      C        0.72590    0.34140    0.10090    1.000
    H55      H        0.79150    0.36380    0.07940    1.000
    H56      H        0.70370    0.40250    0.12590    1.000
    C72      C        0.56250    0.36770    0.06840    1.000
    C73      C        0.49260    0.34160    0.02490    1.000
    C74      C        0.39690    0.37980    0.02510    1.000
    H57      H        0.37310    0.42940    0.05610    1.000
    C75      C        0.33280    0.35380    0.98550    1.000
    H58      H        0.25900    0.38550    0.98550    1.000
    C76      C        0.45080    0.25520    0.94680    1.000
    H59      H        0.47230    0.20540    0.91540    1.000
    C77      C        0.51930    0.27850    0.98430    1.000
    H60      H        0.59350    0.24810    0.98240    1.000
    C78      C        0.66010    0.22570    0.16840    1.000
    H61      H        0.59820    0.20470    0.14370    1.000
    H62      H        0.63870    0.28960    0.19150    1.000
    C79      C        0.61100    0.12100    0.23130    1.000
    O26      O        0.52780    0.13610    0.23050    1.000
    C80      C        0.62710    0.11100    0.24240    1.000
    O27      O        0.55790    0.17310    0.25390    1.000
    C81      C        0.65340    0.02800    0.26850    1.000
    C82      C        0.58780    0.98860    0.30580    1.000
    H63      H        0.51530    0.02140    0.31160    1.000
    C83      C        0.61690    0.90770    0.33470    1.000
    H64      H        0.56560    0.87790    0.36330    1.000
    C84      C        0.76910    0.90230    0.29350    1.000
    H65      H        0.84140    0.86850    0.28900    1.000
    C85      C        0.74600    0.98280    0.26250    1.000
    H66      H        0.79860    0.01050    0.23390    1.000
    N11      N        0.70630    0.86340    0.32922    1.000
    N12      N        0.14270    0.20850    0.94700    1.000
    O28      O        0.68770    0.14390    0.20260    1.000
    O29      O        0.85280    0.18170    0.06464    1.000
    O30      O        0.95710    0.07520    0.10341    1.000
    Cl6      Cl       0.58274    0.68162    0.38537    1.000
    C86      C        0.77410    0.15860    0.10090    1.000
    H67      H        0.70850    0.13620    0.07940    1.000
    H68      H        0.79630    0.09750    0.12590    1.000
    C87      C        0.93750    0.13230    0.06840    1.000
    C88      C        0.00740    0.15840    0.02490    1.000
    C89      C        0.10310    0.12020    0.02510    1.000
    H69      H        0.12690    0.07060    0.05610    1.000
    C90      C        0.16720    0.14620    0.98550    1.000
    H70      H        0.24100    0.11450    0.98550    1.000
    C91      C        0.04920    0.24480    0.94680    1.000
    H71      H        0.02770    0.29460    0.91540    1.000
    C92      C        0.98070    0.22150    0.98430    1.000
    H72      H        0.90650    0.25190    0.98240    1.000
    C93      C        0.72570    0.33990    0.66840    1.000
    H73      H        0.70470    0.40180    0.64370    1.000
    H74      H        0.78960    0.36130    0.69150    1.000
    C94      C        0.62100    0.38900    0.73130    1.000
    O31      O        0.63610    0.47220    0.73050    1.000
    C95      C        0.61100    0.37290    0.74240    1.000
    O32      O        0.67310    0.44210    0.75390    1.000
    C96      C        0.52800    0.34660    0.76850    1.000
    C97      C        0.48860    0.41220    0.80580    1.000
    H75      H        0.52140    0.48470    0.81160    1.000
    C98      C        0.40770    0.38310    0.83470    1.000
    H76      H        0.37790    0.43440    0.86330    1.000
    C99      C        0.40230    0.23090    0.79350    1.000
    H77      H        0.36850    0.15860    0.78900    1.000
    C100     C        0.48280    0.25400    0.76250    1.000
    H78      H        0.51050    0.20140    0.73390    1.000
    N13      N        0.36340    0.29370    0.82922    1.000
    N14      N        0.70850    0.85730    0.44700    1.000
    O33      O        0.64390    0.31230    0.70260    1.000
    O34      O        0.68170    0.14720    0.56464    1.000
    O35      O        0.57520    0.04290    0.60341    1.000
    Cl7      Cl       0.18162    0.41726    0.88537    1.000
    C101     C        0.65860    0.22590    0.60090    1.000
    H79      H        0.63620    0.29150    0.57940    1.000
    H80      H        0.59750    0.20370    0.62590    1.000
    C102     C        0.63230    0.06250    0.56840    1.000
    C103     C        0.65840    0.99260    0.52490    1.000
    C104     C        0.62020    0.89690    0.52510    1.000
    H81      H        0.57060    0.87310    0.55610    1.000
    C105     C        0.64620    0.83280    0.48550    1.000
    H82      H        0.61450    0.75900    0.48550    1.000
    C106     C        0.74480    0.95080    0.44680    1.000
    H83      H        0.79460    0.97230    0.41540    1.000
    C107     C        0.72150    0.01930    0.48430    1.000
    H84      H        0.75190    0.09350    0.48240    1.000
    C108     C        0.77430    0.16010    0.66840    1.000
    H85      H        0.79530    0.09820    0.64370    1.000
    H86      H        0.71040    0.13870    0.69150    1.000
    C109     C        0.87900    0.11100    0.73130    1.000
    O36      O        0.86390    0.02780    0.73050    1.000
    C110     C        0.88900    0.12710    0.74240    1.000
    O37      O        0.82690    0.05790    0.75390    1.000
    C111     C        0.97200    0.15340    0.76850    1.000
    C112     C        0.01140    0.08780    0.80580    1.000
    H87      H        0.97860    0.01530    0.81160    1.000
    C113     C        0.09230    0.11690    0.83470    1.000
    H88      H        0.12210    0.06560    0.86330    1.000
    C114     C        0.09770    0.26910    0.79350    1.000
    H89      H        0.13150    0.34140    0.78900    1.000
    C115     C        0.01720    0.24600    0.76250    1.000
    H90      H        0.98950    0.29860    0.73390    1.000
    N15      N        0.13660    0.20630    0.82922    1.000
    N16      N        0.79150    0.64270    0.44700    1.000
    O38      O        0.85610    0.18770    0.70260    1.000
    O39      O        0.81830    0.35280    0.56464    1.000
    O40      O        0.92480    0.45710    0.60341    1.000
    Cl8      Cl       0.31838    0.08274    0.88537    1.000
    C116     C        0.84140    0.27410    0.60090    1.000
    H91      H        0.86380    0.20850    0.57940    1.000
    H92      H        0.90250    0.29630    0.62590    1.000
    C117     C        0.86770    0.43750    0.56840    1.000
    C118     C        0.84160    0.50740    0.52490    1.000
    C119     C        0.87980    0.60310    0.52510    1.000
    H93      H        0.92940    0.62690    0.55610    1.000
    C120     C        0.85380    0.66720    0.48550    1.000
    H94      H        0.88550    0.74100    0.48550    1.000
    C121     C        0.75520    0.54920    0.44680    1.000
    H95      H        0.70540    0.52770    0.41540    1.000
    C122     C        0.77850    0.48070    0.48430    1.000
    H96      H        0.74810    0.40650    0.48240    1.000
    C123     C        0.75000    0.25000    0.13490    1.000
    C124     C        0.75000    0.25000    0.63490    1.000
    Co3      Co       0.75000    0.75000    0.38610    1.000
    Co4      Co       0.25000    0.25000    0.88610    1.000
