data_functionalizedCrystal
_audit_creation_method	'EQeq! by Chris Wilmer'
_symmetry_space_group_name_H-M	'P1'
_symmetry_Int_Tables_number	1
_symmetry_cell_setting	triclinic
loop_
_symmetry_equiv_pos_as_xyz
  x,y,z
_cell_length_a	15.2035
_cell_length_b	16.5919
_cell_length_c	16.124
_cell_angle_alpha	90
_cell_angle_beta	116.849
_cell_angle_gamma	90
loop_
_atom_site_label
_atom_site_type_symbol
_atom_site_fract_x
_atom_site_fract_y
_atom_site_fract_z
_atom_site_charge
Mof_Ag	Ag	0.07027	0.41106	0.39558	0.599
Mof_C 	C 	0.16677	0.26358	0.55504	0.05
Mof_H 	H 	0.189	0.3055	0.6001	0.001
Mof_C 	C 	0.20316	0.18656	0.58266	-0.076
Mof_C 	C 	0.17143	0.12508	0.51683	0.009
Mof_H 	H 	0.1957	0.0717	0.5335	0.01
Mof_C 	C 	0.1037	0.14335	0.42644	-0.111
Mof_H 	H 	0.0806	0.1028	0.3798	0.061
Mof_C 	C 	0.07047	0.22158	0.40574	0.061
Mof_H 	H 	0.0228	0.2334	0.344	-0.001
Mof_C 	C 	0.3896	0.09724	0.0986	0.065
Mof_H 	H 	0.4002	0.0855	0.1601	-0.016
Mof_C 	C 	0.3674	0.1752	0.0673	-0.119
Mof_H 	H 	0.3637	0.2162	0.1067	0.069
Mof_C 	C 	0.3505	0.19315	0.9771	0.018
Mof_H 	H 	0.3342	0.2464	0.9534	0.027
Mof_C 	C 	0.35782	0.13167	0.92283	-0.078
Mof_C 	C 	0.38134	0.05481	0.96051	0.039
Mof_H 	H 	0.3867	0.0128	0.923	-0.013
Mof_C 	C 	0.2762	0.16705	0.67845	0.111
Mof_C 	C 	0.34293	0.1427	0.827	0.118
Mof_N 	N 	0.10146	0.28183	0.46741	-0.18
Mof_N 	N 	0.39687	0.03704	0.04698	-0.198
Mof_N 	N 	0.40322	0.11563	0.79582	-0.166
Mof_N 	N 	0.36062	0.1311	0.7012	-0.162
Mof_N 	N 	0.26295	0.17698	0.75621	-0.12
Mof_N 	N 	0.18221	0.2096	0.76514	-0.224
Mof_H 	H 	0.132	0.1817	0.728	0.128
Mof_H 	H 	0.182	0.263	0.75	0.111
Mof_Ag	Ag	0.57027	0.91106	0.39558	0.598
Mof_C 	C 	0.66677	0.76358	0.55504	0.049
Mof_H 	H 	0.689	0.8055	0.6001	0
Mof_C 	C 	0.70316	0.68656	0.58266	-0.076
Mof_C 	C 	0.67143	0.62508	0.51683	0.008
Mof_H 	H 	0.6957	0.5717	0.5335	0.009
Mof_C 	C 	0.6037	0.64335	0.42644	-0.112
Mof_H 	H 	0.5806	0.6028	0.3798	0.06
Mof_C 	C 	0.57047	0.72158	0.40574	0.06
Mof_H 	H 	0.5228	0.7334	0.344	-0.002
Mof_C 	C 	0.8896	0.59724	0.0986	0.066
Mof_H 	H 	0.9002	0.5855	0.1601	-0.018
Mof_C 	C 	0.8674	0.6752	0.0673	-0.125
Mof_H 	H 	0.8637	0.7162	0.1067	0.069
Mof_C 	C 	0.8505	0.69315	0.9771	0.022
Mof_H 	H 	0.8342	0.7464	0.9534	0.025
Mof_C 	C 	0.85782	0.63167	0.92283	-0.081
Mof_C 	C 	0.88134	0.55481	0.96051	0.043
Mof_H 	H 	0.8867	0.5128	0.923	-0.013
Mof_C 	C 	0.7762	0.66705	0.67845	0.112
Mof_C 	C 	0.84293	0.6427	0.827	0.119
Mof_N 	N 	0.60146	0.78183	0.46741	-0.18
Mof_N 	N 	0.89687	0.53704	0.04698	-0.201
Mof_N 	N 	0.90322	0.61563	0.79582	-0.166
Mof_N 	N 	0.86062	0.6311	0.7012	-0.162
Mof_N 	N 	0.76295	0.67698	0.75621	-0.12
Mof_N 	N 	0.68221	0.7096	0.76514	-0.224
Mof_H 	H 	0.632	0.6817	0.728	0.128
Mof_H 	H 	0.682	0.763	0.75	0.111
Mof_Ag	Ag	0.92973	0.41106	0.10442	0.598
Mof_C 	C 	0.83323	0.26358	0.94496	0.048
Mof_H 	H 	0.811	0.3055	0.8999	0.001
Mof_C 	C 	0.79684	0.18656	0.91734	-0.075
Mof_C 	C 	0.82857	0.12508	0.98317	0.005
Mof_H 	H 	0.8043	0.0717	0.9665	0.01
Mof_C 	C 	0.8963	0.14335	0.07356	-0.11
Mof_H 	H 	0.9194	0.1028	0.1202	0.059
Mof_C 	C 	0.92953	0.22158	0.09426	0.059
Mof_H 	H 	0.9772	0.2334	0.156	-0.002
Mof_C 	C 	0.6104	0.09724	0.4014	0.065
Mof_H 	H 	0.5998	0.0855	0.3399	-0.017
Mof_C 	C 	0.6326	0.1752	0.4327	-0.123
Mof_H 	H 	0.6363	0.2162	0.3933	0.069
Mof_C 	C 	0.6495	0.19315	0.5229	0.02
Mof_H 	H 	0.6658	0.2464	0.5466	0.025
Mof_C 	C 	0.64218	0.13167	0.57717	-0.08
Mof_C 	C 	0.61866	0.05481	0.53949	0.042
Mof_H 	H 	0.6133	0.0128	0.577	-0.013
Mof_C 	C 	0.7238	0.16705	0.82155	0.111
Mof_C 	C 	0.65707	0.1427	0.673	0.119
Mof_N 	N 	0.89854	0.28183	0.03259	-0.18
Mof_N 	N 	0.60313	0.03704	0.45302	-0.2
Mof_N 	N 	0.59678	0.11563	0.70418	-0.166
Mof_N 	N 	0.63938	0.1311	0.7988	-0.162
Mof_N 	N 	0.73705	0.17698	0.74379	-0.12
Mof_N 	N 	0.81779	0.2096	0.73486	-0.224
Mof_H 	H 	0.868	0.1817	0.772	0.128
Mof_H 	H 	0.818	0.263	0.75	0.111
Mof_Ag	Ag	0.42973	0.91106	0.10442	0.597
Mof_C 	C 	0.33323	0.76358	0.94496	0.05
Mof_H 	H 	0.311	0.8055	0.8999	0
Mof_C 	C 	0.29684	0.68656	0.91734	-0.077
Mof_C 	C 	0.32857	0.62508	0.98317	0.009
Mof_H 	H 	0.3043	0.5717	0.9665	0.009
Mof_C 	C 	0.3963	0.64335	0.07356	-0.114
Mof_H 	H 	0.4194	0.6028	0.1202	0.06
Mof_C 	C 	0.42953	0.72158	0.09426	0.061
Mof_H 	H 	0.4772	0.7334	0.156	-0.002
Mof_C 	C 	0.1104	0.59724	0.4014	0.065
Mof_H 	H 	0.0998	0.5855	0.3399	-0.017
Mof_C 	C 	0.1326	0.6752	0.4327	-0.123
Mof_H 	H 	0.1363	0.7162	0.3933	0.069
Mof_C 	C 	0.1495	0.69315	0.5229	0.02
Mof_H 	H 	0.1658	0.7464	0.5466	0.025
Mof_C 	C 	0.14218	0.63167	0.57717	-0.08
Mof_C 	C 	0.11866	0.55481	0.53949	0.042
Mof_H 	H 	0.1133	0.5128	0.577	-0.013
Mof_C 	C 	0.2238	0.66705	0.82155	0.112
Mof_C 	C 	0.15707	0.6427	0.673	0.119
Mof_N 	N 	0.39854	0.78183	0.03259	-0.181
Mof_N 	N 	0.10313	0.53704	0.45302	-0.2
Mof_N 	N 	0.09678	0.61563	0.70418	-0.166
Mof_N 	N 	0.13938	0.6311	0.7988	-0.162
Mof_N 	N 	0.23705	0.67698	0.74379	-0.12
Mof_N 	N 	0.31779	0.7096	0.73486	-0.224
Mof_H 	H 	0.368	0.6817	0.772	0.128
Mof_H 	H 	0.318	0.763	0.75	0.111
Mof_Ag	Ag	0.92973	0.58894	0.60442	0.598
Mof_C 	C 	0.83323	0.73642	0.44496	0.049
Mof_H 	H 	0.811	0.6945	0.3999	0
Mof_C 	C 	0.79684	0.81344	0.41734	-0.077
Mof_C 	C 	0.82857	0.87492	0.48317	0.008
Mof_H 	H 	0.8043	0.9283	0.4665	0.009
Mof_C 	C 	0.8963	0.85665	0.57356	-0.112
Mof_H 	H 	0.9194	0.8972	0.6202	0.06
Mof_C 	C 	0.92953	0.77842	0.59426	0.06
Mof_H 	H 	0.9772	0.7666	0.656	-0.002
Mof_C 	C 	0.6104	0.90276	0.9014	0.064
Mof_H 	H 	0.5998	0.9145	0.8399	-0.017
Mof_C 	C 	0.6326	0.8248	0.9327	-0.12
Mof_H 	H 	0.6363	0.7838	0.8933	0.068
Mof_C 	C 	0.6495	0.80685	0.0229	0.017
Mof_H 	H 	0.6658	0.7536	0.0466	0.026
Mof_C 	C 	0.64218	0.86833	0.07717	-0.078
Mof_C 	C 	0.61866	0.94519	0.03949	0.039
Mof_H 	H 	0.6133	0.9872	0.077	-0.013
Mof_C 	C 	0.7238	0.83295	0.32155	0.111
Mof_C 	C 	0.65707	0.8573	0.173	0.118
Mof_N 	N 	0.89854	0.71817	0.53259	-0.18
Mof_N 	N 	0.60313	0.96296	0.95302	-0.198
Mof_N 	N 	0.59678	0.88437	0.20418	-0.166
Mof_N 	N 	0.63938	0.8689	0.2988	-0.162
Mof_N 	N 	0.73705	0.82302	0.24379	-0.12
Mof_N 	N 	0.81779	0.7904	0.23486	-0.224
Mof_H 	H 	0.868	0.8183	0.272	0.128
Mof_H 	H 	0.818	0.737	0.25	0.111
Mof_Ag	Ag	0.42973	0.08894	0.60442	0.598
Mof_C 	C 	0.33323	0.23642	0.44496	0.049
Mof_H 	H 	0.311	0.1945	0.3999	0
Mof_C 	C 	0.29684	0.31344	0.41734	-0.076
Mof_C 	C 	0.32857	0.37492	0.48317	0.008
Mof_H 	H 	0.3043	0.4283	0.4665	0.009
Mof_C 	C 	0.3963	0.35665	0.57356	-0.112
Mof_H 	H 	0.4194	0.3972	0.6202	0.06
Mof_C 	C 	0.42953	0.27842	0.59426	0.06
Mof_H 	H 	0.4772	0.2666	0.656	-0.002
Mof_C 	C 	0.1104	0.40276	0.9014	0.066
Mof_H 	H 	0.0998	0.4145	0.8399	-0.018
Mof_C 	C 	0.1326	0.3248	0.9327	-0.125
Mof_H 	H 	0.1363	0.2838	0.8933	0.069
Mof_C 	C 	0.1495	0.30685	0.0229	0.022
Mof_H 	H 	0.1658	0.2536	0.0466	0.025
Mof_C 	C 	0.14218	0.36833	0.07717	-0.081
Mof_C 	C 	0.11866	0.44519	0.03949	0.043
Mof_H 	H 	0.1133	0.4872	0.077	-0.013
Mof_C 	C 	0.2238	0.33295	0.32155	0.112
Mof_C 	C 	0.15707	0.3573	0.173	0.119
Mof_N 	N 	0.39854	0.21817	0.53259	-0.18
Mof_N 	N 	0.10313	0.46296	0.95302	-0.201
Mof_N 	N 	0.09678	0.38437	0.20418	-0.166
Mof_N 	N 	0.13938	0.3689	0.2988	-0.162
Mof_N 	N 	0.23705	0.32302	0.24379	-0.12
Mof_N 	N 	0.31779	0.2904	0.23486	-0.224
Mof_H 	H 	0.368	0.3183	0.272	0.128
Mof_H 	H 	0.318	0.237	0.25	0.111
Mof_Ag	Ag	0.07027	0.58894	0.89558	0.598
Mof_C 	C 	0.16677	0.73642	0.05504	0.048
Mof_H 	H 	0.189	0.6945	0.1001	0.001
Mof_C 	C 	0.20316	0.81344	0.08266	-0.075
Mof_C 	C 	0.17143	0.87492	0.01683	0.005
Mof_H 	H 	0.1957	0.9283	0.0335	0.01
Mof_C 	C 	0.1037	0.85665	0.92644	-0.11
Mof_H 	H 	0.0806	0.8972	0.8798	0.059
Mof_C 	C 	0.07047	0.77842	0.90574	0.059
Mof_H 	H 	0.0228	0.7666	0.844	-0.002
Mof_C 	C 	0.3896	0.90276	0.5986	0.065
Mof_H 	H 	0.4002	0.9145	0.6601	-0.017
Mof_C 	C 	0.3674	0.8248	0.5673	-0.123
Mof_H 	H 	0.3637	0.7838	0.6067	0.069
Mof_C 	C 	0.3505	0.80685	0.4771	0.02
Mof_H 	H 	0.3342	0.7536	0.4534	0.025
Mof_C 	C 	0.35782	0.86833	0.42283	-0.08
Mof_C 	C 	0.38134	0.94519	0.46051	0.042
Mof_H 	H 	0.3867	0.9872	0.423	-0.013
Mof_C 	C 	0.2762	0.83295	0.17845	0.111
Mof_C 	C 	0.34293	0.8573	0.327	0.119
Mof_N 	N 	0.10146	0.71817	0.96741	-0.18
Mof_N 	N 	0.39687	0.96296	0.54698	-0.2
Mof_N 	N 	0.40322	0.88437	0.29582	-0.166
Mof_N 	N 	0.36062	0.8689	0.2012	-0.162
Mof_N 	N 	0.26295	0.82302	0.25621	-0.12
Mof_N 	N 	0.18221	0.7904	0.26514	-0.224
Mof_H 	H 	0.132	0.8183	0.228	0.128
Mof_H 	H 	0.182	0.737	0.25	0.111
Mof_Ag	Ag	0.57027	0.08894	0.89558	0.597
Mof_C 	C 	0.66677	0.23642	0.05504	0.05
Mof_H 	H 	0.689	0.1945	0.1001	0
Mof_C 	C 	0.70316	0.31344	0.08266	-0.077
Mof_C 	C 	0.67143	0.37492	0.01683	0.009
Mof_H 	H 	0.6957	0.4283	0.0335	0.009
Mof_C 	C 	0.6037	0.35665	0.92644	-0.114
Mof_H 	H 	0.5806	0.3972	0.8798	0.06
Mof_C 	C 	0.57047	0.27842	0.90574	0.061
Mof_H 	H 	0.5228	0.2666	0.844	-0.002
Mof_C 	C 	0.8896	0.40276	0.5986	0.065
Mof_H 	H 	0.9002	0.4145	0.6601	-0.017
Mof_C 	C 	0.8674	0.3248	0.5673	-0.123
Mof_H 	H 	0.8637	0.2838	0.6067	0.069
Mof_C 	C 	0.8505	0.30685	0.4771	0.02
Mof_H 	H 	0.8342	0.2536	0.4534	0.025
Mof_C 	C 	0.85782	0.36833	0.42283	-0.08
Mof_C 	C 	0.88134	0.44519	0.46051	0.042
Mof_H 	H 	0.8867	0.4872	0.423	-0.013
Mof_C 	C 	0.7762	0.33295	0.17845	0.112
Mof_C 	C 	0.84293	0.3573	0.327	0.119
Mof_N 	N 	0.60146	0.21817	0.96741	-0.181
Mof_N 	N 	0.89687	0.46296	0.54698	-0.2
Mof_N 	N 	0.90322	0.38437	0.29582	-0.166
Mof_N 	N 	0.86062	0.3689	0.2012	-0.162
Mof_N 	N 	0.76295	0.32302	0.25621	-0.12
Mof_N 	N 	0.68221	0.2904	0.26514	-0.224
Mof_H 	H 	0.632	0.3183	0.228	0.128
Mof_H 	H 	0.682	0.237	0.25	0.111
_end
