# CIF file generated by openbabel 3.1.0, see https://openbabel.org
data_I
_chemical_name_common 'image0'
_cell_length_a 6.5677
_cell_length_b 16.4037
_cell_length_c 13.174
_cell_angle_alpha 90
_cell_angle_beta 90
_cell_angle_gamma 90
_space_group_name_H-M_alt 'P 1'
_space_group_name_Hall 'P 1'
loop_
    _symmetry_equiv_pos_as_xyz
    x,y,z
loop_
    _atom_site_label
    _atom_site_type_symbol
    _atom_site_fract_x
    _atom_site_fract_y
    _atom_site_fract_z
    _atom_site_occupancy
    O1       O        0.16870    0.16826    0.83890    1.000
    C1       C        0.80650    0.02980    0.95830    1.000
    O2       O        0.66870    0.66826    0.33890    1.000
    C2       C        0.30650    0.52980    0.45830    1.000
    O3       O        0.83130    0.33174    0.83890    1.000
    C3       C        0.19350    0.47020    0.95830    1.000
    O4       O        0.33130    0.83174    0.33890    1.000
    C4       C        0.69350    0.97020    0.45830    1.000
    O5       O        0.83130    0.66826    0.16110    1.000
    C5       C        0.19350    0.52980    0.04170    1.000
    O6       O        0.33130    0.16826    0.66110    1.000
    C6       C        0.69350    0.02980    0.54170    1.000
    O7       O        0.16870    0.83174    0.16110    1.000
    C7       C        0.80650    0.97020    0.04170    1.000
    O8       O        0.66870    0.33174    0.66110    1.000
    C8       C        0.30650    0.47020    0.54170    1.000
    O9       O        0.83130    0.83174    0.16110    1.000
    C9       C        0.19350    0.97020    0.04170    1.000
    O10      O        0.33130    0.33174    0.66110    1.000
    C10      C        0.69350    0.47020    0.54170    1.000
    O11      O        0.16870    0.66826    0.16110    1.000
    C11      C        0.80650    0.52980    0.04170    1.000
    O12      O        0.66870    0.16826    0.66110    1.000
    C12      C        0.30650    0.02980    0.54170    1.000
    O13      O        0.16870    0.33174    0.83890    1.000
    C13      C        0.80650    0.47020    0.95830    1.000
    O14      O        0.66870    0.83174    0.33890    1.000
    C14      C        0.30650    0.97020    0.45830    1.000
    O15      O        0.83130    0.16826    0.83890    1.000
    C15      C        0.19350    0.02980    0.95830    1.000
    O16      O        0.33130    0.66826    0.33890    1.000
    C16      C        0.69350    0.52980    0.45830    1.000
    Al1      Al       0.25000    0.25000    0.75000    1.000
    Al2      Al       0.75000    0.25000    0.75000    1.000
    Al3      Al       0.75000    0.75000    0.25000    1.000
    Al4      Al       0.25000    0.75000    0.25000    1.000
    F1       F        0.00000    0.25000    0.69400    1.000
    F2       F        0.50000    0.75000    0.19400    1.000
    F3       F        0.00000    0.75000    0.30600    1.000
    F4       F        0.50000    0.25000    0.80600    1.000
    C17      C        0.00000    0.06220    0.94610    1.000
    C18      C        0.00000    0.13870    0.87240    1.000
    C19      C        0.50000    0.56220    0.44610    1.000
    C20      C        0.50000    0.63870    0.37240    1.000
    C21      C        0.00000    0.43780    0.94610    1.000
    C22      C        0.00000    0.36130    0.87240    1.000
    C23      C        0.50000    0.93780    0.44610    1.000
    C24      C        0.50000    0.86130    0.37240    1.000
    C25      C        0.00000    0.56220    0.05390    1.000
    C26      C        0.00000    0.63870    0.12760    1.000
    C27      C        0.50000    0.06220    0.55390    1.000
    C28      C        0.50000    0.13870    0.62760    1.000
    C29      C        0.00000    0.93780    0.05390    1.000
    C30      C        0.00000    0.86130    0.12760    1.000
    C31      C        0.50000    0.43780    0.55390    1.000
    C32      C        0.50000    0.36130    0.62760    1.000
