# CIF file generated by openbabel 3.1.0, see https://openbabel.org
data_I
_chemical_name_common 'image0'
_cell_length_a 11.881
_cell_length_b 15.07
_cell_length_c 18.338
_cell_angle_alpha 66.014
_cell_angle_beta 76.901
_cell_angle_gamma 75.646
_space_group_name_H-M_alt 'P 1'
_space_group_name_Hall 'P 1'
loop_
    _symmetry_equiv_pos_as_xyz
    x,y,z
loop_
    _atom_site_label
    _atom_site_type_symbol
    _atom_site_fract_x
    _atom_site_fract_y
    _atom_site_fract_z
    _atom_site_occupancy
    W1       W        0.18530    0.70821    0.10479    1.000
    W2       W        0.35890    0.27437    0.14709    1.000
    W3       W        0.50790    0.48399    0.00422    1.000
    W4       W        0.66800    0.44744    0.14693    1.000
    W5       W        0.50840    0.24581    0.29402    1.000
    W6       W        0.43320    0.50811    0.65354    1.000
    W7       W        0.25640    0.75655    0.55322    1.000
    W8       W        0.18240    0.52350    0.04653    1.000
    W9       W        0.51010    0.67099    0.06159    1.000
    W10      W        0.04200    0.52345    0.22965    1.000
    W11      W        0.40240    0.75256    0.37142    1.000
    W12      W        0.57440    0.50807    0.46982    1.000
    W13      W        0.21330    0.27853    0.32832    1.000
    W14      W        0.10670    0.78540    0.40580    1.000
    W15      W        0.10520    0.36075    0.63766    1.000
    W16      W        0.10740    0.54806    0.69519    1.000
    W17      W        0.94720    0.58466    0.55203    1.000
    W18      W        0.43100    0.32347    0.59497    1.000
    Ge1      Ge       0.25960    0.55000    0.49820    1.000
    Ge2      Ge       0.35610    0.48300    0.20170    1.000
    Cu1      Cu       0.23890    0.61630    0.30800    1.000
    Cu2      Cu       0.09740    0.44140    0.42680    1.000
    Cu3      Cu       0.51880    0.58790    0.27190    1.000
    Cu4      Cu       0.37930    0.41450    0.39170    1.000
    O1       O        0.26800    0.33400    0.64200    1.000
    O2       O        0.66300    0.58900    0.08930    1.000
    O3       O        0.38500    0.49200    0.53600    1.000
    O4       O        0.24300    0.83100    0.34880    1.000
    O5       O        0.00200    0.70600    0.48790    1.000
    O6       O        0.35500    0.35800    0.23950    1.000
    O7       O        0.24700    0.22600    0.23500    1.000
    O8       O        0.35800    0.51500    0.27890    1.000
    O9       O        0.45600    0.36800    0.67700    1.000
    O10      O        0.01200    0.89500    0.35660    1.000
    O11      O        0.25400    0.67700    0.47040    1.000
    O12      O        0.24600    0.51700    0.41200    1.000
    O13      O        0.13000    0.71000    0.34810    1.000
    O14      O        0.27700    0.50700    0.69300    1.000
    O15      O        0.48600    0.21200    0.20390    1.000
    O16      O        0.22550    0.53930    0.15410    1.000
    O17      O        0.56800    0.37200    0.53700    1.000
    O18      O        0.00000    0.55400    0.46000    1.000
    O19      O        0.22400    0.70200    0.19870    1.000
    O20      O        0.47600    0.35300    0.07200    1.000
    O21      O        0.66200    0.43500    0.04900    1.000
    O22      O        0.62600    0.47900    0.24400    1.000
    O23      O        0.03500    0.66500    0.16710    1.000
    O24      O        0.48400    0.51400    0.73200    1.000
    O25      O        0.40600    0.67560    0.31890    1.000
    O26      O        0.82200    0.41500    0.14400    1.000
    O27      O        0.14100    0.83300    0.48610    1.000
    O28      O        0.95100    0.45100    0.61500    1.000
    O29      O        0.46900    0.51600    0.12050    1.000
    O30      O        0.08800    0.41100    0.72500    1.000
    O31      O        0.35800    0.19280    0.35710    1.000
    O32      O        0.54000    0.60700    0.98000    1.000
    O33      O        0.52400    0.50600    0.38000    1.000
    O34      O        0.13030    0.52400    0.56960    1.000
    O35      O        0.16100    0.65600    0.02600    1.000
    O36      O        0.13200    0.34800    0.54420    1.000
    O37      O        0.10800    0.39750    0.26100    1.000
    O38      O        0.35000    0.71000    0.05490    1.000
    O39      O        0.08900    0.53800    0.30900    1.000
    O40      O        0.04500    0.51500    0.12400    1.000
    O41      O        0.06000    0.55700    0.79000    1.000
    O42      O        0.38900    0.32800    0.50700    1.000
    O43      O        0.50000    0.32200    0.34900    1.000
    O44      O        0.15300    0.67400    0.62630    1.000
    O45      O        0.35400    0.53340    0.99870    1.000
    O46      O        0.12800    0.53100    0.96000    1.000
    O47      O        0.55900    0.46800    0.91600    1.000
    O48      O        0.22800    0.34400    0.39570    1.000
    O49      O        0.49300    0.67010    0.16730    1.000
    O50      O        0.80300    0.62800    0.55020    1.000
    O51      O        0.24500    0.37700    0.10120    1.000
    O52      O        0.96700    0.60100    0.65000    1.000
    O53      O        0.37200    0.79500    0.46400    1.000
    O54      O        0.56800    0.52300    0.57800    1.000
    O55      O        0.51050    0.65660    0.43170    1.000
    O56      O        0.37500    0.63800    0.60360    1.000
    O57      O        0.60900    0.32700    0.20800    1.000
    Cu5      Cu       0.27550    0.90090    0.70400    1.000
    O58      O        0.29200    0.94800    0.81440    1.000
    O59      O        0.58600    0.76500    0.64100    1.000
    O60      O        0.12300    0.89100    0.75300    1.000
    O61      O        0.44500    0.88300    0.65500    1.000
    O62      O        0.01600    0.76000    0.82700    1.000
    N1       N        0.30700    0.76700    0.78700    1.000
    C1       C        0.11900    0.79400    0.78800    1.000
    C2       C        0.37900    0.84500    0.85800    1.000
    H1       H        0.45460    0.83840    0.82570    1.000
    H2       H        0.38930    0.83850    0.91150    1.000
    C3       C        0.22400    0.71300    0.79730    1.000
    H3       H        0.21770    0.66080    0.85050    1.000
    H4       H        0.23810    0.68430    0.75640    1.000
    C4       C        0.30400    0.77600    0.86200    1.000
    H5       H        0.32880    0.71140    0.90110    1.000
    H6       H        0.22300    0.79910    0.88110    1.000
    C5       C        0.24300    0.98400    0.84100    1.000
    H7       H        0.17650    0.95130    0.85600    1.000
    H8       H        0.22330    0.04330    0.79470    1.000
    C6       C        0.42300    0.72100    0.75500    1.000
    H9       H        0.46820    0.68560    0.79940    1.000
    H10      H        0.40940    0.67250    0.73740    1.000
    C7       C        0.49300    0.78100    0.69200    1.000
    K1       K        0.67700    0.42700    0.80000    1.000
    O63      O        0.02300    0.08500    0.28100    1.000
    K2       K        0.94270    0.60620    0.90010    1.000
    K3       K        0.60220    0.73820    0.50820    1.000
    O64      O        0.52900    0.94800    0.47200    1.000
    H11      H        0.53620    0.88050    0.50830    1.000
    H12      H        0.46200    0.98640    0.49310    1.000
    K4       K        0.01100    0.28850    0.19830    1.000
    K5       K        0.92490    0.03280    0.25670    1.000
    O65      O        0.79000    0.97600    0.34300    1.000
    H13      H        0.81620    0.90980    0.34260    1.000
    H14      H        0.78070    0.03070    0.29220    1.000
