# CIF file generated by openbabel 3.1.0, see https://openbabel.org
data_I
_chemical_name_common 'image0'
_cell_length_a 8.91
_cell_length_b 14.974
_cell_length_c 14.712
_cell_angle_alpha 90
_cell_angle_beta 90
_cell_angle_gamma 90
_space_group_name_H-M_alt 'P 1'
_space_group_name_Hall 'P 1'
loop_
    _symmetry_equiv_pos_as_xyz
    x,y,z
loop_
    _atom_site_label
    _atom_site_type_symbol
    _atom_site_fract_x
    _atom_site_fract_y
    _atom_site_fract_z
    _atom_site_occupancy
    Al1      Al       0.84320    0.34530    0.11690    1.000
    P1       P        0.83040    0.13470    0.10270    1.000
    O1       O        0.76510    0.22600    0.12110    1.000
    O2       O        0.95750    0.85310    0.33550    1.000
    O3       O        0.72800    0.06550    0.13620    1.000
    O4       O        0.85720    0.11670    0.00570    1.000
    O5       O        0.29960    0.92030    0.32620    1.000
    O6       O        0.97800    0.12700    0.14950    1.000
    O7       O        0.20400    0.04140    0.21610    1.000
    Al2      Al       0.15680    0.65470    0.61690    1.000
    P2       P        0.16960    0.86530    0.60270    1.000
    O8       O        0.23490    0.77400    0.62110    1.000
    O9       O        0.04250    0.14690    0.83550    1.000
    O10      O        0.27200    0.93450    0.63620    1.000
    O11      O        0.14280    0.88330    0.50570    1.000
    O12      O        0.70040    0.07970    0.82620    1.000
    O13      O        0.02200    0.87300    0.64950    1.000
    O14      O        0.79600    0.95860    0.71610    1.000
    Al3      Al       0.15680    0.84530    0.38310    1.000
    P3       P        0.16960    0.63470    0.39730    1.000
    O15      O        0.23490    0.72600    0.37890    1.000
    O16      O        0.04250    0.35310    0.16450    1.000
    O17      O        0.27200    0.56550    0.36380    1.000
    O18      O        0.14280    0.61670    0.49430    1.000
    O19      O        0.70040    0.42030    0.17380    1.000
    O20      O        0.02200    0.62700    0.35050    1.000
    O21      O        0.79600    0.54140    0.28390    1.000
    Al4      Al       0.84320    0.15470    0.88310    1.000
    P4       P        0.83040    0.36530    0.89730    1.000
    O22      O        0.76510    0.27400    0.87890    1.000
    O23      O        0.95750    0.64690    0.66450    1.000
    O24      O        0.72800    0.43450    0.86380    1.000
    O25      O        0.85720    0.38330    0.99430    1.000
    O26      O        0.29960    0.57970    0.67380    1.000
    O27      O        0.97800    0.37300    0.85050    1.000
    O28      O        0.20400    0.45860    0.78390    1.000
    Al5      Al       0.15680    0.65470    0.88310    1.000
    P5       P        0.16960    0.86530    0.89730    1.000
    O29      O        0.23490    0.77400    0.87890    1.000
    O30      O        0.04250    0.14690    0.66450    1.000
    O31      O        0.27200    0.93450    0.86380    1.000
    O32      O        0.14280    0.88330    0.99430    1.000
    O33      O        0.70040    0.07970    0.67380    1.000
    O34      O        0.02200    0.87300    0.85050    1.000
    O35      O        0.79600    0.95860    0.78390    1.000
    Al6      Al       0.84320    0.34530    0.38310    1.000
    P6       P        0.83040    0.13470    0.39730    1.000
    O36      O        0.76510    0.22600    0.37890    1.000
    O37      O        0.95750    0.85310    0.16450    1.000
    O38      O        0.72800    0.06550    0.36380    1.000
    O39      O        0.85720    0.11670    0.49430    1.000
    O40      O        0.29960    0.92030    0.17380    1.000
    O41      O        0.97800    0.12700    0.35050    1.000
    O42      O        0.20400    0.04140    0.28390    1.000
    Al7      Al       0.84320    0.15470    0.61690    1.000
    P7       P        0.83040    0.36530    0.60270    1.000
    O43      O        0.76510    0.27400    0.62110    1.000
    O44      O        0.95750    0.64690    0.83550    1.000
    O45      O        0.72800    0.43450    0.63620    1.000
    O46      O        0.85720    0.38330    0.50570    1.000
    O47      O        0.29960    0.57970    0.82620    1.000
    O48      O        0.97800    0.37300    0.64950    1.000
    O49      O        0.20400    0.45860    0.71610    1.000
    Al8      Al       0.15680    0.84530    0.11690    1.000
    P8       P        0.16960    0.63470    0.10270    1.000
    O50      O        0.23490    0.72600    0.12110    1.000
    O51      O        0.04250    0.35310    0.33550    1.000
    O52      O        0.27200    0.56550    0.13620    1.000
    O53      O        0.14280    0.61670    0.00570    1.000
    O54      O        0.70040    0.42030    0.32620    1.000
    O55      O        0.02200    0.62700    0.14950    1.000
    O56      O        0.79600    0.54140    0.21610    1.000
    Al9      Al       0.67230    0.00760    0.25000    1.000
    Al10     Al       0.91380    0.63240    0.25000    1.000
    P9       P        0.31620    0.97490    0.25000    1.000
    P10      P        0.87050    0.83450    0.25000    1.000
    O57      O        0.81330    0.73860    0.25000    1.000
    O58      O        0.72630    0.88810    0.25000    1.000
    O59      O        0.46160    0.02700    0.25000    1.000
    Al11     Al       0.32770    0.99240    0.75000    1.000
    Al12     Al       0.08620    0.36760    0.75000    1.000
    P11      P        0.68380    0.02510    0.75000    1.000
    P12      P        0.12950    0.16550    0.75000    1.000
    O60      O        0.18670    0.26140    0.75000    1.000
    O61      O        0.27370    0.11190    0.75000    1.000
    O62      O        0.53840    0.97300    0.75000    1.000
    Al13     Al       0.32770    0.50760    0.25000    1.000
    Al14     Al       0.08620    0.13240    0.25000    1.000
    P13      P        0.68380    0.47490    0.25000    1.000
    P14      P        0.12950    0.33450    0.25000    1.000
    O63      O        0.18670    0.23860    0.25000    1.000
    O64      O        0.27370    0.38810    0.25000    1.000
    O65      O        0.53840    0.52700    0.25000    1.000
    Al15     Al       0.67230    0.49240    0.75000    1.000
    Al16     Al       0.91380    0.86760    0.75000    1.000
    P15      P        0.31620    0.52510    0.75000    1.000
    P16      P        0.87050    0.66550    0.75000    1.000
    O66      O        0.81330    0.76140    0.75000    1.000
    O67      O        0.72630    0.61190    0.75000    1.000
    O68      O        0.46160    0.47300    0.75000    1.000
