data_functionalizedCrystal
_audit_creation_method	'EQeq! by Chris Wilmer'
_symmetry_space_group_name_H-M	'P1'
_symmetry_Int_Tables_number	1
_symmetry_cell_setting	triclinic
loop_
_symmetry_equiv_pos_as_xyz
  x,y,z
_cell_length_a	32.4965
_cell_length_b	32.4965
_cell_length_c	13.1823
_cell_angle_alpha	90
_cell_angle_beta	90
_cell_angle_gamma	120
loop_
_atom_site_label
_atom_site_type_symbol
_atom_site_fract_x
_atom_site_fract_y
_atom_site_fract_z
_atom_site_charge
Mof_Zn	Zn	0.7098	0.01091	0.90866	1.233
Mof_Zn	Zn	0.66333	0.89187	0.35209	1.226
Mof_Zn	Zn	0.6694	0.83421	0.66545	1.233
Mof_P 	P 	0.66787	0.04072	0.72949	0.492
Mof_P 	P 	0.67762	0.90771	0.84354	0.484
Mof_P 	P 	0.59627	0.85071	0.54553	0.436
Mof_P 	P 	0.72527	0.85466	0.46583	0.426
Mof_O 	O 	0.68776	0.0486	0.83714	-0.5
Mof_O 	O 	0.67822	0.98369	0.03648	-0.398
Mof_O 	O 	0.69505	0.9599	0.31869	-0.501
Mof_O 	O 	0.70989	0.96103	0.82737	-0.432
Mof_O 	O 	0.69163	0.8814	0.76973	-0.478
Mof_O 	O 	0.65461	0.77237	0.71359	-0.434
Mof_O 	O 	0.61466	0.81801	0.57862	-0.445
Mof_O 	O 	0.60798	0.86768	0.43697	-0.487
Mof_O 	O 	0.77531	0.05248	0.95322	-0.463
Mof_O 	O 	0.72498	0.86783	0.57657	-0.446
Mof_O 	O 	0.71645	0.88509	0.39304	-0.494
Mof_O 	O 	0.6401	0.86488	0.21758	-0.453
Mof_O 	O 	0.639	0.0666	0.7302	1.942
Mof_O 	O 	0.6261	0.8915	0.82	0.354
Mof_H 	H 	0.6314	0.0514	0.7313	-1.777
Mof_H 	H 	0.6308	0.8954	0.8268	-0.437
Mof_H 	H 	0.5505	0.825	0.5491	-0.032
Mof_H 	H 	0.7695	0.8621	0.454	-0.05
Mof_Zn	Zn	0.37646	0.34425	0.24199	1.233
Mof_Zn	Zn	0.33	0.22521	0.68542	1.226
Mof_Zn	Zn	0.33607	0.16754	0.99878	1.233
Mof_P 	P 	0.33454	0.37405	0.06282	0.492
Mof_P 	P 	0.34429	0.24104	0.17687	0.484
Mof_P 	P 	0.26294	0.18404	0.87886	0.436
Mof_P 	P 	0.39194	0.18799	0.79916	0.426
Mof_O 	O 	0.35443	0.38193	0.17047	-0.5
Mof_O 	O 	0.34489	0.31702	0.36981	-0.398
Mof_O 	O 	0.36172	0.29323	0.65202	-0.501
Mof_O 	O 	0.37656	0.29436	0.1607	-0.432
Mof_O 	O 	0.3583	0.21473	0.10306	-0.478
Mof_O 	O 	0.32128	0.1057	0.04692	-0.433
Mof_O 	O 	0.28133	0.15134	0.91195	-0.445
Mof_O 	O 	0.27465	0.20101	0.7703	-0.487
Mof_O 	O 	0.44198	0.38581	0.28655	-0.462
Mof_O 	O 	0.39165	0.20116	0.9099	-0.447
Mof_O 	O 	0.38312	0.21842	0.72637	-0.494
Mof_O 	O 	0.30677	0.19821	0.55091	-0.453
Mof_O 	O 	0.30567	0.39993	0.06353	1.942
Mof_O 	O 	0.29277	0.22483	0.15333	0.354
Mof_H 	H 	0.29807	0.38473	0.06463	-1.777
Mof_H 	H 	0.29747	0.22873	0.16013	-0.437
Mof_H 	H 	0.21717	0.15833	0.88243	-0.032
Mof_H 	H 	0.43617	0.19543	0.78733	-0.05
Mof_Zn	Zn	0.04313	0.67758	0.57533	1.233
Mof_Zn	Zn	0.99667	0.55854	0.01876	1.226
Mof_Zn	Zn	0.00273	0.50088	0.33212	1.233
Mof_P 	P 	0.0012	0.70739	0.39616	0.492
Mof_P 	P 	0.01095	0.57438	0.51021	0.484
Mof_P 	P 	0.9296	0.51738	0.2122	0.436
Mof_P 	P 	0.0586	0.52133	0.1325	0.426
Mof_O 	O 	0.02109	0.71527	0.50381	-0.499
Mof_O 	O 	0.01155	0.65036	0.70315	-0.398
Mof_O 	O 	0.02838	0.62657	0.98536	-0.5
Mof_O 	O 	0.04322	0.6277	0.49404	-0.433
Mof_O 	O 	0.02496	0.54807	0.4364	-0.478
Mof_O 	O 	0.98794	0.43904	0.38026	-0.434
Mof_O 	O 	0.94799	0.48468	0.24529	-0.445
Mof_O 	O 	0.94131	0.53435	0.10364	-0.487
Mof_O 	O 	0.10864	0.71915	0.61989	-0.462
Mof_O 	O 	0.05831	0.5345	0.24324	-0.446
Mof_O 	O 	0.04978	0.55176	0.05971	-0.494
Mof_O 	O 	0.97343	0.53155	0.88425	-0.453
Mof_O 	O 	0.97233	0.73327	0.39687	1.941
Mof_O 	O 	0.95943	0.55817	0.48667	0.354
Mof_H 	H 	0.96473	0.71807	0.39797	-1.776
Mof_H 	H 	0.96413	0.56207	0.49347	-0.437
Mof_H 	H 	0.88383	0.49167	0.21577	-0.032
Mof_H 	H 	0.10283	0.52877	0.12067	-0.05
Mof_Zn	Zn	0.98909	0.69888	0.90866	1.233
Mof_Zn	Zn	0.10813	0.77146	0.35209	1.226
Mof_Zn	Zn	0.16579	0.83519	0.66545	1.233
Mof_P 	P 	0.95928	0.62715	0.72949	0.492
Mof_P 	P 	0.09229	0.76991	0.84354	0.484
Mof_P 	P 	0.14929	0.74556	0.54553	0.436
Mof_P 	P 	0.14534	0.87061	0.46583	0.426
Mof_O 	O 	0.9514	0.63916	0.83714	-0.5
Mof_O 	O 	0.01631	0.69453	0.03648	-0.398
Mof_O 	O 	0.0401	0.73515	0.31869	-0.501
Mof_O 	O 	0.03897	0.74886	0.82737	-0.432
Mof_O 	O 	0.1186	0.81023	0.76973	-0.478
Mof_O 	O 	0.22763	0.88224	0.71359	-0.434
Mof_O 	O 	0.18199	0.79665	0.57862	-0.445
Mof_O 	O 	0.13232	0.7403	0.43697	-0.487
Mof_O 	O 	0.94752	0.72283	0.95322	-0.462
Mof_O 	O 	0.13217	0.85715	0.57657	-0.446
Mof_O 	O 	0.11491	0.83136	0.39304	-0.493
Mof_O 	O 	0.13512	0.77522	0.21758	-0.453
Mof_O 	O 	0.9334	0.5724	0.7302	1.942
Mof_O 	O 	0.1085	0.7346	0.82	0.354
Mof_H 	H 	0.9486	0.58	0.7313	-1.777
Mof_H 	H 	0.1046	0.7354	0.8268	-0.437
Mof_H 	H 	0.175	0.7255	0.5491	-0.032
Mof_H 	H 	0.1379	0.9074	0.454	-0.05
Mof_Zn	Zn	0.65575	0.03221	0.24199	1.233
Mof_Zn	Zn	0.77479	0.10479	0.68542	1.226
Mof_Zn	Zn	0.83246	0.16852	0.99878	1.232
Mof_P 	P 	0.62595	0.96048	0.06282	0.491
Mof_P 	P 	0.75896	0.10324	0.17687	0.484
Mof_P 	P 	0.81596	0.07889	0.87886	0.436
Mof_P 	P 	0.81201	0.20394	0.79916	0.426
Mof_O 	O 	0.61807	0.97249	0.17047	-0.5
Mof_O 	O 	0.68298	0.02786	0.36981	-0.398
Mof_O 	O 	0.70677	0.06848	0.65202	-0.501
Mof_O 	O 	0.70564	0.08219	0.1607	-0.432
Mof_O 	O 	0.78527	0.14356	0.10306	-0.478
Mof_O 	O 	0.8943	0.21557	0.04692	-0.433
Mof_O 	O 	0.84866	0.12998	0.91195	-0.445
Mof_O 	O 	0.79899	0.07363	0.7703	-0.487
Mof_O 	O 	0.61419	0.05616	0.28655	-0.462
Mof_O 	O 	0.79884	0.19048	0.9099	-0.447
Mof_O 	O 	0.78158	0.16469	0.72637	-0.494
Mof_O 	O 	0.80179	0.10855	0.55091	-0.453
Mof_O 	O 	0.60007	0.90573	0.06353	1.943
Mof_O 	O 	0.77517	0.06793	0.15333	0.354
Mof_H 	H 	0.61527	0.91333	0.06463	-1.778
Mof_H 	H 	0.77127	0.06873	0.16013	-0.437
Mof_H 	H 	0.84167	0.05883	0.88243	-0.032
Mof_H 	H 	0.80457	0.24073	0.78733	-0.05
Mof_Zn	Zn	0.32242	0.36555	0.57533	1.233
Mof_Zn	Zn	0.44146	0.43812	0.01876	1.226
Mof_Zn	Zn	0.49912	0.50186	0.33212	1.233
Mof_P 	P 	0.29261	0.29382	0.39616	0.492
Mof_P 	P 	0.42562	0.43658	0.51021	0.484
Mof_P 	P 	0.48262	0.41223	0.2122	0.436
Mof_P 	P 	0.47867	0.53728	0.1325	0.426
Mof_O 	O 	0.28473	0.30583	0.50381	-0.5
Mof_O 	O 	0.34964	0.3612	0.70315	-0.398
Mof_O 	O 	0.37343	0.40182	0.98536	-0.501
Mof_O 	O 	0.3723	0.41553	0.49404	-0.433
Mof_O 	O 	0.45193	0.4769	0.4364	-0.478
Mof_O 	O 	0.56096	0.54891	0.38026	-0.434
Mof_O 	O 	0.51532	0.46332	0.24529	-0.445
Mof_O 	O 	0.46565	0.40697	0.10364	-0.487
Mof_O 	O 	0.28085	0.3895	0.61989	-0.462
Mof_O 	O 	0.4655	0.52382	0.24324	-0.446
Mof_O 	O 	0.44824	0.49803	0.05971	-0.493
Mof_O 	O 	0.46845	0.44189	0.88425	-0.452
Mof_O 	O 	0.26673	0.23907	0.39687	1.942
Mof_O 	O 	0.44183	0.40127	0.48667	0.354
Mof_H 	H 	0.28193	0.24667	0.39797	-1.777
Mof_H 	H 	0.43793	0.40207	0.49347	-0.437
Mof_H 	H 	0.50833	0.39217	0.21577	-0.032
Mof_H 	H 	0.47123	0.57407	0.12067	-0.05
Mof_Zn	Zn	0.30112	0.2902	0.90866	1.233
Mof_Zn	Zn	0.22854	0.33667	0.35209	1.226
Mof_Zn	Zn	0.16481	0.3306	0.66545	1.233
Mof_P 	P 	0.37285	0.33213	0.72949	0.492
Mof_P 	P 	0.23009	0.32238	0.84354	0.484
Mof_P 	P 	0.25444	0.40373	0.54553	0.436
Mof_P 	P 	0.12939	0.27473	0.46583	0.426
Mof_O 	O 	0.36084	0.31224	0.83714	-0.5
Mof_O 	O 	0.30547	0.32178	0.03648	-0.398
Mof_O 	O 	0.26485	0.30495	0.31869	-0.501
Mof_O 	O 	0.25114	0.29011	0.82737	-0.432
Mof_O 	O 	0.18977	0.30837	0.76973	-0.478
Mof_O 	O 	0.11776	0.34539	0.71359	-0.434
Mof_O 	O 	0.20335	0.38534	0.57862	-0.445
Mof_O 	O 	0.2597	0.39202	0.43697	-0.487
Mof_O 	O 	0.27717	0.22469	0.95322	-0.462
Mof_O 	O 	0.14285	0.27502	0.57657	-0.446
Mof_O 	O 	0.16864	0.28355	0.39304	-0.494
Mof_O 	O 	0.22478	0.3599	0.21758	-0.453
Mof_O 	O 	0.4276	0.361	0.7302	1.942
Mof_O 	O 	0.2654	0.3739	0.82	0.354
Mof_H 	H 	0.42	0.3686	0.7313	-1.777
Mof_H 	H 	0.2646	0.3692	0.8268	-0.437
Mof_H 	H 	0.2745	0.4495	0.5491	-0.032
Mof_H 	H 	0.0926	0.2305	0.454	-0.05
Mof_Zn	Zn	0.96779	0.62354	0.24199	1.233
Mof_Zn	Zn	0.89521	0.67	0.68542	1.226
Mof_Zn	Zn	0.83148	0.66393	0.99878	1.233
Mof_P 	P 	0.03952	0.66546	0.06282	0.491
Mof_P 	P 	0.89676	0.65571	0.17687	0.484
Mof_P 	P 	0.92111	0.73706	0.87886	0.436
Mof_P 	P 	0.79606	0.60806	0.79916	0.426
Mof_O 	O 	0.02751	0.64557	0.17047	-0.5
Mof_O 	O 	0.97214	0.65511	0.36981	-0.398
Mof_O 	O 	0.93152	0.63828	0.65202	-0.501
Mof_O 	O 	0.91781	0.62344	0.1607	-0.432
Mof_O 	O 	0.85644	0.6417	0.10306	-0.478
Mof_O 	O 	0.78443	0.67872	0.04692	-0.434
Mof_O 	O 	0.87002	0.71867	0.91195	-0.445
Mof_O 	O 	0.92637	0.72535	0.7703	-0.487
Mof_O 	O 	0.94384	0.55802	0.28655	-0.462
Mof_O 	O 	0.80952	0.60835	0.9099	-0.446
Mof_O 	O 	0.83531	0.61688	0.72637	-0.494
Mof_O 	O 	0.89145	0.69323	0.55091	-0.452
Mof_O 	O 	0.09427	0.69433	0.06353	1.943
Mof_O 	O 	0.93207	0.70723	0.15333	0.354
Mof_H 	H 	0.08667	0.70193	0.06463	-1.778
Mof_H 	H 	0.93127	0.70253	0.16013	-0.437
Mof_H 	H 	0.94117	0.78283	0.88243	-0.032
Mof_H 	H 	0.75927	0.56383	0.78733	-0.05
Mof_Zn	Zn	0.63445	0.95687	0.57533	1.233
Mof_Zn	Zn	0.56188	0.00333	0.01876	1.226
Mof_Zn	Zn	0.49814	0.99727	0.33212	1.233
Mof_P 	P 	0.70618	0.9988	0.39616	0.492
Mof_P 	P 	0.56342	0.98905	0.51021	0.484
Mof_P 	P 	0.58777	0.0704	0.2122	0.436
Mof_P 	P 	0.46272	0.9414	0.1325	0.426
Mof_O 	O 	0.69417	0.97891	0.50381	-0.5
Mof_O 	O 	0.6388	0.98845	0.70315	-0.398
Mof_O 	O 	0.59818	0.97162	0.98536	-0.5
Mof_O 	O 	0.58447	0.95678	0.49404	-0.433
Mof_O 	O 	0.5231	0.97504	0.4364	-0.478
Mof_O 	O 	0.45109	0.01206	0.38026	-0.434
Mof_O 	O 	0.53668	0.05201	0.24529	-0.445
Mof_O 	O 	0.59303	0.05869	0.10364	-0.487
Mof_O 	O 	0.6105	0.89136	0.61989	-0.462
Mof_O 	O 	0.47618	0.94169	0.24324	-0.446
Mof_O 	O 	0.50197	0.95022	0.05971	-0.494
Mof_O 	O 	0.55811	0.02657	0.88425	-0.453
Mof_O 	O 	0.76093	0.02767	0.39687	1.941
Mof_O 	O 	0.59873	0.04057	0.48667	0.354
Mof_H 	H 	0.75333	0.03527	0.39797	-1.776
Mof_H 	H 	0.59793	0.03587	0.49347	-0.437
Mof_H 	H 	0.60783	0.11617	0.21577	-0.032
Mof_H 	H 	0.42593	0.89717	0.12067	-0.05
Mof_Zn	Zn	0.2902	0.98909	0.09134	1.233
Mof_Zn	Zn	0.33667	0.10813	0.64791	1.226
Mof_Zn	Zn	0.3306	0.16579	0.33455	1.233
Mof_P 	P 	0.33213	0.95928	0.27051	0.492
Mof_P 	P 	0.32238	0.09229	0.15646	0.484
Mof_P 	P 	0.40373	0.14929	0.45447	0.436
Mof_P 	P 	0.27473	0.14534	0.53417	0.426
Mof_O 	O 	0.31224	0.9514	0.16286	-0.5
Mof_O 	O 	0.32178	0.01631	0.96352	-0.398
Mof_O 	O 	0.30495	0.0401	0.68131	-0.501
Mof_O 	O 	0.29011	0.03897	0.17263	-0.432
Mof_O 	O 	0.30837	0.1186	0.23027	-0.478
Mof_O 	O 	0.34539	0.22763	0.28641	-0.434
Mof_O 	O 	0.38534	0.18199	0.42138	-0.445
Mof_O 	O 	0.39202	0.13232	0.56303	-0.487
Mof_O 	O 	0.22469	0.94752	0.04678	-0.463
Mof_O 	O 	0.27502	0.13217	0.42343	-0.446
Mof_O 	O 	0.28355	0.11491	0.60696	-0.494
Mof_O 	O 	0.3599	0.13512	0.78242	-0.453
Mof_O 	O 	0.361	0.9334	0.2698	1.942
Mof_O 	O 	0.3739	0.1085	0.18	0.354
Mof_H 	H 	0.3686	0.9486	0.2687	-1.777
Mof_H 	H 	0.3692	0.1046	0.1732	-0.437
Mof_H 	H 	0.4495	0.175	0.4509	-0.032
Mof_H 	H 	0.2305	0.1379	0.546	-0.05
Mof_Zn	Zn	0.95687	0.32242	0.42467	1.233
Mof_Zn	Zn	0.00333	0.44146	0.98124	1.226
Mof_Zn	Zn	0.99727	0.49912	0.66788	1.233
Mof_P 	P 	0.9988	0.29261	0.60384	0.492
Mof_P 	P 	0.98905	0.42562	0.48979	0.484
Mof_P 	P 	0.0704	0.48262	0.7878	0.436
Mof_P 	P 	0.9414	0.47867	0.8675	0.426
Mof_O 	O 	0.97891	0.28473	0.49619	-0.499
Mof_O 	O 	0.98845	0.34964	0.29685	-0.398
Mof_O 	O 	0.97162	0.37343	0.01464	-0.5
Mof_O 	O 	0.95678	0.3723	0.50596	-0.433
Mof_O 	O 	0.97504	0.45193	0.5636	-0.478
Mof_O 	O 	0.01206	0.56096	0.61974	-0.434
Mof_O 	O 	0.05201	0.51532	0.75471	-0.445
Mof_O 	O 	0.05869	0.46565	0.89636	-0.487
Mof_O 	O 	0.89136	0.28085	0.38011	-0.462
Mof_O 	O 	0.94169	0.4655	0.75676	-0.446
Mof_O 	O 	0.95022	0.44824	0.94029	-0.494
Mof_O 	O 	0.02657	0.46845	0.11575	-0.453
Mof_O 	O 	0.02767	0.26673	0.60313	1.941
Mof_O 	O 	0.04057	0.44183	0.51333	0.354
Mof_H 	H 	0.03527	0.28193	0.60203	-1.776
Mof_H 	H 	0.03587	0.43793	0.50653	-0.437
Mof_H 	H 	0.11617	0.50833	0.78423	-0.032
Mof_H 	H 	0.89717	0.47123	0.87933	-0.05
Mof_Zn	Zn	0.62354	0.65575	0.75801	1.233
Mof_Zn	Zn	0.67	0.77479	0.31458	1.226
Mof_Zn	Zn	0.66393	0.83246	0.00122	1.233
Mof_P 	P 	0.66546	0.62595	0.93718	0.492
Mof_P 	P 	0.65571	0.75896	0.82313	0.484
Mof_P 	P 	0.73706	0.81596	0.12114	0.436
Mof_P 	P 	0.60806	0.81201	0.20084	0.426
Mof_O 	O 	0.64557	0.61807	0.82953	-0.5
Mof_O 	O 	0.65511	0.68298	0.63019	-0.398
Mof_O 	O 	0.63828	0.70677	0.34798	-0.501
Mof_O 	O 	0.62344	0.70564	0.8393	-0.432
Mof_O 	O 	0.6417	0.78527	0.89694	-0.478
Mof_O 	O 	0.67872	0.8943	0.95308	-0.433
Mof_O 	O 	0.71867	0.84866	0.08805	-0.445
Mof_O 	O 	0.72535	0.79899	0.2297	-0.487
Mof_O 	O 	0.55802	0.61419	0.71345	-0.462
Mof_O 	O 	0.60835	0.79884	0.0901	-0.447
Mof_O 	O 	0.61688	0.78158	0.27363	-0.494
Mof_O 	O 	0.69323	0.80179	0.44909	-0.453
Mof_O 	O 	0.69433	0.60007	0.93647	1.942
Mof_O 	O 	0.70723	0.77517	0.84667	0.354
Mof_H 	H 	0.70193	0.61527	0.93537	-1.777
Mof_H 	H 	0.70253	0.77127	0.83987	-0.437
Mof_H 	H 	0.78283	0.84167	0.11757	-0.032
Mof_H 	H 	0.56383	0.80457	0.21267	-0.05
Mof_Zn	Zn	0.01091	0.30112	0.09134	1.233
Mof_Zn	Zn	0.89187	0.22854	0.64791	1.226
Mof_Zn	Zn	0.83421	0.16481	0.33455	1.233
Mof_P 	P 	0.04072	0.37285	0.27051	0.492
Mof_P 	P 	0.90771	0.23009	0.15646	0.484
Mof_P 	P 	0.85071	0.25444	0.45447	0.436
Mof_P 	P 	0.85466	0.12939	0.53417	0.426
Mof_O 	O 	0.0486	0.36084	0.16286	-0.5
Mof_O 	O 	0.98369	0.30547	0.96352	-0.398
Mof_O 	O 	0.9599	0.26485	0.68131	-0.501
Mof_O 	O 	0.96103	0.25114	0.17263	-0.432
Mof_O 	O 	0.8814	0.18977	0.23027	-0.478
Mof_O 	O 	0.77237	0.11776	0.28641	-0.434
Mof_O 	O 	0.81801	0.20335	0.42138	-0.445
Mof_O 	O 	0.86768	0.2597	0.56303	-0.487
Mof_O 	O 	0.05248	0.27717	0.04678	-0.462
Mof_O 	O 	0.86783	0.14285	0.42343	-0.446
Mof_O 	O 	0.88509	0.16864	0.60696	-0.493
Mof_O 	O 	0.86488	0.22478	0.78242	-0.453
Mof_O 	O 	0.0666	0.4276	0.2698	1.942
Mof_O 	O 	0.8915	0.2654	0.18	0.354
Mof_H 	H 	0.0514	0.42	0.2687	-1.777
Mof_H 	H 	0.8954	0.2646	0.1732	-0.437
Mof_H 	H 	0.825	0.2745	0.4509	-0.032
Mof_H 	H 	0.8621	0.0926	0.546	-0.05
Mof_Zn	Zn	0.67758	0.63445	0.42467	1.233
Mof_Zn	Zn	0.55854	0.56188	0.98124	1.226
Mof_Zn	Zn	0.50088	0.49814	0.66788	1.233
Mof_P 	P 	0.70739	0.70618	0.60384	0.492
Mof_P 	P 	0.57438	0.56342	0.48979	0.484
Mof_P 	P 	0.51738	0.58777	0.7878	0.436
Mof_P 	P 	0.52133	0.46272	0.8675	0.426
Mof_O 	O 	0.71527	0.69417	0.49619	-0.5
Mof_O 	O 	0.65036	0.6388	0.29685	-0.398
Mof_O 	O 	0.62657	0.59818	0.01464	-0.501
Mof_O 	O 	0.6277	0.58447	0.50596	-0.433
Mof_O 	O 	0.54807	0.5231	0.5636	-0.478
Mof_O 	O 	0.43904	0.45109	0.61974	-0.434
Mof_O 	O 	0.48468	0.53668	0.75471	-0.445
Mof_O 	O 	0.53435	0.59303	0.89636	-0.487
Mof_O 	O 	0.71915	0.6105	0.38011	-0.462
Mof_O 	O 	0.5345	0.47618	0.75676	-0.446
Mof_O 	O 	0.55176	0.50197	0.94029	-0.493
Mof_O 	O 	0.53155	0.55811	0.11575	-0.452
Mof_O 	O 	0.73327	0.76093	0.60313	1.942
Mof_O 	O 	0.55817	0.59873	0.51333	0.354
Mof_H 	H 	0.71807	0.75333	0.60203	-1.777
Mof_H 	H 	0.56207	0.59793	0.50653	-0.437
Mof_H 	H 	0.49167	0.60783	0.78423	-0.032
Mof_H 	H 	0.52877	0.42593	0.87933	-0.05
Mof_Zn	Zn	0.34425	0.96779	0.75801	1.233
Mof_Zn	Zn	0.22521	0.89521	0.31458	1.226
Mof_Zn	Zn	0.16754	0.83148	0.00122	1.232
Mof_P 	P 	0.37405	0.03952	0.93718	0.491
Mof_P 	P 	0.24104	0.89676	0.82313	0.484
Mof_P 	P 	0.18404	0.92111	0.12114	0.436
Mof_P 	P 	0.18799	0.79606	0.20084	0.426
Mof_O 	O 	0.38193	0.02751	0.82953	-0.5
Mof_O 	O 	0.31702	0.97214	0.63019	-0.398
Mof_O 	O 	0.29323	0.93152	0.34798	-0.501
Mof_O 	O 	0.29436	0.91781	0.8393	-0.432
Mof_O 	O 	0.21473	0.85644	0.89694	-0.478
Mof_O 	O 	0.1057	0.78443	0.95308	-0.433
Mof_O 	O 	0.15134	0.87002	0.08805	-0.445
Mof_O 	O 	0.20101	0.92637	0.2297	-0.487
Mof_O 	O 	0.38581	0.94384	0.71345	-0.462
Mof_O 	O 	0.20116	0.80952	0.0901	-0.447
Mof_O 	O 	0.21842	0.83531	0.27363	-0.494
Mof_O 	O 	0.19821	0.89145	0.44909	-0.453
Mof_O 	O 	0.39993	0.09427	0.93647	1.943
Mof_O 	O 	0.22483	0.93207	0.84667	0.354
Mof_H 	H 	0.38473	0.08667	0.93537	-1.778
Mof_H 	H 	0.22873	0.93127	0.83987	-0.437
Mof_H 	H 	0.15833	0.94117	0.11757	-0.032
Mof_H 	H 	0.19543	0.75927	0.21267	-0.05
Mof_Zn	Zn	0.69888	0.7098	0.09134	1.233
Mof_Zn	Zn	0.77146	0.66333	0.64791	1.226
Mof_Zn	Zn	0.83519	0.6694	0.33455	1.233
Mof_P 	P 	0.62715	0.66787	0.27051	0.492
Mof_P 	P 	0.76991	0.67762	0.15646	0.484
Mof_P 	P 	0.74556	0.59627	0.45447	0.436
Mof_P 	P 	0.87061	0.72527	0.53417	0.426
Mof_O 	O 	0.63916	0.68776	0.16286	-0.5
Mof_O 	O 	0.69453	0.67822	0.96352	-0.398
Mof_O 	O 	0.73515	0.69505	0.68131	-0.501
Mof_O 	O 	0.74886	0.70989	0.17263	-0.432
Mof_O 	O 	0.81023	0.69163	0.23027	-0.478
Mof_O 	O 	0.88224	0.65461	0.28641	-0.434
Mof_O 	O 	0.79665	0.61466	0.42138	-0.445
Mof_O 	O 	0.7403	0.60798	0.56303	-0.487
Mof_O 	O 	0.72283	0.77531	0.04678	-0.462
Mof_O 	O 	0.85715	0.72498	0.42343	-0.446
Mof_O 	O 	0.83136	0.71645	0.60696	-0.494
Mof_O 	O 	0.77522	0.6401	0.78242	-0.453
Mof_O 	O 	0.5724	0.639	0.2698	1.942
Mof_O 	O 	0.7346	0.6261	0.18	0.354
Mof_H 	H 	0.58	0.6314	0.2687	-1.777
Mof_H 	H 	0.7354	0.6308	0.1732	-0.437
Mof_H 	H 	0.7255	0.5505	0.4509	-0.032
Mof_H 	H 	0.9074	0.7695	0.546	-0.05
Mof_Zn	Zn	0.36555	0.04313	0.42467	1.233
Mof_Zn	Zn	0.43812	0.99667	0.98124	1.226
Mof_Zn	Zn	0.50186	0.00273	0.66788	1.233
Mof_P 	P 	0.29382	0.0012	0.60384	0.492
Mof_P 	P 	0.43658	0.01095	0.48979	0.484
Mof_P 	P 	0.41223	0.9296	0.7878	0.436
Mof_P 	P 	0.53728	0.0586	0.8675	0.426
Mof_O 	O 	0.30583	0.02109	0.49619	-0.5
Mof_O 	O 	0.3612	0.01155	0.29685	-0.398
Mof_O 	O 	0.40182	0.02838	0.01464	-0.5
Mof_O 	O 	0.41553	0.04322	0.50596	-0.433
Mof_O 	O 	0.4769	0.02496	0.5636	-0.478
Mof_O 	O 	0.54891	0.98794	0.61974	-0.434
Mof_O 	O 	0.46332	0.94799	0.75471	-0.445
Mof_O 	O 	0.40697	0.94131	0.89636	-0.487
Mof_O 	O 	0.3895	0.10864	0.38011	-0.462
Mof_O 	O 	0.52382	0.05831	0.75676	-0.446
Mof_O 	O 	0.49803	0.04978	0.94029	-0.494
Mof_O 	O 	0.44189	0.97343	0.11575	-0.453
Mof_O 	O 	0.23907	0.97233	0.60313	1.941
Mof_O 	O 	0.40127	0.95943	0.51333	0.354
Mof_H 	H 	0.24667	0.96473	0.60203	-1.776
Mof_H 	H 	0.40207	0.96413	0.50653	-0.437
Mof_H 	H 	0.39217	0.88383	0.78423	-0.032
Mof_H 	H 	0.57407	0.10283	0.87933	-0.05
Mof_Zn	Zn	0.03221	0.37646	0.75801	1.233
Mof_Zn	Zn	0.10479	0.33	0.31458	1.226
Mof_Zn	Zn	0.16852	0.33607	0.00122	1.233
Mof_P 	P 	0.96048	0.33454	0.93718	0.491
Mof_P 	P 	0.10324	0.34429	0.82313	0.484
Mof_P 	P 	0.07889	0.26294	0.12114	0.436
Mof_P 	P 	0.20394	0.39194	0.20084	0.426
Mof_O 	O 	0.97249	0.35443	0.82953	-0.5
Mof_O 	O 	0.02786	0.34489	0.63019	-0.398
Mof_O 	O 	0.06848	0.36172	0.34798	-0.501
Mof_O 	O 	0.08219	0.37656	0.8393	-0.432
Mof_O 	O 	0.14356	0.3583	0.89694	-0.478
Mof_O 	O 	0.21557	0.32128	0.95308	-0.434
Mof_O 	O 	0.12998	0.28133	0.08805	-0.445
Mof_O 	O 	0.07363	0.27465	0.2297	-0.487
Mof_O 	O 	0.05616	0.44198	0.71345	-0.462
Mof_O 	O 	0.19048	0.39165	0.0901	-0.446
Mof_O 	O 	0.16469	0.38312	0.27363	-0.494
Mof_O 	O 	0.10855	0.30677	0.44909	-0.452
Mof_O 	O 	0.90573	0.30567	0.93647	1.943
Mof_O 	O 	0.06793	0.29277	0.84667	0.354
Mof_H 	H 	0.91333	0.29807	0.93537	-1.778
Mof_H 	H 	0.06873	0.29747	0.83987	-0.437
Mof_H 	H 	0.05883	0.21717	0.11757	-0.032
Mof_H 	H 	0.24073	0.43617	0.21267	-0.05
_end
