data_functionalizedCrystal
_audit_creation_method	'EQeq! by Chris Wilmer'
_symmetry_space_group_name_H-M	'P1'
_symmetry_Int_Tables_number	1
_symmetry_cell_setting	triclinic
loop_
_symmetry_equiv_pos_as_xyz
  x,y,z
_cell_length_a	10.1274
_cell_length_b	14.4606
_cell_length_c	17.0203
_cell_angle_alpha	70.461
_cell_angle_beta	86.321
_cell_angle_gamma	83.639
loop_
_atom_site_label
_atom_site_type_symbol
_atom_site_fract_x
_atom_site_fract_y
_atom_site_fract_z
_atom_site_charge
Mof_Cd	Cd	0.61474	0.81819	0.40229	0.425
Mof_Cd	Cd	0.95916	0.32224	0.89099	0.48
Mof_O 	O 	0.6873	0.9048	0.4806	-0.294
Mof_O 	O 	0.8108	0.909	0.3695	-0.286
Mof_O 	O 	0.5359	0.9498	0.6369	-0.284
Mof_O 	O 	0.5032	0.0678	0.6955	-0.307
Mof_O 	O 	0.8732	0.7565	0.0286	-0.309
Mof_O 	O 	0.8469	0.6282	0.9875	-0.272
Mof_O 	O 	0.9663	0.4388	0.1388	-0.274
Mof_O 	O 	0.9208	0.5609	0.193	-0.282
Mof_O 	O 	0.5326	0.2609	0.5066	-0.289
Mof_O 	O 	0.6165	0.131	0.4706	-0.28
Mof_O 	O 	0.8476	0.4003	0.9843	-0.273
Mof_O 	O 	0.7472	0.4069	0.8715	-0.268
Mof_O 	O 	0.856	0.1889	0.9691	-0.29
Mof_N 	N 	0.835	0.1036	0.104	0.116
Mof_C 	C 	0.7924	0.9267	0.4357	0.301
Mof_C 	C 	0.8972	0.9668	0.4689	-0.038
Mof_C 	C 	0.8879	0.9717	0.5491	-0.035
Mof_H 	H 	0.8106	0.9526	0.5827	0.066
Mof_C 	C 	0.0121	0.9964	0.4197	-0.038
Mof_H 	H 	0.0198	0.9942	0.3644	0.049
Mof_C 	C 	0.5438	0.9841	0.6952	0.323
Mof_C 	C 	0.6113	0.9129	0.7714	-0.077
Mof_C 	C 	0.6391	0.9456	0.8372	-0.027
Mof_H 	H 	0.6118	0.0114	0.8348	0.035
Mof_C 	C 	0.7068	0.8809	0.9057	-0.04
Mof_H 	H 	0.7256	0.9029	0.9502	0.046
Mof_C 	C 	0.7472	0.7848	0.9098	-0.066
Mof_C 	C 	0.7157	0.7518	0.8462	-0.03
Mof_H 	H 	0.7392	0.685	0.8499	0.062
Mof_C 	C 	0.6506	0.8158	0.7777	-0.024
Mof_H 	H 	0.6322	0.7929	0.7338	0.055
Mof_C 	C 	0.8293	0.7168	0.9812	0.329
Mof_C 	C 	0.3945	0.5392	0.9469	0.056
Mof_H 	H 	0.3227	0.5665	0.9103	0.033
Mof_C 	C 	0.5127	0.5029	0.9179	-0.082
Mof_H 	H 	0.5212	0.5044	0.8616	0.074
Mof_C 	C 	0.6192	0.4641	0.9706	0.007
Mof_C 	C 	0.7468	0.4228	0.9395	0.275
Mof_C 	C 	0.9118	0.4759	0.1913	0.312
Mof_C 	C 	0.8298	0.4108	0.2611	-0.056
Mof_C 	C 	0.7626	0.4463	0.3197	-0.02
Mof_H 	H 	0.7659	0.5132	0.3155	0.052
Mof_C 	C 	0.6906	0.3856	0.3843	-0.021
Mof_H 	H 	0.644	0.4113	0.4239	0.054
Mof_C 	C 	0.6857	0.2868	0.392	-0.057
Mof_C 	C 	0.6054	0.2214	0.4613	0.314
Mof_C 	C 	0.7544	0.2507	0.3346	-0.022
Mof_H 	H 	0.7535	0.1833	0.34	0.051
Mof_C 	C 	0.8262	0.3127	0.2678	-0.024
Mof_H 	H 	0.8719	0.2876	0.2276	0.046
Mof_C 	C 	0.7858	0.1556	0.0305	0.756
Mof_C 	C 	0.653	0.139	0.0172	-1.496
Mof_H 	H 	0.6379	0.1587	0.9586	0.499
Mof_H 	H 	0.6424	0.07	0.0425	0.466
Mof_H 	H 	0.5902	0.1762	0.0424	0.472
Mof_C 	C 	0.9465	0.148	0.1293	-0.071
Mof_H 	H 	0.939	0.1651	0.1794	0.046
Mof_H 	H 	0.008	0.0903	0.1373	0.033
Mof_H 	H 	0.978	0.2017	0.0841	0.072
Mof_C 	C 	0.73	0.1019	0.1768	-0.168
Mof_H 	H 	0.7344	0.141	0.2121	0.066
Mof_H 	H 	0.6418	0.1124	0.1553	-0.032
Mof_H 	H 	0.7487	0.0334	0.2086	0.086
Mof_O 	O 	0.83	0.186	0.9716	-0.058
Mof_N 	N 	0.8204	0.1334	0.11	-0.255
Mof_C 	C 	0.879	0.1078	0.0217	-0.181
Mof_C 	C 	0.961	0.0439	0.9847	-0.177
Mof_H 	H 	0.9571	0.0694	0.925	0.099
Mof_H 	H 	0.0506	0.0392	0.0012	0.165
Mof_H 	H 	0.9288	0.9796	0.0046	0.165
Mof_C 	C 	0.739	0.1802	0.1168	-0.152
Mof_H 	H 	0.7039	0.223	0.0645	0.008
Mof_H 	H 	0.6675	0.1494	0.1524	0.15
Mof_H 	H 	0.7813	0.2179	0.143	0.087
Mof_C 	C 	0.918	0.0206	0.1579	-0.446
Mof_H 	H 	0.9705	0.9864	0.1253	0.166
Mof_H 	H 	0.9762	0.0448	0.1875	0.167
Mof_H 	H 	0.8624	0.9763	0.197	0.168
Mof_Cd	Cd	0.38526	0.18181	0.59771	0.424
Mof_Cd	Cd	0.04084	0.67776	0.10901	0.448
Mof_O 	O 	0.3127	0.0952	0.5194	-0.3
Mof_O 	O 	0.1892	0.091	0.6305	-0.297
Mof_O 	O 	0.4641	0.0502	0.3631	-0.283
Mof_O 	O 	0.4968	0.9322	0.3045	-0.299
Mof_O 	O 	0.1268	0.2435	0.9714	-0.268
Mof_O 	O 	0.1531	0.3718	0.0125	-0.286
Mof_O 	O 	0.0337	0.5612	0.8612	-0.275
Mof_O 	O 	0.0792	0.4391	0.807	-0.29
Mof_O 	O 	0.4674	0.7391	0.4934	-0.289
Mof_O 	O 	0.3835	0.869	0.5294	-0.278
Mof_O 	O 	0.1524	0.5997	0.0157	-0.311
Mof_O 	O 	0.2528	0.5931	0.1285	-0.281
Mof_O 	O 	0.144	0.8111	0.0309	-0.27
Mof_N 	N 	0.165	0.8964	0.896	-0.04
Mof_C 	C 	0.2076	0.0733	0.5643	0.313
Mof_C 	C 	0.1028	0.0332	0.5311	-0.086
Mof_C 	C 	0.1121	0.0283	0.4509	-0.007
Mof_H 	H 	0.1894	0.0474	0.4173	0.053
Mof_C 	C 	0.9879	0.0036	0.5803	0.011
Mof_H 	H 	0.9802	0.0058	0.6356	0.041
Mof_C 	C 	0.4562	0.0159	0.3048	0.314
Mof_C 	C 	0.3887	0.0871	0.2286	-0.067
Mof_C 	C 	0.3609	0.0544	0.1628	-0.046
Mof_H 	H 	0.3882	0.9886	0.1652	0.043
Mof_C 	C 	0.2932	0.1191	0.0943	-0.04
Mof_H 	H 	0.2744	0.0971	0.0498	0.031
Mof_C 	C 	0.2528	0.2152	0.0902	-0.063
Mof_C 	C 	0.2843	0.2482	0.1538	-0.035
Mof_H 	H 	0.2608	0.315	0.1501	0.059
Mof_C 	C 	0.3494	0.1842	0.2223	-0.028
Mof_H 	H 	0.3678	0.2071	0.2662	0.055
Mof_C 	C 	0.1707	0.2832	0.0188	0.277
Mof_C 	C 	0.6055	0.4608	0.0531	-0.1
Mof_H 	H 	0.6773	0.4335	0.0897	0.074
Mof_C 	C 	0.4873	0.4971	0.0821	0.032
Mof_H 	H 	0.4788	0.4956	0.1384	0.035
Mof_C 	C 	0.3808	0.5359	0.0294	-0.124
Mof_C 	C 	0.2532	0.5772	0.0605	0.32
Mof_C 	C 	0.0882	0.5241	0.8087	0.314
Mof_C 	C 	0.1702	0.5892	0.7389	-0.058
Mof_C 	C 	0.2374	0.5537	0.6803	-0.02
Mof_H 	H 	0.2341	0.4868	0.6845	0.051
Mof_C 	C 	0.3094	0.6144	0.6157	-0.023
Mof_H 	H 	0.356	0.5887	0.5761	0.054
Mof_C 	C 	0.3143	0.7132	0.608	-0.057
Mof_C 	C 	0.3946	0.7786	0.5387	0.313
Mof_C 	C 	0.2456	0.7493	0.6654	-0.025
Mof_H 	H 	0.2465	0.8167	0.66	0.047
Mof_C 	C 	0.1738	0.6873	0.7322	-0.025
Mof_H 	H 	0.1281	0.7124	0.7724	0.044
Mof_C 	C 	0.2142	0.8444	0.9695	0.588
Mof_C 	C 	0.347	0.861	0.9828	-1.116
Mof_H 	H 	0.3621	0.8413	0.0414	0.361
Mof_H 	H 	0.3576	0.93	0.9575	0.361
Mof_H 	H 	0.4098	0.8238	0.9576	0.364
Mof_C 	C 	0.0535	0.852	0.8707	-0.34
Mof_H 	H 	0.061	0.8349	0.8206	0.133
Mof_H 	H 	0.992	0.9097	0.8627	0.152
Mof_H 	H 	0.022	0.7983	0.9159	0.157
Mof_C 	C 	0.27	0.8981	0.8232	-0.617
Mof_H 	H 	0.2656	0.859	0.7879	0.201
Mof_H 	H 	0.3582	0.8876	0.8447	0.137
Mof_H 	H 	0.2513	0.9666	0.7914	0.239
Mof_O 	O 	0.17	0.814	0.0284	-0.096
Mof_N 	N 	0.1796	0.8666	0.89	-0.092
Mof_C 	C 	0.121	0.8922	0.9783	-0.03
Mof_C 	C 	0.039	0.9561	0.0153	-0.118
Mof_H 	H 	0.0429	0.9306	0.075	0.05
Mof_H 	H 	0.9494	0.9608	0.9988	-0.051
Mof_H 	H 	0.0712	0.0204	0.9954	-0.062
Mof_C 	C 	0.261	0.8198	0.8832	0.169
Mof_H 	H 	0.2961	0.777	0.9355	-0.075
Mof_H 	H 	0.3325	0.8506	0.8476	0.067
Mof_H 	H 	0.2187	0.7821	0.857	-0.015
Mof_C 	C 	0.082	0.9794	0.8421	-0.137
Mof_H 	H 	0.0295	0.0136	0.8747	0.056
Mof_H 	H 	0.0238	0.9552	0.8125	0.045
Mof_H 	H 	0.1376	0.0237	0.803	0.056
Mof_Cd	Cd	0.5	-2.43585e-17	0.5	0.52
Mof_Cd	Cd	1.21793e-17	0.5	-0	0.48
_end
