data_functionalizedCrystal
_audit_creation_method	'EQeq! by Chris Wilmer'
_symmetry_space_group_name_H-M	'P1'
_symmetry_Int_Tables_number	1
_symmetry_cell_setting	triclinic
loop_
_symmetry_equiv_pos_as_xyz
  x,y,z
_cell_length_a	16.8098
_cell_length_b	16.8098
_cell_length_c	16.8098
_cell_angle_alpha	63.1351
_cell_angle_beta	84.4783
_cell_angle_gamma	116.865
loop_
_atom_site_label
_atom_site_type_symbol
_atom_site_fract_x
_atom_site_fract_y
_atom_site_fract_z
_atom_site_charge
Mof_Hf	Hf	0.60827	6.49589e-17	0.39173	1.227
Mof_Hf	Hf	0.39173	6.49589e-17	0.60827	1.225
Mof_Hf	Hf	0.40024	0	0.40023	1.053
Mof_Hf	Hf	0.59976	0	0.59977	1.053
Mof_Hf	Hf	0.40024	0.80048	0.59976	1.198
Mof_Hf	Hf	0.59976	0.19952	0.40024	1.192
Mof_H 	H 	0.6442	0	0.1274	0.017
Mof_H 	H 	0.6559	0	0.9903	0.063
Mof_H 	H 	0.4064	1.62397e-17	0.1332	0.033
Mof_H 	H 	0.8726	3.24794e-17	0.3558	0.017
Mof_H 	H 	0.0097	0	0.3441	0.063
Mof_H 	H 	0.8668	0	0.5936	0.033
Mof_H 	H 	0.6442	0.7716	0.3558	0.075
Mof_H 	H 	0.6559	0.6462	0.3441	0.079
Mof_H 	H 	0.4064	0.5396	0.5936	0.058
Mof_H 	H 	0.8726	0.2284	0.1274	0.014
Mof_H 	H 	0.0097	0.3538	0.9903	0.096
Mof_H 	H 	0.8668	0.4604	0.1332	0.037
Mof_H 	H 	0.1274	0.7716	0.8726	0.094
Mof_H 	H 	0.9903	0.6462	0.0097	0.049
Mof_H 	H 	0.1332	0.5396	0.8668	0.075
Mof_H 	H 	0.3558	0.2284	0.6442	0.032
Mof_H 	H 	0.3441	0.3538	0.6559	0.068
Mof_H 	H 	0.5936	0.4604	0.4064	0.055
Mof_H 	H 	0.1274	6.49589e-17	0.6442	0.028
Mof_H 	H 	0.9903	6.49589e-17	0.6559	0.045
Mof_H 	H 	0.1332	0	0.4064	0.044
Mof_H 	H 	0.3558	0	0.8726	0.028
Mof_H 	H 	0.3441	0	0.0097	0.045
Mof_H 	H 	0.5936	0	0.8668	0.044
Mof_C 	C 	0.5199	-3.24794e-17	0.2351	0.402
Mof_C 	C 	0.5246	1.62397e-17	0.1456	-0.127
Mof_C 	C 	0.5981	8.11986e-18	0.1009	0.04
Mof_C 	C 	0.6055	2.02996e-18	0.0183	-0.129
Mof_C 	C 	0.5375	1.29918e-16	0.9769	0.042
Mof_C 	C 	0.4566	8.11986e-18	0.1046	-0.017
Mof_C 	C 	0.7649	6.49589e-17	0.4801	0.402
Mof_C 	C 	0.8544	0	0.4754	-0.127
Mof_C 	C 	0.8991	0	0.4019	0.04
Mof_C 	C 	0.9817	0	0.3945	-0.129
Mof_C 	C 	0.0231	3.24794e-17	0.4625	0.042
Mof_C 	C 	0.8954	6.49589e-17	0.5434	-0.017
Mof_C 	C 	0.5199	0.755	0.4801	0.394
Mof_C 	C 	0.5246	0.6702	0.4754	-0.07
Mof_C 	C 	0.5981	0.699	0.4019	0.019
Mof_C 	C 	0.6055	0.6238	0.3945	-0.076
Mof_C 	C 	0.5375	0.5144	0.4625	0.025
Mof_C 	C 	0.4566	0.5612	0.5434	-0.041
Mof_C 	C 	0.7649	0.245	0.2351	0.422
Mof_C 	C 	0.8544	0.3298	0.1456	-0.141
Mof_C 	C 	0.8991	0.301	0.1009	0.086
Mof_C 	C 	0.9817	0.3762	0.0183	-0.176
Mof_C 	C 	0.0231	0.4856	0.9769	0.113
Mof_C 	C 	0.8954	0.4388	0.1046	0.029
Mof_C 	C 	0.2351	0.755	0.7649	0.38
Mof_C 	C 	0.1456	0.6702	0.8544	-0.033
Mof_C 	C 	0.1009	0.699	0.8991	-0.031
Mof_C 	C 	0.0183	0.6238	0.9817	-0.002
Mof_C 	C 	0.9769	0.5144	0.0231	-0.045
Mof_C 	C 	0.1046	0.5612	0.8954	-0.091
Mof_C 	C 	0.4801	0.245	0.5199	0.409
Mof_C 	C 	0.4754	0.3298	0.5246	-0.104
Mof_C 	C 	0.4019	0.301	0.5981	0.037
Mof_C 	C 	0.3945	0.3762	0.6055	-0.105
Mof_C 	C 	0.4625	0.4856	0.5375	0.043
Mof_C 	C 	0.5434	0.4388	0.4566	-0.021
Mof_C 	C 	0.2351	0	0.5199	0.394
Mof_C 	C 	0.1456	0	0.5246	-0.104
Mof_C 	C 	0.1009	0	0.5981	0.009
Mof_C 	C 	0.0183	-6.49589e-17	0.6055	-0.084
Mof_C 	C 	0.9769	-6.49589e-17	0.5375	-0.002
Mof_C 	C 	0.1046	0	0.4566	-0.048
Mof_C 	C 	0.4801	0	0.7649	0.394
Mof_C 	C 	0.4754	0	0.8544	-0.104
Mof_C 	C 	0.4019	0	0.8991	0.009
Mof_C 	C 	0.3945	0	0.9817	-0.084
Mof_C 	C 	0.4625	2.02996e-18	0.0231	-0.002
Mof_C 	C 	0.5434	0	0.8954	-0.048
Mof_O 	O 	0.5823	0	0.2671	-0.411
Mof_O 	O 	0.4496	0	0.2724	-0.414
Mof_O 	O 	0.7329	3.24794e-17	0.4177	-0.411
Mof_O 	O 	0.7276	6.49589e-17	0.5504	-0.414
Mof_O 	O 	0.5823	0.8494	0.4177	-0.306
Mof_O 	O 	0.4496	0.722	0.5504	-0.385
Mof_O 	O 	0.7329	0.1506	0.2671	-0.384
Mof_O 	O 	0.7276	0.278	0.2724	-0.399
Mof_O 	O 	0.2671	0.8494	0.7329	-0.302
Mof_O 	O 	0.2724	0.722	0.7276	-0.382
Mof_O 	O 	0.4177	0.1506	0.5823	-0.381
Mof_O 	O 	0.5504	0.278	0.4496	-0.396
Mof_O 	O 	0.2671	6.49589e-17	0.5823	-0.409
Mof_O 	O 	0.2724	-3.24794e-17	0.4496	-0.412
Mof_O 	O 	0.4177	6.49589e-17	0.7329	-0.409
Mof_O 	O 	0.5504	0	0.7276	-0.412
Mof_O 	O 	0.452	0.8996	0.4476	-0.414
Mof_O 	O 	0.6528	0.1004	0.4476	-0.508
Mof_O 	O 	0.5524	0.8996	0.548	-0.414
Mof_O 	O 	0.5524	0.1004	0.3472	-0.508
Mof_O 	O 	0.3472	0.8996	0.5524	-0.414
Mof_O 	O 	0.548	0.1004	0.5524	-0.507
Mof_O 	O 	0.4476	0.1004	0.452	-0.507
Mof_O 	O 	0.4476	0.8996	0.6528	-0.414
_end
