data_functionalizedCrystal
_audit_creation_method	'EQeq! by Chris Wilmer'
_symmetry_space_group_name_H-M	'P1'
_symmetry_Int_Tables_number	1
_symmetry_cell_setting	triclinic
loop_
_symmetry_equiv_pos_as_xyz
  x,y,z
_cell_length_a	16.2893
_cell_length_b	16.7991
_cell_length_c	17.4829
_cell_angle_alpha	86.419
_cell_angle_beta	87.725
_cell_angle_gamma	66.905
loop_
_atom_site_label
_atom_site_type_symbol
_atom_site_fract_x
_atom_site_fract_y
_atom_site_fract_z
_atom_site_charge
Mof_Ag	Ag	0.77904	0.07106	0.14922	0.444
Mof_Ag	Ag	0.60357	0.29885	0.20186	0.415
Mof_Ag	Ag	0.73149	0.0999	0.39054	0.433
Mof_S 	S 	0.72035	0.22555	0.1026	-0.217
Mof_S 	S 	0.84658	0.04202	0.27879	-0.201
Mof_S 	S 	0.59986	0.19271	0.3062	-0.225
Mof_P 	P 	0.77354	0.12101	0.51875	0.014
Mof_P 	P 	0.71244	0.95407	0.42098	0.036
Mof_P 	P 	0.81842	0.95392	0.06126	0.016
Mof_P 	P 	0.49932	0.44823	0.19426	0.012
Mof_C 	C 	0.69369	0.10307	0.5867	-0.016
Mof_C 	C 	0.60358	0.15	0.57268	-0.072
Mof_H 	H 	0.5863	0.1904	0.5299	0.03
Mof_C 	C 	0.53853	0.13842	0.62056	-0.024
Mof_H 	H 	0.4772	0.1716	0.611	0.031
Mof_C 	C 	0.56302	0.07889	0.68172	-0.076
Mof_H 	H 	0.5185	0.0704	0.7139	0.044
Mof_C 	C 	0.65235	0.03138	0.69645	-0.025
Mof_H 	H 	0.669	0.9905	0.7389	0.016
Mof_C 	C 	0.71821	0.04325	0.64903	-0.079
Mof_H 	H 	0.7795	0.0106	0.6593	0.045
Mof_C 	C 	0.77962	0.21932	0.55417	-0.012
Mof_C 	C 	0.77609	0.28703	0.50335	-0.069
Mof_H 	H 	0.7709	0.2826	0.45	0.018
Mof_C 	C 	0.7802	0.36141	0.5301	-0.028
Mof_H 	H 	0.7772	0.4079	0.495	0.019
Mof_C 	C 	0.78848	0.36817	0.60714	-0.059
Mof_H 	H 	0.7915	0.4192	0.6251	0.036
Mof_C 	C 	0.79241	0.30141	0.65797	-0.026
Mof_H 	H 	0.7982	0.3061	0.7112	0.023
Mof_C 	C 	0.7879	0.22705	0.63201	-0.07
Mof_H 	H 	0.7905	0.181	0.6675	0.036
Mof_C 	C 	0.88143	0.03637	0.54631	-0.165
Mof_H 	H 	0.8974	0.0473	0.5976	0.07
Mof_H 	H 	0.8765	0.9793	0.5496	0.067
Mof_C 	C 	0.95502	0.03422	0.48829	-0.066
Mof_H 	H 	0.9397	0.0219	0.4373	0.034
Mof_H 	H 	0.9588	0.0917	0.484	0.043
Mof_C 	C 	0.69201	0.90536	0.3367	-0.019
Mof_C 	C 	0.6609	0.95798	0.27039	-0.066
Mof_H 	H 	0.6523	0.0173	0.2695	0.009
Mof_C 	C 	0.64239	0.92445	0.20565	-0.039
Mof_H 	H 	0.6211	0.9608	0.1609	0.021
Mof_C 	C 	0.65493	0.8383	0.2065	-0.052
Mof_H 	H 	0.6423	0.8153	0.1622	0.033
Mof_C 	C 	0.68578	0.78536	0.27148	-0.034
Mof_H 	H 	0.6944	0.726	0.2719	0.028
Mof_C 	C 	0.70432	0.81858	0.33631	-0.057
Mof_H 	H 	0.7256	0.7817	0.3808	0.038
Mof_C 	C 	0.8158	0.87189	0.45894	-0.02
Mof_C 	C 	0.82305	0.83546	0.53345	-0.067
Mof_H 	H 	0.7711	0.8485	0.565	0.03
Mof_C 	C 	0.90516	0.7804	0.56199	-0.034
Mof_H 	H 	0.9092	0.7561	0.6129	0.021
Mof_C 	C 	0.98145	0.76072	0.51635	-0.057
Mof_H 	H 	0.0378	0.7231	0.536	0.039
Mof_C 	C 	0.97532	0.79572	0.44289	-0.032
Mof_H 	H 	0.0276	0.7818	0.4116	0.035
Mof_C 	C 	0.89347	0.85137	0.41361	-0.066
Mof_H 	H 	0.8902	0.8756	0.3627	0.036
Mof_C 	C 	0.62855	0.94507	0.49083	-0.168
Mof_H 	H 	0.6331	0.8844	0.4944	0.071
Mof_H 	H 	0.6418	0.9591	0.5419	0.068
Mof_C 	C 	0.53351	0.00473	0.46996	-0.064
Mof_H 	H 	0.5194	0.9905	0.4193	0.039
Mof_H 	H 	0.5284	0.0655	0.4663	0.036
Mof_C 	C 	0.73681	0.93906	0.0014	-0.002
Mof_C 	C 	0.68076	0.01046	0.95835	-0.087
Mof_H 	H 	0.6865	0.0644	0.9604	0.045
Mof_C 	C 	0.61669	0.00415	0.91242	-0.009
Mof_H 	H 	0.5786	0.0538	0.8835	0.022
Mof_C 	C 	0.60765	0.9267	0.90831	-0.08
Mof_H 	H 	0.5634	0.9225	0.8768	0.034
Mof_C 	C 	0.6636	0.8547	0.9505	-0.016
Mof_H 	H 	0.6581	0.8007	0.9473	0.013
Mof_C 	C 	0.72765	0.86037	0.99721	-0.087
Mof_H 	H 	0.7653	0.8107	0.0264	0.054
Mof_C 	C 	0.88497	0.84596	0.1015	-0.015
Mof_C 	C 	0.88045	0.83058	0.17996	-0.07
Mof_H 	H 	0.8433	0.8759	0.2109	0.032
Mof_C 	C 	0.9294	0.7498	0.21383	-0.027
Mof_H 	H 	0.9256	0.7401	0.2677	0.031
Mof_C 	C 	0.98349	0.68382	0.16987	-0.06
Mof_H 	H 	0.0167	0.6284	0.1933	0.038
Mof_C 	C 	0.9896	0.69797	0.09174	-0.03
Mof_H 	H 	0.0272	0.6524	0.0613	0.024
Mof_C 	C 	0.94088	0.77868	0.0577	-0.068
Mof_H 	H 	0.9456	0.7883	0.0039	0.039
Mof_C 	C 	0.89364	0.97598	0.98968	-0.181
Mof_H 	H 	0.919	0.9268	0.9557	0.071
Mof_H 	H 	0.8596	0.0286	0.9577	0.062
Mof_C 	C 	0.96925	0.98905	0.029	-0.062
Mof_H 	H 	0.9436	0.0366	0.0647	0.015
Mof_H 	H 	0.0045	0.9355	0.0594	0.027
Mof_C 	C 	0.50785	0.51368	0.26999	-0.017
Mof_C 	C 	0.43795	0.55457	0.32052	-0.079
Mof_H 	H 	0.3828	0.5482	0.3167	0.054
Mof_C 	C 	0.4485	0.6044	0.37623	-0.023
Mof_H 	H 	0.4002	0.6323	0.4103	0.028
Mof_C 	C 	0.5272	0.61396	0.38299	-0.08
Mof_H 	H 	0.5333	0.6494	0.4208	0.045
Mof_C 	C 	0.5984	0.5717	0.33435	-0.024
Mof_H 	H 	0.6536	0.5774	0.3394	0.018
Mof_C 	C 	0.58896	0.52111	0.2783	-0.086
Mof_H 	H 	0.6381	0.4915	0.2456	0.028
Mof_C 	C 	0.3825	0.46276	0.19258	-0.009
Mof_C 	C 	0.36084	0.39265	0.21336	-0.071
Mof_H 	H 	0.4061	0.3392	0.2304	0.027
Mof_C 	C 	0.2732	0.3999	0.2094	-0.022
Mof_H 	H 	0.2586	0.3516	0.2244	0.022
Mof_C 	C 	0.2074	0.4767	0.184	-0.065
Mof_H 	H 	0.1478	0.481	0.1805	0.037
Mof_C 	C 	0.22787	0.5473	0.1635	-0.021
Mof_H 	H 	0.1823	0.6006	0.1468	0.022
Mof_C 	C 	0.31486	0.54027	0.1674	-0.073
Mof_H 	H 	0.3289	0.5889	0.1527	0.048
Mof_C 	C 	0.51045	0.51171	0.10832	-0.164
Mof_H 	H 	0.4648	0.5715	0.1102	0.071
Mof_H 	H 	0.57	0.5148	0.1074	0.058
Mof_C 	C 	0.49937	0.4719	0.03573	-0.067
Mof_H 	H 	0.4421	0.4641	0.0388	0.039
Mof_H 	H 	0.5482	0.414	0.0318	0.033
Mof_C 	C 	0.67253	0.23017	0.01231	-0.226
Mof_C 	C 	0.58782	0.22834	0.0045	0.316
Mof_C 	C 	0.5535	0.23483	0.93147	-0.449
Mof_H 	H 	0.4951	0.236	0.9268	0.167
Mof_C 	C 	0.6018	0.23962	0.86562	0.449
Mof_C 	C 	0.6862	0.23799	0.87418	-0.473
Mof_H 	H 	0.7208	0.2395	0.8294	0.171
Mof_C 	C 	0.7231	0.23428	0.94538	0.354
Mof_C 	C 	0.53379	0.2165	0.07236	-0.616
Mof_H 	H 	0.5717	0.1685	0.1062	0.167
Mof_H 	H 	0.4842	0.2035	0.0549	0.192
Mof_H 	H 	0.5101	0.2699	0.1004	0.167
Mof_C 	C 	0.5612	0.247	0.78757	-0.807
Mof_H 	H 	0.5245	0.2125	0.7888	0.254
Mof_H 	H 	0.609	0.2253	0.749	0.259
Mof_H 	H 	0.5239	0.3078	0.7745	0.261
Mof_C 	C 	0.8143	0.2343	0.9498	-0.702
Mof_H 	H 	0.8101	0.2891	0.9698	0.223
Mof_H 	H 	0.8419	0.2281	0.8985	0.216
Mof_H 	H 	0.8507	0.1859	0.984	0.219
Mof_C 	C 	0.93346	0.07984	0.26062	-0.212
Mof_C 	C 	0.91918	0.16758	0.26411	0.294
Mof_C 	C 	0.98957	0.1936	0.24809	-0.42
Mof_H 	H 	0.9794	0.253	0.2512	0.154
Mof_C 	C 	0.07424	0.1356	0.22764	0.415
Mof_C 	C 	0.08714	0.0495	0.22404	-0.445
Mof_H 	H 	0.1445	0.0091	0.2095	0.165
Mof_C 	C 	0.01974	0.01966	0.24078	0.329
Mof_C 	C 	0.82849	0.23466	0.28271	-0.568
Mof_H 	H 	0.7867	0.238	0.2426	0.148
Mof_H 	H 	0.8324	0.2912	0.2855	0.169
Mof_H 	H 	0.8072	0.2185	0.3321	0.153
Mof_C 	C 	0.15	0.1651	0.2104	-0.756
Mof_H 	H 	0.1256	0.2263	0.1929	0.231
Mof_H 	H 	0.1889	0.1304	0.1702	0.238
Mof_H 	H 	0.1845	0.1576	0.2569	0.23
Mof_C 	C 	0.03857	0.92529	0.23659	-0.67
Mof_H 	H 	0.0309	0.9013	0.2876	0.217
Mof_H 	H 	0.1	0.8947	0.2183	0.205
Mof_H 	H 	0.9971	0.9182	0.2011	0.208
Mof_C 	C 	0.49736	0.24707	0.3555	-0.233
Mof_C 	C 	0.48504	0.31777	0.40044	0.341
Mof_C 	C 	0.40161	0.36182	0.43395	-0.46
Mof_H 	H 	0.3929	0.4109	0.4625	0.172
Mof_C 	C 	0.3313	0.3367	0.4271	0.446
Mof_C 	C 	0.34498	0.26688	0.38244	-0.467
Mof_H 	H 	0.297	0.2491	0.3767	0.169
Mof_C 	C 	0.42541	0.22222	0.34611	0.356
Mof_C 	C 	0.55956	0.34594	0.41228	-0.663
Mof_H 	H 	0.6063	0.3005	0.4421	0.197
Mof_H 	H 	0.537	0.3995	0.44	0.211
Mof_H 	H 	0.5843	0.3563	0.3624	0.191
Mof_C 	C 	0.242	0.3849	0.4658	-0.781
Mof_H 	H 	0.2514	0.4088	0.5129	0.238
Mof_H 	H 	0.2124	0.345	0.4785	0.242
Mof_H 	H 	0.2046	0.4322	0.4311	0.241
Mof_C 	C 	0.4334	0.15129	0.29481	-0.694
Mof_H 	H 	0.4459	0.1674	0.2421	0.211
Mof_H 	H 	0.3773	0.1425	0.2965	0.213
Mof_H 	H 	0.4821	0.0976	0.3122	0.22
Mof_Ag	Ag	0.22096	0.92894	0.85078	0.444
Mof_Ag	Ag	0.39643	0.70115	0.79814	0.415
Mof_Ag	Ag	0.26851	0.9001	0.60946	0.433
Mof_S 	S 	0.27965	0.77445	0.8974	-0.217
Mof_S 	S 	0.15342	0.95798	0.72121	-0.201
Mof_S 	S 	0.40014	0.80729	0.6938	-0.225
Mof_P 	P 	0.22646	0.87899	0.48125	0.014
Mof_P 	P 	0.28756	0.04593	0.57902	0.036
Mof_P 	P 	0.18158	0.04608	0.93874	0.016
Mof_P 	P 	0.50068	0.55177	0.80574	0.012
Mof_C 	C 	0.30631	0.89693	0.4133	-0.016
Mof_C 	C 	0.39642	0.85	0.42732	-0.072
Mof_H 	H 	0.4137	0.8096	0.4701	0.03
Mof_C 	C 	0.46147	0.86158	0.37944	-0.024
Mof_H 	H 	0.5228	0.8284	0.389	0.031
Mof_C 	C 	0.43698	0.92111	0.31828	-0.076
Mof_H 	H 	0.4815	0.9296	0.2861	0.044
Mof_C 	C 	0.34765	0.96862	0.30355	-0.025
Mof_H 	H 	0.331	0.0095	0.2611	0.016
Mof_C 	C 	0.28179	0.95675	0.35097	-0.079
Mof_H 	H 	0.2205	0.9894	0.3407	0.045
Mof_C 	C 	0.22038	0.78068	0.44583	-0.012
Mof_C 	C 	0.22391	0.71297	0.49665	-0.069
Mof_H 	H 	0.2291	0.7174	0.55	0.018
Mof_C 	C 	0.2198	0.63859	0.4699	-0.028
Mof_H 	H 	0.2228	0.5921	0.505	0.019
Mof_C 	C 	0.21152	0.63183	0.39286	-0.059
Mof_H 	H 	0.2085	0.5808	0.3749	0.036
Mof_C 	C 	0.20759	0.69859	0.34203	-0.026
Mof_H 	H 	0.2018	0.6939	0.2888	0.023
Mof_C 	C 	0.2121	0.77295	0.36799	-0.07
Mof_H 	H 	0.2095	0.819	0.3325	0.036
Mof_C 	C 	0.11857	0.96363	0.45369	-0.165
Mof_H 	H 	0.1026	0.9527	0.4024	0.07
Mof_H 	H 	0.1235	0.0207	0.4504	0.067
Mof_C 	C 	0.04498	0.96578	0.51171	-0.066
Mof_H 	H 	0.0603	0.9781	0.5627	0.034
Mof_H 	H 	0.0412	0.9083	0.516	0.043
Mof_C 	C 	0.30799	0.09464	0.6633	-0.019
Mof_C 	C 	0.3391	0.04202	0.72961	-0.066
Mof_H 	H 	0.3477	0.9827	0.7305	0.009
Mof_C 	C 	0.35761	0.07555	0.79435	-0.039
Mof_H 	H 	0.3789	0.0392	0.8391	0.021
Mof_C 	C 	0.34507	0.1617	0.7935	-0.052
Mof_H 	H 	0.3577	0.1847	0.8378	0.033
Mof_C 	C 	0.31422	0.21464	0.72852	-0.034
Mof_H 	H 	0.3056	0.274	0.7281	0.028
Mof_C 	C 	0.29568	0.18142	0.66369	-0.057
Mof_H 	H 	0.2744	0.2183	0.6192	0.038
Mof_C 	C 	0.1842	0.12811	0.54106	-0.02
Mof_C 	C 	0.17695	0.16454	0.46655	-0.067
Mof_H 	H 	0.2289	0.1515	0.435	0.03
Mof_C 	C 	0.09484	0.2196	0.43801	-0.034
Mof_H 	H 	0.0908	0.2439	0.3871	0.021
Mof_C 	C 	0.01855	0.23928	0.48365	-0.057
Mof_H 	H 	0.9622	0.2769	0.464	0.039
Mof_C 	C 	0.02468	0.20428	0.55711	-0.032
Mof_H 	H 	0.9724	0.2182	0.5884	0.035
Mof_C 	C 	0.10653	0.14863	0.58639	-0.066
Mof_H 	H 	0.1098	0.1244	0.6373	0.036
Mof_C 	C 	0.37145	0.05493	0.50917	-0.168
Mof_H 	H 	0.3669	0.1156	0.5056	0.071
Mof_H 	H 	0.3582	0.0409	0.4581	0.068
Mof_C 	C 	0.46649	0.99527	0.53004	-0.064
Mof_H 	H 	0.4806	0.0095	0.5807	0.039
Mof_H 	H 	0.4716	0.9345	0.5337	0.036
Mof_C 	C 	0.26319	0.06094	0.9986	-0.002
Mof_C 	C 	0.31924	0.98954	0.04165	-0.087
Mof_H 	H 	0.3135	0.9356	0.0396	0.045
Mof_C 	C 	0.38331	0.99585	0.08758	-0.009
Mof_H 	H 	0.4214	0.9462	0.1165	0.022
Mof_C 	C 	0.39235	0.0733	0.09169	-0.08
Mof_H 	H 	0.4366	0.0775	0.1232	0.034
Mof_C 	C 	0.3364	0.1453	0.0495	-0.016
Mof_H 	H 	0.3419	0.1993	0.0527	0.013
Mof_C 	C 	0.27235	0.13963	0.00279	-0.087
Mof_H 	H 	0.2347	0.1893	0.9736	0.054
Mof_C 	C 	0.11503	0.15404	0.8985	-0.015
Mof_C 	C 	0.11955	0.16942	0.82004	-0.07
Mof_H 	H 	0.1567	0.1241	0.7891	0.032
Mof_C 	C 	0.0706	0.2502	0.78617	-0.027
Mof_H 	H 	0.0744	0.2599	0.7323	0.031
Mof_C 	C 	0.01651	0.31618	0.83013	-0.06
Mof_H 	H 	0.9833	0.3716	0.8067	0.038
Mof_C 	C 	0.0104	0.30203	0.90826	-0.03
Mof_H 	H 	0.9728	0.3476	0.9387	0.024
Mof_C 	C 	0.05912	0.22132	0.9423	-0.068
Mof_H 	H 	0.0544	0.2117	0.9961	0.039
Mof_C 	C 	0.10636	0.02402	0.01032	-0.181
Mof_H 	H 	0.081	0.0732	0.0443	0.071
Mof_H 	H 	0.1404	0.9714	0.0423	0.062
Mof_C 	C 	0.03075	0.01095	0.971	-0.062
Mof_H 	H 	0.0564	0.9634	0.9353	0.015
Mof_H 	H 	0.9955	0.0645	0.9406	0.027
Mof_C 	C 	0.49215	0.48632	0.73001	-0.017
Mof_C 	C 	0.56205	0.44543	0.67948	-0.079
Mof_H 	H 	0.6172	0.4518	0.6833	0.054
Mof_C 	C 	0.5515	0.3956	0.62377	-0.023
Mof_H 	H 	0.5998	0.3677	0.5897	0.028
Mof_C 	C 	0.4728	0.38604	0.61701	-0.08
Mof_H 	H 	0.4667	0.3506	0.5792	0.045
Mof_C 	C 	0.4016	0.4283	0.66565	-0.024
Mof_H 	H 	0.3464	0.4226	0.6606	0.018
Mof_C 	C 	0.41104	0.47889	0.7217	-0.086
Mof_H 	H 	0.3619	0.5085	0.7544	0.028
Mof_C 	C 	0.6175	0.53724	0.80742	-0.009
Mof_C 	C 	0.63916	0.60735	0.78664	-0.071
Mof_H 	H 	0.5939	0.6608	0.7696	0.027
Mof_C 	C 	0.7268	0.6001	0.7906	-0.022
Mof_H 	H 	0.7414	0.6484	0.7756	0.022
Mof_C 	C 	0.7926	0.5233	0.816	-0.065
Mof_H 	H 	0.8522	0.519	0.8195	0.037
Mof_C 	C 	0.77213	0.4527	0.8365	-0.021
Mof_H 	H 	0.8177	0.3994	0.8532	0.022
Mof_C 	C 	0.68514	0.45973	0.8326	-0.073
Mof_H 	H 	0.6711	0.4111	0.8473	0.048
Mof_C 	C 	0.48955	0.48829	0.89168	-0.164
Mof_H 	H 	0.5352	0.4285	0.8898	0.071
Mof_H 	H 	0.43	0.4852	0.8926	0.058
Mof_C 	C 	0.50063	0.5281	0.96427	-0.067
Mof_H 	H 	0.5579	0.5359	0.9612	0.039
Mof_H 	H 	0.4518	0.586	0.9682	0.033
Mof_C 	C 	0.32747	0.76983	0.98769	-0.226
Mof_C 	C 	0.41218	0.77166	0.9955	0.316
Mof_C 	C 	0.4465	0.76517	0.06853	-0.449
Mof_H 	H 	0.5049	0.764	0.0732	0.167
Mof_C 	C 	0.3982	0.76038	0.13438	0.449
Mof_C 	C 	0.3138	0.76201	0.12582	-0.473
Mof_H 	H 	0.2792	0.7605	0.1706	0.171
Mof_C 	C 	0.2769	0.76572	0.05462	0.354
Mof_C 	C 	0.46621	0.7835	0.92764	-0.616
Mof_H 	H 	0.4283	0.8315	0.8938	0.167
Mof_H 	H 	0.5158	0.7965	0.9451	0.192
Mof_H 	H 	0.4899	0.7301	0.8996	0.167
Mof_C 	C 	0.4388	0.753	0.21243	-0.807
Mof_H 	H 	0.4755	0.7875	0.2112	0.254
Mof_H 	H 	0.391	0.7747	0.251	0.259
Mof_H 	H 	0.4761	0.6922	0.2255	0.261
Mof_C 	C 	0.1857	0.7657	0.0502	-0.702
Mof_H 	H 	0.1899	0.7109	0.0302	0.223
Mof_H 	H 	0.1581	0.7719	0.1015	0.216
Mof_H 	H 	0.1493	0.8141	0.016	0.219
Mof_C 	C 	0.06654	0.92016	0.73938	-0.212
Mof_C 	C 	0.08082	0.83242	0.73589	0.294
Mof_C 	C 	0.01043	0.8064	0.75191	-0.42
Mof_H 	H 	0.0206	0.747	0.7488	0.154
Mof_C 	C 	0.92576	0.8644	0.77236	0.415
Mof_C 	C 	0.91286	0.9505	0.77596	-0.445
Mof_H 	H 	0.8555	0.9909	0.7905	0.165
Mof_C 	C 	0.98026	0.98034	0.75922	0.329
Mof_C 	C 	0.17151	0.76534	0.71729	-0.568
Mof_H 	H 	0.2133	0.762	0.7574	0.148
Mof_H 	H 	0.1676	0.7088	0.7145	0.169
Mof_H 	H 	0.1928	0.7815	0.6679	0.153
Mof_C 	C 	0.85	0.8349	0.7896	-0.756
Mof_H 	H 	0.8744	0.7737	0.8071	0.231
Mof_H 	H 	0.8111	0.8696	0.8298	0.238
Mof_H 	H 	0.8155	0.8424	0.7431	0.23
Mof_C 	C 	0.96143	0.07471	0.76341	-0.67
Mof_H 	H 	0.9691	0.0987	0.7124	0.217
Mof_H 	H 	0.9	0.1053	0.7817	0.205
Mof_H 	H 	0.0029	0.0818	0.7989	0.208
Mof_C 	C 	0.50264	0.75293	0.6445	-0.233
Mof_C 	C 	0.51496	0.68223	0.59956	0.341
Mof_C 	C 	0.59839	0.63818	0.56605	-0.46
Mof_H 	H 	0.6071	0.5891	0.5375	0.172
Mof_C 	C 	0.6687	0.6633	0.5729	0.446
Mof_C 	C 	0.65502	0.73312	0.61756	-0.467
Mof_H 	H 	0.703	0.7509	0.6233	0.169
Mof_C 	C 	0.57459	0.77778	0.65389	0.356
Mof_C 	C 	0.44044	0.65406	0.58772	-0.663
Mof_H 	H 	0.3937	0.6995	0.5579	0.197
Mof_H 	H 	0.463	0.6005	0.56	0.211
Mof_H 	H 	0.4157	0.6437	0.6376	0.191
Mof_C 	C 	0.758	0.6151	0.5342	-0.781
Mof_H 	H 	0.7486	0.5912	0.4871	0.238
Mof_H 	H 	0.7876	0.655	0.5215	0.242
Mof_H 	H 	0.7954	0.5678	0.5689	0.241
Mof_C 	C 	0.5666	0.84871	0.70519	-0.694
Mof_H 	H 	0.5541	0.8326	0.7579	0.211
Mof_H 	H 	0.6227	0.8575	0.7035	0.213
Mof_H 	H 	0.5179	0.9024	0.6878	0.22
_end
