data_functionalizedCrystal
_audit_creation_method	'EQeq! by Chris Wilmer'
_symmetry_space_group_name_H-M	'P1'
_symmetry_Int_Tables_number	1
_symmetry_cell_setting	triclinic
loop_
_symmetry_equiv_pos_as_xyz
  x,y,z
_cell_length_a	20.658
_cell_length_b	20.658
_cell_length_c	5.6117
_cell_angle_alpha	90
_cell_angle_beta	90
_cell_angle_gamma	90
loop_
_atom_site_label
_atom_site_type_symbol
_atom_site_fract_x
_atom_site_fract_y
_atom_site_fract_z
_atom_site_charge
Mof_N 	N 	0.1536	0.2258	0.2043	-0.182
Mof_C 	C 	0.1139	0.2507	0.0478	0.024
Mof_H 	H 	0.13	0.2804	0.9383	0.04
Mof_C 	C 	0.0506	0.2352	0.039	-0.027
Mof_H 	H 	0.024	0.2538	0.9239	0.052
Mof_C 	C 	0.0249	0.191	0.203	-0.11
Mof_H 	H 	0.9815	0.1794	0.1986	0.069
Mof_C 	C 	0.0662	0.1654	0.369	0.126
Mof_C 	C 	0.1307	0.1832	0.3638	-0.051
Mof_H 	H 	0.159	0.1651	0.474	0.074
Mof_N 	N 	0.0401	0.1241	0.5465	-0.238
Mof_H 	H 	0.999	0.1262	0.5698	0.13
Mof_C 	C 	0.0736	0.0815	0.6832	0.218
Mof_O 	O 	0.1325	0.0752	0.6771	-0.235
Mof_C 	C 	0.035	0.0399	0.8468	-0.044
Mof_C 	C 	0.0625	0.0182	0.047	-0.027
Mof_H 	H 	0.1048	0.0302	0.0825	0.057
Mof_C 	C 	0.9708	0.0219	0.797	-0.039
Mof_H 	H 	0.9506	0.0368	0.6595	0.043
Mof_N 	N 	0.3464	0.2742	0.2043	-0.181
Mof_C 	C 	0.3861	0.2493	0.0478	0.024
Mof_H 	H 	0.37	0.2196	0.9383	0.042
Mof_C 	C 	0.4494	0.2648	0.039	-0.024
Mof_H 	H 	0.476	0.2462	0.9239	0.051
Mof_C 	C 	0.4751	0.309	0.203	-0.113
Mof_H 	H 	0.5185	0.3206	0.1986	0.071
Mof_C 	C 	0.4338	0.3346	0.369	0.127
Mof_C 	C 	0.3693	0.3168	0.3638	-0.052
Mof_H 	H 	0.341	0.3349	0.474	0.075
Mof_N 	N 	0.4599	0.3759	0.5465	-0.239
Mof_H 	H 	0.501	0.3738	0.5698	0.131
Mof_C 	C 	0.4264	0.4185	0.6832	0.219
Mof_O 	O 	0.3675	0.4248	0.6771	-0.235
Mof_C 	C 	0.465	0.4601	0.8468	-0.045
Mof_C 	C 	0.4375	0.4818	0.047	-0.029
Mof_H 	H 	0.3952	0.4698	0.0825	0.057
Mof_C 	C 	0.5292	0.4781	0.797	-0.036
Mof_H 	H 	0.5494	0.4632	0.6595	0.043
Mof_N 	N 	0.2742	0.1536	0.2043	-0.181
Mof_C 	C 	0.2493	0.1139	0.0478	0.025
Mof_H 	H 	0.2196	0.13	0.9383	0.041
Mof_C 	C 	0.2648	0.0506	0.039	-0.025
Mof_H 	H 	0.2462	0.024	0.9239	0.052
Mof_C 	C 	0.309	0.0249	0.203	-0.112
Mof_H 	H 	0.3206	0.9815	0.1986	0.07
Mof_C 	C 	0.3346	0.0662	0.369	0.126
Mof_C 	C 	0.3168	0.1307	0.3638	-0.051
Mof_H 	H 	0.3349	0.159	0.474	0.074
Mof_N 	N 	0.3759	0.0401	0.5465	-0.239
Mof_H 	H 	0.3738	0.999	0.5698	0.13
Mof_C 	C 	0.4185	0.0736	0.6832	0.219
Mof_O 	O 	0.4248	0.1325	0.6771	-0.235
Mof_C 	C 	0.4601	0.035	0.8468	-0.045
Mof_C 	C 	0.4818	0.0625	0.047	-0.029
Mof_H 	H 	0.4698	0.1048	0.0825	0.057
Mof_C 	C 	0.4781	0.9708	0.797	-0.036
Mof_H 	H 	0.4632	0.9506	0.6595	0.043
Mof_N 	N 	0.2258	0.3464	0.2043	-0.181
Mof_C 	C 	0.2507	0.3861	0.0478	0.024
Mof_H 	H 	0.2804	0.37	0.9383	0.042
Mof_C 	C 	0.2352	0.4494	0.039	-0.024
Mof_H 	H 	0.2538	0.476	0.9239	0.051
Mof_C 	C 	0.191	0.4751	0.203	-0.113
Mof_H 	H 	0.1794	0.5185	0.1986	0.071
Mof_C 	C 	0.1654	0.4338	0.369	0.127
Mof_C 	C 	0.1832	0.3693	0.3638	-0.052
Mof_H 	H 	0.1651	0.341	0.474	0.075
Mof_N 	N 	0.1241	0.4599	0.5465	-0.239
Mof_H 	H 	0.1262	0.501	0.5698	0.131
Mof_C 	C 	0.0815	0.4264	0.6832	0.219
Mof_O 	O 	0.0752	0.3675	0.6771	-0.235
Mof_C 	C 	0.0399	0.465	0.8468	-0.045
Mof_C 	C 	0.0182	0.4375	0.047	-0.029
Mof_H 	H 	0.0302	0.3952	0.0825	0.057
Mof_C 	C 	0.0219	0.5292	0.797	-0.036
Mof_H 	H 	0.0368	0.5494	0.6595	0.043
Mof_N 	N 	0.8464	0.7742	0.7957	-0.181
Mof_C 	C 	0.8861	0.7493	0.9522	0.025
Mof_H 	H 	0.87	0.7196	0.0617	0.041
Mof_C 	C 	0.9494	0.7648	0.961	-0.026
Mof_H 	H 	0.976	0.7462	0.0761	0.052
Mof_C 	C 	0.9751	0.809	0.797	-0.11
Mof_H 	H 	0.0185	0.8206	0.8014	0.069
Mof_C 	C 	0.9338	0.8346	0.631	0.126
Mof_C 	C 	0.8693	0.8168	0.6362	-0.051
Mof_H 	H 	0.841	0.8349	0.526	0.074
Mof_N 	N 	0.9599	0.8759	0.4535	-0.238
Mof_H 	H 	0.001	0.8738	0.4302	0.13
Mof_C 	C 	0.9264	0.9185	0.3168	0.218
Mof_O 	O 	0.8675	0.9248	0.3229	-0.235
Mof_C 	C 	0.965	0.9601	0.1532	-0.044
Mof_C 	C 	0.9375	0.9818	0.953	-0.027
Mof_H 	H 	0.8952	0.9698	0.9175	0.057
Mof_C 	C 	0.0292	0.9781	0.203	-0.039
Mof_H 	H 	0.0494	0.9632	0.3405	0.043
Mof_N 	N 	0.6536	0.7258	0.7957	-0.181
Mof_C 	C 	0.6139	0.7507	0.9522	0.024
Mof_H 	H 	0.63	0.7804	0.0617	0.042
Mof_C 	C 	0.5506	0.7352	0.961	-0.024
Mof_H 	H 	0.524	0.7538	0.0761	0.051
Mof_C 	C 	0.5249	0.691	0.797	-0.113
Mof_H 	H 	0.4815	0.6794	0.8014	0.071
Mof_C 	C 	0.5662	0.6654	0.631	0.127
Mof_C 	C 	0.6307	0.6832	0.6362	-0.052
Mof_H 	H 	0.659	0.6651	0.526	0.075
Mof_N 	N 	0.5401	0.6241	0.4535	-0.239
Mof_H 	H 	0.499	0.6262	0.4302	0.131
Mof_C 	C 	0.5736	0.5815	0.3168	0.219
Mof_O 	O 	0.6325	0.5752	0.3229	-0.235
Mof_C 	C 	0.535	0.5399	0.1532	-0.045
Mof_C 	C 	0.5625	0.5182	0.953	-0.029
Mof_H 	H 	0.6048	0.5302	0.9175	0.057
Mof_C 	C 	0.4708	0.5219	0.203	-0.036
Mof_H 	H 	0.4506	0.5368	0.3405	0.043
Mof_N 	N 	0.7258	0.8464	0.7957	-0.181
Mof_C 	C 	0.7507	0.8861	0.9522	0.025
Mof_H 	H 	0.7804	0.87	0.0617	0.041
Mof_C 	C 	0.7352	0.9494	0.961	-0.025
Mof_H 	H 	0.7538	0.976	0.0761	0.052
Mof_C 	C 	0.691	0.9751	0.797	-0.112
Mof_H 	H 	0.6794	0.0185	0.8014	0.07
Mof_C 	C 	0.6654	0.9338	0.631	0.126
Mof_C 	C 	0.6832	0.8693	0.6362	-0.051
Mof_H 	H 	0.6651	0.841	0.526	0.074
Mof_N 	N 	0.6241	0.9599	0.4535	-0.239
Mof_H 	H 	0.6262	0.001	0.4302	0.13
Mof_C 	C 	0.5815	0.9264	0.3168	0.219
Mof_O 	O 	0.5752	0.8675	0.3229	-0.235
Mof_C 	C 	0.5399	0.965	0.1532	-0.045
Mof_C 	C 	0.5182	0.9375	0.953	-0.029
Mof_H 	H 	0.5302	0.8952	0.9175	0.057
Mof_C 	C 	0.5219	0.0292	0.203	-0.036
Mof_H 	H 	0.5368	0.0494	0.3405	0.043
Mof_N 	N 	0.7742	0.6536	0.7957	-0.181
Mof_C 	C 	0.7493	0.6139	0.9522	0.024
Mof_H 	H 	0.7196	0.63	0.0617	0.042
Mof_C 	C 	0.7648	0.5506	0.961	-0.024
Mof_H 	H 	0.7462	0.524	0.0761	0.051
Mof_C 	C 	0.809	0.5249	0.797	-0.113
Mof_H 	H 	0.8206	0.4815	0.8014	0.071
Mof_C 	C 	0.8346	0.5662	0.631	0.127
Mof_C 	C 	0.8168	0.6307	0.6362	-0.052
Mof_H 	H 	0.8349	0.659	0.526	0.075
Mof_N 	N 	0.8759	0.5401	0.4535	-0.239
Mof_H 	H 	0.8738	0.499	0.4302	0.131
Mof_C 	C 	0.9185	0.5736	0.3168	0.219
Mof_O 	O 	0.9248	0.6325	0.3229	-0.235
Mof_C 	C 	0.9601	0.535	0.1532	-0.045
Mof_C 	C 	0.9818	0.5625	0.953	-0.029
Mof_H 	H 	0.9698	0.6048	0.9175	0.057
Mof_C 	C 	0.9781	0.4708	0.203	-0.036
Mof_H 	H 	0.9632	0.4506	0.3405	0.043
Mof_Cu	Cu	0.25	0.25	0.2102	0.89
Mof_Br	Br	0.25	0.25	0.7076	-0.428
Mof_Cu	Cu	0.75	0.75	0.7898	0.89
Mof_Br	Br	0.75	0.75	0.2924	-0.428
_end
