# CIF file generated by openbabel 3.1.0, see https://openbabel.org
data_I
_chemical_name_common 'OFUCAV_clean'
_cell_length_a 9.1602
_cell_length_b 9.1602
_cell_length_c 14.894
_cell_angle_alpha 80.0126
_cell_angle_beta 80.0123
_cell_angle_gamma 115.85
_space_group_name_H-M_alt 'P 1'
_space_group_name_Hall 'P 1'
loop_
    _symmetry_equiv_pos_as_xyz
    x,y,z
loop_
    _atom_site_label
    _atom_site_type_symbol
    _atom_site_fract_x
    _atom_site_fract_y
    _atom_site_fract_z
    _atom_site_occupancy
    Ce1      Ce       0.99050    0.24050    0.01900    1.000
    Ce2      Ce       0.75950    0.00950    0.48100    1.000
    Ce3      Ce       0.00950    0.75950    0.98100    1.000
    Ce4      Ce       0.24050    0.99050    0.51900    1.000
    H1       H        0.56300    0.65920    0.03140    1.000
    H2       H        0.52350    0.63950    0.14040    1.000
    H3       H        0.40560    0.80940    0.03140    1.000
    H4       H        0.33610    0.72010    0.14040    1.000
    H5       H        0.34080    0.43700    0.46860    1.000
    H6       H        0.36050    0.47650    0.35960    1.000
    H7       H        0.19060    0.59440    0.46860    1.000
    H8       H        0.27990    0.66390    0.35960    1.000
    H9       H        0.43700    0.34080    0.96860    1.000
    H10      H        0.47650    0.36050    0.85960    1.000
    H11      H        0.59440    0.19060    0.96860    1.000
    H12      H        0.66390    0.27990    0.85960    1.000
    H13      H        0.65920    0.56300    0.53140    1.000
    H14      H        0.63950    0.52350    0.64040    1.000
    H15      H        0.80940    0.40560    0.53140    1.000
    H16      H        0.72010    0.33610    0.64040    1.000
    C1       C        0.69151    0.87651    0.06238    1.000
    C2       C        0.53920    0.71120    0.07940    1.000
    C3       C        0.24611    0.56111    0.06238    1.000
    C4       C        0.38140    0.70940    0.07940    1.000
    C5       C        0.12349    0.30849    0.43762    1.000
    C6       C        0.28880    0.46080    0.42060    1.000
    C7       C        0.43889    0.75389    0.43762    1.000
    C8       C        0.29060    0.61860    0.42060    1.000
    C9       C        0.30849    0.12349    0.93762    1.000
    C10      C        0.46080    0.28880    0.92060    1.000
    C11      C        0.75389    0.43889    0.93762    1.000
    C12      C        0.61860    0.29060    0.92060    1.000
    C13      C        0.87651    0.69151    0.56238    1.000
    C14      C        0.71120    0.53920    0.57940    1.000
    C15      C        0.56111    0.24611    0.56238    1.000
    C16      C        0.70940    0.38140    0.57940    1.000
    C17      C        0.92490    0.07510    0.25000    1.000
    C18      C        0.82510    0.17490    0.25000    1.000
    C19      C        0.07510    0.92490    0.75000    1.000
    C20      C        0.17490    0.82510    0.75000    1.000
    O1       O        0.98966    0.06760    0.17094    1.000
    O2       O        0.83335    0.88737    0.03288    1.000
    O3       O        0.67918    0.00102    0.07980    1.000
    O4       O        0.83940    0.26146    0.17094    1.000
    O5       O        0.13377    0.57975    0.03288    1.000
    O6       O        0.24102    0.41918    0.07980    1.000
    O7       O        0.93240    0.01034    0.32906    1.000
    O8       O        0.11263    0.16665    0.46712    1.000
    O9       O        0.99898    0.32082    0.42020    1.000
    O10      O        0.73854    0.16060    0.32906    1.000
    O11      O        0.42025    0.86623    0.46712    1.000
    O12      O        0.58082    0.75898    0.42020    1.000
    O13      O        0.01034    0.93240    0.82906    1.000
    O14      O        0.16665    0.11263    0.96712    1.000
    O15      O        0.32082    0.99898    0.92020    1.000
    O16      O        0.16060    0.73854    0.82906    1.000
    O17      O        0.86623    0.42025    0.96712    1.000
    O18      O        0.75898    0.58082    0.92020    1.000
    O19      O        0.06760    0.98966    0.67094    1.000
    O20      O        0.88737    0.83335    0.53288    1.000
    O21      O        0.00102    0.67918    0.57980    1.000
    O22      O        0.26146    0.83940    0.67094    1.000
    O23      O        0.57975    0.13377    0.53288    1.000
    O24      O        0.41918    0.24102    0.57980    1.000
