data_functionalizedCrystal
_audit_creation_method	'EQeq! by Chris Wilmer'
_symmetry_space_group_name_H-M	'P1'
_symmetry_Int_Tables_number	1
_symmetry_cell_setting	triclinic
loop_
_symmetry_equiv_pos_as_xyz
  x,y,z
_cell_length_a	16.642
_cell_length_b	19.545
_cell_length_c	22.6601
_cell_angle_alpha	115.548
_cell_angle_beta	90.6469
_cell_angle_gamma	90
loop_
_atom_site_label
_atom_site_type_symbol
_atom_site_fract_x
_atom_site_fract_y
_atom_site_fract_z
_atom_site_charge
Mof_Cu	Cu	0.14236	0.09817	0.77472	0.874
Mof_Cu	Cu	0.62019	0.0901	0.72996	0.907
Mof_Cu	Cu	0.40258	0.90482	0.74154	0.915
Mof_Cu	Cu	0.35764	0.32345	0.22528	0.875
Mof_Cu	Cu	0.87981	0.36014	0.27004	0.906
Mof_Cu	Cu	0.09742	0.16328	0.25846	0.914
Mof_Cu	Cu	0.85764	0.90183	0.22528	0.873
Mof_Cu	Cu	0.37981	0.9099	0.27004	0.906
Mof_Cu	Cu	0.59742	0.09518	0.25846	0.914
Mof_Cu	Cu	0.64236	0.67655	0.77472	0.874
Mof_Cu	Cu	0.12019	0.63986	0.72996	0.906
Mof_Cu	Cu	0.90258	0.83672	0.74154	0.914
Mof_H 	H 	0.2984	0.842	0.3528	-0.005
Mof_H 	H 	0.2502	0.8801	0.456	0.077
Mof_H 	H 	0.3139	0.0928	0.4954	0.077
Mof_H 	H 	0.3597	0.0476	0.3894	0
Mof_H 	H 	0.1274	0.9699	0.6446	0.015
Mof_H 	H 	0.1705	0.9283	0.5392	0.078
Mof_H 	H 	0.3098	0.1151	0.5998	0.076
Mof_H 	H 	0.2593	0.1512	0.7018	-0.012
Mof_H 	H 	0.2067	0.5643	0.7952	-0.003
Mof_H 	H 	0.2101	0.4559	0.8106	0.077
Mof_H 	H 	0.0042	0.3925	0.7072	0.074
Mof_H 	H 	0.0077	0.5016	0.694	0.002
Mof_H 	H 	0.1737	0.2624	0.8604	-0.012
Mof_H 	H 	0.1688	0.3762	0.8522	0.072
Mof_H 	H 	0.0477	0.2728	0.6826	0.075
Mof_H 	H 	0.0565	0.1626	0.6928	-0.014
Mof_H 	H 	0.0247	0.3612	0.202	-0.003
Mof_H 	H 	0.0839	0.302	0.099	0.072
Mof_H 	H 	0.892	0.1643	0.0378	0.077
Mof_H 	H 	0.8416	0.226	0.1416	-0.003
Mof_H 	H 	0.538	0.8861	0.8158	0.012
Mof_H 	H 	0.5861	0.9297	0.9206	0.076
Mof_H 	H 	0.3754	0.0297	0.9816	0.077
Mof_H 	H 	0.3377	0.9892	0.877	-0.012
Mof_H 	H 	0.198	0.1541	0.914	-0.022
Mof_H 	H 	0.1469	0.2021	0.0172	0.077
Mof_H 	H 	0.9267	0.1675	0.9382	0.081
Mof_H 	H 	0.9838	0.1241	0.8388	-0.016
Mof_H 	H 	0.2352	0.7732	0.6484	0.081
Mof_H 	H 	0.3267	0.752	0.644	0.062
Mof_H 	H 	0.2658	0.885	0.6406	0.069
Mof_H 	H 	0.3011	0.8161	0.58	0.063
Mof_H 	H 	0.4104	0.9407	0.5958	0.144
Mof_H 	H 	0.3488	0.9799	0.6528	0.144
Mof_H 	H 	0.4854	0.8482	0.5864	0.139
Mof_H 	H 	0.4265	0.78	0.571	0.133
Mof_H 	H 	0.3633	0.7587	0.744	0.12
Mof_H 	H 	0.323	0.8149	0.8084	0.114
Mof_H 	H 	0.1786	0.8601	0.734	0.169
Mof_H 	H 	0.2161	0.8871	0.8042	0.142
Mof_H 	H 	0.2016	0.4892	0.6472	-0.005
Mof_H 	H 	0.2498	0.4241	0.544	0.077
Mof_H 	H 	0.1861	0.5974	0.5046	0.076
Mof_H 	H 	0.1403	0.6582	0.6106	0
Mof_H 	H 	0.3726	0.3253	0.3554	0.015
Mof_H 	H 	0.3295	0.3891	0.4608	0.078
Mof_H 	H 	0.1902	0.5153	0.4002	0.076
Mof_H 	H 	0.2407	0.4494	0.2982	-0.012
Mof_H 	H 	0.2933	0.7691	0.2048	-0.003
Mof_H 	H 	0.2899	0.6453	0.1894	0.077
Mof_H 	H 	0.4958	0.6853	0.2928	0.074
Mof_H 	H 	0.4923	0.8076	0.306	0.003
Mof_H 	H 	0.3263	0.402	0.1396	-0.012
Mof_H 	H 	0.3312	0.524	0.1478	0.072
Mof_H 	H 	0.4523	0.5902	0.3174	0.075
Mof_H 	H 	0.4435	0.4698	0.3072	-0.014
Mof_H 	H 	0.4753	0.1592	0.798	-0.004
Mof_H 	H 	0.4161	0.203	0.901	0.072
Mof_H 	H 	0.608	0.1265	0.9622	0.077
Mof_H 	H 	0.6584	0.0844	0.8584	-0.003
Mof_H 	H 	0.962	0.0703	0.1842	0.012
Mof_H 	H 	0.9139	0.0091	0.0794	0.076
Mof_H 	H 	0.1246	0.0481	0.0184	0.077
Mof_H 	H 	0.1623	0.1122	0.123	-0.012
Mof_H 	H 	0.302	0.2401	0.086	-0.022
Mof_H 	H 	0.3531	0.1849	0.9828	0.076
Mof_H 	H 	0.5733	0.2293	0.0618	0.083
Mof_H 	H 	0.5162	0.2853	0.1612	-0.018
Mof_H 	H 	0.2648	0.1248	0.3516	0.081
Mof_H 	H 	0.1733	0.108	0.356	0.062
Mof_H 	H 	0.2342	0.2444	0.3594	0.069
Mof_H 	H 	0.1989	0.2361	0.42	0.063
Mof_H 	H 	0.0896	0.3449	0.4042	0.144
Mof_H 	H 	0.1512	0.3271	0.3472	0.144
Mof_H 	H 	0.0146	0.2618	0.4136	0.139
Mof_H 	H 	0.0735	0.209	0.429	0.133
Mof_H 	H 	0.1367	0.0147	0.256	0.12
Mof_H 	H 	0.177	0.0065	0.1916	0.114
Mof_H 	H 	0.3214	0.1261	0.266	0.169
Mof_H 	H 	0.2839	0.0829	0.1958	0.142
Mof_H 	H 	0.7016	0.158	0.6472	-0.005
Mof_H 	H 	0.7498	0.1199	0.544	0.077
Mof_H 	H 	0.6861	0.9072	0.5046	0.077
Mof_H 	H 	0.6403	0.9524	0.6106	0
Mof_H 	H 	0.8726	0.0301	0.3554	0.015
Mof_H 	H 	0.8295	0.0717	0.4608	0.078
Mof_H 	H 	0.6902	0.8849	0.4002	0.076
Mof_H 	H 	0.7407	0.8488	0.2982	-0.012
Mof_H 	H 	0.7933	0.4357	0.2048	-0.003
Mof_H 	H 	0.7899	0.5441	0.1894	0.077
Mof_H 	H 	0.9958	0.6075	0.2928	0.074
Mof_H 	H 	0.9923	0.4984	0.306	0.002
Mof_H 	H 	0.8263	0.7376	0.1396	-0.012
Mof_H 	H 	0.8312	0.6238	0.1478	0.072
Mof_H 	H 	0.9523	0.7272	0.3174	0.075
Mof_H 	H 	0.9435	0.8374	0.3072	-0.014
Mof_H 	H 	0.9753	0.6388	0.798	-0.003
Mof_H 	H 	0.9161	0.698	0.901	0.072
Mof_H 	H 	0.108	0.8357	0.9622	0.077
Mof_H 	H 	0.1584	0.774	0.8584	-0.003
Mof_H 	H 	0.462	0.1139	0.1842	0.012
Mof_H 	H 	0.4139	0.0703	0.0794	0.076
Mof_H 	H 	0.6246	0.9703	0.0184	0.077
Mof_H 	H 	0.6623	0.0108	0.123	-0.012
Mof_H 	H 	0.802	0.8459	0.086	-0.022
Mof_H 	H 	0.8531	0.7979	0.9828	0.077
Mof_H 	H 	0.0733	0.8325	0.0618	0.081
Mof_H 	H 	0.0162	0.8759	0.1612	-0.016
Mof_H 	H 	0.7648	0.2268	0.3516	0.081
Mof_H 	H 	0.6733	0.248	0.356	0.062
Mof_H 	H 	0.7342	0.115	0.3594	0.069
Mof_H 	H 	0.6989	0.1839	0.42	0.063
Mof_H 	H 	0.5896	0.0593	0.4042	0.144
Mof_H 	H 	0.6512	0.0201	0.3472	0.144
Mof_H 	H 	0.5146	0.1518	0.4136	0.139
Mof_H 	H 	0.5735	0.22	0.429	0.133
Mof_H 	H 	0.6367	0.2413	0.256	0.12
Mof_H 	H 	0.677	0.1851	0.1916	0.114
Mof_H 	H 	0.8214	0.1399	0.266	0.169
Mof_H 	H 	0.7839	0.1129	0.1958	0.142
Mof_H 	H 	0.7984	0.5108	0.3528	-0.005
Mof_H 	H 	0.7502	0.5759	0.456	0.077
Mof_H 	H 	0.8139	0.4026	0.4954	0.076
Mof_H 	H 	0.8597	0.3418	0.3894	0
Mof_H 	H 	0.6274	0.6747	0.6446	0.015
Mof_H 	H 	0.6705	0.6109	0.5392	0.078
Mof_H 	H 	0.8098	0.4847	0.5998	0.076
Mof_H 	H 	0.7593	0.5506	0.7018	-0.012
Mof_H 	H 	0.7067	0.2309	0.7952	-0.003
Mof_H 	H 	0.7101	0.3547	0.8106	0.077
Mof_H 	H 	0.5042	0.3147	0.7072	0.074
Mof_H 	H 	0.5077	0.1924	0.694	0.003
Mof_H 	H 	0.6737	0.598	0.8604	-0.012
Mof_H 	H 	0.6688	0.476	0.8522	0.072
Mof_H 	H 	0.5477	0.4098	0.6826	0.075
Mof_H 	H 	0.5565	0.5302	0.6928	-0.014
Mof_H 	H 	0.5247	0.8408	0.202	-0.004
Mof_H 	H 	0.5839	0.797	0.099	0.072
Mof_H 	H 	0.392	0.8735	0.0378	0.077
Mof_H 	H 	0.3416	0.9156	0.1416	-0.003
Mof_H 	H 	0.038	0.9297	0.8158	0.012
Mof_H 	H 	0.0861	0.9909	0.9206	0.076
Mof_H 	H 	0.8754	0.9519	0.9816	0.077
Mof_H 	H 	0.8377	0.8878	0.877	-0.012
Mof_H 	H 	0.698	0.7599	0.914	-0.022
Mof_H 	H 	0.6469	0.8151	0.0172	0.076
Mof_H 	H 	0.4267	0.7707	0.9382	0.083
Mof_H 	H 	0.4838	0.7147	0.8388	-0.018
Mof_H 	H 	0.7352	0.8752	0.6484	0.081
Mof_H 	H 	0.8267	0.892	0.644	0.062
Mof_H 	H 	0.7658	0.7556	0.6406	0.069
Mof_H 	H 	0.8011	0.7639	0.58	0.063
Mof_H 	H 	0.9104	0.6551	0.5958	0.144
Mof_H 	H 	0.8488	0.6729	0.6528	0.144
Mof_H 	H 	0.9854	0.7382	0.5864	0.139
Mof_H 	H 	0.9265	0.791	0.571	0.133
Mof_H 	H 	0.8633	0.9853	0.744	0.12
Mof_H 	H 	0.823	0.9935	0.8084	0.114
Mof_H 	H 	0.6786	0.8739	0.734	0.169
Mof_H 	H 	0.7161	0.9171	0.8042	0.142
Mof_C 	C 	0.3015	0.8931	0.3818	0.087
Mof_C 	C 	0.2723	0.9157	0.4438	-0.145
Mof_C 	C 	0.2757	0.99079	0.48798	0.063
Mof_C 	C 	0.3098	0.04146	0.46732	-0.142
Mof_C 	C 	0.3375	0.0135	0.4034	0.087
Mof_C 	C 	0.164	0.99959	0.63498	0.069
Mof_C 	C 	0.1895	0.97416	0.57152	-0.129
Mof_C 	C 	0.2444	0.0181	0.556	0.046
Mof_C 	C 	0.2717	0.0849	0.6072	-0.138
Mof_C 	C 	0.2419	0.10557	0.66834	0.078
Mof_C 	C 	0.1656	0.5289	0.7772	0.08
Mof_C 	C 	0.1683	0.4639	0.7868	-0.138
Mof_C 	C 	0.1073	0.41031	0.76002	0.056
Mof_C 	C 	0.0465	0.4266	0.7254	-0.135
Mof_C 	C 	0.0485	0.492	0.7178	0.073
Mof_C 	C 	0.1496	0.2645	0.824	0.061
Mof_C 	C 	0.1458	0.3333	0.8192	-0.128
Mof_C 	C 	0.1092	0.33924	0.76728	0.05
Mof_C 	C 	0.0742	0.2719	0.7186	-0.135
Mof_C 	C 	0.08	0.2062	0.725	0.079
Mof_C 	C 	0.9978	0.32145	0.1685	0.082
Mof_C 	C 	0.0341	0.2854	0.106	-0.131
Mof_C 	C 	0.996	0.2272	0.057	0.057
Mof_C 	C 	0.9206	0.2039	0.07	-0.137
Mof_C 	C 	0.8906	0.2421	0.1326	0.093
Mof_C 	C 	0.5054	0.9173	0.8498	0.081
Mof_C 	C 	0.5343	0.9424	0.913	-0.134
Mof_C 	C 	0.4865	0.9863	0.9652	0.061
Mof_C 	C 	0.4112	0.0017	0.9488	-0.151
Mof_C 	C 	0.3889	0.9765	0.8858	0.096
Mof_C 	C 	0.1426	0.1574	0.9192	0.085
Mof_C 	C 	0.1119	0.1863	0.9814	-0.149
Mof_C 	C 	0.0309	0.1923	0.9914	0.062
Mof_C 	C 	0.9824	0.1664	0.935	-0.144
Mof_C 	C 	0.0174	0.1395	0.8754	0.091
Mof_C 	C 	0.2891	0.79392	0.65964	-0.105
Mof_C 	C 	0.3054	0.84489	0.62718	-0.105
Mof_C 	C 	0.3977	0.95032	0.64044	-0.343
Mof_C 	C 	0.4663	0.99349	0.68638	0.391
Mof_C 	C 	0.4518	0.8234	0.6062	-0.333
Mof_C 	C 	0.5044	0.7956	0.6456	0.383
Mof_C 	C 	0.3135	0.78463	0.76206	-0.294
Mof_C 	C 	0.2515	0.72443	0.75506	0.376
Mof_C 	C 	0.2251	0.8846	0.761	-0.341
Mof_C 	C 	0.2317	0.96506	0.76692	0.402
Mof_C 	C 	0.1985	0.5113	0.6182	0.087
Mof_C 	C 	0.2277	0.4719	0.5562	-0.145
Mof_C 	C 	0.2243	0.50281	0.51202	0.062
Mof_C 	C 	0.1902	0.57414	0.53268	-0.141
Mof_C 	C 	0.1625	0.6101	0.5966	0.087
Mof_C 	C 	0.336	0.36461	0.36502	0.069
Mof_C 	C 	0.3105	0.40264	0.42848	-0.13
Mof_C 	C 	0.2556	0.4621	0.444	0.047
Mof_C 	C 	0.2283	0.4777	0.3928	-0.138
Mof_C 	C 	0.2581	0.43723	0.33166	0.079
Mof_C 	C 	0.3344	0.7517	0.2228	0.081
Mof_C 	C 	0.3317	0.6771	0.2132	-0.138
Mof_C 	C 	0.3927	0.65029	0.23998	0.056
Mof_C 	C 	0.4535	0.7012	0.2746	-0.135
Mof_C 	C 	0.4515	0.7742	0.2822	0.073
Mof_C 	C 	0.3504	0.4405	0.176	0.062
Mof_C 	C 	0.3542	0.5141	0.1808	-0.128
Mof_C 	C 	0.3908	0.57196	0.23272	0.05
Mof_C 	C 	0.4258	0.5533	0.2814	-0.135
Mof_C 	C 	0.42	0.4812	0.275	0.079
Mof_C 	C 	0.5022	0.15295	0.8315	0.083
Mof_C 	C 	0.4659	0.1794	0.894	-0.132
Mof_C 	C 	0.504	0.1702	0.943	0.056
Mof_C 	C 	0.5794	0.1339	0.93	-0.137
Mof_C 	C 	0.6094	0.1095	0.8674	0.093
Mof_C 	C 	0.9946	0.0675	0.1502	0.081
Mof_C 	C 	0.9657	0.0294	0.087	-0.134
Mof_C 	C 	0.0135	0.0211	0.0348	0.061
Mof_C 	C 	0.0888	0.0529	0.0512	-0.15
Mof_C 	C 	0.1111	0.0907	0.1142	0.095
Mof_C 	C 	0.3574	0.2382	0.0808	0.085
Mof_C 	C 	0.3881	0.2049	0.0186	-0.148
Mof_C 	C 	0.4691	0.2009	0.0086	0.065
Mof_C 	C 	0.5176	0.2314	0.065	-0.149
Mof_C 	C 	0.4826	0.2641	0.1246	0.096
Mof_C 	C 	0.2109	0.13428	0.34036	-0.105
Mof_C 	C 	0.1946	0.21771	0.37282	-0.105
Mof_C 	C 	0.1023	0.30988	0.35956	-0.343
Mof_C 	C 	0.0337	0.30711	0.31362	0.391
Mof_C 	C 	0.0482	0.2172	0.3938	-0.334
Mof_C 	C 	0.9956	0.15	0.3544	0.383
Mof_C 	C 	0.1865	0.02257	0.23794	-0.294
Mof_C 	C 	0.2485	0.96937	0.24494	0.376
Mof_C 	C 	0.2749	0.1236	0.239	-0.341
Mof_C 	C 	0.2683	0.19814	0.23308	0.402
Mof_C 	C 	0.6985	0.1069	0.6182	0.087
Mof_C 	C 	0.7277	0.0843	0.5562	-0.145
Mof_C 	C 	0.7243	0.00921	0.51202	0.063
Mof_C 	C 	0.6902	0.95854	0.53268	-0.142
Mof_C 	C 	0.6625	0.9865	0.5966	0.087
Mof_C 	C 	0.836	0.00041	0.36502	0.069
Mof_C 	C 	0.8105	0.02584	0.42848	-0.129
Mof_C 	C 	0.7556	0.9819	0.444	0.046
Mof_C 	C 	0.7283	0.9151	0.3928	-0.138
Mof_C 	C 	0.7581	0.89443	0.33166	0.078
Mof_C 	C 	0.8344	0.4711	0.2228	0.08
Mof_C 	C 	0.8317	0.5361	0.2132	-0.138
Mof_C 	C 	0.8927	0.58969	0.23998	0.056
Mof_C 	C 	0.9535	0.5734	0.2746	-0.135
Mof_C 	C 	0.9515	0.508	0.2822	0.073
Mof_C 	C 	0.8504	0.7355	0.176	0.061
Mof_C 	C 	0.8542	0.6667	0.1808	-0.128
Mof_C 	C 	0.8908	0.66076	0.23272	0.05
Mof_C 	C 	0.9258	0.7281	0.2814	-0.135
Mof_C 	C 	0.92	0.7938	0.275	0.079
Mof_C 	C 	0.0022	0.67855	0.8315	0.082
Mof_C 	C 	0.9659	0.7146	0.894	-0.131
Mof_C 	C 	0.004	0.7728	0.943	0.057
Mof_C 	C 	0.0794	0.7961	0.93	-0.137
Mof_C 	C 	0.1094	0.7579	0.8674	0.093
Mof_C 	C 	0.4946	0.0827	0.1502	0.081
Mof_C 	C 	0.4657	0.0576	0.087	-0.134
Mof_C 	C 	0.5135	0.0137	0.0348	0.061
Mof_C 	C 	0.5888	0.9983	0.0512	-0.151
Mof_C 	C 	0.6111	0.0235	0.1142	0.096
Mof_C 	C 	0.8574	0.8426	0.0808	0.085
Mof_C 	C 	0.8881	0.8137	0.0186	-0.149
Mof_C 	C 	0.9691	0.8077	0.0086	0.062
Mof_C 	C 	0.0176	0.8336	0.065	-0.144
Mof_C 	C 	0.9826	0.8605	0.1246	0.091
Mof_C 	C 	0.7109	0.20608	0.34036	-0.105
Mof_C 	C 	0.6946	0.15511	0.37282	-0.105
Mof_C 	C 	0.6023	0.04968	0.35956	-0.343
Mof_C 	C 	0.5337	0.00651	0.31362	0.391
Mof_C 	C 	0.5482	0.1766	0.3938	-0.333
Mof_C 	C 	0.4956	0.2044	0.3544	0.383
Mof_C 	C 	0.6865	0.21537	0.23794	-0.294
Mof_C 	C 	0.7485	0.27557	0.24494	0.376
Mof_C 	C 	0.7749	0.1154	0.239	-0.341
Mof_C 	C 	0.7683	0.03494	0.23308	0.402
Mof_C 	C 	0.8015	0.4887	0.3818	0.087
Mof_C 	C 	0.7723	0.5281	0.4438	-0.145
Mof_C 	C 	0.7757	0.49719	0.48798	0.062
Mof_C 	C 	0.8098	0.42586	0.46732	-0.141
Mof_C 	C 	0.8375	0.3899	0.4034	0.087
Mof_C 	C 	0.664	0.63539	0.63498	0.069
Mof_C 	C 	0.6895	0.59736	0.57152	-0.13
Mof_C 	C 	0.7444	0.5379	0.556	0.047
Mof_C 	C 	0.7717	0.5223	0.6072	-0.138
Mof_C 	C 	0.7419	0.56277	0.66834	0.079
Mof_C 	C 	0.6656	0.2483	0.7772	0.081
Mof_C 	C 	0.6683	0.3229	0.7868	-0.138
Mof_C 	C 	0.6073	0.34971	0.76002	0.056
Mof_C 	C 	0.5465	0.2988	0.7254	-0.135
Mof_C 	C 	0.5485	0.2258	0.7178	0.073
Mof_C 	C 	0.6496	0.5595	0.824	0.062
Mof_C 	C 	0.6458	0.4859	0.8192	-0.128
Mof_C 	C 	0.6092	0.42804	0.76728	0.05
Mof_C 	C 	0.5742	0.4467	0.7186	-0.135
Mof_C 	C 	0.58	0.5188	0.725	0.079
Mof_C 	C 	0.4978	0.84705	0.1685	0.083
Mof_C 	C 	0.5341	0.8206	0.106	-0.132
Mof_C 	C 	0.496	0.8298	0.057	0.056
Mof_C 	C 	0.4206	0.8661	0.07	-0.137
Mof_C 	C 	0.3906	0.8905	0.1326	0.093
Mof_C 	C 	0.0054	0.9325	0.8498	0.081
Mof_C 	C 	0.0343	0.9706	0.913	-0.134
Mof_C 	C 	0.9865	0.9789	0.9652	0.061
Mof_C 	C 	0.9112	0.9471	0.9488	-0.15
Mof_C 	C 	0.8889	0.9093	0.8858	0.095
Mof_C 	C 	0.6426	0.7618	0.9192	0.085
Mof_C 	C 	0.6119	0.7951	0.9814	-0.148
Mof_C 	C 	0.5309	0.7991	0.9914	0.065
Mof_C 	C 	0.4824	0.7686	0.935	-0.149
Mof_C 	C 	0.5174	0.7359	0.8754	0.096
Mof_C 	C 	0.7891	0.86572	0.65964	-0.105
Mof_C 	C 	0.8054	0.78229	0.62718	-0.105
Mof_C 	C 	0.8977	0.69012	0.64044	-0.343
Mof_C 	C 	0.9663	0.69289	0.68638	0.391
Mof_C 	C 	0.9518	0.7828	0.6062	-0.334
Mof_C 	C 	0.0044	0.85	0.6456	0.383
Mof_C 	C 	0.8135	0.97743	0.76206	-0.294
Mof_C 	C 	0.7515	0.03063	0.75506	0.376
Mof_C 	C 	0.7251	0.8764	0.761	-0.341
Mof_C 	C 	0.7317	0.80186	0.76692	0.402
Mof_N 	N 	0.334	0.94127	0.36154	-0.217
Mof_N 	N 	0.1888	0.0636	0.6826	-0.227
Mof_N 	N 	0.1086	0.54371	0.74422	-0.223
Mof_N 	N 	0.1178	0.20071	0.77542	-0.232
Mof_N 	N 	0.9271	0.29978	0.17996	-0.217
Mof_N 	N 	0.434	0.93516	0.83512	-0.226
Mof_N 	N 	0.0958	0.13366	0.86572	-0.233
Mof_N 	N 	0.3867	0.87817	0.64514	-0.096
Mof_N 	N 	0.2974	0.83716	0.73252	-0.089
Mof_N 	N 	0.166	0.57973	0.63846	-0.217
Mof_N 	N 	0.3112	0.381	0.3174	-0.227
Mof_N 	N 	0.3914	0.79949	0.25578	-0.223
Mof_N 	N 	0.3822	0.42529	0.22458	-0.232
Mof_N 	N 	0.5729	0.11982	0.82004	-0.217
Mof_N 	N 	0.066	0.10004	0.16488	-0.226
Mof_N 	N 	0.4042	0.26794	0.13428	-0.234
Mof_N 	N 	0.1133	0.23303	0.35486	-0.096
Mof_N 	N 	0.2026	0.10464	0.26748	-0.089
Mof_N 	N 	0.666	0.05873	0.63846	-0.217
Mof_N 	N 	0.8112	0.9364	0.3174	-0.227
Mof_N 	N 	0.8914	0.45629	0.25578	-0.223
Mof_N 	N 	0.8822	0.79929	0.22458	-0.232
Mof_N 	N 	0.0729	0.70022	0.82004	-0.217
Mof_N 	N 	0.566	0.06484	0.16488	-0.226
Mof_N 	N 	0.9042	0.86634	0.13428	-0.233
Mof_N 	N 	0.6133	0.12183	0.35486	-0.096
Mof_N 	N 	0.7026	0.16284	0.26748	-0.089
Mof_N 	N 	0.834	0.42027	0.36154	-0.217
Mof_N 	N 	0.6888	0.619	0.6826	-0.227
Mof_N 	N 	0.6086	0.20051	0.74422	-0.223
Mof_N 	N 	0.6178	0.57471	0.77542	-0.232
Mof_N 	N 	0.4271	0.88018	0.17996	-0.217
Mof_N 	N 	0.934	0.89996	0.83512	-0.226
Mof_N 	N 	0.5958	0.73206	0.86572	-0.234
Mof_N 	N 	0.8867	0.76697	0.64514	-0.096
Mof_N 	N 	0.7974	0.89536	0.73252	-0.089
Mof_O 	O 	0.4815	0.97701	0.73342	-0.395
Mof_O 	O 	0.503	0.04406	0.67692	-0.369
Mof_O 	O 	0.484	0.80579	0.70178	-0.367
Mof_O 	O 	0.5688	0.7666	0.62	-0.284
Mof_O 	O 	0.1817	0.72943	0.73426	-0.388
Mof_O 	O 	0.2705	0.67474	0.77188	-0.335
Mof_O 	O 	0.2994	0.99206	0.76512	-0.384
Mof_O 	O 	0.1657	0.999	0.7756	-0.418
Mof_O 	O 	0.0185	0.24359	0.26658	-0.395
Mof_O 	O 	0.997	0.36714	0.32308	-0.369
Mof_O 	O 	0.016	0.10401	0.29822	-0.368
Mof_O 	O 	0.9312	0.1466	0.38	-0.284
Mof_O 	O 	0.3183	0.99517	0.26574	-0.388
Mof_O 	O 	0.2295	0.90286	0.22812	-0.335
Mof_O 	O 	0.2006	0.22694	0.23488	-0.384
Mof_O 	O 	0.3343	0.2234	0.2244	-0.418
Mof_O 	O 	0.5185	0.02299	0.26658	-0.395
Mof_O 	O 	0.497	0.95594	0.32308	-0.369
Mof_O 	O 	0.516	0.19421	0.29822	-0.367
Mof_O 	O 	0.4312	0.2334	0.38	-0.284
Mof_O 	O 	0.8183	0.27057	0.26574	-0.388
Mof_O 	O 	0.7295	0.32526	0.22812	-0.335
Mof_O 	O 	0.7006	0.00794	0.23488	-0.384
Mof_O 	O 	0.8343	0.001	0.2244	-0.418
Mof_O 	O 	0.9815	0.75641	0.73342	-0.395
Mof_O 	O 	0.003	0.63286	0.67692	-0.369
Mof_O 	O 	0.984	0.89599	0.70178	-0.368
Mof_O 	O 	0.0688	0.8534	0.62	-0.284
Mof_O 	O 	0.6817	0.00483	0.73426	-0.388
Mof_O 	O 	0.7705	0.09714	0.77188	-0.335
Mof_O 	O 	0.7994	0.77306	0.76512	-0.384
Mof_O 	O 	0.6657	0.7766	0.7756	-0.418
_end
