# CIF file generated by openbabel 3.1.0, see https://openbabel.org
data_I
_chemical_name_common 'ECODEG_clean'
_cell_length_a 12.181
_cell_length_b 15.354
_cell_length_c 18.785
_cell_angle_alpha 90
_cell_angle_beta 90
_cell_angle_gamma 90
_space_group_name_H-M_alt 'P 1'
_space_group_name_Hall 'P 1'
loop_
    _symmetry_equiv_pos_as_xyz
    x,y,z
loop_
    _atom_site_label
    _atom_site_type_symbol
    _atom_site_fract_x
    _atom_site_fract_y
    _atom_site_fract_z
    _atom_site_occupancy
    Cd1      Cd       0.69302    0.78414    0.18403    1.000
    Cd2      Cd       0.80698    0.21586    0.68403    1.000
    Cd3      Cd       0.30698    0.28414    0.31597    1.000
    Cd4      Cd       0.19302    0.71586    0.81597    1.000
    H1       H        0.51770    0.70550    0.29360    1.000
    H2       H        0.42060    0.58210    0.32270    1.000
    H3       H        0.60270    0.44970    0.18260    1.000
    H4       H        0.69390    0.57630    0.15720    1.000
    H5       H        0.50330    0.88390    0.09510    1.000
    H6       H        0.38770    0.87320    0.99970    1.000
    H7       H        0.54450    0.65670    0.94220    1.000
    H8       H        0.66090    0.67690    0.03600    1.000
    H9       H        0.98230    0.29450    0.79360    1.000
    H10      H        0.07940    0.41790    0.82270    1.000
    H11      H        0.89730    0.55030    0.68260    1.000
    H12      H        0.80610    0.42370    0.65720    1.000
    H13      H        0.99670    0.11610    0.59510    1.000
    H14      H        0.11230    0.12680    0.49970    1.000
    H15      H        0.95550    0.34330    0.44220    1.000
    H16      H        0.83910    0.32310    0.53600    1.000
    H17      H        0.48230    0.20550    0.20640    1.000
    H18      H        0.57940    0.08210    0.17730    1.000
    H19      H        0.39730    0.94970    0.31740    1.000
    H20      H        0.30610    0.07630    0.34280    1.000
    H21      H        0.49670    0.38390    0.40490    1.000
    H22      H        0.61230    0.37320    0.50030    1.000
    H23      H        0.45550    0.15670    0.55780    1.000
    H24      H        0.33910    0.17690    0.46400    1.000
    H25      H        0.01770    0.79450    0.70640    1.000
    H26      H        0.92060    0.91790    0.67730    1.000
    H27      H        0.10270    0.05030    0.81740    1.000
    H28      H        0.19390    0.92370    0.84280    1.000
    H29      H        0.00330    0.61610    0.90490    1.000
    H30      H        0.88770    0.62680    0.00030    1.000
    H31      H        0.04450    0.84330    0.05780    1.000
    H32      H        0.16090    0.82310    0.96400    1.000
    C1       C        0.53440    0.65360    0.27040    1.000
    C2       C        0.47540    0.57970    0.28820    1.000
    C3       C        0.49910    0.50300    0.25430    1.000
    C4       C        0.58320    0.50130    0.20520    1.000
    C5       C        0.63750    0.57750    0.19050    1.000
    C6       C        0.43540    0.42180    0.27280    1.000
    C7       C        0.51150    0.83740    0.06390    1.000
    C8       C        0.44120    0.83090    0.00690    1.000
    C9       C        0.44970    0.76240    0.96080    1.000
    C10      C        0.53440    0.70380    0.97270    1.000
    C11      C        0.60300    0.71560    0.02960    1.000
    C12      C        0.36620    0.74760    0.90370    1.000
    C13      C        0.96560    0.34640    0.77040    1.000
    C14      C        0.02460    0.42030    0.78820    1.000
    C15      C        0.00090    0.49700    0.75430    1.000
    C16      C        0.91680    0.49870    0.70520    1.000
    C17      C        0.86250    0.42250    0.69050    1.000
    C18      C        0.06460    0.57820    0.77280    1.000
    C19      C        0.98850    0.16260    0.56390    1.000
    C20      C        0.05880    0.16910    0.50690    1.000
    C21      C        0.05030    0.23760    0.46080    1.000
    C22      C        0.96560    0.29620    0.47270    1.000
    C23      C        0.89700    0.28440    0.52960    1.000
    C24      C        0.13380    0.25240    0.40370    1.000
    C25      C        0.46560    0.15360    0.22960    1.000
    C26      C        0.52460    0.07970    0.21180    1.000
    C27      C        0.50090    0.00300    0.24570    1.000
    C28      C        0.41680    0.00130    0.29480    1.000
    C29      C        0.36250    0.07750    0.30950    1.000
    C30      C        0.56460    0.92180    0.22720    1.000
    C31      C        0.48850    0.33740    0.43610    1.000
    C32      C        0.55880    0.33090    0.49310    1.000
    C33      C        0.55030    0.26240    0.53920    1.000
    C34      C        0.46560    0.20380    0.52730    1.000
    C35      C        0.39700    0.21560    0.47040    1.000
    C36      C        0.63380    0.24760    0.59630    1.000
    C37      C        0.03440    0.84640    0.72960    1.000
    C38      C        0.97540    0.92030    0.71180    1.000
    C39      C        0.99910    0.99700    0.74570    1.000
    C40      C        0.08320    0.99870    0.79480    1.000
    C41      C        0.13750    0.92250    0.80950    1.000
    C42      C        0.93540    0.07820    0.72720    1.000
    C43      C        0.01150    0.66260    0.93610    1.000
    C44      C        0.94120    0.66910    0.99310    1.000
    C45      C        0.94970    0.73760    0.03920    1.000
    C46      C        0.03440    0.79620    0.02730    1.000
    C47      C        0.10300    0.78440    0.97040    1.000
    C48      C        0.86620    0.75240    0.09630    1.000
    N1       N        0.61340    0.65410    0.22190    1.000
    N2       N        0.59060    0.78000    0.07600    1.000
    N3       N        0.88660    0.34590    0.72190    1.000
    N4       N        0.90940    0.22000    0.57600    1.000
    N5       N        0.38660    0.15410    0.27810    1.000
    N6       N        0.40940    0.28000    0.42400    1.000
    N7       N        0.11340    0.84590    0.77810    1.000
    N8       N        0.09060    0.72000    0.92400    1.000
    O1       O        0.47360    0.34890    0.25740    1.000
    O2       O        0.34580    0.43170    0.30530    1.000
    O3       O        0.35040    0.67120    0.88260    1.000
    O4       O        0.31200    0.81140    0.88330    1.000
    O5       O        0.02640    0.65110    0.75740    1.000
    O6       O        0.15420    0.56830    0.80530    1.000
    O7       O        0.14960    0.32880    0.38260    1.000
    O8       O        0.18800    0.18860    0.38330    1.000
    O9       O        0.52640    0.84890    0.24260    1.000
    O10      O        0.65420    0.93170    0.19470    1.000
    O11      O        0.64960    0.17120    0.61740    1.000
    O12      O        0.68800    0.31140    0.61670    1.000
    O13      O        0.97360    0.15110    0.74260    1.000
    O14      O        0.84580    0.06830    0.69470    1.000
    O15      O        0.85040    0.82880    0.11740    1.000
    O16      O        0.81200    0.68860    0.11670    1.000
    Cd5      Cd       0.30698    0.21586    0.81597    1.000
    Cd6      Cd       0.19302    0.78414    0.31597    1.000
    Cd7      Cd       0.69302    0.71586    0.68403    1.000
    Cd8      Cd       0.80698    0.28414    0.18403    1.000
    H33      H        0.48230    0.29450    0.70640    1.000
    H34      H        0.57940    0.41790    0.67730    1.000
    H35      H        0.39730    0.55030    0.81740    1.000
    H36      H        0.30610    0.42370    0.84280    1.000
    H37      H        0.49670    0.11610    0.90490    1.000
    H38      H        0.61230    0.12680    0.00030    1.000
    H39      H        0.45550    0.34330    0.05780    1.000
    H40      H        0.33910    0.32310    0.96400    1.000
    H41      H        0.01770    0.70550    0.20640    1.000
    H42      H        0.92060    0.58210    0.17730    1.000
    H43      H        0.10270    0.44970    0.31740    1.000
    H44      H        0.19390    0.57630    0.34280    1.000
    H45      H        0.00330    0.88390    0.40490    1.000
    H46      H        0.88770    0.87320    0.50030    1.000
    H47      H        0.04450    0.65670    0.55780    1.000
    H48      H        0.16090    0.67690    0.46400    1.000
    H49      H        0.51770    0.79450    0.79360    1.000
    H50      H        0.42060    0.91790    0.82270    1.000
    H51      H        0.60270    0.05030    0.68260    1.000
    H52      H        0.69390    0.92370    0.65720    1.000
    H53      H        0.50330    0.61610    0.59510    1.000
    H54      H        0.38770    0.62680    0.49970    1.000
    H55      H        0.54450    0.84330    0.44220    1.000
    H56      H        0.66090    0.82310    0.53600    1.000
    H57      H        0.98230    0.20550    0.29360    1.000
    H58      H        0.07940    0.08210    0.32270    1.000
    H59      H        0.89730    0.94970    0.18260    1.000
    H60      H        0.80610    0.07630    0.15720    1.000
    H61      H        0.99670    0.38390    0.09510    1.000
    H62      H        0.11230    0.37320    0.99970    1.000
    H63      H        0.95550    0.15670    0.94220    1.000
    H64      H        0.83910    0.17690    0.03600    1.000
    C49      C        0.46560    0.34640    0.72960    1.000
    C50      C        0.52460    0.42030    0.71180    1.000
    C51      C        0.50090    0.49700    0.74570    1.000
    C52      C        0.41680    0.49870    0.79480    1.000
    C53      C        0.36250    0.42250    0.80950    1.000
    C54      C        0.56460    0.57820    0.72720    1.000
    C55      C        0.48850    0.16260    0.93610    1.000
    C56      C        0.55880    0.16910    0.99310    1.000
    C57      C        0.55030    0.23760    0.03920    1.000
    C58      C        0.46560    0.29620    0.02730    1.000
    C59      C        0.39700    0.28440    0.97040    1.000
    C60      C        0.63380    0.25240    0.09630    1.000
    C61      C        0.03440    0.65360    0.22960    1.000
    C62      C        0.97540    0.57970    0.21180    1.000
    C63      C        0.99910    0.50300    0.24570    1.000
    C64      C        0.08320    0.50130    0.29480    1.000
    C65      C        0.13750    0.57750    0.30950    1.000
    C66      C        0.93540    0.42180    0.22720    1.000
    C67      C        0.01150    0.83740    0.43610    1.000
    C68      C        0.94120    0.83090    0.49310    1.000
    C69      C        0.94970    0.76240    0.53920    1.000
    C70      C        0.03440    0.70380    0.52730    1.000
    C71      C        0.10300    0.71560    0.47040    1.000
    C72      C        0.86620    0.74760    0.59630    1.000
    C73      C        0.53440    0.84640    0.77040    1.000
    C74      C        0.47540    0.92030    0.78820    1.000
    C75      C        0.49910    0.99700    0.75430    1.000
    C76      C        0.58320    0.99870    0.70520    1.000
    C77      C        0.63750    0.92250    0.69050    1.000
    C78      C        0.43540    0.07820    0.77280    1.000
    C79      C        0.51150    0.66260    0.56390    1.000
    C80      C        0.44120    0.66910    0.50690    1.000
    C81      C        0.44970    0.73760    0.46080    1.000
    C82      C        0.53440    0.79620    0.47270    1.000
    C83      C        0.60300    0.78440    0.52960    1.000
    C84      C        0.36620    0.75240    0.40370    1.000
    C85      C        0.96560    0.15360    0.27040    1.000
    C86      C        0.02460    0.07970    0.28820    1.000
    C87      C        0.00090    0.00300    0.25430    1.000
    C88      C        0.91680    0.00130    0.20520    1.000
    C89      C        0.86250    0.07750    0.19050    1.000
    C90      C        0.06460    0.92180    0.27280    1.000
    C91      C        0.98850    0.33740    0.06390    1.000
    C92      C        0.05880    0.33090    0.00690    1.000
    C93      C        0.05030    0.26240    0.96080    1.000
    C94      C        0.96560    0.20380    0.97270    1.000
    C95      C        0.89700    0.21560    0.02960    1.000
    C96      C        0.13380    0.24760    0.90370    1.000
    N9       N        0.38660    0.34590    0.77810    1.000
    N10      N        0.40940    0.22000    0.92400    1.000
    N11      N        0.11340    0.65410    0.27810    1.000
    N12      N        0.09060    0.78000    0.42400    1.000
    N13      N        0.61340    0.84590    0.72190    1.000
    N14      N        0.59060    0.72000    0.57600    1.000
    N15      N        0.88660    0.15410    0.22190    1.000
    N16      N        0.90940    0.28000    0.07600    1.000
    O17      O        0.52640    0.65110    0.74260    1.000
    O18      O        0.65420    0.56830    0.69470    1.000
    O19      O        0.64960    0.32880    0.11740    1.000
    O20      O        0.68800    0.18860    0.11670    1.000
    O21      O        0.97360    0.34890    0.24260    1.000
    O22      O        0.84580    0.43170    0.19470    1.000
    O23      O        0.85040    0.67120    0.61740    1.000
    O24      O        0.81200    0.81140    0.61670    1.000
    O25      O        0.47360    0.15110    0.75740    1.000
    O26      O        0.34580    0.06830    0.80530    1.000
    O27      O        0.35040    0.82880    0.38260    1.000
    O28      O        0.31200    0.68860    0.38330    1.000
    O29      O        0.02640    0.84890    0.25740    1.000
    O30      O        0.15420    0.93170    0.30530    1.000
    O31      O        0.14960    0.17120    0.88260    1.000
    O32      O        0.18800    0.31140    0.88330    1.000
