data_functionalizedCrystal
_audit_creation_method	'EQeq! by Chris Wilmer'
_symmetry_space_group_name_H-M	'P1'
_symmetry_Int_Tables_number	1
_symmetry_cell_setting	triclinic
loop_
_symmetry_equiv_pos_as_xyz
  x,y,z
_cell_length_a	15.1973
_cell_length_b	15.1973
_cell_length_c	22.1529
_cell_angle_alpha	90
_cell_angle_beta	90
_cell_angle_gamma	90
loop_
_atom_site_label
_atom_site_type_symbol
_atom_site_fract_x
_atom_site_fract_y
_atom_site_fract_z
_atom_site_charge
Mof_Ni	Ni	0.96096	0.01341	0.05785	1.06
Mof_N 	N 	0.88	0.9658	0.2846	-0.153
Mof_C 	C 	0.8343	0.0325	0.3064	0.092
Mof_H 	H 	0.8183	0.0288	0.3468	-0.006
Mof_N 	N 	0.8079	0.106	0.2763	-0.26
Mof_C 	C 	0.8368	0.107	0.2179	0.109
Mof_C 	C 	0.8834	0.0373	0.19	-0.049
Mof_C 	C 	0.9048	0.9656	0.2255	0.153
Mof_N 	N 	0.9501	0.8963	0.2046	-0.329
Mof_H 	H 	0.9628	0.8534	0.2283	0.158
Mof_H 	H 	0.9664	0.8948	0.1674	0.172
Mof_N 	N 	0.9011	0.0639	0.132	-0.229
Mof_C 	C 	0.8668	0.143	0.1288	0.101
Mof_H 	H 	0.8692	0.1764	0.0937	-0.016
Mof_N 	N 	0.8283	0.1729	0.1791	-0.266
Mof_O 	O 	0.9235	0.1098	0.9999	-0.516
Mof_O 	O 	0.9832	0.0982	0.9108	-0.508
Mof_C 	C 	0.933	0.1334	0.9469	0.502
Mof_C 	C 	0.8766	0.2073	0.9234	-0.411
Mof_H 	H 	0.9133	0.2505	0.9032	0.156
Mof_H 	H 	0.847	0.2361	0.9567	0.168
Mof_C 	C 	0.8039	0.1689	0.876	-0.014
Mof_H 	H 	0.8287	0.1252	0.849	0.039
Mof_H 	H 	0.776	0.2152	0.8528	0.034
Mof_Ni	Ni	0.46096	0.51341	0.55785	1.064
Mof_N 	N 	0.38	0.4658	0.7846	-0.153
Mof_C 	C 	0.3343	0.5325	0.8064	0.097
Mof_H 	H 	0.3183	0.5288	0.8468	-0.006
Mof_N 	N 	0.3079	0.606	0.7763	-0.259
Mof_C 	C 	0.3368	0.607	0.7179	0.11
Mof_C 	C 	0.3834	0.5373	0.69	-0.042
Mof_C 	C 	0.4048	0.4656	0.7255	0.148
Mof_N 	N 	0.4501	0.3963	0.7046	-0.327
Mof_H 	H 	0.4628	0.3534	0.7283	0.158
Mof_H 	H 	0.4664	0.3948	0.6674	0.171
Mof_N 	N 	0.4011	0.5639	0.632	-0.228
Mof_C 	C 	0.3668	0.643	0.6288	0.101
Mof_H 	H 	0.3692	0.6764	0.5937	-0.016
Mof_N 	N 	0.3283	0.6729	0.6791	-0.265
Mof_O 	O 	0.4235	0.6098	0.4999	-0.518
Mof_O 	O 	0.4832	0.5982	0.4108	-0.508
Mof_C 	C 	0.433	0.6334	0.4469	0.502
Mof_C 	C 	0.3766	0.7073	0.4234	-0.411
Mof_H 	H 	0.4133	0.7505	0.4032	0.156
Mof_H 	H 	0.347	0.7361	0.4567	0.168
Mof_C 	C 	0.3039	0.6689	0.376	-0.015
Mof_H 	H 	0.3287	0.6252	0.349	0.039
Mof_H 	H 	0.276	0.7152	0.3528	0.034
Mof_Ni	Ni	0.53904	0.98659	0.55785	1.064
Mof_N 	N 	0.62	0.0342	0.7846	-0.152
Mof_C 	C 	0.6657	0.9675	0.8064	0.095
Mof_H 	H 	0.6817	0.9712	0.8468	-0.006
Mof_N 	N 	0.6921	0.894	0.7763	-0.259
Mof_C 	C 	0.6632	0.893	0.7179	0.11
Mof_C 	C 	0.6166	0.9627	0.69	-0.044
Mof_C 	C 	0.5952	0.0344	0.7255	0.15
Mof_N 	N 	0.5499	0.1037	0.7046	-0.327
Mof_H 	H 	0.5372	0.1466	0.7283	0.159
Mof_H 	H 	0.5336	0.1052	0.6674	0.171
Mof_N 	N 	0.5989	0.9361	0.632	-0.228
Mof_C 	C 	0.6332	0.857	0.6288	0.102
Mof_H 	H 	0.6308	0.8236	0.5937	-0.016
Mof_N 	N 	0.6717	0.8271	0.6791	-0.265
Mof_O 	O 	0.5765	0.8902	0.4999	-0.518
Mof_O 	O 	0.5168	0.9018	0.4108	-0.508
Mof_C 	C 	0.567	0.8666	0.4469	0.502
Mof_C 	C 	0.6234	0.7927	0.4234	-0.411
Mof_H 	H 	0.5867	0.7495	0.4032	0.156
Mof_H 	H 	0.653	0.7639	0.4567	0.168
Mof_C 	C 	0.6961	0.8311	0.376	-0.014
Mof_H 	H 	0.6713	0.8748	0.349	0.04
Mof_H 	H 	0.724	0.7848	0.3528	0.035
Mof_Ni	Ni	0.03904	0.48659	0.05785	1.063
Mof_N 	N 	0.12	0.5342	0.2846	-0.153
Mof_C 	C 	0.1657	0.4675	0.3064	0.097
Mof_H 	H 	0.1817	0.4712	0.3468	-0.006
Mof_N 	N 	0.1921	0.394	0.2763	-0.259
Mof_C 	C 	0.1632	0.393	0.2179	0.11
Mof_C 	C 	0.1166	0.4627	0.19	-0.042
Mof_C 	C 	0.0952	0.5344	0.2255	0.148
Mof_N 	N 	0.0499	0.6037	0.2046	-0.327
Mof_H 	H 	0.0372	0.6466	0.2283	0.158
Mof_H 	H 	0.0336	0.6052	0.1674	0.171
Mof_N 	N 	0.0989	0.4361	0.132	-0.228
Mof_C 	C 	0.1332	0.357	0.1288	0.102
Mof_H 	H 	0.1308	0.3236	0.0937	-0.016
Mof_N 	N 	0.1717	0.3271	0.1791	-0.265
Mof_O 	O 	0.0765	0.3902	0.9999	-0.518
Mof_O 	O 	0.0168	0.4018	0.9108	-0.508
Mof_C 	C 	0.067	0.3666	0.9469	0.503
Mof_C 	C 	0.1234	0.2927	0.9234	-0.412
Mof_H 	H 	0.0867	0.2495	0.9032	0.157
Mof_H 	H 	0.153	0.2639	0.9567	0.168
Mof_C 	C 	0.1961	0.3311	0.876	-0.014
Mof_H 	H 	0.1713	0.3748	0.849	0.039
Mof_H 	H 	0.224	0.2848	0.8528	0.035
Mof_Ni	Ni	0.73659	0.21096	0.30785	1.064
Mof_N 	N 	0.7842	0.13	0.5346	-0.154
Mof_C 	C 	0.7175	0.0843	0.5564	0.097
Mof_H 	H 	0.7212	0.0683	0.5968	-0.006
Mof_N 	N 	0.644	0.0579	0.5263	-0.259
Mof_C 	C 	0.643	0.0868	0.4679	0.109
Mof_C 	C 	0.7127	0.1334	0.44	-0.042
Mof_C 	C 	0.7844	0.1548	0.4755	0.148
Mof_N 	N 	0.8537	0.2001	0.4546	-0.327
Mof_H 	H 	0.8966	0.2128	0.4783	0.158
Mof_H 	H 	0.8552	0.2164	0.4174	0.171
Mof_N 	N 	0.6861	0.1511	0.382	-0.228
Mof_C 	C 	0.607	0.1168	0.3788	0.101
Mof_H 	H 	0.5736	0.1192	0.3437	-0.016
Mof_N 	N 	0.5771	0.0783	0.4291	-0.265
Mof_O 	O 	0.6402	0.1735	0.2499	-0.518
Mof_O 	O 	0.6518	0.2332	0.1608	-0.508
Mof_C 	C 	0.6166	0.183	0.1969	0.502
Mof_C 	C 	0.5427	0.1266	0.1734	-0.411
Mof_H 	H 	0.4995	0.1633	0.1532	0.156
Mof_H 	H 	0.5139	0.097	0.2067	0.167
Mof_C 	C 	0.5811	0.0539	0.126	-0.015
Mof_H 	H 	0.6248	0.0787	0.099	0.039
Mof_H 	H 	0.5348	0.026	0.1028	0.034
Mof_Ni	Ni	0.23659	0.71096	0.80785	1.064
Mof_N 	N 	0.2842	0.63	0.0346	-0.153
Mof_C 	C 	0.2175	0.5843	0.0564	0.097
Mof_H 	H 	0.2212	0.5683	0.0968	-0.006
Mof_N 	N 	0.144	0.5579	0.0263	-0.259
Mof_C 	C 	0.143	0.5868	0.9679	0.109
Mof_C 	C 	0.2127	0.6334	0.94	-0.042
Mof_C 	C 	0.2844	0.6548	0.9755	0.146
Mof_N 	N 	0.3537	0.7001	0.9546	-0.326
Mof_H 	H 	0.3966	0.7128	0.9783	0.158
Mof_H 	H 	0.3552	0.7164	0.9174	0.171
Mof_N 	N 	0.1861	0.6511	0.882	-0.228
Mof_C 	C 	0.107	0.6168	0.8788	0.101
Mof_H 	H 	0.0736	0.6192	0.8437	-0.016
Mof_N 	N 	0.0771	0.5783	0.9291	-0.265
Mof_O 	O 	0.1402	0.6735	0.7499	-0.518
Mof_O 	O 	0.1518	0.7332	0.6608	-0.509
Mof_C 	C 	0.1166	0.683	0.6969	0.503
Mof_C 	C 	0.0427	0.6266	0.6734	-0.413
Mof_H 	H 	0.9995	0.6633	0.6532	0.157
Mof_H 	H 	0.0139	0.597	0.7067	0.168
Mof_C 	C 	0.0811	0.5539	0.626	-0.014
Mof_H 	H 	0.1248	0.5787	0.599	0.039
Mof_H 	H 	0.0348	0.526	0.6028	0.034
Mof_Ni	Ni	0.76341	0.78904	0.80785	1.064
Mof_N 	N 	0.7158	0.87	0.0346	-0.151
Mof_C 	C 	0.7825	0.9157	0.0564	0.098
Mof_H 	H 	0.7788	0.9317	0.0968	-0.005
Mof_N 	N 	0.856	0.9421	0.0263	-0.255
Mof_C 	C 	0.857	0.9132	0.9679	0.105
Mof_C 	C 	0.7873	0.8666	0.94	-0.041
Mof_C 	C 	0.7156	0.8452	0.9755	0.144
Mof_N 	N 	0.6463	0.7999	0.9546	-0.326
Mof_H 	H 	0.6034	0.7872	0.9783	0.157
Mof_H 	H 	0.6448	0.7836	0.9174	0.171
Mof_N 	N 	0.8139	0.8489	0.882	-0.228
Mof_C 	C 	0.893	0.8832	0.8788	0.101
Mof_H 	H 	0.9264	0.8808	0.8437	-0.015
Mof_N 	N 	0.9229	0.9217	0.9291	-0.265
Mof_O 	O 	0.8598	0.8265	0.7499	-0.518
Mof_O 	O 	0.8482	0.7668	0.6608	-0.508
Mof_C 	C 	0.8834	0.817	0.6969	0.501
Mof_C 	C 	0.9573	0.8734	0.6734	-0.407
Mof_H 	H 	0.0005	0.8367	0.6532	0.154
Mof_H 	H 	0.9861	0.903	0.7067	0.167
Mof_C 	C 	0.9189	0.9461	0.626	-0.016
Mof_H 	H 	0.8752	0.9213	0.599	0.04
Mof_H 	H 	0.9652	0.974	0.6028	0.036
Mof_Ni	Ni	0.26341	0.28904	0.30785	1.064
Mof_N 	N 	0.2158	0.37	0.5346	-0.153
Mof_C 	C 	0.2825	0.4157	0.5564	0.097
Mof_H 	H 	0.2788	0.4317	0.5968	-0.006
Mof_N 	N 	0.356	0.4421	0.5263	-0.259
Mof_C 	C 	0.357	0.4132	0.4679	0.11
Mof_C 	C 	0.2873	0.3666	0.44	-0.042
Mof_C 	C 	0.2156	0.3452	0.4755	0.148
Mof_N 	N 	0.1463	0.2999	0.4546	-0.327
Mof_H 	H 	0.1034	0.2872	0.4783	0.159
Mof_H 	H 	0.1448	0.2836	0.4174	0.171
Mof_N 	N 	0.3139	0.3489	0.382	-0.228
Mof_C 	C 	0.393	0.3832	0.3788	0.101
Mof_H 	H 	0.4264	0.3808	0.3437	-0.016
Mof_N 	N 	0.4229	0.4217	0.4291	-0.265
Mof_O 	O 	0.3598	0.3265	0.2499	-0.518
Mof_O 	O 	0.3482	0.2668	0.1608	-0.508
Mof_C 	C 	0.3834	0.317	0.1969	0.502
Mof_C 	C 	0.4573	0.3734	0.1734	-0.411
Mof_H 	H 	0.5005	0.3367	0.1532	0.156
Mof_H 	H 	0.4861	0.403	0.2067	0.168
Mof_C 	C 	0.4189	0.4461	0.126	-0.015
Mof_H 	H 	0.3752	0.4213	0.099	0.039
Mof_H 	H 	0.4652	0.474	0.1028	0.035
Mof_Ni	Ni	0.03904	0.98659	0.94215	1.061
Mof_N 	N 	0.12	0.0342	0.7154	-0.152
Mof_C 	C 	0.1657	0.9675	0.6936	0.093
Mof_H 	H 	0.1817	0.9712	0.6532	-0.005
Mof_N 	N 	0.1921	0.894	0.7237	-0.259
Mof_C 	C 	0.1632	0.893	0.7821	0.11
Mof_C 	C 	0.1166	0.9627	0.81	-0.048
Mof_C 	C 	0.0952	0.0344	0.7745	0.154
Mof_N 	N 	0.0499	0.1037	0.7954	-0.328
Mof_H 	H 	0.0372	0.1466	0.7717	0.159
Mof_H 	H 	0.0336	0.1052	0.8326	0.173
Mof_N 	N 	0.0989	0.9361	0.868	-0.228
Mof_C 	C 	0.1332	0.857	0.8712	0.101
Mof_H 	H 	0.1308	0.8236	0.9063	-0.016
Mof_N 	N 	0.1717	0.8271	0.8209	-0.266
Mof_O 	O 	0.0765	0.8902	0.0001	-0.516
Mof_O 	O 	0.0168	0.9018	0.0892	-0.508
Mof_C 	C 	0.067	0.8666	0.0531	0.502
Mof_C 	C 	0.1234	0.7927	0.0766	-0.411
Mof_H 	H 	0.0867	0.7495	0.0968	0.156
Mof_H 	H 	0.153	0.7639	0.0433	0.168
Mof_C 	C 	0.1961	0.8311	0.124	-0.014
Mof_H 	H 	0.1713	0.8748	0.151	0.039
Mof_H 	H 	0.224	0.7848	0.1472	0.034
Mof_Ni	Ni	0.53904	0.48659	0.44215	1.064
Mof_N 	N 	0.62	0.5342	0.2154	-0.153
Mof_C 	C 	0.6657	0.4675	0.1936	0.097
Mof_H 	H 	0.6817	0.4712	0.1532	-0.006
Mof_N 	N 	0.6921	0.394	0.2237	-0.259
Mof_C 	C 	0.6632	0.393	0.2821	0.11
Mof_C 	C 	0.6166	0.4627	0.31	-0.042
Mof_C 	C 	0.5952	0.5344	0.2745	0.148
Mof_N 	N 	0.5499	0.6037	0.2954	-0.327
Mof_H 	H 	0.5372	0.6466	0.2717	0.158
Mof_H 	H 	0.5336	0.6052	0.3326	0.171
Mof_N 	N 	0.5989	0.4361	0.368	-0.228
Mof_C 	C 	0.6332	0.357	0.3712	0.101
Mof_H 	H 	0.6308	0.3236	0.4063	-0.016
Mof_N 	N 	0.6717	0.3271	0.3209	-0.265
Mof_O 	O 	0.5765	0.3902	0.5001	-0.518
Mof_O 	O 	0.5168	0.4018	0.5892	-0.508
Mof_C 	C 	0.567	0.3666	0.5531	0.502
Mof_C 	C 	0.6234	0.2927	0.5766	-0.411
Mof_H 	H 	0.5867	0.2495	0.5968	0.156
Mof_H 	H 	0.653	0.2639	0.5433	0.168
Mof_C 	C 	0.6961	0.3311	0.624	-0.015
Mof_H 	H 	0.6713	0.3748	0.651	0.039
Mof_H 	H 	0.724	0.2848	0.6472	0.034
Mof_Ni	Ni	0.46096	0.01341	0.44215	1.064
Mof_N 	N 	0.38	0.9658	0.2154	-0.152
Mof_C 	C 	0.3343	0.0325	0.1936	0.095
Mof_H 	H 	0.3183	0.0288	0.1532	-0.006
Mof_N 	N 	0.3079	0.106	0.2237	-0.259
Mof_C 	C 	0.3368	0.107	0.2821	0.11
Mof_C 	C 	0.3834	0.0373	0.31	-0.044
Mof_C 	C 	0.4048	0.9656	0.2745	0.15
Mof_N 	N 	0.4501	0.8963	0.2954	-0.327
Mof_H 	H 	0.4628	0.8534	0.2717	0.159
Mof_H 	H 	0.4664	0.8948	0.3326	0.171
Mof_N 	N 	0.4011	0.0639	0.368	-0.228
Mof_C 	C 	0.3668	0.143	0.3712	0.102
Mof_H 	H 	0.3692	0.1764	0.4063	-0.016
Mof_N 	N 	0.3283	0.1729	0.3209	-0.265
Mof_O 	O 	0.4235	0.1098	0.5001	-0.518
Mof_O 	O 	0.4832	0.0982	0.5892	-0.508
Mof_C 	C 	0.433	0.1334	0.5531	0.502
Mof_C 	C 	0.3766	0.2073	0.5766	-0.411
Mof_H 	H 	0.4133	0.2505	0.5968	0.156
Mof_H 	H 	0.347	0.2361	0.5433	0.168
Mof_C 	C 	0.3039	0.1689	0.624	-0.014
Mof_H 	H 	0.3287	0.1252	0.651	0.04
Mof_H 	H 	0.276	0.2152	0.6472	0.035
Mof_Ni	Ni	0.96096	0.51341	0.94215	1.063
Mof_N 	N 	0.88	0.4658	0.7154	-0.153
Mof_C 	C 	0.8343	0.5325	0.6936	0.097
Mof_H 	H 	0.8183	0.5288	0.6532	-0.006
Mof_N 	N 	0.8079	0.606	0.7237	-0.259
Mof_C 	C 	0.8368	0.607	0.7821	0.11
Mof_C 	C 	0.8834	0.5373	0.81	-0.042
Mof_C 	C 	0.9048	0.4656	0.7745	0.148
Mof_N 	N 	0.9501	0.3963	0.7954	-0.327
Mof_H 	H 	0.9628	0.3534	0.7717	0.158
Mof_H 	H 	0.9664	0.3948	0.8326	0.171
Mof_N 	N 	0.9011	0.5639	0.868	-0.228
Mof_C 	C 	0.8668	0.643	0.8712	0.102
Mof_H 	H 	0.8692	0.6764	0.9063	-0.016
Mof_N 	N 	0.8283	0.6729	0.8209	-0.265
Mof_O 	O 	0.9235	0.6098	0.0001	-0.518
Mof_O 	O 	0.9832	0.5982	0.0892	-0.508
Mof_C 	C 	0.933	0.6334	0.0531	0.503
Mof_C 	C 	0.8766	0.7073	0.0766	-0.412
Mof_H 	H 	0.9133	0.7505	0.0968	0.157
Mof_H 	H 	0.847	0.7361	0.0433	0.168
Mof_C 	C 	0.8039	0.6689	0.124	-0.014
Mof_H 	H 	0.8287	0.6252	0.151	0.039
Mof_H 	H 	0.776	0.7152	0.1472	0.035
Mof_Ni	Ni	0.26341	0.78904	0.69215	1.064
Mof_N 	N 	0.2158	0.87	0.4654	-0.154
Mof_C 	C 	0.2825	0.9157	0.4436	0.097
Mof_H 	H 	0.2788	0.9317	0.4032	-0.006
Mof_N 	N 	0.356	0.9421	0.4737	-0.259
Mof_C 	C 	0.357	0.9132	0.5321	0.109
Mof_C 	C 	0.2873	0.8666	0.56	-0.042
Mof_C 	C 	0.2156	0.8452	0.5245	0.148
Mof_N 	N 	0.1463	0.7999	0.5454	-0.327
Mof_H 	H 	0.1034	0.7872	0.5217	0.158
Mof_H 	H 	0.1448	0.7836	0.5826	0.171
Mof_N 	N 	0.3139	0.8489	0.618	-0.228
Mof_C 	C 	0.393	0.8832	0.6212	0.101
Mof_H 	H 	0.4264	0.8808	0.6563	-0.016
Mof_N 	N 	0.4229	0.9217	0.5709	-0.265
Mof_O 	O 	0.3598	0.8265	0.7501	-0.518
Mof_O 	O 	0.3482	0.7668	0.8392	-0.508
Mof_C 	C 	0.3834	0.817	0.8031	0.502
Mof_C 	C 	0.4573	0.8734	0.8266	-0.411
Mof_H 	H 	0.5005	0.8367	0.8468	0.156
Mof_H 	H 	0.4861	0.903	0.7933	0.167
Mof_C 	C 	0.4189	0.9461	0.874	-0.015
Mof_H 	H 	0.3752	0.9213	0.901	0.039
Mof_H 	H 	0.4652	0.974	0.8972	0.034
Mof_Ni	Ni	0.76341	0.28904	0.19215	1.064
Mof_N 	N 	0.7158	0.37	0.9654	-0.153
Mof_C 	C 	0.7825	0.4157	0.9436	0.097
Mof_H 	H 	0.7788	0.4317	0.9032	-0.006
Mof_N 	N 	0.856	0.4421	0.9737	-0.259
Mof_C 	C 	0.857	0.4132	0.0321	0.109
Mof_C 	C 	0.7873	0.3666	0.06	-0.042
Mof_C 	C 	0.7156	0.3452	0.0245	0.146
Mof_N 	N 	0.6463	0.2999	0.0454	-0.326
Mof_H 	H 	0.6034	0.2872	0.0217	0.158
Mof_H 	H 	0.6448	0.2836	0.0826	0.171
Mof_N 	N 	0.8139	0.3489	0.118	-0.228
Mof_C 	C 	0.893	0.3832	0.1212	0.101
Mof_H 	H 	0.9264	0.3808	0.1563	-0.016
Mof_N 	N 	0.9229	0.4217	0.0709	-0.265
Mof_O 	O 	0.8598	0.3265	0.2501	-0.518
Mof_O 	O 	0.8482	0.2668	0.3392	-0.509
Mof_C 	C 	0.8834	0.317	0.3031	0.503
Mof_C 	C 	0.9573	0.3734	0.3266	-0.413
Mof_H 	H 	0.0005	0.3367	0.3468	0.157
Mof_H 	H 	0.9861	0.403	0.2933	0.168
Mof_C 	C 	0.9189	0.4461	0.374	-0.014
Mof_H 	H 	0.8752	0.4213	0.401	0.039
Mof_H 	H 	0.9652	0.474	0.3972	0.034
Mof_Ni	Ni	0.23659	0.21096	0.19215	1.064
Mof_N 	N 	0.2842	0.13	0.9654	-0.151
Mof_C 	C 	0.2175	0.0843	0.9436	0.098
Mof_H 	H 	0.2212	0.0683	0.9032	-0.005
Mof_N 	N 	0.144	0.0579	0.9737	-0.255
Mof_C 	C 	0.143	0.0868	0.0321	0.105
Mof_C 	C 	0.2127	0.1334	0.06	-0.041
Mof_C 	C 	0.2844	0.1548	0.0245	0.144
Mof_N 	N 	0.3537	0.2001	0.0454	-0.326
Mof_H 	H 	0.3966	0.2128	0.0217	0.157
Mof_H 	H 	0.3552	0.2164	0.0826	0.171
Mof_N 	N 	0.1861	0.1511	0.118	-0.228
Mof_C 	C 	0.107	0.1168	0.1212	0.101
Mof_H 	H 	0.0736	0.1192	0.1563	-0.015
Mof_N 	N 	0.0771	0.0783	0.0709	-0.265
Mof_O 	O 	0.1402	0.1735	0.2501	-0.518
Mof_O 	O 	0.1518	0.2332	0.3392	-0.508
Mof_C 	C 	0.1166	0.183	0.3031	0.501
Mof_C 	C 	0.0427	0.1266	0.3266	-0.407
Mof_H 	H 	0.9995	0.1633	0.3468	0.154
Mof_H 	H 	0.0139	0.097	0.2933	0.167
Mof_C 	C 	0.0811	0.0539	0.374	-0.016
Mof_H 	H 	0.1248	0.0787	0.401	0.04
Mof_H 	H 	0.0348	0.026	0.3972	0.036
Mof_Ni	Ni	0.73659	0.71096	0.69215	1.064
Mof_N 	N 	0.7842	0.63	0.4654	-0.153
Mof_C 	C 	0.7175	0.5843	0.4436	0.097
Mof_H 	H 	0.7212	0.5683	0.4032	-0.006
Mof_N 	N 	0.644	0.5579	0.4737	-0.259
Mof_C 	C 	0.643	0.5868	0.5321	0.11
Mof_C 	C 	0.7127	0.6334	0.56	-0.042
Mof_C 	C 	0.7844	0.6548	0.5245	0.148
Mof_N 	N 	0.8537	0.7001	0.5454	-0.327
Mof_H 	H 	0.8966	0.7128	0.5217	0.159
Mof_H 	H 	0.8552	0.7164	0.5826	0.171
Mof_N 	N 	0.6861	0.6511	0.618	-0.228
Mof_C 	C 	0.607	0.6168	0.6212	0.101
Mof_H 	H 	0.5736	0.6192	0.6563	-0.016
Mof_N 	N 	0.5771	0.5783	0.5709	-0.265
Mof_O 	O 	0.6402	0.6735	0.7501	-0.518
Mof_O 	O 	0.6518	0.7332	0.8392	-0.508
Mof_C 	C 	0.6166	0.683	0.8031	0.502
Mof_C 	C 	0.5427	0.6266	0.8266	-0.411
Mof_H 	H 	0.4995	0.6633	0.8468	0.156
Mof_H 	H 	0.5139	0.597	0.7933	0.168
Mof_C 	C 	0.5811	0.5539	0.874	-0.015
Mof_H 	H 	0.6248	0.5787	0.901	0.039
Mof_H 	H 	0.5348	0.526	0.8972	0.035
_end
