# CIF file generated by openbabel 3.1.0, see https://openbabel.org
data_I
_chemical_name_common 'image0'
_cell_length_a 14.2232
_cell_length_b 26.5395
_cell_length_c 19.467
_cell_angle_alpha 90
_cell_angle_beta 107.701
_cell_angle_gamma 90
_space_group_name_H-M_alt 'P 1'
_space_group_name_Hall 'P 1'
loop_
    _symmetry_equiv_pos_as_xyz
    x,y,z
loop_
    _atom_site_label
    _atom_site_type_symbol
    _atom_site_fract_x
    _atom_site_fract_y
    _atom_site_fract_z
    _atom_site_occupancy
    C1       C        0.80870    0.42480    0.12443    1.000
    C2       C        0.71650    0.39537    0.10770    1.000
    C3       C        0.69080    0.36024    0.05300    1.000
    H1       H        0.73340    0.35460    0.02570    1.000
    C4       C        0.60500    0.33357    0.03750    1.000
    H2       H        0.58990    0.31040    0.99980    1.000
    C5       C        0.54000    0.34058    0.07737    1.000
    C6       C        0.56540    0.37527    0.13330    1.000
    H3       H        0.52350    0.38050    0.16120    1.000
    C7       C        0.65190    0.40189    0.14772    1.000
    H4       H        0.66770    0.42500    0.18540    1.000
    C8       C        0.13150    0.39362    0.14823    1.000
    C9       C        0.21580    0.37300    0.12551    1.000
    C10      C        0.25340    0.32598    0.14870    1.000
    H5       H        0.22660    0.30710    0.17840    1.000
    C11      C        0.33180    0.30652    0.12760    1.000
    H6       H        0.35780    0.27500    0.14390    1.000
    C12      C        0.37030    0.33393    0.08290    1.000
    C13      C        0.33350    0.38083    0.06100    1.000
    H7       H        0.36030    0.39980    0.03130    1.000
    C14      C        0.25680    0.40033    0.08240    1.000
    H8       H        0.23280    0.43240    0.06730    1.000
    C15      C        0.41660    0.03448    0.92369    1.000
    H9       H        0.42860    0.00510    0.95100    1.000
    C16      C        0.42520    0.07954    0.95929    1.000
    H10      H        0.44360    0.08030    0.00940    1.000
    C17      C        0.40630    0.12404    0.92016    1.000
    C18      C        0.37910    0.11966    0.84634    1.000
    H11      H        0.36430    0.14830    0.81760    1.000
    C19      C        0.37380    0.07275    0.81490    1.000
    H12      H        0.35630    0.07100    0.76490    1.000
    C20      C        0.41640    0.17321    0.95726    1.000
    C21      C        0.49470    0.18196    0.01912    1.000
    H13      H        0.53980    0.15630    0.03770    1.000
    C22      C        0.50690    0.22797    0.05350    1.000
    H14      H        0.56070    0.23330    0.09430    1.000
    C23      C        0.43930    0.26628    0.02750    1.000
    C24      C        0.35980    0.25712    0.96830    1.000
    H15      H        0.31300    0.28230    0.95130    1.000
    C25      C        0.34800    0.21165    0.93340    1.000
    H16      H        0.29330    0.20640    0.89320    1.000
    C26      C        0.91690    0.56593    0.12600    1.000
    H17      H        0.87670    0.55750    0.15400    1.000
    C27      C        0.91350    0.61445    0.10130    1.000
    H18      H        0.87160    0.63770    0.11260    1.000
    C28      C        0.97242    0.62907    0.05926    1.000
    C29      C        0.03290    0.59147    0.04571    1.000
    H19      H        0.07420    0.59880    0.01800    1.000
    C30      C        0.03210    0.54438    0.07251    1.000
    H20      H        0.07390    0.52040    0.06270    1.000
    C31      C        0.96920    0.68041    0.02876    1.000
    C32      C        0.91950    0.72004    0.05035    1.000
    H21      H        0.89040    0.71450    0.08640    1.000
    C33      C        0.91290    0.76673    0.01950    1.000
    H22      H        0.87970    0.79230    0.03520    1.000
    C34      C        0.95460    0.77643    0.96581    1.000
    C35      C        0.00390    0.73811    0.94352    1.000
    H23      H        0.03220    0.74390    0.90710    1.000
    C36      C        0.01130    0.69093    0.97513    1.000
    H24      H        0.04560    0.66570    0.95980    1.000
    C37      C        0.56300    0.91440    0.84800    1.000
    C38      C        0.66490    0.89265    0.87072    1.000
    C39      C        0.67610    0.84295    0.86430    1.000
    H25      H        0.62020    0.82310    0.84560    1.000
    C40      C        0.76650    0.82033    0.88400    1.000
    H26      H        0.77110    0.78570    0.87860    1.000
    C41      C        0.85030    0.84806    0.91158    1.000
    C42      C        0.84180    0.89869    0.91958    1.000
    H27      H        0.89760    0.91860    0.93840    1.000
    C43      C        0.74790    0.92004    0.89890    1.000
    H28      H        0.74210    0.95460    0.90480    1.000
    C44      C        0.27170    0.91306    0.86570    1.000
    C45      C        0.18535    0.88828    0.88156    1.000
    C46      C        0.09120    0.89200    0.83362    1.000
    H29      H        0.08140    0.90870    0.79000    1.000
    C47      C        0.01140    0.87112    0.84986    1.000
    H30      H        0.94840    0.87400    0.81730    1.000
    C48      C        0.02479    0.84600    0.91434    1.000
    C49      C        0.11940    0.84193    0.96182    1.000
    H31      H        0.12960    0.82450    0.00490    1.000
    C50      C        0.19870    0.86346    0.94579    1.000
    H32      H        0.26150    0.86110    0.97870    1.000
    C51      C        0.99100    0.47727    0.30834    1.000
    H33      H        0.92310    0.48190    0.29600    1.000
    C52      C        0.14550    0.47173    0.37130    1.000
    H34      H        0.20390    0.47110    0.40930    1.000
    C53      C        0.13540    0.46489    0.30160    1.000
    H35      H        0.18730    0.45920    0.28280    1.000
    C54      C        0.08520    0.52090    0.49138    1.000
    H36      H        0.14210    0.53480    0.48520    1.000
    C55      C        0.02540    0.49005    0.43921    1.000
    C56      C        0.94030    0.46914    0.44730    1.000
    H37      H        0.90060    0.44850    0.41150    1.000
    C57      C        0.29050    0.95247    0.64988    1.000
    H38      H        0.23320    0.93960    0.65680    1.000
    C58      C        0.30670    0.95758    0.58603    1.000
    H39      H        0.26310    0.94950    0.54110    1.000
    C59      C        0.43490    0.98342    0.67114    1.000
    H40      H        0.49710    0.99650    0.69470    1.000
    C60      C        0.39920    0.00618    0.48131    1.000
    H41      H        0.33110    0.01030    0.46880    1.000
    C61      C        0.45070    0.98815    0.54877    1.000
    C62      C        0.55160    0.98196    0.56733    1.000
    H42      H        0.58640    0.96980    0.61270    1.000
    N1       N        0.39214    0.03012    0.85194    1.000
    N2       N        0.45054    0.31405    0.06189    1.000
    N3       N        0.97417    0.53037    0.11248    1.000
    N4       N        0.94460    0.82431    0.93259    1.000
    N5       N        0.03844    0.46744    0.26165    1.000
    N6       N        0.05183    0.47986    0.37550    1.000
    N7       N        0.37178    0.96928    0.70375    1.000
    N8       N        0.39952    0.97684    0.59948    1.000
    O1       O        0.87097    0.41555    0.09295    1.000
    O2       O        0.82360    0.46004    0.17101    1.000
    O3       O        0.09969    0.43694    0.12433    1.000
    O4       O        0.09607    0.36861    0.18796    1.000
    O5       O        0.26378    0.92456    0.80080    1.000
    O6       O        0.34826    0.92226    0.91596    1.000
    O7       O        0.55030    0.95740    0.85936    1.000
    O8       O        0.49080    0.89054    0.81700    1.000
    Zn1      Zn       0.39333    0.95818    0.81070    1.000
    Zn2      Zn       0.98604    0.45856    0.15439    1.000
    C63      C        0.19130    0.57520    0.87557    1.000
    C64      C        0.28350    0.60463    0.89230    1.000
    C65      C        0.30920    0.63976    0.94700    1.000
    H43      H        0.26660    0.64540    0.97430    1.000
    C66      C        0.39500    0.66643    0.96250    1.000
    H44      H        0.41010    0.68960    0.00020    1.000
    C67      C        0.46000    0.65942    0.92263    1.000
    C68      C        0.43460    0.62473    0.86670    1.000
    H45      H        0.47650    0.61950    0.83880    1.000
    C69      C        0.34810    0.59811    0.85228    1.000
    H46      H        0.33230    0.57500    0.81460    1.000
    C70      C        0.86850    0.60638    0.85177    1.000
    C71      C        0.78420    0.62700    0.87449    1.000
    C72      C        0.74660    0.67402    0.85130    1.000
    H47      H        0.77340    0.69290    0.82160    1.000
    C73      C        0.66820    0.69348    0.87240    1.000
    H48      H        0.64220    0.72500    0.85610    1.000
    C74      C        0.62970    0.66607    0.91710    1.000
    C75      C        0.66650    0.61917    0.93900    1.000
    H49      H        0.63970    0.60020    0.96870    1.000
    C76      C        0.74320    0.59967    0.91760    1.000
    H50      H        0.76720    0.56760    0.93270    1.000
    C77      C        0.58340    0.96552    0.07631    1.000
    H51      H        0.57140    0.99490    0.04900    1.000
    C78      C        0.57480    0.92046    0.04071    1.000
    H52      H        0.55640    0.91970    0.99060    1.000
    C79      C        0.59370    0.87596    0.07984    1.000
    C80      C        0.62090    0.88034    0.15366    1.000
    H53      H        0.63570    0.85170    0.18240    1.000
    C81      C        0.62620    0.92725    0.18510    1.000
    H54      H        0.64370    0.92900    0.23510    1.000
    C82      C        0.58360    0.82679    0.04274    1.000
    C83      C        0.50530    0.81804    0.98088    1.000
    H55      H        0.46020    0.84370    0.96230    1.000
    C84      C        0.49310    0.77203    0.94650    1.000
    H56      H        0.43930    0.76670    0.90570    1.000
    C85      C        0.56070    0.73372    0.97250    1.000
    C86      C        0.64020    0.74288    0.03170    1.000
    H57      H        0.68700    0.71770    0.04870    1.000
    C87      C        0.65200    0.78835    0.06660    1.000
    H58      H        0.70670    0.79360    0.10680    1.000
    C88      C        0.08310    0.43407    0.87400    1.000
    H59      H        0.12330    0.44250    0.84600    1.000
    C89      C        0.08650    0.38555    0.89870    1.000
    H60      H        0.12840    0.36230    0.88740    1.000
    C90      C        0.02758    0.37093    0.94074    1.000
    C91      C        0.96710    0.40853    0.95429    1.000
    H61      H        0.92580    0.40120    0.98200    1.000
    C92      C        0.96790    0.45562    0.92749    1.000
    H62      H        0.92610    0.47960    0.93730    1.000
    C93      C        0.03080    0.31959    0.97124    1.000
    C94      C        0.08050    0.27996    0.94965    1.000
    H63      H        0.10960    0.28550    0.91360    1.000
    C95      C        0.08710    0.23327    0.98050    1.000
    H64      H        0.12030    0.20770    0.96480    1.000
    C96      C        0.04540    0.22357    0.03419    1.000
    C97      C        0.99610    0.26189    0.05648    1.000
    H65      H        0.96780    0.25610    0.09290    1.000
    C98      C        0.98870    0.30907    0.02487    1.000
    H66      H        0.95440    0.33430    0.04020    1.000
    C99      C        0.43700    0.08560    0.15200    1.000
    C100     C        0.33510    0.10735    0.12928    1.000
    C101     C        0.32390    0.15705    0.13570    1.000
    H67      H        0.37980    0.17690    0.15440    1.000
    C102     C        0.23350    0.17967    0.11600    1.000
    H68      H        0.22890    0.21430    0.12140    1.000
    C103     C        0.14970    0.15194    0.08842    1.000
    C104     C        0.15820    0.10131    0.08042    1.000
    H69      H        0.10240    0.08140    0.06160    1.000
    C105     C        0.25210    0.07996    0.10110    1.000
    H70      H        0.25790    0.04540    0.09520    1.000
    C106     C        0.72830    0.08694    0.13430    1.000
    C107     C        0.81465    0.11172    0.11844    1.000
    C108     C        0.90880    0.10800    0.16638    1.000
    H71      H        0.91860    0.09130    0.21000    1.000
    C109     C        0.98860    0.12888    0.15014    1.000
    H72      H        0.05160    0.12600    0.18270    1.000
    C110     C        0.97521    0.15400    0.08566    1.000
    C111     C        0.88060    0.15807    0.03818    1.000
    H73      H        0.87040    0.17550    0.99510    1.000
    C112     C        0.80130    0.13654    0.05421    1.000
    H74      H        0.73850    0.13890    0.02130    1.000
    C113     C        0.00900    0.52273    0.69166    1.000
    H75      H        0.07690    0.51810    0.70400    1.000
    C114     C        0.85450    0.52827    0.62870    1.000
    H76      H        0.79610    0.52890    0.59070    1.000
    C115     C        0.86460    0.53511    0.69840    1.000
    H77      H        0.81270    0.54080    0.71720    1.000
    C116     C        0.91480    0.47910    0.50862    1.000
    H78      H        0.85790    0.46520    0.51480    1.000
    C117     C        0.97460    0.50995    0.56079    1.000
    C118     C        0.05970    0.53086    0.55270    1.000
    H79      H        0.09940    0.55150    0.58850    1.000
    C119     C        0.70950    0.04753    0.35012    1.000
    H80      H        0.76680    0.06040    0.34320    1.000
    C120     C        0.69330    0.04242    0.41397    1.000
    H81      H        0.73690    0.05050    0.45890    1.000
    C121     C        0.56510    0.01658    0.32886    1.000
    H82      H        0.50290    0.00350    0.30530    1.000
    C122     C        0.60080    0.99382    0.51869    1.000
    H83      H        0.66890    0.98970    0.53120    1.000
    C123     C        0.54930    0.01185    0.45123    1.000
    C124     C        0.44840    0.01804    0.43267    1.000
    H84      H        0.41360    0.03020    0.38730    1.000
    N9       N        0.60786    0.96988    0.14806    1.000
    N10      N        0.54946    0.68595    0.93811    1.000
    N11      N        0.02583    0.46963    0.88752    1.000
    N12      N        0.05540    0.17569    0.06741    1.000
    N13      N        0.96156    0.53256    0.73835    1.000
    N14      N        0.94817    0.52014    0.62450    1.000
    N15      N        0.62822    0.03072    0.29625    1.000
    N16      N        0.60048    0.02316    0.40052    1.000
    O9       O        0.12903    0.58445    0.90705    1.000
    O10      O        0.17640    0.53996    0.82899    1.000
    O11      O        0.90031    0.56306    0.87567    1.000
    O12      O        0.90393    0.63139    0.81204    1.000
    O13      O        0.73622    0.07544    0.19920    1.000
    O14      O        0.65174    0.07774    0.08404    1.000
    O15      O        0.44970    0.04260    0.14064    1.000
    O16      O        0.50920    0.10946    0.18300    1.000
    Zn3      Zn       0.60667    0.04182    0.18930    1.000
    Zn4      Zn       0.01396    0.54144    0.84561    1.000
    C125     C        0.19130    0.92480    0.37557    1.000
    C126     C        0.28350    0.89537    0.39230    1.000
    C127     C        0.30920    0.86024    0.44700    1.000
    H85      H        0.26660    0.85460    0.47430    1.000
    C128     C        0.39500    0.83357    0.46250    1.000
    H86      H        0.41010    0.81040    0.50020    1.000
    C129     C        0.46000    0.84058    0.42263    1.000
    C130     C        0.43460    0.87527    0.36670    1.000
    H87      H        0.47650    0.88050    0.33880    1.000
    C131     C        0.34810    0.90189    0.35228    1.000
    H88      H        0.33230    0.92500    0.31460    1.000
    C132     C        0.86850    0.89362    0.35177    1.000
    C133     C        0.78420    0.87300    0.37449    1.000
    C134     C        0.74660    0.82598    0.35130    1.000
    H89      H        0.77340    0.80710    0.32160    1.000
    C135     C        0.66820    0.80652    0.37240    1.000
    H90      H        0.64220    0.77500    0.35610    1.000
    C136     C        0.62970    0.83393    0.41710    1.000
    C137     C        0.66650    0.88083    0.43900    1.000
    H91      H        0.63970    0.89980    0.46870    1.000
    C138     C        0.74320    0.90033    0.41760    1.000
    H92      H        0.76720    0.93240    0.43270    1.000
    C139     C        0.58340    0.53448    0.57631    1.000
    H93      H        0.57140    0.50510    0.54900    1.000
    C140     C        0.57480    0.57954    0.54071    1.000
    H94      H        0.55640    0.58030    0.49060    1.000
    C141     C        0.59370    0.62404    0.57984    1.000
    C142     C        0.62090    0.61966    0.65366    1.000
    H95      H        0.63570    0.64830    0.68240    1.000
    C143     C        0.62620    0.57275    0.68510    1.000
    H96      H        0.64370    0.57100    0.73510    1.000
    C144     C        0.58360    0.67321    0.54274    1.000
    C145     C        0.50530    0.68196    0.48088    1.000
    H97      H        0.46020    0.65630    0.46230    1.000
    C146     C        0.49310    0.72797    0.44650    1.000
    H98      H        0.43930    0.73330    0.40570    1.000
    C147     C        0.56070    0.76628    0.47250    1.000
    C148     C        0.64020    0.75712    0.53170    1.000
    H99      H        0.68700    0.78230    0.54870    1.000
    C149     C        0.65200    0.71165    0.56660    1.000
    H100     H        0.70670    0.70640    0.60680    1.000
    C150     C        0.08310    0.06593    0.37400    1.000
    H101     H        0.12330    0.05750    0.34600    1.000
    C151     C        0.08650    0.11445    0.39870    1.000
    H102     H        0.12840    0.13770    0.38740    1.000
    C152     C        0.02758    0.12907    0.44074    1.000
    C153     C        0.96710    0.09147    0.45429    1.000
    H103     H        0.92580    0.09880    0.48200    1.000
    C154     C        0.96790    0.04438    0.42749    1.000
    H104     H        0.92610    0.02040    0.43730    1.000
    C155     C        0.03080    0.18041    0.47124    1.000
    C156     C        0.08050    0.22004    0.44965    1.000
    H105     H        0.10960    0.21450    0.41360    1.000
    C157     C        0.08710    0.26673    0.48050    1.000
    H106     H        0.12030    0.29230    0.46480    1.000
    C158     C        0.04540    0.27643    0.53419    1.000
    C159     C        0.99610    0.23811    0.55648    1.000
    H107     H        0.96780    0.24390    0.59290    1.000
    C160     C        0.98870    0.19093    0.52487    1.000
    H108     H        0.95440    0.16570    0.54020    1.000
    C161     C        0.43700    0.41440    0.65200    1.000
    C162     C        0.33510    0.39265    0.62928    1.000
    C163     C        0.32390    0.34295    0.63570    1.000
    H109     H        0.37980    0.32310    0.65440    1.000
    C164     C        0.23350    0.32033    0.61600    1.000
    H110     H        0.22890    0.28570    0.62140    1.000
    C165     C        0.14970    0.34806    0.58842    1.000
    C166     C        0.15820    0.39869    0.58042    1.000
    H111     H        0.10240    0.41860    0.56160    1.000
    C167     C        0.25210    0.42004    0.60110    1.000
    H112     H        0.25790    0.45460    0.59520    1.000
    C168     C        0.72830    0.41306    0.63430    1.000
    C169     C        0.81465    0.38828    0.61844    1.000
    C170     C        0.90880    0.39200    0.66638    1.000
    H113     H        0.91860    0.40870    0.71000    1.000
    C171     C        0.98860    0.37112    0.65014    1.000
    H114     H        0.05160    0.37400    0.68270    1.000
    C172     C        0.97521    0.34600    0.58566    1.000
    C173     C        0.88060    0.34193    0.53818    1.000
    H115     H        0.87040    0.32450    0.49510    1.000
    C174     C        0.80130    0.36346    0.55421    1.000
    H116     H        0.73850    0.36110    0.52130    1.000
    C175     C        0.00900    0.97727    0.19166    1.000
    H117     H        0.07690    0.98190    0.20400    1.000
    C176     C        0.85450    0.97173    0.12870    1.000
    H118     H        0.79610    0.97110    0.09070    1.000
    C177     C        0.86460    0.96489    0.19840    1.000
    H119     H        0.81270    0.95920    0.21720    1.000
    C178     C        0.91480    0.02090    0.00862    1.000
    H120     H        0.85790    0.03480    0.01480    1.000
    C179     C        0.97460    0.99005    0.06079    1.000
    C180     C        0.05970    0.96914    0.05270    1.000
    H121     H        0.09940    0.94850    0.08850    1.000
    C181     C        0.70950    0.45247    0.85012    1.000
    H122     H        0.76680    0.43960    0.84320    1.000
    C182     C        0.69330    0.45758    0.91397    1.000
    H123     H        0.73690    0.44950    0.95890    1.000
    C183     C        0.56510    0.48342    0.82886    1.000
    H124     H        0.50290    0.49650    0.80530    1.000
    C184     C        0.60080    0.50618    0.01869    1.000
    H125     H        0.66890    0.51030    0.03120    1.000
    C185     C        0.54930    0.48815    0.95123    1.000
    C186     C        0.44840    0.48196    0.93267    1.000
    H126     H        0.41360    0.46980    0.88730    1.000
    N17      N        0.60786    0.53012    0.64806    1.000
    N18      N        0.54946    0.81405    0.43811    1.000
    N19      N        0.02583    0.03037    0.38752    1.000
    N20      N        0.05540    0.32431    0.56741    1.000
    N21      N        0.96156    0.96744    0.23835    1.000
    N22      N        0.94817    0.97986    0.12450    1.000
    N23      N        0.62822    0.46928    0.79625    1.000
    N24      N        0.60048    0.47684    0.90052    1.000
    O17      O        0.12903    0.91555    0.40705    1.000
    O18      O        0.17640    0.96004    0.32899    1.000
    O19      O        0.90031    0.93694    0.37567    1.000
    O20      O        0.90393    0.86861    0.31204    1.000
    O21      O        0.73622    0.42456    0.69920    1.000
    O22      O        0.65174    0.42226    0.58404    1.000
    O23      O        0.44970    0.45740    0.64064    1.000
    O24      O        0.50920    0.39054    0.68300    1.000
    Zn5      Zn       0.60667    0.45818    0.68930    1.000
    Zn6      Zn       0.01396    0.95856    0.34561    1.000
    C187     C        0.80870    0.07520    0.62443    1.000
    C188     C        0.71650    0.10463    0.60770    1.000
    C189     C        0.69080    0.13976    0.55300    1.000
    H127     H        0.73340    0.14540    0.52570    1.000
    C190     C        0.60500    0.16643    0.53750    1.000
    H128     H        0.58990    0.18960    0.49980    1.000
    C191     C        0.54000    0.15942    0.57737    1.000
    C192     C        0.56540    0.12473    0.63330    1.000
    H129     H        0.52350    0.11950    0.66120    1.000
    C193     C        0.65190    0.09811    0.64772    1.000
    H130     H        0.66770    0.07500    0.68540    1.000
    C194     C        0.13150    0.10638    0.64823    1.000
    C195     C        0.21580    0.12700    0.62551    1.000
    C196     C        0.25340    0.17402    0.64870    1.000
    H131     H        0.22660    0.19290    0.67840    1.000
    C197     C        0.33180    0.19348    0.62760    1.000
    H132     H        0.35780    0.22500    0.64390    1.000
    C198     C        0.37030    0.16607    0.58290    1.000
    C199     C        0.33350    0.11917    0.56100    1.000
    H133     H        0.36030    0.10020    0.53130    1.000
    C200     C        0.25680    0.09967    0.58240    1.000
    H134     H        0.23280    0.06760    0.56730    1.000
    C201     C        0.41660    0.46552    0.42369    1.000
    H135     H        0.42860    0.49490    0.45100    1.000
    C202     C        0.42520    0.42046    0.45929    1.000
    H136     H        0.44360    0.41970    0.50940    1.000
    C203     C        0.40630    0.37596    0.42016    1.000
    C204     C        0.37910    0.38034    0.34634    1.000
    H137     H        0.36430    0.35170    0.31760    1.000
    C205     C        0.37380    0.42725    0.31490    1.000
    H138     H        0.35630    0.42900    0.26490    1.000
    C206     C        0.41640    0.32679    0.45726    1.000
    C207     C        0.49470    0.31804    0.51912    1.000
    H139     H        0.53980    0.34370    0.53770    1.000
    C208     C        0.50690    0.27203    0.55350    1.000
    H140     H        0.56070    0.26670    0.59430    1.000
    C209     C        0.43930    0.23372    0.52750    1.000
    C210     C        0.35980    0.24288    0.46830    1.000
    H141     H        0.31300    0.21770    0.45130    1.000
    C211     C        0.34800    0.28835    0.43340    1.000
    H142     H        0.29330    0.29360    0.39320    1.000
    C212     C        0.91690    0.93407    0.62600    1.000
    H143     H        0.87670    0.94250    0.65400    1.000
    C213     C        0.91350    0.88555    0.60130    1.000
    H144     H        0.87160    0.86230    0.61260    1.000
    C214     C        0.97242    0.87093    0.55926    1.000
    C215     C        0.03290    0.90853    0.54571    1.000
    H145     H        0.07420    0.90120    0.51800    1.000
    C216     C        0.03210    0.95562    0.57251    1.000
    H146     H        0.07390    0.97960    0.56270    1.000
    C217     C        0.96920    0.81959    0.52876    1.000
    C218     C        0.91950    0.77996    0.55035    1.000
    H147     H        0.89040    0.78550    0.58640    1.000
    C219     C        0.91290    0.73327    0.51950    1.000
    H148     H        0.87970    0.70770    0.53520    1.000
    C220     C        0.95460    0.72357    0.46581    1.000
    C221     C        0.00390    0.76189    0.44352    1.000
    H149     H        0.03220    0.75610    0.40710    1.000
    C222     C        0.01130    0.80907    0.47513    1.000
    H150     H        0.04560    0.83430    0.45980    1.000
    C223     C        0.56300    0.58560    0.34800    1.000
    C224     C        0.66490    0.60735    0.37072    1.000
    C225     C        0.67610    0.65705    0.36430    1.000
    H151     H        0.62020    0.67690    0.34560    1.000
    C226     C        0.76650    0.67967    0.38400    1.000
    H152     H        0.77110    0.71430    0.37860    1.000
    C227     C        0.85030    0.65194    0.41158    1.000
    C228     C        0.84180    0.60131    0.41958    1.000
    H153     H        0.89760    0.58140    0.43840    1.000
    C229     C        0.74790    0.57996    0.39890    1.000
    H154     H        0.74210    0.54540    0.40480    1.000
    C230     C        0.27170    0.58694    0.36570    1.000
    C231     C        0.18535    0.61172    0.38156    1.000
    C232     C        0.09120    0.60800    0.33362    1.000
    H155     H        0.08140    0.59130    0.29000    1.000
    C233     C        0.01140    0.62888    0.34986    1.000
    H156     H        0.94840    0.62600    0.31730    1.000
    C234     C        0.02479    0.65400    0.41434    1.000
    C235     C        0.11940    0.65807    0.46182    1.000
    H157     H        0.12960    0.67550    0.50490    1.000
    C236     C        0.19870    0.63654    0.44579    1.000
    H158     H        0.26150    0.63890    0.47870    1.000
    C237     C        0.99100    0.02273    0.80834    1.000
    H159     H        0.92310    0.01810    0.79600    1.000
    C238     C        0.14550    0.02827    0.87130    1.000
    H160     H        0.20390    0.02890    0.90930    1.000
    C239     C        0.13540    0.03511    0.80160    1.000
    H161     H        0.18730    0.04080    0.78280    1.000
    C240     C        0.08520    0.97910    0.99138    1.000
    H162     H        0.14210    0.96520    0.98520    1.000
    C241     C        0.02540    0.00995    0.93921    1.000
    C242     C        0.94030    0.03086    0.94730    1.000
    H163     H        0.90060    0.05150    0.91150    1.000
    C243     C        0.29050    0.54753    0.14988    1.000
    H164     H        0.23320    0.56040    0.15680    1.000
    C244     C        0.30670    0.54242    0.08603    1.000
    H165     H        0.26310    0.55050    0.04110    1.000
    C245     C        0.43490    0.51658    0.17114    1.000
    H166     H        0.49710    0.50350    0.19470    1.000
    C246     C        0.39920    0.49382    0.98131    1.000
    H167     H        0.33110    0.48970    0.96880    1.000
    C247     C        0.45070    0.51185    0.04877    1.000
    C248     C        0.55160    0.51804    0.06733    1.000
    H168     H        0.58640    0.53020    0.11270    1.000
    N25      N        0.39214    0.46988    0.35194    1.000
    N26      N        0.45054    0.18595    0.56189    1.000
    N27      N        0.97417    0.96963    0.61248    1.000
    N28      N        0.94460    0.67569    0.43259    1.000
    N29      N        0.03844    0.03256    0.76165    1.000
    N30      N        0.05183    0.02014    0.87550    1.000
    N31      N        0.37178    0.53072    0.20375    1.000
    N32      N        0.39952    0.52316    0.09948    1.000
    O25      O        0.87097    0.08445    0.59295    1.000
    O26      O        0.82360    0.03996    0.67101    1.000
    O27      O        0.09969    0.06306    0.62433    1.000
    O28      O        0.09607    0.13139    0.68796    1.000
    O29      O        0.26378    0.57544    0.30080    1.000
    O30      O        0.34826    0.57774    0.41596    1.000
    O31      O        0.55030    0.54260    0.35936    1.000
    O32      O        0.49080    0.60946    0.31700    1.000
    Zn7      Zn       0.39333    0.54182    0.31070    1.000
    Zn8      Zn       0.98604    0.04144    0.65439    1.000
