data_functionalizedCrystal
_audit_creation_method	'EQeq! by Chris Wilmer'
_symmetry_space_group_name_H-M	'P1'
_symmetry_Int_Tables_number	1
_symmetry_cell_setting	triclinic
loop_
_symmetry_equiv_pos_as_xyz
  x,y,z
_cell_length_a	38.6484
_cell_length_b	38.6484
_cell_length_c	38.6484
_cell_angle_alpha	90
_cell_angle_beta	90
_cell_angle_gamma	90
loop_
_atom_site_label
_atom_site_type_symbol
_atom_site_fract_x
_atom_site_fract_y
_atom_site_fract_z
_atom_site_charge
Mof_C 	C 	0.48266	0.24697	0.10889	-0.082
Mof_H 	H 	0.4681	0.2457	0.1286	0.069
Mof_C 	C 	0.47169	0.24923	0.07357	0.112
Mof_C 	C 	0.3909	0.22023	0.09672	-0.205
Mof_H 	H 	0.3954	0.1999	0.0837	0.104
Mof_C 	C 	0.36523	0.2201	0.12241	0.156
Mof_H 	H 	0.3523	0.1997	0.1269	0.003
Mof_O 	O 	0.31463	0.22219	0.17251	-0.835
Mof_O 	O 	0.2454	0.1514	0.1902	0.077
Mof_O 	O 	0.25505	0.15905	0.21011	-0.94
Mof_C 	C 	0.98266	0.74697	0.60889	-0.08
Mof_H 	H 	0.9681	0.7457	0.6286	0.069
Mof_C 	C 	0.97169	0.74923	0.57357	0.112
Mof_C 	C 	0.8909	0.72023	0.59672	-0.205
Mof_H 	H 	0.8954	0.6999	0.5837	0.104
Mof_C 	C 	0.86523	0.7201	0.62241	0.156
Mof_H 	H 	0.8523	0.6997	0.6269	0.003
Mof_O 	O 	0.81463	0.72219	0.67251	-0.835
Mof_O 	O 	0.7454	0.6514	0.6902	0.077
Mof_O 	O 	0.75505	0.65905	0.71011	-0.94
Mof_C 	C 	0.51734	0.75303	0.10889	-0.082
Mof_H 	H 	0.5319	0.7543	0.1286	0.069
Mof_C 	C 	0.52831	0.75077	0.07357	0.112
Mof_C 	C 	0.6091	0.77977	0.09672	-0.205
Mof_H 	H 	0.6046	0.8001	0.0837	0.104
Mof_C 	C 	0.63477	0.7799	0.12241	0.156
Mof_H 	H 	0.6477	0.8003	0.1269	0.003
Mof_O 	O 	0.68537	0.77781	0.17251	-0.835
Mof_O 	O 	0.7546	0.8486	0.1902	0.077
Mof_O 	O 	0.74495	0.84095	0.21011	-0.94
Mof_C 	C 	0.01734	0.25303	0.60889	-0.084
Mof_H 	H 	0.0319	0.2543	0.6286	0.069
Mof_C 	C 	0.02831	0.25077	0.57357	0.112
Mof_C 	C 	0.1091	0.27977	0.59672	-0.205
Mof_H 	H 	0.1046	0.3001	0.5837	0.104
Mof_C 	C 	0.13477	0.2799	0.62241	0.156
Mof_H 	H 	0.1477	0.3003	0.6269	0.003
Mof_O 	O 	0.18537	0.27781	0.67251	-0.835
Mof_O 	O 	0.2546	0.3486	0.6902	0.077
Mof_O 	O 	0.24495	0.34095	0.71011	-0.94
Mof_C 	C 	0.51734	0.24697	0.89111	-0.082
Mof_H 	H 	0.5319	0.2457	0.8714	0.069
Mof_C 	C 	0.52831	0.24923	0.92643	0.112
Mof_C 	C 	0.6091	0.22023	0.90328	-0.205
Mof_H 	H 	0.6046	0.1999	0.9163	0.104
Mof_C 	C 	0.63477	0.2201	0.87759	0.156
Mof_H 	H 	0.6477	0.1997	0.8731	0.003
Mof_O 	O 	0.68537	0.22219	0.82749	-0.835
Mof_O 	O 	0.7546	0.1514	0.8098	0.077
Mof_O 	O 	0.74495	0.15905	0.78989	-0.94
Mof_C 	C 	0.01734	0.74697	0.39111	-0.084
Mof_H 	H 	0.0319	0.7457	0.3714	0.069
Mof_C 	C 	0.02831	0.74923	0.42643	0.112
Mof_C 	C 	0.1091	0.72023	0.40328	-0.205
Mof_H 	H 	0.1046	0.6999	0.4163	0.104
Mof_C 	C 	0.13477	0.7201	0.37759	0.156
Mof_H 	H 	0.1477	0.6997	0.3731	0.003
Mof_O 	O 	0.18537	0.72219	0.32749	-0.835
Mof_O 	O 	0.2546	0.6514	0.3098	0.077
Mof_O 	O 	0.24495	0.65905	0.28989	-0.94
Mof_C 	C 	0.48266	0.75303	0.89111	-0.082
Mof_H 	H 	0.4681	0.7543	0.8714	0.069
Mof_C 	C 	0.47169	0.75077	0.92643	0.112
Mof_C 	C 	0.3909	0.77977	0.90328	-0.205
Mof_H 	H 	0.3954	0.8001	0.9163	0.104
Mof_C 	C 	0.36523	0.7799	0.87759	0.156
Mof_H 	H 	0.3523	0.8003	0.8731	0.003
Mof_O 	O 	0.31463	0.77781	0.82749	-0.835
Mof_O 	O 	0.2454	0.8486	0.8098	0.077
Mof_O 	O 	0.25505	0.84095	0.78989	-0.94
Mof_C 	C 	0.98266	0.25303	0.39111	-0.08
Mof_H 	H 	0.9681	0.2543	0.3714	0.069
Mof_C 	C 	0.97169	0.25077	0.42643	0.112
Mof_C 	C 	0.8909	0.27977	0.40328	-0.205
Mof_H 	H 	0.8954	0.3001	0.4163	0.104
Mof_C 	C 	0.86523	0.2799	0.37759	0.156
Mof_H 	H 	0.8523	0.3003	0.3731	0.003
Mof_O 	O 	0.81463	0.27781	0.32749	-0.835
Mof_O 	O 	0.7454	0.3486	0.3098	0.077
Mof_O 	O 	0.75505	0.34095	0.28989	-0.94
Mof_C 	C 	0.10889	0.48266	0.24697	-0.082
Mof_H 	H 	0.1286	0.4681	0.2457	0.069
Mof_C 	C 	0.07357	0.47169	0.24923	0.112
Mof_C 	C 	0.09672	0.3909	0.22023	-0.205
Mof_H 	H 	0.0837	0.3954	0.1999	0.104
Mof_C 	C 	0.12241	0.36523	0.2201	0.156
Mof_H 	H 	0.1269	0.3523	0.1997	0.003
Mof_O 	O 	0.17251	0.31463	0.22219	-0.835
Mof_O 	O 	0.1902	0.2454	0.1514	0.077
Mof_O 	O 	0.21011	0.25505	0.15905	-0.94
Mof_C 	C 	0.60889	0.98266	0.74697	-0.08
Mof_H 	H 	0.6286	0.9681	0.7457	0.069
Mof_C 	C 	0.57357	0.97169	0.74923	0.112
Mof_C 	C 	0.59672	0.8909	0.72023	-0.205
Mof_H 	H 	0.5837	0.8954	0.6999	0.104
Mof_C 	C 	0.62241	0.86523	0.7201	0.156
Mof_H 	H 	0.6269	0.8523	0.6997	0.003
Mof_O 	O 	0.67251	0.81463	0.72219	-0.835
Mof_O 	O 	0.6902	0.7454	0.6514	0.077
Mof_O 	O 	0.71011	0.75505	0.65905	-0.94
Mof_C 	C 	0.10889	0.51734	0.75303	-0.083
Mof_H 	H 	0.1286	0.5319	0.7543	0.068
Mof_C 	C 	0.07357	0.52831	0.75077	0.111
Mof_C 	C 	0.09672	0.6091	0.77977	-0.206
Mof_H 	H 	0.0837	0.6046	0.8001	0.103
Mof_C 	C 	0.12241	0.63477	0.7799	0.155
Mof_H 	H 	0.1269	0.6477	0.8003	0.002
Mof_O 	O 	0.17251	0.68537	0.77781	-0.836
Mof_O 	O 	0.1902	0.7546	0.8486	0.076
Mof_O 	O 	0.21011	0.74495	0.84095	-0.941
Mof_C 	C 	0.60889	0.01734	0.25303	-0.085
Mof_H 	H 	0.6286	0.0319	0.2543	0.068
Mof_C 	C 	0.57357	0.02831	0.25077	0.111
Mof_C 	C 	0.59672	0.1091	0.27977	-0.206
Mof_H 	H 	0.5837	0.1046	0.3001	0.103
Mof_C 	C 	0.62241	0.13477	0.2799	0.155
Mof_H 	H 	0.6269	0.1477	0.3003	0.002
Mof_O 	O 	0.67251	0.18537	0.27781	-0.836
Mof_O 	O 	0.6902	0.2546	0.3486	0.076
Mof_O 	O 	0.71011	0.24495	0.34095	-0.941
Mof_C 	C 	0.89111	0.51734	0.24697	-0.083
Mof_H 	H 	0.8714	0.5319	0.2457	0.068
Mof_C 	C 	0.92643	0.52831	0.24923	0.111
Mof_C 	C 	0.90328	0.6091	0.22023	-0.206
Mof_H 	H 	0.9163	0.6046	0.1999	0.103
Mof_C 	C 	0.87759	0.63477	0.2201	0.155
Mof_H 	H 	0.8731	0.6477	0.1997	0.002
Mof_O 	O 	0.82749	0.68537	0.22219	-0.836
Mof_O 	O 	0.8098	0.7546	0.1514	0.076
Mof_O 	O 	0.78989	0.74495	0.15905	-0.941
Mof_C 	C 	0.39111	0.01734	0.74697	-0.085
Mof_H 	H 	0.3714	0.0319	0.7457	0.068
Mof_C 	C 	0.42643	0.02831	0.74923	0.111
Mof_C 	C 	0.40328	0.1091	0.72023	-0.206
Mof_H 	H 	0.4163	0.1046	0.6999	0.103
Mof_C 	C 	0.37759	0.13477	0.7201	0.155
Mof_H 	H 	0.3731	0.1477	0.6997	0.002
Mof_O 	O 	0.32749	0.18537	0.72219	-0.836
Mof_O 	O 	0.3098	0.2546	0.6514	0.076
Mof_O 	O 	0.28989	0.24495	0.65905	-0.941
Mof_C 	C 	0.89111	0.48266	0.75303	-0.083
Mof_H 	H 	0.8714	0.4681	0.7543	0.068
Mof_C 	C 	0.92643	0.47169	0.75077	0.111
Mof_C 	C 	0.90328	0.3909	0.77977	-0.206
Mof_H 	H 	0.9163	0.3954	0.8001	0.103
Mof_C 	C 	0.87759	0.36523	0.7799	0.155
Mof_H 	H 	0.8731	0.3523	0.8003	0.002
Mof_O 	O 	0.82749	0.31463	0.77781	-0.836
Mof_O 	O 	0.8098	0.2454	0.8486	0.076
Mof_O 	O 	0.78989	0.25505	0.84095	-0.941
Mof_C 	C 	0.39111	0.98266	0.25303	-0.081
Mof_H 	H 	0.3714	0.9681	0.2543	0.068
Mof_C 	C 	0.42643	0.97169	0.25077	0.111
Mof_C 	C 	0.40328	0.8909	0.27977	-0.206
Mof_H 	H 	0.4163	0.8954	0.3001	0.103
Mof_C 	C 	0.37759	0.86523	0.2799	0.155
Mof_H 	H 	0.3731	0.8523	0.3003	0.002
Mof_O 	O 	0.32749	0.81463	0.27781	-0.836
Mof_O 	O 	0.3098	0.7454	0.3486	0.076
Mof_O 	O 	0.28989	0.75505	0.34095	-0.941
Mof_C 	C 	0.24697	0.10889	0.48266	-0.083
Mof_H 	H 	0.2457	0.1286	0.4681	0.068
Mof_C 	C 	0.24923	0.07357	0.47169	0.111
Mof_C 	C 	0.22023	0.09672	0.3909	-0.206
Mof_H 	H 	0.1999	0.0837	0.3954	0.103
Mof_C 	C 	0.2201	0.12241	0.36523	0.155
Mof_H 	H 	0.1997	0.1269	0.3523	0.002
Mof_O 	O 	0.22219	0.17251	0.31463	-0.836
Mof_O 	O 	0.1514	0.1902	0.2454	0.076
Mof_O 	O 	0.15905	0.21011	0.25505	-0.941
Mof_C 	C 	0.74697	0.60889	0.98266	-0.081
Mof_H 	H 	0.7457	0.6286	0.9681	0.068
Mof_C 	C 	0.74923	0.57357	0.97169	0.111
Mof_C 	C 	0.72023	0.59672	0.8909	-0.206
Mof_H 	H 	0.6999	0.5837	0.8954	0.103
Mof_C 	C 	0.7201	0.62241	0.86523	0.155
Mof_H 	H 	0.6997	0.6269	0.8523	0.002
Mof_O 	O 	0.72219	0.67251	0.81463	-0.836
Mof_O 	O 	0.6514	0.6902	0.7454	0.076
Mof_O 	O 	0.65905	0.71011	0.75505	-0.941
Mof_C 	C 	0.75303	0.10889	0.51734	-0.083
Mof_H 	H 	0.7543	0.1286	0.5319	0.068
Mof_C 	C 	0.75077	0.07357	0.52831	0.111
Mof_C 	C 	0.77977	0.09672	0.6091	-0.206
Mof_H 	H 	0.8001	0.0837	0.6046	0.103
Mof_C 	C 	0.7799	0.12241	0.63477	0.155
Mof_H 	H 	0.8003	0.1269	0.6477	0.002
Mof_O 	O 	0.77781	0.17251	0.68537	-0.836
Mof_O 	O 	0.8486	0.1902	0.7546	0.076
Mof_O 	O 	0.84095	0.21011	0.74495	-0.941
Mof_C 	C 	0.25303	0.60889	0.01734	-0.085
Mof_H 	H 	0.2543	0.6286	0.0319	0.068
Mof_C 	C 	0.25077	0.57357	0.02831	0.111
Mof_C 	C 	0.27977	0.59672	0.1091	-0.206
Mof_H 	H 	0.3001	0.5837	0.1046	0.103
Mof_C 	C 	0.2799	0.62241	0.13477	0.155
Mof_H 	H 	0.3003	0.6269	0.1477	0.002
Mof_O 	O 	0.27781	0.67251	0.18537	-0.836
Mof_O 	O 	0.3486	0.6902	0.2546	0.076
Mof_O 	O 	0.34095	0.71011	0.24495	-0.941
Mof_C 	C 	0.24697	0.89111	0.51734	-0.083
Mof_H 	H 	0.2457	0.8714	0.5319	0.068
Mof_C 	C 	0.24923	0.92643	0.52831	0.111
Mof_C 	C 	0.22023	0.90328	0.6091	-0.206
Mof_H 	H 	0.1999	0.9163	0.6046	0.103
Mof_C 	C 	0.2201	0.87759	0.63477	0.155
Mof_H 	H 	0.1997	0.8731	0.6477	0.002
Mof_O 	O 	0.22219	0.82749	0.68537	-0.836
Mof_O 	O 	0.1514	0.8098	0.7546	0.076
Mof_O 	O 	0.15905	0.78989	0.74495	-0.941
Mof_C 	C 	0.74697	0.39111	0.01734	-0.085
Mof_H 	H 	0.7457	0.3714	0.0319	0.068
Mof_C 	C 	0.74923	0.42643	0.02831	0.111
Mof_C 	C 	0.72023	0.40328	0.1091	-0.206
Mof_H 	H 	0.6999	0.4163	0.1046	0.103
Mof_C 	C 	0.7201	0.37759	0.13477	0.155
Mof_H 	H 	0.6997	0.3731	0.1477	0.002
Mof_O 	O 	0.72219	0.32749	0.18537	-0.836
Mof_O 	O 	0.6514	0.3098	0.2546	0.076
Mof_O 	O 	0.65905	0.28989	0.24495	-0.941
Mof_C 	C 	0.75303	0.89111	0.48266	-0.083
Mof_H 	H 	0.7543	0.8714	0.4681	0.068
Mof_C 	C 	0.75077	0.92643	0.47169	0.111
Mof_C 	C 	0.77977	0.90328	0.3909	-0.206
Mof_H 	H 	0.8001	0.9163	0.3954	0.103
Mof_C 	C 	0.7799	0.87759	0.36523	0.155
Mof_H 	H 	0.8003	0.8731	0.3523	0.002
Mof_O 	O 	0.77781	0.82749	0.31463	-0.836
Mof_O 	O 	0.8486	0.8098	0.2454	0.076
Mof_O 	O 	0.84095	0.78989	0.25505	-0.941
Mof_C 	C 	0.25303	0.39111	0.98266	-0.081
Mof_H 	H 	0.2543	0.3714	0.9681	0.068
Mof_C 	C 	0.25077	0.42643	0.97169	0.111
Mof_C 	C 	0.27977	0.40328	0.8909	-0.206
Mof_H 	H 	0.3001	0.4163	0.8954	0.103
Mof_C 	C 	0.2799	0.37759	0.86523	0.155
Mof_H 	H 	0.3003	0.3731	0.8523	0.002
Mof_O 	O 	0.27781	0.32749	0.81463	-0.836
Mof_O 	O 	0.3486	0.3098	0.7454	0.076
Mof_O 	O 	0.34095	0.28989	0.75505	-0.941
Mof_C 	C 	0.24697	0.48266	0.89111	-0.083
Mof_H 	H 	0.2457	0.4681	0.8714	0.068
Mof_C 	C 	0.24923	0.47169	0.92643	0.111
Mof_C 	C 	0.22023	0.3909	0.90328	-0.206
Mof_H 	H 	0.1999	0.3954	0.9163	0.103
Mof_C 	C 	0.2201	0.36523	0.87759	0.155
Mof_H 	H 	0.1997	0.3523	0.8731	0.002
Mof_O 	O 	0.22219	0.31463	0.82749	-0.836
Mof_O 	O 	0.1514	0.2454	0.8098	0.076
Mof_O 	O 	0.15905	0.25505	0.78989	-0.941
Mof_C 	C 	0.74697	0.98266	0.39111	-0.081
Mof_H 	H 	0.7457	0.9681	0.3714	0.068
Mof_C 	C 	0.74923	0.97169	0.42643	0.111
Mof_C 	C 	0.72023	0.8909	0.40328	-0.206
Mof_H 	H 	0.6999	0.8954	0.4163	0.103
Mof_C 	C 	0.7201	0.86523	0.37759	0.155
Mof_H 	H 	0.6997	0.8523	0.3731	0.002
Mof_O 	O 	0.72219	0.81463	0.32749	-0.836
Mof_O 	O 	0.6514	0.7454	0.3098	0.076
Mof_O 	O 	0.65905	0.75505	0.28989	-0.941
Mof_C 	C 	0.75303	0.51734	0.89111	-0.083
Mof_H 	H 	0.7543	0.5319	0.8714	0.068
Mof_C 	C 	0.75077	0.52831	0.92643	0.111
Mof_C 	C 	0.77977	0.6091	0.90328	-0.206
Mof_H 	H 	0.8001	0.6046	0.9163	0.103
Mof_C 	C 	0.7799	0.63477	0.87759	0.155
Mof_H 	H 	0.8003	0.6477	0.8731	0.002
Mof_O 	O 	0.77781	0.68537	0.82749	-0.836
Mof_O 	O 	0.8486	0.7546	0.8098	0.077
Mof_O 	O 	0.84095	0.74495	0.78989	-0.941
Mof_C 	C 	0.25303	0.01734	0.39111	-0.085
Mof_H 	H 	0.2543	0.0319	0.3714	0.068
Mof_C 	C 	0.25077	0.02831	0.42643	0.111
Mof_C 	C 	0.27977	0.1091	0.40328	-0.206
Mof_H 	H 	0.3001	0.1046	0.4163	0.103
Mof_C 	C 	0.2799	0.13477	0.37759	0.155
Mof_H 	H 	0.3003	0.1477	0.3731	0.002
Mof_O 	O 	0.27781	0.18537	0.32749	-0.836
Mof_O 	O 	0.3486	0.2546	0.3098	0.076
Mof_O 	O 	0.34095	0.24495	0.28989	-0.941
Mof_C 	C 	0.24697	0.51734	0.10889	-0.083
Mof_H 	H 	0.2457	0.5319	0.1286	0.068
Mof_C 	C 	0.24923	0.52831	0.07357	0.111
Mof_C 	C 	0.22023	0.6091	0.09672	-0.206
Mof_H 	H 	0.1999	0.6046	0.0837	0.103
Mof_C 	C 	0.2201	0.63477	0.12241	0.155
Mof_H 	H 	0.1997	0.6477	0.1269	0.002
Mof_O 	O 	0.22219	0.68537	0.17251	-0.836
Mof_O 	O 	0.1514	0.7546	0.1902	0.076
Mof_O 	O 	0.15905	0.74495	0.21011	-0.941
Mof_C 	C 	0.74697	0.01734	0.60889	-0.085
Mof_H 	H 	0.7457	0.0319	0.6286	0.068
Mof_C 	C 	0.74923	0.02831	0.57357	0.111
Mof_C 	C 	0.72023	0.1091	0.59672	-0.206
Mof_H 	H 	0.6999	0.1046	0.5837	0.103
Mof_C 	C 	0.7201	0.13477	0.62241	0.155
Mof_H 	H 	0.6997	0.1477	0.6269	0.002
Mof_O 	O 	0.72219	0.18537	0.67251	-0.836
Mof_O 	O 	0.6514	0.2546	0.6902	0.076
Mof_O 	O 	0.65905	0.24495	0.71011	-0.941
Mof_C 	C 	0.75303	0.48266	0.10889	-0.083
Mof_H 	H 	0.7543	0.4681	0.1286	0.068
Mof_C 	C 	0.75077	0.47169	0.07357	0.111
Mof_C 	C 	0.77977	0.3909	0.09672	-0.206
Mof_H 	H 	0.8001	0.3954	0.0837	0.103
Mof_C 	C 	0.7799	0.36523	0.12241	0.155
Mof_H 	H 	0.8003	0.3523	0.1269	0.002
Mof_O 	O 	0.77781	0.31463	0.17251	-0.836
Mof_O 	O 	0.8486	0.2454	0.1902	0.076
Mof_O 	O 	0.84095	0.25505	0.21011	-0.941
Mof_C 	C 	0.25303	0.98266	0.60889	-0.081
Mof_H 	H 	0.2543	0.9681	0.6286	0.068
Mof_C 	C 	0.25077	0.97169	0.57357	0.111
Mof_C 	C 	0.27977	0.8909	0.59672	-0.206
Mof_H 	H 	0.3001	0.8954	0.5837	0.103
Mof_C 	C 	0.2799	0.86523	0.62241	0.155
Mof_H 	H 	0.3003	0.8523	0.6269	0.002
Mof_O 	O 	0.27781	0.81463	0.67251	-0.836
Mof_O 	O 	0.3486	0.7454	0.6902	0.076
Mof_O 	O 	0.34095	0.75505	0.71011	-0.941
Mof_C 	C 	0.48266	0.10889	0.75303	-0.083
Mof_H 	H 	0.4681	0.1286	0.7543	0.068
Mof_C 	C 	0.47169	0.07357	0.75077	0.111
Mof_C 	C 	0.3909	0.09672	0.77977	-0.206
Mof_H 	H 	0.3954	0.0837	0.8001	0.103
Mof_C 	C 	0.36523	0.12241	0.7799	0.155
Mof_H 	H 	0.3523	0.1269	0.8003	0.002
Mof_O 	O 	0.31463	0.17251	0.77781	-0.836
Mof_O 	O 	0.2454	0.1902	0.8486	0.076
Mof_O 	O 	0.25505	0.21011	0.84095	-0.941
Mof_C 	C 	0.98266	0.60889	0.25303	-0.081
Mof_H 	H 	0.9681	0.6286	0.2543	0.068
Mof_C 	C 	0.97169	0.57357	0.25077	0.111
Mof_C 	C 	0.8909	0.59672	0.27977	-0.206
Mof_H 	H 	0.8954	0.5837	0.3001	0.103
Mof_C 	C 	0.86523	0.62241	0.2799	0.155
Mof_H 	H 	0.8523	0.6269	0.3003	0.002
Mof_O 	O 	0.81463	0.67251	0.27781	-0.836
Mof_O 	O 	0.7454	0.6902	0.3486	0.076
Mof_O 	O 	0.75505	0.71011	0.34095	-0.941
Mof_C 	C 	0.51734	0.10889	0.24697	-0.083
Mof_H 	H 	0.5319	0.1286	0.2457	0.068
Mof_C 	C 	0.52831	0.07357	0.24923	0.111
Mof_C 	C 	0.6091	0.09672	0.22023	-0.206
Mof_H 	H 	0.6046	0.0837	0.1999	0.103
Mof_C 	C 	0.63477	0.12241	0.2201	0.155
Mof_H 	H 	0.6477	0.1269	0.1997	0.002
Mof_O 	O 	0.68537	0.17251	0.22219	-0.836
Mof_O 	O 	0.7546	0.1902	0.1514	0.076
Mof_O 	O 	0.74495	0.21011	0.15905	-0.941
Mof_C 	C 	0.01734	0.60889	0.74697	-0.085
Mof_H 	H 	0.0319	0.6286	0.7457	0.068
Mof_C 	C 	0.02831	0.57357	0.74923	0.111
Mof_C 	C 	0.1091	0.59672	0.72023	-0.206
Mof_H 	H 	0.1046	0.5837	0.6999	0.103
Mof_C 	C 	0.13477	0.62241	0.7201	0.155
Mof_H 	H 	0.1477	0.6269	0.6997	0.002
Mof_O 	O 	0.18537	0.67251	0.72219	-0.836
Mof_O 	O 	0.2546	0.6902	0.6514	0.076
Mof_O 	O 	0.24495	0.71011	0.65905	-0.941
Mof_C 	C 	0.51734	0.89111	0.75303	-0.083
Mof_H 	H 	0.5319	0.8714	0.7543	0.068
Mof_C 	C 	0.52831	0.92643	0.75077	0.111
Mof_C 	C 	0.6091	0.90328	0.77977	-0.206
Mof_H 	H 	0.6046	0.9163	0.8001	0.103
Mof_C 	C 	0.63477	0.87759	0.7799	0.155
Mof_H 	H 	0.6477	0.8731	0.8003	0.002
Mof_O 	O 	0.68537	0.82749	0.77781	-0.836
Mof_O 	O 	0.7546	0.8098	0.8486	0.077
Mof_O 	O 	0.74495	0.78989	0.84095	-0.941
Mof_C 	C 	0.01734	0.39111	0.25303	-0.085
Mof_H 	H 	0.0319	0.3714	0.2543	0.068
Mof_C 	C 	0.02831	0.42643	0.25077	0.111
Mof_C 	C 	0.1091	0.40328	0.27977	-0.206
Mof_H 	H 	0.1046	0.4163	0.3001	0.103
Mof_C 	C 	0.13477	0.37759	0.2799	0.155
Mof_H 	H 	0.1477	0.3731	0.3003	0.002
Mof_O 	O 	0.18537	0.32749	0.27781	-0.836
Mof_O 	O 	0.2546	0.3098	0.3486	0.076
Mof_O 	O 	0.24495	0.28989	0.34095	-0.941
Mof_C 	C 	0.48266	0.89111	0.24697	-0.083
Mof_H 	H 	0.4681	0.8714	0.2457	0.068
Mof_C 	C 	0.47169	0.92643	0.24923	0.111
Mof_C 	C 	0.3909	0.90328	0.22023	-0.206
Mof_H 	H 	0.3954	0.9163	0.1999	0.103
Mof_C 	C 	0.36523	0.87759	0.2201	0.155
Mof_H 	H 	0.3523	0.8731	0.1997	0.002
Mof_O 	O 	0.31463	0.82749	0.22219	-0.836
Mof_O 	O 	0.2454	0.8098	0.1514	0.076
Mof_O 	O 	0.25505	0.78989	0.15905	-0.941
Mof_C 	C 	0.98266	0.39111	0.74697	-0.081
Mof_H 	H 	0.9681	0.3714	0.7457	0.068
Mof_C 	C 	0.97169	0.42643	0.74923	0.111
Mof_C 	C 	0.8909	0.40328	0.72023	-0.206
Mof_H 	H 	0.8954	0.4163	0.6999	0.103
Mof_C 	C 	0.86523	0.37759	0.7201	0.155
Mof_H 	H 	0.8523	0.3731	0.6997	0.002
Mof_O 	O 	0.81463	0.32749	0.72219	-0.836
Mof_O 	O 	0.7454	0.3098	0.6514	0.076
Mof_O 	O 	0.75505	0.28989	0.65905	-0.941
Mof_C 	C 	0.10889	0.24697	0.51734	-0.083
Mof_H 	H 	0.1286	0.2457	0.5319	0.068
Mof_C 	C 	0.07357	0.24923	0.52831	0.111
Mof_C 	C 	0.09672	0.22023	0.6091	-0.206
Mof_H 	H 	0.0837	0.1999	0.6046	0.103
Mof_C 	C 	0.12241	0.2201	0.63477	0.155
Mof_H 	H 	0.1269	0.1997	0.6477	0.002
Mof_O 	O 	0.17251	0.22219	0.68537	-0.836
Mof_O 	O 	0.1902	0.1514	0.7546	0.076
Mof_O 	O 	0.21011	0.15905	0.74495	-0.941
Mof_C 	C 	0.60889	0.74697	0.01734	-0.085
Mof_H 	H 	0.6286	0.7457	0.0319	0.068
Mof_C 	C 	0.57357	0.74923	0.02831	0.111
Mof_C 	C 	0.59672	0.72023	0.1091	-0.206
Mof_H 	H 	0.5837	0.6999	0.1046	0.103
Mof_C 	C 	0.62241	0.7201	0.13477	0.155
Mof_H 	H 	0.6269	0.6997	0.1477	0.002
Mof_O 	O 	0.67251	0.72219	0.18537	-0.836
Mof_O 	O 	0.6902	0.6514	0.2546	0.076
Mof_O 	O 	0.71011	0.65905	0.24495	-0.941
Mof_C 	C 	0.10889	0.75303	0.48266	-0.083
Mof_H 	H 	0.1286	0.7543	0.4681	0.068
Mof_C 	C 	0.07357	0.75077	0.47169	0.111
Mof_C 	C 	0.09672	0.77977	0.3909	-0.206
Mof_H 	H 	0.0837	0.8001	0.3954	0.103
Mof_C 	C 	0.12241	0.7799	0.36523	0.155
Mof_H 	H 	0.1269	0.8003	0.3523	0.002
Mof_O 	O 	0.17251	0.77781	0.31463	-0.836
Mof_O 	O 	0.1902	0.8486	0.2454	0.076
Mof_O 	O 	0.21011	0.84095	0.25505	-0.941
Mof_C 	C 	0.60889	0.25303	0.98266	-0.081
Mof_H 	H 	0.6286	0.2543	0.9681	0.068
Mof_C 	C 	0.57357	0.25077	0.97169	0.111
Mof_C 	C 	0.59672	0.27977	0.8909	-0.206
Mof_H 	H 	0.5837	0.3001	0.8954	0.103
Mof_C 	C 	0.62241	0.2799	0.86523	0.155
Mof_H 	H 	0.6269	0.3003	0.8523	0.002
Mof_O 	O 	0.67251	0.27781	0.81463	-0.836
Mof_O 	O 	0.6902	0.3486	0.7454	0.076
Mof_O 	O 	0.71011	0.34095	0.75505	-0.941
Mof_C 	C 	0.89111	0.24697	0.48266	-0.083
Mof_H 	H 	0.8714	0.2457	0.4681	0.068
Mof_C 	C 	0.92643	0.24923	0.47169	0.111
Mof_C 	C 	0.90328	0.22023	0.3909	-0.206
Mof_H 	H 	0.9163	0.1999	0.3954	0.103
Mof_C 	C 	0.87759	0.2201	0.36523	0.155
Mof_H 	H 	0.8731	0.1997	0.3523	0.002
Mof_O 	O 	0.82749	0.22219	0.31463	-0.836
Mof_O 	O 	0.8098	0.1514	0.2454	0.076
Mof_O 	O 	0.78989	0.15905	0.25505	-0.941
Mof_C 	C 	0.39111	0.74697	0.98266	-0.081
Mof_H 	H 	0.3714	0.7457	0.9681	0.068
Mof_C 	C 	0.42643	0.74923	0.97169	0.111
Mof_C 	C 	0.40328	0.72023	0.8909	-0.206
Mof_H 	H 	0.4163	0.6999	0.8954	0.103
Mof_C 	C 	0.37759	0.7201	0.86523	0.155
Mof_H 	H 	0.3731	0.6997	0.8523	0.002
Mof_O 	O 	0.32749	0.72219	0.81463	-0.836
Mof_O 	O 	0.3098	0.6514	0.7454	0.076
Mof_O 	O 	0.28989	0.65905	0.75505	-0.941
Mof_C 	C 	0.89111	0.75303	0.51734	-0.083
Mof_H 	H 	0.8714	0.7543	0.5319	0.068
Mof_C 	C 	0.92643	0.75077	0.52831	0.111
Mof_C 	C 	0.90328	0.77977	0.6091	-0.206
Mof_H 	H 	0.9163	0.8001	0.6046	0.103
Mof_C 	C 	0.87759	0.7799	0.63477	0.155
Mof_H 	H 	0.8731	0.8003	0.6477	0.002
Mof_O 	O 	0.82749	0.77781	0.68537	-0.836
Mof_O 	O 	0.8098	0.8486	0.7546	0.077
Mof_O 	O 	0.78989	0.84095	0.74495	-0.941
Mof_C 	C 	0.39111	0.25303	0.01734	-0.085
Mof_H 	H 	0.3714	0.2543	0.0319	0.068
Mof_C 	C 	0.42643	0.25077	0.02831	0.111
Mof_C 	C 	0.40328	0.27977	0.1091	-0.206
Mof_H 	H 	0.4163	0.3001	0.1046	0.103
Mof_C 	C 	0.37759	0.2799	0.13477	0.155
Mof_H 	H 	0.3731	0.3003	0.1477	0.002
Mof_O 	O 	0.32749	0.27781	0.18537	-0.836
Mof_O 	O 	0.3098	0.3486	0.2546	0.076
Mof_O 	O 	0.28989	0.34095	0.24495	-0.941
Mof_C 	C 	0.51734	0.75303	0.89111	-0.083
Mof_H 	H 	0.5319	0.7543	0.8714	0.068
Mof_C 	C 	0.52831	0.75077	0.92643	0.111
Mof_C 	C 	0.6091	0.77977	0.90328	-0.206
Mof_H 	H 	0.6046	0.8001	0.9163	0.103
Mof_C 	C 	0.63477	0.7799	0.87759	0.155
Mof_H 	H 	0.6477	0.8003	0.8731	0.002
Mof_O 	O 	0.68537	0.77781	0.82749	-0.836
Mof_O 	O 	0.7546	0.8486	0.8098	0.077
Mof_O 	O 	0.74495	0.84095	0.78989	-0.941
Mof_C 	C 	0.01734	0.25303	0.39111	-0.085
Mof_H 	H 	0.0319	0.2543	0.3714	0.068
Mof_C 	C 	0.02831	0.25077	0.42643	0.111
Mof_C 	C 	0.1091	0.27977	0.40328	-0.206
Mof_H 	H 	0.1046	0.3001	0.4163	0.103
Mof_C 	C 	0.13477	0.2799	0.37759	0.155
Mof_H 	H 	0.1477	0.3003	0.3731	0.002
Mof_O 	O 	0.18537	0.27781	0.32749	-0.836
Mof_O 	O 	0.2546	0.3486	0.3098	0.076
Mof_O 	O 	0.24495	0.34095	0.28989	-0.941
Mof_C 	C 	0.48266	0.24697	0.89111	-0.083
Mof_H 	H 	0.4681	0.2457	0.8714	0.068
Mof_C 	C 	0.47169	0.24923	0.92643	0.111
Mof_C 	C 	0.3909	0.22023	0.90328	-0.206
Mof_H 	H 	0.3954	0.1999	0.9163	0.103
Mof_C 	C 	0.36523	0.2201	0.87759	0.155
Mof_H 	H 	0.3523	0.1997	0.8731	0.002
Mof_O 	O 	0.31463	0.22219	0.82749	-0.836
Mof_O 	O 	0.2454	0.1514	0.8098	0.076
Mof_O 	O 	0.25505	0.15905	0.78989	-0.941
Mof_C 	C 	0.98266	0.74697	0.39111	-0.081
Mof_H 	H 	0.9681	0.7457	0.3714	0.068
Mof_C 	C 	0.97169	0.74923	0.42643	0.111
Mof_C 	C 	0.8909	0.72023	0.40328	-0.206
Mof_H 	H 	0.8954	0.6999	0.4163	0.103
Mof_C 	C 	0.86523	0.7201	0.37759	0.155
Mof_H 	H 	0.8523	0.6997	0.3731	0.002
Mof_O 	O 	0.81463	0.72219	0.32749	-0.836
Mof_O 	O 	0.7454	0.6514	0.3098	0.076
Mof_O 	O 	0.75505	0.65905	0.28989	-0.941
Mof_C 	C 	0.48266	0.75303	0.10889	-0.083
Mof_H 	H 	0.4681	0.7543	0.1286	0.068
Mof_C 	C 	0.47169	0.75077	0.07357	0.111
Mof_C 	C 	0.3909	0.77977	0.09672	-0.206
Mof_H 	H 	0.3954	0.8001	0.0837	0.103
Mof_C 	C 	0.36523	0.7799	0.12241	0.155
Mof_H 	H 	0.3523	0.8003	0.1269	0.002
Mof_O 	O 	0.31463	0.77781	0.17251	-0.836
Mof_O 	O 	0.2454	0.8486	0.1902	0.076
Mof_O 	O 	0.25505	0.84095	0.21011	-0.941
Mof_C 	C 	0.98266	0.25303	0.60889	-0.081
Mof_H 	H 	0.9681	0.2543	0.6286	0.068
Mof_C 	C 	0.97169	0.25077	0.57357	0.111
Mof_C 	C 	0.8909	0.27977	0.59672	-0.206
Mof_H 	H 	0.8954	0.3001	0.5837	0.103
Mof_C 	C 	0.86523	0.2799	0.62241	0.155
Mof_H 	H 	0.8523	0.3003	0.6269	0.002
Mof_O 	O 	0.81463	0.27781	0.67251	-0.836
Mof_O 	O 	0.7454	0.3486	0.6902	0.076
Mof_O 	O 	0.75505	0.34095	0.71011	-0.941
Mof_C 	C 	0.51734	0.24697	0.10889	-0.083
Mof_H 	H 	0.5319	0.2457	0.1286	0.068
Mof_C 	C 	0.52831	0.24923	0.07357	0.111
Mof_C 	C 	0.6091	0.22023	0.09672	-0.206
Mof_H 	H 	0.6046	0.1999	0.0837	0.103
Mof_C 	C 	0.63477	0.2201	0.12241	0.155
Mof_H 	H 	0.6477	0.1997	0.1269	0.002
Mof_O 	O 	0.68537	0.22219	0.17251	-0.836
Mof_O 	O 	0.7546	0.1514	0.1902	0.076
Mof_O 	O 	0.74495	0.15905	0.21011	-0.941
Mof_C 	C 	0.01734	0.74697	0.60889	-0.085
Mof_H 	H 	0.0319	0.7457	0.6286	0.068
Mof_C 	C 	0.02831	0.74923	0.57357	0.111
Mof_C 	C 	0.1091	0.72023	0.59672	-0.206
Mof_H 	H 	0.1046	0.6999	0.5837	0.103
Mof_C 	C 	0.13477	0.7201	0.62241	0.155
Mof_H 	H 	0.1477	0.6997	0.6269	0.002
Mof_O 	O 	0.18537	0.72219	0.67251	-0.836
Mof_O 	O 	0.2546	0.6514	0.6902	0.076
Mof_O 	O 	0.24495	0.65905	0.71011	-0.941
Mof_C 	C 	0.89111	0.51734	0.75303	-0.083
Mof_H 	H 	0.8714	0.5319	0.7543	0.068
Mof_C 	C 	0.92643	0.52831	0.75077	0.111
Mof_C 	C 	0.90328	0.6091	0.77977	-0.206
Mof_H 	H 	0.9163	0.6046	0.8001	0.103
Mof_C 	C 	0.87759	0.63477	0.7799	0.155
Mof_H 	H 	0.8731	0.6477	0.8003	0.002
Mof_O 	O 	0.82749	0.68537	0.77781	-0.836
Mof_O 	O 	0.8098	0.7546	0.8486	0.077
Mof_O 	O 	0.78989	0.74495	0.84095	-0.941
Mof_C 	C 	0.39111	0.01734	0.25303	-0.085
Mof_H 	H 	0.3714	0.0319	0.2543	0.068
Mof_C 	C 	0.42643	0.02831	0.25077	0.111
Mof_C 	C 	0.40328	0.1091	0.27977	-0.206
Mof_H 	H 	0.4163	0.1046	0.3001	0.103
Mof_C 	C 	0.37759	0.13477	0.2799	0.155
Mof_H 	H 	0.3731	0.1477	0.3003	0.002
Mof_O 	O 	0.32749	0.18537	0.27781	-0.836
Mof_O 	O 	0.3098	0.2546	0.3486	0.076
Mof_O 	O 	0.28989	0.24495	0.34095	-0.941
Mof_C 	C 	0.89111	0.48266	0.24697	-0.083
Mof_H 	H 	0.8714	0.4681	0.2457	0.068
Mof_C 	C 	0.92643	0.47169	0.24923	0.111
Mof_C 	C 	0.90328	0.3909	0.22023	-0.206
Mof_H 	H 	0.9163	0.3954	0.1999	0.103
Mof_C 	C 	0.87759	0.36523	0.2201	0.155
Mof_H 	H 	0.8731	0.3523	0.1997	0.002
Mof_O 	O 	0.82749	0.31463	0.22219	-0.836
Mof_O 	O 	0.8098	0.2454	0.1514	0.076
Mof_O 	O 	0.78989	0.25505	0.15905	-0.941
Mof_C 	C 	0.39111	0.98266	0.74697	-0.081
Mof_H 	H 	0.3714	0.9681	0.7457	0.068
Mof_C 	C 	0.42643	0.97169	0.74923	0.111
Mof_C 	C 	0.40328	0.8909	0.72023	-0.206
Mof_H 	H 	0.4163	0.8954	0.6999	0.103
Mof_C 	C 	0.37759	0.86523	0.7201	0.155
Mof_H 	H 	0.3731	0.8523	0.6997	0.002
Mof_O 	O 	0.32749	0.81463	0.72219	-0.836
Mof_O 	O 	0.3098	0.7454	0.6514	0.076
Mof_O 	O 	0.28989	0.75505	0.65905	-0.941
Mof_C 	C 	0.10889	0.48266	0.75303	-0.083
Mof_H 	H 	0.1286	0.4681	0.7543	0.068
Mof_C 	C 	0.07357	0.47169	0.75077	0.111
Mof_C 	C 	0.09672	0.3909	0.77977	-0.206
Mof_H 	H 	0.0837	0.3954	0.8001	0.103
Mof_C 	C 	0.12241	0.36523	0.7799	0.155
Mof_H 	H 	0.1269	0.3523	0.8003	0.002
Mof_O 	O 	0.17251	0.31463	0.77781	-0.836
Mof_O 	O 	0.1902	0.2454	0.8486	0.076
Mof_O 	O 	0.21011	0.25505	0.84095	-0.941
Mof_C 	C 	0.60889	0.98266	0.25303	-0.081
Mof_H 	H 	0.6286	0.9681	0.2543	0.068
Mof_C 	C 	0.57357	0.97169	0.25077	0.111
Mof_C 	C 	0.59672	0.8909	0.27977	-0.206
Mof_H 	H 	0.5837	0.8954	0.3001	0.103
Mof_C 	C 	0.62241	0.86523	0.2799	0.155
Mof_H 	H 	0.6269	0.8523	0.3003	0.002
Mof_O 	O 	0.67251	0.81463	0.27781	-0.836
Mof_O 	O 	0.6902	0.7454	0.3486	0.076
Mof_O 	O 	0.71011	0.75505	0.34095	-0.941
Mof_C 	C 	0.10889	0.51734	0.24697	-0.083
Mof_H 	H 	0.1286	0.5319	0.2457	0.068
Mof_C 	C 	0.07357	0.52831	0.24923	0.111
Mof_C 	C 	0.09672	0.6091	0.22023	-0.206
Mof_H 	H 	0.0837	0.6046	0.1999	0.103
Mof_C 	C 	0.12241	0.63477	0.2201	0.155
Mof_H 	H 	0.1269	0.6477	0.1997	0.002
Mof_O 	O 	0.17251	0.68537	0.22219	-0.836
Mof_O 	O 	0.1902	0.7546	0.1514	0.076
Mof_O 	O 	0.21011	0.74495	0.15905	-0.941
Mof_C 	C 	0.60889	0.01734	0.74697	-0.085
Mof_H 	H 	0.6286	0.0319	0.7457	0.068
Mof_C 	C 	0.57357	0.02831	0.74923	0.111
Mof_C 	C 	0.59672	0.1091	0.72023	-0.206
Mof_H 	H 	0.5837	0.1046	0.6999	0.103
Mof_C 	C 	0.62241	0.13477	0.7201	0.155
Mof_H 	H 	0.6269	0.1477	0.6997	0.002
Mof_O 	O 	0.67251	0.18537	0.72219	-0.836
Mof_O 	O 	0.6902	0.2546	0.6514	0.076
Mof_O 	O 	0.71011	0.24495	0.65905	-0.941
Mof_C 	C 	0.75303	0.89111	0.51734	-0.083
Mof_H 	H 	0.7543	0.8714	0.5319	0.068
Mof_C 	C 	0.75077	0.92643	0.52831	0.111
Mof_C 	C 	0.77977	0.90328	0.6091	-0.206
Mof_H 	H 	0.8001	0.9163	0.6046	0.103
Mof_C 	C 	0.7799	0.87759	0.63477	0.155
Mof_H 	H 	0.8003	0.8731	0.6477	0.002
Mof_O 	O 	0.77781	0.82749	0.68537	-0.836
Mof_O 	O 	0.8486	0.8098	0.7546	0.077
Mof_O 	O 	0.84095	0.78989	0.74495	-0.941
Mof_C 	C 	0.25303	0.39111	0.01734	-0.085
Mof_H 	H 	0.2543	0.3714	0.0319	0.068
Mof_C 	C 	0.25077	0.42643	0.02831	0.111
Mof_C 	C 	0.27977	0.40328	0.1091	-0.206
Mof_H 	H 	0.3001	0.4163	0.1046	0.103
Mof_C 	C 	0.2799	0.37759	0.13477	0.155
Mof_H 	H 	0.3003	0.3731	0.1477	0.002
Mof_O 	O 	0.27781	0.32749	0.18537	-0.836
Mof_O 	O 	0.3486	0.3098	0.2546	0.076
Mof_O 	O 	0.34095	0.28989	0.24495	-0.941
Mof_C 	C 	0.24697	0.89111	0.48266	-0.083
Mof_H 	H 	0.2457	0.8714	0.4681	0.068
Mof_C 	C 	0.24923	0.92643	0.47169	0.111
Mof_C 	C 	0.22023	0.90328	0.3909	-0.206
Mof_H 	H 	0.1999	0.9163	0.3954	0.103
Mof_C 	C 	0.2201	0.87759	0.36523	0.155
Mof_H 	H 	0.1997	0.8731	0.3523	0.002
Mof_O 	O 	0.22219	0.82749	0.31463	-0.836
Mof_O 	O 	0.1514	0.8098	0.2454	0.076
Mof_O 	O 	0.15905	0.78989	0.25505	-0.941
Mof_C 	C 	0.74697	0.39111	0.98266	-0.081
Mof_H 	H 	0.7457	0.3714	0.9681	0.068
Mof_C 	C 	0.74923	0.42643	0.97169	0.111
Mof_C 	C 	0.72023	0.40328	0.8909	-0.206
Mof_H 	H 	0.6999	0.4163	0.8954	0.103
Mof_C 	C 	0.7201	0.37759	0.86523	0.155
Mof_H 	H 	0.6997	0.3731	0.8523	0.002
Mof_O 	O 	0.72219	0.32749	0.81463	-0.836
Mof_O 	O 	0.6514	0.3098	0.7454	0.076
Mof_O 	O 	0.65905	0.28989	0.75505	-0.941
Mof_C 	C 	0.75303	0.10889	0.48266	-0.083
Mof_H 	H 	0.7543	0.1286	0.4681	0.068
Mof_C 	C 	0.75077	0.07357	0.47169	0.111
Mof_C 	C 	0.77977	0.09672	0.3909	-0.206
Mof_H 	H 	0.8001	0.0837	0.3954	0.103
Mof_C 	C 	0.7799	0.12241	0.36523	0.155
Mof_H 	H 	0.8003	0.1269	0.3523	0.002
Mof_O 	O 	0.77781	0.17251	0.31463	-0.836
Mof_O 	O 	0.8486	0.1902	0.2454	0.076
Mof_O 	O 	0.84095	0.21011	0.25505	-0.941
Mof_C 	C 	0.25303	0.60889	0.98266	-0.081
Mof_H 	H 	0.2543	0.6286	0.9681	0.068
Mof_C 	C 	0.25077	0.57357	0.97169	0.111
Mof_C 	C 	0.27977	0.59672	0.8909	-0.206
Mof_H 	H 	0.3001	0.5837	0.8954	0.103
Mof_C 	C 	0.2799	0.62241	0.86523	0.155
Mof_H 	H 	0.3003	0.6269	0.8523	0.002
Mof_O 	O 	0.27781	0.67251	0.81463	-0.836
Mof_O 	O 	0.3486	0.6902	0.7454	0.076
Mof_O 	O 	0.34095	0.71011	0.75505	-0.941
Mof_C 	C 	0.24697	0.10889	0.51734	-0.083
Mof_H 	H 	0.2457	0.1286	0.5319	0.068
Mof_C 	C 	0.24923	0.07357	0.52831	0.111
Mof_C 	C 	0.22023	0.09672	0.6091	-0.206
Mof_H 	H 	0.1999	0.0837	0.6046	0.103
Mof_C 	C 	0.2201	0.12241	0.63477	0.155
Mof_H 	H 	0.1997	0.1269	0.6477	0.002
Mof_O 	O 	0.22219	0.17251	0.68537	-0.836
Mof_O 	O 	0.1514	0.1902	0.7546	0.076
Mof_O 	O 	0.15905	0.21011	0.74495	-0.941
Mof_C 	C 	0.74697	0.60889	0.01734	-0.085
Mof_H 	H 	0.7457	0.6286	0.0319	0.068
Mof_C 	C 	0.74923	0.57357	0.02831	0.111
Mof_C 	C 	0.72023	0.59672	0.1091	-0.206
Mof_H 	H 	0.6999	0.5837	0.1046	0.103
Mof_C 	C 	0.7201	0.62241	0.13477	0.155
Mof_H 	H 	0.6997	0.6269	0.1477	0.002
Mof_O 	O 	0.72219	0.67251	0.18537	-0.836
Mof_O 	O 	0.6514	0.6902	0.2546	0.076
Mof_O 	O 	0.65905	0.71011	0.24495	-0.941
Mof_C 	C 	0.75303	0.51734	0.10889	-0.083
Mof_H 	H 	0.7543	0.5319	0.1286	0.068
Mof_C 	C 	0.75077	0.52831	0.07357	0.111
Mof_C 	C 	0.77977	0.6091	0.09672	-0.206
Mof_H 	H 	0.8001	0.6046	0.0837	0.103
Mof_C 	C 	0.7799	0.63477	0.12241	0.155
Mof_H 	H 	0.8003	0.6477	0.1269	0.002
Mof_O 	O 	0.77781	0.68537	0.17251	-0.836
Mof_O 	O 	0.8486	0.7546	0.1902	0.076
Mof_O 	O 	0.84095	0.74495	0.21011	-0.941
Mof_C 	C 	0.25303	0.01734	0.60889	-0.085
Mof_H 	H 	0.2543	0.0319	0.6286	0.068
Mof_C 	C 	0.25077	0.02831	0.57357	0.111
Mof_C 	C 	0.27977	0.1091	0.59672	-0.206
Mof_H 	H 	0.3001	0.1046	0.5837	0.103
Mof_C 	C 	0.2799	0.13477	0.62241	0.155
Mof_H 	H 	0.3003	0.1477	0.6269	0.002
Mof_O 	O 	0.27781	0.18537	0.67251	-0.836
Mof_O 	O 	0.3486	0.2546	0.6902	0.076
Mof_O 	O 	0.34095	0.24495	0.71011	-0.941
Mof_C 	C 	0.24697	0.48266	0.10889	-0.083
Mof_H 	H 	0.2457	0.4681	0.1286	0.068
Mof_C 	C 	0.24923	0.47169	0.07357	0.111
Mof_C 	C 	0.22023	0.3909	0.09672	-0.206
Mof_H 	H 	0.1999	0.3954	0.0837	0.103
Mof_C 	C 	0.2201	0.36523	0.12241	0.155
Mof_H 	H 	0.1997	0.3523	0.1269	0.002
Mof_O 	O 	0.22219	0.31463	0.17251	-0.836
Mof_O 	O 	0.1514	0.2454	0.1902	0.076
Mof_O 	O 	0.15905	0.25505	0.21011	-0.941
Mof_C 	C 	0.74697	0.98266	0.60889	-0.081
Mof_H 	H 	0.7457	0.9681	0.6286	0.068
Mof_C 	C 	0.74923	0.97169	0.57357	0.111
Mof_C 	C 	0.72023	0.8909	0.59672	-0.206
Mof_H 	H 	0.6999	0.8954	0.5837	0.103
Mof_C 	C 	0.7201	0.86523	0.62241	0.155
Mof_H 	H 	0.6997	0.8523	0.6269	0.002
Mof_O 	O 	0.72219	0.81463	0.67251	-0.836
Mof_O 	O 	0.6514	0.7454	0.6902	0.076
Mof_O 	O 	0.65905	0.75505	0.71011	-0.941
Mof_C 	C 	0.75303	0.48266	0.89111	-0.083
Mof_H 	H 	0.7543	0.4681	0.8714	0.068
Mof_C 	C 	0.75077	0.47169	0.92643	0.111
Mof_C 	C 	0.77977	0.3909	0.90328	-0.206
Mof_H 	H 	0.8001	0.3954	0.9163	0.103
Mof_C 	C 	0.7799	0.36523	0.87759	0.155
Mof_H 	H 	0.8003	0.3523	0.8731	0.002
Mof_O 	O 	0.77781	0.31463	0.82749	-0.836
Mof_O 	O 	0.8486	0.2454	0.8098	0.076
Mof_O 	O 	0.84095	0.25505	0.78989	-0.941
Mof_C 	C 	0.25303	0.98266	0.39111	-0.081
Mof_H 	H 	0.2543	0.9681	0.3714	0.068
Mof_C 	C 	0.25077	0.97169	0.42643	0.111
Mof_C 	C 	0.27977	0.8909	0.40328	-0.206
Mof_H 	H 	0.3001	0.8954	0.4163	0.103
Mof_C 	C 	0.2799	0.86523	0.37759	0.155
Mof_H 	H 	0.3003	0.8523	0.3731	0.002
Mof_O 	O 	0.27781	0.81463	0.32749	-0.836
Mof_O 	O 	0.3486	0.7454	0.3098	0.076
Mof_O 	O 	0.34095	0.75505	0.28989	-0.941
Mof_C 	C 	0.24697	0.51734	0.89111	-0.083
Mof_H 	H 	0.2457	0.5319	0.8714	0.068
Mof_C 	C 	0.24923	0.52831	0.92643	0.111
Mof_C 	C 	0.22023	0.6091	0.90328	-0.206
Mof_H 	H 	0.1999	0.6046	0.9163	0.103
Mof_C 	C 	0.2201	0.63477	0.87759	0.155
Mof_H 	H 	0.1997	0.6477	0.8731	0.002
Mof_O 	O 	0.22219	0.68537	0.82749	-0.836
Mof_O 	O 	0.1514	0.7546	0.8098	0.076
Mof_O 	O 	0.15905	0.74495	0.78989	-0.941
Mof_C 	C 	0.74697	0.01734	0.39111	-0.085
Mof_H 	H 	0.7457	0.0319	0.3714	0.068
Mof_C 	C 	0.74923	0.02831	0.42643	0.111
Mof_C 	C 	0.72023	0.1091	0.40328	-0.206
Mof_H 	H 	0.6999	0.1046	0.4163	0.103
Mof_C 	C 	0.7201	0.13477	0.37759	0.155
Mof_H 	H 	0.6997	0.1477	0.3731	0.002
Mof_O 	O 	0.72219	0.18537	0.32749	-0.836
Mof_O 	O 	0.6514	0.2546	0.3098	0.076
Mof_O 	O 	0.65905	0.24495	0.28989	-0.941
Mof_C 	C 	0.51734	0.89111	0.24697	-0.083
Mof_H 	H 	0.5319	0.8714	0.2457	0.068
Mof_C 	C 	0.52831	0.92643	0.24923	0.111
Mof_C 	C 	0.6091	0.90328	0.22023	-0.206
Mof_H 	H 	0.6046	0.9163	0.1999	0.103
Mof_C 	C 	0.63477	0.87759	0.2201	0.155
Mof_H 	H 	0.6477	0.8731	0.1997	0.002
Mof_O 	O 	0.68537	0.82749	0.22219	-0.836
Mof_O 	O 	0.7546	0.8098	0.1514	0.076
Mof_O 	O 	0.74495	0.78989	0.15905	-0.941
Mof_C 	C 	0.01734	0.39111	0.74697	-0.085
Mof_H 	H 	0.0319	0.3714	0.7457	0.068
Mof_C 	C 	0.02831	0.42643	0.74923	0.111
Mof_C 	C 	0.1091	0.40328	0.72023	-0.206
Mof_H 	H 	0.1046	0.4163	0.6999	0.103
Mof_C 	C 	0.13477	0.37759	0.7201	0.155
Mof_H 	H 	0.1477	0.3731	0.6997	0.002
Mof_O 	O 	0.18537	0.32749	0.72219	-0.836
Mof_O 	O 	0.2546	0.3098	0.6514	0.076
Mof_O 	O 	0.24495	0.28989	0.65905	-0.941
Mof_C 	C 	0.48266	0.89111	0.75303	-0.083
Mof_H 	H 	0.4681	0.8714	0.7543	0.068
Mof_C 	C 	0.47169	0.92643	0.75077	0.111
Mof_C 	C 	0.3909	0.90328	0.77977	-0.206
Mof_H 	H 	0.3954	0.9163	0.8001	0.103
Mof_C 	C 	0.36523	0.87759	0.7799	0.155
Mof_H 	H 	0.3523	0.8731	0.8003	0.002
Mof_O 	O 	0.31463	0.82749	0.77781	-0.836
Mof_O 	O 	0.2454	0.8098	0.8486	0.076
Mof_O 	O 	0.25505	0.78989	0.84095	-0.941
Mof_C 	C 	0.98266	0.39111	0.25303	-0.081
Mof_H 	H 	0.9681	0.3714	0.2543	0.068
Mof_C 	C 	0.97169	0.42643	0.25077	0.111
Mof_C 	C 	0.8909	0.40328	0.27977	-0.206
Mof_H 	H 	0.8954	0.4163	0.3001	0.103
Mof_C 	C 	0.86523	0.37759	0.2799	0.155
Mof_H 	H 	0.8523	0.3731	0.3003	0.002
Mof_O 	O 	0.81463	0.32749	0.27781	-0.836
Mof_O 	O 	0.7454	0.3098	0.3486	0.076
Mof_O 	O 	0.75505	0.28989	0.34095	-0.941
Mof_C 	C 	0.48266	0.10889	0.24697	-0.083
Mof_H 	H 	0.4681	0.1286	0.2457	0.068
Mof_C 	C 	0.47169	0.07357	0.24923	0.111
Mof_C 	C 	0.3909	0.09672	0.22023	-0.206
Mof_H 	H 	0.3954	0.0837	0.1999	0.103
Mof_C 	C 	0.36523	0.12241	0.2201	0.155
Mof_H 	H 	0.3523	0.1269	0.1997	0.002
Mof_O 	O 	0.31463	0.17251	0.22219	-0.836
Mof_O 	O 	0.2454	0.1902	0.1514	0.076
Mof_O 	O 	0.25505	0.21011	0.15905	-0.941
Mof_C 	C 	0.98266	0.60889	0.74697	-0.081
Mof_H 	H 	0.9681	0.6286	0.7457	0.068
Mof_C 	C 	0.97169	0.57357	0.74923	0.111
Mof_C 	C 	0.8909	0.59672	0.72023	-0.206
Mof_H 	H 	0.8954	0.5837	0.6999	0.103
Mof_C 	C 	0.86523	0.62241	0.7201	0.155
Mof_H 	H 	0.8523	0.6269	0.6997	0.002
Mof_O 	O 	0.81463	0.67251	0.72219	-0.836
Mof_O 	O 	0.7454	0.6902	0.6514	0.076
Mof_O 	O 	0.75505	0.71011	0.65905	-0.941
Mof_C 	C 	0.51734	0.10889	0.75303	-0.083
Mof_H 	H 	0.5319	0.1286	0.7543	0.068
Mof_C 	C 	0.52831	0.07357	0.75077	0.111
Mof_C 	C 	0.6091	0.09672	0.77977	-0.206
Mof_H 	H 	0.6046	0.0837	0.8001	0.103
Mof_C 	C 	0.63477	0.12241	0.7799	0.155
Mof_H 	H 	0.6477	0.1269	0.8003	0.002
Mof_O 	O 	0.68537	0.17251	0.77781	-0.836
Mof_O 	O 	0.7546	0.1902	0.8486	0.076
Mof_O 	O 	0.74495	0.21011	0.84095	-0.941
Mof_C 	C 	0.01734	0.60889	0.25303	-0.085
Mof_H 	H 	0.0319	0.6286	0.2543	0.068
Mof_C 	C 	0.02831	0.57357	0.25077	0.111
Mof_C 	C 	0.1091	0.59672	0.27977	-0.206
Mof_H 	H 	0.1046	0.5837	0.3001	0.103
Mof_C 	C 	0.13477	0.62241	0.2799	0.155
Mof_H 	H 	0.1477	0.6269	0.3003	0.002
Mof_O 	O 	0.18537	0.67251	0.27781	-0.836
Mof_O 	O 	0.2546	0.6902	0.3486	0.076
Mof_O 	O 	0.24495	0.71011	0.34095	-0.941
Mof_C 	C 	0.89111	0.75303	0.48266	-0.083
Mof_H 	H 	0.8714	0.7543	0.4681	0.068
Mof_C 	C 	0.92643	0.75077	0.47169	0.111
Mof_C 	C 	0.90328	0.77977	0.3909	-0.206
Mof_H 	H 	0.9163	0.8001	0.3954	0.103
Mof_C 	C 	0.87759	0.7799	0.36523	0.155
Mof_H 	H 	0.8731	0.8003	0.3523	0.002
Mof_O 	O 	0.82749	0.77781	0.31463	-0.836
Mof_O 	O 	0.8098	0.8486	0.2454	0.076
Mof_O 	O 	0.78989	0.84095	0.25505	-0.941
Mof_C 	C 	0.39111	0.25303	0.98266	-0.081
Mof_H 	H 	0.3714	0.2543	0.9681	0.068
Mof_C 	C 	0.42643	0.25077	0.97169	0.111
Mof_C 	C 	0.40328	0.27977	0.8909	-0.206
Mof_H 	H 	0.4163	0.3001	0.8954	0.103
Mof_C 	C 	0.37759	0.2799	0.86523	0.155
Mof_H 	H 	0.3731	0.3003	0.8523	0.002
Mof_O 	O 	0.32749	0.27781	0.81463	-0.836
Mof_O 	O 	0.3098	0.3486	0.7454	0.076
Mof_O 	O 	0.28989	0.34095	0.75505	-0.941
Mof_C 	C 	0.89111	0.24697	0.51734	-0.083
Mof_H 	H 	0.8714	0.2457	0.5319	0.068
Mof_C 	C 	0.92643	0.24923	0.52831	0.111
Mof_C 	C 	0.90328	0.22023	0.6091	-0.206
Mof_H 	H 	0.9163	0.1999	0.6046	0.103
Mof_C 	C 	0.87759	0.2201	0.63477	0.155
Mof_H 	H 	0.8731	0.1997	0.6477	0.002
Mof_O 	O 	0.82749	0.22219	0.68537	-0.836
Mof_O 	O 	0.8098	0.1514	0.7546	0.076
Mof_O 	O 	0.78989	0.15905	0.74495	-0.941
Mof_C 	C 	0.39111	0.74697	0.01734	-0.085
Mof_H 	H 	0.3714	0.7457	0.0319	0.068
Mof_C 	C 	0.42643	0.74923	0.02831	0.111
Mof_C 	C 	0.40328	0.72023	0.1091	-0.206
Mof_H 	H 	0.4163	0.6999	0.1046	0.103
Mof_C 	C 	0.37759	0.7201	0.13477	0.155
Mof_H 	H 	0.3731	0.6997	0.1477	0.002
Mof_O 	O 	0.32749	0.72219	0.18537	-0.836
Mof_O 	O 	0.3098	0.6514	0.2546	0.076
Mof_O 	O 	0.28989	0.65905	0.24495	-0.941
Mof_C 	C 	0.10889	0.75303	0.51734	-0.083
Mof_H 	H 	0.1286	0.7543	0.5319	0.068
Mof_C 	C 	0.07357	0.75077	0.52831	0.111
Mof_C 	C 	0.09672	0.77977	0.6091	-0.206
Mof_H 	H 	0.0837	0.8001	0.6046	0.103
Mof_C 	C 	0.12241	0.7799	0.63477	0.155
Mof_H 	H 	0.1269	0.8003	0.6477	0.002
Mof_O 	O 	0.17251	0.77781	0.68537	-0.836
Mof_O 	O 	0.1902	0.8486	0.7546	0.076
Mof_O 	O 	0.21011	0.84095	0.74495	-0.941
Mof_C 	C 	0.60889	0.25303	0.01734	-0.085
Mof_H 	H 	0.6286	0.2543	0.0319	0.068
Mof_C 	C 	0.57357	0.25077	0.02831	0.111
Mof_C 	C 	0.59672	0.27977	0.1091	-0.206
Mof_H 	H 	0.5837	0.3001	0.1046	0.103
Mof_C 	C 	0.62241	0.2799	0.13477	0.155
Mof_H 	H 	0.6269	0.3003	0.1477	0.002
Mof_O 	O 	0.67251	0.27781	0.18537	-0.836
Mof_O 	O 	0.6902	0.3486	0.2546	0.076
Mof_O 	O 	0.71011	0.34095	0.24495	-0.941
Mof_C 	C 	0.10889	0.24697	0.48266	-0.083
Mof_H 	H 	0.1286	0.2457	0.4681	0.068
Mof_C 	C 	0.07357	0.24923	0.47169	0.111
Mof_C 	C 	0.09672	0.22023	0.3909	-0.206
Mof_H 	H 	0.0837	0.1999	0.3954	0.103
Mof_C 	C 	0.12241	0.2201	0.36523	0.155
Mof_H 	H 	0.1269	0.1997	0.3523	0.002
Mof_O 	O 	0.17251	0.22219	0.31463	-0.836
Mof_O 	O 	0.1902	0.1514	0.2454	0.076
Mof_O 	O 	0.21011	0.15905	0.25505	-0.941
Mof_C 	C 	0.60889	0.74697	0.98266	-0.081
Mof_H 	H 	0.6286	0.7457	0.9681	0.068
Mof_C 	C 	0.57357	0.74923	0.97169	0.111
Mof_C 	C 	0.59672	0.72023	0.8909	-0.206
Mof_H 	H 	0.5837	0.6999	0.8954	0.103
Mof_C 	C 	0.62241	0.7201	0.86523	0.155
Mof_H 	H 	0.6269	0.6997	0.8523	0.002
Mof_O 	O 	0.67251	0.72219	0.81463	-0.836
Mof_O 	O 	0.6902	0.6514	0.7454	0.076
Mof_O 	O 	0.71011	0.65905	0.75505	-0.941
Mof_O 	O 	0.21738	0.21738	0.21738	-1.657
Mof_O 	O 	0.71738	0.71738	0.71738	-1.657
Mof_O 	O 	0.78262	0.78262	0.21738	-1.657
Mof_O 	O 	0.28262	0.28262	0.71738	-1.657
Mof_O 	O 	0.78262	0.21738	0.78262	-1.657
Mof_O 	O 	0.28262	0.71738	0.28262	-1.657
Mof_O 	O 	0.21738	0.78262	0.78262	-1.657
Mof_O 	O 	0.71738	0.28262	0.28262	-1.657
Mof_O 	O 	0.21738	0.21738	0.78262	-1.657
Mof_O 	O 	0.71738	0.71738	0.28262	-1.657
Mof_O 	O 	0.78262	0.78262	0.78262	-1.657
Mof_O 	O 	0.28262	0.28262	0.28262	-1.657
Mof_O 	O 	0.21738	0.78262	0.21738	-1.657
Mof_O 	O 	0.71738	0.28262	0.71738	-1.657
Mof_O 	O 	0.78262	0.21738	0.21738	-1.657
Mof_O 	O 	0.28262	0.71738	0.71738	-1.657
Mof_O 	O 	0.28976	0.23492	0.23492	-1.889
Mof_Zr	Zr	0.26622	0.20159	0.20159	2.778
Mof_Zr	Zr	0.27685	0.21277	0.21277	2.842
Mof_O 	O 	0.31625	0.24552	0.24552	-0.482
Mof_O 	O 	0.78976	0.73492	0.73492	-1.889
Mof_Zr	Zr	0.76622	0.70159	0.70159	2.778
Mof_Zr	Zr	0.77685	0.71277	0.71277	2.842
Mof_O 	O 	0.81625	0.74552	0.74552	-0.482
Mof_O 	O 	0.71024	0.76508	0.23492	-1.889
Mof_Zr	Zr	0.73378	0.79841	0.20159	2.778
Mof_Zr	Zr	0.72315	0.78723	0.21277	2.842
Mof_O 	O 	0.68375	0.75448	0.24552	-0.482
Mof_O 	O 	0.21024	0.26508	0.73492	-1.889
Mof_Zr	Zr	0.23378	0.29841	0.70159	2.778
Mof_Zr	Zr	0.22315	0.28723	0.71277	2.842
Mof_O 	O 	0.18375	0.25448	0.74552	-0.482
Mof_O 	O 	0.71024	0.23492	0.76508	-1.889
Mof_Zr	Zr	0.73378	0.20159	0.79841	2.778
Mof_Zr	Zr	0.72315	0.21277	0.78723	2.842
Mof_O 	O 	0.68375	0.24552	0.75448	-0.482
Mof_O 	O 	0.21024	0.73492	0.26508	-1.889
Mof_Zr	Zr	0.23378	0.70159	0.29841	2.778
Mof_Zr	Zr	0.22315	0.71277	0.28723	2.842
Mof_O 	O 	0.18375	0.74552	0.25448	-0.482
Mof_O 	O 	0.28976	0.76508	0.76508	-1.889
Mof_Zr	Zr	0.26622	0.79841	0.79841	2.778
Mof_Zr	Zr	0.27685	0.78723	0.78723	2.842
Mof_O 	O 	0.31625	0.75448	0.75448	-0.482
Mof_O 	O 	0.78976	0.26508	0.26508	-1.889
Mof_Zr	Zr	0.76622	0.29841	0.29841	2.778
Mof_Zr	Zr	0.77685	0.28723	0.28723	2.842
Mof_O 	O 	0.81625	0.25448	0.25448	-0.482
Mof_O 	O 	0.23492	0.28976	0.23492	-1.889
Mof_Zr	Zr	0.20159	0.26622	0.20159	2.778
Mof_Zr	Zr	0.21277	0.27685	0.21277	2.842
Mof_O 	O 	0.24552	0.31625	0.24552	-0.482
Mof_O 	O 	0.73492	0.78976	0.73492	-1.889
Mof_Zr	Zr	0.70159	0.76622	0.70159	2.778
Mof_Zr	Zr	0.71277	0.77685	0.71277	2.842
Mof_O 	O 	0.74552	0.81625	0.74552	-0.482
Mof_O 	O 	0.23492	0.71024	0.76508	-1.889
Mof_Zr	Zr	0.20159	0.73378	0.79841	2.778
Mof_Zr	Zr	0.21277	0.72315	0.78723	2.842
Mof_O 	O 	0.24552	0.68375	0.75448	-0.482
Mof_O 	O 	0.73492	0.21024	0.26508	-1.889
Mof_Zr	Zr	0.70159	0.23378	0.29841	2.778
Mof_Zr	Zr	0.71277	0.22315	0.28723	2.842
Mof_O 	O 	0.74552	0.18375	0.25448	-0.482
Mof_O 	O 	0.76508	0.71024	0.23492	-1.889
Mof_Zr	Zr	0.79841	0.73378	0.20159	2.778
Mof_Zr	Zr	0.78723	0.72315	0.21277	2.842
Mof_O 	O 	0.75448	0.68375	0.24552	-0.482
Mof_O 	O 	0.26508	0.21024	0.73492	-1.889
Mof_Zr	Zr	0.29841	0.23378	0.70159	2.778
Mof_Zr	Zr	0.28723	0.22315	0.71277	2.842
Mof_O 	O 	0.25448	0.18375	0.74552	-0.482
Mof_O 	O 	0.76508	0.28976	0.76508	-1.889
Mof_Zr	Zr	0.79841	0.26622	0.79841	2.778
Mof_Zr	Zr	0.78723	0.27685	0.78723	2.842
Mof_O 	O 	0.75448	0.31625	0.75448	-0.482
Mof_O 	O 	0.26508	0.78976	0.26508	-1.889
Mof_Zr	Zr	0.29841	0.76622	0.29841	2.778
Mof_Zr	Zr	0.28723	0.77685	0.28723	2.842
Mof_O 	O 	0.25448	0.81625	0.25448	-0.482
Mof_O 	O 	0.23492	0.23492	0.28976	-1.889
Mof_Zr	Zr	0.20159	0.20159	0.26622	2.778
Mof_Zr	Zr	0.21277	0.21277	0.27685	2.842
Mof_O 	O 	0.24552	0.24552	0.31625	-0.482
Mof_O 	O 	0.73492	0.73492	0.78976	-1.889
Mof_Zr	Zr	0.70159	0.70159	0.76622	2.778
Mof_Zr	Zr	0.71277	0.71277	0.77685	2.842
Mof_O 	O 	0.74552	0.74552	0.81625	-0.482
Mof_O 	O 	0.76508	0.23492	0.71024	-1.889
Mof_Zr	Zr	0.79841	0.20159	0.73378	2.778
Mof_Zr	Zr	0.78723	0.21277	0.72315	2.842
Mof_O 	O 	0.75448	0.24552	0.68375	-0.482
Mof_O 	O 	0.26508	0.73492	0.21024	-1.889
Mof_Zr	Zr	0.29841	0.70159	0.23378	2.778
Mof_Zr	Zr	0.28723	0.71277	0.22315	2.842
Mof_O 	O 	0.25448	0.74552	0.18375	-0.482
Mof_O 	O 	0.23492	0.76508	0.71024	-1.889
Mof_Zr	Zr	0.20159	0.79841	0.73378	2.778
Mof_Zr	Zr	0.21277	0.78723	0.72315	2.842
Mof_O 	O 	0.24552	0.75448	0.68375	-0.482
Mof_O 	O 	0.73492	0.26508	0.21024	-1.889
Mof_Zr	Zr	0.70159	0.29841	0.23378	2.778
Mof_Zr	Zr	0.71277	0.28723	0.22315	2.842
Mof_O 	O 	0.74552	0.25448	0.18375	-0.482
Mof_O 	O 	0.76508	0.76508	0.28976	-1.889
Mof_Zr	Zr	0.79841	0.79841	0.26622	2.778
Mof_Zr	Zr	0.78723	0.78723	0.27685	2.842
Mof_O 	O 	0.75448	0.75448	0.31625	-0.482
Mof_O 	O 	0.26508	0.26508	0.78976	-1.889
Mof_Zr	Zr	0.29841	0.29841	0.76622	2.778
Mof_Zr	Zr	0.28723	0.28723	0.77685	2.842
Mof_O 	O 	0.25448	0.25448	0.81625	-0.482
Mof_O 	O 	0.23492	0.28976	0.76508	-1.889
Mof_Zr	Zr	0.20159	0.26622	0.79841	2.778
Mof_Zr	Zr	0.21277	0.27685	0.78723	2.842
Mof_O 	O 	0.24552	0.31625	0.75448	-0.482
Mof_O 	O 	0.73492	0.78976	0.26508	-1.889
Mof_Zr	Zr	0.70159	0.76622	0.29841	2.778
Mof_Zr	Zr	0.71277	0.77685	0.28723	2.842
Mof_O 	O 	0.74552	0.81625	0.25448	-0.482
Mof_O 	O 	0.76508	0.71024	0.76508	-1.889
Mof_Zr	Zr	0.79841	0.73378	0.79841	2.778
Mof_Zr	Zr	0.78723	0.72315	0.78723	2.842
Mof_O 	O 	0.75448	0.68375	0.75448	-0.482
Mof_O 	O 	0.26508	0.21024	0.26508	-1.889
Mof_Zr	Zr	0.29841	0.23378	0.29841	2.778
Mof_Zr	Zr	0.28723	0.22315	0.28723	2.842
Mof_O 	O 	0.25448	0.18375	0.25448	-0.482
Mof_O 	O 	0.23492	0.71024	0.23492	-1.889
Mof_Zr	Zr	0.20159	0.73378	0.20159	2.778
Mof_Zr	Zr	0.21277	0.72315	0.21277	2.842
Mof_O 	O 	0.24552	0.68375	0.24552	-0.482
Mof_O 	O 	0.73492	0.21024	0.73492	-1.889
Mof_Zr	Zr	0.70159	0.23378	0.70159	2.778
Mof_Zr	Zr	0.71277	0.22315	0.71277	2.842
Mof_O 	O 	0.74552	0.18375	0.74552	-0.482
Mof_O 	O 	0.76508	0.28976	0.23492	-1.889
Mof_Zr	Zr	0.79841	0.26622	0.20159	2.778
Mof_Zr	Zr	0.78723	0.27685	0.21277	2.842
Mof_O 	O 	0.75448	0.31625	0.24552	-0.482
Mof_O 	O 	0.26508	0.78976	0.73492	-1.889
Mof_Zr	Zr	0.29841	0.76622	0.70159	2.778
Mof_Zr	Zr	0.28723	0.77685	0.71277	2.842
Mof_O 	O 	0.25448	0.81625	0.74552	-0.482
Mof_O 	O 	0.28976	0.23492	0.76508	-1.889
Mof_Zr	Zr	0.26622	0.20159	0.79841	2.778
Mof_Zr	Zr	0.27685	0.21277	0.78723	2.842
Mof_O 	O 	0.31625	0.24552	0.75448	-0.482
Mof_O 	O 	0.78976	0.73492	0.26508	-1.889
Mof_Zr	Zr	0.76622	0.70159	0.29841	2.778
Mof_Zr	Zr	0.77685	0.71277	0.28723	2.842
Mof_O 	O 	0.81625	0.74552	0.25448	-0.482
Mof_O 	O 	0.71024	0.23492	0.23492	-1.889
Mof_Zr	Zr	0.73378	0.20159	0.20159	2.778
Mof_Zr	Zr	0.72315	0.21277	0.21277	2.842
Mof_O 	O 	0.68375	0.24552	0.24552	-0.482
Mof_O 	O 	0.21024	0.73492	0.73492	-1.889
Mof_Zr	Zr	0.23378	0.70159	0.70159	2.778
Mof_Zr	Zr	0.22315	0.71277	0.71277	2.842
Mof_O 	O 	0.18375	0.74552	0.74552	-0.482
Mof_O 	O 	0.71024	0.76508	0.76508	-1.889
Mof_Zr	Zr	0.73378	0.79841	0.79841	2.778
Mof_Zr	Zr	0.72315	0.78723	0.78723	2.842
Mof_O 	O 	0.68375	0.75448	0.75448	-0.482
Mof_O 	O 	0.21024	0.26508	0.26508	-1.889
Mof_Zr	Zr	0.23378	0.29841	0.29841	2.778
Mof_Zr	Zr	0.22315	0.28723	0.28723	2.842
Mof_O 	O 	0.18375	0.25448	0.25448	-0.482
Mof_O 	O 	0.28976	0.76508	0.23492	-1.889
Mof_Zr	Zr	0.26622	0.79841	0.20159	2.778
Mof_Zr	Zr	0.27685	0.78723	0.21277	2.842
Mof_O 	O 	0.31625	0.75448	0.24552	-0.482
Mof_O 	O 	0.78976	0.26508	0.73492	-1.889
Mof_Zr	Zr	0.76622	0.29841	0.70159	2.778
Mof_Zr	Zr	0.77685	0.28723	0.71277	2.842
Mof_O 	O 	0.81625	0.25448	0.74552	-0.482
Mof_O 	O 	0.23492	0.23492	0.71024	-1.889
Mof_Zr	Zr	0.20159	0.20159	0.73378	2.778
Mof_Zr	Zr	0.21277	0.21277	0.72315	2.842
Mof_O 	O 	0.24552	0.24552	0.68375	-0.482
Mof_O 	O 	0.73492	0.73492	0.21024	-1.889
Mof_Zr	Zr	0.70159	0.70159	0.23378	2.778
Mof_Zr	Zr	0.71277	0.71277	0.22315	2.842
Mof_O 	O 	0.74552	0.74552	0.18375	-0.482
Mof_O 	O 	0.23492	0.76508	0.28976	-1.889
Mof_Zr	Zr	0.20159	0.79841	0.26622	2.778
Mof_Zr	Zr	0.21277	0.78723	0.27685	2.842
Mof_O 	O 	0.24552	0.75448	0.31625	-0.482
Mof_O 	O 	0.73492	0.26508	0.78976	-1.889
Mof_Zr	Zr	0.70159	0.29841	0.76622	2.778
Mof_Zr	Zr	0.71277	0.28723	0.77685	2.842
Mof_O 	O 	0.74552	0.25448	0.81625	-0.482
Mof_O 	O 	0.76508	0.23492	0.28976	-1.889
Mof_Zr	Zr	0.79841	0.20159	0.26622	2.778
Mof_Zr	Zr	0.78723	0.21277	0.27685	2.842
Mof_O 	O 	0.75448	0.24552	0.31625	-0.482
Mof_O 	O 	0.26508	0.73492	0.78976	-1.889
Mof_Zr	Zr	0.29841	0.70159	0.76622	2.778
Mof_Zr	Zr	0.28723	0.71277	0.77685	2.842
Mof_O 	O 	0.25448	0.74552	0.81625	-0.482
Mof_O 	O 	0.76508	0.76508	0.71024	-1.889
Mof_Zr	Zr	0.79841	0.79841	0.73378	2.778
Mof_Zr	Zr	0.78723	0.78723	0.72315	2.842
Mof_O 	O 	0.75448	0.75448	0.68375	-0.482
Mof_O 	O 	0.26508	0.26508	0.21024	-1.889
Mof_Zr	Zr	0.29841	0.29841	0.23378	2.778
Mof_Zr	Zr	0.28723	0.28723	0.22315	2.842
Mof_O 	O 	0.25448	0.25448	0.18375	-0.482
Mof_N 	N 	0.5	0.25017	0.05216	-0.208
Mof_N 	N 	1.60631e-32	0.75017	0.55216	-0.209
Mof_N 	N 	0.5	0.74983	0.05216	-0.208
Mof_N 	N 	2.07027e-33	0.24983	0.55216	-0.209
Mof_N 	N 	0.5	0.25017	0.94784	-0.208
Mof_N 	N 	1.21738e-32	0.75017	0.44784	-0.209
Mof_N 	N 	0.5	0.74983	0.94784	-0.208
Mof_N 	N 	5.17734e-33	0.24983	0.44784	-0.209
Mof_N 	N 	0.05216	0.5	0.25017	-0.208
Mof_N 	N 	0.55216	6.99642e-33	0.75017	-0.209
Mof_N 	N 	0.05216	0.5	0.74983	-0.208
Mof_N 	N 	0.55216	1.7491e-33	0.24983	-0.209
Mof_N 	N 	0.94784	0.5	0.25017	-0.208
Mof_N 	N 	0.44784	6.99642e-33	0.75017	-0.209
Mof_N 	N 	0.94784	0.5	0.74983	-0.208
Mof_N 	N 	0.44784	1.7491e-33	0.24983	-0.209
Mof_N 	N 	0.25017	0.05216	0.5	-0.208
Mof_N 	N 	0.75017	0.55216	-0	-0.209
Mof_N 	N 	0.74983	0.05216	0.5	-0.208
Mof_N 	N 	0.24983	0.55216	-0	-0.209
Mof_N 	N 	0.25017	0.94784	0.5	-0.208
Mof_N 	N 	0.75017	0.44784	-0	-0.209
Mof_N 	N 	0.74983	0.94784	0.5	-0.208
Mof_N 	N 	0.24983	0.44784	-0	-0.209
Mof_N 	N 	0.25017	0.5	0.94784	-0.208
Mof_N 	N 	0.75017	3.49821e-33	0.44784	-0.209
Mof_N 	N 	0.74983	0.5	0.94784	-0.208
Mof_N 	N 	0.24983	3.49821e-33	0.44784	-0.209
Mof_N 	N 	0.25017	0.5	0.05216	-0.208
Mof_N 	N 	0.75017	0	0.55216	-0.209
Mof_N 	N 	0.74983	0.5	0.05216	-0.208
Mof_N 	N 	0.24983	0	0.55216	-0.209
Mof_N 	N 	0.5	0.05216	0.74983	-0.208
Mof_N 	N 	2.68582e-33	0.55216	0.24983	-0.209
Mof_N 	N 	0.5	0.05216	0.25017	-0.208
Mof_N 	N 	1.68055e-32	0.55216	0.75017	-0.209
Mof_N 	N 	0.5	0.94784	0.74983	-0.208
Mof_N 	N 	6.18403e-33	0.44784	0.24983	-0.209
Mof_N 	N 	0.5	0.94784	0.25017	-0.208
Mof_N 	N 	1.68055e-32	0.44784	0.75017	-0.209
Mof_N 	N 	0.05216	0.25017	0.5	-0.208
Mof_N 	N 	0.55216	0.75017	-0	-0.209
Mof_N 	N 	0.05216	0.74983	0.5	-0.208
Mof_N 	N 	0.55216	0.24983	-0	-0.209
Mof_N 	N 	0.94784	0.25017	0.5	-0.208
Mof_N 	N 	0.44784	0.75017	-0	-0.209
Mof_N 	N 	0.94784	0.74983	0.5	-0.208
Mof_N 	N 	0.44784	0.24983	-0	-0.209
Mof_C 	C 	0.40964	0.25	0.09036	0.16
Mof_C 	C 	0.35887	0.25	0.14113	-0.242
Mof_C 	C 	0.4372	0.25	0.0628	-0.145
Mof_C 	C 	0.33142	0.25	0.16858	0.68
Mof_C 	C 	0.59036	0.75	0.09036	0.16
Mof_C 	C 	0.64113	0.75	0.14113	-0.242
Mof_C 	C 	0.5628	0.75	0.0628	-0.145
Mof_C 	C 	0.66858	0.75	0.16858	0.68
Mof_C 	C 	0.59036	0.25	0.90964	0.16
Mof_C 	C 	0.64113	0.25	0.85887	-0.242
Mof_C 	C 	0.5628	0.25	0.9372	-0.145
Mof_C 	C 	0.66858	0.25	0.83142	0.68
Mof_C 	C 	0.40964	0.75	0.90964	0.16
Mof_C 	C 	0.35887	0.75	0.85887	-0.242
Mof_C 	C 	0.4372	0.75	0.9372	-0.145
Mof_C 	C 	0.33142	0.75	0.83142	0.68
Mof_C 	C 	0.09036	0.40964	0.25	0.16
Mof_C 	C 	0.14113	0.35887	0.25	-0.242
Mof_C 	C 	0.0628	0.4372	0.25	-0.145
Mof_C 	C 	0.16858	0.33142	0.25	0.68
Mof_C 	C 	0.09036	0.59036	0.75	0.16
Mof_C 	C 	0.14113	0.64113	0.75	-0.242
Mof_C 	C 	0.0628	0.5628	0.75	-0.145
Mof_C 	C 	0.16858	0.66858	0.75	0.68
Mof_C 	C 	0.90964	0.59036	0.25	0.16
Mof_C 	C 	0.85887	0.64113	0.25	-0.242
Mof_C 	C 	0.9372	0.5628	0.25	-0.145
Mof_C 	C 	0.83142	0.66858	0.25	0.68
Mof_C 	C 	0.90964	0.40964	0.75	0.16
Mof_C 	C 	0.85887	0.35887	0.75	-0.242
Mof_C 	C 	0.9372	0.4372	0.75	-0.145
Mof_C 	C 	0.83142	0.33142	0.75	0.68
Mof_C 	C 	0.25	0.09036	0.40964	0.16
Mof_C 	C 	0.25	0.14113	0.35887	-0.242
Mof_C 	C 	0.25	0.0628	0.4372	-0.145
Mof_C 	C 	0.25	0.16858	0.33142	0.68
Mof_C 	C 	0.75	0.09036	0.59036	0.16
Mof_C 	C 	0.75	0.14113	0.64113	-0.242
Mof_C 	C 	0.75	0.0628	0.5628	-0.145
Mof_C 	C 	0.75	0.16858	0.66858	0.68
Mof_C 	C 	0.25	0.90964	0.59036	0.16
Mof_C 	C 	0.25	0.85887	0.64113	-0.242
Mof_C 	C 	0.25	0.9372	0.5628	-0.145
Mof_C 	C 	0.25	0.83142	0.66858	0.68
Mof_C 	C 	0.75	0.90964	0.40964	0.16
Mof_C 	C 	0.75	0.85887	0.35887	-0.242
Mof_C 	C 	0.75	0.9372	0.4372	-0.145
Mof_C 	C 	0.75	0.83142	0.33142	0.68
Mof_C 	C 	0.25	0.40964	0.90964	0.16
Mof_C 	C 	0.25	0.35887	0.85887	-0.242
Mof_C 	C 	0.25	0.4372	0.9372	-0.145
Mof_C 	C 	0.25	0.33142	0.83142	0.68
Mof_C 	C 	0.75	0.59036	0.90964	0.16
Mof_C 	C 	0.75	0.64113	0.85887	-0.242
Mof_C 	C 	0.75	0.5628	0.9372	-0.145
Mof_C 	C 	0.75	0.66858	0.83142	0.68
Mof_C 	C 	0.25	0.59036	0.09036	0.16
Mof_C 	C 	0.25	0.64113	0.14113	-0.242
Mof_C 	C 	0.25	0.5628	0.0628	-0.145
Mof_C 	C 	0.25	0.66858	0.16858	0.68
Mof_C 	C 	0.75	0.40964	0.09036	0.16
Mof_C 	C 	0.75	0.35887	0.14113	-0.242
Mof_C 	C 	0.75	0.4372	0.0628	-0.145
Mof_C 	C 	0.75	0.33142	0.16858	0.68
Mof_C 	C 	0.40964	0.09036	0.75	0.16
Mof_C 	C 	0.35887	0.14113	0.75	-0.242
Mof_C 	C 	0.4372	0.0628	0.75	-0.145
Mof_C 	C 	0.33142	0.16858	0.75	0.68
Mof_C 	C 	0.59036	0.09036	0.25	0.16
Mof_C 	C 	0.64113	0.14113	0.25	-0.242
Mof_C 	C 	0.5628	0.0628	0.25	-0.145
Mof_C 	C 	0.66858	0.16858	0.25	0.68
Mof_C 	C 	0.59036	0.90964	0.75	0.16
Mof_C 	C 	0.64113	0.85887	0.75	-0.242
Mof_C 	C 	0.5628	0.9372	0.75	-0.145
Mof_C 	C 	0.66858	0.83142	0.75	0.68
Mof_C 	C 	0.40964	0.90964	0.25	0.16
Mof_C 	C 	0.35887	0.85887	0.25	-0.242
Mof_C 	C 	0.4372	0.9372	0.25	-0.145
Mof_C 	C 	0.33142	0.83142	0.25	0.68
Mof_C 	C 	0.09036	0.25	0.59036	0.16
Mof_C 	C 	0.14113	0.25	0.64113	-0.242
Mof_C 	C 	0.0628	0.25	0.5628	-0.145
Mof_C 	C 	0.16858	0.25	0.66858	0.68
Mof_C 	C 	0.09036	0.75	0.40964	0.16
Mof_C 	C 	0.14113	0.75	0.35887	-0.242
Mof_C 	C 	0.0628	0.75	0.4372	-0.145
Mof_C 	C 	0.16858	0.75	0.33142	0.68
Mof_C 	C 	0.90964	0.25	0.40964	0.16
Mof_C 	C 	0.85887	0.25	0.35887	-0.242
Mof_C 	C 	0.9372	0.25	0.4372	-0.145
Mof_C 	C 	0.83142	0.25	0.33142	0.68
Mof_C 	C 	0.90964	0.75	0.59036	0.16
Mof_C 	C 	0.85887	0.75	0.64113	-0.242
Mof_C 	C 	0.9372	0.75	0.5628	-0.145
Mof_C 	C 	0.83142	0.75	0.66858	0.68
Mof_C 	C 	0.59036	0.75	0.90964	0.16
Mof_C 	C 	0.64113	0.75	0.85887	-0.242
Mof_C 	C 	0.5628	0.75	0.9372	-0.145
Mof_C 	C 	0.66858	0.75	0.83142	0.68
Mof_C 	C 	0.09036	0.25	0.40964	0.16
Mof_C 	C 	0.14113	0.25	0.35887	-0.242
Mof_C 	C 	0.0628	0.25	0.4372	-0.145
Mof_C 	C 	0.16858	0.25	0.33142	0.68
Mof_C 	C 	0.40964	0.25	0.90964	0.16
Mof_C 	C 	0.35887	0.25	0.85887	-0.242
Mof_C 	C 	0.4372	0.25	0.9372	-0.145
Mof_C 	C 	0.33142	0.25	0.83142	0.68
Mof_C 	C 	0.40964	0.75	0.09036	0.16
Mof_C 	C 	0.35887	0.75	0.14113	-0.242
Mof_C 	C 	0.4372	0.75	0.0628	-0.145
Mof_C 	C 	0.33142	0.75	0.16858	0.68
Mof_C 	C 	0.59036	0.25	0.09036	0.16
Mof_C 	C 	0.64113	0.25	0.14113	-0.242
Mof_C 	C 	0.5628	0.25	0.0628	-0.145
Mof_C 	C 	0.66858	0.25	0.16858	0.68
Mof_C 	C 	0.90964	0.59036	0.75	0.16
Mof_C 	C 	0.85887	0.64113	0.75	-0.242
Mof_C 	C 	0.9372	0.5628	0.75	-0.145
Mof_C 	C 	0.83142	0.66858	0.75	0.68
Mof_C 	C 	0.40964	0.09036	0.25	0.16
Mof_C 	C 	0.35887	0.14113	0.25	-0.242
Mof_C 	C 	0.4372	0.0628	0.25	-0.145
Mof_C 	C 	0.33142	0.16858	0.25	0.68
Mof_C 	C 	0.90964	0.40964	0.25	0.16
Mof_C 	C 	0.85887	0.35887	0.25	-0.242
Mof_C 	C 	0.9372	0.4372	0.25	-0.145
Mof_C 	C 	0.83142	0.33142	0.25	0.68
Mof_C 	C 	0.09036	0.40964	0.75	0.16
Mof_C 	C 	0.14113	0.35887	0.75	-0.242
Mof_C 	C 	0.0628	0.4372	0.75	-0.145
Mof_C 	C 	0.16858	0.33142	0.75	0.68
Mof_C 	C 	0.09036	0.59036	0.25	0.16
Mof_C 	C 	0.14113	0.64113	0.25	-0.242
Mof_C 	C 	0.0628	0.5628	0.25	-0.145
Mof_C 	C 	0.16858	0.66858	0.25	0.68
Mof_C 	C 	0.75	0.90964	0.59036	0.16
Mof_C 	C 	0.75	0.85887	0.64113	-0.242
Mof_C 	C 	0.75	0.9372	0.5628	-0.145
Mof_C 	C 	0.75	0.83142	0.66858	0.68
Mof_C 	C 	0.25	0.40964	0.09036	0.16
Mof_C 	C 	0.25	0.35887	0.14113	-0.242
Mof_C 	C 	0.25	0.4372	0.0628	-0.145
Mof_C 	C 	0.25	0.33142	0.16858	0.68
Mof_C 	C 	0.25	0.90964	0.40964	0.16
Mof_C 	C 	0.25	0.85887	0.35887	-0.242
Mof_C 	C 	0.25	0.9372	0.4372	-0.145
Mof_C 	C 	0.25	0.83142	0.33142	0.68
Mof_C 	C 	0.75	0.09036	0.40964	0.16
Mof_C 	C 	0.75	0.14113	0.35887	-0.242
Mof_C 	C 	0.75	0.0628	0.4372	-0.145
Mof_C 	C 	0.75	0.16858	0.33142	0.68
Mof_C 	C 	0.25	0.09036	0.59036	0.16
Mof_C 	C 	0.25	0.14113	0.64113	-0.242
Mof_C 	C 	0.25	0.0628	0.5628	-0.145
Mof_C 	C 	0.25	0.16858	0.66858	0.68
Mof_C 	C 	0.75	0.59036	0.09036	0.16
Mof_C 	C 	0.75	0.64113	0.14113	-0.242
Mof_C 	C 	0.75	0.5628	0.0628	-0.145
Mof_C 	C 	0.75	0.66858	0.16858	0.68
Mof_C 	C 	0.75	0.40964	0.90964	0.16
Mof_C 	C 	0.75	0.35887	0.85887	-0.242
Mof_C 	C 	0.75	0.4372	0.9372	-0.145
Mof_C 	C 	0.75	0.33142	0.83142	0.68
Mof_C 	C 	0.25	0.59036	0.90964	0.16
Mof_C 	C 	0.25	0.64113	0.85887	-0.242
Mof_C 	C 	0.25	0.5628	0.9372	-0.145
Mof_C 	C 	0.25	0.66858	0.83142	0.68
Mof_C 	C 	0.59036	0.90964	0.25	0.16
Mof_C 	C 	0.64113	0.85887	0.25	-0.242
Mof_C 	C 	0.5628	0.9372	0.25	-0.145
Mof_C 	C 	0.66858	0.83142	0.25	0.68
Mof_C 	C 	0.40964	0.90964	0.75	0.16
Mof_C 	C 	0.35887	0.85887	0.75	-0.242
Mof_C 	C 	0.4372	0.9372	0.75	-0.145
Mof_C 	C 	0.33142	0.83142	0.75	0.68
Mof_C 	C 	0.59036	0.09036	0.75	0.16
Mof_C 	C 	0.64113	0.14113	0.75	-0.242
Mof_C 	C 	0.5628	0.0628	0.75	-0.145
Mof_C 	C 	0.66858	0.16858	0.75	0.68
Mof_C 	C 	0.90964	0.75	0.40964	0.16
Mof_C 	C 	0.85887	0.75	0.35887	-0.242
Mof_C 	C 	0.9372	0.75	0.4372	-0.145
Mof_C 	C 	0.83142	0.75	0.33142	0.68
Mof_C 	C 	0.90964	0.25	0.59036	0.16
Mof_C 	C 	0.85887	0.25	0.64113	-0.242
Mof_C 	C 	0.9372	0.25	0.5628	-0.145
Mof_C 	C 	0.83142	0.25	0.66858	0.68
Mof_C 	C 	0.09036	0.75	0.59036	0.16
Mof_C 	C 	0.14113	0.75	0.64113	-0.242
Mof_C 	C 	0.0628	0.75	0.5628	-0.145
Mof_C 	C 	0.16858	0.75	0.66858	0.68
Mof_Fe	Fe	0.5	0.26364	-0	0.317
Mof_Fe	Fe	1.58675e-32	0.76364	0.5	0.318
Mof_Fe	Fe	0.5	0.73636	-0	0.317
Mof_Fe	Fe	8.87112e-33	0.23636	0.5	0.317
Mof_Fe	Fe	1.14831e-32	0.5	0.26364	0.317
Mof_Fe	Fe	0.5	6.99642e-33	0.76364	0.318
Mof_Fe	Fe	9.75733e-33	0.5	0.73636	0.317
Mof_Fe	Fe	0.5	1.7491e-33	0.23636	0.317
Mof_Fe	Fe	0.26364	6.99642e-33	0.5	0.317
Mof_Fe	Fe	0.76364	0.5	-0	0.318
Mof_Fe	Fe	0.73636	6.99642e-33	0.5	0.317
Mof_Fe	Fe	0.23636	0.5	-0	0.317
Mof_Fe	Fe	0.26364	0.5	-0	0.317
Mof_Fe	Fe	0.76364	6.99642e-33	0.5	0.318
Mof_Fe	Fe	0.73636	0.5	-0	0.317
Mof_Fe	Fe	0.23636	6.99642e-33	0.5	0.317
Mof_Fe	Fe	0.5	6.99642e-33	0.73636	0.317
Mof_Fe	Fe	1.13808e-32	0.5	0.23636	0.317
Mof_Fe	Fe	0.5	0	0.26364	0.317
Mof_Fe	Fe	9.85961e-33	0.5	0.76364	0.318
Mof_Fe	Fe	8.87112e-33	0.26364	0.5	0.317
Mof_Fe	Fe	0.5	0.76364	-0	0.318
Mof_Fe	Fe	8.87112e-33	0.73636	0.5	0.317
Mof_Fe	Fe	0.5	0.23636	-0	0.317
_end
