# CIF file generated by openbabel 3.1.0, see https://openbabel.org
data_I
_chemical_name_common 'image0'
_cell_length_a 12.2821
_cell_length_b 14.426
_cell_length_c 12.5733
_cell_angle_alpha 90
_cell_angle_beta 113.909
_cell_angle_gamma 90
_space_group_name_H-M_alt 'P 1'
_space_group_name_Hall 'P 1'
loop_
    _symmetry_equiv_pos_as_xyz
    x,y,z
loop_
    _atom_site_label
    _atom_site_type_symbol
    _atom_site_fract_x
    _atom_site_fract_y
    _atom_site_fract_z
    _atom_site_occupancy
    C1       C        0.92640    0.25480    0.28690    1.000
    C2       C        0.03310    0.25240    0.27370    1.000
    H1       H        0.09040    0.29740    0.30960    1.000
    C3       C        0.05570    0.18370    0.20780    1.000
    C4       C        0.96890    0.11730    0.15430    1.000
    H2       H        0.98330    0.07060    0.11060    1.000
    C5       C        0.86080    0.11970    0.16510    1.000
    C6       C        0.84030    0.18800    0.23290    1.000
    H3       H        0.76880    0.18890    0.24200    1.000
    C7       C        0.90430    0.33140    0.35670    1.000
    C8       C        0.16890    0.18700    0.18910    1.000
    C9       C        0.76440    0.05120    0.09800    1.000
    C10      C        0.89490    0.50860    0.73290    1.000
    H4       H        0.84210    0.54150    0.66940    1.000
    C11      C        0.91110    0.53440    0.84320    1.000
    H5       H        0.86910    0.58460    0.85390    1.000
    C12      C        0.99000    0.48610    0.93930    1.000
    C13      C        0.04970    0.41090    0.91730    1.000
    H6       H        0.10270    0.37640    0.97900    1.000
    C14      C        0.03050    0.38760    0.80510    1.000
    H7       H        0.07090    0.33760    0.79150    1.000
    Co1      Co       0.75977    0.36257    0.50355    1.000
    N1       N        0.95430    0.43620    0.71570    1.000
    O1       O        0.80830    0.33034    0.36880    1.000
    O2       O        0.98630    0.39114    0.39730    1.000
    O3       O        0.23860    0.25370    0.23370    1.000
    O4       O        0.18430    0.12485    0.12640    1.000
    O5       O        0.78870    0.99878    0.02990    1.000
    O6       O        0.66890    0.05237    0.11100    1.000
    O7       O        0.93460    0.41111    0.60580    1.000
    H8       H        0.98300    0.35500    0.61750    1.000
    C15      C        0.57360    0.75480    0.21310    1.000
    C16      C        0.46690    0.75240    0.22630    1.000
    H9       H        0.40960    0.79740    0.19040    1.000
    C17      C        0.44430    0.68370    0.29220    1.000
    C18      C        0.53110    0.61730    0.34570    1.000
    H10      H        0.51670    0.57060    0.38940    1.000
    C19      C        0.63920    0.61970    0.33490    1.000
    C20      C        0.65970    0.68800    0.26710    1.000
    H11      H        0.73120    0.68890    0.25800    1.000
    C21      C        0.59570    0.83140    0.14330    1.000
    C22      C        0.33110    0.68700    0.31090    1.000
    C23      C        0.73560    0.55120    0.40200    1.000
    C24      C        0.60510    0.00860    0.76710    1.000
    H12      H        0.65790    0.04150    0.83060    1.000
    C25      C        0.58890    0.03440    0.65680    1.000
    H13      H        0.63090    0.08460    0.64610    1.000
    C26      C        0.51000    0.98610    0.56070    1.000
    C27      C        0.45030    0.91090    0.58270    1.000
    H14      H        0.39730    0.87640    0.52100    1.000
    C28      C        0.46950    0.88760    0.69490    1.000
    H15      H        0.42910    0.83760    0.70850    1.000
    Co2      Co       0.74023    0.86257    0.99645    1.000
    N2       N        0.54570    0.93620    0.78430    1.000
    O8       O        0.69170    0.83034    0.13120    1.000
    O9       O        0.51370    0.89114    0.10270    1.000
    O10      O        0.26140    0.75370    0.26630    1.000
    O11      O        0.31570    0.62485    0.37360    1.000
    O12      O        0.71130    0.49878    0.47010    1.000
    O13      O        0.83110    0.55237    0.38900    1.000
    O14      O        0.56540    0.91111    0.89420    1.000
    H16      H        0.51700    0.85500    0.88250    1.000
    C29      C        0.07360    0.74520    0.71310    1.000
    C30      C        0.96690    0.74760    0.72630    1.000
    H17      H        0.90960    0.70260    0.69040    1.000
    C31      C        0.94430    0.81630    0.79220    1.000
    C32      C        0.03110    0.88270    0.84570    1.000
    H18      H        0.01670    0.92940    0.88940    1.000
    C33      C        0.13920    0.88030    0.83490    1.000
    C34      C        0.15970    0.81200    0.76710    1.000
    H19      H        0.23120    0.81110    0.75800    1.000
    C35      C        0.09570    0.66860    0.64330    1.000
    C36      C        0.83110    0.81300    0.81090    1.000
    C37      C        0.23560    0.94880    0.90200    1.000
    C38      C        0.10510    0.49140    0.26710    1.000
    H20      H        0.15790    0.45850    0.33060    1.000
    C39      C        0.08890    0.46560    0.15680    1.000
    H21      H        0.13090    0.41540    0.14610    1.000
    C40      C        0.01000    0.51390    0.06070    1.000
    C41      C        0.95030    0.58910    0.08270    1.000
    H22      H        0.89730    0.62360    0.02100    1.000
    C42      C        0.96950    0.61240    0.19490    1.000
    H23      H        0.92910    0.66240    0.20850    1.000
    Co3      Co       0.24023    0.63743    0.49645    1.000
    N3       N        0.04570    0.56380    0.28430    1.000
    O15      O        0.19170    0.66966    0.63120    1.000
    O16      O        0.01370    0.60886    0.60270    1.000
    O17      O        0.76140    0.74630    0.76630    1.000
    O18      O        0.81570    0.87515    0.87360    1.000
    O19      O        0.21130    0.00122    0.97010    1.000
    O20      O        0.33110    0.94763    0.88900    1.000
    O21      O        0.06540    0.58889    0.39420    1.000
    H24      H        0.01700    0.64500    0.38250    1.000
    C43      C        0.42640    0.24520    0.78690    1.000
    C44      C        0.53310    0.24760    0.77370    1.000
    H25      H        0.59040    0.20260    0.80960    1.000
    C45      C        0.55570    0.31630    0.70780    1.000
    C46      C        0.46890    0.38270    0.65430    1.000
    H26      H        0.48330    0.42940    0.61060    1.000
    C47      C        0.36080    0.38030    0.66510    1.000
    C48      C        0.34030    0.31200    0.73290    1.000
    H27      H        0.26880    0.31110    0.74200    1.000
    C49      C        0.40430    0.16860    0.85670    1.000
    C50      C        0.66890    0.31300    0.68910    1.000
    C51      C        0.26440    0.44880    0.59800    1.000
    C52      C        0.39490    0.99140    0.23290    1.000
    H28      H        0.34210    0.95850    0.16940    1.000
    C53      C        0.41110    0.96560    0.34320    1.000
    H29      H        0.36910    0.91540    0.35390    1.000
    C54      C        0.49000    0.01390    0.43930    1.000
    C55      C        0.54970    0.08910    0.41730    1.000
    H30      H        0.60270    0.12360    0.47900    1.000
    C56      C        0.53050    0.11240    0.30510    1.000
    H31      H        0.57090    0.16240    0.29150    1.000
    Co4      Co       0.25977    0.13743    0.00355    1.000
    N4       N        0.45430    0.06380    0.21570    1.000
    O22      O        0.30830    0.16966    0.86880    1.000
    O23      O        0.48630    0.10886    0.89730    1.000
    O24      O        0.73860    0.24630    0.73370    1.000
    O25      O        0.68430    0.37515    0.62640    1.000
    O26      O        0.28870    0.50122    0.52990    1.000
    O27      O        0.16890    0.44763    0.61100    1.000
    O28      O        0.43460    0.08889    0.10580    1.000
    H32      H        0.48300    0.14500    0.11750    1.000
    Co5      Co       0.00000    0.50000    0.50000    1.000
    Co6      Co       0.50000    0.00000    0.00000    1.000
