# CIF file generated by openbabel 3.1.0, see https://openbabel.org
data_I
_chemical_name_common 'image0'
_cell_length_a 35.832
_cell_length_b 14.838
_cell_length_c 30.783
_cell_angle_alpha 90
_cell_angle_beta 102.066
_cell_angle_gamma 90
_space_group_name_H-M_alt 'P 1'
_space_group_name_Hall 'P 1'
loop_
    _symmetry_equiv_pos_as_xyz
    x,y,z
loop_
    _atom_site_label
    _atom_site_type_symbol
    _atom_site_fract_x
    _atom_site_fract_y
    _atom_site_fract_z
    _atom_site_occupancy
    I1       I        0.64069    0.10819    0.99282    1.000
    I2       I        0.60013    0.23298    0.10689    1.000
    I3       I        0.26576    0.77190    0.19928    1.000
    I4       I        0.36935    0.84132    0.30205    1.000
    I5       I        0.39132    0.25287    0.94409    1.000
    I6       I        0.47613    0.35607    0.86820    1.000
    Zn1      Zn       0.62165    0.09905    0.06687    1.000
    Zn2      Zn       0.41957    0.37608    0.90531    1.000
    Zn3      Zn       0.32654    0.86217    0.22560    1.000
    N1       N        0.81676    0.82760    0.25080    1.000
    N2       N        0.77757    0.95520    0.22870    1.000
    N3       N        0.76362    0.81630    0.19010    1.000
    N4       N        0.87876    0.05800    0.35810    1.000
    N5       N        0.66541    0.03590    0.11007    1.000
    N6       N        0.81449    0.49870    0.21960    1.000
    C1       C        0.80710    0.91380    0.25410    1.000
    C2       C        0.83170    0.96520    0.29070    1.000
    C3       C        0.86190    0.92340    0.31700    1.000
    H1       H        0.86740    0.86200    0.31230    1.000
    C4       C        0.88450    0.97190    0.35080    1.000
    H2       H        0.90510    0.94200    0.36980    1.000
    C5       C        0.84940    0.09920    0.33250    1.000
    H3       H        0.84490    0.16100    0.33770    1.000
    C6       C        0.82490    0.05420    0.29830    1.000
    H4       H        0.80380    0.08460    0.28050    1.000
    C7       C        0.75750    0.90400    0.19630    1.000
    C8       C        0.72520    0.94930    0.16590    1.000
    C9       C        0.71580    0.03720    0.17400    1.000
    H5       H        0.72990    0.06910    0.19890    1.000
    C10      C        0.68580    0.07810    0.14570    1.000
    H6       H        0.67920    0.13820    0.15170    1.000
    C11      C        0.67470    0.95140    0.10220    1.000
    H7       H        0.66040    0.92160    0.07680    1.000
    C12      C        0.70410    0.90490    0.12930    1.000
    H8       H        0.70960    0.84430    0.12300    1.000
    C13      C        0.79330    0.78170    0.21880    1.000
    C14      C        0.80060    0.68320    0.21710    1.000
    C15      C        0.77410    0.62400    0.19370    1.000
    H9       H        0.75080    0.64580    0.17620    1.000
    C16      C        0.78180    0.53300    0.19580    1.000
    H10      H        0.76330    0.49290    0.17980    1.000
    C17      C        0.84020    0.55600    0.24250    1.000
    H11      H        0.86330    0.53240    0.25950    1.000
    C18      C        0.83440    0.64790    0.24240    1.000
    H12      H        0.85310    0.68670    0.25920    1.000
    N7       N        0.42618    0.72080    0.06380    1.000
    N8       N        0.47613    0.77000    0.02982    1.000
    N9       N        0.46289    0.84960    0.09170    1.000
    N10      N        0.43094    0.48270    0.94970    1.000
    N11      N        0.57836    0.00670    0.06290    1.000
    N12      N        0.36050    0.84170    0.18010    1.000
    C19      C        0.44820    0.71310    0.03470    1.000
    C20      C        0.44200    0.63320    0.00470    1.000
    C21      C        0.40990    0.58140    0.00040    1.000
    H13      H        0.39070    0.59670    0.01620    1.000
    C22      C        0.40550    0.50640    0.97300    1.000
    H14      H        0.38320    0.47060    0.97080    1.000
    C23      C        0.46240    0.53450    0.95300    1.000
    H15      H        0.48090    0.51860    0.93630    1.000
    C24      C        0.46880    0.61010    0.98010    1.000
    H16      H        0.49120    0.64540    0.98170    1.000
    C25      C        0.48280    0.83460    0.06040    1.000
    C26      C        0.51560    0.89460    0.06060    1.000
    C27      C        0.52890    0.91310    0.02260    1.000
    H17      H        0.51660    0.88720    0.99510    1.000
    C28      C        0.56030    0.96970    0.02420    1.000
    H18      H        0.56910    0.98220    0.99780    1.000
    C29      C        0.56590    0.98630    0.10000    1.000
    H19      H        0.57920    0.01090    0.12740    1.000
    C30      C        0.53520    0.93220    0.10030    1.000
    H20      H        0.52730    0.92020    0.12740    1.000
    C31      C        0.43400    0.79180    0.09100    1.000
    C32      C        0.40890    0.80800    0.12230    1.000
    C33      C        0.41910    0.86740    0.15690    1.000
    H21      H        0.44270    0.89870    0.16110    1.000
    C34      C        0.39470    0.88110    0.18560    1.000
    H22      H        0.40260    0.92020    0.21020    1.000
    C35      C        0.35080    0.78400    0.14590    1.000
    H23      H        0.32700    0.75370    0.14180    1.000
    C36      C        0.37430    0.76710    0.11660    1.000
    H24      H        0.36630    0.72690    0.09240    1.000
    I7       I        0.14069    0.60819    0.99282    1.000
    I8       I        0.10013    0.73298    0.10689    1.000
    I9       I        0.76576    0.27190    0.19928    1.000
    I10      I        0.86935    0.34132    0.30205    1.000
    I11      I        0.89132    0.75287    0.94409    1.000
    I12      I        0.97613    0.85607    0.86820    1.000
    Zn4      Zn       0.12165    0.59905    0.06687    1.000
    Zn5      Zn       0.91957    0.87608    0.90531    1.000
    Zn6      Zn       0.82654    0.36217    0.22560    1.000
    N13      N        0.31676    0.32760    0.25080    1.000
    N14      N        0.27757    0.45520    0.22870    1.000
    N15      N        0.26362    0.31630    0.19010    1.000
    N16      N        0.37876    0.55800    0.35810    1.000
    N17      N        0.16541    0.53590    0.11007    1.000
    N18      N        0.31449    0.99870    0.21960    1.000
    C37      C        0.30710    0.41380    0.25410    1.000
    C38      C        0.33170    0.46520    0.29070    1.000
    C39      C        0.36190    0.42340    0.31700    1.000
    H25      H        0.36740    0.36200    0.31230    1.000
    C40      C        0.38450    0.47190    0.35080    1.000
    H26      H        0.40510    0.44200    0.36980    1.000
    C41      C        0.34940    0.59920    0.33250    1.000
    H27      H        0.34490    0.66100    0.33770    1.000
    C42      C        0.32490    0.55420    0.29830    1.000
    H28      H        0.30380    0.58460    0.28050    1.000
    C43      C        0.25750    0.40400    0.19630    1.000
    C44      C        0.22520    0.44930    0.16590    1.000
    C45      C        0.21580    0.53720    0.17400    1.000
    H29      H        0.22990    0.56910    0.19890    1.000
    C46      C        0.18580    0.57810    0.14570    1.000
    H30      H        0.17920    0.63820    0.15170    1.000
    C47      C        0.17470    0.45140    0.10220    1.000
    H31      H        0.16040    0.42160    0.07680    1.000
    C48      C        0.20410    0.40490    0.12930    1.000
    H32      H        0.20960    0.34430    0.12300    1.000
    C49      C        0.29330    0.28170    0.21880    1.000
    C50      C        0.30060    0.18320    0.21710    1.000
    C51      C        0.27410    0.12400    0.19370    1.000
    H33      H        0.25080    0.14580    0.17620    1.000
    C52      C        0.28180    0.03300    0.19580    1.000
    H34      H        0.26330    0.99290    0.17980    1.000
    C53      C        0.34020    0.05600    0.24250    1.000
    H35      H        0.36330    0.03240    0.25950    1.000
    C54      C        0.33440    0.14790    0.24240    1.000
    H36      H        0.35310    0.18670    0.25920    1.000
    N19      N        0.92618    0.22080    0.06380    1.000
    N20      N        0.97613    0.27000    0.02982    1.000
    N21      N        0.96289    0.34960    0.09170    1.000
    N22      N        0.93094    0.98270    0.94970    1.000
    N23      N        0.07836    0.50670    0.06290    1.000
    N24      N        0.86050    0.34170    0.18010    1.000
    C55      C        0.94820    0.21310    0.03470    1.000
    C56      C        0.94200    0.13320    0.00470    1.000
    C57      C        0.90990    0.08140    0.00040    1.000
    H37      H        0.89070    0.09670    0.01620    1.000
    C58      C        0.90550    0.00640    0.97300    1.000
    H38      H        0.88320    0.97060    0.97080    1.000
    C59      C        0.96240    0.03450    0.95300    1.000
    H39      H        0.98090    0.01860    0.93630    1.000
    C60      C        0.96880    0.11010    0.98010    1.000
    H40      H        0.99120    0.14540    0.98170    1.000
    C61      C        0.98280    0.33460    0.06040    1.000
    C62      C        0.01560    0.39460    0.06060    1.000
    C63      C        0.02890    0.41310    0.02260    1.000
    H41      H        0.01660    0.38720    0.99510    1.000
    C64      C        0.06030    0.46970    0.02420    1.000
    H42      H        0.06910    0.48220    0.99780    1.000
    C65      C        0.06590    0.48630    0.10000    1.000
    H43      H        0.07920    0.51090    0.12740    1.000
    C66      C        0.03520    0.43220    0.10030    1.000
    H44      H        0.02730    0.42020    0.12740    1.000
    C67      C        0.93400    0.29180    0.09100    1.000
    C68      C        0.90890    0.30800    0.12230    1.000
    C69      C        0.91910    0.36740    0.15690    1.000
    H45      H        0.94270    0.39870    0.16110    1.000
    C70      C        0.89470    0.38110    0.18560    1.000
    H46      H        0.90260    0.42020    0.21020    1.000
    C71      C        0.85080    0.28400    0.14590    1.000
    H47      H        0.82700    0.25370    0.14180    1.000
    C72      C        0.87430    0.26710    0.11660    1.000
    H48      H        0.86630    0.22690    0.09240    1.000
    I13      I        0.64069    0.89181    0.49282    1.000
    I14      I        0.60013    0.76702    0.60689    1.000
    I15      I        0.26576    0.22810    0.69928    1.000
    I16      I        0.36935    0.15868    0.80205    1.000
    I17      I        0.39132    0.74713    0.44409    1.000
    I18      I        0.47613    0.64393    0.36820    1.000
    Zn7      Zn       0.62165    0.90095    0.56687    1.000
    Zn8      Zn       0.41957    0.62392    0.40531    1.000
    Zn9      Zn       0.32654    0.13783    0.72560    1.000
    N25      N        0.81676    0.17240    0.75080    1.000
    N26      N        0.77757    0.04480    0.72870    1.000
    N27      N        0.76362    0.18370    0.69010    1.000
    N28      N        0.87876    0.94200    0.85810    1.000
    N29      N        0.66541    0.96410    0.61007    1.000
    N30      N        0.81449    0.50130    0.71960    1.000
    C73      C        0.80710    0.08620    0.75410    1.000
    C74      C        0.83170    0.03480    0.79070    1.000
    C75      C        0.86190    0.07660    0.81700    1.000
    H49      H        0.86740    0.13800    0.81230    1.000
    C76      C        0.88450    0.02810    0.85080    1.000
    H50      H        0.90510    0.05800    0.86980    1.000
    C77      C        0.84940    0.90080    0.83250    1.000
    H51      H        0.84490    0.83900    0.83770    1.000
    C78      C        0.82490    0.94580    0.79830    1.000
    H52      H        0.80380    0.91540    0.78050    1.000
    C79      C        0.75750    0.09600    0.69630    1.000
    C80      C        0.72520    0.05070    0.66590    1.000
    C81      C        0.71580    0.96280    0.67400    1.000
    H53      H        0.72990    0.93090    0.69890    1.000
    C82      C        0.68580    0.92190    0.64570    1.000
    H54      H        0.67920    0.86180    0.65170    1.000
    C83      C        0.67470    0.04860    0.60220    1.000
    H55      H        0.66040    0.07840    0.57680    1.000
    C84      C        0.70410    0.09510    0.62930    1.000
    H56      H        0.70960    0.15570    0.62300    1.000
    C85      C        0.79330    0.21830    0.71880    1.000
    C86      C        0.80060    0.31680    0.71710    1.000
    C87      C        0.77410    0.37600    0.69370    1.000
    H57      H        0.75080    0.35420    0.67620    1.000
    C88      C        0.78180    0.46700    0.69580    1.000
    H58      H        0.76330    0.50710    0.67980    1.000
    C89      C        0.84020    0.44400    0.74250    1.000
    H59      H        0.86330    0.46760    0.75950    1.000
    C90      C        0.83440    0.35210    0.74240    1.000
    H60      H        0.85310    0.31330    0.75920    1.000
    N31      N        0.42618    0.27920    0.56380    1.000
    N32      N        0.47613    0.23000    0.52982    1.000
    N33      N        0.46289    0.15040    0.59170    1.000
    N34      N        0.43094    0.51730    0.44970    1.000
    N35      N        0.57836    0.99330    0.56290    1.000
    N36      N        0.36050    0.15830    0.68010    1.000
    C91      C        0.44820    0.28690    0.53470    1.000
    C92      C        0.44200    0.36680    0.50470    1.000
    C93      C        0.40990    0.41860    0.50040    1.000
    H61      H        0.39070    0.40330    0.51620    1.000
    C94      C        0.40550    0.49360    0.47300    1.000
    H62      H        0.38320    0.52940    0.47080    1.000
    C95      C        0.46240    0.46550    0.45300    1.000
    H63      H        0.48090    0.48140    0.43630    1.000
    C96      C        0.46880    0.38990    0.48010    1.000
    H64      H        0.49120    0.35460    0.48170    1.000
    C97      C        0.48280    0.16540    0.56040    1.000
    C98      C        0.51560    0.10540    0.56060    1.000
    C99      C        0.52890    0.08690    0.52260    1.000
    H65      H        0.51660    0.11280    0.49510    1.000
    C100     C        0.56030    0.03030    0.52420    1.000
    H66      H        0.56910    0.01780    0.49780    1.000
    C101     C        0.56590    0.01370    0.60000    1.000
    H67      H        0.57920    0.98910    0.62740    1.000
    C102     C        0.53520    0.06780    0.60030    1.000
    H68      H        0.52730    0.07980    0.62740    1.000
    C103     C        0.43400    0.20820    0.59100    1.000
    C104     C        0.40890    0.19200    0.62230    1.000
    C105     C        0.41910    0.13260    0.65690    1.000
    H69      H        0.44270    0.10130    0.66110    1.000
    C106     C        0.39470    0.11890    0.68560    1.000
    H70      H        0.40260    0.07980    0.71020    1.000
    C107     C        0.35080    0.21600    0.64590    1.000
    H71      H        0.32700    0.24630    0.64180    1.000
    C108     C        0.37430    0.23290    0.61660    1.000
    H72      H        0.36630    0.27310    0.59240    1.000
    I19      I        0.14069    0.39181    0.49282    1.000
    I20      I        0.10013    0.26702    0.60689    1.000
    I21      I        0.76576    0.72810    0.69928    1.000
    I22      I        0.86935    0.65868    0.80205    1.000
    I23      I        0.89132    0.24713    0.44409    1.000
    I24      I        0.97613    0.14393    0.36820    1.000
    Zn10     Zn       0.12165    0.40095    0.56687    1.000
    Zn11     Zn       0.91957    0.12392    0.40531    1.000
    Zn12     Zn       0.82654    0.63783    0.72560    1.000
    N37      N        0.31676    0.67240    0.75080    1.000
    N38      N        0.27757    0.54480    0.72870    1.000
    N39      N        0.26362    0.68370    0.69010    1.000
    N40      N        0.37876    0.44200    0.85810    1.000
    N41      N        0.16541    0.46410    0.61007    1.000
    N42      N        0.31449    0.00130    0.71960    1.000
    C109     C        0.30710    0.58620    0.75410    1.000
    C110     C        0.33170    0.53480    0.79070    1.000
    C111     C        0.36190    0.57660    0.81700    1.000
    H73      H        0.36740    0.63800    0.81230    1.000
    C112     C        0.38450    0.52810    0.85080    1.000
    H74      H        0.40510    0.55800    0.86980    1.000
    C113     C        0.34940    0.40080    0.83250    1.000
    H75      H        0.34490    0.33900    0.83770    1.000
    C114     C        0.32490    0.44580    0.79830    1.000
    H76      H        0.30380    0.41540    0.78050    1.000
    C115     C        0.25750    0.59600    0.69630    1.000
    C116     C        0.22520    0.55070    0.66590    1.000
    C117     C        0.21580    0.46280    0.67400    1.000
    H77      H        0.22990    0.43090    0.69890    1.000
    C118     C        0.18580    0.42190    0.64570    1.000
    H78      H        0.17920    0.36180    0.65170    1.000
    C119     C        0.17470    0.54860    0.60220    1.000
    H79      H        0.16040    0.57840    0.57680    1.000
    C120     C        0.20410    0.59510    0.62930    1.000
    H80      H        0.20960    0.65570    0.62300    1.000
    C121     C        0.29330    0.71830    0.71880    1.000
    C122     C        0.30060    0.81680    0.71710    1.000
    C123     C        0.27410    0.87600    0.69370    1.000
    H81      H        0.25080    0.85420    0.67620    1.000
    C124     C        0.28180    0.96700    0.69580    1.000
    H82      H        0.26330    0.00710    0.67980    1.000
    C125     C        0.34020    0.94400    0.74250    1.000
    H83      H        0.36330    0.96760    0.75950    1.000
    C126     C        0.33440    0.85210    0.74240    1.000
    H84      H        0.35310    0.81330    0.75920    1.000
    N43      N        0.92618    0.77920    0.56380    1.000
    N44      N        0.97613    0.73000    0.52982    1.000
    N45      N        0.96289    0.65040    0.59170    1.000
    N46      N        0.93094    0.01730    0.44970    1.000
    N47      N        0.07836    0.49330    0.56290    1.000
    N48      N        0.86050    0.65830    0.68010    1.000
    C127     C        0.94820    0.78690    0.53470    1.000
    C128     C        0.94200    0.86680    0.50470    1.000
    C129     C        0.90990    0.91860    0.50040    1.000
    H85      H        0.89070    0.90330    0.51620    1.000
    C130     C        0.90550    0.99360    0.47300    1.000
    H86      H        0.88320    0.02940    0.47080    1.000
    C131     C        0.96240    0.96550    0.45300    1.000
    H87      H        0.98090    0.98140    0.43630    1.000
    C132     C        0.96880    0.88990    0.48010    1.000
    H88      H        0.99120    0.85460    0.48170    1.000
    C133     C        0.98280    0.66540    0.56040    1.000
    C134     C        0.01560    0.60540    0.56060    1.000
    C135     C        0.02890    0.58690    0.52260    1.000
    H89      H        0.01660    0.61280    0.49510    1.000
    C136     C        0.06030    0.53030    0.52420    1.000
    H90      H        0.06910    0.51780    0.49780    1.000
    C137     C        0.06590    0.51370    0.60000    1.000
    H91      H        0.07920    0.48910    0.62740    1.000
    C138     C        0.03520    0.56780    0.60030    1.000
    H92      H        0.02730    0.57980    0.62740    1.000
    C139     C        0.93400    0.70820    0.59100    1.000
    C140     C        0.90890    0.69200    0.62230    1.000
    C141     C        0.91910    0.63260    0.65690    1.000
    H93      H        0.94270    0.60130    0.66110    1.000
    C142     C        0.89470    0.61890    0.68560    1.000
    H94      H        0.90260    0.57980    0.71020    1.000
    C143     C        0.85080    0.71600    0.64590    1.000
    H95      H        0.82700    0.74630    0.64180    1.000
    C144     C        0.87430    0.73290    0.61660    1.000
    H96      H        0.86630    0.77310    0.59240    1.000
    I25      I        0.35931    0.10819    0.50718    1.000
    I26      I        0.39987    0.23298    0.39311    1.000
    I27      I        0.73424    0.77190    0.30072    1.000
    I28      I        0.63065    0.84132    0.19795    1.000
    I29      I        0.60868    0.25287    0.55591    1.000
    I30      I        0.52387    0.35607    0.63180    1.000
    Zn13     Zn       0.37835    0.09905    0.43313    1.000
    Zn14     Zn       0.58043    0.37608    0.59469    1.000
    Zn15     Zn       0.67346    0.86217    0.27440    1.000
    N49      N        0.18324    0.82760    0.24920    1.000
    N50      N        0.22243    0.95520    0.27130    1.000
    N51      N        0.23638    0.81630    0.30990    1.000
    N52      N        0.12124    0.05800    0.14190    1.000
    N53      N        0.33459    0.03590    0.38993    1.000
    N54      N        0.18551    0.49870    0.28040    1.000
    C145     C        0.19290    0.91380    0.24590    1.000
    C146     C        0.16830    0.96520    0.20930    1.000
    C147     C        0.13810    0.92340    0.18300    1.000
    H97      H        0.13260    0.86200    0.18770    1.000
    C148     C        0.11550    0.97190    0.14920    1.000
    H98      H        0.09490    0.94200    0.13020    1.000
    C149     C        0.15060    0.09920    0.16750    1.000
    H99      H        0.15510    0.16100    0.16230    1.000
    C150     C        0.17510    0.05420    0.20170    1.000
    H100     H        0.19620    0.08460    0.21950    1.000
    C151     C        0.24250    0.90400    0.30370    1.000
    C152     C        0.27480    0.94930    0.33410    1.000
    C153     C        0.28420    0.03720    0.32600    1.000
    H101     H        0.27010    0.06910    0.30110    1.000
    C154     C        0.31420    0.07810    0.35430    1.000
    H102     H        0.32080    0.13820    0.34830    1.000
    C155     C        0.32530    0.95140    0.39780    1.000
    H103     H        0.33960    0.92160    0.42320    1.000
    C156     C        0.29590    0.90490    0.37070    1.000
    H104     H        0.29040    0.84430    0.37700    1.000
    C157     C        0.20670    0.78170    0.28120    1.000
    C158     C        0.19940    0.68320    0.28290    1.000
    C159     C        0.22590    0.62400    0.30630    1.000
    H105     H        0.24920    0.64580    0.32380    1.000
    C160     C        0.21820    0.53300    0.30420    1.000
    H106     H        0.23670    0.49290    0.32020    1.000
    C161     C        0.15980    0.55600    0.25750    1.000
    H107     H        0.13670    0.53240    0.24050    1.000
    C162     C        0.16560    0.64790    0.25760    1.000
    H108     H        0.14690    0.68670    0.24080    1.000
    N55      N        0.57382    0.72080    0.43620    1.000
    N56      N        0.52387    0.77000    0.47018    1.000
    N57      N        0.53711    0.84960    0.40830    1.000
    N58      N        0.56906    0.48270    0.55030    1.000
    N59      N        0.42164    0.00670    0.43710    1.000
    N60      N        0.63950    0.84170    0.31990    1.000
    C163     C        0.55180    0.71310    0.46530    1.000
    C164     C        0.55800    0.63320    0.49530    1.000
    C165     C        0.59010    0.58140    0.49960    1.000
    H109     H        0.60930    0.59670    0.48380    1.000
    C166     C        0.59450    0.50640    0.52700    1.000
    H110     H        0.61680    0.47060    0.52920    1.000
    C167     C        0.53760    0.53450    0.54700    1.000
    H111     H        0.51910    0.51860    0.56370    1.000
    C168     C        0.53120    0.61010    0.51990    1.000
    H112     H        0.50880    0.64540    0.51830    1.000
    C169     C        0.51720    0.83460    0.43960    1.000
    C170     C        0.48440    0.89460    0.43940    1.000
    C171     C        0.47110    0.91310    0.47740    1.000
    H113     H        0.48340    0.88720    0.50490    1.000
    C172     C        0.43970    0.96970    0.47580    1.000
    H114     H        0.43090    0.98220    0.50220    1.000
    C173     C        0.43410    0.98630    0.40000    1.000
    H115     H        0.42080    0.01090    0.37260    1.000
    C174     C        0.46480    0.93220    0.39970    1.000
    H116     H        0.47270    0.92020    0.37260    1.000
    C175     C        0.56600    0.79180    0.40900    1.000
    C176     C        0.59110    0.80800    0.37770    1.000
    C177     C        0.58090    0.86740    0.34310    1.000
    H117     H        0.55730    0.89870    0.33890    1.000
    C178     C        0.60530    0.88110    0.31440    1.000
    H118     H        0.59740    0.92020    0.28980    1.000
    C179     C        0.64920    0.78400    0.35410    1.000
    H119     H        0.67300    0.75370    0.35820    1.000
    C180     C        0.62570    0.76710    0.38340    1.000
    H120     H        0.63370    0.72690    0.40760    1.000
    I31      I        0.85931    0.60819    0.50718    1.000
    I32      I        0.89987    0.73298    0.39311    1.000
    I33      I        0.23424    0.27190    0.30072    1.000
    I34      I        0.13065    0.34132    0.19795    1.000
    I35      I        0.10868    0.75287    0.55591    1.000
    I36      I        0.02387    0.85607    0.63180    1.000
    Zn16     Zn       0.87835    0.59905    0.43313    1.000
    Zn17     Zn       0.08043    0.87608    0.59469    1.000
    Zn18     Zn       0.17346    0.36217    0.27440    1.000
    N61      N        0.68324    0.32760    0.24920    1.000
    N62      N        0.72243    0.45520    0.27130    1.000
    N63      N        0.73638    0.31630    0.30990    1.000
    N64      N        0.62124    0.55800    0.14190    1.000
    N65      N        0.83459    0.53590    0.38993    1.000
    N66      N        0.68551    0.99870    0.28040    1.000
    C181     C        0.69290    0.41380    0.24590    1.000
    C182     C        0.66830    0.46520    0.20930    1.000
    C183     C        0.63810    0.42340    0.18300    1.000
    H121     H        0.63260    0.36200    0.18770    1.000
    C184     C        0.61550    0.47190    0.14920    1.000
    H122     H        0.59490    0.44200    0.13020    1.000
    C185     C        0.65060    0.59920    0.16750    1.000
    H123     H        0.65510    0.66100    0.16230    1.000
    C186     C        0.67510    0.55420    0.20170    1.000
    H124     H        0.69620    0.58460    0.21950    1.000
    C187     C        0.74250    0.40400    0.30370    1.000
    C188     C        0.77480    0.44930    0.33410    1.000
    C189     C        0.78420    0.53720    0.32600    1.000
    H125     H        0.77010    0.56910    0.30110    1.000
    C190     C        0.81420    0.57810    0.35430    1.000
    H126     H        0.82080    0.63820    0.34830    1.000
    C191     C        0.82530    0.45140    0.39780    1.000
    H127     H        0.83960    0.42160    0.42320    1.000
    C192     C        0.79590    0.40490    0.37070    1.000
    H128     H        0.79040    0.34430    0.37700    1.000
    C193     C        0.70670    0.28170    0.28120    1.000
    C194     C        0.69940    0.18320    0.28290    1.000
    C195     C        0.72590    0.12400    0.30630    1.000
    H129     H        0.74920    0.14580    0.32380    1.000
    C196     C        0.71820    0.03300    0.30420    1.000
    H130     H        0.73670    0.99290    0.32020    1.000
    C197     C        0.65980    0.05600    0.25750    1.000
    H131     H        0.63670    0.03240    0.24050    1.000
    C198     C        0.66560    0.14790    0.25760    1.000
    H132     H        0.64690    0.18670    0.24080    1.000
    N67      N        0.07382    0.22080    0.43620    1.000
    N68      N        0.02387    0.27000    0.47018    1.000
    N69      N        0.03711    0.34960    0.40830    1.000
    N70      N        0.06906    0.98270    0.55030    1.000
    N71      N        0.92164    0.50670    0.43710    1.000
    N72      N        0.13950    0.34170    0.31990    1.000
    C199     C        0.05180    0.21310    0.46530    1.000
    C200     C        0.05800    0.13320    0.49530    1.000
    C201     C        0.09010    0.08140    0.49960    1.000
    H133     H        0.10930    0.09670    0.48380    1.000
    C202     C        0.09450    0.00640    0.52700    1.000
    H134     H        0.11680    0.97060    0.52920    1.000
    C203     C        0.03760    0.03450    0.54700    1.000
    H135     H        0.01910    0.01860    0.56370    1.000
    C204     C        0.03120    0.11010    0.51990    1.000
    H136     H        0.00880    0.14540    0.51830    1.000
    C205     C        0.01720    0.33460    0.43960    1.000
    C206     C        0.98440    0.39460    0.43940    1.000
    C207     C        0.97110    0.41310    0.47740    1.000
    H137     H        0.98340    0.38720    0.50490    1.000
    C208     C        0.93970    0.46970    0.47580    1.000
    H138     H        0.93090    0.48220    0.50220    1.000
    C209     C        0.93410    0.48630    0.40000    1.000
    H139     H        0.92080    0.51090    0.37260    1.000
    C210     C        0.96480    0.43220    0.39970    1.000
    H140     H        0.97270    0.42020    0.37260    1.000
    C211     C        0.06600    0.29180    0.40900    1.000
    C212     C        0.09110    0.30800    0.37770    1.000
    C213     C        0.08090    0.36740    0.34310    1.000
    H141     H        0.05730    0.39870    0.33890    1.000
    C214     C        0.10530    0.38110    0.31440    1.000
    H142     H        0.09740    0.42020    0.28980    1.000
    C215     C        0.14920    0.28400    0.35410    1.000
    H143     H        0.17300    0.25370    0.35820    1.000
    C216     C        0.12570    0.26710    0.38340    1.000
    H144     H        0.13370    0.22690    0.40760    1.000
    I37      I        0.35931    0.89181    0.00718    1.000
    I38      I        0.39987    0.76702    0.89311    1.000
    I39      I        0.73424    0.22810    0.80072    1.000
    I40      I        0.63065    0.15868    0.69795    1.000
    I41      I        0.60868    0.74713    0.05591    1.000
    I42      I        0.52387    0.64393    0.13180    1.000
    Zn19     Zn       0.37835    0.90095    0.93313    1.000
    Zn20     Zn       0.58043    0.62392    0.09469    1.000
    Zn21     Zn       0.67346    0.13783    0.77440    1.000
    N73      N        0.18324    0.17240    0.74920    1.000
    N74      N        0.22243    0.04480    0.77130    1.000
    N75      N        0.23638    0.18370    0.80990    1.000
    N76      N        0.12124    0.94200    0.64190    1.000
    N77      N        0.33459    0.96410    0.88993    1.000
    N78      N        0.18551    0.50130    0.78040    1.000
    C217     C        0.19290    0.08620    0.74590    1.000
    C218     C        0.16830    0.03480    0.70930    1.000
    C219     C        0.13810    0.07660    0.68300    1.000
    H145     H        0.13260    0.13800    0.68770    1.000
    C220     C        0.11550    0.02810    0.64920    1.000
    H146     H        0.09490    0.05800    0.63020    1.000
    C221     C        0.15060    0.90080    0.66750    1.000
    H147     H        0.15510    0.83900    0.66230    1.000
    C222     C        0.17510    0.94580    0.70170    1.000
    H148     H        0.19620    0.91540    0.71950    1.000
    C223     C        0.24250    0.09600    0.80370    1.000
    C224     C        0.27480    0.05070    0.83410    1.000
    C225     C        0.28420    0.96280    0.82600    1.000
    H149     H        0.27010    0.93090    0.80110    1.000
    C226     C        0.31420    0.92190    0.85430    1.000
    H150     H        0.32080    0.86180    0.84830    1.000
    C227     C        0.32530    0.04860    0.89780    1.000
    H151     H        0.33960    0.07840    0.92320    1.000
    C228     C        0.29590    0.09510    0.87070    1.000
    H152     H        0.29040    0.15570    0.87700    1.000
    C229     C        0.20670    0.21830    0.78120    1.000
    C230     C        0.19940    0.31680    0.78290    1.000
    C231     C        0.22590    0.37600    0.80630    1.000
    H153     H        0.24920    0.35420    0.82380    1.000
    C232     C        0.21820    0.46700    0.80420    1.000
    H154     H        0.23670    0.50710    0.82020    1.000
    C233     C        0.15980    0.44400    0.75750    1.000
    H155     H        0.13670    0.46760    0.74050    1.000
    C234     C        0.16560    0.35210    0.75760    1.000
    H156     H        0.14690    0.31330    0.74080    1.000
    N79      N        0.57382    0.27920    0.93620    1.000
    N80      N        0.52387    0.23000    0.97018    1.000
    N81      N        0.53711    0.15040    0.90830    1.000
    N82      N        0.56906    0.51730    0.05030    1.000
    N83      N        0.42164    0.99330    0.93710    1.000
    N84      N        0.63950    0.15830    0.81990    1.000
    C235     C        0.55180    0.28690    0.96530    1.000
    C236     C        0.55800    0.36680    0.99530    1.000
    C237     C        0.59010    0.41860    0.99960    1.000
    H157     H        0.60930    0.40330    0.98380    1.000
    C238     C        0.59450    0.49360    0.02700    1.000
    H158     H        0.61680    0.52940    0.02920    1.000
    C239     C        0.53760    0.46550    0.04700    1.000
    H159     H        0.51910    0.48140    0.06370    1.000
    C240     C        0.53120    0.38990    0.01990    1.000
    H160     H        0.50880    0.35460    0.01830    1.000
    C241     C        0.51720    0.16540    0.93960    1.000
    C242     C        0.48440    0.10540    0.93940    1.000
    C243     C        0.47110    0.08690    0.97740    1.000
    H161     H        0.48340    0.11280    0.00490    1.000
    C244     C        0.43970    0.03030    0.97580    1.000
    H162     H        0.43090    0.01780    0.00220    1.000
    C245     C        0.43410    0.01370    0.90000    1.000
    H163     H        0.42080    0.98910    0.87260    1.000
    C246     C        0.46480    0.06780    0.89970    1.000
    H164     H        0.47270    0.07980    0.87260    1.000
    C247     C        0.56600    0.20820    0.90900    1.000
    C248     C        0.59110    0.19200    0.87770    1.000
    C249     C        0.58090    0.13260    0.84310    1.000
    H165     H        0.55730    0.10130    0.83890    1.000
    C250     C        0.60530    0.11890    0.81440    1.000
    H166     H        0.59740    0.07980    0.78980    1.000
    C251     C        0.64920    0.21600    0.85410    1.000
    H167     H        0.67300    0.24630    0.85820    1.000
    C252     C        0.62570    0.23290    0.88340    1.000
    H168     H        0.63370    0.27310    0.90760    1.000
    I43      I        0.85931    0.39181    0.00718    1.000
    I44      I        0.89987    0.26702    0.89311    1.000
    I45      I        0.23424    0.72810    0.80072    1.000
    I46      I        0.13065    0.65868    0.69795    1.000
    I47      I        0.10868    0.24713    0.05591    1.000
    I48      I        0.02387    0.14393    0.13180    1.000
    Zn22     Zn       0.87835    0.40095    0.93313    1.000
    Zn23     Zn       0.08043    0.12392    0.09469    1.000
    Zn24     Zn       0.17346    0.63783    0.77440    1.000
    N85      N        0.68324    0.67240    0.74920    1.000
    N86      N        0.72243    0.54480    0.77130    1.000
    N87      N        0.73638    0.68370    0.80990    1.000
    N88      N        0.62124    0.44200    0.64190    1.000
    N89      N        0.83459    0.46410    0.88993    1.000
    N90      N        0.68551    0.00130    0.78040    1.000
    C253     C        0.69290    0.58620    0.74590    1.000
    C254     C        0.66830    0.53480    0.70930    1.000
    C255     C        0.63810    0.57660    0.68300    1.000
    H169     H        0.63260    0.63800    0.68770    1.000
    C256     C        0.61550    0.52810    0.64920    1.000
    H170     H        0.59490    0.55800    0.63020    1.000
    C257     C        0.65060    0.40080    0.66750    1.000
    H171     H        0.65510    0.33900    0.66230    1.000
    C258     C        0.67510    0.44580    0.70170    1.000
    H172     H        0.69620    0.41540    0.71950    1.000
    C259     C        0.74250    0.59600    0.80370    1.000
    C260     C        0.77480    0.55070    0.83410    1.000
    C261     C        0.78420    0.46280    0.82600    1.000
    H173     H        0.77010    0.43090    0.80110    1.000
    C262     C        0.81420    0.42190    0.85430    1.000
    H174     H        0.82080    0.36180    0.84830    1.000
    C263     C        0.82530    0.54860    0.89780    1.000
    H175     H        0.83960    0.57840    0.92320    1.000
    C264     C        0.79590    0.59510    0.87070    1.000
    H176     H        0.79040    0.65570    0.87700    1.000
    C265     C        0.70670    0.71830    0.78120    1.000
    C266     C        0.69940    0.81680    0.78290    1.000
    C267     C        0.72590    0.87600    0.80630    1.000
    H177     H        0.74920    0.85420    0.82380    1.000
    C268     C        0.71820    0.96700    0.80420    1.000
    H178     H        0.73670    0.00710    0.82020    1.000
    C269     C        0.65980    0.94400    0.75750    1.000
    H179     H        0.63670    0.96760    0.74050    1.000
    C270     C        0.66560    0.85210    0.75760    1.000
    H180     H        0.64690    0.81330    0.74080    1.000
    N91      N        0.07382    0.77920    0.93620    1.000
    N92      N        0.02387    0.73000    0.97018    1.000
    N93      N        0.03711    0.65040    0.90830    1.000
    N94      N        0.06906    0.01730    0.05030    1.000
    N95      N        0.92164    0.49330    0.93710    1.000
    N96      N        0.13950    0.65830    0.81990    1.000
    C271     C        0.05180    0.78690    0.96530    1.000
    C272     C        0.05800    0.86680    0.99530    1.000
    C273     C        0.09010    0.91860    0.99960    1.000
    H181     H        0.10930    0.90330    0.98380    1.000
    C274     C        0.09450    0.99360    0.02700    1.000
    H182     H        0.11680    0.02940    0.02920    1.000
    C275     C        0.03760    0.96550    0.04700    1.000
    H183     H        0.01910    0.98140    0.06370    1.000
    C276     C        0.03120    0.88990    0.01990    1.000
    H184     H        0.00880    0.85460    0.01830    1.000
    C277     C        0.01720    0.66540    0.93960    1.000
    C278     C        0.98440    0.60540    0.93940    1.000
    C279     C        0.97110    0.58690    0.97740    1.000
    H185     H        0.98340    0.61280    0.00490    1.000
    C280     C        0.93970    0.53030    0.97580    1.000
    H186     H        0.93090    0.51780    0.00220    1.000
    C281     C        0.93410    0.51370    0.90000    1.000
    H187     H        0.92080    0.48910    0.87260    1.000
    C282     C        0.96480    0.56780    0.89970    1.000
    H188     H        0.97270    0.57980    0.87260    1.000
    C283     C        0.06600    0.70820    0.90900    1.000
    C284     C        0.09110    0.69200    0.87770    1.000
    C285     C        0.08090    0.63260    0.84310    1.000
    H189     H        0.05730    0.60130    0.83890    1.000
    C286     C        0.10530    0.61890    0.81440    1.000
    H190     H        0.09740    0.57980    0.78980    1.000
    C287     C        0.14920    0.71600    0.85410    1.000
    H191     H        0.17300    0.74630    0.85820    1.000
    C288     C        0.12570    0.73290    0.88340    1.000
    H192     H        0.13370    0.77310    0.90760    1.000
