data_functionalizedCrystal
_audit_creation_method	'EQeq! by Chris Wilmer'
_symmetry_space_group_name_H-M	'P1'
_symmetry_Int_Tables_number	1
_symmetry_cell_setting	triclinic
loop_
_symmetry_equiv_pos_as_xyz
  x,y,z
_cell_length_a	26.988
_cell_length_b	26.988
_cell_length_c	26.988
_cell_angle_alpha	90
_cell_angle_beta	90
_cell_angle_gamma	90
loop_
_atom_site_label
_atom_site_type_symbol
_atom_site_fract_x
_atom_site_fract_y
_atom_site_fract_z
_atom_site_charge
Mof_O 	O 	0.44767	0.05016	0.14889	-0.427
Mof_O 	O 	0.44844	0.04938	0.23154	-0.432
Mof_C 	C 	0.2948	0.14588	0.19801	0.03
Mof_C 	C 	0.43063	0.06219	0.19078	0.365
Mof_C 	C 	0.36024	0.10724	0.14941	0.028
Mof_H 	H 	0.3739	0.0989	0.118	0.019
Mof_C 	C 	0.3196	0.13011	0.24129	-0.106
Mof_H 	H 	0.3057	0.1373	0.2728	0.066
Mof_C 	C 	0.31568	0.1343	0.15206	-0.105
Mof_H 	H 	0.2997	0.1447	0.1225	0.053
Mof_C 	C 	0.36392	0.10427	0.23836	0.032
Mof_H 	H 	0.3804	0.0945	0.2678	0.03
Mof_C 	C 	0.21677	0.17031	0.24202	-0.103
Mof_H 	H 	0.2215	0.1431	0.2639	0.06
Mof_C 	C 	0.38429	0.09265	0.19245	-0.118
Mof_C 	C 	0.24965	0.17734	0.20255	0.035
Mof_O 	O 	0.55233	0.94984	0.14889	-0.383
Mof_O 	O 	0.55156	0.95062	0.23154	-0.388
Mof_C 	C 	0.7052	0.85412	0.19801	0.031
Mof_C 	C 	0.56937	0.93781	0.19078	0.362
Mof_C 	C 	0.63976	0.89276	0.14941	0.028
Mof_H 	H 	0.6261	0.9011	0.118	0.036
Mof_C 	C 	0.6804	0.86989	0.24129	-0.091
Mof_H 	H 	0.6943	0.8627	0.2728	0.069
Mof_C 	C 	0.68432	0.8657	0.15206	-0.09
Mof_H 	H 	0.7003	0.8553	0.1225	0.061
Mof_C 	C 	0.63608	0.89573	0.23836	0.029
Mof_H 	H 	0.6196	0.9055	0.2678	0.044
Mof_C 	C 	0.78323	0.82969	0.24202	-0.107
Mof_H 	H 	0.7785	0.8569	0.2639	0.073
Mof_C 	C 	0.61571	0.90735	0.19245	-0.097
Mof_C 	C 	0.75035	0.82266	0.20255	0.049
Mof_O 	O 	0.55233	0.05016	0.85111	-0.413
Mof_O 	O 	0.55156	0.04938	0.76846	-0.429
Mof_C 	C 	0.7052	0.14588	0.80199	0.033
Mof_C 	C 	0.56937	0.06219	0.80922	0.364
Mof_C 	C 	0.63976	0.10724	0.85059	0.03
Mof_H 	H 	0.6261	0.0989	0.882	0.037
Mof_C 	C 	0.6804	0.13011	0.75871	-0.102
Mof_H 	H 	0.6943	0.1373	0.7272	0.067
Mof_C 	C 	0.68432	0.1343	0.84794	-0.098
Mof_H 	H 	0.7003	0.1447	0.8775	0.069
Mof_C 	C 	0.63608	0.10427	0.76164	0.031
Mof_H 	H 	0.6196	0.0945	0.7322	0.032
Mof_C 	C 	0.78323	0.17031	0.75798	-0.106
Mof_H 	H 	0.7785	0.1431	0.7361	0.066
Mof_C 	C 	0.61571	0.09265	0.80755	-0.112
Mof_C 	C 	0.75035	0.17734	0.79745	0.046
Mof_O 	O 	0.44767	0.94984	0.85111	-0.371
Mof_O 	O 	0.44844	0.95062	0.76846	-0.387
Mof_C 	C 	0.2948	0.85412	0.80199	0.032
Mof_C 	C 	0.43063	0.93781	0.80922	0.359
Mof_C 	C 	0.36024	0.89276	0.85059	0.027
Mof_H 	H 	0.3739	0.9011	0.882	0.051
Mof_C 	C 	0.3196	0.86989	0.75871	-0.089
Mof_H 	H 	0.3057	0.8627	0.7272	0.068
Mof_C 	C 	0.31568	0.8657	0.84794	-0.087
Mof_H 	H 	0.2997	0.8553	0.8775	0.071
Mof_C 	C 	0.36392	0.89573	0.76164	0.027
Mof_H 	H 	0.3804	0.9055	0.7322	0.045
Mof_C 	C 	0.21677	0.82969	0.75798	-0.106
Mof_H 	H 	0.2215	0.8569	0.7361	0.072
Mof_C 	C 	0.38429	0.90735	0.80755	-0.091
Mof_C 	C 	0.24965	0.82266	0.79745	0.051
Mof_O 	O 	0.14889	0.44767	0.05016	-0.426
Mof_O 	O 	0.23154	0.44844	0.04938	-0.431
Mof_C 	C 	0.19801	0.2948	0.14588	0.031
Mof_C 	C 	0.19078	0.43063	0.06219	0.366
Mof_C 	C 	0.14941	0.36024	0.10724	0.029
Mof_H 	H 	0.118	0.3739	0.0989	0.02
Mof_C 	C 	0.24129	0.3196	0.13011	-0.105
Mof_H 	H 	0.2728	0.3057	0.1373	0.067
Mof_C 	C 	0.15206	0.31568	0.1343	-0.104
Mof_H 	H 	0.1225	0.2997	0.1447	0.053
Mof_C 	C 	0.23836	0.36392	0.10427	0.032
Mof_H 	H 	0.2678	0.3804	0.0945	0.03
Mof_C 	C 	0.24202	0.21677	0.17031	-0.103
Mof_H 	H 	0.2639	0.2215	0.1431	0.06
Mof_C 	C 	0.19245	0.38429	0.09265	-0.118
Mof_C 	C 	0.20255	0.24965	0.17734	0.035
Mof_O 	O 	0.14889	0.55233	0.94984	-0.383
Mof_O 	O 	0.23154	0.55156	0.95062	-0.388
Mof_C 	C 	0.19801	0.7052	0.85412	0.031
Mof_C 	C 	0.19078	0.56937	0.93781	0.362
Mof_C 	C 	0.14941	0.63976	0.89276	0.028
Mof_H 	H 	0.118	0.6261	0.9011	0.036
Mof_C 	C 	0.24129	0.6804	0.86989	-0.091
Mof_H 	H 	0.2728	0.6943	0.8627	0.069
Mof_C 	C 	0.15206	0.68432	0.8657	-0.09
Mof_H 	H 	0.1225	0.7003	0.8553	0.061
Mof_C 	C 	0.23836	0.63608	0.89573	0.029
Mof_H 	H 	0.2678	0.6196	0.9055	0.044
Mof_C 	C 	0.24202	0.78323	0.82969	-0.107
Mof_H 	H 	0.2639	0.7785	0.8569	0.073
Mof_C 	C 	0.19245	0.61571	0.90735	-0.097
Mof_C 	C 	0.20255	0.75035	0.82266	0.049
Mof_O 	O 	0.85111	0.55233	0.05016	-0.413
Mof_O 	O 	0.76846	0.55156	0.04938	-0.429
Mof_C 	C 	0.80199	0.7052	0.14588	0.033
Mof_C 	C 	0.80922	0.56937	0.06219	0.364
Mof_C 	C 	0.85059	0.63976	0.10724	0.03
Mof_H 	H 	0.882	0.6261	0.0989	0.037
Mof_C 	C 	0.75871	0.6804	0.13011	-0.102
Mof_H 	H 	0.7272	0.6943	0.1373	0.067
Mof_C 	C 	0.84794	0.68432	0.1343	-0.098
Mof_H 	H 	0.8775	0.7003	0.1447	0.069
Mof_C 	C 	0.76164	0.63608	0.10427	0.031
Mof_H 	H 	0.7322	0.6196	0.0945	0.032
Mof_C 	C 	0.75798	0.78323	0.17031	-0.106
Mof_H 	H 	0.7361	0.7785	0.1431	0.066
Mof_C 	C 	0.80755	0.61571	0.09265	-0.112
Mof_C 	C 	0.79745	0.75035	0.17734	0.046
Mof_O 	O 	0.85111	0.44767	0.94984	-0.371
Mof_O 	O 	0.76846	0.44844	0.95062	-0.387
Mof_C 	C 	0.80199	0.2948	0.85412	0.032
Mof_C 	C 	0.80922	0.43063	0.93781	0.359
Mof_C 	C 	0.85059	0.36024	0.89276	0.027
Mof_H 	H 	0.882	0.3739	0.9011	0.051
Mof_C 	C 	0.75871	0.3196	0.86989	-0.089
Mof_H 	H 	0.7272	0.3057	0.8627	0.068
Mof_C 	C 	0.84794	0.31568	0.8657	-0.087
Mof_H 	H 	0.8775	0.2997	0.8553	0.071
Mof_C 	C 	0.76164	0.36392	0.89573	0.027
Mof_H 	H 	0.7322	0.3804	0.9055	0.045
Mof_C 	C 	0.75798	0.21677	0.82969	-0.106
Mof_H 	H 	0.7361	0.2215	0.8569	0.072
Mof_C 	C 	0.80755	0.38429	0.90735	-0.091
Mof_C 	C 	0.79745	0.24965	0.82266	0.051
Mof_O 	O 	0.05016	0.14889	0.44767	-0.426
Mof_O 	O 	0.04938	0.23154	0.44844	-0.431
Mof_C 	C 	0.14588	0.19801	0.2948	0.031
Mof_C 	C 	0.06219	0.19078	0.43063	0.366
Mof_C 	C 	0.10724	0.14941	0.36024	0.029
Mof_H 	H 	0.0989	0.118	0.3739	0.02
Mof_C 	C 	0.13011	0.24129	0.3196	-0.105
Mof_H 	H 	0.1373	0.2728	0.3057	0.067
Mof_C 	C 	0.1343	0.15206	0.31568	-0.104
Mof_H 	H 	0.1447	0.1225	0.2997	0.053
Mof_C 	C 	0.10427	0.23836	0.36392	0.032
Mof_H 	H 	0.0945	0.2678	0.3804	0.03
Mof_C 	C 	0.17031	0.24202	0.21677	-0.103
Mof_H 	H 	0.1431	0.2639	0.2215	0.06
Mof_C 	C 	0.09265	0.19245	0.38429	-0.118
Mof_C 	C 	0.17734	0.20255	0.24965	0.035
Mof_O 	O 	0.94984	0.14889	0.55233	-0.383
Mof_O 	O 	0.95062	0.23154	0.55156	-0.388
Mof_C 	C 	0.85412	0.19801	0.7052	0.031
Mof_C 	C 	0.93781	0.19078	0.56937	0.362
Mof_C 	C 	0.89276	0.14941	0.63976	0.028
Mof_H 	H 	0.9011	0.118	0.6261	0.036
Mof_C 	C 	0.86989	0.24129	0.6804	-0.091
Mof_H 	H 	0.8627	0.2728	0.6943	0.069
Mof_C 	C 	0.8657	0.15206	0.68432	-0.09
Mof_H 	H 	0.8553	0.1225	0.7003	0.061
Mof_C 	C 	0.89573	0.23836	0.63608	0.029
Mof_H 	H 	0.9055	0.2678	0.6196	0.044
Mof_C 	C 	0.82969	0.24202	0.78323	-0.107
Mof_H 	H 	0.8569	0.2639	0.7785	0.073
Mof_C 	C 	0.90735	0.19245	0.61571	-0.097
Mof_C 	C 	0.82266	0.20255	0.75035	0.049
Mof_O 	O 	0.05016	0.85111	0.55233	-0.413
Mof_O 	O 	0.04938	0.76846	0.55156	-0.429
Mof_C 	C 	0.14588	0.80199	0.7052	0.033
Mof_C 	C 	0.06219	0.80922	0.56937	0.364
Mof_C 	C 	0.10724	0.85059	0.63976	0.03
Mof_H 	H 	0.0989	0.882	0.6261	0.037
Mof_C 	C 	0.13011	0.75871	0.6804	-0.102
Mof_H 	H 	0.1373	0.7272	0.6943	0.067
Mof_C 	C 	0.1343	0.84794	0.68432	-0.098
Mof_H 	H 	0.1447	0.8775	0.7003	0.069
Mof_C 	C 	0.10427	0.76164	0.63608	0.031
Mof_H 	H 	0.0945	0.7322	0.6196	0.032
Mof_C 	C 	0.17031	0.75798	0.78323	-0.106
Mof_H 	H 	0.1431	0.7361	0.7785	0.066
Mof_C 	C 	0.09265	0.80755	0.61571	-0.112
Mof_C 	C 	0.17734	0.79745	0.75035	0.046
Mof_O 	O 	0.94984	0.85111	0.44767	-0.371
Mof_O 	O 	0.95062	0.76846	0.44844	-0.387
Mof_C 	C 	0.85412	0.80199	0.2948	0.032
Mof_C 	C 	0.93781	0.80922	0.43063	0.359
Mof_C 	C 	0.89276	0.85059	0.36024	0.027
Mof_H 	H 	0.9011	0.882	0.3739	0.051
Mof_C 	C 	0.86989	0.75871	0.3196	-0.089
Mof_H 	H 	0.8627	0.7272	0.3057	0.068
Mof_C 	C 	0.8657	0.84794	0.31568	-0.087
Mof_H 	H 	0.8553	0.8775	0.2997	0.071
Mof_C 	C 	0.89573	0.76164	0.36392	0.027
Mof_H 	H 	0.9055	0.7322	0.3804	0.045
Mof_C 	C 	0.82969	0.75798	0.21677	-0.106
Mof_H 	H 	0.8569	0.7361	0.2215	0.072
Mof_C 	C 	0.90735	0.80755	0.38429	-0.091
Mof_C 	C 	0.82266	0.79745	0.24965	0.051
Mof_O 	O 	0.55233	0.94984	0.85111	-0.371
Mof_O 	O 	0.55156	0.95062	0.76846	-0.387
Mof_C 	C 	0.7052	0.85412	0.80199	0.032
Mof_C 	C 	0.56937	0.93781	0.80922	0.359
Mof_C 	C 	0.63976	0.89276	0.85059	0.028
Mof_H 	H 	0.6261	0.9011	0.882	0.052
Mof_C 	C 	0.6804	0.86989	0.75871	-0.089
Mof_H 	H 	0.6943	0.8627	0.7272	0.068
Mof_C 	C 	0.68432	0.8657	0.84794	-0.086
Mof_H 	H 	0.7003	0.8553	0.8775	0.074
Mof_C 	C 	0.63608	0.89573	0.76164	0.028
Mof_H 	H 	0.6196	0.9055	0.7322	0.046
Mof_C 	C 	0.78323	0.82969	0.75798	-0.108
Mof_H 	H 	0.7785	0.8569	0.7361	0.075
Mof_C 	C 	0.61571	0.90735	0.80755	-0.091
Mof_C 	C 	0.75035	0.82266	0.79745	0.055
Mof_O 	O 	0.44767	0.05016	0.85111	-0.414
Mof_O 	O 	0.44844	0.04938	0.76846	-0.43
Mof_C 	C 	0.2948	0.14588	0.80199	0.032
Mof_C 	C 	0.43063	0.06219	0.80922	0.364
Mof_C 	C 	0.36024	0.10724	0.85059	0.03
Mof_H 	H 	0.3739	0.0989	0.882	0.035
Mof_C 	C 	0.3196	0.13011	0.75871	-0.102
Mof_H 	H 	0.3057	0.1373	0.7272	0.067
Mof_C 	C 	0.31568	0.1343	0.84794	-0.099
Mof_H 	H 	0.2997	0.1447	0.8775	0.066
Mof_C 	C 	0.36392	0.10427	0.76164	0.03
Mof_H 	H 	0.3804	0.0945	0.7322	0.031
Mof_C 	C 	0.21677	0.17031	0.75798	-0.104
Mof_H 	H 	0.2215	0.1431	0.7361	0.062
Mof_C 	C 	0.38429	0.09265	0.80755	-0.112
Mof_C 	C 	0.24965	0.17734	0.79745	0.042
Mof_O 	O 	0.44767	0.94984	0.14889	-0.384
Mof_O 	O 	0.44844	0.95062	0.23154	-0.389
Mof_C 	C 	0.2948	0.85412	0.19801	0.031
Mof_C 	C 	0.43063	0.93781	0.19078	0.362
Mof_C 	C 	0.36024	0.89276	0.14941	0.027
Mof_H 	H 	0.3739	0.9011	0.118	0.035
Mof_C 	C 	0.3196	0.86989	0.24129	-0.092
Mof_H 	H 	0.3057	0.8627	0.2728	0.069
Mof_C 	C 	0.31568	0.8657	0.15206	-0.092
Mof_H 	H 	0.2997	0.8553	0.1225	0.058
Mof_C 	C 	0.36392	0.89573	0.23836	0.029
Mof_H 	H 	0.3804	0.9055	0.2678	0.044
Mof_C 	C 	0.21677	0.82969	0.24202	-0.105
Mof_H 	H 	0.2215	0.8569	0.2639	0.07
Mof_C 	C 	0.38429	0.90735	0.19245	-0.097
Mof_C 	C 	0.24965	0.82266	0.20255	0.044
Mof_O 	O 	0.55233	0.05016	0.14889	-0.426
Mof_O 	O 	0.55156	0.04938	0.23154	-0.431
Mof_C 	C 	0.7052	0.14588	0.19801	0.032
Mof_C 	C 	0.56937	0.06219	0.19078	0.366
Mof_C 	C 	0.63976	0.10724	0.14941	0.03
Mof_H 	H 	0.6261	0.0989	0.118	0.021
Mof_C 	C 	0.6804	0.13011	0.24129	-0.104
Mof_H 	H 	0.6943	0.1373	0.2728	0.067
Mof_C 	C 	0.68432	0.1343	0.15206	-0.103
Mof_H 	H 	0.7003	0.1447	0.1225	0.055
Mof_C 	C 	0.63608	0.10427	0.23836	0.033
Mof_H 	H 	0.6196	0.0945	0.2678	0.031
Mof_C 	C 	0.78323	0.17031	0.24202	-0.105
Mof_H 	H 	0.7785	0.1431	0.2639	0.063
Mof_C 	C 	0.61571	0.09265	0.19245	-0.118
Mof_C 	C 	0.75035	0.17734	0.20255	0.04
Mof_O 	O 	0.85111	0.55233	0.94984	-0.371
Mof_O 	O 	0.76846	0.55156	0.95062	-0.387
Mof_C 	C 	0.80199	0.7052	0.85412	0.032
Mof_C 	C 	0.80922	0.56937	0.93781	0.359
Mof_C 	C 	0.85059	0.63976	0.89276	0.028
Mof_H 	H 	0.882	0.6261	0.9011	0.052
Mof_C 	C 	0.75871	0.6804	0.86989	-0.089
Mof_H 	H 	0.7272	0.6943	0.8627	0.068
Mof_C 	C 	0.84794	0.68432	0.8657	-0.086
Mof_H 	H 	0.8775	0.7003	0.8553	0.074
Mof_C 	C 	0.76164	0.63608	0.89573	0.028
Mof_H 	H 	0.7322	0.6196	0.9055	0.046
Mof_C 	C 	0.75798	0.78323	0.82969	-0.108
Mof_H 	H 	0.7361	0.7785	0.8569	0.075
Mof_C 	C 	0.80755	0.61571	0.90735	-0.091
Mof_C 	C 	0.79745	0.75035	0.82266	0.055
Mof_O 	O 	0.85111	0.44767	0.05016	-0.414
Mof_O 	O 	0.76846	0.44844	0.04938	-0.43
Mof_C 	C 	0.80199	0.2948	0.14588	0.032
Mof_C 	C 	0.80922	0.43063	0.06219	0.364
Mof_C 	C 	0.85059	0.36024	0.10724	0.03
Mof_H 	H 	0.882	0.3739	0.0989	0.035
Mof_C 	C 	0.75871	0.3196	0.13011	-0.102
Mof_H 	H 	0.7272	0.3057	0.1373	0.067
Mof_C 	C 	0.84794	0.31568	0.1343	-0.099
Mof_H 	H 	0.8775	0.2997	0.1447	0.066
Mof_C 	C 	0.76164	0.36392	0.10427	0.03
Mof_H 	H 	0.7322	0.3804	0.0945	0.031
Mof_C 	C 	0.75798	0.21677	0.17031	-0.104
Mof_H 	H 	0.7361	0.2215	0.1431	0.062
Mof_C 	C 	0.80755	0.38429	0.09265	-0.112
Mof_C 	C 	0.79745	0.24965	0.17734	0.042
Mof_O 	O 	0.14889	0.44767	0.94984	-0.384
Mof_O 	O 	0.23154	0.44844	0.95062	-0.389
Mof_C 	C 	0.19801	0.2948	0.85412	0.031
Mof_C 	C 	0.19078	0.43063	0.93781	0.362
Mof_C 	C 	0.14941	0.36024	0.89276	0.027
Mof_H 	H 	0.118	0.3739	0.9011	0.035
Mof_C 	C 	0.24129	0.3196	0.86989	-0.092
Mof_H 	H 	0.2728	0.3057	0.8627	0.069
Mof_C 	C 	0.15206	0.31568	0.8657	-0.092
Mof_H 	H 	0.1225	0.2997	0.8553	0.058
Mof_C 	C 	0.23836	0.36392	0.89573	0.029
Mof_H 	H 	0.2678	0.3804	0.9055	0.044
Mof_C 	C 	0.24202	0.21677	0.82969	-0.105
Mof_H 	H 	0.2639	0.2215	0.8569	0.07
Mof_C 	C 	0.19245	0.38429	0.90735	-0.097
Mof_C 	C 	0.20255	0.24965	0.82266	0.044
Mof_O 	O 	0.14889	0.55233	0.05016	-0.426
Mof_O 	O 	0.23154	0.55156	0.04938	-0.431
Mof_C 	C 	0.19801	0.7052	0.14588	0.032
Mof_C 	C 	0.19078	0.56937	0.06219	0.366
Mof_C 	C 	0.14941	0.63976	0.10724	0.03
Mof_H 	H 	0.118	0.6261	0.0989	0.021
Mof_C 	C 	0.24129	0.6804	0.13011	-0.104
Mof_H 	H 	0.2728	0.6943	0.1373	0.067
Mof_C 	C 	0.15206	0.68432	0.1343	-0.103
Mof_H 	H 	0.1225	0.7003	0.1447	0.055
Mof_C 	C 	0.23836	0.63608	0.10427	0.033
Mof_H 	H 	0.2678	0.6196	0.0945	0.031
Mof_C 	C 	0.24202	0.78323	0.17031	-0.105
Mof_H 	H 	0.2639	0.7785	0.1431	0.063
Mof_C 	C 	0.19245	0.61571	0.09265	-0.118
Mof_C 	C 	0.20255	0.75035	0.17734	0.04
Mof_O 	O 	0.94984	0.85111	0.55233	-0.371
Mof_O 	O 	0.95062	0.76846	0.55156	-0.387
Mof_C 	C 	0.85412	0.80199	0.7052	0.032
Mof_C 	C 	0.93781	0.80922	0.56937	0.359
Mof_C 	C 	0.89276	0.85059	0.63976	0.028
Mof_H 	H 	0.9011	0.882	0.6261	0.052
Mof_C 	C 	0.86989	0.75871	0.6804	-0.089
Mof_H 	H 	0.8627	0.7272	0.6943	0.068
Mof_C 	C 	0.8657	0.84794	0.68432	-0.086
Mof_H 	H 	0.8553	0.8775	0.7003	0.074
Mof_C 	C 	0.89573	0.76164	0.63608	0.028
Mof_H 	H 	0.9055	0.7322	0.6196	0.046
Mof_C 	C 	0.82969	0.75798	0.78323	-0.108
Mof_H 	H 	0.8569	0.7361	0.7785	0.075
Mof_C 	C 	0.90735	0.80755	0.61571	-0.091
Mof_C 	C 	0.82266	0.79745	0.75035	0.055
Mof_O 	O 	0.05016	0.85111	0.44767	-0.414
Mof_O 	O 	0.04938	0.76846	0.44844	-0.43
Mof_C 	C 	0.14588	0.80199	0.2948	0.032
Mof_C 	C 	0.06219	0.80922	0.43063	0.364
Mof_C 	C 	0.10724	0.85059	0.36024	0.03
Mof_H 	H 	0.0989	0.882	0.3739	0.035
Mof_C 	C 	0.13011	0.75871	0.3196	-0.102
Mof_H 	H 	0.1373	0.7272	0.3057	0.067
Mof_C 	C 	0.1343	0.84794	0.31568	-0.099
Mof_H 	H 	0.1447	0.8775	0.2997	0.066
Mof_C 	C 	0.10427	0.76164	0.36392	0.03
Mof_H 	H 	0.0945	0.7322	0.3804	0.031
Mof_C 	C 	0.17031	0.75798	0.21677	-0.104
Mof_H 	H 	0.1431	0.7361	0.2215	0.062
Mof_C 	C 	0.09265	0.80755	0.38429	-0.112
Mof_C 	C 	0.17734	0.79745	0.24965	0.042
Mof_O 	O 	0.94984	0.14889	0.44767	-0.384
Mof_O 	O 	0.95062	0.23154	0.44844	-0.389
Mof_C 	C 	0.85412	0.19801	0.2948	0.031
Mof_C 	C 	0.93781	0.19078	0.43063	0.362
Mof_C 	C 	0.89276	0.14941	0.36024	0.027
Mof_H 	H 	0.9011	0.118	0.3739	0.035
Mof_C 	C 	0.86989	0.24129	0.3196	-0.092
Mof_H 	H 	0.8627	0.2728	0.3057	0.069
Mof_C 	C 	0.8657	0.15206	0.31568	-0.092
Mof_H 	H 	0.8553	0.1225	0.2997	0.058
Mof_C 	C 	0.89573	0.23836	0.36392	0.029
Mof_H 	H 	0.9055	0.2678	0.3804	0.044
Mof_C 	C 	0.82969	0.24202	0.21677	-0.105
Mof_H 	H 	0.8569	0.2639	0.2215	0.07
Mof_C 	C 	0.90735	0.19245	0.38429	-0.097
Mof_C 	C 	0.82266	0.20255	0.24965	0.044
Mof_O 	O 	0.05016	0.14889	0.55233	-0.426
Mof_O 	O 	0.04938	0.23154	0.55156	-0.431
Mof_C 	C 	0.14588	0.19801	0.7052	0.032
Mof_C 	C 	0.06219	0.19078	0.56937	0.366
Mof_C 	C 	0.10724	0.14941	0.63976	0.03
Mof_H 	H 	0.0989	0.118	0.6261	0.021
Mof_C 	C 	0.13011	0.24129	0.6804	-0.104
Mof_H 	H 	0.1373	0.2728	0.6943	0.067
Mof_C 	C 	0.1343	0.15206	0.68432	-0.103
Mof_H 	H 	0.1447	0.1225	0.7003	0.055
Mof_C 	C 	0.10427	0.23836	0.63608	0.033
Mof_H 	H 	0.0945	0.2678	0.6196	0.031
Mof_C 	C 	0.17031	0.24202	0.78323	-0.105
Mof_H 	H 	0.1431	0.2639	0.7785	0.063
Mof_C 	C 	0.09265	0.19245	0.61571	-0.118
Mof_C 	C 	0.17734	0.20255	0.75035	0.04
Mof_Cu	Cu	0.5	0	0.14441	0.874
Mof_Cu	Cu	0.5	0	0.24028	0.88
Mof_Cu	Cu	0.5	0	0.85559	0.88
Mof_Cu	Cu	0.5	0	0.75972	0.88
Mof_Cu	Cu	0.14441	0.5	-0	0.874
Mof_Cu	Cu	0.24028	0.5	-0	0.88
Mof_Cu	Cu	0.85559	0.5	-0	0.88
Mof_Cu	Cu	0.75972	0.5	-0	0.88
Mof_Cu	Cu	1.8747e-33	0.14441	0.5	0.874
Mof_Cu	Cu	-3.26217e-33	0.24028	0.5	0.88
Mof_Cu	Cu	1.8747e-33	0.85559	0.5	0.88
Mof_Cu	Cu	1.8747e-33	0.75972	0.5	0.88
Mof_O 	O 	0.94767	0.55016	0.64889	-0.377
Mof_O 	O 	0.94844	0.54938	0.73154	-0.386
Mof_C 	C 	0.7948	0.64588	0.69801	0.028
Mof_C 	C 	0.93063	0.56219	0.69078	0.358
Mof_C 	C 	0.86024	0.60724	0.64941	0.024
Mof_H 	H 	0.8739	0.5989	0.618	0.042
Mof_C 	C 	0.8196	0.63011	0.74129	-0.091
Mof_H 	H 	0.8057	0.6373	0.7728	0.066
Mof_C 	C 	0.81568	0.6343	0.65206	-0.09
Mof_H 	H 	0.7997	0.6447	0.6225	0.062
Mof_C 	C 	0.86392	0.60427	0.73836	0.025
Mof_H 	H 	0.8804	0.5945	0.7678	0.045
Mof_C 	C 	0.71677	0.67031	0.74202	-0.109
Mof_H 	H 	0.7215	0.6431	0.7639	0.069
Mof_C 	C 	0.88429	0.59265	0.69245	-0.094
Mof_C 	C 	0.74965	0.67734	0.70255	0.048
Mof_O 	O 	0.05233	0.44984	0.64889	-0.42
Mof_O 	O 	0.05156	0.45062	0.73154	-0.43
Mof_C 	C 	0.2052	0.35412	0.69801	0.034
Mof_C 	C 	0.06937	0.43781	0.69078	0.367
Mof_C 	C 	0.13976	0.39276	0.64941	0.032
Mof_H 	H 	0.1261	0.4011	0.618	0.03
Mof_C 	C 	0.1804	0.36989	0.74129	-0.101
Mof_H 	H 	0.1943	0.3627	0.7728	0.068
Mof_C 	C 	0.18432	0.3657	0.65206	-0.099
Mof_H 	H 	0.2003	0.3553	0.6225	0.064
Mof_C 	C 	0.13608	0.39573	0.73836	0.033
Mof_H 	H 	0.1196	0.4055	0.7678	0.033
Mof_C 	C 	0.28323	0.32969	0.74202	-0.105
Mof_H 	H 	0.2785	0.3569	0.7639	0.067
Mof_C 	C 	0.11571	0.40735	0.69245	-0.113
Mof_C 	C 	0.25035	0.32266	0.70255	0.044
Mof_O 	O 	0.05233	0.55016	0.35111	-0.42
Mof_O 	O 	0.05156	0.54938	0.26846	-0.432
Mof_C 	C 	0.2052	0.64588	0.30199	0.035
Mof_C 	C 	0.06937	0.56219	0.30922	0.367
Mof_C 	C 	0.13976	0.60724	0.35059	0.033
Mof_H 	H 	0.1261	0.5989	0.382	0.03
Mof_C 	C 	0.1804	0.63011	0.25871	-0.102
Mof_H 	H 	0.1943	0.6373	0.2272	0.069
Mof_C 	C 	0.18432	0.6343	0.34794	-0.1
Mof_H 	H 	0.2003	0.6447	0.3775	0.064
Mof_C 	C 	0.13608	0.60427	0.26164	0.035
Mof_H 	H 	0.1196	0.5945	0.2322	0.031
Mof_C 	C 	0.28323	0.67031	0.25798	-0.104
Mof_H 	H 	0.2785	0.6431	0.2361	0.067
Mof_C 	C 	0.11571	0.59265	0.30755	-0.114
Mof_C 	C 	0.25035	0.67734	0.29745	0.043
Mof_O 	O 	0.94767	0.44984	0.35111	-0.377
Mof_O 	O 	0.94844	0.45062	0.26846	-0.389
Mof_C 	C 	0.7948	0.35412	0.30199	0.03
Mof_C 	C 	0.93063	0.43781	0.30922	0.359
Mof_C 	C 	0.86024	0.39276	0.35059	0.025
Mof_H 	H 	0.8739	0.4011	0.382	0.041
Mof_C 	C 	0.8196	0.36989	0.25871	-0.093
Mof_H 	H 	0.8057	0.3627	0.2272	0.067
Mof_C 	C 	0.81568	0.3657	0.34794	-0.091
Mof_H 	H 	0.7997	0.3553	0.3775	0.063
Mof_C 	C 	0.86392	0.39573	0.26164	0.026
Mof_H 	H 	0.8804	0.4055	0.2322	0.043
Mof_C 	C 	0.71677	0.32969	0.25798	-0.105
Mof_H 	H 	0.7215	0.3569	0.2361	0.067
Mof_C 	C 	0.88429	0.40735	0.30755	-0.096
Mof_C 	C 	0.74965	0.32266	0.29745	0.045
Mof_O 	O 	0.64889	0.94767	0.55016	-0.377
Mof_O 	O 	0.73154	0.94844	0.54938	-0.386
Mof_C 	C 	0.69801	0.7948	0.64588	0.028
Mof_C 	C 	0.69078	0.93063	0.56219	0.358
Mof_C 	C 	0.64941	0.86024	0.60724	0.024
Mof_H 	H 	0.618	0.8739	0.5989	0.042
Mof_C 	C 	0.74129	0.8196	0.63011	-0.091
Mof_H 	H 	0.7728	0.8057	0.6373	0.066
Mof_C 	C 	0.65206	0.81568	0.6343	-0.09
Mof_H 	H 	0.6225	0.7997	0.6447	0.062
Mof_C 	C 	0.73836	0.86392	0.60427	0.025
Mof_H 	H 	0.7678	0.8804	0.5945	0.045
Mof_C 	C 	0.74202	0.71677	0.67031	-0.109
Mof_H 	H 	0.7639	0.7215	0.6431	0.069
Mof_C 	C 	0.69245	0.88429	0.59265	-0.094
Mof_C 	C 	0.70255	0.74965	0.67734	0.048
Mof_O 	O 	0.64889	0.05233	0.44984	-0.42
Mof_O 	O 	0.73154	0.05156	0.45062	-0.43
Mof_C 	C 	0.69801	0.2052	0.35412	0.034
Mof_C 	C 	0.69078	0.06937	0.43781	0.367
Mof_C 	C 	0.64941	0.13976	0.39276	0.032
Mof_H 	H 	0.618	0.1261	0.4011	0.03
Mof_C 	C 	0.74129	0.1804	0.36989	-0.101
Mof_H 	H 	0.7728	0.1943	0.3627	0.068
Mof_C 	C 	0.65206	0.18432	0.3657	-0.099
Mof_H 	H 	0.6225	0.2003	0.3553	0.064
Mof_C 	C 	0.73836	0.13608	0.39573	0.033
Mof_H 	H 	0.7678	0.1196	0.4055	0.033
Mof_C 	C 	0.74202	0.28323	0.32969	-0.105
Mof_H 	H 	0.7639	0.2785	0.3569	0.067
Mof_C 	C 	0.69245	0.11571	0.40735	-0.113
Mof_C 	C 	0.70255	0.25035	0.32266	0.044
Mof_O 	O 	0.35111	0.05233	0.55016	-0.42
Mof_O 	O 	0.26846	0.05156	0.54938	-0.432
Mof_C 	C 	0.30199	0.2052	0.64588	0.035
Mof_C 	C 	0.30922	0.06937	0.56219	0.367
Mof_C 	C 	0.35059	0.13976	0.60724	0.033
Mof_H 	H 	0.382	0.1261	0.5989	0.03
Mof_C 	C 	0.25871	0.1804	0.63011	-0.102
Mof_H 	H 	0.2272	0.1943	0.6373	0.069
Mof_C 	C 	0.34794	0.18432	0.6343	-0.1
Mof_H 	H 	0.3775	0.2003	0.6447	0.064
Mof_C 	C 	0.26164	0.13608	0.60427	0.035
Mof_H 	H 	0.2322	0.1196	0.5945	0.031
Mof_C 	C 	0.25798	0.28323	0.67031	-0.104
Mof_H 	H 	0.2361	0.2785	0.6431	0.067
Mof_C 	C 	0.30755	0.11571	0.59265	-0.114
Mof_C 	C 	0.29745	0.25035	0.67734	0.043
Mof_O 	O 	0.35111	0.94767	0.44984	-0.377
Mof_O 	O 	0.26846	0.94844	0.45062	-0.389
Mof_C 	C 	0.30199	0.7948	0.35412	0.03
Mof_C 	C 	0.30922	0.93063	0.43781	0.359
Mof_C 	C 	0.35059	0.86024	0.39276	0.025
Mof_H 	H 	0.382	0.8739	0.4011	0.041
Mof_C 	C 	0.25871	0.8196	0.36989	-0.093
Mof_H 	H 	0.2272	0.8057	0.3627	0.067
Mof_C 	C 	0.34794	0.81568	0.3657	-0.091
Mof_H 	H 	0.3775	0.7997	0.3553	0.063
Mof_C 	C 	0.26164	0.86392	0.39573	0.026
Mof_H 	H 	0.2322	0.8804	0.4055	0.043
Mof_C 	C 	0.25798	0.71677	0.32969	-0.105
Mof_H 	H 	0.2361	0.7215	0.3569	0.067
Mof_C 	C 	0.30755	0.88429	0.40735	-0.096
Mof_C 	C 	0.29745	0.74965	0.32266	0.045
Mof_O 	O 	0.55016	0.64889	0.94767	-0.377
Mof_O 	O 	0.54938	0.73154	0.94844	-0.386
Mof_C 	C 	0.64588	0.69801	0.7948	0.028
Mof_C 	C 	0.56219	0.69078	0.93063	0.358
Mof_C 	C 	0.60724	0.64941	0.86024	0.024
Mof_H 	H 	0.5989	0.618	0.8739	0.042
Mof_C 	C 	0.63011	0.74129	0.8196	-0.091
Mof_H 	H 	0.6373	0.7728	0.8057	0.066
Mof_C 	C 	0.6343	0.65206	0.81568	-0.09
Mof_H 	H 	0.6447	0.6225	0.7997	0.062
Mof_C 	C 	0.60427	0.73836	0.86392	0.025
Mof_H 	H 	0.5945	0.7678	0.8804	0.045
Mof_C 	C 	0.67031	0.74202	0.71677	-0.109
Mof_H 	H 	0.6431	0.7639	0.7215	0.069
Mof_C 	C 	0.59265	0.69245	0.88429	-0.094
Mof_C 	C 	0.67734	0.70255	0.74965	0.048
Mof_O 	O 	0.44984	0.64889	0.05233	-0.42
Mof_O 	O 	0.45062	0.73154	0.05156	-0.43
Mof_C 	C 	0.35412	0.69801	0.2052	0.034
Mof_C 	C 	0.43781	0.69078	0.06937	0.367
Mof_C 	C 	0.39276	0.64941	0.13976	0.032
Mof_H 	H 	0.4011	0.618	0.1261	0.03
Mof_C 	C 	0.36989	0.74129	0.1804	-0.101
Mof_H 	H 	0.3627	0.7728	0.1943	0.068
Mof_C 	C 	0.3657	0.65206	0.18432	-0.099
Mof_H 	H 	0.3553	0.6225	0.2003	0.064
Mof_C 	C 	0.39573	0.73836	0.13608	0.033
Mof_H 	H 	0.4055	0.7678	0.1196	0.033
Mof_C 	C 	0.32969	0.74202	0.28323	-0.105
Mof_H 	H 	0.3569	0.7639	0.2785	0.067
Mof_C 	C 	0.40735	0.69245	0.11571	-0.113
Mof_C 	C 	0.32266	0.70255	0.25035	0.044
Mof_O 	O 	0.55016	0.35111	0.05233	-0.42
Mof_O 	O 	0.54938	0.26846	0.05156	-0.432
Mof_C 	C 	0.64588	0.30199	0.2052	0.035
Mof_C 	C 	0.56219	0.30922	0.06937	0.367
Mof_C 	C 	0.60724	0.35059	0.13976	0.033
Mof_H 	H 	0.5989	0.382	0.1261	0.03
Mof_C 	C 	0.63011	0.25871	0.1804	-0.102
Mof_H 	H 	0.6373	0.2272	0.1943	0.069
Mof_C 	C 	0.6343	0.34794	0.18432	-0.1
Mof_H 	H 	0.6447	0.3775	0.2003	0.064
Mof_C 	C 	0.60427	0.26164	0.13608	0.035
Mof_H 	H 	0.5945	0.2322	0.1196	0.031
Mof_C 	C 	0.67031	0.25798	0.28323	-0.104
Mof_H 	H 	0.6431	0.2361	0.2785	0.067
Mof_C 	C 	0.59265	0.30755	0.11571	-0.114
Mof_C 	C 	0.67734	0.29745	0.25035	0.043
Mof_O 	O 	0.44984	0.35111	0.94767	-0.377
Mof_O 	O 	0.45062	0.26846	0.94844	-0.389
Mof_C 	C 	0.35412	0.30199	0.7948	0.03
Mof_C 	C 	0.43781	0.30922	0.93063	0.359
Mof_C 	C 	0.39276	0.35059	0.86024	0.025
Mof_H 	H 	0.4011	0.382	0.8739	0.041
Mof_C 	C 	0.36989	0.25871	0.8196	-0.093
Mof_H 	H 	0.3627	0.2272	0.8057	0.067
Mof_C 	C 	0.3657	0.34794	0.81568	-0.091
Mof_H 	H 	0.3553	0.3775	0.7997	0.063
Mof_C 	C 	0.39573	0.26164	0.86392	0.026
Mof_H 	H 	0.4055	0.2322	0.8804	0.043
Mof_C 	C 	0.32969	0.25798	0.71677	-0.105
Mof_H 	H 	0.3569	0.2361	0.7215	0.067
Mof_C 	C 	0.40735	0.30755	0.88429	-0.096
Mof_C 	C 	0.32266	0.29745	0.74965	0.045
Mof_O 	O 	0.05233	0.44984	0.35111	-0.42
Mof_O 	O 	0.05156	0.45062	0.26846	-0.432
Mof_C 	C 	0.2052	0.35412	0.30199	0.036
Mof_C 	C 	0.06937	0.43781	0.30922	0.367
Mof_C 	C 	0.13976	0.39276	0.35059	0.033
Mof_H 	H 	0.1261	0.4011	0.382	0.03
Mof_C 	C 	0.1804	0.36989	0.25871	-0.103
Mof_H 	H 	0.1943	0.3627	0.2272	0.069
Mof_C 	C 	0.18432	0.3657	0.34794	-0.1
Mof_H 	H 	0.2003	0.3553	0.3775	0.064
Mof_C 	C 	0.13608	0.39573	0.26164	0.035
Mof_H 	H 	0.1196	0.4055	0.2322	0.031
Mof_C 	C 	0.28323	0.32969	0.25798	-0.103
Mof_H 	H 	0.2785	0.3569	0.2361	0.066
Mof_C 	C 	0.11571	0.40735	0.30755	-0.115
Mof_C 	C 	0.25035	0.32266	0.29745	0.042
Mof_O 	O 	0.94767	0.55016	0.35111	-0.377
Mof_O 	O 	0.94844	0.54938	0.26846	-0.388
Mof_C 	C 	0.7948	0.64588	0.30199	0.029
Mof_C 	C 	0.93063	0.56219	0.30922	0.359
Mof_C 	C 	0.86024	0.60724	0.35059	0.025
Mof_H 	H 	0.8739	0.5989	0.382	0.041
Mof_C 	C 	0.8196	0.63011	0.25871	-0.093
Mof_H 	H 	0.8057	0.6373	0.2272	0.067
Mof_C 	C 	0.81568	0.6343	0.34794	-0.091
Mof_H 	H 	0.7997	0.6447	0.3775	0.063
Mof_C 	C 	0.86392	0.60427	0.26164	0.026
Mof_H 	H 	0.8804	0.5945	0.2322	0.043
Mof_C 	C 	0.71677	0.67031	0.25798	-0.106
Mof_H 	H 	0.7215	0.6431	0.2361	0.067
Mof_C 	C 	0.88429	0.59265	0.30755	-0.096
Mof_C 	C 	0.74965	0.67734	0.29745	0.046
Mof_O 	O 	0.94767	0.44984	0.64889	-0.377
Mof_O 	O 	0.94844	0.45062	0.73154	-0.386
Mof_C 	C 	0.7948	0.35412	0.69801	0.029
Mof_C 	C 	0.93063	0.43781	0.69078	0.358
Mof_C 	C 	0.86024	0.39276	0.64941	0.024
Mof_H 	H 	0.8739	0.4011	0.618	0.042
Mof_C 	C 	0.8196	0.36989	0.74129	-0.091
Mof_H 	H 	0.8057	0.3627	0.7728	0.066
Mof_C 	C 	0.81568	0.3657	0.65206	-0.09
Mof_H 	H 	0.7997	0.3553	0.6225	0.063
Mof_C 	C 	0.86392	0.39573	0.73836	0.025
Mof_H 	H 	0.8804	0.4055	0.7678	0.045
Mof_C 	C 	0.71677	0.32969	0.74202	-0.107
Mof_H 	H 	0.7215	0.3569	0.7639	0.068
Mof_C 	C 	0.88429	0.40735	0.69245	-0.095
Mof_C 	C 	0.74965	0.32266	0.70255	0.047
Mof_O 	O 	0.05233	0.55016	0.64889	-0.42
Mof_O 	O 	0.05156	0.54938	0.73154	-0.429
Mof_C 	C 	0.2052	0.64588	0.69801	0.034
Mof_C 	C 	0.06937	0.56219	0.69078	0.367
Mof_C 	C 	0.13976	0.60724	0.64941	0.032
Mof_H 	H 	0.1261	0.5989	0.618	0.03
Mof_C 	C 	0.1804	0.63011	0.74129	-0.101
Mof_H 	H 	0.1943	0.6373	0.7728	0.068
Mof_C 	C 	0.18432	0.6343	0.65206	-0.099
Mof_H 	H 	0.2003	0.6447	0.6225	0.063
Mof_C 	C 	0.13608	0.60427	0.73836	0.033
Mof_H 	H 	0.1196	0.5945	0.7678	0.033
Mof_C 	C 	0.28323	0.67031	0.74202	-0.107
Mof_H 	H 	0.2785	0.6431	0.7639	0.068
Mof_C 	C 	0.11571	0.59265	0.69245	-0.113
Mof_C 	C 	0.25035	0.67734	0.70255	0.045
Mof_O 	O 	0.35111	0.05233	0.44984	-0.42
Mof_O 	O 	0.26846	0.05156	0.45062	-0.432
Mof_C 	C 	0.30199	0.2052	0.35412	0.036
Mof_C 	C 	0.30922	0.06937	0.43781	0.367
Mof_C 	C 	0.35059	0.13976	0.39276	0.033
Mof_H 	H 	0.382	0.1261	0.4011	0.03
Mof_C 	C 	0.25871	0.1804	0.36989	-0.103
Mof_H 	H 	0.2272	0.1943	0.3627	0.069
Mof_C 	C 	0.34794	0.18432	0.3657	-0.1
Mof_H 	H 	0.3775	0.2003	0.3553	0.064
Mof_C 	C 	0.26164	0.13608	0.39573	0.035
Mof_H 	H 	0.2322	0.1196	0.4055	0.031
Mof_C 	C 	0.25798	0.28323	0.32969	-0.103
Mof_H 	H 	0.2361	0.2785	0.3569	0.066
Mof_C 	C 	0.30755	0.11571	0.40735	-0.115
Mof_C 	C 	0.29745	0.25035	0.32266	0.042
Mof_O 	O 	0.35111	0.94767	0.55016	-0.377
Mof_O 	O 	0.26846	0.94844	0.54938	-0.388
Mof_C 	C 	0.30199	0.7948	0.64588	0.029
Mof_C 	C 	0.30922	0.93063	0.56219	0.359
Mof_C 	C 	0.35059	0.86024	0.60724	0.025
Mof_H 	H 	0.382	0.8739	0.5989	0.041
Mof_C 	C 	0.25871	0.8196	0.63011	-0.093
Mof_H 	H 	0.2272	0.8057	0.6373	0.067
Mof_C 	C 	0.34794	0.81568	0.6343	-0.091
Mof_H 	H 	0.3775	0.7997	0.6447	0.063
Mof_C 	C 	0.26164	0.86392	0.60427	0.026
Mof_H 	H 	0.2322	0.8804	0.5945	0.043
Mof_C 	C 	0.25798	0.71677	0.67031	-0.106
Mof_H 	H 	0.2361	0.7215	0.6431	0.067
Mof_C 	C 	0.30755	0.88429	0.59265	-0.096
Mof_C 	C 	0.29745	0.74965	0.67734	0.046
Mof_O 	O 	0.64889	0.94767	0.44984	-0.377
Mof_O 	O 	0.73154	0.94844	0.45062	-0.386
Mof_C 	C 	0.69801	0.7948	0.35412	0.029
Mof_C 	C 	0.69078	0.93063	0.43781	0.358
Mof_C 	C 	0.64941	0.86024	0.39276	0.024
Mof_H 	H 	0.618	0.8739	0.4011	0.042
Mof_C 	C 	0.74129	0.8196	0.36989	-0.091
Mof_H 	H 	0.7728	0.8057	0.3627	0.066
Mof_C 	C 	0.65206	0.81568	0.3657	-0.09
Mof_H 	H 	0.6225	0.7997	0.3553	0.063
Mof_C 	C 	0.73836	0.86392	0.39573	0.025
Mof_H 	H 	0.7678	0.8804	0.4055	0.045
Mof_C 	C 	0.74202	0.71677	0.32969	-0.107
Mof_H 	H 	0.7639	0.7215	0.3569	0.068
Mof_C 	C 	0.69245	0.88429	0.40735	-0.095
Mof_C 	C 	0.70255	0.74965	0.32266	0.047
Mof_O 	O 	0.64889	0.05233	0.55016	-0.42
Mof_O 	O 	0.73154	0.05156	0.54938	-0.429
Mof_C 	C 	0.69801	0.2052	0.64588	0.034
Mof_C 	C 	0.69078	0.06937	0.56219	0.367
Mof_C 	C 	0.64941	0.13976	0.60724	0.032
Mof_H 	H 	0.618	0.1261	0.5989	0.03
Mof_C 	C 	0.74129	0.1804	0.63011	-0.101
Mof_H 	H 	0.7728	0.1943	0.6373	0.068
Mof_C 	C 	0.65206	0.18432	0.6343	-0.099
Mof_H 	H 	0.6225	0.2003	0.6447	0.063
Mof_C 	C 	0.73836	0.13608	0.60427	0.033
Mof_H 	H 	0.7678	0.1196	0.5945	0.033
Mof_C 	C 	0.74202	0.28323	0.67031	-0.107
Mof_H 	H 	0.7639	0.2785	0.6431	0.068
Mof_C 	C 	0.69245	0.11571	0.59265	-0.113
Mof_C 	C 	0.70255	0.25035	0.67734	0.045
Mof_O 	O 	0.44984	0.35111	0.05233	-0.42
Mof_O 	O 	0.45062	0.26846	0.05156	-0.432
Mof_C 	C 	0.35412	0.30199	0.2052	0.036
Mof_C 	C 	0.43781	0.30922	0.06937	0.367
Mof_C 	C 	0.39276	0.35059	0.13976	0.033
Mof_H 	H 	0.4011	0.382	0.1261	0.03
Mof_C 	C 	0.36989	0.25871	0.1804	-0.103
Mof_H 	H 	0.3627	0.2272	0.1943	0.069
Mof_C 	C 	0.3657	0.34794	0.18432	-0.1
Mof_H 	H 	0.3553	0.3775	0.2003	0.064
Mof_C 	C 	0.39573	0.26164	0.13608	0.035
Mof_H 	H 	0.4055	0.2322	0.1196	0.031
Mof_C 	C 	0.32969	0.25798	0.28323	-0.103
Mof_H 	H 	0.3569	0.2361	0.2785	0.066
Mof_C 	C 	0.40735	0.30755	0.11571	-0.115
Mof_C 	C 	0.32266	0.29745	0.25035	0.042
Mof_O 	O 	0.55016	0.35111	0.94767	-0.377
Mof_O 	O 	0.54938	0.26846	0.94844	-0.388
Mof_C 	C 	0.64588	0.30199	0.7948	0.029
Mof_C 	C 	0.56219	0.30922	0.93063	0.359
Mof_C 	C 	0.60724	0.35059	0.86024	0.025
Mof_H 	H 	0.5989	0.382	0.8739	0.041
Mof_C 	C 	0.63011	0.25871	0.8196	-0.093
Mof_H 	H 	0.6373	0.2272	0.8057	0.067
Mof_C 	C 	0.6343	0.34794	0.81568	-0.091
Mof_H 	H 	0.6447	0.3775	0.7997	0.063
Mof_C 	C 	0.60427	0.26164	0.86392	0.026
Mof_H 	H 	0.5945	0.2322	0.8804	0.043
Mof_C 	C 	0.67031	0.25798	0.71677	-0.106
Mof_H 	H 	0.6431	0.2361	0.7215	0.067
Mof_C 	C 	0.59265	0.30755	0.88429	-0.096
Mof_C 	C 	0.67734	0.29745	0.74965	0.046
Mof_O 	O 	0.44984	0.64889	0.94767	-0.377
Mof_O 	O 	0.45062	0.73154	0.94844	-0.386
Mof_C 	C 	0.35412	0.69801	0.7948	0.029
Mof_C 	C 	0.43781	0.69078	0.93063	0.358
Mof_C 	C 	0.39276	0.64941	0.86024	0.024
Mof_H 	H 	0.4011	0.618	0.8739	0.042
Mof_C 	C 	0.36989	0.74129	0.8196	-0.091
Mof_H 	H 	0.3627	0.7728	0.8057	0.066
Mof_C 	C 	0.3657	0.65206	0.81568	-0.09
Mof_H 	H 	0.3553	0.6225	0.7997	0.063
Mof_C 	C 	0.39573	0.73836	0.86392	0.025
Mof_H 	H 	0.4055	0.7678	0.8804	0.045
Mof_C 	C 	0.32969	0.74202	0.71677	-0.107
Mof_H 	H 	0.3569	0.7639	0.7215	0.068
Mof_C 	C 	0.40735	0.69245	0.88429	-0.095
Mof_C 	C 	0.32266	0.70255	0.74965	0.047
Mof_O 	O 	0.55016	0.64889	0.05233	-0.42
Mof_O 	O 	0.54938	0.73154	0.05156	-0.429
Mof_C 	C 	0.64588	0.69801	0.2052	0.034
Mof_C 	C 	0.56219	0.69078	0.06937	0.367
Mof_C 	C 	0.60724	0.64941	0.13976	0.032
Mof_H 	H 	0.5989	0.618	0.1261	0.03
Mof_C 	C 	0.63011	0.74129	0.1804	-0.101
Mof_H 	H 	0.6373	0.7728	0.1943	0.068
Mof_C 	C 	0.6343	0.65206	0.18432	-0.099
Mof_H 	H 	0.6447	0.6225	0.2003	0.063
Mof_C 	C 	0.60427	0.73836	0.13608	0.033
Mof_H 	H 	0.5945	0.7678	0.1196	0.033
Mof_C 	C 	0.67031	0.74202	0.28323	-0.107
Mof_H 	H 	0.6431	0.7639	0.2785	0.068
Mof_C 	C 	0.59265	0.69245	0.11571	-0.113
Mof_C 	C 	0.67734	0.70255	0.25035	0.045
Mof_Cu	Cu	2.41615e-33	0.5	0.64441	0.877
Mof_Cu	Cu	1.30493e-32	0.5	0.74028	0.881
Mof_Cu	Cu	3.90168e-33	0.5	0.35559	0.877
Mof_Cu	Cu	9.73794e-34	0.5	0.25972	0.88
Mof_Cu	Cu	0.64441	-5.13687e-33	0.5	0.877
Mof_Cu	Cu	0.74028	-5.13687e-33	0.5	0.881
Mof_Cu	Cu	0.35559	-5.13687e-33	0.5	0.877
Mof_Cu	Cu	0.25972	-5.13687e-33	0.5	0.88
Mof_Cu	Cu	0.5	0.64441	-0	0.877
Mof_Cu	Cu	0.5	0.74028	-0	0.881
Mof_Cu	Cu	0.5	0.35559	-0	0.877
Mof_Cu	Cu	0.5	0.25972	-0	0.88
_end
