data_functionalizedCrystal
_audit_creation_method	'EQeq! by Chris Wilmer'
_symmetry_space_group_name_H-M	'P1'
_symmetry_Int_Tables_number	1
_symmetry_cell_setting	triclinic
loop_
_symmetry_equiv_pos_as_xyz
  x,y,z
_cell_length_a	26.0349
_cell_length_b	26.0349
_cell_length_c	6.8508
_cell_angle_alpha	90
_cell_angle_beta	90
_cell_angle_gamma	120
loop_
_atom_site_label
_atom_site_type_symbol
_atom_site_fract_x
_atom_site_fract_y
_atom_site_fract_z
_atom_site_charge
Mof_Fe	Fe	0.38439	0.35309	0.14	0.826
Mof_O 	O 	0.32563	0.29358	0.3623	-0.451
Mof_O 	O 	0.30203	0.22925	0.6031	-0.392
Mof_O 	O 	0.35372	0.27267	0.0117	-0.428
Mof_C 	C 	0.31741	0.24599	0.42	0.397
Mof_C 	C 	0.32779	0.20396	0.2893	-0.159
Mof_C 	C 	0.34479	0.22365	0.0916	0.215
Mof_C 	C 	0.35013	0.18239	0.9761	-0.072
Mof_H 	H 	0.3609	0.1934	0.8274	0.068
Mof_Fe	Fe	0.05106	0.68642	0.47333	0.825
Mof_O 	O 	0.9923	0.62691	0.69563	-0.452
Mof_O 	O 	0.9687	0.56258	0.93643	-0.393
Mof_O 	O 	0.02039	0.606	0.34503	-0.429
Mof_C 	C 	0.98408	0.57932	0.75333	0.397
Mof_C 	C 	0.99446	0.53729	0.62263	-0.16
Mof_C 	C 	0.01146	0.55698	0.42493	0.216
Mof_C 	C 	0.0168	0.51572	0.30943	-0.072
Mof_H 	H 	0.02757	0.52673	0.16073	0.068
Mof_Fe	Fe	0.71772	0.01976	0.80667	0.825
Mof_O 	O 	0.65896	0.96025	0.02897	-0.452
Mof_O 	O 	0.63536	0.89592	0.26977	-0.393
Mof_O 	O 	0.68705	0.93934	0.67837	-0.429
Mof_C 	C 	0.65074	0.91266	0.08667	0.398
Mof_C 	C 	0.66112	0.87063	0.95597	-0.16
Mof_C 	C 	0.67812	0.89032	0.75827	0.216
Mof_C 	C 	0.68346	0.84906	0.64277	-0.072
Mof_H 	H 	0.69423	0.86007	0.49407	0.068
Mof_Fe	Fe	0.64691	0.0313	0.14	0.824
Mof_O 	O 	0.70642	0.03205	0.3623	-0.452
Mof_O 	O 	0.77075	0.07278	0.6031	-0.393
Mof_O 	O 	0.72733	0.08105	0.0117	-0.429
Mof_C 	C 	0.75401	0.07142	0.42	0.397
Mof_C 	C 	0.79604	0.12383	0.2893	-0.159
Mof_C 	C 	0.77635	0.12114	0.0916	0.215
Mof_C 	C 	0.81761	0.16774	0.9761	-0.071
Mof_H 	H 	0.8066	0.1675	0.8274	0.067
Mof_Fe	Fe	0.31358	0.36463	0.47333	0.825
Mof_O 	O 	0.37309	0.36538	0.69563	-0.452
Mof_O 	O 	0.43742	0.40611	0.93643	-0.393
Mof_O 	O 	0.394	0.41438	0.34503	-0.429
Mof_C 	C 	0.42068	0.40475	0.75333	0.397
Mof_C 	C 	0.46271	0.45716	0.62263	-0.16
Mof_C 	C 	0.44302	0.45447	0.42493	0.216
Mof_C 	C 	0.48428	0.50107	0.30943	-0.072
Mof_H 	H 	0.47327	0.50083	0.16073	0.068
Mof_Fe	Fe	0.98024	0.69797	0.80667	0.825
Mof_O 	O 	0.03975	0.69872	0.02897	-0.452
Mof_O 	O 	0.10408	0.73945	0.26977	-0.393
Mof_O 	O 	0.06066	0.74772	0.67837	-0.429
Mof_C 	C 	0.08734	0.73809	0.08667	0.398
Mof_C 	C 	0.12937	0.7905	0.95597	-0.161
Mof_C 	C 	0.10968	0.78781	0.75827	0.216
Mof_C 	C 	0.15094	0.83441	0.64277	-0.073
Mof_H 	H 	0.13993	0.83417	0.49407	0.068
Mof_Fe	Fe	0.9687	0.61561	0.14	0.824
Mof_O 	O 	0.96795	0.67437	0.3623	-0.452
Mof_O 	O 	0.92722	0.69797	0.6031	-0.393
Mof_O 	O 	0.91895	0.64628	0.0117	-0.429
Mof_C 	C 	0.92858	0.68259	0.42	0.397
Mof_C 	C 	0.87617	0.67221	0.2893	-0.159
Mof_C 	C 	0.87886	0.65521	0.0916	0.215
Mof_C 	C 	0.83226	0.64987	0.9761	-0.072
Mof_H 	H 	0.8325	0.6391	0.8274	0.068
Mof_Fe	Fe	0.63537	0.94894	0.47333	0.825
Mof_O 	O 	0.63462	0.0077	0.69563	-0.452
Mof_O 	O 	0.59389	0.0313	0.93643	-0.393
Mof_O 	O 	0.58562	0.97961	0.34503	-0.429
Mof_C 	C 	0.59525	0.01592	0.75333	0.397
Mof_C 	C 	0.54284	0.00554	0.62263	-0.16
Mof_C 	C 	0.54553	0.98854	0.42493	0.216
Mof_C 	C 	0.49893	0.9832	0.30943	-0.072
Mof_H 	H 	0.49917	0.97243	0.16073	0.068
Mof_Fe	Fe	0.30203	0.28228	0.80667	0.825
Mof_O 	O 	0.30128	0.34104	0.02897	-0.452
Mof_O 	O 	0.26055	0.36464	0.26977	-0.393
Mof_O 	O 	0.25228	0.31295	0.67837	-0.429
Mof_C 	C 	0.26191	0.34926	0.08667	0.397
Mof_C 	C 	0.2095	0.33888	0.95597	-0.16
Mof_C 	C 	0.21219	0.32188	0.75827	0.216
Mof_C 	C 	0.16559	0.31654	0.64277	-0.072
Mof_H 	H 	0.16583	0.30577	0.49407	0.068
Mof_Fe	Fe	0.61561	0.64691	0.86	0.825
Mof_O 	O 	0.67437	0.70642	0.6377	-0.452
Mof_O 	O 	0.69797	0.77075	0.3969	-0.393
Mof_O 	O 	0.64628	0.72733	0.9883	-0.429
Mof_C 	C 	0.68259	0.75401	0.58	0.397
Mof_C 	C 	0.67221	0.79604	0.7107	-0.159
Mof_C 	C 	0.65521	0.77635	0.9084	0.215
Mof_C 	C 	0.64987	0.81761	0.0239	-0.072
Mof_H 	H 	0.6391	0.8066	0.1726	0.068
Mof_Fe	Fe	0.28228	0.98024	0.19333	0.825
Mof_O 	O 	0.34104	0.03975	0.97103	-0.452
Mof_O 	O 	0.36464	0.10408	0.73023	-0.393
Mof_O 	O 	0.31295	0.06066	0.32163	-0.429
Mof_C 	C 	0.34926	0.08734	0.91333	0.398
Mof_C 	C 	0.33888	0.12937	0.04403	-0.16
Mof_C 	C 	0.32188	0.10968	0.24173	0.216
Mof_C 	C 	0.31654	0.15094	0.35723	-0.072
Mof_H 	H 	0.30577	0.13993	0.50593	0.068
Mof_Fe	Fe	0.94894	0.31358	0.52667	0.825
Mof_O 	O 	0.0077	0.37309	0.30437	-0.452
Mof_O 	O 	0.0313	0.43742	0.06357	-0.393
Mof_O 	O 	0.97961	0.394	0.65497	-0.429
Mof_C 	C 	0.01592	0.42068	0.24667	0.397
Mof_C 	C 	0.00554	0.46271	0.37737	-0.16
Mof_C 	C 	0.98854	0.44302	0.57507	0.216
Mof_C 	C 	0.9832	0.48428	0.69057	-0.072
Mof_H 	H 	0.97243	0.47327	0.83927	0.068
Mof_Fe	Fe	0.35309	0.9687	0.86	0.824
Mof_O 	O 	0.29358	0.96795	0.6377	-0.452
Mof_O 	O 	0.22925	0.92722	0.3969	-0.393
Mof_O 	O 	0.27267	0.91895	0.9883	-0.429
Mof_C 	C 	0.24599	0.92858	0.58	0.397
Mof_C 	C 	0.20396	0.87617	0.7107	-0.159
Mof_C 	C 	0.22365	0.87886	0.9084	0.215
Mof_C 	C 	0.18239	0.83226	0.0239	-0.071
Mof_H 	H 	0.1934	0.8325	0.1726	0.067
Mof_Fe	Fe	0.01976	0.30203	0.19333	0.825
Mof_O 	O 	0.96025	0.30128	0.97103	-0.452
Mof_O 	O 	0.89592	0.26055	0.73023	-0.393
Mof_O 	O 	0.93934	0.25228	0.32163	-0.429
Mof_C 	C 	0.91266	0.26191	0.91333	0.398
Mof_C 	C 	0.87063	0.2095	0.04403	-0.161
Mof_C 	C 	0.89032	0.21219	0.24173	0.216
Mof_C 	C 	0.84906	0.16559	0.35723	-0.073
Mof_H 	H 	0.86007	0.16583	0.50593	0.068
Mof_Fe	Fe	0.68642	0.63537	0.52667	0.825
Mof_O 	O 	0.62691	0.63462	0.30437	-0.452
Mof_O 	O 	0.56258	0.59389	0.06357	-0.393
Mof_O 	O 	0.606	0.58562	0.65497	-0.429
Mof_C 	C 	0.57932	0.59525	0.24667	0.397
Mof_C 	C 	0.53729	0.54284	0.37737	-0.16
Mof_C 	C 	0.55698	0.54553	0.57507	0.216
Mof_C 	C 	0.51572	0.49893	0.69057	-0.072
Mof_H 	H 	0.52673	0.49917	0.83927	0.068
Mof_Fe	Fe	0.0313	0.38439	0.86	0.824
Mof_O 	O 	0.03205	0.32563	0.6377	-0.452
Mof_O 	O 	0.07278	0.30203	0.3969	-0.393
Mof_O 	O 	0.08105	0.35372	0.9883	-0.429
Mof_C 	C 	0.07142	0.31741	0.58	0.397
Mof_C 	C 	0.12383	0.32779	0.7107	-0.159
Mof_C 	C 	0.12114	0.34479	0.9084	0.215
Mof_C 	C 	0.16774	0.35013	0.0239	-0.072
Mof_H 	H 	0.1675	0.3609	0.1726	0.068
Mof_Fe	Fe	0.69797	0.71772	0.19333	0.825
Mof_O 	O 	0.69872	0.65896	0.97103	-0.452
Mof_O 	O 	0.73945	0.63536	0.73023	-0.393
Mof_O 	O 	0.74772	0.68705	0.32163	-0.429
Mof_C 	C 	0.73809	0.65074	0.91333	0.397
Mof_C 	C 	0.7905	0.66112	0.04403	-0.16
Mof_C 	C 	0.78781	0.67812	0.24173	0.216
Mof_C 	C 	0.83441	0.68346	0.35723	-0.072
Mof_H 	H 	0.83417	0.69423	0.50593	0.068
Mof_Fe	Fe	0.36463	0.05106	0.52667	0.825
Mof_O 	O 	0.36538	0.9923	0.30437	-0.452
Mof_O 	O 	0.40611	0.9687	0.06357	-0.393
Mof_O 	O 	0.41438	0.02039	0.65497	-0.429
Mof_C 	C 	0.40475	0.98408	0.24667	0.397
Mof_C 	C 	0.45716	0.99446	0.37737	-0.16
Mof_C 	C 	0.45447	0.01146	0.57507	0.216
Mof_C 	C 	0.50107	0.0168	0.69057	-0.072
Mof_H 	H 	0.50083	0.02757	0.83927	0.068
_end
