# CIF file generated by openbabel 3.1.0, see https://openbabel.org
data_I
_chemical_name_common 'ITETEH_clean'
_cell_length_a 8.6716
_cell_length_b 8.6716
_cell_length_c 10.865
_cell_angle_alpha 90
_cell_angle_beta 90
_cell_angle_gamma 120
_space_group_name_H-M_alt 'P 1'
_space_group_name_Hall 'P 1'
loop_
    _symmetry_equiv_pos_as_xyz
    x,y,z
loop_
    _atom_site_label
    _atom_site_type_symbol
    _atom_site_fract_x
    _atom_site_fract_y
    _atom_site_fract_z
    _atom_site_occupancy
    Fe1      Fe       0.94182    0.00000    0.50000    1.000
    Fe2      Fe       0.05818    0.05818    0.16667    1.000
    Fe3      Fe       0.00000    0.94182    0.83333    1.000
    H1       H        0.39080    0.48820    0.49020    1.000
    H2       H        0.09740    0.60920    0.15687    1.000
    H3       H        0.51180    0.90260    0.82353    1.000
    H4       H        0.90260    0.51180    0.50980    1.000
    H5       H        0.48820    0.39080    0.84313    1.000
    H6       H        0.60920    0.09740    0.17647    1.000
    C1       C        0.62460    0.68520    0.56250    1.000
    C2       C        0.46510    0.52430    0.56090    1.000
    C3       C        0.06060    0.37540    0.22917    1.000
    C4       C        0.05920    0.53490    0.22757    1.000
    C5       C        0.31480    0.93940    0.89583    1.000
    C6       C        0.47570    0.94080    0.89423    1.000
    C7       C        0.93940    0.31480    0.43750    1.000
    C8       C        0.94080    0.47570    0.43910    1.000
    C9       C        0.68520    0.62460    0.77083    1.000
    C10      C        0.52430    0.46510    0.77243    1.000
    C11      C        0.37540    0.06060    0.10417    1.000
    C12      C        0.53490    0.05920    0.10577    1.000
    C13      C        0.73060    0.73060    0.66667    1.000
    C14      C        0.41640    0.41640    0.66667    1.000
    C15      C        0.24530    0.24530    0.66667    1.000
    C16      C        0.00000    0.26940    0.33333    1.000
    C17      C        0.00000    0.58360    0.33333    1.000
    C18      C        0.00000    0.75470    0.33333    1.000
    C19      C        0.26940    0.00000    0.00000    1.000
    C20      C        0.58360    0.00000    0.00000    1.000
    C21      C        0.75470    0.00000    0.00000    1.000
    O1       O        0.68710    0.80750    0.47030    1.000
    O2       O        0.18910    0.16640    0.56470    1.000
    O3       O        0.12040    0.31290    0.13697    1.000
    O4       O        0.97730    0.81090    0.23137    1.000
    O5       O        0.19250    0.87960    0.80363    1.000
    O6       O        0.83360    0.02270    0.89803    1.000
    O7       O        0.87960    0.19250    0.52970    1.000
    O8       O        0.02270    0.83360    0.43530    1.000
    O9       O        0.80750    0.68710    0.86303    1.000
    O10      O        0.16640    0.18910    0.76863    1.000
    O11      O        0.31290    0.12040    0.19637    1.000
    O12      O        0.81090    0.97730    0.10197    1.000
    O13      O        0.88740    0.88740    0.66667    1.000
    O14      O        0.00000    0.11260    0.33333    1.000
    O15      O        0.11260    0.00000    0.00000    1.000
