# CIF file generated by openbabel 3.1.0, see https://openbabel.org
data_I
_chemical_name_common 'LAJDUV02_charged'
_cell_length_a 8.931
_cell_length_b 8.931
_cell_length_c 10.893
_cell_angle_alpha 90
_cell_angle_beta 90
_cell_angle_gamma 120
_space_group_name_H-M_alt 'P 1'
_space_group_name_Hall 'P 1'
loop_
    _symmetry_equiv_pos_as_xyz
    x,y,z
loop_
    _atom_site_label
    _atom_site_type_symbol
    _atom_site_fract_x
    _atom_site_fract_y
    _atom_site_fract_z
    _atom_site_occupancy
    Ti1      Ti       0.00000    0.50000    0.16667    1.000
    Ti2      Ti       0.50000    0.00000    0.83333    1.000
    Ti3      Ti       0.50000    0.50000    0.50000    1.000
    C1       C        0.30837    0.61674    0.33333    1.000
    C2       C        0.21025    0.42050    0.33333    1.000
    C3       C        0.30837    0.69163    0.00000    1.000
    C4       C        0.21025    0.78975    0.00000    1.000
    C5       C        0.38326    0.69163    0.66667    1.000
    C6       C        0.57950    0.78975    0.66667    1.000
    C7       C        0.69163    0.38326    0.33333    1.000
    C8       C        0.78975    0.57950    0.33333    1.000
    C9       C        0.69163    0.30837    0.00000    1.000
    C10      C        0.78975    0.21025    0.00000    1.000
    C11      C        0.61674    0.30837    0.66667    1.000
    C12      C        0.42050    0.21025    0.66667    1.000
    O1       O        0.23713    0.68651    0.27615    1.000
    O2       O        0.07538    0.34811    0.27009    1.000
    O3       O        0.44938    0.76287    0.94282    1.000
    O4       O        0.27273    0.92462    0.93676    1.000
    O5       O        0.31349    0.55062    0.60948    1.000
    O6       O        0.65189    0.72727    0.60342    1.000
    O7       O        0.76287    0.31349    0.27615    1.000
    O8       O        0.92462    0.65189    0.27009    1.000
    O9       O        0.55062    0.23713    0.94282    1.000
    O10      O        0.72727    0.07538    0.93676    1.000
    O11      O        0.68651    0.44938    0.60948    1.000
    O12      O        0.34811    0.27273    0.60342    1.000
    O13      O        0.55062    0.31349    0.39052    1.000
    O14      O        0.72727    0.65189    0.39658    1.000
    O15      O        0.68651    0.23713    0.72385    1.000
    O16      O        0.34811    0.07538    0.72991    1.000
    O17      O        0.76287    0.44938    0.05718    1.000
    O18      O        0.92462    0.27273    0.06324    1.000
    O19      O        0.44938    0.68651    0.39052    1.000
    O20      O        0.27273    0.34811    0.39658    1.000
    O21      O        0.31349    0.76287    0.72385    1.000
    O22      O        0.65189    0.92462    0.72991    1.000
    O23      O        0.23713    0.55062    0.05718    1.000
    O24      O        0.07538    0.72727    0.06324    1.000
    H1       H        0.89386    0.91389    0.88361    1.000
    H2       H        0.10614    0.08611    0.88361    1.000
    H3       H        0.97997    0.08611    0.78306    1.000
    H4       H        0.02003    0.91389    0.78306    1.000
    N1       N        0.00000    0.00000    0.83333    1.000
    H5       H        0.02003    0.10614    0.55028    1.000
    H6       H        0.97997    0.89386    0.55028    1.000
    H7       H        0.10614    0.02003    0.44972    1.000
    H8       H        0.89386    0.97997    0.44972    1.000
    N2       N        0.00000    0.00000    0.50000    1.000
    H9       H        0.08611    0.97997    0.21694    1.000
    H10      H        0.91389    0.02003    0.21694    1.000
    H11      H        0.91389    0.89386    0.11639    1.000
    H12      H        0.08611    0.10614    0.11639    1.000
    N3       N        0.00000    0.00000    0.16667    1.000
