# CIF file generated by openbabel 3.1.0, see https://openbabel.org
data_I
_chemical_name_common 'image0'
_cell_length_a 29.9011
_cell_length_b 29.9011
_cell_length_c 11.7415
_cell_angle_alpha 90
_cell_angle_beta 90
_cell_angle_gamma 120
_space_group_name_H-M_alt 'P 1'
_space_group_name_Hall 'P 1'
loop_
    _symmetry_equiv_pos_as_xyz
    x,y,z
loop_
    _atom_site_label
    _atom_site_type_symbol
    _atom_site_fract_x
    _atom_site_fract_y
    _atom_site_fract_z
    _atom_site_occupancy
    Ag1      Ag       0.07485    0.72246    0.57835    1.000
    C1       C        0.10099    0.64835    0.38860    1.000
    C2       C        0.11554    0.61963    0.30050    1.000
    H1       H        0.14490    0.64490    0.25370    1.000
    H2       H        0.12640    0.59740    0.34030    1.000
    C3       C        0.08392    0.55629    0.15960    1.000
    H3       H        0.08810    0.53150    0.20800    1.000
    H4       H        0.11650    0.57750    0.11740    1.000
    C4       C        0.04025    0.52746    0.07710    1.000
    C5       C        0.05042    0.52685    0.96180    1.000
    H5       H        0.08500    0.54530    0.93480    1.000
    C6       C        0.98950    0.50052    0.11380    1.000
    H6       H        0.98200    0.50090    0.19230    1.000
    C7       C        0.19030    0.67619    0.46640    1.000
    H7       H        0.20130    0.65980    0.41310    1.000
    C8       C        0.21726    0.70428    0.55750    1.000
    H8       H        0.25070    0.71180    0.58100    1.000
    C9       C        0.18571    0.71978    0.60930    1.000
    H9       H        0.19470    0.74030    0.67630    1.000
    C10      C        0.08730    0.69278    0.22030    1.000
    H10      H        0.10180    0.68220    0.16150    1.000
    C11      C        0.06349    0.72081    0.20740    1.000
    H11      H        0.05790    0.73380    0.13830    1.000
    C12      C        0.04883    0.72671    0.31620    1.000
    H12      H        0.03150    0.74520    0.33300    1.000
    C13      C        0.05768    0.59087    0.56010    1.000
    H13      H        0.08740    0.59900    0.60430    1.000
    C14      C        0.00793    0.55653    0.58770    1.000
    H14      H        0.99580    0.53590    0.65440    1.000
    C15      C        0.97844    0.55800    0.49780    1.000
    H15      H        0.94190    0.53800    0.49390    1.000
    N1       N        0.14170    0.70266    0.55450    1.000
    N2       N        0.14484    0.67555    0.46480    1.000
    N3       N        0.06208    0.70331    0.39310    1.000
    N4       N        0.08660    0.68256    0.33380    1.000
    N5       N        0.00803    0.59096    0.41850    1.000
    N6       N        0.05683    0.61128    0.45782    1.000
    O1       O        0.07277    0.58898    0.22956    1.000
    Ag2      Ag       0.74152    0.05580    0.91168    1.000
    C16      C        0.76766    0.98168    0.72193    1.000
    C17      C        0.78221    0.95296    0.63383    1.000
    H16      H        0.81157    0.97823    0.58703    1.000
    H17      H        0.79307    0.93073    0.67363    1.000
    C18      C        0.75059    0.88962    0.49293    1.000
    H18      H        0.75477    0.86483    0.54133    1.000
    H19      H        0.78317    0.91083    0.45073    1.000
    C19      C        0.70692    0.86079    0.41043    1.000
    C20      C        0.71709    0.86018    0.29513    1.000
    H20      H        0.75167    0.87863    0.26813    1.000
    C21      C        0.65617    0.83385    0.44713    1.000
    H21      H        0.64867    0.83423    0.52563    1.000
    C22      C        0.85697    0.00952    0.79973    1.000
    H22      H        0.86797    0.99313    0.74643    1.000
    C23      C        0.88393    0.03761    0.89083    1.000
    H23      H        0.91737    0.04513    0.91433    1.000
    C24      C        0.85238    0.05311    0.94263    1.000
    H24      H        0.86137    0.07363    0.00963    1.000
    C25      C        0.75397    0.02611    0.55363    1.000
    H25      H        0.76847    0.01553    0.49483    1.000
    C26      C        0.73016    0.05414    0.54073    1.000
    H26      H        0.72457    0.06713    0.47163    1.000
    C27      C        0.71550    0.06004    0.64953    1.000
    H27      H        0.69817    0.07853    0.66633    1.000
    C28      C        0.72435    0.92420    0.89343    1.000
    H28      H        0.75407    0.93233    0.93763    1.000
    C29      C        0.67460    0.88986    0.92103    1.000
    H29      H        0.66247    0.86923    0.98773    1.000
    C30      C        0.64511    0.89133    0.83113    1.000
    H30      H        0.60857    0.87133    0.82723    1.000
    N7       N        0.80837    0.03599    0.88783    1.000
    N8       N        0.81151    0.00888    0.79813    1.000
    N9       N        0.72875    0.03664    0.72643    1.000
    N10      N        0.75327    0.01589    0.66713    1.000
    N11      N        0.67470    0.92429    0.75183    1.000
    N12      N        0.72350    0.94461    0.79115    1.000
    O2       O        0.73944    0.92231    0.56289    1.000
    Ag3      Ag       0.40819    0.38913    0.24502    1.000
    C31      C        0.43432    0.31502    0.05527    1.000
    C32      C        0.44887    0.28630    0.96717    1.000
    H31      H        0.47823    0.31157    0.92037    1.000
    H32      H        0.45973    0.26407    0.00697    1.000
    C33      C        0.41725    0.22296    0.82627    1.000
    H33      H        0.42143    0.19817    0.87467    1.000
    H34      H        0.44983    0.24417    0.78407    1.000
    C34      C        0.37358    0.19413    0.74377    1.000
    C35      C        0.38375    0.19352    0.62847    1.000
    H35      H        0.41833    0.21197    0.60147    1.000
    C36      C        0.32283    0.16719    0.78047    1.000
    H36      H        0.31533    0.16757    0.85897    1.000
    C37      C        0.52363    0.34286    0.13307    1.000
    H37      H        0.53463    0.32647    0.07977    1.000
    C38      C        0.55059    0.37095    0.22417    1.000
    H38      H        0.58403    0.37847    0.24767    1.000
    C39      C        0.51904    0.38645    0.27597    1.000
    H39      H        0.52803    0.40697    0.34297    1.000
    C40      C        0.42063    0.35945    0.88697    1.000
    H40      H        0.43513    0.34887    0.82817    1.000
    C41      C        0.39682    0.38748    0.87407    1.000
    H41      H        0.39123    0.40047    0.80497    1.000
    C42      C        0.38216    0.39338    0.98287    1.000
    H42      H        0.36483    0.41187    0.99967    1.000
    C43      C        0.39101    0.25754    0.22677    1.000
    H43      H        0.42073    0.26567    0.27097    1.000
    C44      C        0.34126    0.22320    0.25437    1.000
    H44      H        0.32913    0.20257    0.32107    1.000
    C45      C        0.31177    0.22467    0.16447    1.000
    H45      H        0.27523    0.20467    0.16057    1.000
    N13      N        0.47503    0.36933    0.22117    1.000
    N14      N        0.47817    0.34222    0.13147    1.000
    N15      N        0.39541    0.36998    0.05977    1.000
    N16      N        0.41993    0.34923    0.00047    1.000
    N17      N        0.34136    0.25763    0.08517    1.000
    N18      N        0.39016    0.27795    0.12449    1.000
    O3       O        0.40610    0.25565    0.89623    1.000
    Ag4      Ag       0.27754    0.35239    0.57835    1.000
    C46      C        0.35165    0.45264    0.38860    1.000
    C47      C        0.38037    0.49591    0.30050    1.000
    H46      H        0.35510    0.50000    0.25370    1.000
    H47      H        0.40260    0.52900    0.34030    1.000
    C48      C        0.44371    0.52763    0.15960    1.000
    H48      H        0.46850    0.55660    0.20800    1.000
    H49      H        0.42250    0.53900    0.11740    1.000
    C49      C        0.47254    0.51279    0.07710    1.000
    C50      C        0.47315    0.52357    0.96180    1.000
    H50      H        0.45470    0.53970    0.93480    1.000
    C51      C        0.49948    0.48898    0.11380    1.000
    H51      H        0.49910    0.48110    0.19230    1.000
    C52      C        0.32381    0.51411    0.46640    1.000
    H52      H        0.34020    0.54150    0.41310    1.000
    C53      C        0.29572    0.51298    0.55750    1.000
    H53      H        0.28820    0.53890    0.58100    1.000
    C54      C        0.28022    0.46593    0.60930    1.000
    H54      H        0.25970    0.45440    0.67630    1.000
    C55      C        0.30722    0.39452    0.22030    1.000
    H55      H        0.31780    0.41960    0.16150    1.000
    C56      C        0.27919    0.34268    0.20740    1.000
    H56      H        0.26620    0.32410    0.13830    1.000
    C57      C        0.27329    0.32212    0.31620    1.000
    H57      H        0.25480    0.28630    0.33300    1.000
    C58      C        0.40913    0.46681    0.56010    1.000
    H58      H        0.40100    0.48840    0.60430    1.000
    C59      C        0.44347    0.45140    0.58770    1.000
    H59      H        0.46410    0.45990    0.65440    1.000
    C60      C        0.44200    0.42044    0.49780    1.000
    H60      H        0.46200    0.40390    0.49390    1.000
    N19      N        0.29734    0.43904    0.55450    1.000
    N20      N        0.32445    0.46929    0.46480    1.000
    N21      N        0.29669    0.35877    0.39310    1.000
    N22      N        0.31744    0.40404    0.33380    1.000
    N23      N        0.40904    0.41707    0.41850    1.000
    N24      N        0.38872    0.44555    0.45782    1.000
    O4       O        0.41102    0.48379    0.22956    1.000
    Ag5      Ag       0.94420    0.68573    0.91168    1.000
    C61      C        0.01832    0.78597    0.72193    1.000
    C62      C        0.04704    0.82924    0.63383    1.000
    H61      H        0.02177    0.83333    0.58703    1.000
    H62      H        0.06927    0.86233    0.67363    1.000
    C63      C        0.11038    0.86096    0.49293    1.000
    H63      H        0.13517    0.88993    0.54133    1.000
    H64      H        0.08917    0.87233    0.45073    1.000
    C64      C        0.13921    0.84612    0.41043    1.000
    C65      C        0.13982    0.85690    0.29513    1.000
    H65      H        0.12137    0.87303    0.26813    1.000
    C66      C        0.16615    0.82231    0.44713    1.000
    H66      H        0.16577    0.81443    0.52563    1.000
    C67      C        0.99048    0.84744    0.79973    1.000
    H67      H        0.00687    0.87483    0.74643    1.000
    C68      C        0.96239    0.84631    0.89083    1.000
    H68      H        0.95487    0.87223    0.91433    1.000
    C69      C        0.94689    0.79926    0.94263    1.000
    H69      H        0.92637    0.78773    0.00963    1.000
    C70      C        0.97389    0.72785    0.55363    1.000
    H70      H        0.98447    0.75293    0.49483    1.000
    C71      C        0.94586    0.67601    0.54073    1.000
    H71      H        0.93287    0.65743    0.47163    1.000
    C72      C        0.93996    0.65545    0.64953    1.000
    H72      H        0.92147    0.61963    0.66633    1.000
    C73      C        0.07580    0.80014    0.89343    1.000
    H73      H        0.06767    0.82173    0.93763    1.000
    C74      C        0.11014    0.78473    0.92103    1.000
    H74      H        0.13077    0.79323    0.98773    1.000
    C75      C        0.10867    0.75377    0.83113    1.000
    H75      H        0.12867    0.73723    0.82723    1.000
    N25      N        0.96401    0.77237    0.88783    1.000
    N26      N        0.99112    0.80262    0.79813    1.000
    N27      N        0.96336    0.69210    0.72643    1.000
    N28      N        0.98411    0.73737    0.66713    1.000
    N29      N        0.07571    0.75040    0.75183    1.000
    N30      N        0.05539    0.77888    0.79115    1.000
    O5       O        0.07769    0.81712    0.56289    1.000
    Ag6      Ag       0.61087    0.01906    0.24502    1.000
    C76      C        0.68498    0.11931    0.05527    1.000
    C77      C        0.71370    0.16258    0.96717    1.000
    H76      H        0.68843    0.16667    0.92037    1.000
    H77      H        0.73593    0.19567    0.00697    1.000
    C78      C        0.77704    0.19430    0.82627    1.000
    H78      H        0.80183    0.22327    0.87467    1.000
    H79      H        0.75583    0.20567    0.78407    1.000
    C79      C        0.80587    0.17946    0.74377    1.000
    C80      C        0.80648    0.19024    0.62847    1.000
    H80      H        0.78803    0.20637    0.60147    1.000
    C81      C        0.83281    0.15565    0.78047    1.000
    H81      H        0.83243    0.14777    0.85897    1.000
    C82      C        0.65714    0.18078    0.13307    1.000
    H82      H        0.67353    0.20817    0.07977    1.000
    C83      C        0.62905    0.17965    0.22417    1.000
    H83      H        0.62153    0.20557    0.24767    1.000
    C84      C        0.61355    0.13260    0.27597    1.000
    H84      H        0.59303    0.12107    0.34297    1.000
    C85      C        0.64055    0.06119    0.88697    1.000
    H85      H        0.65113    0.08627    0.82817    1.000
    C86      C        0.61252    0.00935    0.87407    1.000
    H86      H        0.59953    0.99077    0.80497    1.000
    C87      C        0.60662    0.98879    0.98287    1.000
    H87      H        0.58813    0.95297    0.99967    1.000
    C88      C        0.74246    0.13348    0.22677    1.000
    H88      H        0.73433    0.15507    0.27097    1.000
    C89      C        0.77680    0.11807    0.25437    1.000
    H89      H        0.79743    0.12657    0.32107    1.000
    C90      C        0.77533    0.08711    0.16447    1.000
    H90      H        0.79533    0.07057    0.16057    1.000
    N31      N        0.63067    0.10571    0.22117    1.000
    N32      N        0.65778    0.13596    0.13147    1.000
    N33      N        0.63002    0.02544    0.05977    1.000
    N34      N        0.65077    0.07071    0.00047    1.000
    N35      N        0.74237    0.08374    0.08517    1.000
    N36      N        0.72205    0.11222    0.12449    1.000
    O6       O        0.74435    0.15046    0.89623    1.000
    Ag7      Ag       0.64761    0.92515    0.57835    1.000
    C91      C        0.54736    0.89901    0.38860    1.000
    C92      C        0.50409    0.88446    0.30050    1.000
    H91      H        0.50000    0.85510    0.25370    1.000
    H92      H        0.47100    0.87360    0.34030    1.000
    C93      C        0.47237    0.91608    0.15960    1.000
    H93      H        0.44340    0.91190    0.20800    1.000
    H94      H        0.46100    0.88350    0.11740    1.000
    C94      C        0.48721    0.95975    0.07710    1.000
    C95      C        0.47643    0.94958    0.96180    1.000
    H95      H        0.46030    0.91500    0.93480    1.000
    C96      C        0.51102    0.01050    0.11380    1.000
    H96      H        0.51890    0.01800    0.19230    1.000
    C97      C        0.48589    0.80970    0.46640    1.000
    H97      H        0.45850    0.79870    0.41310    1.000
    C98      C        0.48702    0.78274    0.55750    1.000
    H98      H        0.46110    0.74930    0.58100    1.000
    C99      C        0.53407    0.81429    0.60930    1.000
    H99      H        0.54560    0.80530    0.67630    1.000
    C100     C        0.60548    0.91270    0.22030    1.000
    H100     H        0.58040    0.89820    0.16150    1.000
    C101     C        0.65732    0.93651    0.20740    1.000
    H101     H        0.67590    0.94210    0.13830    1.000
    C102     C        0.67788    0.95117    0.31620    1.000
    H102     H        0.71370    0.96850    0.33300    1.000
    C103     C        0.53319    0.94232    0.56010    1.000
    H103     H        0.51160    0.91260    0.60430    1.000
    C104     C        0.54860    0.99207    0.58770    1.000
    H104     H        0.54010    0.00420    0.65440    1.000
    C105     C        0.57956    0.02156    0.49780    1.000
    H105     H        0.59610    0.05810    0.49390    1.000
    N37      N        0.56096    0.85830    0.55450    1.000
    N38      N        0.53071    0.85516    0.46480    1.000
    N39      N        0.64123    0.93792    0.39310    1.000
    N40      N        0.59596    0.91340    0.33380    1.000
    N41      N        0.58293    0.99197    0.41850    1.000
    N42      N        0.55445    0.94317    0.45782    1.000
    O7       O        0.51621    0.92723    0.22956    1.000
    Ag8      Ag       0.31427    0.25848    0.91168    1.000
    C106     C        0.21403    0.23234    0.72193    1.000
    C107     C        0.17076    0.21779    0.63383    1.000
    H106     H        0.16667    0.18843    0.58703    1.000
    H107     H        0.13767    0.20693    0.67363    1.000
    C108     C        0.13904    0.24941    0.49293    1.000
    H108     H        0.11007    0.24523    0.54133    1.000
    H109     H        0.12767    0.21683    0.45073    1.000
    C109     C        0.15388    0.29308    0.41043    1.000
    C110     C        0.14310    0.28291    0.29513    1.000
    H110     H        0.12697    0.24833    0.26813    1.000
    C111     C        0.17769    0.34383    0.44713    1.000
    H111     H        0.18557    0.35133    0.52563    1.000
    C112     C        0.15256    0.14303    0.79973    1.000
    H112     H        0.12517    0.13203    0.74643    1.000
    C113     C        0.15369    0.11607    0.89083    1.000
    H113     H        0.12777    0.08263    0.91433    1.000
    C114     C        0.20074    0.14762    0.94263    1.000
    H114     H        0.21227    0.13863    0.00963    1.000
    C115     C        0.27215    0.24603    0.55363    1.000
    H115     H        0.24707    0.23153    0.49483    1.000
    C116     C        0.32399    0.26984    0.54073    1.000
    H116     H        0.34257    0.27543    0.47163    1.000
    C117     C        0.34455    0.28450    0.64953    1.000
    H117     H        0.38037    0.30183    0.66633    1.000
    C118     C        0.19986    0.27565    0.89343    1.000
    H118     H        0.17827    0.24593    0.93763    1.000
    C119     C        0.21527    0.32540    0.92103    1.000
    H119     H        0.20677    0.33753    0.98773    1.000
    C120     C        0.24623    0.35489    0.83113    1.000
    H120     H        0.26277    0.39143    0.82723    1.000
    N43      N        0.22763    0.19163    0.88783    1.000
    N44      N        0.19738    0.18849    0.79813    1.000
    N45      N        0.30790    0.27125    0.72643    1.000
    N46      N        0.26263    0.24673    0.66713    1.000
    N47      N        0.24960    0.32530    0.75183    1.000
    N48      N        0.22112    0.27650    0.79115    1.000
    O8       O        0.18288    0.26056    0.56289    1.000
    Ag9      Ag       0.98094    0.59181    0.24502    1.000
    C121     C        0.88069    0.56568    0.05527    1.000
    C122     C        0.83742    0.55113    0.96717    1.000
    H121     H        0.83333    0.52177    0.92037    1.000
    H122     H        0.80433    0.54027    0.00697    1.000
    C123     C        0.80570    0.58275    0.82627    1.000
    H123     H        0.77673    0.57857    0.87467    1.000
    H124     H        0.79433    0.55017    0.78407    1.000
    C124     C        0.82054    0.62642    0.74377    1.000
    C125     C        0.80976    0.61625    0.62847    1.000
    H125     H        0.79363    0.58167    0.60147    1.000
    C126     C        0.84435    0.67717    0.78047    1.000
    H126     H        0.85223    0.68467    0.85897    1.000
    C127     C        0.81922    0.47637    0.13307    1.000
    H127     H        0.79183    0.46537    0.07977    1.000
    C128     C        0.82035    0.44941    0.22417    1.000
    H128     H        0.79443    0.41597    0.24767    1.000
    C129     C        0.86740    0.48096    0.27597    1.000
    H129     H        0.87893    0.47197    0.34297    1.000
    C130     C        0.93881    0.57937    0.88697    1.000
    H130     H        0.91373    0.56487    0.82817    1.000
    C131     C        0.99065    0.60318    0.87407    1.000
    H131     H        0.00923    0.60877    0.80497    1.000
    C132     C        0.01121    0.61784    0.98287    1.000
    H132     H        0.04703    0.63517    0.99967    1.000
    C133     C        0.86652    0.60899    0.22677    1.000
    H133     H        0.84493    0.57927    0.27097    1.000
    C134     C        0.88193    0.65874    0.25437    1.000
    H134     H        0.87343    0.67087    0.32107    1.000
    C135     C        0.91289    0.68823    0.16447    1.000
    H135     H        0.92943    0.72477    0.16057    1.000
    N49      N        0.89429    0.52497    0.22117    1.000
    N50      N        0.86404    0.52183    0.13147    1.000
    N51      N        0.97456    0.60459    0.05977    1.000
    N52      N        0.92929    0.58007    0.00047    1.000
    N53      N        0.91626    0.65864    0.08517    1.000
    N54      N        0.88778    0.60984    0.12449    1.000
    O9       O        0.84954    0.59390    0.89623    1.000
    Ag10     Ag       0.92515    0.27754    0.42165    1.000
    C136     C        0.89901    0.35165    0.61140    1.000
    C137     C        0.88446    0.38037    0.69950    1.000
    H136     H        0.85510    0.35510    0.74630    1.000
    H137     H        0.87360    0.40260    0.65970    1.000
    C138     C        0.91608    0.44371    0.84040    1.000
    H138     H        0.91190    0.46850    0.79200    1.000
    H139     H        0.88350    0.42250    0.88260    1.000
    C139     C        0.95975    0.47254    0.92290    1.000
    C140     C        0.94958    0.47315    0.03820    1.000
    H140     H        0.91500    0.45470    0.06520    1.000
    C141     C        0.01050    0.49948    0.88620    1.000
    H141     H        0.01800    0.49910    0.80770    1.000
    C142     C        0.80970    0.32381    0.53360    1.000
    H142     H        0.79870    0.34020    0.58690    1.000
    C143     C        0.78274    0.29572    0.44250    1.000
    H143     H        0.74930    0.28820    0.41900    1.000
    C144     C        0.81429    0.28022    0.39070    1.000
    H144     H        0.80530    0.25970    0.32370    1.000
    C145     C        0.91270    0.30722    0.77970    1.000
    H145     H        0.89820    0.31780    0.83850    1.000
    C146     C        0.93651    0.27919    0.79260    1.000
    H146     H        0.94210    0.26620    0.86170    1.000
    C147     C        0.95117    0.27329    0.68380    1.000
    H147     H        0.96850    0.25480    0.66700    1.000
    C148     C        0.94232    0.40913    0.43990    1.000
    H148     H        0.91260    0.40100    0.39570    1.000
    C149     C        0.99207    0.44347    0.41230    1.000
    H149     H        0.00420    0.46410    0.34560    1.000
    C150     C        0.02156    0.44200    0.50220    1.000
    H150     H        0.05810    0.46200    0.50610    1.000
    N55      N        0.85830    0.29734    0.44550    1.000
    N56      N        0.85516    0.32445    0.53520    1.000
    N57      N        0.93792    0.29669    0.60690    1.000
    N58      N        0.91340    0.31744    0.66620    1.000
    N59      N        0.99197    0.40904    0.58150    1.000
    N60      N        0.94317    0.38872    0.54218    1.000
    O10      O        0.92723    0.41102    0.77044    1.000
    Ag11     Ag       0.59181    0.61087    0.75498    1.000
    C151     C        0.56568    0.68498    0.94473    1.000
    C152     C        0.55113    0.71370    0.03283    1.000
    H151     H        0.52177    0.68843    0.07963    1.000
    H152     H        0.54027    0.73593    0.99303    1.000
    C153     C        0.58275    0.77704    0.17373    1.000
    H153     H        0.57857    0.80183    0.12533    1.000
    H154     H        0.55017    0.75583    0.21593    1.000
    C154     C        0.62642    0.80587    0.25623    1.000
    C155     C        0.61625    0.80648    0.37153    1.000
    H155     H        0.58167    0.78803    0.39853    1.000
    C156     C        0.67717    0.83281    0.21953    1.000
    H156     H        0.68467    0.83243    0.14103    1.000
    C157     C        0.47637    0.65714    0.86693    1.000
    H157     H        0.46537    0.67353    0.92023    1.000
    C158     C        0.44941    0.62905    0.77583    1.000
    H158     H        0.41597    0.62153    0.75233    1.000
    C159     C        0.48096    0.61355    0.72403    1.000
    H159     H        0.47197    0.59303    0.65703    1.000
    C160     C        0.57937    0.64055    0.11303    1.000
    H160     H        0.56487    0.65113    0.17183    1.000
    C161     C        0.60318    0.61252    0.12593    1.000
    H161     H        0.60877    0.59953    0.19503    1.000
    C162     C        0.61784    0.60662    0.01713    1.000
    H162     H        0.63517    0.58813    0.00033    1.000
    C163     C        0.60899    0.74246    0.77323    1.000
    H163     H        0.57927    0.73433    0.72903    1.000
    C164     C        0.65874    0.77680    0.74563    1.000
    H164     H        0.67087    0.79743    0.67893    1.000
    C165     C        0.68823    0.77533    0.83553    1.000
    H165     H        0.72477    0.79533    0.83943    1.000
    N61      N        0.52497    0.63067    0.77883    1.000
    N62      N        0.52183    0.65778    0.86853    1.000
    N63      N        0.60459    0.63002    0.94023    1.000
    N64      N        0.58007    0.65077    0.99953    1.000
    N65      N        0.65864    0.74237    0.91483    1.000
    N66      N        0.60984    0.72205    0.87551    1.000
    O11      O        0.59390    0.74435    0.10377    1.000
    Ag12     Ag       0.25848    0.94420    0.08832    1.000
    C166     C        0.23234    0.01832    0.27807    1.000
    C167     C        0.21779    0.04704    0.36617    1.000
    H166     H        0.18843    0.02177    0.41297    1.000
    H167     H        0.20693    0.06927    0.32637    1.000
    C168     C        0.24941    0.11038    0.50707    1.000
    H168     H        0.24523    0.13517    0.45867    1.000
    H169     H        0.21683    0.08917    0.54927    1.000
    C169     C        0.29308    0.13921    0.58957    1.000
    C170     C        0.28291    0.13982    0.70487    1.000
    H170     H        0.24833    0.12137    0.73187    1.000
    C171     C        0.34383    0.16615    0.55287    1.000
    H171     H        0.35133    0.16577    0.47437    1.000
    C172     C        0.14303    0.99048    0.20027    1.000
    H172     H        0.13203    0.00687    0.25357    1.000
    C173     C        0.11607    0.96239    0.10917    1.000
    H173     H        0.08263    0.95487    0.08567    1.000
    C174     C        0.14762    0.94689    0.05737    1.000
    H174     H        0.13863    0.92637    0.99037    1.000
    C175     C        0.24603    0.97389    0.44637    1.000
    H175     H        0.23153    0.98447    0.50517    1.000
    C176     C        0.26984    0.94586    0.45927    1.000
    H176     H        0.27543    0.93287    0.52837    1.000
    C177     C        0.28450    0.93996    0.35047    1.000
    H177     H        0.30183    0.92147    0.33367    1.000
    C178     C        0.27565    0.07580    0.10657    1.000
    H178     H        0.24593    0.06767    0.06237    1.000
    C179     C        0.32540    0.11014    0.07897    1.000
    H179     H        0.33753    0.13077    0.01227    1.000
    C180     C        0.35489    0.10867    0.16887    1.000
    H180     H        0.39143    0.12867    0.17277    1.000
    N67      N        0.19163    0.96401    0.11217    1.000
    N68      N        0.18849    0.99112    0.20187    1.000
    N69      N        0.27125    0.96336    0.27357    1.000
    N70      N        0.24673    0.98411    0.33287    1.000
    N71      N        0.32530    0.07571    0.24817    1.000
    N72      N        0.27650    0.05539    0.20885    1.000
    O12      O        0.26056    0.07769    0.43711    1.000
    Ag13     Ag       0.72246    0.64761    0.42165    1.000
    C181     C        0.64835    0.54736    0.61140    1.000
    C182     C        0.61963    0.50409    0.69950    1.000
    H181     H        0.64490    0.50000    0.74630    1.000
    H182     H        0.59740    0.47100    0.65970    1.000
    C183     C        0.55629    0.47237    0.84040    1.000
    H183     H        0.53150    0.44340    0.79200    1.000
    H184     H        0.57750    0.46100    0.88260    1.000
    C184     C        0.52746    0.48721    0.92290    1.000
    C185     C        0.52685    0.47643    0.03820    1.000
    H185     H        0.54530    0.46030    0.06520    1.000
    C186     C        0.50052    0.51102    0.88620    1.000
    H186     H        0.50090    0.51890    0.80770    1.000
    C187     C        0.67619    0.48589    0.53360    1.000
    H187     H        0.65980    0.45850    0.58690    1.000
    C188     C        0.70428    0.48702    0.44250    1.000
    H188     H        0.71180    0.46110    0.41900    1.000
    C189     C        0.71978    0.53407    0.39070    1.000
    H189     H        0.74030    0.54560    0.32370    1.000
    C190     C        0.69278    0.60548    0.77970    1.000
    H190     H        0.68220    0.58040    0.83850    1.000
    C191     C        0.72081    0.65732    0.79260    1.000
    H191     H        0.73380    0.67590    0.86170    1.000
    C192     C        0.72671    0.67788    0.68380    1.000
    H192     H        0.74520    0.71370    0.66700    1.000
    C193     C        0.59087    0.53319    0.43990    1.000
    H193     H        0.59900    0.51160    0.39570    1.000
    C194     C        0.55653    0.54860    0.41230    1.000
    H194     H        0.53590    0.54010    0.34560    1.000
    C195     C        0.55800    0.57956    0.50220    1.000
    H195     H        0.53800    0.59610    0.50610    1.000
    N73      N        0.70266    0.56096    0.44550    1.000
    N74      N        0.67555    0.53071    0.53520    1.000
    N75      N        0.70331    0.64123    0.60690    1.000
    N76      N        0.68256    0.59596    0.66620    1.000
    N77      N        0.59096    0.58293    0.58150    1.000
    N78      N        0.61128    0.55445    0.54218    1.000
    O13      O        0.58898    0.51621    0.77044    1.000
    Ag14     Ag       0.38913    0.98094    0.75498    1.000
    C196     C        0.31502    0.88069    0.94473    1.000
    C197     C        0.28630    0.83742    0.03283    1.000
    H196     H        0.31157    0.83333    0.07963    1.000
    H197     H        0.26407    0.80433    0.99303    1.000
    C198     C        0.22296    0.80570    0.17373    1.000
    H198     H        0.19817    0.77673    0.12533    1.000
    H199     H        0.24417    0.79433    0.21593    1.000
    C199     C        0.19413    0.82054    0.25623    1.000
    C200     C        0.19352    0.80976    0.37153    1.000
    H200     H        0.21197    0.79363    0.39853    1.000
    C201     C        0.16719    0.84435    0.21953    1.000
    H201     H        0.16757    0.85223    0.14103    1.000
    C202     C        0.34286    0.81922    0.86693    1.000
    H202     H        0.32647    0.79183    0.92023    1.000
    C203     C        0.37095    0.82035    0.77583    1.000
    H203     H        0.37847    0.79443    0.75233    1.000
    C204     C        0.38645    0.86740    0.72403    1.000
    H204     H        0.40697    0.87893    0.65703    1.000
    C205     C        0.35945    0.93881    0.11303    1.000
    H205     H        0.34887    0.91373    0.17183    1.000
    C206     C        0.38748    0.99065    0.12593    1.000
    H206     H        0.40047    0.00923    0.19503    1.000
    C207     C        0.39338    0.01121    0.01713    1.000
    H207     H        0.41187    0.04703    0.00033    1.000
    C208     C        0.25754    0.86652    0.77323    1.000
    H208     H        0.26567    0.84493    0.72903    1.000
    C209     C        0.22320    0.88193    0.74563    1.000
    H209     H        0.20257    0.87343    0.67893    1.000
    C210     C        0.22467    0.91289    0.83553    1.000
    H210     H        0.20467    0.92943    0.83943    1.000
    N79      N        0.36933    0.89429    0.77883    1.000
    N80      N        0.34222    0.86404    0.86853    1.000
    N81      N        0.36998    0.97456    0.94023    1.000
    N82      N        0.34923    0.92929    0.99953    1.000
    N83      N        0.25763    0.91626    0.91483    1.000
    N84      N        0.27795    0.88778    0.87551    1.000
    O14      O        0.25565    0.84954    0.10377    1.000
    Ag15     Ag       0.05580    0.31427    0.08832    1.000
    C211     C        0.98168    0.21403    0.27807    1.000
    C212     C        0.95296    0.17076    0.36617    1.000
    H211     H        0.97823    0.16667    0.41297    1.000
    H212     H        0.93073    0.13767    0.32637    1.000
    C213     C        0.88962    0.13904    0.50707    1.000
    H213     H        0.86483    0.11007    0.45867    1.000
    H214     H        0.91083    0.12767    0.54927    1.000
    C214     C        0.86079    0.15388    0.58957    1.000
    C215     C        0.86018    0.14310    0.70487    1.000
    H215     H        0.87863    0.12697    0.73187    1.000
    C216     C        0.83385    0.17769    0.55287    1.000
    H216     H        0.83423    0.18557    0.47437    1.000
    C217     C        0.00952    0.15256    0.20027    1.000
    H217     H        0.99313    0.12517    0.25357    1.000
    C218     C        0.03761    0.15369    0.10917    1.000
    H218     H        0.04513    0.12777    0.08567    1.000
    C219     C        0.05311    0.20074    0.05737    1.000
    H219     H        0.07363    0.21227    0.99037    1.000
    C220     C        0.02611    0.27215    0.44637    1.000
    H220     H        0.01553    0.24707    0.50517    1.000
    C221     C        0.05414    0.32399    0.45927    1.000
    H221     H        0.06713    0.34257    0.52837    1.000
    C222     C        0.06004    0.34455    0.35047    1.000
    H222     H        0.07853    0.38037    0.33367    1.000
    C223     C        0.92420    0.19986    0.10657    1.000
    H223     H        0.93233    0.17827    0.06237    1.000
    C224     C        0.88986    0.21527    0.07897    1.000
    H224     H        0.86923    0.20677    0.01227    1.000
    C225     C        0.89133    0.24623    0.16887    1.000
    H225     H        0.87133    0.26277    0.17277    1.000
    N85      N        0.03599    0.22763    0.11217    1.000
    N86      N        0.00888    0.19738    0.20187    1.000
    N87      N        0.03664    0.30790    0.27357    1.000
    N88      N        0.01589    0.26263    0.33287    1.000
    N89      N        0.92429    0.24960    0.24817    1.000
    N90      N        0.94461    0.22112    0.20885    1.000
    O15      O        0.92231    0.18288    0.43711    1.000
    Ag16     Ag       0.35239    0.07485    0.42165    1.000
    C226     C        0.45264    0.10099    0.61140    1.000
    C227     C        0.49591    0.11554    0.69950    1.000
    H226     H        0.50000    0.14490    0.74630    1.000
    H227     H        0.52900    0.12640    0.65970    1.000
    C228     C        0.52763    0.08392    0.84040    1.000
    H228     H        0.55660    0.08810    0.79200    1.000
    H229     H        0.53900    0.11650    0.88260    1.000
    C229     C        0.51279    0.04025    0.92290    1.000
    C230     C        0.52357    0.05042    0.03820    1.000
    H230     H        0.53970    0.08500    0.06520    1.000
    C231     C        0.48898    0.98950    0.88620    1.000
    H231     H        0.48110    0.98200    0.80770    1.000
    C232     C        0.51411    0.19030    0.53360    1.000
    H232     H        0.54150    0.20130    0.58690    1.000
    C233     C        0.51298    0.21726    0.44250    1.000
    H233     H        0.53890    0.25070    0.41900    1.000
    C234     C        0.46593    0.18571    0.39070    1.000
    H234     H        0.45440    0.19470    0.32370    1.000
    C235     C        0.39452    0.08730    0.77970    1.000
    H235     H        0.41960    0.10180    0.83850    1.000
    C236     C        0.34268    0.06349    0.79260    1.000
    H236     H        0.32410    0.05790    0.86170    1.000
    C237     C        0.32212    0.04883    0.68380    1.000
    H237     H        0.28630    0.03150    0.66700    1.000
    C238     C        0.46681    0.05768    0.43990    1.000
    H238     H        0.48840    0.08740    0.39570    1.000
    C239     C        0.45140    0.00793    0.41230    1.000
    H239     H        0.45990    0.99580    0.34560    1.000
    C240     C        0.42044    0.97844    0.50220    1.000
    H240     H        0.40390    0.94190    0.50610    1.000
    N91      N        0.43904    0.14170    0.44550    1.000
    N92      N        0.46929    0.14484    0.53520    1.000
    N93      N        0.35877    0.06208    0.60690    1.000
    N94      N        0.40404    0.08660    0.66620    1.000
    N95      N        0.41707    0.00803    0.58150    1.000
    N96      N        0.44555    0.05683    0.54218    1.000
    O16      O        0.48379    0.07277    0.77044    1.000
    Ag17     Ag       0.01906    0.40819    0.75498    1.000
    C241     C        0.11931    0.43432    0.94473    1.000
    C242     C        0.16258    0.44887    0.03283    1.000
    H241     H        0.16667    0.47823    0.07963    1.000
    H242     H        0.19567    0.45973    0.99303    1.000
    C243     C        0.19430    0.41725    0.17373    1.000
    H243     H        0.22327    0.42143    0.12533    1.000
    H244     H        0.20567    0.44983    0.21593    1.000
    C244     C        0.17946    0.37358    0.25623    1.000
    C245     C        0.19024    0.38375    0.37153    1.000
    H245     H        0.20637    0.41833    0.39853    1.000
    C246     C        0.15565    0.32283    0.21953    1.000
    H246     H        0.14777    0.31533    0.14103    1.000
    C247     C        0.18078    0.52363    0.86693    1.000
    H247     H        0.20817    0.53463    0.92023    1.000
    C248     C        0.17965    0.55059    0.77583    1.000
    H248     H        0.20557    0.58403    0.75233    1.000
    C249     C        0.13260    0.51904    0.72403    1.000
    H249     H        0.12107    0.52803    0.65703    1.000
    C250     C        0.06119    0.42063    0.11303    1.000
    H250     H        0.08627    0.43513    0.17183    1.000
    C251     C        0.00935    0.39682    0.12593    1.000
    H251     H        0.99077    0.39123    0.19503    1.000
    C252     C        0.98879    0.38216    0.01713    1.000
    H252     H        0.95297    0.36483    0.00033    1.000
    C253     C        0.13348    0.39101    0.77323    1.000
    H253     H        0.15507    0.42073    0.72903    1.000
    C254     C        0.11807    0.34126    0.74563    1.000
    H254     H        0.12657    0.32913    0.67893    1.000
    C255     C        0.08711    0.31177    0.83553    1.000
    H255     H        0.07057    0.27523    0.83943    1.000
    N97      N        0.10571    0.47503    0.77883    1.000
    N98      N        0.13596    0.47817    0.86853    1.000
    N99      N        0.02544    0.39541    0.94023    1.000
    N100     N        0.07071    0.41993    0.99953    1.000
    N101     N        0.08374    0.34136    0.91483    1.000
    N102     N        0.11222    0.39016    0.87551    1.000
    O17      O        0.15046    0.40610    0.10377    1.000
    Ag18     Ag       0.68573    0.74152    0.08832    1.000
    C256     C        0.78597    0.76766    0.27807    1.000
    C257     C        0.82924    0.78221    0.36617    1.000
    H256     H        0.83333    0.81157    0.41297    1.000
    H257     H        0.86233    0.79307    0.32637    1.000
    C258     C        0.86096    0.75059    0.50707    1.000
    H258     H        0.88993    0.75477    0.45867    1.000
    H259     H        0.87233    0.78317    0.54927    1.000
    C259     C        0.84612    0.70692    0.58957    1.000
    C260     C        0.85690    0.71709    0.70487    1.000
    H260     H        0.87303    0.75167    0.73187    1.000
    C261     C        0.82231    0.65617    0.55287    1.000
    H261     H        0.81443    0.64867    0.47437    1.000
    C262     C        0.84744    0.85697    0.20027    1.000
    H262     H        0.87483    0.86797    0.25357    1.000
    C263     C        0.84631    0.88393    0.10917    1.000
    H263     H        0.87223    0.91737    0.08567    1.000
    C264     C        0.79926    0.85238    0.05737    1.000
    H264     H        0.78773    0.86137    0.99037    1.000
    C265     C        0.72785    0.75397    0.44637    1.000
    H265     H        0.75293    0.76847    0.50517    1.000
    C266     C        0.67601    0.73016    0.45927    1.000
    H266     H        0.65743    0.72457    0.52837    1.000
    C267     C        0.65545    0.71550    0.35047    1.000
    H267     H        0.61963    0.69817    0.33367    1.000
    C268     C        0.80014    0.72435    0.10657    1.000
    H268     H        0.82173    0.75407    0.06237    1.000
    C269     C        0.78473    0.67460    0.07897    1.000
    H269     H        0.79323    0.66247    0.01227    1.000
    C270     C        0.75377    0.64511    0.16887    1.000
    H270     H        0.73723    0.60857    0.17277    1.000
    N103     N        0.77237    0.80837    0.11217    1.000
    N104     N        0.80262    0.81151    0.20187    1.000
    N105     N        0.69210    0.72875    0.27357    1.000
    N106     N        0.73737    0.75327    0.33287    1.000
    N107     N        0.75040    0.67470    0.24817    1.000
    N108     N        0.77888    0.72350    0.20885    1.000
    O18      O        0.81712    0.73944    0.43711    1.000
