data_functionalizedCrystal
_audit_creation_method	'EQeq! by Chris Wilmer'
_symmetry_space_group_name_H-M	'P1'
_symmetry_Int_Tables_number	1
_symmetry_cell_setting	triclinic
loop_
_symmetry_equiv_pos_as_xyz
  x,y,z
_cell_length_a	10.335
_cell_length_b	13.3823
_cell_length_c	22.6623
_cell_angle_alpha	100.903
_cell_angle_beta	91.359
_cell_angle_gamma	104.331
loop_
_atom_site_label
_atom_site_type_symbol
_atom_site_fract_x
_atom_site_fract_y
_atom_site_fract_z
_atom_site_charge
Mof_Cu	Cu	0.04941	0.54785	0.27955	0.781
Mof_Cu	Cu	0.41825	0.06113	0.04813	0.851
Mof_S 	S 	0.66134	0.92606	0.28119	0.003
Mof_S 	S 	0.50045	0.69706	0.24388	-0.053
Mof_S 	S 	0.60407	0.41311	0.32361	-0.05
Mof_S 	S 	0.45973	0.19175	0.25743	-0.049
Mof_S 	S 	0.94106	0.95	0.78102	-0.011
Mof_S 	S 	0.07014	0.18146	0.83989	-0.056
Mof_N 	N 	0.5021	0.0225	0.1179	-0.271
Mof_N 	N 	0.8802	0.5919	0.2694	-0.26
Mof_N 	N 	0.2178	0.5048	0.28994	-0.274
Mof_N 	N 	0.5008	0.052	0.42229	-0.223
Mof_N 	N 	0.3134	0.0975	0.9832	-0.229
Mof_N 	N 	0.9881	0.9855	0.58673	-0.201
Mof_C 	C 	0.4248	0.9484	0.1424	0.129
Mof_H 	H 	0.3359	0.9173	0.1251	-0.024
Mof_C 	C 	0.4664	0.9145	0.1914	-0.177
Mof_H 	H 	0.4073	0.861	0.2071	0.083
Mof_C 	C 	0.5956	0.9591	0.2177	0.139
Mof_C 	C 	0.6778	0.037	0.1924	-0.21
Mof_H 	H 	0.7671	0.0693	0.2088	0.097
Mof_C 	C 	0.6278	0.0665	0.1434	0.103
Mof_H 	H 	0.6841	0.1202	0.1269	-0.024
Mof_C 	C 	0.5261	0.8212	0.2958	-0.128
Mof_H 	H 	0.5435	0.8101	0.3369	0.06
Mof_H 	H 	0.4423	0.8442	0.2953	0.057
Mof_C 	C 	0.6491	0.6607	0.2562	0.092
Mof_C 	C 	0.7316	0.6941	0.3097	-0.146
Mof_H 	H 	0.7101	0.7414	0.3425	0.086
Mof_C 	C 	0.8443	0.6578	0.3144	0.079
Mof_H 	H 	0.899	0.6805	0.3512	-0.027
Mof_C 	C 	0.8006	0.5585	0.2188	0.08
Mof_H 	H 	0.8244	0.5109	0.1868	-0.033
Mof_C 	C 	0.6848	0.5901	0.2106	-0.151
Mof_H 	H 	0.6302	0.5636	0.1739	0.073
Mof_C 	C 	0.29	0.535	0.3433	0.076
Mof_H 	H 	0.258	0.5765	0.3756	-0.045
Mof_C 	C 	0.4073	0.5088	0.3533	-0.157
Mof_H 	H 	0.4555	0.533	0.3917	0.077
Mof_C 	C 	0.4557	0.4469	0.3074	0.094
Mof_C 	C 	0.3827	0.4176	0.2519	-0.155
Mof_H 	H 	0.413	0.3768	0.2186	0.071
Mof_C 	C 	0.2669	0.448	0.2454	0.08
Mof_H 	H 	0.2187	0.4274	0.2069	-0.044
Mof_C 	C 	0.6011	0.3039	0.2624	-0.116
Mof_H 	H 	0.6021	0.329	0.224	0.048
Mof_H 	H 	0.6841	0.2808	0.267	0.048
Mof_C 	C 	0.4862	0.1419	0.32136	0.07
Mof_C 	C 	0.6013	0.173	0.3606	-0.134
Mof_H 	H 	0.6766	0.2257	0.3537	0.069
Mof_C 	C 	0.6042	0.1261	0.4095	0.066
Mof_H 	H 	0.6835	0.1474	0.4357	-0.011
Mof_C 	C 	0.3912	0.0201	0.38323	0.003
Mof_H 	H 	0.3182	0.9661	0.3907	0.031
Mof_C 	C 	0.3806	0.0621	0.33326	-0.113
Mof_H 	H 	0.3017	0.0371	0.3068	0.057
Mof_C 	C 	0.1873	0.0415	0.968	-0.013
Mof_H 	H 	0.1516	0.9851	0.9876	0.039
Mof_C 	C 	0.1063	0.0619	0.9249	-0.1
Mof_H 	H 	0.0165	0.0207	0.9155	0.041
Mof_C 	C 	0.1585	0.1443	0.8952	0.064
Mof_C 	C 	0.2898	0.203	0.9111	-0.131
Mof_H 	H 	0.3286	0.2596	0.8921	0.073
Mof_C 	C 	0.3628	0.1775	0.9553	0.064
Mof_H 	H 	0.4521	0.2184	0.9665	-0.011
Mof_C 	C 	0.9208	0.0741	0.822	-0.129
Mof_H 	H 	0.8555	0.0964	0.7982	0.053
Mof_H 	H 	0.8811	0.0622	0.8602	0.065
Mof_C 	C 	0.967	0.9719	0.7078	0.127
Mof_C 	C 	0.9718	0.0654	0.6891	-0.189
Mof_H 	H 	0.9679	0.1265	0.7175	0.086
Mof_C 	C 	0.9823	0.0688	0.6289	0.07
Mof_H 	H 	0.9855	0.1335	0.6168	-0.012
Mof_C 	C 	0.9879	0.8968	0.6058	0.106
Mof_H 	H 	0.9954	0.8375	0.5768	-0.013
Mof_C 	C 	0.9777	0.8864	0.6645	-0.161
Mof_H 	H 	0.978	0.8214	0.6755	0.079
Mof_C 	C 	0.7166	0.8996	0.4754	0.462
Mof_H 	H 	0.6456	0.8381	0.4625	-0.134
Mof_C 	C 	0.7092	0.1645	0.9987	0.412
Mof_H 	H 	0.7132	0.2308	0.0237	-0.108
Mof_O 	O 	0.6851	0.9841	0.49057	-0.447
Mof_O 	O 	0.8321	0.8879	0.47559	-0.423
Mof_O 	O 	0.6081	0.0899	0.00134	-0.507
Mof_O 	O 	0.803	0.1592	0.96656	-0.319
Mof_Cu	Cu	0.95059	0.45215	0.72045	0.802
Mof_Cu	Cu	0.58175	0.93887	0.95187	0.872
Mof_S 	S 	0.33866	0.07394	0.71881	-0.033
Mof_S 	S 	0.49955	0.30294	0.75612	-0.05
Mof_S 	S 	0.39593	0.58689	0.67639	-0.058
Mof_S 	S 	0.54027	0.80825	0.74257	-0.041
Mof_S 	S 	0.05894	0.05	0.21898	-0.088
Mof_S 	S 	0.92986	0.81854	0.16011	-0.002
Mof_N 	N 	0.4979	0.9775	0.8821	-0.207
Mof_N 	N 	0.1198	0.4081	0.7306	-0.275
Mof_N 	N 	0.7822	0.4952	0.71006	-0.269
Mof_N 	N 	0.4992	0.948	0.57771	-0.235
Mof_N 	N 	0.6866	0.9025	0.0168	-0.247
Mof_N 	N 	0.0119	0.0145	0.41327	-0.248
Mof_C 	C 	0.5752	0.0516	0.8576	0.009
Mof_H 	H 	0.6641	0.0827	0.8749	0.008
Mof_C 	C 	0.5336	0.0855	0.8086	-0.096
Mof_H 	H 	0.5927	0.139	0.7929	0.055
Mof_C 	C 	0.4044	0.0409	0.7823	0.021
Mof_C 	C 	0.3222	0.963	0.8076	-0.067
Mof_H 	H 	0.2329	0.9307	0.7912	0.054
Mof_C 	C 	0.3722	0.9335	0.8566	0.053
Mof_H 	H 	0.3159	0.8798	0.8731	-0.004
Mof_C 	C 	0.4739	0.1788	0.7042	-0.117
Mof_H 	H 	0.4565	0.1899	0.6631	0.051
Mof_H 	H 	0.5577	0.1558	0.7047	0.047
Mof_C 	C 	0.3509	0.3393	0.7438	0.092
Mof_C 	C 	0.2684	0.3059	0.6903	-0.152
Mof_H 	H 	0.2899	0.2586	0.6575	0.081
Mof_C 	C 	0.1557	0.3422	0.6856	0.075
Mof_H 	H 	0.101	0.3195	0.6488	-0.043
Mof_C 	C 	0.1994	0.4415	0.7812	0.078
Mof_H 	H 	0.1756	0.4891	0.8132	-0.042
Mof_C 	C 	0.3152	0.4099	0.7894	-0.153
Mof_H 	H 	0.3698	0.4364	0.8261	0.073
Mof_C 	C 	0.71	0.465	0.6567	0.078
Mof_H 	H 	0.742	0.4235	0.6244	-0.04
Mof_C 	C 	0.5927	0.4912	0.6467	-0.157
Mof_H 	H 	0.5445	0.467	0.6083	0.077
Mof_C 	C 	0.5443	0.5531	0.6926	0.096
Mof_C 	C 	0.6173	0.5824	0.7481	-0.154
Mof_H 	H 	0.587	0.6232	0.7814	0.074
Mof_C 	C 	0.7331	0.552	0.7546	0.081
Mof_H 	H 	0.7813	0.5726	0.7931	-0.035
Mof_C 	C 	0.3989	0.6961	0.7376	-0.114
Mof_H 	H 	0.3979	0.671	0.776	0.047
Mof_H 	H 	0.3159	0.7192	0.733	0.043
Mof_C 	C 	0.5138	0.8581	0.67864	0.106
Mof_C 	C 	0.3987	0.827	0.6394	-0.155
Mof_H 	H 	0.3234	0.7743	0.6463	0.072
Mof_C 	C 	0.3958	0.8739	0.5905	0.088
Mof_H 	H 	0.3165	0.8526	0.5643	-0.015
Mof_C 	C 	0.6088	0.9799	0.61677	0.156
Mof_H 	H 	0.6818	0.0339	0.6093	-0.065
Mof_C 	C 	0.6194	0.9379	0.66674	-0.184
Mof_H 	H 	0.6983	0.9629	0.6932	0.102
Mof_C 	C 	0.8127	0.9585	0.032	0.145
Mof_H 	H 	0.8484	0.0149	0.0124	-0.046
Mof_C 	C 	0.8937	0.9381	0.0751	-0.165
Mof_H 	H 	0.9835	0.9793	0.0845	0.105
Mof_C 	C 	0.8415	0.8557	0.1048	0.103
Mof_C 	C 	0.7102	0.797	0.0889	-0.152
Mof_H 	H 	0.6714	0.7404	0.1079	0.081
Mof_C 	C 	0.6372	0.8225	0.0447	0.088
Mof_H 	H 	0.5479	0.7816	0.0335	-0.018
Mof_C 	C 	0.0792	0.9259	0.178	-0.121
Mof_H 	H 	0.1445	0.9036	0.2018	0.059
Mof_H 	H 	0.1189	0.9378	0.1398	0.062
Mof_C 	C 	0.033	0.0281	0.2922	0.045
Mof_C 	C 	0.0282	0.9346	0.3109	-0.112
Mof_H 	H 	0.0321	0.8735	0.2825	0.055
Mof_C 	C 	0.0177	0.9312	0.3711	0.099
Mof_H 	H 	0.0145	0.8665	0.3832	-0.031
Mof_C 	C 	0.0121	0.1032	0.3942	0.073
Mof_H 	H 	0.0046	0.1625	0.4232	-0.021
Mof_C 	C 	0.0223	0.1136	0.3355	-0.141
Mof_H 	H 	0.022	0.1786	0.3245	0.06
Mof_C 	C 	0.2834	0.1004	0.5246	0.477
Mof_H 	H 	0.3544	0.1619	0.5375	-0.143
Mof_C 	C 	0.2908	0.8355	0.0013	0.415
Mof_H 	H 	0.2868	0.7692	0.9763	-0.114
Mof_O 	O 	0.3149	0.0159	0.50943	-0.494
Mof_O 	O 	0.1679	0.1121	0.52441	-0.46
Mof_O 	O 	0.3919	0.9101	0.99866	-0.485
Mof_O 	O 	0.197	0.8408	0.03344	-0.327
Mof_Cu	Cu	0.5	3.82298e-17	0.5	0.872
Mof_Cu	Cu	-9.55745e-18	3.82298e-17	0.5	0.871
_end
