data_functionalizedCrystal
_audit_creation_method	'EQeq! by Chris Wilmer'
_symmetry_space_group_name_H-M	'P1'
_symmetry_Int_Tables_number	1
_symmetry_cell_setting	triclinic
loop_
_symmetry_equiv_pos_as_xyz
  x,y,z
_cell_length_a	7.2259
_cell_length_b	15.142
_cell_length_c	18.6983
_cell_angle_alpha	90
_cell_angle_beta	90
_cell_angle_gamma	93.144
loop_
_atom_site_label
_atom_site_type_symbol
_atom_site_fract_x
_atom_site_fract_y
_atom_site_fract_z
_atom_site_charge
Mof_Zn	Zn	0.36247	0.98077	0.92033	1.164
Mof_Zn	Zn	0.36247	0.48077	0.57967	1.164
Mof_Zn	Zn	0.63753	0.51923	0.42033	1.164
Mof_Zn	Zn	0.63753	0.01923	0.07967	1.164
Mof_H 	H 	0.3031	0.595	0.3347	-0.012
Mof_H 	H 	0.9403	0.9695	0.1744	-0.03
Mof_H 	H 	0.3031	0.095	0.1653	-0.012
Mof_H 	H 	0.9874	0.1354	0.7439	0.084
Mof_H 	H 	0.9874	0.6354	0.7561	0.087
Mof_H 	H 	0.0597	0.0305	0.8256	-0.03
Mof_H 	H 	0.6969	0.405	0.6653	-0.012
Mof_H 	H 	0.0338	0.5909	0.5187	-0.03
Mof_H 	H 	0.9662	0.4091	0.4813	-0.03
Mof_H 	H 	0.0126	0.3646	0.2439	0.087
Mof_H 	H 	0.0597	0.5305	0.6744	-0.032
Mof_H 	H 	0.5689	0.6246	0.6658	-0.04
Mof_H 	H 	0.4311	0.8754	0.1658	-0.039
Mof_H 	H 	0.5689	0.1246	0.8342	-0.039
Mof_H 	H 	0.9662	0.9091	0.0187	-0.026
Mof_H 	H 	0.4893	0.2706	0.251	0.086
Mof_H 	H 	0.9403	0.4695	0.3256	-0.032
Mof_H 	H 	0.6969	0.905	0.8347	-0.012
Mof_H 	H 	0.0126	0.8646	0.2561	0.084
Mof_H 	H 	0.4893	0.7706	0.249	0.086
Mof_H 	H 	0.4311	0.3754	0.3342	-0.04
Mof_H 	H 	0.5107	0.2294	0.751	0.086
Mof_H 	H 	0.5107	0.7294	0.749	0.086
Mof_H 	H 	0.0338	0.0909	0.9813	-0.026
Mof_C 	C 	0.5846	0.31	0.266	-0.159
Mof_C 	C 	0.24	0.1953	0.7383	0.072
Mof_C 	C 	0.8779	0.4171	0.51654	0.048
Mof_C 	C 	0.8037	0.236	0.18622	0.078
Mof_C 	C 	0.1521	0.5719	0.689	0.087
Mof_C 	C 	0.8037	0.736	0.31378	0.079
Mof_C 	C 	0.0439	0.8459	0.87808	0.128
Mof_C 	C 	0.8479	0.9281	0.189	0.084
Mof_C 	C 	0.2702	0.085	0.1178	0.062
Mof_C 	C 	0.8779	0.9171	0.98346	0.043
Mof_C 	C 	0.8919	0.8897	0.91325	-0.111
Mof_C 	C 	0.1963	0.764	0.81378	0.078
Mof_C 	C 	0.4154	0.69	0.734	-0.159
Mof_C 	C 	0.76	0.8047	0.2617	0.072
Mof_C 	C 	0.4496	0.1265	0.8158	0.09
Mof_C 	C 	0.1963	0.264	0.68622	0.079
Mof_C 	C 	0.1081	0.1103	0.08675	-0.111
Mof_C 	C 	0.7298	0.415	0.6178	0.064
Mof_C 	C 	0.1521	0.0719	0.811	0.084
Mof_C 	C 	0.1221	0.0829	0.01654	0.043
Mof_C 	C 	0.8924	0.3654	0.2615	-0.156
Mof_C 	C 	0.7298	0.915	0.8822	0.062
Mof_C 	C 	0.4154	0.19	0.766	-0.157
Mof_C 	C 	0.24	0.6953	0.7617	0.075
Mof_C 	C 	0.9561	0.1541	0.12192	0.128
Mof_C 	C 	0.9561	0.6541	0.37808	0.131
Mof_C 	C 	0.8924	0.8654	0.2385	-0.151
Mof_C 	C 	0.8479	0.4281	0.311	0.087
Mof_C 	C 	0.8919	0.3897	0.58675	-0.115
Mof_C 	C 	0.76	0.3047	0.2383	0.075
Mof_C 	C 	0.5504	0.8735	0.1842	0.09
Mof_C 	C 	0.1081	0.6103	0.41325	-0.115
Mof_C 	C 	0.5846	0.81	0.234	-0.157
Mof_C 	C 	0.0439	0.3459	0.62192	0.131
Mof_C 	C 	0.2702	0.585	0.3822	0.064
Mof_C 	C 	0.4496	0.6265	0.6842	0.091
Mof_C 	C 	0.1076	0.1346	0.7615	-0.151
Mof_C 	C 	0.1221	0.5829	0.48346	0.048
Mof_C 	C 	0.5504	0.3735	0.3158	0.091
Mof_C 	C 	0.1076	0.6346	0.7385	-0.156
Mof_N 	N 	0.6275	0.9558	0.92961	-0.274
Mof_N 	N 	0.6774	0.1818	0.15661	-0.121
Mof_N 	N 	0.7768	0.62789	0.38536	-0.265
Mof_N 	N 	0.7768	0.12789	0.11464	-0.265
Mof_N 	N 	0.9814	0.7218	0.33319	-0.14
Mof_N 	N 	0.3226	0.8182	0.84339	-0.121
Mof_N 	N 	0.7197	0.95656	0.99328	-0.274
Mof_N 	N 	0.2803	0.54344	0.49328	-0.274
Mof_N 	N 	0.2232	0.87211	0.88536	-0.265
Mof_N 	N 	0.6796	0.9325	0.16093	-0.291
Mof_N 	N 	0.3226	0.3182	0.65661	-0.121
Mof_N 	N 	0.3204	0.5675	0.66093	-0.293
Mof_N 	N 	0.3725	0.5442	0.42961	-0.274
Mof_N 	N 	0.2232	0.37211	0.61464	-0.265
Mof_N 	N 	0.3725	0.0442	0.07039	-0.274
Mof_N 	N 	0.0186	0.7782	0.83319	-0.141
Mof_N 	N 	0.6774	0.6818	0.34339	-0.121
Mof_N 	N 	0.3204	0.0675	0.83907	-0.291
Mof_N 	N 	0.6275	0.4558	0.57039	-0.274
Mof_N 	N 	0.6796	0.4325	0.33907	-0.293
Mof_N 	N 	0.2803	0.04344	0.00672	-0.274
Mof_N 	N 	0.7197	0.45656	0.50672	-0.274
Mof_N 	N 	0.9814	0.2218	0.16681	-0.141
Mof_N 	N 	0.0186	0.2782	0.66681	-0.14
_end
