# CIF file generated by openbabel 3.1.0, see https://openbabel.org
data_I
_chemical_name_common 'image0'
_cell_length_a 12.5175
_cell_length_b 17.86
_cell_length_c 12.3435
_cell_angle_alpha 90
_cell_angle_beta 112.601
_cell_angle_gamma 90
_space_group_name_H-M_alt 'P 1'
_space_group_name_Hall 'P 1'
loop_
    _symmetry_equiv_pos_as_xyz
    x,y,z
loop_
    _atom_site_label
    _atom_site_type_symbol
    _atom_site_fract_x
    _atom_site_fract_y
    _atom_site_fract_z
    _atom_site_occupancy
    O1       O        0.99822    0.07750    0.37195    1.000
    O2       O        0.14158    0.04259    0.31590    1.000
    C1       C        0.05550    0.08329    0.30790    1.000
    C2       C        0.01610    0.14214    0.21280    1.000
    C3       C        0.91840    0.18521    0.19730    1.000
    H1       H        0.87880    0.17870    0.24870    1.000
    C4       C        0.87820    0.23790    0.10680    1.000
    C5       C        0.93860    0.24859    0.03320    1.000
    H2       H        0.91220    0.28450    0.97190    1.000
    C6       C        0.03770    0.20640    0.05020    1.000
    C7       C        0.07600    0.15366    0.13970    1.000
    H3       H        0.14360    0.12520    0.15120    1.000
    C8       C        0.77160    0.28265    0.09070    1.000
    O3       O        0.73383    0.32823    0.00439    1.000
    O4       O        0.72582    0.27172    0.16384    1.000
    C9       C        0.10060    0.21637    0.96920    1.000
    H4       H        0.08880    0.26750    0.93580    1.000
    H5       H        0.18460    0.20770    0.01140    1.000
    O5       O        0.05110    0.16110    0.87773    1.000
    C10      C        0.10180    0.15274    0.79820    1.000
    C11      C        0.05060    0.09924    0.71210    1.000
    H6       H        0.98430    0.07350    0.71250    1.000
    N1       N        0.09035    0.08235    0.62886    1.000
    C12      C        0.18440    0.11884    0.62930    1.000
    H7       H        0.21410    0.10660    0.57130    1.000
    C13      C        0.23970    0.17380    0.71150    1.000
    C14      C        0.19660    0.19260    0.79730    1.000
    H8       H        0.23090    0.23120    0.85270    1.000
    C15      C        0.34670    0.21287    0.71080    1.000
    O6       O        0.39737    0.18194    0.65209    1.000
    O7       O        0.37613    0.27250    0.76881    1.000
    Co1      Co       0.56249    0.29553    0.15740    1.000
    O8       O        0.00178    0.57750    0.12805    1.000
    O9       O        0.85842    0.54259    0.18410    1.000
    C16      C        0.94450    0.58329    0.19210    1.000
    C17      C        0.98390    0.64214    0.28720    1.000
    C18      C        0.08160    0.68521    0.30270    1.000
    H9       H        0.12120    0.67870    0.25130    1.000
    C19      C        0.12180    0.73790    0.39320    1.000
    C20      C        0.06140    0.74859    0.46680    1.000
    H10      H        0.08780    0.78450    0.52810    1.000
    C21      C        0.96230    0.70640    0.44980    1.000
    C22      C        0.92400    0.65366    0.36030    1.000
    H11      H        0.85640    0.62520    0.34880    1.000
    C23      C        0.22840    0.78265    0.40930    1.000
    O10      O        0.26617    0.82823    0.49561    1.000
    O11      O        0.27418    0.77172    0.33616    1.000
    C24      C        0.89940    0.71637    0.53080    1.000
    H12      H        0.91120    0.76750    0.56420    1.000
    H13      H        0.81540    0.70770    0.48860    1.000
    O12      O        0.94890    0.66110    0.62227    1.000
    C25      C        0.89820    0.65274    0.70180    1.000
    C26      C        0.94940    0.59924    0.78790    1.000
    H14      H        0.01570    0.57350    0.78750    1.000
    N2       N        0.90965    0.58235    0.87114    1.000
    C27      C        0.81560    0.61884    0.87070    1.000
    H15      H        0.78590    0.60660    0.92870    1.000
    C28      C        0.76030    0.67380    0.78850    1.000
    C29      C        0.80340    0.69260    0.70270    1.000
    H16      H        0.76910    0.73120    0.64730    1.000
    C30      C        0.65330    0.71287    0.78920    1.000
    O13      O        0.60263    0.68194    0.84791    1.000
    O14      O        0.62387    0.77250    0.73119    1.000
    Co2      Co       0.43751    0.79553    0.34260    1.000
    O15      O        0.00178    0.92250    0.62805    1.000
    O16      O        0.85842    0.95741    0.68410    1.000
    C31      C        0.94450    0.91671    0.69210    1.000
    C32      C        0.98390    0.85786    0.78720    1.000
    C33      C        0.08160    0.81479    0.80270    1.000
    H17      H        0.12120    0.82130    0.75130    1.000
    C34      C        0.12180    0.76210    0.89320    1.000
    C35      C        0.06140    0.75141    0.96680    1.000
    H18      H        0.08780    0.71550    0.02810    1.000
    C36      C        0.96230    0.79360    0.94980    1.000
    C37      C        0.92400    0.84634    0.86030    1.000
    H19      H        0.85640    0.87480    0.84880    1.000
    C38      C        0.22840    0.71735    0.90930    1.000
    O17      O        0.26617    0.67177    0.99561    1.000
    O18      O        0.27418    0.72828    0.83616    1.000
    C39      C        0.89940    0.78363    0.03080    1.000
    H20      H        0.91120    0.73250    0.06420    1.000
    H21      H        0.81540    0.79230    0.98860    1.000
    O19      O        0.94890    0.83890    0.12227    1.000
    C40      C        0.89820    0.84726    0.20180    1.000
    C41      C        0.94940    0.90076    0.28790    1.000
    H22      H        0.01570    0.92650    0.28750    1.000
    N3       N        0.90965    0.91765    0.37114    1.000
    C42      C        0.81560    0.88116    0.37070    1.000
    H23      H        0.78590    0.89340    0.42870    1.000
    C43      C        0.76030    0.82620    0.28850    1.000
    C44      C        0.80340    0.80740    0.20270    1.000
    H24      H        0.76910    0.76880    0.14730    1.000
    C45      C        0.65330    0.78713    0.28920    1.000
    O20      O        0.60263    0.81806    0.34791    1.000
    O21      O        0.62387    0.72750    0.23119    1.000
    Co3      Co       0.43751    0.70447    0.84260    1.000
    O22      O        0.99822    0.42250    0.87195    1.000
    O23      O        0.14158    0.45741    0.81590    1.000
    C46      C        0.05550    0.41671    0.80790    1.000
    C47      C        0.01610    0.35786    0.71280    1.000
    C48      C        0.91840    0.31479    0.69730    1.000
    H25      H        0.87880    0.32130    0.74870    1.000
    C49      C        0.87820    0.26210    0.60680    1.000
    C50      C        0.93860    0.25141    0.53320    1.000
    H26      H        0.91220    0.21550    0.47190    1.000
    C51      C        0.03770    0.29360    0.55020    1.000
    C52      C        0.07600    0.34634    0.63970    1.000
    H27      H        0.14360    0.37480    0.65120    1.000
    C53      C        0.77160    0.21735    0.59070    1.000
    O24      O        0.73383    0.17177    0.50439    1.000
    O25      O        0.72582    0.22828    0.66384    1.000
    C54      C        0.10060    0.28363    0.46920    1.000
    H28      H        0.08880    0.23250    0.43580    1.000
    H29      H        0.18460    0.29230    0.51140    1.000
    O26      O        0.05110    0.33890    0.37773    1.000
    C55      C        0.10180    0.34726    0.29820    1.000
    C56      C        0.05060    0.40076    0.21210    1.000
    H30      H        0.98430    0.42650    0.21250    1.000
    N4       N        0.09035    0.41765    0.12886    1.000
    C57      C        0.18440    0.38116    0.12930    1.000
    H31      H        0.21410    0.39340    0.07130    1.000
    C58      C        0.23970    0.32620    0.21150    1.000
    C59      C        0.19660    0.30740    0.29730    1.000
    H32      H        0.23090    0.26880    0.35270    1.000
    C60      C        0.34670    0.28713    0.21080    1.000
    O27      O        0.39737    0.31806    0.15209    1.000
    O28      O        0.37613    0.22750    0.26881    1.000
    Co4      Co       0.56249    0.20447    0.65740    1.000
    Co5      Co       0.00000    0.00000    0.50000    1.000
    Co6      Co       0.00000    0.50000    0.00000    1.000
