data_functionalizedCrystal
_audit_creation_method	'EQeq! by Chris Wilmer'
_symmetry_space_group_name_H-M	'P1'
_symmetry_Int_Tables_number	1
_symmetry_cell_setting	triclinic
loop_
_symmetry_equiv_pos_as_xyz
  x,y,z
_cell_length_a	12.726
_cell_length_b	12.726
_cell_length_c	30.939
_cell_angle_alpha	90
_cell_angle_beta	90
_cell_angle_gamma	120
loop_
_atom_site_label
_atom_site_type_symbol
_atom_site_fract_x
_atom_site_fract_y
_atom_site_fract_z
_atom_site_charge
Mof_Al	Al	0.7533	0.75722	0.2954	8.839
Mof_Al	Al	0.57616	0.9023	0.21646	8.012
Mof_P 	P 	0.57783	0.90432	0.11444	2.277
Mof_P 	P 	0.75682	0.00127	0.2914	2.634
Mof_O 	O 	0.61376	0.9393	0.16168	-2.517
Mof_O 	O 	0.53414	0.75325	0.22506	-2.783
Mof_O 	O 	0.79283	0.90717	0.29395	-2.968
Mof_O 	O 	0.46125	0.92799	0.23103	-2.617
Mof_O 	O 	0.70143	0.99588	0.2472	-2.599
Mof_O 	O 	0.8776	0.74202	0.29679	-2.827
Mof_O 	O 	0.66441	0.68355	0.33993	-2.833
Mof_O 	O 	0.6759	0.68627	0.24778	-2.612
Mof_Al	Al	0.41997	0.09055	0.62873	8.828
Mof_Al	Al	0.24283	0.23563	0.54979	8.017
Mof_P 	P 	0.2445	0.23765	0.44777	2.285
Mof_P 	P 	0.42349	0.3346	0.62473	2.611
Mof_O 	O 	0.28043	0.27263	0.49501	-2.518
Mof_O 	O 	0.20081	0.08658	0.55839	-2.787
Mof_O 	O 	0.4595	0.2405	0.62728	-2.959
Mof_O 	O 	0.12792	0.26132	0.56436	-2.618
Mof_O 	O 	0.3681	0.32921	0.58053	-2.591
Mof_O 	O 	0.54427	0.07535	0.63012	-2.825
Mof_O 	O 	0.33108	0.01688	0.67326	-2.841
Mof_O 	O 	0.34257	0.0196	0.58111	-2.615
Mof_Al	Al	0.08663	0.42389	0.96207	8.812
Mof_Al	Al	0.90949	0.56897	0.88313	7.974
Mof_P 	P 	0.91116	0.57099	0.78111	2.281
Mof_P 	P 	0.09015	0.66794	0.95807	2.607
Mof_O 	O 	0.94709	0.60597	0.82835	-2.51
Mof_O 	O 	0.86747	0.41992	0.89173	-2.774
Mof_O 	O 	0.12616	0.57384	0.96062	-2.953
Mof_O 	O 	0.79458	0.59466	0.8977	-2.609
Mof_O 	O 	0.03476	0.66255	0.91387	-2.575
Mof_O 	O 	0.21093	0.40869	0.96346	-2.821
Mof_O 	O 	0.99774	0.35022	0.0066	-2.827
Mof_O 	O 	0.00923	0.35294	0.91445	-2.6
Mof_Al	Al	0.24278	0.99608	0.2954	8.781
Mof_Al	Al	0.0977	0.67386	0.21646	8.007
Mof_P 	P 	0.09568	0.67351	0.11444	2.273
Mof_P 	P 	0.99873	0.75555	0.2914	2.633
Mof_O 	O 	0.0607	0.67446	0.16168	-2.517
Mof_O 	O 	0.24675	0.78089	0.22506	-2.78
Mof_O 	O 	0.09283	0.88566	0.29395	-2.959
Mof_O 	O 	0.07201	0.53326	0.23103	-2.616
Mof_O 	O 	0.00412	0.70555	0.2472	-2.599
Mof_O 	O 	0.25798	0.13558	0.29679	-2.807
Mof_O 	O 	0.31645	0.98086	0.33993	-2.824
Mof_O 	O 	0.31373	0.98963	0.24778	-2.605
Mof_Al	Al	0.90945	0.32941	0.62873	8.827
Mof_Al	Al	0.76437	0.00719	0.54979	8.003
Mof_P 	P 	0.76235	0.00684	0.44777	2.293
Mof_P 	P 	0.6654	0.08888	0.62473	2.608
Mof_O 	O 	0.72737	0.00779	0.49501	-2.515
Mof_O 	O 	0.91342	0.11422	0.55839	-2.784
Mof_O 	O 	0.7595	0.21899	0.62728	-2.958
Mof_O 	O 	0.73868	0.86659	0.56436	-2.613
Mof_O 	O 	0.67079	0.03888	0.58053	-2.588
Mof_O 	O 	0.92465	0.46891	0.63012	-2.824
Mof_O 	O 	0.98312	0.31419	0.67326	-2.84
Mof_O 	O 	0.9804	0.32296	0.58111	-2.614
Mof_Al	Al	0.57611	0.66275	0.96207	8.817
Mof_Al	Al	0.43103	0.34053	0.88313	8.008
Mof_P 	P 	0.42901	0.34018	0.78111	2.285
Mof_P 	P 	0.33206	0.42222	0.95807	2.609
Mof_O 	O 	0.39403	0.34113	0.82835	-2.515
Mof_O 	O 	0.58008	0.44756	0.89173	-2.781
Mof_O 	O 	0.42616	0.55233	0.96062	-2.956
Mof_O 	O 	0.40534	0.19993	0.8977	-2.615
Mof_O 	O 	0.33745	0.37222	0.91387	-2.588
Mof_O 	O 	0.59131	0.80225	0.96346	-2.822
Mof_O 	O 	0.64978	0.64753	0.0066	-2.83
Mof_O 	O 	0.64706	0.6563	0.91445	-2.609
Mof_Al	Al	0.00392	0.2467	0.2954	8.79
Mof_Al	Al	0.32614	0.42384	0.21646	8.009
Mof_P 	P 	0.32649	0.42217	0.11444	2.283
Mof_P 	P 	0.24445	0.24318	0.2914	2.605
Mof_O 	O 	0.32554	0.38624	0.16168	-2.515
Mof_O 	O 	0.21911	0.46586	0.22506	-2.781
Mof_O 	O 	0.11434	0.20717	0.29395	-2.949
Mof_O 	O 	0.46674	0.53875	0.23103	-2.615
Mof_O 	O 	0.29445	0.29857	0.2472	-2.586
Mof_O 	O 	0.86442	0.1224	0.29679	-2.809
Mof_O 	O 	0.01914	0.33559	0.33993	-2.824
Mof_O 	O 	0.01037	0.3241	0.24778	-2.605
Mof_Al	Al	0.67059	0.58003	0.62873	8.821
Mof_Al	Al	0.99281	0.75717	0.54979	8.006
Mof_P 	P 	0.99316	0.7555	0.44777	2.293
Mof_P 	P 	0.91112	0.57651	0.62473	2.608
Mof_O 	O 	0.99221	0.71957	0.49501	-2.515
Mof_O 	O 	0.88578	0.79919	0.55839	-2.781
Mof_O 	O 	0.78101	0.5405	0.62728	-2.956
Mof_O 	O 	0.13341	0.87208	0.56436	-2.612
Mof_O 	O 	0.96112	0.6319	0.58053	-2.588
Mof_O 	O 	0.53109	0.45573	0.63012	-2.823
Mof_O 	O 	0.68581	0.66892	0.67326	-2.828
Mof_O 	O 	0.67704	0.65743	0.58111	-2.609
Mof_Al	Al	0.33725	0.91337	0.96207	8.822
Mof_Al	Al	0.65947	0.09051	0.88313	7.969
Mof_P 	P 	0.65982	0.08884	0.78111	2.281
Mof_P 	P 	0.57778	0.90985	0.95807	2.608
Mof_O 	O 	0.65887	0.05291	0.82835	-2.511
Mof_O 	O 	0.55244	0.13253	0.89173	-2.774
Mof_O 	O 	0.44767	0.87384	0.96062	-2.956
Mof_O 	O 	0.80007	0.20542	0.8977	-2.609
Mof_O 	O 	0.62778	0.96524	0.91387	-2.575
Mof_O 	O 	0.19775	0.78907	0.96346	-2.822
Mof_O 	O 	0.35247	0.00226	0.0066	-2.831
Mof_O 	O 	0.3437	0.99077	0.91445	-2.602
Mof_Al	Al	0.2467	0.24278	0.7046	8.838
Mof_Al	Al	0.42384	0.0977	0.78354	8.011
Mof_P 	P 	0.42217	0.09568	0.88556	2.276
Mof_P 	P 	0.24318	0.99873	0.7086	2.633
Mof_O 	O 	0.38624	0.0607	0.83832	-2.517
Mof_O 	O 	0.46586	0.24675	0.77494	-2.783
Mof_O 	O 	0.20717	0.09283	0.70605	-2.968
Mof_O 	O 	0.53875	0.07201	0.76897	-2.617
Mof_O 	O 	0.29857	0.00412	0.7528	-2.599
Mof_O 	O 	0.1224	0.25798	0.70321	-2.827
Mof_O 	O 	0.33559	0.31645	0.66007	-2.833
Mof_O 	O 	0.3241	0.31373	0.75222	-2.612
Mof_Al	Al	0.91337	0.57611	0.03793	8.812
Mof_Al	Al	0.09051	0.43103	0.11687	7.974
Mof_P 	P 	0.08884	0.42901	0.21889	2.281
Mof_P 	P 	0.90985	0.33206	0.04193	2.607
Mof_O 	O 	0.05291	0.39403	0.17165	-2.51
Mof_O 	O 	0.13253	0.58008	0.10827	-2.774
Mof_O 	O 	0.87384	0.42616	0.03938	-2.953
Mof_O 	O 	0.20542	0.40534	0.1023	-2.609
Mof_O 	O 	0.96524	0.33745	0.08613	-2.575
Mof_O 	O 	0.78907	0.59131	0.03654	-2.821
Mof_O 	O 	0.00226	0.64978	0.9934	-2.827
Mof_O 	O 	0.99077	0.64706	0.08555	-2.6
Mof_Al	Al	0.58003	0.90945	0.37127	8.828
Mof_Al	Al	0.75717	0.76437	0.45021	8.017
Mof_P 	P 	0.7555	0.76235	0.55223	2.285
Mof_P 	P 	0.57651	0.6654	0.37527	2.611
Mof_O 	O 	0.71957	0.72737	0.50499	-2.518
Mof_O 	O 	0.79919	0.91342	0.44161	-2.787
Mof_O 	O 	0.5405	0.7595	0.37272	-2.959
Mof_O 	O 	0.87208	0.73868	0.43564	-2.618
Mof_O 	O 	0.6319	0.67079	0.41947	-2.591
Mof_O 	O 	0.45573	0.92465	0.36988	-2.825
Mof_O 	O 	0.66892	0.98312	0.32674	-2.841
Mof_O 	O 	0.65743	0.9804	0.41889	-2.615
Mof_Al	Al	0.75722	0.00392	0.7046	8.781
Mof_Al	Al	0.9023	0.32614	0.78354	8.007
Mof_P 	P 	0.90432	0.32649	0.88556	2.273
Mof_P 	P 	0.00127	0.24445	0.7086	2.633
Mof_O 	O 	0.9393	0.32554	0.83832	-2.517
Mof_O 	O 	0.75325	0.21911	0.77494	-2.78
Mof_O 	O 	0.90717	0.11434	0.70605	-2.959
Mof_O 	O 	0.92799	0.46674	0.76897	-2.616
Mof_O 	O 	0.99588	0.29445	0.7528	-2.599
Mof_O 	O 	0.74202	0.86442	0.70321	-2.807
Mof_O 	O 	0.68355	0.01914	0.66007	-2.824
Mof_O 	O 	0.68627	0.01037	0.75222	-2.605
Mof_Al	Al	0.42389	0.33725	0.03793	8.817
Mof_Al	Al	0.56897	0.65947	0.11687	8.008
Mof_P 	P 	0.57099	0.65982	0.21889	2.285
Mof_P 	P 	0.66794	0.57778	0.04193	2.609
Mof_O 	O 	0.60597	0.65887	0.17165	-2.515
Mof_O 	O 	0.41992	0.55244	0.10827	-2.781
Mof_O 	O 	0.57384	0.44767	0.03938	-2.956
Mof_O 	O 	0.59466	0.80007	0.1023	-2.615
Mof_O 	O 	0.66255	0.62778	0.08613	-2.588
Mof_O 	O 	0.40869	0.19775	0.03654	-2.822
Mof_O 	O 	0.35022	0.35247	0.9934	-2.83
Mof_O 	O 	0.35294	0.3437	0.08555	-2.609
Mof_Al	Al	0.09055	0.67059	0.37127	8.827
Mof_Al	Al	0.23563	0.99281	0.45021	8.003
Mof_P 	P 	0.23765	0.99316	0.55223	2.293
Mof_P 	P 	0.3346	0.91112	0.37527	2.608
Mof_O 	O 	0.27263	0.99221	0.50499	-2.515
Mof_O 	O 	0.08658	0.88578	0.44161	-2.784
Mof_O 	O 	0.2405	0.78101	0.37272	-2.958
Mof_O 	O 	0.26132	0.13341	0.43564	-2.613
Mof_O 	O 	0.32921	0.96112	0.41947	-2.588
Mof_O 	O 	0.07535	0.53109	0.36988	-2.824
Mof_O 	O 	0.01688	0.68581	0.32674	-2.84
Mof_O 	O 	0.0196	0.67704	0.41889	-2.614
Mof_Al	Al	0.99608	0.7533	0.7046	8.79
Mof_Al	Al	0.67386	0.57616	0.78354	8.009
Mof_P 	P 	0.67351	0.57783	0.88556	2.283
Mof_P 	P 	0.75555	0.75682	0.7086	2.605
Mof_O 	O 	0.67446	0.61376	0.83832	-2.515
Mof_O 	O 	0.78089	0.53414	0.77494	-2.781
Mof_O 	O 	0.88566	0.79283	0.70605	-2.949
Mof_O 	O 	0.53326	0.46125	0.76897	-2.615
Mof_O 	O 	0.70555	0.70143	0.7528	-2.586
Mof_O 	O 	0.13558	0.8776	0.70321	-2.809
Mof_O 	O 	0.98086	0.66441	0.66007	-2.824
Mof_O 	O 	0.98963	0.6759	0.75222	-2.605
Mof_Al	Al	0.66275	0.08663	0.03793	8.822
Mof_Al	Al	0.34053	0.90949	0.11687	7.969
Mof_P 	P 	0.34018	0.91116	0.21889	2.281
Mof_P 	P 	0.42222	0.09015	0.04193	2.608
Mof_O 	O 	0.34113	0.94709	0.17165	-2.511
Mof_O 	O 	0.44756	0.86747	0.10827	-2.774
Mof_O 	O 	0.55233	0.12616	0.03938	-2.956
Mof_O 	O 	0.19993	0.79458	0.1023	-2.609
Mof_O 	O 	0.37222	0.03476	0.08613	-2.575
Mof_O 	O 	0.80225	0.21093	0.03654	-2.822
Mof_O 	O 	0.64753	0.99774	0.9934	-2.831
Mof_O 	O 	0.6563	0.00923	0.08555	-2.602
Mof_Al	Al	0.32941	0.41997	0.37127	8.821
Mof_Al	Al	0.00719	0.24283	0.45021	8.006
Mof_P 	P 	0.00684	0.2445	0.55223	2.293
Mof_P 	P 	0.08888	0.42349	0.37527	2.608
Mof_O 	O 	0.00779	0.28043	0.50499	-2.515
Mof_O 	O 	0.11422	0.20081	0.44161	-2.781
Mof_O 	O 	0.21899	0.4595	0.37272	-2.956
Mof_O 	O 	0.86659	0.12792	0.43564	-2.612
Mof_O 	O 	0.03888	0.3681	0.41947	-2.588
Mof_O 	O 	0.46891	0.54427	0.36988	-2.823
Mof_O 	O 	0.31419	0.33108	0.32674	-2.828
Mof_O 	O 	0.32296	0.34257	0.41889	-2.609
_end
