data_functionalizedCrystal
_audit_creation_method	'EQeq! by Chris Wilmer'
_symmetry_space_group_name_H-M	'P1'
_symmetry_Int_Tables_number	1
_symmetry_cell_setting	triclinic
loop_
_symmetry_equiv_pos_as_xyz
  x,y,z
_cell_length_a	8.6842
_cell_length_b	9.942
_cell_length_c	11.733
_cell_angle_alpha	74.67
_cell_angle_beta	69.85
_cell_angle_gamma	86.02
loop_
_atom_site_label
_atom_site_type_symbol
_atom_site_fract_x
_atom_site_fract_y
_atom_site_fract_z
_atom_site_charge
Mof_Ce	Ce	0.74555	0.47777	0.51191	2.396
Mof_Ce	Ce	0.25445	0.52223	0.48809	2.396
Mof_H 	H 	0.2046	0.462	0.8388	0.137
Mof_H 	H 	0.2312	0.3009	0.8634	0.122
Mof_H 	H 	0.3763	0.3072	0.9923	0.02
Mof_H 	H 	0.3778	0.4706	0.9568	0.015
Mof_H 	H 	0.0941	0.299	0.1033	0.018
Mof_H 	H 	0.0872	0.462	0.061	0.014
Mof_H 	H 	0.2665	0.4722	0.1726	0.134
Mof_H 	H 	0.2425	0.3108	0.2262	0.115
Mof_H 	H 	0.9784	0.8765	0.5978	0.017
Mof_H 	H 	0.0367	0.0198	0.6029	0.016
Mof_H 	H 	0.7562	0.9817	0.7203	0.11
Mof_H 	H 	0.7201	0.9676	0.6019	0.101
Mof_H 	H 	0.7954	0.538	0.1612	0.137
Mof_H 	H 	0.7688	0.6991	0.1366	0.122
Mof_H 	H 	0.6237	0.6928	0.0077	0.02
Mof_H 	H 	0.6222	0.5294	0.0432	0.015
Mof_H 	H 	0.9059	0.701	0.8967	0.018
Mof_H 	H 	0.9128	0.538	0.939	0.014
Mof_H 	H 	0.7335	0.5278	0.8274	0.134
Mof_H 	H 	0.7575	0.6892	0.7738	0.115
Mof_H 	H 	0.0216	0.1235	0.4022	0.017
Mof_H 	H 	0.9633	0.9802	0.3971	0.016
Mof_H 	H 	0.2438	0.0183	0.2797	0.11
Mof_H 	H 	0.2799	0.0324	0.3981	0.101
Mof_C 	C 	0.431	0.4133	0.7403	0.476
Mof_C 	C 	0.2817	0.3895	0.8526	-0.414
Mof_C 	C 	0.3127	0.3882	0.9715	0.013
Mof_C 	C 	0.155	0.3851	0.0838	0.014
Mof_C 	C 	0.1887	0.3954	0.1978	-0.406
Mof_C 	C 	0.0476	0.4159	0.3069	0.483
Mof_C 	C 	0.9684	0.9768	0.5714	-0.012
Mof_C 	C 	0.7893	0.0146	0.6296	-0.325
Mof_C 	C 	0.7636	0.1709	0.5939	0.414
Mof_C 	C 	0.569	0.5867	0.2597	0.476
Mof_C 	C 	0.7183	0.6105	0.1474	-0.414
Mof_C 	C 	0.6873	0.6118	0.0285	0.013
Mof_C 	C 	0.845	0.6149	0.9162	0.014
Mof_C 	C 	0.8113	0.6046	0.8022	-0.406
Mof_C 	C 	0.9524	0.5841	0.6931	0.483
Mof_C 	C 	0.0316	0.0232	0.4286	-0.012
Mof_C 	C 	0.2107	0.9854	0.3704	-0.325
Mof_C 	C 	0.2364	0.8291	0.4061	0.414
Mof_O 	O 	0.4244	0.4552	0.628	-0.732
Mof_O 	O 	0.5743	0.3924	0.7484	-0.503
Mof_O 	O 	0.9018	0.3837	0.3158	-0.5
Mof_O 	O 	0.0655	0.4657	0.3893	-0.727
Mof_O 	O 	0.8621	0.252	0.5997	-0.517
Mof_O 	O 	0.6425	0.2166	0.5601	-0.479
Mof_O 	O 	0.5756	0.5448	0.372	-0.732
Mof_O 	O 	0.4257	0.6076	0.2516	-0.503
Mof_O 	O 	0.0982	0.6163	0.6842	-0.5
Mof_O 	O 	0.9345	0.5343	0.6107	-0.727
Mof_O 	O 	0.1379	0.748	0.4003	-0.517
Mof_O 	O 	0.3575	0.7834	0.4399	-0.479
_end
