data_functionalizedCrystal
_audit_creation_method	'EQeq! by Chris Wilmer'
_symmetry_space_group_name_H-M	'P1'
_symmetry_Int_Tables_number	1
_symmetry_cell_setting	triclinic
loop_
_symmetry_equiv_pos_as_xyz
  x,y,z
_cell_length_a	9.4829
_cell_length_b	11.505
_cell_length_c	14.582
_cell_angle_alpha	69.48
_cell_angle_beta	85.36
_cell_angle_gamma	86.32
loop_
_atom_site_label
_atom_site_type_symbol
_atom_site_fract_x
_atom_site_fract_y
_atom_site_fract_z
_atom_site_charge
Mof_Eu	Eu	0.79662	0.95506	0.00239	2.012
Mof_Eu	Eu	0.20338	0.04494	0.99761	2.012
Mof_H 	H 	0.865	0.3685	0.8399	0.156
Mof_H 	H 	0.97	0.3717	0.7506	0.167
Mof_H 	H 	0.332	0.386	0.89	0.176
Mof_H 	H 	0.264	0.482	0.802	0.124
Mof_H 	H 	0.8781	0.9434	0.5561	0.079
Mof_H 	H 	0.8733	0.0657	0.464	0.082
Mof_H 	H 	0.2749	0.3459	0.3945	0.134
Mof_H 	H 	0.2604	0.2824	0.3227	0.13
Mof_H 	H 	0.8519	0.1021	0.2822	0.174
Mof_H 	H 	0.8157	0.2272	0.1973	0.175
Mof_H 	H 	0.1207	0.5315	0.435	0.085
Mof_H 	H 	0.11	0.4089	0.5266	0.091
Mof_H 	H 	0.6696	0.0481	0.6059	0.126
Mof_H 	H 	0.6275	0.1202	0.6716	0.132
Mof_H 	H 	0.4827	0.8366	0.8065	0.123
Mof_H 	H 	0.6335	0.8314	0.7562	0.125
Mof_H 	H 	0.0304	0.4808	0.9088	0.086
Mof_H 	H 	0.0795	0.3873	0.0095	0.11
Mof_H 	H 	0.135	0.6315	0.1601	0.155
Mof_H 	H 	0.03	0.6283	0.2494	0.166
Mof_H 	H 	0.668	0.614	0.11	0.176
Mof_H 	H 	0.736	0.518	0.198	0.124
Mof_H 	H 	0.1219	0.0566	0.4439	0.079
Mof_H 	H 	0.1267	0.9343	0.536	0.082
Mof_H 	H 	0.7251	0.6541	0.6055	0.134
Mof_H 	H 	0.7396	0.7176	0.6773	0.13
Mof_H 	H 	0.1481	0.8979	0.7178	0.174
Mof_H 	H 	0.1843	0.7728	0.8027	0.175
Mof_H 	H 	0.8793	0.4685	0.565	0.085
Mof_H 	H 	0.89	0.5911	0.4734	0.091
Mof_H 	H 	0.3304	0.9519	0.3941	0.126
Mof_H 	H 	0.3725	0.8798	0.3284	0.132
Mof_H 	H 	0.5173	0.1634	0.1935	0.123
Mof_H 	H 	0.3665	0.1686	0.2438	0.125
Mof_H 	H 	0.9696	0.5192	0.0912	0.086
Mof_H 	H 	0.9205	0.6127	0.9905	0.11
Mof_C 	C 	0.9236	0.0986	0.1456	0.575
Mof_C 	C 	0.8864	0.1947	0.6812	0.1
Mof_C 	C 	0.0038	0.2186	0.8719	0.501
Mof_C 	C 	0.9105	0.3181	0.8039	-0.403
Mof_C 	C 	0.9284	0.0179	0.519	-0.155
Mof_C 	C 	0.984	0.3036	0.3159	0.069
Mof_C 	C 	0.8876	0.1617	0.2206	-0.452
Mof_C 	C 	0.9429	0.0929	0.5829	0.146
Mof_C 	C 	0.9967	0.406	0.4152	0.14
Mof_C 	C 	0.0562	0.4694	0.4762	-0.159
Mof_C 	C 	0.5776	0.8002	0.818	-0.333
Mof_C 	C 	0.6395	0.8477	0.8909	0.391
Mof_C 	C 	0.401	0.6155	0.9114	0.093
Mof_C 	C 	0.1897	0.5458	0.9606	0.142
Mof_C 	C 	0.0597	0.4743	0.9727	-0.184
Mof_C 	C 	0.0764	0.9014	0.8544	0.575
Mof_C 	C 	0.1136	0.8053	0.3188	0.1
Mof_C 	C 	0.9962	0.7814	0.1281	0.501
Mof_C 	C 	0.0895	0.6819	0.1961	-0.403
Mof_C 	C 	0.0716	0.9821	0.481	-0.155
Mof_C 	C 	0.016	0.6964	0.6841	0.069
Mof_C 	C 	0.1124	0.8383	0.7794	-0.452
Mof_C 	C 	0.0571	0.9071	0.4171	0.146
Mof_C 	C 	0.0033	0.594	0.5848	0.14
Mof_C 	C 	0.9438	0.5306	0.5238	-0.159
Mof_C 	C 	0.4224	0.1998	0.182	-0.333
Mof_C 	C 	0.3605	0.1523	0.1091	0.391
Mof_C 	C 	0.599	0.3845	0.0886	0.093
Mof_C 	C 	0.8103	0.4542	0.0394	0.142
Mof_C 	C 	0.9403	0.5257	0.0273	-0.184
Mof_S 	S 	0.04813	0.22556	0.23759	0.079
Mof_S 	S 	0.56767	0.63423	0.8502	0.045
Mof_S 	S 	0.77655	0.26068	0.75283	0.006
Mof_S 	S 	0.95187	0.77444	0.76241	0.079
Mof_S 	S 	0.43233	0.36577	0.1498	0.045
Mof_S 	S 	0.22345	0.73932	0.24717	0.006
Mof_N 	N 	0.309	0.532	0.9057	-0.115
Mof_N 	N 	0.2069	0.63	0.9988	-0.124
Mof_N 	N 	0.0755	0.3464	0.3628	-0.107
Mof_N 	N 	0.0225	0.2032	0.6616	-0.108
Mof_N 	N 	0.343	0.6741	0.9675	-0.113
Mof_N 	N 	0.8316	0.127	0.6335	-0.111
Mof_N 	N 	0.337	0.4535	0.8499	-0.249
Mof_N 	N 	0.2227	0.3217	0.3596	-0.246
Mof_N 	N 	0.0587	0.1363	0.5979	-0.115
Mof_N 	N 	0.864	0.4006	0.4029	-0.107
Mof_N 	N 	0.8545	0.3335	0.3379	-0.097
Mof_N 	N 	0.6917	0.0942	0.6375	-0.242
Mof_N 	N 	0.691	0.468	0.0943	-0.115
Mof_N 	N 	0.7931	0.37	0.0012	-0.124
Mof_N 	N 	0.9245	0.6536	0.6372	-0.107
Mof_N 	N 	0.9775	0.7968	0.3384	-0.108
Mof_N 	N 	0.657	0.3259	0.0325	-0.113
Mof_N 	N 	0.1684	0.873	0.3665	-0.111
Mof_N 	N 	0.663	0.5465	0.1501	-0.249
Mof_N 	N 	0.7773	0.6783	0.6404	-0.246
Mof_N 	N 	0.9413	0.8637	0.4021	-0.115
Mof_N 	N 	0.136	0.5994	0.5971	-0.107
Mof_N 	N 	0.1455	0.6665	0.6621	-0.097
Mof_N 	N 	0.3083	0.9058	0.3625	-0.242
Mof_O 	O 	0.8265	0.0437	0.1267	-0.562
Mof_O 	O 	0.9533	0.1172	0.9254	-0.635
Mof_O 	O 	0.1296	0.2429	0.8735	-0.512
Mof_O 	O 	0.0502	0.1044	0.1112	-0.523
Mof_O 	O 	0.6859	0.7775	0.9691	-0.44
Mof_O 	O 	0.6441	0.9652	0.865	-0.481
Mof_O 	O 	0.1735	0.9563	0.8733	-0.562
Mof_O 	O 	0.0467	0.8828	0.0746	-0.635
Mof_O 	O 	0.8704	0.7571	0.1265	-0.512
Mof_O 	O 	0.9498	0.8956	0.8888	-0.523
Mof_O 	O 	0.3141	0.2225	0.0309	-0.44
Mof_O 	O 	0.3559	0.0348	0.135	-0.481
_end
