data_functionalizedCrystal
_audit_creation_method	'EQeq! by Chris Wilmer'
_symmetry_space_group_name_H-M	'P1'
_symmetry_Int_Tables_number	1
_symmetry_cell_setting	triclinic
loop_
_symmetry_equiv_pos_as_xyz
  x,y,z
_cell_length_a	9.5095
_cell_length_b	19.84
_cell_length_c	21.035
_cell_angle_alpha	90
_cell_angle_beta	90
_cell_angle_gamma	90
loop_
_atom_site_label
_atom_site_type_symbol
_atom_site_fract_x
_atom_site_fract_y
_atom_site_fract_z
_atom_site_charge
Mof_Cd	Cd	0.50754	0.55346	0.42614	0.449
Mof_N 	N 	0.483	0.53803	0.31789	-0.139
Mof_N 	N 	0.4431	0.5594	0.21755	-0.114
Mof_N 	N 	0.56	0.56616	0.11603	-0.113
Mof_N 	N 	0.768	0.55277	0.07328	-0.139
Mof_O 	O 	0.9711	0.18115	0.39812	-0.267
Mof_O 	O 	0.806	0.11891	0.44272	-0.279
Mof_O 	O 	0.7215	0.45827	0.40205	-0.264
Mof_O 	O 	0.521	0.44353	0.45464	-0.29
Mof_S 	S 	0.81767	0.31384	0.41213	0.063
Mof_C 	C 	0.6582	0.34819	0.43311	-0.081
Mof_C 	C 	0.5667	0.3001	0.45273	-0.011
Mof_H 	H 	0.4753	0.3092	0.4658	0.053
Mof_C 	C 	0.6249	0.2347	0.4512	-0.016
Mof_H 	H 	0.5761	0.1962	0.4634	0.053
Mof_C 	C 	0.7588	0.23396	0.43012	-0.077
Mof_C 	C 	0.8538	0.17445	0.42251	0.3
Mof_C 	C 	0.6354	0.42222	0.42909	0.308
Mof_C 	C 	0.4039	0.4872	0.2921	0.018
Mof_H 	H 	0.3724	0.4495	0.3141	0.038
Mof_C 	C 	0.3784	0.4998	0.2305	-0.003
Mof_H 	H 	0.327	0.4732	0.2024	0.06
Mof_C 	C 	0.5045	0.5805	0.27107	0.1
Mof_H 	H 	0.5559	0.6202	0.2747	0.015
Mof_C 	C 	0.4476	0.593	0.15604	-0.014
Mof_H 	H 	0.4624	0.6409	0.1624	0.048
Mof_H 	H 	0.3581	0.5871	0.1346	0.068
Mof_C 	C 	0.5536	0.5083	0.08093	0.001
Mof_H 	H 	0.4766	0.4799	0.0761	0.057
Mof_C 	C 	0.6817	0.5009	0.05495	0.011
Mof_H 	H 	0.7081	0.4657	0.0283	0.054
Mof_C 	C 	0.6894	0.5913	0.11022	0.096
Mof_H 	H 	0.7202	0.6307	0.1296	0.014
Mof_Cd	Cd	0.49246	0.05346	0.07386	0.449
Mof_N 	N 	0.517	0.03803	0.18211	-0.139
Mof_N 	N 	0.5569	0.0594	0.28245	-0.114
Mof_N 	N 	0.44	0.06616	0.38397	-0.113
Mof_N 	N 	0.232	0.05277	0.42672	-0.139
Mof_O 	O 	0.0289	0.68115	0.10188	-0.267
Mof_O 	O 	0.194	0.61891	0.05728	-0.279
Mof_O 	O 	0.2785	0.95827	0.09795	-0.264
Mof_O 	O 	0.479	0.94353	0.04536	-0.29
Mof_S 	S 	0.18233	0.81384	0.08787	0.063
Mof_C 	C 	0.3418	0.84819	0.06689	-0.081
Mof_C 	C 	0.4333	0.8001	0.04727	-0.011
Mof_H 	H 	0.5247	0.8092	0.0342	0.053
Mof_C 	C 	0.3751	0.7347	0.0488	-0.016
Mof_H 	H 	0.4239	0.6962	0.0366	0.053
Mof_C 	C 	0.2412	0.73396	0.06988	-0.077
Mof_C 	C 	0.1462	0.67445	0.07749	0.3
Mof_C 	C 	0.3646	0.92222	0.07091	0.308
Mof_C 	C 	0.5961	0.9872	0.2079	0.018
Mof_H 	H 	0.6276	0.9495	0.1859	0.038
Mof_C 	C 	0.6216	0.9998	0.2695	-0.003
Mof_H 	H 	0.673	0.9732	0.2976	0.06
Mof_C 	C 	0.4955	0.0805	0.22893	0.1
Mof_H 	H 	0.4441	0.1202	0.2253	0.015
Mof_C 	C 	0.5524	0.093	0.34396	-0.014
Mof_H 	H 	0.5376	0.1409	0.3376	0.048
Mof_H 	H 	0.6419	0.0871	0.3654	0.068
Mof_C 	C 	0.4464	0.0083	0.41907	0
Mof_H 	H 	0.5234	0.9799	0.4239	0.057
Mof_C 	C 	0.3183	0.0009	0.44505	0.012
Mof_H 	H 	0.2919	0.9657	0.4717	0.053
Mof_C 	C 	0.3106	0.0913	0.38978	0.096
Mof_H 	H 	0.2798	0.1307	0.3704	0.014
Mof_Cd	Cd	0.00754	0.55346	0.07386	0.449
Mof_N 	N 	0.983	0.53803	0.18211	-0.139
Mof_N 	N 	0.9431	0.5594	0.28245	-0.114
Mof_N 	N 	0.06	0.56616	0.38397	-0.114
Mof_N 	N 	0.268	0.55277	0.42672	-0.139
Mof_O 	O 	0.4711	0.18115	0.10188	-0.267
Mof_O 	O 	0.306	0.11891	0.05728	-0.278
Mof_O 	O 	0.2215	0.45827	0.09795	-0.264
Mof_O 	O 	0.021	0.44353	0.04536	-0.29
Mof_S 	S 	0.31767	0.31384	0.08787	0.064
Mof_C 	C 	0.1582	0.34819	0.06689	-0.081
Mof_C 	C 	0.0667	0.3001	0.04727	-0.009
Mof_H 	H 	0.9753	0.3092	0.0342	0.052
Mof_C 	C 	0.1249	0.2347	0.0488	-0.017
Mof_H 	H 	0.0761	0.1962	0.0366	0.053
Mof_C 	C 	0.2588	0.23396	0.06988	-0.077
Mof_C 	C 	0.3538	0.17445	0.07749	0.3
Mof_C 	C 	0.1354	0.42222	0.07091	0.309
Mof_C 	C 	0.9039	0.4872	0.2079	0.018
Mof_H 	H 	0.8724	0.4495	0.1859	0.038
Mof_C 	C 	0.8784	0.4998	0.2695	-0.003
Mof_H 	H 	0.827	0.4732	0.2976	0.06
Mof_C 	C 	0.0045	0.5805	0.22893	0.099
Mof_H 	H 	0.0559	0.6202	0.2253	0.015
Mof_C 	C 	0.9476	0.593	0.34396	-0.013
Mof_H 	H 	0.9624	0.6409	0.3376	0.049
Mof_H 	H 	0.8581	0.5871	0.3654	0.068
Mof_C 	C 	0.0536	0.5083	0.41907	0.001
Mof_H 	H 	0.9766	0.4799	0.4239	0.057
Mof_C 	C 	0.1817	0.5009	0.44505	0.011
Mof_H 	H 	0.2081	0.4657	0.4717	0.054
Mof_C 	C 	0.1894	0.5913	0.38978	0.096
Mof_H 	H 	0.2202	0.6307	0.3704	0.014
Mof_Cd	Cd	0.99246	0.05346	0.42614	0.447
Mof_N 	N 	0.017	0.03803	0.31789	-0.137
Mof_N 	N 	0.0569	0.0594	0.21755	-0.112
Mof_N 	N 	0.94	0.06616	0.11603	-0.114
Mof_N 	N 	0.732	0.05277	0.07328	-0.138
Mof_O 	O 	0.5289	0.68115	0.39812	-0.267
Mof_O 	O 	0.694	0.61891	0.44272	-0.278
Mof_O 	O 	0.7785	0.95827	0.40205	-0.264
Mof_O 	O 	0.979	0.94353	0.45464	-0.289
Mof_S 	S 	0.68233	0.81384	0.41213	0.064
Mof_C 	C 	0.8418	0.84819	0.43311	-0.082
Mof_C 	C 	0.9333	0.8001	0.45273	-0.007
Mof_H 	H 	0.0247	0.8092	0.4658	0.051
Mof_C 	C 	0.8751	0.7347	0.4512	-0.018
Mof_H 	H 	0.9239	0.6962	0.4634	0.053
Mof_C 	C 	0.7412	0.73396	0.43012	-0.077
Mof_C 	C 	0.6462	0.67445	0.42251	0.3
Mof_C 	C 	0.8646	0.92222	0.42909	0.309
Mof_C 	C 	0.0961	0.9872	0.2921	0.017
Mof_H 	H 	0.1276	0.9495	0.3141	0.038
Mof_C 	C 	0.1216	0.9998	0.2305	-0.004
Mof_H 	H 	0.173	0.9732	0.2024	0.06
Mof_C 	C 	0.9955	0.0805	0.27107	0.097
Mof_H 	H 	0.9441	0.1202	0.2747	0.016
Mof_C 	C 	0.0524	0.093	0.15604	-0.012
Mof_H 	H 	0.0376	0.1409	0.1624	0.048
Mof_H 	H 	0.1419	0.0871	0.1346	0.068
Mof_C 	C 	0.9464	0.0083	0.08093	0.002
Mof_H 	H 	0.0234	0.9799	0.0761	0.056
Mof_C 	C 	0.8183	0.0009	0.05495	0.008
Mof_H 	H 	0.7919	0.9657	0.0283	0.056
Mof_C 	C 	0.8106	0.0913	0.11022	0.096
Mof_H 	H 	0.7798	0.1307	0.1296	0.014
Mof_Cd	Cd	0.99246	0.44654	0.92614	0.449
Mof_N 	N 	0.017	0.46197	0.81789	-0.139
Mof_N 	N 	0.0569	0.4406	0.71755	-0.114
Mof_N 	N 	0.94	0.43384	0.61603	-0.114
Mof_N 	N 	0.732	0.44723	0.57328	-0.139
Mof_O 	O 	0.5289	0.81885	0.89812	-0.267
Mof_O 	O 	0.694	0.88109	0.94272	-0.278
Mof_O 	O 	0.7785	0.54173	0.90205	-0.264
Mof_O 	O 	0.979	0.55647	0.95464	-0.29
Mof_S 	S 	0.68233	0.68616	0.91213	0.064
Mof_C 	C 	0.8418	0.65181	0.93311	-0.081
Mof_C 	C 	0.9333	0.6999	0.95273	-0.009
Mof_H 	H 	0.0247	0.6908	0.9658	0.052
Mof_C 	C 	0.8751	0.7653	0.9512	-0.017
Mof_H 	H 	0.9239	0.8038	0.9634	0.053
Mof_C 	C 	0.7412	0.76604	0.93012	-0.077
Mof_C 	C 	0.6462	0.82555	0.92251	0.3
Mof_C 	C 	0.8646	0.57778	0.92909	0.309
Mof_C 	C 	0.0961	0.5128	0.7921	0.018
Mof_H 	H 	0.1276	0.5505	0.8141	0.038
Mof_C 	C 	0.1216	0.5002	0.7305	-0.003
Mof_H 	H 	0.173	0.5268	0.7024	0.06
Mof_C 	C 	0.9955	0.4195	0.77107	0.099
Mof_H 	H 	0.9441	0.3798	0.7747	0.015
Mof_C 	C 	0.0524	0.407	0.65604	-0.013
Mof_H 	H 	0.0376	0.3591	0.6624	0.049
Mof_H 	H 	0.1419	0.4129	0.6346	0.068
Mof_C 	C 	0.9464	0.4917	0.58093	0.001
Mof_H 	H 	0.0234	0.5201	0.5761	0.057
Mof_C 	C 	0.8183	0.4991	0.55495	0.011
Mof_H 	H 	0.7919	0.5343	0.5283	0.054
Mof_C 	C 	0.8106	0.4087	0.61022	0.096
Mof_H 	H 	0.7798	0.3693	0.6296	0.014
Mof_Cd	Cd	0.00754	0.94654	0.57386	0.447
Mof_N 	N 	0.983	0.96197	0.68211	-0.137
Mof_N 	N 	0.9431	0.9406	0.78245	-0.112
Mof_N 	N 	0.06	0.93384	0.88397	-0.114
Mof_N 	N 	0.268	0.94723	0.92672	-0.138
Mof_O 	O 	0.4711	0.31885	0.60188	-0.267
Mof_O 	O 	0.306	0.38109	0.55728	-0.278
Mof_O 	O 	0.2215	0.04173	0.59795	-0.264
Mof_O 	O 	0.021	0.05647	0.54536	-0.289
Mof_S 	S 	0.31767	0.18616	0.58787	0.064
Mof_C 	C 	0.1582	0.15181	0.56689	-0.082
Mof_C 	C 	0.0667	0.1999	0.54727	-0.007
Mof_H 	H 	0.9753	0.1908	0.5342	0.051
Mof_C 	C 	0.1249	0.2653	0.5488	-0.018
Mof_H 	H 	0.0761	0.3038	0.5366	0.053
Mof_C 	C 	0.2588	0.26604	0.56988	-0.077
Mof_C 	C 	0.3538	0.32555	0.57749	0.3
Mof_C 	C 	0.1354	0.07778	0.57091	0.309
Mof_C 	C 	0.9039	0.0128	0.7079	0.017
Mof_H 	H 	0.8724	0.0505	0.6859	0.038
Mof_C 	C 	0.8784	0.0002	0.7695	-0.004
Mof_H 	H 	0.827	0.0268	0.7976	0.06
Mof_C 	C 	0.0045	0.9195	0.72893	0.097
Mof_H 	H 	0.0559	0.8798	0.7253	0.016
Mof_C 	C 	0.9476	0.907	0.84396	-0.012
Mof_H 	H 	0.9624	0.8591	0.8376	0.048
Mof_H 	H 	0.8581	0.9129	0.8654	0.068
Mof_C 	C 	0.0536	0.9917	0.91907	0.002
Mof_H 	H 	0.9766	0.0201	0.9239	0.056
Mof_C 	C 	0.1817	0.9991	0.94505	0.008
Mof_H 	H 	0.2081	0.0343	0.9717	0.056
Mof_C 	C 	0.1894	0.9087	0.88978	0.096
Mof_H 	H 	0.2202	0.8693	0.8704	0.014
Mof_Cd	Cd	0.49246	0.44654	0.57386	0.449
Mof_N 	N 	0.517	0.46197	0.68211	-0.139
Mof_N 	N 	0.5569	0.4406	0.78245	-0.114
Mof_N 	N 	0.44	0.43384	0.88397	-0.113
Mof_N 	N 	0.232	0.44723	0.92672	-0.139
Mof_O 	O 	0.0289	0.81885	0.60188	-0.267
Mof_O 	O 	0.194	0.88109	0.55728	-0.279
Mof_O 	O 	0.2785	0.54173	0.59795	-0.264
Mof_O 	O 	0.479	0.55647	0.54536	-0.29
Mof_S 	S 	0.18233	0.68616	0.58787	0.063
Mof_C 	C 	0.3418	0.65181	0.56689	-0.081
Mof_C 	C 	0.4333	0.6999	0.54727	-0.011
Mof_H 	H 	0.5247	0.6908	0.5342	0.053
Mof_C 	C 	0.3751	0.7653	0.5488	-0.016
Mof_H 	H 	0.4239	0.8038	0.5366	0.053
Mof_C 	C 	0.2412	0.76604	0.56988	-0.077
Mof_C 	C 	0.1462	0.82555	0.57749	0.3
Mof_C 	C 	0.3646	0.57778	0.57091	0.308
Mof_C 	C 	0.5961	0.5128	0.7079	0.018
Mof_H 	H 	0.6276	0.5505	0.6859	0.038
Mof_C 	C 	0.6216	0.5002	0.7695	-0.003
Mof_H 	H 	0.673	0.5268	0.7976	0.06
Mof_C 	C 	0.4955	0.4195	0.72893	0.1
Mof_H 	H 	0.4441	0.3798	0.7253	0.015
Mof_C 	C 	0.5524	0.407	0.84396	-0.014
Mof_H 	H 	0.5376	0.3591	0.8376	0.048
Mof_H 	H 	0.6419	0.4129	0.8654	0.068
Mof_C 	C 	0.4464	0.4917	0.91907	0.001
Mof_H 	H 	0.5234	0.5201	0.9239	0.057
Mof_C 	C 	0.3183	0.4991	0.94505	0.011
Mof_H 	H 	0.2919	0.5343	0.9717	0.054
Mof_C 	C 	0.3106	0.4087	0.88978	0.096
Mof_H 	H 	0.2798	0.3693	0.8704	0.014
Mof_Cd	Cd	0.50754	0.94654	0.92614	0.449
Mof_N 	N 	0.483	0.96197	0.81789	-0.139
Mof_N 	N 	0.4431	0.9406	0.71755	-0.114
Mof_N 	N 	0.56	0.93384	0.61603	-0.113
Mof_N 	N 	0.768	0.94723	0.57328	-0.139
Mof_O 	O 	0.9711	0.31885	0.89812	-0.267
Mof_O 	O 	0.806	0.38109	0.94272	-0.279
Mof_O 	O 	0.7215	0.04173	0.90205	-0.264
Mof_O 	O 	0.521	0.05647	0.95464	-0.29
Mof_S 	S 	0.81767	0.18616	0.91213	0.063
Mof_C 	C 	0.6582	0.15181	0.93311	-0.081
Mof_C 	C 	0.5667	0.1999	0.95273	-0.011
Mof_H 	H 	0.4753	0.1908	0.9658	0.053
Mof_C 	C 	0.6249	0.2653	0.9512	-0.016
Mof_H 	H 	0.5761	0.3038	0.9634	0.053
Mof_C 	C 	0.7588	0.26604	0.93012	-0.077
Mof_C 	C 	0.8538	0.32555	0.92251	0.3
Mof_C 	C 	0.6354	0.07778	0.92909	0.308
Mof_C 	C 	0.4039	0.0128	0.7921	0.018
Mof_H 	H 	0.3724	0.0505	0.8141	0.038
Mof_C 	C 	0.3784	0.0002	0.7305	-0.003
Mof_H 	H 	0.327	0.0268	0.7024	0.06
Mof_C 	C 	0.5045	0.9195	0.77107	0.1
Mof_H 	H 	0.5559	0.8798	0.7747	0.015
Mof_C 	C 	0.4476	0.907	0.65604	-0.014
Mof_H 	H 	0.4624	0.8591	0.6624	0.048
Mof_H 	H 	0.3581	0.9129	0.6346	0.068
Mof_C 	C 	0.5536	0.9917	0.58093	0
Mof_H 	H 	0.4766	0.0201	0.5761	0.057
Mof_C 	C 	0.6817	0.9991	0.55495	0.012
Mof_H 	H 	0.7081	0.0343	0.5283	0.053
Mof_C 	C 	0.6894	0.9087	0.61022	0.096
Mof_H 	H 	0.7202	0.8693	0.6296	0.014
_end
