# CIF file generated by openbabel 3.1.0, see https://openbabel.org
data_I
_chemical_name_common 'image0'
_cell_length_a 13.9822
_cell_length_b 13.9822
_cell_length_c 6.2233
_cell_angle_alpha 90
_cell_angle_beta 90
_cell_angle_gamma 90
_space_group_name_H-M_alt 'P 1'
_space_group_name_Hall 'P 1'
loop_
    _symmetry_equiv_pos_as_xyz
    x,y,z
loop_
    _atom_site_label
    _atom_site_type_symbol
    _atom_site_fract_x
    _atom_site_fract_y
    _atom_site_fract_z
    _atom_site_occupancy
    N1       N        0.64090    0.70440    0.07370    1.000
    C1       C        0.55490    0.62750    0.83550    1.000
    C2       C        0.49700    0.69760    0.91540    1.000
    C3       C        0.64060    0.63280    0.92950    1.000
    C4       C        0.55280    0.74180    0.06260    1.000
    C5       C        0.52470    0.56190    0.66460    1.000
    C6       C        0.55550    0.46720    0.66840    1.000
    H1       H        0.59230    0.44490    0.78230    1.000
    C7       C        0.46890    0.59320    0.49730    1.000
    H2       H        0.44730    0.65610    0.49590    1.000
    H3       H        0.69900    0.59700    0.91900    1.000
    H4       H        0.54100    0.79300    0.15500    1.000
    N2       N        0.44510    0.37250    0.16450    1.000
    N3       N        0.85910    0.79560    0.07370    1.000
    C8       C        0.94510    0.87250    0.83550    1.000
    C9       C        0.00300    0.80240    0.91540    1.000
    C10      C        0.85940    0.86720    0.92950    1.000
    C11      C        0.94720    0.75820    0.06260    1.000
    C12      C        0.97530    0.93810    0.66460    1.000
    C13      C        0.94450    0.03280    0.66840    1.000
    H5       H        0.90770    0.05510    0.78230    1.000
    C14      C        0.03110    0.90680    0.49730    1.000
    H6       H        0.05270    0.84390    0.49590    1.000
    H7       H        0.80100    0.90300    0.91900    1.000
    H8       H        0.95900    0.70700    0.15500    1.000
    N4       N        0.05490    0.12750    0.16450    1.000
    N5       N        0.29560    0.14090    0.57370    1.000
    C15      C        0.37250    0.05490    0.33550    1.000
    C16      C        0.30240    0.99700    0.41540    1.000
    C17      C        0.36720    0.14060    0.42950    1.000
    C18      C        0.25820    0.05280    0.56260    1.000
    C19      C        0.43810    0.02470    0.16460    1.000
    C20      C        0.53280    0.05550    0.16840    1.000
    H9       H        0.55510    0.09230    0.28230    1.000
    C21      C        0.40680    0.96890    0.99730    1.000
    H10      H        0.34390    0.94730    0.99590    1.000
    H11      H        0.40300    0.19900    0.41900    1.000
    H12      H        0.20700    0.04100    0.65500    1.000
    N6       N        0.62750    0.94510    0.66450    1.000
    N7       N        0.20440    0.35910    0.57370    1.000
    C22      C        0.12750    0.44510    0.33550    1.000
    C23      C        0.19760    0.50300    0.41540    1.000
    C24      C        0.13280    0.35940    0.42950    1.000
    C25      C        0.24180    0.44720    0.56260    1.000
    C26      C        0.06190    0.47530    0.16460    1.000
    C27      C        0.96720    0.44450    0.16840    1.000
    H13      H        0.94490    0.40770    0.28230    1.000
    C28      C        0.09320    0.53110    0.99730    1.000
    H14      H        0.15610    0.55270    0.99590    1.000
    H15      H        0.09700    0.30100    0.41900    1.000
    H16      H        0.29300    0.45900    0.65500    1.000
    N8       N        0.87250    0.55490    0.66450    1.000
    N9       N        0.35910    0.29560    0.92630    1.000
    C29      C        0.50300    0.30240    0.08460    1.000
    C30      C        0.35940    0.36720    0.07050    1.000
    C31      C        0.44720    0.25820    0.93740    1.000
    C32      C        0.47530    0.43810    0.33540    1.000
    C33      C        0.44450    0.53280    0.33160    1.000
    H17      H        0.40770    0.55510    0.21770    1.000
    C34      C        0.53110    0.40680    0.50270    1.000
    H18      H        0.55270    0.34390    0.50410    1.000
    H19      H        0.30100    0.40300    0.08100    1.000
    H20      H        0.45900    0.20700    0.84500    1.000
    N10      N        0.14090    0.20440    0.92630    1.000
    C35      C        0.99700    0.19760    0.08460    1.000
    C36      C        0.14060    0.13280    0.07050    1.000
    C37      C        0.05280    0.24180    0.93740    1.000
    C38      C        0.02470    0.06190    0.33540    1.000
    C39      C        0.05550    0.96720    0.33160    1.000
    H21      H        0.09230    0.94490    0.21770    1.000
    C40      C        0.96890    0.09320    0.50270    1.000
    H22      H        0.94730    0.15610    0.50410    1.000
    H23      H        0.19900    0.09700    0.08100    1.000
    H24      H        0.04100    0.29300    0.84500    1.000
    N11      N        0.70440    0.85910    0.42630    1.000
    C41      C        0.69760    0.00300    0.58460    1.000
    C42      C        0.63280    0.85940    0.57050    1.000
    C43      C        0.74180    0.94720    0.43740    1.000
    C44      C        0.56190    0.97530    0.83540    1.000
    C45      C        0.46720    0.94450    0.83160    1.000
    H25      H        0.44490    0.90770    0.71770    1.000
    C46      C        0.59320    0.03110    0.00270    1.000
    H26      H        0.65610    0.05270    0.00410    1.000
    H27      H        0.59700    0.80100    0.58100    1.000
    H28      H        0.79300    0.95900    0.34500    1.000
    N12      N        0.79560    0.64090    0.42630    1.000
    C47      C        0.80240    0.49700    0.58460    1.000
    C48      C        0.86720    0.64060    0.57050    1.000
    C49      C        0.75820    0.55280    0.43740    1.000
    C50      C        0.93810    0.52470    0.83540    1.000
    C51      C        0.03280    0.55550    0.83160    1.000
    H29      H        0.05510    0.59230    0.71770    1.000
    C52      C        0.90680    0.46890    0.00270    1.000
    H30      H        0.84390    0.44730    0.00410    1.000
    H31      H        0.90300    0.69900    0.58100    1.000
    H32      H        0.70700    0.54100    0.34500    1.000
    Zn1      Zn       0.75000    0.75000    0.25000    1.000
    Zn2      Zn       0.25000    0.25000    0.75000    1.000
