data_functionalizedCrystal
_audit_creation_method	'EQeq! by Chris Wilmer'
_symmetry_space_group_name_H-M	'P1'
_symmetry_Int_Tables_number	1
_symmetry_cell_setting	triclinic
loop_
_symmetry_equiv_pos_as_xyz
  x,y,z
_cell_length_a	24.755
_cell_length_b	24.755
_cell_length_c	24.755
_cell_angle_alpha	90
_cell_angle_beta	90
_cell_angle_gamma	90
loop_
_atom_site_label
_atom_site_type_symbol
_atom_site_fract_x
_atom_site_fract_y
_atom_site_fract_z
_atom_site_charge
Mof_Co	Co	0.41481	0.21026	0.2053	1.136
Mof_O 	O 	0.2865	0.199	0.3924	-0.129
Mof_O 	O 	0.3314	0.2385	0.4581	-0.16
Mof_O 	O 	0.6191	0.2076	0.1051	-0.379
Mof_O 	O 	0.68154	0.2001	0.1667	-0.39
Mof_N 	N 	0.41756	0.2081	0.29055	-0.225
Mof_N 	N 	0.49784	0.20651	0.2217	-0.248
Mof_C 	C 	0.3746	0.2096	0.3235	0.097
Mof_H 	H 	0.3404	0.2104	0.3079	0.017
Mof_C 	C 	0.3779	0.21	0.3786	-0.136
Mof_C 	C 	0.4293	0.2066	0.4013	0.06
Mof_H 	H 	0.4336	0.2058	0.4386	0.027
Mof_C 	C 	0.4743	0.2045	0.3674	-0.117
Mof_H 	H 	0.5088	0.2023	0.3821	0.071
Mof_C 	C 	0.4676	0.2059	0.3122	0.055
Mof_C 	C 	0.5128	0.2038	0.2733	0.075
Mof_C 	C 	0.5659	0.2	0.2884	-0.137
Mof_H 	H 	0.5752	0.1976	0.3247	0.076
Mof_C 	C 	0.6047	0.1996	0.2497	0.068
Mof_H 	H 	0.6409	0.197	0.2595	0.026
Mof_C 	C 	0.5909	0.203	0.1964	-0.128
Mof_C 	C 	0.536	0.2067	0.184	0.09
Mof_H 	H 	0.5258	0.2093	0.1479	-0.011
Mof_C 	C 	0.3287	0.2119	0.4132	0.381
Mof_C 	C 	0.6334	0.2031	0.1527	0.331
Mof_O 	O 	0.2853	0.2141	0.3866	-0.288
Mof_O 	O 	0.3349	0.2004	0.463	-0.187
Mof_Co	Co	0.08519	0.78974	0.7053	1.136
Mof_O 	O 	0.2135	0.801	0.8924	-0.129
Mof_O 	O 	0.1686	0.7615	0.9581	-0.16
Mof_O 	O 	0.8809	0.7924	0.6051	-0.378
Mof_O 	O 	0.81846	0.7999	0.6667	-0.389
Mof_N 	N 	0.08244	0.7919	0.79055	-0.224
Mof_N 	N 	0.00216	0.79349	0.7217	-0.246
Mof_C 	C 	0.1254	0.7904	0.8235	0.098
Mof_H 	H 	0.1596	0.7896	0.8079	0.018
Mof_C 	C 	0.1221	0.79	0.8786	-0.135
Mof_C 	C 	0.0707	0.7934	0.9013	0.06
Mof_H 	H 	0.0664	0.7942	0.9386	0.028
Mof_C 	C 	0.0257	0.7955	0.8674	-0.115
Mof_H 	H 	0.9912	0.7977	0.8821	0.071
Mof_C 	C 	0.0324	0.7941	0.8122	0.056
Mof_C 	C 	0.9872	0.7962	0.7733	0.075
Mof_C 	C 	0.9341	0.8	0.7884	-0.135
Mof_H 	H 	0.9248	0.8024	0.8247	0.077
Mof_C 	C 	0.8953	0.8004	0.7497	0.068
Mof_H 	H 	0.8591	0.803	0.7595	0.027
Mof_C 	C 	0.9091	0.797	0.6964	-0.127
Mof_C 	C 	0.964	0.7933	0.684	0.09
Mof_H 	H 	0.9742	0.7907	0.6479	-0.01
Mof_C 	C 	0.1713	0.7881	0.9132	0.382
Mof_C 	C 	0.8666	0.7969	0.6527	0.331
Mof_O 	O 	0.2147	0.7859	0.8866	-0.287
Mof_O 	O 	0.1651	0.7996	0.963	-0.186
Mof_Co	Co	0.58519	0.71026	0.2947	1.137
Mof_O 	O 	0.7135	0.699	0.1076	-0.128
Mof_O 	O 	0.6686	0.7385	0.0419	-0.159
Mof_O 	O 	0.3809	0.7076	0.3949	-0.378
Mof_O 	O 	0.31846	0.7001	0.3333	-0.389
Mof_N 	N 	0.58244	0.7081	0.20945	-0.224
Mof_N 	N 	0.50216	0.70651	0.2783	-0.247
Mof_C 	C 	0.6254	0.7096	0.1765	0.098
Mof_H 	H 	0.6596	0.7104	0.1921	0.018
Mof_C 	C 	0.6221	0.71	0.1214	-0.135
Mof_C 	C 	0.5707	0.7066	0.0987	0.061
Mof_H 	H 	0.5664	0.7058	0.0614	0.028
Mof_C 	C 	0.5257	0.7045	0.1326	-0.116
Mof_H 	H 	0.4912	0.7023	0.1179	0.072
Mof_C 	C 	0.5324	0.7059	0.1878	0.056
Mof_C 	C 	0.4872	0.7038	0.2267	0.076
Mof_C 	C 	0.4341	0.7	0.2116	-0.136
Mof_H 	H 	0.4248	0.6976	0.1753	0.077
Mof_C 	C 	0.3953	0.6996	0.2503	0.069
Mof_H 	H 	0.3591	0.697	0.2405	0.027
Mof_C 	C 	0.4091	0.703	0.3036	-0.127
Mof_C 	C 	0.464	0.7067	0.316	0.091
Mof_H 	H 	0.4742	0.7093	0.3521	-0.01
Mof_C 	C 	0.6713	0.7119	0.0868	0.382
Mof_C 	C 	0.3666	0.7031	0.3473	0.332
Mof_O 	O 	0.7147	0.7141	0.1134	-0.287
Mof_O 	O 	0.6651	0.7004	0.037	-0.186
Mof_Co	Co	0.91481	0.28974	0.7947	1.137
Mof_O 	O 	0.7865	0.301	0.6076	-0.128
Mof_O 	O 	0.8314	0.2615	0.5419	-0.159
Mof_O 	O 	0.1191	0.2924	0.8949	-0.378
Mof_O 	O 	0.18154	0.2999	0.8333	-0.389
Mof_N 	N 	0.91756	0.2919	0.70945	-0.224
Mof_N 	N 	0.99784	0.29349	0.7783	-0.247
Mof_C 	C 	0.8746	0.2904	0.6765	0.098
Mof_H 	H 	0.8404	0.2896	0.6921	0.018
Mof_C 	C 	0.8779	0.29	0.6214	-0.135
Mof_C 	C 	0.9293	0.2934	0.5987	0.061
Mof_H 	H 	0.9336	0.2942	0.5614	0.028
Mof_C 	C 	0.9743	0.2955	0.6326	-0.116
Mof_H 	H 	0.0088	0.2977	0.6179	0.072
Mof_C 	C 	0.9676	0.2941	0.6878	0.056
Mof_C 	C 	0.0128	0.2962	0.7267	0.076
Mof_C 	C 	0.0659	0.3	0.7116	-0.136
Mof_H 	H 	0.0752	0.3024	0.6753	0.077
Mof_C 	C 	0.1047	0.3004	0.7503	0.069
Mof_H 	H 	0.1409	0.303	0.7405	0.027
Mof_C 	C 	0.0909	0.297	0.8036	-0.127
Mof_C 	C 	0.036	0.2933	0.816	0.091
Mof_H 	H 	0.0258	0.2907	0.8521	-0.01
Mof_C 	C 	0.8287	0.2881	0.5868	0.382
Mof_C 	C 	0.1334	0.2969	0.8473	0.332
Mof_O 	O 	0.7853	0.2859	0.6134	-0.287
Mof_O 	O 	0.8349	0.2996	0.537	-0.186
Mof_Co	Co	0.2053	0.41481	0.21026	1.137
Mof_O 	O 	0.3924	0.2865	0.199	-0.128
Mof_O 	O 	0.4581	0.3314	0.2385	-0.159
Mof_O 	O 	0.1051	0.6191	0.2076	-0.378
Mof_O 	O 	0.1667	0.68154	0.2001	-0.389
Mof_N 	N 	0.29055	0.41756	0.2081	-0.224
Mof_N 	N 	0.2217	0.49784	0.20651	-0.247
Mof_C 	C 	0.3235	0.3746	0.2096	0.098
Mof_H 	H 	0.3079	0.3404	0.2104	0.018
Mof_C 	C 	0.3786	0.3779	0.21	-0.135
Mof_C 	C 	0.4013	0.4293	0.2066	0.061
Mof_H 	H 	0.4386	0.4336	0.2058	0.028
Mof_C 	C 	0.3674	0.4743	0.2045	-0.116
Mof_H 	H 	0.3821	0.5088	0.2023	0.072
Mof_C 	C 	0.3122	0.4676	0.2059	0.056
Mof_C 	C 	0.2733	0.5128	0.2038	0.076
Mof_C 	C 	0.2884	0.5659	0.2	-0.136
Mof_H 	H 	0.3247	0.5752	0.1976	0.077
Mof_C 	C 	0.2497	0.6047	0.1996	0.069
Mof_H 	H 	0.2595	0.6409	0.197	0.027
Mof_C 	C 	0.1964	0.5909	0.203	-0.127
Mof_C 	C 	0.184	0.536	0.2067	0.091
Mof_H 	H 	0.1479	0.5258	0.2093	-0.01
Mof_C 	C 	0.4132	0.3287	0.2119	0.382
Mof_C 	C 	0.1527	0.6334	0.2031	0.332
Mof_O 	O 	0.3866	0.2853	0.2141	-0.287
Mof_O 	O 	0.463	0.3349	0.2004	-0.186
Mof_Co	Co	0.7053	0.08519	0.78974	1.137
Mof_O 	O 	0.8924	0.2135	0.801	-0.128
Mof_O 	O 	0.9581	0.1686	0.7615	-0.159
Mof_O 	O 	0.6051	0.8809	0.7924	-0.378
Mof_O 	O 	0.6667	0.81846	0.7999	-0.389
Mof_N 	N 	0.79055	0.08244	0.7919	-0.224
Mof_N 	N 	0.7217	0.00216	0.79349	-0.246
Mof_C 	C 	0.8235	0.1254	0.7904	0.098
Mof_H 	H 	0.8079	0.1596	0.7896	0.018
Mof_C 	C 	0.8786	0.1221	0.79	-0.135
Mof_C 	C 	0.9013	0.0707	0.7934	0.06
Mof_H 	H 	0.9386	0.0664	0.7942	0.028
Mof_C 	C 	0.8674	0.0257	0.7955	-0.115
Mof_H 	H 	0.8821	0.9912	0.7977	0.071
Mof_C 	C 	0.8122	0.0324	0.7941	0.056
Mof_C 	C 	0.7733	0.9872	0.7962	0.075
Mof_C 	C 	0.7884	0.9341	0.8	-0.135
Mof_H 	H 	0.8247	0.9248	0.8024	0.077
Mof_C 	C 	0.7497	0.8953	0.8004	0.068
Mof_H 	H 	0.7595	0.8591	0.803	0.027
Mof_C 	C 	0.6964	0.9091	0.797	-0.127
Mof_C 	C 	0.684	0.964	0.7933	0.09
Mof_H 	H 	0.6479	0.9742	0.7907	-0.01
Mof_C 	C 	0.9132	0.1713	0.7881	0.382
Mof_C 	C 	0.6527	0.8666	0.7969	0.331
Mof_O 	O 	0.8866	0.2147	0.7859	-0.287
Mof_O 	O 	0.963	0.1651	0.7996	-0.186
Mof_Co	Co	0.2947	0.58519	0.71026	1.137
Mof_O 	O 	0.1076	0.7135	0.699	-0.128
Mof_O 	O 	0.0419	0.6686	0.7385	-0.159
Mof_O 	O 	0.3949	0.3809	0.7076	-0.378
Mof_O 	O 	0.3333	0.31846	0.7001	-0.389
Mof_N 	N 	0.20945	0.58244	0.7081	-0.224
Mof_N 	N 	0.2783	0.50216	0.70651	-0.247
Mof_C 	C 	0.1765	0.6254	0.7096	0.098
Mof_H 	H 	0.1921	0.6596	0.7104	0.018
Mof_C 	C 	0.1214	0.6221	0.71	-0.135
Mof_C 	C 	0.0987	0.5707	0.7066	0.061
Mof_H 	H 	0.0614	0.5664	0.7058	0.028
Mof_C 	C 	0.1326	0.5257	0.7045	-0.116
Mof_H 	H 	0.1179	0.4912	0.7023	0.072
Mof_C 	C 	0.1878	0.5324	0.7059	0.056
Mof_C 	C 	0.2267	0.4872	0.7038	0.076
Mof_C 	C 	0.2116	0.4341	0.7	-0.136
Mof_H 	H 	0.1753	0.4248	0.6976	0.077
Mof_C 	C 	0.2503	0.3953	0.6996	0.069
Mof_H 	H 	0.2405	0.3591	0.697	0.027
Mof_C 	C 	0.3036	0.4091	0.703	-0.127
Mof_C 	C 	0.316	0.464	0.7067	0.091
Mof_H 	H 	0.3521	0.4742	0.7093	-0.01
Mof_C 	C 	0.0868	0.6713	0.7119	0.382
Mof_C 	C 	0.3473	0.3666	0.7031	0.332
Mof_O 	O 	0.1134	0.7147	0.7141	-0.287
Mof_O 	O 	0.037	0.6651	0.7004	-0.186
Mof_Co	Co	0.7947	0.91481	0.28974	1.137
Mof_O 	O 	0.6076	0.7865	0.301	-0.128
Mof_O 	O 	0.5419	0.8314	0.2615	-0.159
Mof_O 	O 	0.8949	0.1191	0.2924	-0.378
Mof_O 	O 	0.8333	0.18154	0.2999	-0.389
Mof_N 	N 	0.70945	0.91756	0.2919	-0.224
Mof_N 	N 	0.7783	0.99784	0.29349	-0.247
Mof_C 	C 	0.6765	0.8746	0.2904	0.098
Mof_H 	H 	0.6921	0.8404	0.2896	0.018
Mof_C 	C 	0.6214	0.8779	0.29	-0.135
Mof_C 	C 	0.5987	0.9293	0.2934	0.061
Mof_H 	H 	0.5614	0.9336	0.2942	0.028
Mof_C 	C 	0.6326	0.9743	0.2955	-0.116
Mof_H 	H 	0.6179	0.0088	0.2977	0.072
Mof_C 	C 	0.6878	0.9676	0.2941	0.056
Mof_C 	C 	0.7267	0.0128	0.2962	0.076
Mof_C 	C 	0.7116	0.0659	0.3	-0.136
Mof_H 	H 	0.6753	0.0752	0.3024	0.077
Mof_C 	C 	0.7503	0.1047	0.3004	0.069
Mof_H 	H 	0.7405	0.1409	0.303	0.027
Mof_C 	C 	0.8036	0.0909	0.297	-0.127
Mof_C 	C 	0.816	0.036	0.2933	0.091
Mof_H 	H 	0.8521	0.0258	0.2907	-0.01
Mof_C 	C 	0.5868	0.8287	0.2881	0.382
Mof_C 	C 	0.8473	0.1334	0.2969	0.332
Mof_O 	O 	0.6134	0.7853	0.2859	-0.287
Mof_O 	O 	0.537	0.8349	0.2996	-0.186
Mof_Co	Co	0.21026	0.2053	0.41481	1.137
Mof_O 	O 	0.199	0.3924	0.2865	-0.128
Mof_O 	O 	0.2385	0.4581	0.3314	-0.159
Mof_O 	O 	0.2076	0.1051	0.6191	-0.378
Mof_O 	O 	0.2001	0.1667	0.68154	-0.389
Mof_N 	N 	0.2081	0.29055	0.41756	-0.224
Mof_N 	N 	0.20651	0.2217	0.49784	-0.247
Mof_C 	C 	0.2096	0.3235	0.3746	0.098
Mof_H 	H 	0.2104	0.3079	0.3404	0.018
Mof_C 	C 	0.21	0.3786	0.3779	-0.135
Mof_C 	C 	0.2066	0.4013	0.4293	0.061
Mof_H 	H 	0.2058	0.4386	0.4336	0.028
Mof_C 	C 	0.2045	0.3674	0.4743	-0.116
Mof_H 	H 	0.2023	0.3821	0.5088	0.072
Mof_C 	C 	0.2059	0.3122	0.4676	0.056
Mof_C 	C 	0.2038	0.2733	0.5128	0.076
Mof_C 	C 	0.2	0.2884	0.5659	-0.136
Mof_H 	H 	0.1976	0.3247	0.5752	0.077
Mof_C 	C 	0.1996	0.2497	0.6047	0.069
Mof_H 	H 	0.197	0.2595	0.6409	0.027
Mof_C 	C 	0.203	0.1964	0.5909	-0.127
Mof_C 	C 	0.2067	0.184	0.536	0.091
Mof_H 	H 	0.2093	0.1479	0.5258	-0.01
Mof_C 	C 	0.2119	0.4132	0.3287	0.382
Mof_C 	C 	0.2031	0.1527	0.6334	0.332
Mof_O 	O 	0.2141	0.3866	0.2853	-0.287
Mof_O 	O 	0.2004	0.463	0.3349	-0.186
Mof_Co	Co	0.78974	0.7053	0.08519	1.137
Mof_O 	O 	0.801	0.8924	0.2135	-0.128
Mof_O 	O 	0.7615	0.9581	0.1686	-0.159
Mof_O 	O 	0.7924	0.6051	0.8809	-0.378
Mof_O 	O 	0.7999	0.6667	0.81846	-0.389
Mof_N 	N 	0.7919	0.79055	0.08244	-0.224
Mof_N 	N 	0.79349	0.7217	0.00216	-0.246
Mof_C 	C 	0.7904	0.8235	0.1254	0.098
Mof_H 	H 	0.7896	0.8079	0.1596	0.018
Mof_C 	C 	0.79	0.8786	0.1221	-0.135
Mof_C 	C 	0.7934	0.9013	0.0707	0.06
Mof_H 	H 	0.7942	0.9386	0.0664	0.028
Mof_C 	C 	0.7955	0.8674	0.0257	-0.115
Mof_H 	H 	0.7977	0.8821	0.9912	0.071
Mof_C 	C 	0.7941	0.8122	0.0324	0.056
Mof_C 	C 	0.7962	0.7733	0.9872	0.075
Mof_C 	C 	0.8	0.7884	0.9341	-0.135
Mof_H 	H 	0.8024	0.8247	0.9248	0.077
Mof_C 	C 	0.8004	0.7497	0.8953	0.068
Mof_H 	H 	0.803	0.7595	0.8591	0.027
Mof_C 	C 	0.797	0.6964	0.9091	-0.127
Mof_C 	C 	0.7933	0.684	0.964	0.09
Mof_H 	H 	0.7907	0.6479	0.9742	-0.01
Mof_C 	C 	0.7881	0.9132	0.1713	0.382
Mof_C 	C 	0.7969	0.6527	0.8666	0.331
Mof_O 	O 	0.7859	0.8866	0.2147	-0.287
Mof_O 	O 	0.7996	0.963	0.1651	-0.186
Mof_Co	Co	0.71026	0.2947	0.58519	1.137
Mof_O 	O 	0.699	0.1076	0.7135	-0.128
Mof_O 	O 	0.7385	0.0419	0.6686	-0.159
Mof_O 	O 	0.7076	0.3949	0.3809	-0.378
Mof_O 	O 	0.7001	0.3333	0.31846	-0.389
Mof_N 	N 	0.7081	0.20945	0.58244	-0.224
Mof_N 	N 	0.70651	0.2783	0.50216	-0.247
Mof_C 	C 	0.7096	0.1765	0.6254	0.098
Mof_H 	H 	0.7104	0.1921	0.6596	0.018
Mof_C 	C 	0.71	0.1214	0.6221	-0.135
Mof_C 	C 	0.7066	0.0987	0.5707	0.061
Mof_H 	H 	0.7058	0.0614	0.5664	0.028
Mof_C 	C 	0.7045	0.1326	0.5257	-0.116
Mof_H 	H 	0.7023	0.1179	0.4912	0.072
Mof_C 	C 	0.7059	0.1878	0.5324	0.056
Mof_C 	C 	0.7038	0.2267	0.4872	0.076
Mof_C 	C 	0.7	0.2116	0.4341	-0.136
Mof_H 	H 	0.6976	0.1753	0.4248	0.077
Mof_C 	C 	0.6996	0.2503	0.3953	0.069
Mof_H 	H 	0.697	0.2405	0.3591	0.027
Mof_C 	C 	0.703	0.3036	0.4091	-0.127
Mof_C 	C 	0.7067	0.316	0.464	0.091
Mof_H 	H 	0.7093	0.3521	0.4742	-0.01
Mof_C 	C 	0.7119	0.0868	0.6713	0.382
Mof_C 	C 	0.7031	0.3473	0.3666	0.332
Mof_O 	O 	0.7141	0.1134	0.7147	-0.287
Mof_O 	O 	0.7004	0.037	0.6651	-0.186
Mof_Co	Co	0.28974	0.7947	0.91481	1.137
Mof_O 	O 	0.301	0.6076	0.7865	-0.128
Mof_O 	O 	0.2615	0.5419	0.8314	-0.159
Mof_O 	O 	0.2924	0.8949	0.1191	-0.378
Mof_O 	O 	0.2999	0.8333	0.18154	-0.389
Mof_N 	N 	0.2919	0.70945	0.91756	-0.224
Mof_N 	N 	0.29349	0.7783	0.99784	-0.247
Mof_C 	C 	0.2904	0.6765	0.8746	0.098
Mof_H 	H 	0.2896	0.6921	0.8404	0.018
Mof_C 	C 	0.29	0.6214	0.8779	-0.135
Mof_C 	C 	0.2934	0.5987	0.9293	0.061
Mof_H 	H 	0.2942	0.5614	0.9336	0.028
Mof_C 	C 	0.2955	0.6326	0.9743	-0.116
Mof_H 	H 	0.2977	0.6179	0.0088	0.072
Mof_C 	C 	0.2941	0.6878	0.9676	0.056
Mof_C 	C 	0.2962	0.7267	0.0128	0.076
Mof_C 	C 	0.3	0.7116	0.0659	-0.136
Mof_H 	H 	0.3024	0.6753	0.0752	0.077
Mof_C 	C 	0.3004	0.7503	0.1047	0.069
Mof_H 	H 	0.303	0.7405	0.1409	0.027
Mof_C 	C 	0.297	0.8036	0.0909	-0.127
Mof_C 	C 	0.2933	0.816	0.036	0.091
Mof_H 	H 	0.2907	0.8521	0.0258	-0.01
Mof_C 	C 	0.2881	0.5868	0.8287	0.382
Mof_C 	C 	0.2969	0.8473	0.1334	0.332
Mof_O 	O 	0.2859	0.6134	0.7853	-0.287
Mof_O 	O 	0.2996	0.537	0.8349	-0.186
Mof_Co	Co	0.58519	0.78974	0.7947	1.137
Mof_O 	O 	0.7135	0.801	0.6076	-0.128
Mof_O 	O 	0.6686	0.7615	0.5419	-0.159
Mof_O 	O 	0.3809	0.7924	0.8949	-0.378
Mof_O 	O 	0.31846	0.7999	0.8333	-0.389
Mof_N 	N 	0.58244	0.7919	0.70945	-0.224
Mof_N 	N 	0.50216	0.79349	0.7783	-0.247
Mof_C 	C 	0.6254	0.7904	0.6765	0.098
Mof_H 	H 	0.6596	0.7896	0.6921	0.018
Mof_C 	C 	0.6221	0.79	0.6214	-0.135
Mof_C 	C 	0.5707	0.7934	0.5987	0.061
Mof_H 	H 	0.5664	0.7942	0.5614	0.028
Mof_C 	C 	0.5257	0.7955	0.6326	-0.116
Mof_H 	H 	0.4912	0.7977	0.6179	0.072
Mof_C 	C 	0.5324	0.7941	0.6878	0.056
Mof_C 	C 	0.4872	0.7962	0.7267	0.076
Mof_C 	C 	0.4341	0.8	0.7116	-0.136
Mof_H 	H 	0.4248	0.8024	0.6753	0.077
Mof_C 	C 	0.3953	0.8004	0.7503	0.069
Mof_H 	H 	0.3591	0.803	0.7405	0.027
Mof_C 	C 	0.4091	0.797	0.8036	-0.127
Mof_C 	C 	0.464	0.7933	0.816	0.091
Mof_H 	H 	0.4742	0.7907	0.8521	-0.01
Mof_C 	C 	0.6713	0.7881	0.5868	0.382
Mof_C 	C 	0.3666	0.7969	0.8473	0.332
Mof_O 	O 	0.7147	0.7859	0.6134	-0.287
Mof_O 	O 	0.6651	0.7996	0.537	-0.186
Mof_Co	Co	0.91481	0.21026	0.2947	1.137
Mof_O 	O 	0.7865	0.199	0.1076	-0.128
Mof_O 	O 	0.8314	0.2385	0.0419	-0.159
Mof_O 	O 	0.1191	0.2076	0.3949	-0.378
Mof_O 	O 	0.18154	0.2001	0.3333	-0.389
Mof_N 	N 	0.91756	0.2081	0.20945	-0.224
Mof_N 	N 	0.99784	0.20651	0.2783	-0.246
Mof_C 	C 	0.8746	0.2096	0.1765	0.098
Mof_H 	H 	0.8404	0.2104	0.1921	0.018
Mof_C 	C 	0.8779	0.21	0.1214	-0.135
Mof_C 	C 	0.9293	0.2066	0.0987	0.06
Mof_H 	H 	0.9336	0.2058	0.0614	0.028
Mof_C 	C 	0.9743	0.2045	0.1326	-0.115
Mof_H 	H 	0.0088	0.2023	0.1179	0.071
Mof_C 	C 	0.9676	0.2059	0.1878	0.056
Mof_C 	C 	0.0128	0.2038	0.2267	0.075
Mof_C 	C 	0.0659	0.2	0.2116	-0.135
Mof_H 	H 	0.0752	0.1976	0.1753	0.077
Mof_C 	C 	0.1047	0.1996	0.2503	0.068
Mof_H 	H 	0.1409	0.197	0.2405	0.027
Mof_C 	C 	0.0909	0.203	0.3036	-0.127
Mof_C 	C 	0.036	0.2067	0.316	0.09
Mof_H 	H 	0.0258	0.2093	0.3521	-0.01
Mof_C 	C 	0.8287	0.2119	0.0868	0.382
Mof_C 	C 	0.1334	0.2031	0.3473	0.331
Mof_O 	O 	0.7853	0.2141	0.1134	-0.287
Mof_O 	O 	0.8349	0.2004	0.037	-0.186
Mof_Co	Co	0.41481	0.28974	0.7053	1.137
Mof_O 	O 	0.2865	0.301	0.8924	-0.128
Mof_O 	O 	0.3314	0.2615	0.9581	-0.159
Mof_O 	O 	0.6191	0.2924	0.6051	-0.378
Mof_O 	O 	0.68154	0.2999	0.6667	-0.389
Mof_N 	N 	0.41756	0.2919	0.79055	-0.224
Mof_N 	N 	0.49784	0.29349	0.7217	-0.247
Mof_C 	C 	0.3746	0.2904	0.8235	0.098
Mof_H 	H 	0.3404	0.2896	0.8079	0.018
Mof_C 	C 	0.3779	0.29	0.8786	-0.135
Mof_C 	C 	0.4293	0.2934	0.9013	0.061
Mof_H 	H 	0.4336	0.2942	0.9386	0.028
Mof_C 	C 	0.4743	0.2955	0.8674	-0.116
Mof_H 	H 	0.5088	0.2977	0.8821	0.072
Mof_C 	C 	0.4676	0.2941	0.8122	0.056
Mof_C 	C 	0.5128	0.2962	0.7733	0.076
Mof_C 	C 	0.5659	0.3	0.7884	-0.136
Mof_H 	H 	0.5752	0.3024	0.8247	0.077
Mof_C 	C 	0.6047	0.3004	0.7497	0.069
Mof_H 	H 	0.6409	0.303	0.7595	0.027
Mof_C 	C 	0.5909	0.297	0.6964	-0.127
Mof_C 	C 	0.536	0.2933	0.684	0.091
Mof_H 	H 	0.5258	0.2907	0.6479	-0.01
Mof_C 	C 	0.3287	0.2881	0.9132	0.382
Mof_C 	C 	0.6334	0.2969	0.6527	0.332
Mof_O 	O 	0.2853	0.2859	0.8866	-0.287
Mof_O 	O 	0.3349	0.2996	0.963	-0.186
Mof_Co	Co	0.08519	0.71026	0.2053	1.137
Mof_O 	O 	0.2135	0.699	0.3924	-0.128
Mof_O 	O 	0.1686	0.7385	0.4581	-0.159
Mof_O 	O 	0.8809	0.7076	0.1051	-0.378
Mof_O 	O 	0.81846	0.7001	0.1667	-0.389
Mof_N 	N 	0.08244	0.7081	0.29055	-0.224
Mof_N 	N 	0.00216	0.70651	0.2217	-0.247
Mof_C 	C 	0.1254	0.7096	0.3235	0.098
Mof_H 	H 	0.1596	0.7104	0.3079	0.018
Mof_C 	C 	0.1221	0.71	0.3786	-0.135
Mof_C 	C 	0.0707	0.7066	0.4013	0.061
Mof_H 	H 	0.0664	0.7058	0.4386	0.028
Mof_C 	C 	0.0257	0.7045	0.3674	-0.116
Mof_H 	H 	0.9912	0.7023	0.3821	0.072
Mof_C 	C 	0.0324	0.7059	0.3122	0.056
Mof_C 	C 	0.9872	0.7038	0.2733	0.076
Mof_C 	C 	0.9341	0.7	0.2884	-0.136
Mof_H 	H 	0.9248	0.6976	0.3247	0.077
Mof_C 	C 	0.8953	0.6996	0.2497	0.069
Mof_H 	H 	0.8591	0.697	0.2595	0.027
Mof_C 	C 	0.9091	0.703	0.1964	-0.127
Mof_C 	C 	0.964	0.7067	0.184	0.091
Mof_H 	H 	0.9742	0.7093	0.1479	-0.01
Mof_C 	C 	0.1713	0.7119	0.4132	0.382
Mof_C 	C 	0.8666	0.7031	0.1527	0.332
Mof_O 	O 	0.2147	0.7141	0.3866	-0.287
Mof_O 	O 	0.1651	0.7004	0.463	-0.186
Mof_Co	Co	0.7947	0.58519	0.78974	1.137
Mof_O 	O 	0.6076	0.7135	0.801	-0.128
Mof_O 	O 	0.5419	0.6686	0.7615	-0.159
Mof_O 	O 	0.8949	0.3809	0.7924	-0.378
Mof_O 	O 	0.8333	0.31846	0.7999	-0.389
Mof_N 	N 	0.70945	0.58244	0.7919	-0.224
Mof_N 	N 	0.7783	0.50216	0.79349	-0.247
Mof_C 	C 	0.6765	0.6254	0.7904	0.098
Mof_H 	H 	0.6921	0.6596	0.7896	0.018
Mof_C 	C 	0.6214	0.6221	0.79	-0.135
Mof_C 	C 	0.5987	0.5707	0.7934	0.061
Mof_H 	H 	0.5614	0.5664	0.7942	0.028
Mof_C 	C 	0.6326	0.5257	0.7955	-0.116
Mof_H 	H 	0.6179	0.4912	0.7977	0.072
Mof_C 	C 	0.6878	0.5324	0.7941	0.056
Mof_C 	C 	0.7267	0.4872	0.7962	0.076
Mof_C 	C 	0.7116	0.4341	0.8	-0.136
Mof_H 	H 	0.6753	0.4248	0.8024	0.077
Mof_C 	C 	0.7503	0.3953	0.8004	0.069
Mof_H 	H 	0.7405	0.3591	0.803	0.027
Mof_C 	C 	0.8036	0.4091	0.797	-0.127
Mof_C 	C 	0.816	0.464	0.7933	0.091
Mof_H 	H 	0.8521	0.4742	0.7907	-0.01
Mof_C 	C 	0.5868	0.6713	0.7881	0.382
Mof_C 	C 	0.8473	0.3666	0.7969	0.332
Mof_O 	O 	0.6134	0.7147	0.7859	-0.287
Mof_O 	O 	0.537	0.6651	0.7996	-0.186
Mof_Co	Co	0.2947	0.91481	0.21026	1.137
Mof_O 	O 	0.1076	0.7865	0.199	-0.128
Mof_O 	O 	0.0419	0.8314	0.2385	-0.159
Mof_O 	O 	0.3949	0.1191	0.2076	-0.378
Mof_O 	O 	0.3333	0.18154	0.2001	-0.389
Mof_N 	N 	0.20945	0.91756	0.2081	-0.224
Mof_N 	N 	0.2783	0.99784	0.20651	-0.246
Mof_C 	C 	0.1765	0.8746	0.2096	0.098
Mof_H 	H 	0.1921	0.8404	0.2104	0.018
Mof_C 	C 	0.1214	0.8779	0.21	-0.135
Mof_C 	C 	0.0987	0.9293	0.2066	0.06
Mof_H 	H 	0.0614	0.9336	0.2058	0.028
Mof_C 	C 	0.1326	0.9743	0.2045	-0.115
Mof_H 	H 	0.1179	0.0088	0.2023	0.071
Mof_C 	C 	0.1878	0.9676	0.2059	0.056
Mof_C 	C 	0.2267	0.0128	0.2038	0.075
Mof_C 	C 	0.2116	0.0659	0.2	-0.135
Mof_H 	H 	0.1753	0.0752	0.1976	0.077
Mof_C 	C 	0.2503	0.1047	0.1996	0.068
Mof_H 	H 	0.2405	0.1409	0.197	0.027
Mof_C 	C 	0.3036	0.0909	0.203	-0.127
Mof_C 	C 	0.316	0.036	0.2067	0.09
Mof_H 	H 	0.3521	0.0258	0.2093	-0.01
Mof_C 	C 	0.0868	0.8287	0.2119	0.382
Mof_C 	C 	0.3473	0.1334	0.2031	0.331
Mof_O 	O 	0.1134	0.7853	0.2141	-0.287
Mof_O 	O 	0.037	0.8349	0.2004	-0.186
Mof_Co	Co	0.7053	0.41481	0.28974	1.137
Mof_O 	O 	0.8924	0.2865	0.301	-0.128
Mof_O 	O 	0.9581	0.3314	0.2615	-0.159
Mof_O 	O 	0.6051	0.6191	0.2924	-0.378
Mof_O 	O 	0.6667	0.68154	0.2999	-0.389
Mof_N 	N 	0.79055	0.41756	0.2919	-0.224
Mof_N 	N 	0.7217	0.49784	0.29349	-0.247
Mof_C 	C 	0.8235	0.3746	0.2904	0.098
Mof_H 	H 	0.8079	0.3404	0.2896	0.018
Mof_C 	C 	0.8786	0.3779	0.29	-0.135
Mof_C 	C 	0.9013	0.4293	0.2934	0.061
Mof_H 	H 	0.9386	0.4336	0.2942	0.028
Mof_C 	C 	0.8674	0.4743	0.2955	-0.116
Mof_H 	H 	0.8821	0.5088	0.2977	0.072
Mof_C 	C 	0.8122	0.4676	0.2941	0.056
Mof_C 	C 	0.7733	0.5128	0.2962	0.076
Mof_C 	C 	0.7884	0.5659	0.3	-0.136
Mof_H 	H 	0.8247	0.5752	0.3024	0.077
Mof_C 	C 	0.7497	0.6047	0.3004	0.069
Mof_H 	H 	0.7595	0.6409	0.303	0.027
Mof_C 	C 	0.6964	0.5909	0.297	-0.127
Mof_C 	C 	0.684	0.536	0.2933	0.091
Mof_H 	H 	0.6479	0.5258	0.2907	-0.01
Mof_C 	C 	0.9132	0.3287	0.2881	0.382
Mof_C 	C 	0.6527	0.6334	0.2969	0.332
Mof_O 	O 	0.8866	0.2853	0.2859	-0.287
Mof_O 	O 	0.963	0.3349	0.2996	-0.186
Mof_Co	Co	0.2053	0.08519	0.71026	1.137
Mof_O 	O 	0.3924	0.2135	0.699	-0.128
Mof_O 	O 	0.4581	0.1686	0.7385	-0.159
Mof_O 	O 	0.1051	0.8809	0.7076	-0.378
Mof_O 	O 	0.1667	0.81846	0.7001	-0.389
Mof_N 	N 	0.29055	0.08244	0.7081	-0.224
Mof_N 	N 	0.2217	0.00216	0.70651	-0.247
Mof_C 	C 	0.3235	0.1254	0.7096	0.098
Mof_H 	H 	0.3079	0.1596	0.7104	0.018
Mof_C 	C 	0.3786	0.1221	0.71	-0.135
Mof_C 	C 	0.4013	0.0707	0.7066	0.061
Mof_H 	H 	0.4386	0.0664	0.7058	0.028
Mof_C 	C 	0.3674	0.0257	0.7045	-0.116
Mof_H 	H 	0.3821	0.9912	0.7023	0.072
Mof_C 	C 	0.3122	0.0324	0.7059	0.056
Mof_C 	C 	0.2733	0.9872	0.7038	0.076
Mof_C 	C 	0.2884	0.9341	0.7	-0.136
Mof_H 	H 	0.3247	0.9248	0.6976	0.077
Mof_C 	C 	0.2497	0.8953	0.6996	0.069
Mof_H 	H 	0.2595	0.8591	0.697	0.027
Mof_C 	C 	0.1964	0.9091	0.703	-0.127
Mof_C 	C 	0.184	0.964	0.7067	0.091
Mof_H 	H 	0.1479	0.9742	0.7093	-0.01
Mof_C 	C 	0.4132	0.1713	0.7119	0.382
Mof_C 	C 	0.1527	0.8666	0.7031	0.332
Mof_O 	O 	0.3866	0.2147	0.7141	-0.287
Mof_O 	O 	0.463	0.1651	0.7004	-0.186
Mof_Co	Co	0.78974	0.7947	0.58519	1.137
Mof_O 	O 	0.801	0.6076	0.7135	-0.128
Mof_O 	O 	0.7615	0.5419	0.6686	-0.159
Mof_O 	O 	0.7924	0.8949	0.3809	-0.378
Mof_O 	O 	0.7999	0.8333	0.31846	-0.389
Mof_N 	N 	0.7919	0.70945	0.58244	-0.224
Mof_N 	N 	0.79349	0.7783	0.50216	-0.247
Mof_C 	C 	0.7904	0.6765	0.6254	0.098
Mof_H 	H 	0.7896	0.6921	0.6596	0.018
Mof_C 	C 	0.79	0.6214	0.6221	-0.135
Mof_C 	C 	0.7934	0.5987	0.5707	0.061
Mof_H 	H 	0.7942	0.5614	0.5664	0.028
Mof_C 	C 	0.7955	0.6326	0.5257	-0.116
Mof_H 	H 	0.7977	0.6179	0.4912	0.072
Mof_C 	C 	0.7941	0.6878	0.5324	0.056
Mof_C 	C 	0.7962	0.7267	0.4872	0.076
Mof_C 	C 	0.8	0.7116	0.4341	-0.136
Mof_H 	H 	0.8024	0.6753	0.4248	0.077
Mof_C 	C 	0.8004	0.7503	0.3953	0.069
Mof_H 	H 	0.803	0.7405	0.3591	0.027
Mof_C 	C 	0.797	0.8036	0.4091	-0.127
Mof_C 	C 	0.7933	0.816	0.464	0.091
Mof_H 	H 	0.7907	0.8521	0.4742	-0.01
Mof_C 	C 	0.7881	0.5868	0.6713	0.382
Mof_C 	C 	0.7969	0.8473	0.3666	0.332
Mof_O 	O 	0.7859	0.6134	0.7147	-0.287
Mof_O 	O 	0.7996	0.537	0.6651	-0.186
Mof_Co	Co	0.21026	0.2947	0.91481	1.137
Mof_O 	O 	0.199	0.1076	0.7865	-0.128
Mof_O 	O 	0.2385	0.0419	0.8314	-0.159
Mof_O 	O 	0.2076	0.3949	0.1191	-0.378
Mof_O 	O 	0.2001	0.3333	0.18154	-0.389
Mof_N 	N 	0.2081	0.20945	0.91756	-0.224
Mof_N 	N 	0.20651	0.2783	0.99784	-0.246
Mof_C 	C 	0.2096	0.1765	0.8746	0.098
Mof_H 	H 	0.2104	0.1921	0.8404	0.018
Mof_C 	C 	0.21	0.1214	0.8779	-0.135
Mof_C 	C 	0.2066	0.0987	0.9293	0.06
Mof_H 	H 	0.2058	0.0614	0.9336	0.028
Mof_C 	C 	0.2045	0.1326	0.9743	-0.115
Mof_H 	H 	0.2023	0.1179	0.0088	0.071
Mof_C 	C 	0.2059	0.1878	0.9676	0.056
Mof_C 	C 	0.2038	0.2267	0.0128	0.075
Mof_C 	C 	0.2	0.2116	0.0659	-0.135
Mof_H 	H 	0.1976	0.1753	0.0752	0.077
Mof_C 	C 	0.1996	0.2503	0.1047	0.068
Mof_H 	H 	0.197	0.2405	0.1409	0.027
Mof_C 	C 	0.203	0.3036	0.0909	-0.127
Mof_C 	C 	0.2067	0.316	0.036	0.09
Mof_H 	H 	0.2093	0.3521	0.0258	-0.01
Mof_C 	C 	0.2119	0.0868	0.8287	0.382
Mof_C 	C 	0.2031	0.3473	0.1334	0.331
Mof_O 	O 	0.2141	0.1134	0.7853	-0.287
Mof_O 	O 	0.2004	0.037	0.8349	-0.186
Mof_Co	Co	0.28974	0.7053	0.41481	1.137
Mof_O 	O 	0.301	0.8924	0.2865	-0.128
Mof_O 	O 	0.2615	0.9581	0.3314	-0.159
Mof_O 	O 	0.2924	0.6051	0.6191	-0.378
Mof_O 	O 	0.2999	0.6667	0.68154	-0.389
Mof_N 	N 	0.2919	0.79055	0.41756	-0.224
Mof_N 	N 	0.29349	0.7217	0.49784	-0.247
Mof_C 	C 	0.2904	0.8235	0.3746	0.098
Mof_H 	H 	0.2896	0.8079	0.3404	0.018
Mof_C 	C 	0.29	0.8786	0.3779	-0.135
Mof_C 	C 	0.2934	0.9013	0.4293	0.061
Mof_H 	H 	0.2942	0.9386	0.4336	0.028
Mof_C 	C 	0.2955	0.8674	0.4743	-0.116
Mof_H 	H 	0.2977	0.8821	0.5088	0.072
Mof_C 	C 	0.2941	0.8122	0.4676	0.056
Mof_C 	C 	0.2962	0.7733	0.5128	0.076
Mof_C 	C 	0.3	0.7884	0.5659	-0.136
Mof_H 	H 	0.3024	0.8247	0.5752	0.077
Mof_C 	C 	0.3004	0.7497	0.6047	0.069
Mof_H 	H 	0.303	0.7595	0.6409	0.027
Mof_C 	C 	0.297	0.6964	0.5909	-0.127
Mof_C 	C 	0.2933	0.684	0.536	0.091
Mof_H 	H 	0.2907	0.6479	0.5258	-0.01
Mof_C 	C 	0.2881	0.9132	0.3287	0.382
Mof_C 	C 	0.2969	0.6527	0.6334	0.332
Mof_O 	O 	0.2859	0.8866	0.2853	-0.287
Mof_O 	O 	0.2996	0.963	0.3349	-0.186
Mof_Co	Co	0.71026	0.2053	0.08519	1.137
Mof_O 	O 	0.699	0.3924	0.2135	-0.128
Mof_O 	O 	0.7385	0.4581	0.1686	-0.159
Mof_O 	O 	0.7076	0.1051	0.8809	-0.378
Mof_O 	O 	0.7001	0.1667	0.81846	-0.389
Mof_N 	N 	0.7081	0.29055	0.08244	-0.224
Mof_N 	N 	0.70651	0.2217	0.00216	-0.247
Mof_C 	C 	0.7096	0.3235	0.1254	0.098
Mof_H 	H 	0.7104	0.3079	0.1596	0.018
Mof_C 	C 	0.71	0.3786	0.1221	-0.135
Mof_C 	C 	0.7066	0.4013	0.0707	0.061
Mof_H 	H 	0.7058	0.4386	0.0664	0.028
Mof_C 	C 	0.7045	0.3674	0.0257	-0.116
Mof_H 	H 	0.7023	0.3821	0.9912	0.072
Mof_C 	C 	0.7059	0.3122	0.0324	0.056
Mof_C 	C 	0.7038	0.2733	0.9872	0.076
Mof_C 	C 	0.7	0.2884	0.9341	-0.136
Mof_H 	H 	0.6976	0.3247	0.9248	0.077
Mof_C 	C 	0.6996	0.2497	0.8953	0.069
Mof_H 	H 	0.697	0.2595	0.8591	0.027
Mof_C 	C 	0.703	0.1964	0.9091	-0.127
Mof_C 	C 	0.7067	0.184	0.964	0.091
Mof_H 	H 	0.7093	0.1479	0.9742	-0.01
Mof_C 	C 	0.7119	0.4132	0.1713	0.382
Mof_C 	C 	0.7031	0.1527	0.8666	0.332
Mof_O 	O 	0.7141	0.3866	0.2147	-0.287
Mof_O 	O 	0.7004	0.463	0.1651	-0.186
_end
