data_functionalizedCrystal
_audit_creation_method	'EQeq! by Chris Wilmer'
_symmetry_space_group_name_H-M	'P1'
_symmetry_Int_Tables_number	1
_symmetry_cell_setting	triclinic
loop_
_symmetry_equiv_pos_as_xyz
  x,y,z
_cell_length_a	5.9953
_cell_length_b	11.9355
_cell_length_c	23.368
_cell_angle_alpha	90
_cell_angle_beta	97.076
_cell_angle_gamma	90
loop_
_atom_site_label
_atom_site_type_symbol
_atom_site_fract_x
_atom_site_fract_y
_atom_site_fract_z
_atom_site_charge
Mof_Gd	Gd	0.61423	0.14572	0.04399	1.585
Mof_O 	O 	0.508	0.8349	0.1548	-0.291
Mof_O 	O 	0.621	0.9327	0.0355	-0.542
Mof_O 	O 	0.845	0.007	0.1068	-0.399
Mof_O 	O 	0.295	0.7202	0.0293	-0.377
Mof_O 	O 	0.123	0.8831	0.028	-0.368
Mof_O 	O 	0.539	0.7443	0.4119	-0.364
Mof_O 	O 	0.827	0.7328	0.3614	-0.381
Mof_C 	C 	0.684	0.7644	0.1439	0.256
Mof_C 	C 	0.824	0.8097	0.1052	-0.202
Mof_C 	C 	0.999	0.7416	0.0908	0.05
Mof_C 	C 	0.044	0.639	0.1152	-0.143
Mof_H 	H 	0.1726	0.5979	0.108	0.089
Mof_C 	C 	0.896	0.5969	0.1509	0.108
Mof_H 	H 	0.9206	0.524	0.1668	-0.001
Mof_C 	C 	0.716	0.658	0.1639	-0.242
Mof_H 	H 	0.6122	0.6255	0.1869	0.117
Mof_C 	C 	0.762	0.9216	0.0805	0.431
Mof_C 	C 	0.152	0.7845	0.0482	0.267
Mof_C 	C 	0.442	0.8372	0.2095	0.236
Mof_C 	C 	0.574	0.7963	0.2598	-0.178
Mof_H 	H 	0.7188	0.7647	0.2583	0.108
Mof_C 	C 	0.481	0.8048	0.3115	0.022
Mof_C 	C 	0.272	0.85	0.3142	-0.114
Mof_H 	H 	0.2085	0.8515	0.3494	0.07
Mof_C 	C 	0.155	0.8936	0.2631	0.089
Mof_H 	H 	0.0139	0.9289	0.265	0.005
Mof_C 	C 	0.235	0.8876	0.212	-0.217
Mof_H 	H 	0.151	0.9171	0.1782	0.132
Mof_C 	C 	0.615	0.7591	0.3624	0.248
Mof_Gd	Gd	0.88577	0.64572	0.45601	1.592
Mof_O 	O 	0.992	0.3349	0.3452	-0.283
Mof_O 	O 	0.879	0.4327	0.4645	-0.542
Mof_O 	O 	0.655	0.507	0.3932	-0.397
Mof_O 	O 	0.205	0.2202	0.4707	-0.378
Mof_O 	O 	0.377	0.3831	0.472	-0.369
Mof_O 	O 	0.961	0.2443	0.0881	-0.365
Mof_O 	O 	0.673	0.2328	0.1386	-0.383
Mof_C 	C 	0.816	0.2644	0.3561	0.253
Mof_C 	C 	0.676	0.3097	0.3948	-0.199
Mof_C 	C 	0.501	0.2416	0.4092	0.046
Mof_C 	C 	0.456	0.139	0.3848	-0.137
Mof_H 	H 	0.3274	0.0979	0.392	0.087
Mof_C 	C 	0.604	0.0969	0.3491	0.102
Mof_H 	H 	0.5794	0.024	0.3332	-0
Mof_C 	C 	0.784	0.158	0.3361	-0.237
Mof_H 	H 	0.8878	0.1255	0.3131	0.116
Mof_C 	C 	0.738	0.4216	0.4195	0.43
Mof_C 	C 	0.348	0.2845	0.4518	0.268
Mof_C 	C 	0.058	0.3372	0.2905	0.219
Mof_C 	C 	0.926	0.2963	0.2402	-0.156
Mof_H 	H 	0.7812	0.2647	0.2417	0.101
Mof_C 	C 	0.019	0.3048	0.1885	0.003
Mof_C 	C 	0.228	0.35	0.1858	-0.1
Mof_H 	H 	0.2915	0.3515	0.1506	0.065
Mof_C 	C 	0.345	0.3936	0.2369	0.076
Mof_H 	H 	0.4861	0.4289	0.235	0.01
Mof_C 	C 	0.265	0.3876	0.288	-0.203
Mof_H 	H 	0.349	0.4171	0.3218	0.127
Mof_C 	C 	0.885	0.2591	0.1376	0.257
Mof_Gd	Gd	0.38577	0.85428	0.95601	1.586
Mof_O 	O 	0.492	0.1651	0.8452	-0.29
Mof_O 	O 	0.379	0.0673	0.9645	-0.541
Mof_O 	O 	0.155	0.993	0.8932	-0.398
Mof_O 	O 	0.705	0.2798	0.9707	-0.376
Mof_O 	O 	0.877	0.1169	0.972	-0.367
Mof_O 	O 	0.461	0.2557	0.5881	-0.364
Mof_O 	O 	0.173	0.2672	0.6386	-0.381
Mof_C 	C 	0.316	0.2356	0.8561	0.256
Mof_C 	C 	0.176	0.1903	0.8948	-0.202
Mof_C 	C 	0.001	0.2584	0.9092	0.05
Mof_C 	C 	0.956	0.361	0.8848	-0.143
Mof_H 	H 	0.8274	0.4021	0.892	0.089
Mof_C 	C 	0.104	0.4031	0.8491	0.108
Mof_H 	H 	0.0794	0.476	0.8332	-0.001
Mof_C 	C 	0.284	0.342	0.8361	-0.242
Mof_H 	H 	0.3878	0.3745	0.8131	0.117
Mof_C 	C 	0.238	0.0784	0.9195	0.431
Mof_C 	C 	0.848	0.2155	0.9518	0.267
Mof_C 	C 	0.558	0.1628	0.7905	0.236
Mof_C 	C 	0.426	0.2037	0.7402	-0.178
Mof_H 	H 	0.2812	0.2353	0.7417	0.108
Mof_C 	C 	0.519	0.1952	0.6885	0.022
Mof_C 	C 	0.728	0.15	0.6858	-0.114
Mof_H 	H 	0.7915	0.1485	0.6506	0.07
Mof_C 	C 	0.845	0.1064	0.7369	0.089
Mof_H 	H 	0.9861	0.0711	0.735	0.005
Mof_C 	C 	0.765	0.1124	0.788	-0.217
Mof_H 	H 	0.849	0.0829	0.8218	0.132
Mof_C 	C 	0.385	0.2409	0.6376	0.248
Mof_Gd	Gd	0.11423	0.35428	0.54399	1.592
Mof_O 	O 	0.008	0.6651	0.6548	-0.283
Mof_O 	O 	0.121	0.5673	0.5355	-0.542
Mof_O 	O 	0.345	0.493	0.6068	-0.397
Mof_O 	O 	0.795	0.7798	0.5293	-0.378
Mof_O 	O 	0.623	0.6169	0.528	-0.369
Mof_O 	O 	0.039	0.7557	0.9119	-0.365
Mof_O 	O 	0.327	0.7672	0.8614	-0.383
Mof_C 	C 	0.184	0.7356	0.6439	0.253
Mof_C 	C 	0.324	0.6903	0.6052	-0.199
Mof_C 	C 	0.499	0.7584	0.5908	0.046
Mof_C 	C 	0.544	0.861	0.6152	-0.137
Mof_H 	H 	0.6726	0.9021	0.608	0.087
Mof_C 	C 	0.396	0.9031	0.6509	0.102
Mof_H 	H 	0.4206	0.976	0.6668	-0
Mof_C 	C 	0.216	0.842	0.6639	-0.237
Mof_H 	H 	0.1122	0.8745	0.6869	0.116
Mof_C 	C 	0.262	0.5784	0.5805	0.43
Mof_C 	C 	0.652	0.7155	0.5482	0.268
Mof_C 	C 	0.942	0.6628	0.7095	0.219
Mof_C 	C 	0.074	0.7037	0.7598	-0.156
Mof_H 	H 	0.2188	0.7353	0.7583	0.101
Mof_C 	C 	0.981	0.6952	0.8115	0.003
Mof_C 	C 	0.772	0.65	0.8142	-0.1
Mof_H 	H 	0.7085	0.6485	0.8494	0.065
Mof_C 	C 	0.655	0.6064	0.7631	0.076
Mof_H 	H 	0.5139	0.5711	0.765	0.01
Mof_C 	C 	0.735	0.6124	0.712	-0.203
Mof_H 	H 	0.651	0.5829	0.6782	0.127
Mof_C 	C 	0.115	0.7409	0.8624	0.257
_end
