# CIF file generated by openbabel 3.1.0, see https://openbabel.org
data_I
_chemical_name_common 'image0'
_cell_length_a 16.1048
_cell_length_b 8.2564
_cell_length_c 22.9979
_cell_angle_alpha 90
_cell_angle_beta 103.995
_cell_angle_gamma 90
_space_group_name_H-M_alt 'P 1'
_space_group_name_Hall 'P 1'
loop_
    _symmetry_equiv_pos_as_xyz
    x,y,z
loop_
    _atom_site_label
    _atom_site_type_symbol
    _atom_site_fract_x
    _atom_site_fract_y
    _atom_site_fract_z
    _atom_site_occupancy
    Zn1      Zn       0.30150    0.15520    0.42620    1.000
    Zn2      Zn       0.64890    0.34980    0.42730    1.000
    Zn3      Zn       0.26400    0.38240    0.30450    1.000
    P1       P        0.68090    0.51070    0.31070    1.000
    P2       P        0.23200    0.49040    0.45590    1.000
    P3       P        0.44830    0.28910    0.36700    1.000
    O1       O        0.24390    0.36120    0.41030    1.000
    O2       O        0.17110    0.42350    0.49250    1.000
    O3       O        0.40990    0.15850    0.40150    1.000
    O4       O        0.71350    0.49430    0.38100    1.000
    O5       O        0.47480    0.20300    0.31510    1.000
    O6       O        0.58510    0.48400    0.29470    1.000
    O7       O        0.18920    0.63410    0.41800    1.000
    O8       O        0.52550    0.37150    0.40990    1.000
    O9       O        0.31790    0.53600    0.49680    1.000
    O10      O        0.38140    0.42120    0.34380    1.000
    O11      O        0.70560    0.67750    0.29280    1.000
    O12      O        0.72740    0.37920    0.28280    1.000
    Zn4      Zn       0.80150    0.65520    0.42620    1.000
    Zn5      Zn       0.14890    0.84980    0.42730    1.000
    Zn6      Zn       0.76400    0.88240    0.30450    1.000
    P4       P        0.18090    0.01070    0.31070    1.000
    P5       P        0.73200    0.99040    0.45590    1.000
    P6       P        0.94830    0.78910    0.36700    1.000
    O13      O        0.74390    0.86120    0.41030    1.000
    O14      O        0.67110    0.92350    0.49250    1.000
    O15      O        0.90990    0.65850    0.40150    1.000
    O16      O        0.21350    0.99430    0.38100    1.000
    O17      O        0.97480    0.70300    0.31510    1.000
    O18      O        0.08510    0.98400    0.29470    1.000
    O19      O        0.68920    0.13410    0.41800    1.000
    O20      O        0.02550    0.87150    0.40990    1.000
    O21      O        0.81790    0.03600    0.49680    1.000
    O22      O        0.88140    0.92120    0.34380    1.000
    O23      O        0.20560    0.17750    0.29280    1.000
    O24      O        0.22740    0.87920    0.28280    1.000
    Zn7      Zn       0.69850    0.15520    0.07380    1.000
    Zn8      Zn       0.35110    0.34980    0.07270    1.000
    Zn9      Zn       0.73600    0.38240    0.19550    1.000
    P7       P        0.31910    0.51070    0.18930    1.000
    P8       P        0.76800    0.49040    0.04410    1.000
    P9       P        0.55170    0.28910    0.13300    1.000
    O25      O        0.75610    0.36120    0.08970    1.000
    O26      O        0.82890    0.42350    0.00750    1.000
    O27      O        0.59010    0.15850    0.09850    1.000
    O28      O        0.28650    0.49430    0.11900    1.000
    O29      O        0.52520    0.20300    0.18490    1.000
    O30      O        0.41490    0.48400    0.20530    1.000
    O31      O        0.81080    0.63410    0.08200    1.000
    O32      O        0.47450    0.37150    0.09010    1.000
    O33      O        0.68210    0.53600    0.00320    1.000
    O34      O        0.61860    0.42120    0.15620    1.000
    O35      O        0.29440    0.67750    0.20720    1.000
    O36      O        0.27260    0.37920    0.21720    1.000
    Zn10     Zn       0.19850    0.65520    0.07380    1.000
    Zn11     Zn       0.85110    0.84980    0.07270    1.000
    Zn12     Zn       0.23600    0.88240    0.19550    1.000
    P10      P        0.81910    0.01070    0.18930    1.000
    P11      P        0.26800    0.99040    0.04410    1.000
    P12      P        0.05170    0.78910    0.13300    1.000
    O37      O        0.25610    0.86120    0.08970    1.000
    O38      O        0.32890    0.92350    0.00750    1.000
    O39      O        0.09010    0.65850    0.09850    1.000
    O40      O        0.78650    0.99430    0.11900    1.000
    O41      O        0.02520    0.70300    0.18490    1.000
    O42      O        0.91490    0.98400    0.20530    1.000
    O43      O        0.31080    0.13410    0.08200    1.000
    O44      O        0.97450    0.87150    0.09010    1.000
    O45      O        0.18210    0.03600    0.00320    1.000
    O46      O        0.11860    0.92120    0.15620    1.000
    O47      O        0.79440    0.17750    0.20720    1.000
    O48      O        0.77260    0.87920    0.21720    1.000
    Zn13     Zn       0.69850    0.84480    0.57380    1.000
    Zn14     Zn       0.35110    0.65020    0.57270    1.000
    Zn15     Zn       0.73600    0.61760    0.69550    1.000
    P13      P        0.31910    0.48930    0.68930    1.000
    P14      P        0.76800    0.50960    0.54410    1.000
    P15      P        0.55170    0.71090    0.63300    1.000
    O49      O        0.75610    0.63880    0.58970    1.000
    O50      O        0.82890    0.57650    0.50750    1.000
    O51      O        0.59010    0.84150    0.59850    1.000
    O52      O        0.28650    0.50570    0.61900    1.000
    O53      O        0.52520    0.79700    0.68490    1.000
    O54      O        0.41490    0.51600    0.70530    1.000
    O55      O        0.81080    0.36590    0.58200    1.000
    O56      O        0.47450    0.62850    0.59010    1.000
    O57      O        0.68210    0.46400    0.50320    1.000
    O58      O        0.61860    0.57880    0.65620    1.000
    O59      O        0.29440    0.32250    0.70720    1.000
    O60      O        0.27260    0.62080    0.71720    1.000
    Zn16     Zn       0.19850    0.34480    0.57380    1.000
    Zn17     Zn       0.85110    0.15020    0.57270    1.000
    Zn18     Zn       0.23600    0.11760    0.69550    1.000
    P16      P        0.81910    0.98930    0.68930    1.000
    P17      P        0.26800    0.00960    0.54410    1.000
    P18      P        0.05170    0.21090    0.63300    1.000
    O61      O        0.25610    0.13880    0.58970    1.000
    O62      O        0.32890    0.07650    0.50750    1.000
    O63      O        0.09010    0.34150    0.59850    1.000
    O64      O        0.78650    0.00570    0.61900    1.000
    O65      O        0.02520    0.29700    0.68490    1.000
    O66      O        0.91490    0.01600    0.70530    1.000
    O67      O        0.31080    0.86590    0.58200    1.000
    O68      O        0.97450    0.12850    0.59010    1.000
    O69      O        0.18210    0.96400    0.50320    1.000
    O70      O        0.11860    0.07880    0.65620    1.000
    O71      O        0.79440    0.82250    0.70720    1.000
    O72      O        0.77260    0.12080    0.71720    1.000
    Zn19     Zn       0.30150    0.84480    0.92620    1.000
    Zn20     Zn       0.64890    0.65020    0.92730    1.000
    Zn21     Zn       0.26400    0.61760    0.80450    1.000
    P19      P        0.68090    0.48930    0.81070    1.000
    P20      P        0.23200    0.50960    0.95590    1.000
    P21      P        0.44830    0.71090    0.86700    1.000
    O73      O        0.24390    0.63880    0.91030    1.000
    O74      O        0.17110    0.57650    0.99250    1.000
    O75      O        0.40990    0.84150    0.90150    1.000
    O76      O        0.71350    0.50570    0.88100    1.000
    O77      O        0.47480    0.79700    0.81510    1.000
    O78      O        0.58510    0.51600    0.79470    1.000
    O79      O        0.18920    0.36590    0.91800    1.000
    O80      O        0.52550    0.62850    0.90990    1.000
    O81      O        0.31790    0.46400    0.99680    1.000
    O82      O        0.38140    0.57880    0.84380    1.000
    O83      O        0.70560    0.32250    0.79280    1.000
    O84      O        0.72740    0.62080    0.78280    1.000
    Zn22     Zn       0.80150    0.34480    0.92620    1.000
    Zn23     Zn       0.14890    0.15020    0.92730    1.000
    Zn24     Zn       0.76400    0.11760    0.80450    1.000
    P22      P        0.18090    0.98930    0.81070    1.000
    P23      P        0.73200    0.00960    0.95590    1.000
    P24      P        0.94830    0.21090    0.86700    1.000
    O85      O        0.74390    0.13880    0.91030    1.000
    O86      O        0.67110    0.07650    0.99250    1.000
    O87      O        0.90990    0.34150    0.90150    1.000
    O88      O        0.21350    0.00570    0.88100    1.000
    O89      O        0.97480    0.29700    0.81510    1.000
    O90      O        0.08510    0.01600    0.79470    1.000
    O91      O        0.68920    0.86590    0.91800    1.000
    O92      O        0.02550    0.12850    0.90990    1.000
    O93      O        0.81790    0.96400    0.99680    1.000
    O94      O        0.88140    0.07880    0.84380    1.000
    O95      O        0.20560    0.82250    0.79280    1.000
    O96      O        0.22740    0.12080    0.78280    1.000
    Zn25     Zn       0.50000    0.33000    0.25000    1.000
    Zn26     Zn       0.00000    0.83000    0.25000    1.000
    Zn27     Zn       0.50000    0.67000    0.75000    1.000
    Zn28     Zn       0.00000    0.17000    0.75000    1.000
