data_functionalizedCrystal
_audit_creation_method	'EQeq! by Chris Wilmer'
_symmetry_space_group_name_H-M	'P1'
_symmetry_Int_Tables_number	1
_symmetry_cell_setting	triclinic
loop_
_symmetry_equiv_pos_as_xyz
  x,y,z
_cell_length_a	13.1026
_cell_length_b	13.1026
_cell_length_c	13.1026
_cell_angle_alpha	90
_cell_angle_beta	90
_cell_angle_gamma	90
loop_
_atom_site_label
_atom_site_type_symbol
_atom_site_fract_x
_atom_site_fract_y
_atom_site_fract_z
_atom_site_charge
Mof_N 	N 	0.6366	0.933	0.95382	-0.007
Mof_N 	N 	0.71529	0.97901	0.95863	0.105
Mof_N 	N 	0.79281	0.02178	0.96191	-0.196
Mof_N 	N 	0.8634	0.067	0.45382	-0.082
Mof_N 	N 	0.78471	0.02099	0.45863	-0.151
Mof_N 	N 	0.70719	0.97822	0.46191	-0.142
Mof_N 	N 	0.3634	0.433	0.54618	-0.169
Mof_N 	N 	0.28471	0.47901	0.54137	-0.053
Mof_N 	N 	0.20719	0.52178	0.53809	-0.308
Mof_N 	N 	0.1366	0.567	0.04618	-0.194
Mof_N 	N 	0.21529	0.52099	0.04137	-0.073
Mof_N 	N 	0.29281	0.47822	0.03809	-0.335
Mof_N 	N 	0.95382	0.6366	0.933	-0.006
Mof_N 	N 	0.95863	0.71529	0.97901	0.105
Mof_N 	N 	0.96191	0.79281	0.02178	-0.196
Mof_N 	N 	0.45382	0.8634	0.067	-0.082
Mof_N 	N 	0.45863	0.78471	0.02099	-0.151
Mof_N 	N 	0.46191	0.70719	0.97822	-0.142
Mof_N 	N 	0.54618	0.3634	0.433	-0.169
Mof_N 	N 	0.54137	0.28471	0.47901	-0.053
Mof_N 	N 	0.53809	0.20719	0.52178	-0.308
Mof_N 	N 	0.04618	0.1366	0.567	-0.194
Mof_N 	N 	0.04137	0.21529	0.52099	-0.073
Mof_N 	N 	0.03809	0.29281	0.47822	-0.335
Mof_N 	N 	0.933	0.95382	0.6366	-0.006
Mof_N 	N 	0.97901	0.95863	0.71529	0.105
Mof_N 	N 	0.02178	0.96191	0.79281	-0.196
Mof_N 	N 	0.067	0.45382	0.8634	-0.082
Mof_N 	N 	0.02099	0.45863	0.78471	-0.151
Mof_N 	N 	0.97822	0.46191	0.70719	-0.142
Mof_N 	N 	0.433	0.54618	0.3634	-0.169
Mof_N 	N 	0.47901	0.54137	0.28471	-0.053
Mof_N 	N 	0.52178	0.53809	0.20719	-0.308
Mof_N 	N 	0.567	0.04618	0.1366	-0.194
Mof_N 	N 	0.52099	0.04137	0.21529	-0.073
Mof_N 	N 	0.47822	0.03809	0.29281	-0.335
Mof_N 	N 	0.3634	0.067	0.04618	-0.179
Mof_N 	N 	0.28471	0.02099	0.04137	-0.185
Mof_N 	N 	0.20719	0.97822	0.03809	-0.102
Mof_N 	N 	0.1366	0.933	0.54618	-0.116
Mof_N 	N 	0.21529	0.97901	0.54137	0.073
Mof_N 	N 	0.29281	0.02178	0.53809	-0.408
Mof_N 	N 	0.6366	0.567	0.45382	-0.154
Mof_N 	N 	0.71529	0.52099	0.45863	-0.044
Mof_N 	N 	0.79281	0.47822	0.46191	-0.254
Mof_N 	N 	0.8634	0.433	0.95382	-0
Mof_N 	N 	0.78471	0.47901	0.95863	-0.01
Mof_N 	N 	0.70719	0.52178	0.96191	-0.215
Mof_N 	N 	0.04618	0.3634	0.067	-0.179
Mof_N 	N 	0.04137	0.28471	0.02099	-0.185
Mof_N 	N 	0.03809	0.20719	0.97822	-0.102
Mof_N 	N 	0.54618	0.1366	0.933	-0.116
Mof_N 	N 	0.54137	0.21529	0.97901	0.073
Mof_N 	N 	0.53809	0.29281	0.02178	-0.408
Mof_N 	N 	0.45382	0.6366	0.567	-0.154
Mof_N 	N 	0.45863	0.71529	0.52099	-0.044
Mof_N 	N 	0.46191	0.79281	0.47822	-0.254
Mof_N 	N 	0.95382	0.8634	0.433	-0
Mof_N 	N 	0.95863	0.78471	0.47901	-0.01
Mof_N 	N 	0.96191	0.70719	0.52178	-0.215
Mof_N 	N 	0.067	0.04618	0.3634	-0.179
Mof_N 	N 	0.02099	0.04137	0.28471	-0.185
Mof_N 	N 	0.97822	0.03809	0.20719	-0.102
Mof_N 	N 	0.933	0.54618	0.1366	-0.116
Mof_N 	N 	0.97901	0.54137	0.21529	0.073
Mof_N 	N 	0.02178	0.53809	0.29281	-0.408
Mof_N 	N 	0.567	0.45382	0.6366	-0.154
Mof_N 	N 	0.52099	0.45863	0.71529	-0.044
Mof_N 	N 	0.47822	0.46191	0.79281	-0.254
Mof_N 	N 	0.433	0.95382	0.8634	-0
Mof_N 	N 	0.47901	0.95863	0.78471	-0.01
Mof_N 	N 	0.52178	0.96191	0.70719	-0.215
Mof_Fe	Fe	0.5	0	-0	0.24
Mof_Fe	Fe	-3.7364e-33	0	0.5	0.24
Mof_Fe	Fe	0.5	0.5	0.5	0.697
Mof_Fe	Fe	-5.6111e-33	0.5	-0	0.24
Mof_K 	K 	-0	0	-0	1.056
Mof_K 	K 	0.5	0	0.5	2.374
Mof_K 	K 	-9.3475e-33	0.5	0.5	2.374
Mof_K 	K 	0.5	0.5	-0	2.374
_end
