# CIF file generated by openbabel 3.1.0, see https://openbabel.org
data_I
_chemical_name_common 'cg0702636-file002_clean'
_cell_length_a 9.1884
_cell_length_b 9.1884
_cell_length_c 12.743
_cell_angle_alpha 90
_cell_angle_beta 90
_cell_angle_gamma 120
_space_group_name_H-M_alt 'P 1'
_space_group_name_Hall 'P 1'
loop_
    _symmetry_equiv_pos_as_xyz
    x,y,z
loop_
    _atom_site_label
    _atom_site_type_symbol
    _atom_site_fract_x
    _atom_site_fract_y
    _atom_site_fract_z
    _atom_site_occupancy
    Cd1      Cd       0.00000    0.63754    0.66667    1.000
    Cd2      Cd       0.36246    0.36246    0.33333    1.000
    Cd3      Cd       0.63754    0.00000    0.00000    1.000
    H1       H        0.82950    0.03600    0.78387    1.000
    H2       H        0.17050    0.20650    0.54947    1.000
    H3       H        0.20650    0.17050    0.11720    1.000
    H4       H        0.03600    0.82950    0.88280    1.000
    H5       H        0.96400    0.79350    0.45053    1.000
    H6       H        0.79350    0.96400    0.21613    1.000
    C1       C        0.22090    0.10090    0.07049    1.000
    C2       C        0.80300    0.31950    0.81047    1.000
    C3       C        0.19700    0.51650    0.52287    1.000
    C4       C        0.36930    0.09510    0.06927    1.000
    C5       C        0.90530    0.90530    0.33333    1.000
    C6       C        0.00000    0.09470    0.66667    1.000
    C7       C        0.88000    0.77910    0.40382    1.000
    C8       C        0.68050    0.48350    0.47713    1.000
    C9       C        0.51650    0.19700    0.14380    1.000
    C10      C        0.48350    0.68050    0.18953    1.000
    C11      C        0.07120    0.07120    0.33333    1.000
    C12      C        0.31950    0.80300    0.85620    1.000
    C13      C        0.63070    0.72580    0.26406    1.000
    C14      C        0.09470    0.00000    0.00000    1.000
    C15      C        0.12000    0.89910    0.92951    1.000
    C16      C        0.09510    0.36930    0.59740    1.000
    C17      C        0.89910    0.12000    0.73716    1.000
    C18      C        0.00000    0.92880    0.66667    1.000
    C19      C        0.77910    0.88000    0.26284    1.000
    C20      C        0.90490    0.27420    0.73594    1.000
    C21      C        0.92880    0.00000    0.00000    1.000
    C22      C        0.10090    0.22090    0.59618    1.000
    C23      C        0.72580    0.63070    0.40260    1.000
    C24      C        0.27420    0.90490    0.93073    1.000
    N1       N        0.60740    0.60740    0.33333    1.000
    N2       N        0.39260    0.00000    0.00000    1.000
    N3       N        0.00000    0.39260    0.66667    1.000
    O1       O        0.50090    0.28680    0.20923    1.000
    O2       O        0.80560    0.88103    0.95646    1.000
    O3       O        0.35560    0.53940    0.20183    1.000
    O4       O        0.53940    0.35560    0.46483    1.000
    O5       O        0.19440    0.07543    0.37687    1.000
    O6       O        0.78590    0.49910    0.54256    1.000
    O7       O        0.18380    0.64440    0.53517    1.000
    O8       O        0.71320    0.21410    0.87590    1.000
    O9       O        0.28680    0.50090    0.45744    1.000
    O10      O        0.11897    0.92457    0.62313    1.000
    O11      O        0.88103    0.80560    0.71021    1.000
    O12      O        0.21410    0.71320    0.79077    1.000
    O13      O        0.46060    0.81620    0.86850    1.000
    O14      O        0.81620    0.46060    0.79817    1.000
    O15      O        0.92457    0.11897    0.04354    1.000
    O16      O        0.07543    0.19440    0.28979    1.000
    O17      O        0.49910    0.78590    0.12410    1.000
    O18      O        0.64440    0.18380    0.13150    1.000
