data_functionalizedCrystal
_audit_creation_method	'EQeq! by Chris Wilmer'
_symmetry_space_group_name_H-M	'P1'
_symmetry_Int_Tables_number	1
_symmetry_cell_setting	triclinic
loop_
_symmetry_equiv_pos_as_xyz
  x,y,z
_cell_length_a	19.458
_cell_length_b	22.577
_cell_length_c	45.763
_cell_angle_alpha	90
_cell_angle_beta	96.352
_cell_angle_gamma	90
loop_
_atom_site_label
_atom_site_type_symbol
_atom_site_fract_x
_atom_site_fract_y
_atom_site_fract_z
_atom_site_charge
Mof_Rh	Rh	0.48822	0.98561	0.42632	0.84
Mof_Rh	Rh	0.52571	0.89217	0.45118	0.801
Mof_Rh	Rh	0.96425	0.35529	0.48121	0.814
Mof_Rh	Rh	0.87636	0.39992	0.50915	0.846
Mof_Rh	Rh	0.32589	0.40014	0.23437	0.806
Mof_Rh	Rh	0.38134	0.40579	0.18892	0.809
Mof_N 	N 	0.4225	0.9379	0.3989	-0.235
Mof_N 	N 	0.467	0.8491	0.4193	-0.187
Mof_N 	N 	0.564	0.9726	0.3997	-0.233
Mof_N 	N 	0.6078	0.8946	0.4278	-0.231
Mof_N 	N 	0.9568	0.2812	0.5055	-0.232
Mof_N 	N 	0.8868	0.3295	0.53632	-0.235
Mof_N 	N 	0.8861	0.3276	0.4512	-0.231
Mof_N 	N 	0.8033	0.3583	0.4815	-0.231
Mof_N 	N 	0.2637	0.4673	0.2201	-0.239
Mof_N 	N 	0.3035	0.4617	0.1736	-0.229
Mof_N 	N 	0.2595	0.3397	0.2136	-0.266
Mof_N 	N 	0.3288	0.3322	0.17473	-0.234
Mof_N 	N 	0.4444	0.0789	0.4139	-0.168
Mof_N 	N 	0.3227	0.26	0.3713	-0.141
Mof_N 	N 	0.2284	0.3195	0.38092	-0.14
Mof_N 	N 	0.2713	0.2476	0.41582	-0.138
Mof_N 	N 	0.0605	0.3323	0.457	-0.166
Mof_N 	N 	0.2995	0.3872	0.2823	-0.17
Mof_N 	N 	0.8046	0.4577	0.53276	-0.173
Mof_N 	N 	0.6435	0.6282	0.53606	-0.14
Mof_N 	N 	0.5496	0.6568	0.56181	-0.136
Mof_N 	N 	0.6139	0.5695	0.57555	-0.143
Mof_N 	N 	0.4397	0.5852	0.64868	-0.174
Mof_N 	N 	0.55	0.8094	0.4807	-0.177
Mof_O 	O 	0.606	0.1031	0.2992	-0.188
Mof_O 	O 	0.8266	0.7371	0.4619	-0.192
Mof_O 	O 	0.0531	0.0514	0.4792	-0.169
Mof_O 	O 	0.7698	0.3264	0.6424	-0.2
Mof_O 	O 	0.9055	0.2601	0.3346	-0.177
Mof_O 	O 	0.5275	0.4041	0.4942	-0.285
Mof_O 	O 	0.0735	0.584	0.2831	-0.184
Mof_O 	O 	0.2608	0.5538	0.0595	-0.186
Mof_O 	O 	0.4202	0.2004	0.0832	-0.19
Mof_O 	O 	0.5577	0.0287	0.45633	-0.376
Mof_O 	O 	0.583	0.9448	0.48284	-0.366
Mof_O 	O 	0.5834	0.0089	0.54392	-0.383
Mof_O 	O 	0.5585	0.0987	0.52489	-0.375
Mof_O 	O 	0.9653	0.4354	0.45911	-0.381
Mof_O 	O 	0.8737	0.4694	0.47981	-0.379
Mof_O 	O 	0.9637	0.6082	0.48638	-0.377
Mof_O 	O 	0.0455	0.5577	0.46589	-0.384
Mof_O 	O 	0.3911	0.33	0.2457	-0.387
Mof_O 	O 	0.4599	0.351	0.21072	-0.37
Mof_O 	O 	0.4028	0.4582	0.25187	-0.379
Mof_O 	O 	0.4388	0.4767	0.20776	-0.374
Mof_C 	C 	0.5879	0.0001	0.4781	0.357
Mof_C 	C 	0.9831	0.5711	0.4688	0.372
Mof_C 	C 	0.9222	0.4746	0.4636	0.376
Mof_C 	C 	0.9276	0.5357	0.4492	-0.116
Mof_C 	C 	0.5891	0.0493	0.5253	0.377
Mof_C 	C 	0.6344	0.0356	0.5008	-0.119
Mof_C 	C 	0.446	0.325	0.2338	0.375
Mof_C 	C 	0.4426	0.4827	0.2355	0.375
Mof_C 	C 	0.4331	0.102	0.3869	0.055
Mof_C 	C 	0.3928	0.1534	0.3803	0.003
Mof_C 	C 	0.3631	0.1811	0.4036	-0.017
Mof_C 	C 	0.3755	0.1568	0.4323	0
Mof_C 	C 	0.4183	0.1064	0.4363	0.085
Mof_C 	C 	0.3178	0.2328	0.3969	0.135
Mof_C 	C 	0.2782	0.3037	0.3644	0.139
Mof_C 	C 	0.228	0.2908	0.4067	0.138
Mof_C 	C 	0.1726	0.306	0.425	-0.022
Mof_C 	C 	0.1695	0.282	0.4527	0.007
Mof_C 	C 	0.1128	0.2956	0.4685	0.066
Mof_C 	C 	0.0679	0.3599	0.4316	0.069
Mof_C 	C 	0.1208	0.3469	0.4144	-0.001
Mof_C 	C 	0.2841	0.3345	0.3367	-0.026
Mof_C 	C 	0.349	0.3371	0.3259	0.002
Mof_C 	C 	0.3547	0.3657	0.2994	0.077
Mof_C 	C 	0.2362	0.3852	0.2924	0.042
Mof_C 	C 	0.2261	0.3596	0.32	0.01
Mof_C 	C 	0.8152	0.5161	0.5291	0.084
Mof_C 	C 	0.7668	0.5575	0.5359	0.002
Mof_C 	C 	0.7068	0.5389	0.5482	-0.024
Mof_C 	C 	0.6981	0.4786	0.5533	0.014
Mof_C 	C 	0.749	0.4394	0.5452	0.053
Mof_C 	C 	0.6513	0.5814	0.5536	0.143
Mof_C 	C 	0.59	0.6645	0.5407	0.147
Mof_C 	C 	0.5644	0.6087	0.5788	0.137
Mof_C 	C 	0.5207	0.5977	0.603	-0.021
Mof_C 	C 	0.5486	0.5772	0.6303	-0.018
Mof_C 	C 	0.5065	0.5721	0.6527	0.07
Mof_C 	C 	0.4107	0.6013	0.6215	0.044
Mof_C 	C 	0.4484	0.6112	0.5982	-0.001
Mof_C 	C 	0.5761	0.7143	0.5203	-0.021
Mof_C 	C 	0.6083	0.7181	0.4946	0.021
Mof_C 	C 	0.5946	0.765	0.4753	0.056
Mof_C 	C 	0.5178	0.8043	0.5051	0.073
Mof_C 	C 	0.5279	0.7578	0.5253	0.01
Mof_C 	C 	0.4242	0.8783	0.3993	0.15
Mof_C 	C 	0.6103	0.9302	0.405	0.121
Mof_C 	C 	0.9224	0.2828	0.5295	0.116
Mof_C 	C 	0.8208	0.3355	0.4564	0.114
Mof_C 	C 	0.2604	0.4845	0.1914	0.108
Mof_C 	C 	0.2777	0.3121	0.1895	0.121
Mof_C 	C 	0.3566	0.9603	0.3802	0.002
Mof_C 	C 	0.3108	0.9967	0.3934	-0.038
Mof_C 	C 	0.253	0.0207	0.3757	0.039
Mof_C 	C 	0.2624	0.0119	0.3437	-0.095
Mof_C 	C 	0.2965	0.9719	0.3306	0.01
Mof_C 	C 	0.3521	0.947	0.3508	-0.011
Mof_C 	C 	0.3773	0.9676	0.3753	0.038
Mof_C 	C 	0.324	0.0005	0.385	0.03
Mof_C 	C 	0.2746	0.0285	0.3645	-0.001
Mof_C 	C 	0.2913	0.0163	0.3338	0.098
Mof_C 	C 	0.3398	0.9868	0.3233	-0.034
Mof_C 	C 	0.3874	0.9603	0.3461	0.004
Mof_C 	C 	0.4617	0.7856	0.4193	0.093
Mof_C 	C 	0.4011	0.7606	0.427	-0.941
Mof_C 	C 	0.3943	0.6965	0.4231	0.059
Mof_C 	C 	0.444	0.665	0.4139	2.393
Mof_C 	C 	0.5044	0.6883	0.4034	-0.124
Mof_C 	C 	0.5121	0.7512	0.4083	0.107
Mof_O 	O 	0.4336	0.6009	0.4129	-0.636
Mof_C 	C 	0.4849	0.5634	0.4052	0.858
Mof_C 	C 	0.462	0.7857	0.4122	-0.336
Mof_C 	C 	0.442	0.7469	0.4335	1.465
Mof_C 	C 	0.457	0.684	0.4277	-2.398
Mof_C 	C 	0.499	0.6701	0.4085	-0.025
Mof_C 	C 	0.521	0.7073	0.3858	0.033
Mof_C 	C 	0.506	0.7683	0.3916	0.001
Mof_O 	O 	0.5076	0.6068	0.4005	-0.441
Mof_C 	C 	0.495	0.5652	0.4218	-0.395
Mof_C 	C 	0.5748	0.0089	0.3743	0.047
Mof_C 	C 	0.5696	0.9775	0.3467	-0.012
Mof_C 	C 	0.5786	0.0172	0.3206	-0.011
Mof_C 	C 	0.596	0.0735	0.3259	0.106
Mof_C 	C 	0.6048	0.1011	0.3523	-0.026
Mof_C 	C 	0.5918	0.0668	0.3769	-0.006
Mof_C 	C 	0.6294	0.1638	0.3025	0.087
Mof_C 	C 	0.6676	0.8545	0.4347	0.043
Mof_C 	C 	0.6853	0.8148	0.4138	-0.009
Mof_C 	C 	0.742	0.7749	0.4224	-0.02
Mof_C 	C 	0.7718	0.7786	0.4508	0.1
Mof_C 	C 	0.7559	0.8178	0.4708	-0.015
Mof_C 	C 	0.702	0.8579	0.4632	-0.005
Mof_C 	C 	0.8518	0.6971	0.4413	0.101
Mof_C 	C 	0.9869	0.2237	0.5002	0.064
Mof_C 	C 	0.9819	0.2029	0.4723	-0.034
Mof_C 	C 	0.0083	0.1433	0.4666	0.014
Mof_C 	C 	0.0392	0.1185	0.4912	0.059
Mof_C 	C 	0.0535	0.1371	0.5185	-0.006
Mof_C 	C 	0.0249	0.195	0.5223	-0.01
Mof_C 	C 	0.094	0.036	0.5062	0.094
Mof_C 	C 	0.8559	0.3263	0.5633	0.053
Mof_C 	C 	0.8722	0.3697	0.5842	-0.012
Mof_C 	C 	0.8405	0.3674	0.6116	-0.009
Mof_C 	C 	0.7965	0.3234	0.6136	0.09
Mof_C 	C 	0.7765	0.2812	0.5952	-0.007
Mof_C 	C 	0.8089	0.2834	0.5674	-0.004
Mof_C 	C 	0.7193	0.2865	0.643	0.093
Mof_C 	C 	0.8923	0.309	0.4222	0.058
Mof_C 	C 	0.8734	0.2464	0.4157	-0.013
Mof_C 	C 	0.8795	0.2286	0.3844	-0.012
Mof_C 	C 	0.9013	0.2762	0.3662	0.082
Mof_C 	C 	0.9066	0.3359	0.3691	-0.008
Mof_C 	C 	0.8989	0.3513	0.401	-0.016
Mof_C 	C 	0.8811	0.199	0.3258	0.085
Mof_C 	C 	0.7318	0.3684	0.4831	0.046
Mof_C 	C 	0.6919	0.3265	0.4964	-0.001
Mof_C 	C 	0.6213	0.3404	0.499	-0.021
Mof_C 	C 	0.596	0.3903	0.4905	0.155
Mof_C 	C 	0.6314	0.4339	0.4775	-0.035
Mof_C 	C 	0.7025	0.4215	0.4737	0.004
Mof_C 	C 	0.504	0.3995	0.5201	0.198
Mof_C 	C 	0.5	0.451	0.4972	0.117
Mof_C 	C 	0.2173	0.4948	0.2361	0.061
Mof_C 	C 	0.2394	0.5193	0.263	-0.021
Mof_C 	C 	0.1942	0.5495	0.2802	-0.011
Mof_C 	C 	0.1251	0.5522	0.2682	0.092
Mof_C 	C 	0.0973	0.529	0.2416	0.003
Mof_C 	C 	0.1456	0.5002	0.2251	-0.033
Mof_C 	C 	0.0891	0.6096	0.3119	0.102
Mof_C 	C 	0.2961	0.487	0.1447	0.057
Mof_C 	C 	0.2457	0.4624	0.1238	-0.02
Mof_C 	C 	0.2347	0.4864	0.095	-0.009
Mof_C 	C 	0.2739	0.531	0.0896	0.094
Mof_C 	C 	0.3297	0.5572	0.1086	-0.003
Mof_C 	C 	0.3398	0.5308	0.1382	-0.018
Mof_C 	C 	0.3041	0.5978	0.0494	0.119
Mof_C 	C 	0.2168	0.2988	0.2302	-0.026
Mof_C 	C 	0.2495	0.2544	0.2491	0.1
Mof_C 	C 	0.2056	0.2168	0.2661	0.071
Mof_C 	C 	0.1335	0.2399	0.2635	0.16
Mof_C 	C 	0.1056	0.2783	0.2485	0.388
Mof_C 	C 	0.1496	0.3165	0.2321	-0.608
Mof_O 	O 	0.087	0.198	0.2785	-0.301
Mof_C 	C 	0.2107	0.3228	0.2318	0.233
Mof_C 	C 	0.224	0.2665	0.2456	-0.094
Mof_C 	C 	0.179	0.246	0.2679	-0.125
Mof_C 	C 	0.116	0.285	0.2658	-0.239
Mof_C 	C 	0.0959	0.322	0.2484	-0.027
Mof_C 	C 	0.1459	0.3493	0.2305	0.451
Mof_O 	O 	0.063	0.264	0.2858	-0.171
Mof_C 	C 	0.098	0.219	0.2982	0.329
Mof_C 	C 	0.3469	0.2964	0.1518	0.058
Mof_C 	C 	0.2986	0.2802	0.1271	-0.014
Mof_C 	C 	0.3231	0.2453	0.1034	-0.031
Mof_C 	C 	0.3887	0.232	0.1053	0.105
Mof_C 	C 	0.4393	0.2464	0.1279	-0.006
Mof_C 	C 	0.4159	0.2796	0.1514	-0.015
Mof_C 	C 	0.372	0.181	0.0583	0.096
Mof_Rh	Rh	0.51178	0.98561	0.07368	0.841
Mof_Rh	Rh	0.47429	0.89217	0.04882	0.802
Mof_Rh	Rh	0.03575	0.35529	0.01879	0.814
Mof_Rh	Rh	0.12364	0.39992	0.99085	0.846
Mof_Rh	Rh	0.67411	0.40014	0.26563	0.806
Mof_Rh	Rh	0.61866	0.40579	0.31108	0.809
Mof_N 	N 	0.5775	0.9379	0.1011	-0.235
Mof_N 	N 	0.533	0.8491	0.0807	-0.187
Mof_N 	N 	0.436	0.9726	0.1003	-0.233
Mof_N 	N 	0.3922	0.8946	0.0722	-0.231
Mof_N 	N 	0.0432	0.2812	0.9945	-0.232
Mof_N 	N 	0.1132	0.3295	0.96368	-0.235
Mof_N 	N 	0.1139	0.3276	0.0488	-0.231
Mof_N 	N 	0.1967	0.3583	0.0185	-0.231
Mof_N 	N 	0.7363	0.4673	0.2799	-0.239
Mof_N 	N 	0.6965	0.4617	0.3264	-0.229
Mof_N 	N 	0.7405	0.3397	0.2864	-0.266
Mof_N 	N 	0.6712	0.3322	0.32527	-0.234
Mof_N 	N 	0.5556	0.0789	0.0861	-0.168
Mof_N 	N 	0.6773	0.26	0.1287	-0.141
Mof_N 	N 	0.7716	0.3195	0.11908	-0.14
Mof_N 	N 	0.7287	0.2476	0.08418	-0.138
Mof_N 	N 	0.9395	0.3323	0.043	-0.166
Mof_N 	N 	0.7005	0.3872	0.2177	-0.17
Mof_N 	N 	0.1954	0.4577	0.96724	-0.173
Mof_N 	N 	0.3565	0.6282	0.96394	-0.14
Mof_N 	N 	0.4504	0.6568	0.93819	-0.136
Mof_N 	N 	0.3861	0.5695	0.92445	-0.143
Mof_N 	N 	0.5603	0.5852	0.85132	-0.174
Mof_N 	N 	0.45	0.8094	0.0193	-0.177
Mof_O 	O 	0.394	0.1031	0.2008	-0.188
Mof_O 	O 	0.1734	0.7371	0.0381	-0.192
Mof_O 	O 	0.9469	0.0514	0.0208	-0.169
Mof_O 	O 	0.2302	0.3264	0.8576	-0.2
Mof_O 	O 	0.0945	0.2601	0.1654	-0.177
Mof_O 	O 	0.4725	0.4041	0.0058	-0.285
Mof_O 	O 	0.9265	0.584	0.2169	-0.184
Mof_O 	O 	0.7392	0.5538	0.4405	-0.186
Mof_O 	O 	0.5798	0.2004	0.4168	-0.19
Mof_O 	O 	0.4423	0.0287	0.04367	-0.376
Mof_O 	O 	0.417	0.9448	0.01716	-0.366
Mof_O 	O 	0.4166	0.0089	0.95608	-0.383
Mof_O 	O 	0.4415	0.0987	0.97511	-0.375
Mof_O 	O 	0.0347	0.4354	0.04089	-0.381
Mof_O 	O 	0.1263	0.4694	0.02019	-0.379
Mof_O 	O 	0.0363	0.6082	0.01362	-0.377
Mof_O 	O 	0.9545	0.5577	0.03411	-0.384
Mof_O 	O 	0.6089	0.33	0.2543	-0.387
Mof_O 	O 	0.5401	0.351	0.28928	-0.37
Mof_O 	O 	0.5972	0.4582	0.24813	-0.379
Mof_O 	O 	0.5612	0.4767	0.29224	-0.374
Mof_C 	C 	0.4121	0.0001	0.0219	0.357
Mof_C 	C 	0.0169	0.5711	0.0312	0.372
Mof_C 	C 	0.0778	0.4746	0.0364	0.376
Mof_C 	C 	0.0724	0.5357	0.0508	-0.116
Mof_C 	C 	0.4109	0.0493	0.9747	0.377
Mof_C 	C 	0.3656	0.0356	0.9992	-0.119
Mof_C 	C 	0.554	0.325	0.2662	0.375
Mof_C 	C 	0.5574	0.4827	0.2645	0.375
Mof_C 	C 	0.5669	0.102	0.1131	0.055
Mof_C 	C 	0.6072	0.1534	0.1197	0.003
Mof_C 	C 	0.6369	0.1811	0.0964	-0.017
Mof_C 	C 	0.6245	0.1568	0.0677	0
Mof_C 	C 	0.5817	0.1064	0.0637	0.085
Mof_C 	C 	0.6822	0.2328	0.1031	0.135
Mof_C 	C 	0.7218	0.3037	0.1356	0.139
Mof_C 	C 	0.772	0.2908	0.0933	0.138
Mof_C 	C 	0.8274	0.306	0.075	-0.022
Mof_C 	C 	0.8305	0.282	0.0473	0.007
Mof_C 	C 	0.8872	0.2956	0.0315	0.066
Mof_C 	C 	0.9321	0.3599	0.0684	0.069
Mof_C 	C 	0.8792	0.3469	0.0856	-0.001
Mof_C 	C 	0.7159	0.3345	0.1633	-0.026
Mof_C 	C 	0.651	0.3371	0.1741	0.002
Mof_C 	C 	0.6453	0.3657	0.2006	0.077
Mof_C 	C 	0.7638	0.3852	0.2076	0.042
Mof_C 	C 	0.7739	0.3596	0.18	0.01
Mof_C 	C 	0.1848	0.5161	0.9709	0.084
Mof_C 	C 	0.2332	0.5575	0.9641	0.002
Mof_C 	C 	0.2932	0.5389	0.9518	-0.024
Mof_C 	C 	0.3019	0.4786	0.9467	0.014
Mof_C 	C 	0.251	0.4394	0.9548	0.053
Mof_C 	C 	0.3487	0.5814	0.9464	0.143
Mof_C 	C 	0.41	0.6645	0.9593	0.147
Mof_C 	C 	0.4356	0.6087	0.9212	0.137
Mof_C 	C 	0.4793	0.5977	0.897	-0.021
Mof_C 	C 	0.4514	0.5772	0.8697	-0.018
Mof_C 	C 	0.4935	0.5721	0.8473	0.07
Mof_C 	C 	0.5893	0.6013	0.8785	0.044
Mof_C 	C 	0.5516	0.6112	0.9018	-0.001
Mof_C 	C 	0.4239	0.7143	0.9797	-0.021
Mof_C 	C 	0.3917	0.7181	0.0054	0.021
Mof_C 	C 	0.4054	0.765	0.0247	0.056
Mof_C 	C 	0.4822	0.8043	0.9949	0.073
Mof_C 	C 	0.4721	0.7578	0.9747	0.01
Mof_C 	C 	0.5758	0.8783	0.1007	0.15
Mof_C 	C 	0.3897	0.9302	0.095	0.121
Mof_C 	C 	0.0776	0.2828	0.9705	0.116
Mof_C 	C 	0.1792	0.3355	0.0436	0.114
Mof_C 	C 	0.7396	0.4845	0.3086	0.108
Mof_C 	C 	0.7223	0.3121	0.3105	0.121
Mof_C 	C 	0.6434	0.9603	0.1198	0.002
Mof_C 	C 	0.6892	0.9967	0.1066	-0.038
Mof_C 	C 	0.747	0.0207	0.1243	0.039
Mof_C 	C 	0.7376	0.0119	0.1563	-0.095
Mof_C 	C 	0.7035	0.9719	0.1694	0.01
Mof_C 	C 	0.6479	0.947	0.1492	-0.011
Mof_C 	C 	0.6227	0.9676	0.1247	0.038
Mof_C 	C 	0.676	0.0005	0.115	0.03
Mof_C 	C 	0.7254	0.0285	0.1355	-0.001
Mof_C 	C 	0.7087	0.0163	0.1662	0.098
Mof_C 	C 	0.6602	0.9868	0.1767	-0.034
Mof_C 	C 	0.6126	0.9603	0.1539	0.004
Mof_C 	C 	0.5383	0.7856	0.0807	0.093
Mof_C 	C 	0.5989	0.7606	0.073	-0.941
Mof_C 	C 	0.6057	0.6965	0.0769	0.059
Mof_C 	C 	0.556	0.665	0.0861	2.393
Mof_C 	C 	0.4956	0.6883	0.0966	-0.124
Mof_C 	C 	0.4879	0.7512	0.0917	0.107
Mof_O 	O 	0.5664	0.6009	0.0871	-0.636
Mof_C 	C 	0.5151	0.5634	0.0948	0.858
Mof_C 	C 	0.538	0.7857	0.0878	-0.336
Mof_C 	C 	0.558	0.7469	0.0665	1.465
Mof_C 	C 	0.543	0.684	0.0723	-2.398
Mof_C 	C 	0.501	0.6701	0.0915	-0.025
Mof_C 	C 	0.479	0.7073	0.1142	0.033
Mof_C 	C 	0.494	0.7683	0.1084	0.001
Mof_O 	O 	0.4924	0.6068	0.0995	-0.441
Mof_C 	C 	0.505	0.5652	0.0782	-0.395
Mof_C 	C 	0.4252	0.0089	0.1257	0.047
Mof_C 	C 	0.4304	0.9775	0.1533	-0.012
Mof_C 	C 	0.4214	0.0172	0.1794	-0.011
Mof_C 	C 	0.404	0.0735	0.1741	0.106
Mof_C 	C 	0.3952	0.1011	0.1477	-0.026
Mof_C 	C 	0.4082	0.0668	0.1231	-0.006
Mof_C 	C 	0.3706	0.1638	0.1975	0.087
Mof_C 	C 	0.3324	0.8545	0.0653	0.043
Mof_C 	C 	0.3147	0.8148	0.0862	-0.009
Mof_C 	C 	0.258	0.7749	0.0776	-0.02
Mof_C 	C 	0.2282	0.7786	0.0492	0.1
Mof_C 	C 	0.2441	0.8178	0.0292	-0.015
Mof_C 	C 	0.298	0.8579	0.0368	-0.005
Mof_C 	C 	0.1482	0.6971	0.0587	0.101
Mof_C 	C 	0.0131	0.2237	0.9998	0.064
Mof_C 	C 	0.0181	0.2029	0.0277	-0.034
Mof_C 	C 	0.9917	0.1433	0.0334	0.014
Mof_C 	C 	0.9608	0.1185	0.0088	0.059
Mof_C 	C 	0.9465	0.1371	0.9815	-0.006
Mof_C 	C 	0.9751	0.195	0.9777	-0.01
Mof_C 	C 	0.906	0.036	0.9938	0.094
Mof_C 	C 	0.1441	0.3263	0.9367	0.053
Mof_C 	C 	0.1278	0.3697	0.9158	-0.012
Mof_C 	C 	0.1595	0.3674	0.8884	-0.009
Mof_C 	C 	0.2035	0.3234	0.8864	0.09
Mof_C 	C 	0.2235	0.2812	0.9048	-0.007
Mof_C 	C 	0.1911	0.2834	0.9326	-0.004
Mof_C 	C 	0.2807	0.2865	0.857	0.093
Mof_C 	C 	0.1077	0.309	0.0778	0.058
Mof_C 	C 	0.1266	0.2464	0.0843	-0.013
Mof_C 	C 	0.1205	0.2286	0.1156	-0.012
Mof_C 	C 	0.0987	0.2762	0.1338	0.082
Mof_C 	C 	0.0934	0.3359	0.1309	-0.008
Mof_C 	C 	0.1011	0.3513	0.099	-0.016
Mof_C 	C 	0.1189	0.199	0.1742	0.085
Mof_C 	C 	0.2682	0.3684	0.0169	0.046
Mof_C 	C 	0.3081	0.3265	0.0036	-0.001
Mof_C 	C 	0.3787	0.3404	0.001	-0.021
Mof_C 	C 	0.404	0.3903	0.0095	0.155
Mof_C 	C 	0.3686	0.4339	0.0225	-0.035
Mof_C 	C 	0.2975	0.4215	0.0263	0.004
Mof_C 	C 	0.496	0.3995	0.9799	0.198
Mof_C 	C 	0.5	0.451	0.0028	0.117
Mof_C 	C 	0.7827	0.4948	0.2639	0.061
Mof_C 	C 	0.7606	0.5193	0.237	-0.021
Mof_C 	C 	0.8058	0.5495	0.2198	-0.011
Mof_C 	C 	0.8749	0.5522	0.2318	0.092
Mof_C 	C 	0.9027	0.529	0.2584	0.003
Mof_C 	C 	0.8544	0.5002	0.2749	-0.033
Mof_C 	C 	0.9109	0.6096	0.1881	0.102
Mof_C 	C 	0.7039	0.487	0.3553	0.057
Mof_C 	C 	0.7543	0.4624	0.3762	-0.02
Mof_C 	C 	0.7653	0.4864	0.405	-0.009
Mof_C 	C 	0.7261	0.531	0.4104	0.094
Mof_C 	C 	0.6703	0.5572	0.3914	-0.003
Mof_C 	C 	0.6602	0.5308	0.3618	-0.018
Mof_C 	C 	0.6959	0.5978	0.4506	0.119
Mof_C 	C 	0.7832	0.2988	0.2698	-0.026
Mof_C 	C 	0.7505	0.2544	0.2509	0.1
Mof_C 	C 	0.7944	0.2168	0.2339	0.071
Mof_C 	C 	0.8665	0.2399	0.2365	0.16
Mof_C 	C 	0.8944	0.2783	0.2515	0.388
Mof_C 	C 	0.8504	0.3165	0.2679	-0.608
Mof_O 	O 	0.913	0.198	0.2215	-0.301
Mof_C 	C 	0.7893	0.3228	0.2682	0.233
Mof_C 	C 	0.776	0.2665	0.2544	-0.094
Mof_C 	C 	0.821	0.246	0.2321	-0.125
Mof_C 	C 	0.884	0.285	0.2342	-0.239
Mof_C 	C 	0.9041	0.322	0.2516	-0.027
Mof_C 	C 	0.8541	0.3493	0.2695	0.451
Mof_O 	O 	0.937	0.264	0.2142	-0.171
Mof_C 	C 	0.902	0.219	0.2018	0.329
Mof_C 	C 	0.6531	0.2964	0.3482	0.058
Mof_C 	C 	0.7014	0.2802	0.3729	-0.014
Mof_C 	C 	0.6769	0.2453	0.3966	-0.031
Mof_C 	C 	0.6113	0.232	0.3947	0.105
Mof_C 	C 	0.5607	0.2464	0.3721	-0.006
Mof_C 	C 	0.5841	0.2796	0.3486	-0.015
Mof_C 	C 	0.628	0.181	0.4417	0.096
Mof_Rh	Rh	0.51178	0.01439	0.57368	0.841
Mof_Rh	Rh	0.47429	0.10783	0.54882	0.802
Mof_Rh	Rh	0.03575	0.64471	0.51879	0.814
Mof_Rh	Rh	0.12364	0.60008	0.49085	0.846
Mof_Rh	Rh	0.67411	0.59986	0.76563	0.806
Mof_Rh	Rh	0.61866	0.59421	0.81108	0.809
Mof_N 	N 	0.5775	0.0621	0.6011	-0.235
Mof_N 	N 	0.533	0.1509	0.5807	-0.187
Mof_N 	N 	0.436	0.0274	0.6003	-0.233
Mof_N 	N 	0.3922	0.1054	0.5722	-0.231
Mof_N 	N 	0.0432	0.7188	0.4945	-0.232
Mof_N 	N 	0.1132	0.6705	0.46368	-0.235
Mof_N 	N 	0.1139	0.6724	0.5488	-0.231
Mof_N 	N 	0.1967	0.6417	0.5185	-0.231
Mof_N 	N 	0.7363	0.5327	0.7799	-0.239
Mof_N 	N 	0.6965	0.5383	0.8264	-0.229
Mof_N 	N 	0.7405	0.6603	0.7864	-0.266
Mof_N 	N 	0.6712	0.6678	0.82527	-0.234
Mof_N 	N 	0.5556	0.9211	0.5861	-0.168
Mof_N 	N 	0.6773	0.74	0.6287	-0.141
Mof_N 	N 	0.7716	0.6805	0.61908	-0.14
Mof_N 	N 	0.7287	0.7524	0.58418	-0.138
Mof_N 	N 	0.9395	0.6677	0.543	-0.166
Mof_N 	N 	0.7005	0.6128	0.7177	-0.17
Mof_N 	N 	0.1954	0.5423	0.46724	-0.173
Mof_N 	N 	0.3565	0.3718	0.46394	-0.14
Mof_N 	N 	0.4504	0.3432	0.43819	-0.136
Mof_N 	N 	0.3861	0.4305	0.42445	-0.143
Mof_N 	N 	0.5603	0.4148	0.35132	-0.174
Mof_N 	N 	0.45	0.1906	0.5193	-0.177
Mof_O 	O 	0.394	0.8969	0.7008	-0.188
Mof_O 	O 	0.1734	0.2629	0.5381	-0.192
Mof_O 	O 	0.9469	0.9486	0.5208	-0.169
Mof_O 	O 	0.2302	0.6736	0.3576	-0.2
Mof_O 	O 	0.0945	0.7399	0.6654	-0.177
Mof_O 	O 	0.4725	0.5959	0.5058	-0.285
Mof_O 	O 	0.9265	0.416	0.7169	-0.184
Mof_O 	O 	0.7392	0.4462	0.9405	-0.186
Mof_O 	O 	0.5798	0.7996	0.9168	-0.19
Mof_O 	O 	0.4423	0.9713	0.54367	-0.376
Mof_O 	O 	0.417	0.0552	0.51716	-0.366
Mof_O 	O 	0.4166	0.9911	0.45608	-0.383
Mof_O 	O 	0.4415	0.9013	0.47511	-0.375
Mof_O 	O 	0.0347	0.5646	0.54089	-0.381
Mof_O 	O 	0.1263	0.5306	0.52019	-0.379
Mof_O 	O 	0.0363	0.3918	0.51362	-0.377
Mof_O 	O 	0.9545	0.4423	0.53411	-0.384
Mof_O 	O 	0.6089	0.67	0.7543	-0.387
Mof_O 	O 	0.5401	0.649	0.78928	-0.37
Mof_O 	O 	0.5972	0.5418	0.74813	-0.379
Mof_O 	O 	0.5612	0.5233	0.79224	-0.374
Mof_C 	C 	0.4121	0.9999	0.5219	0.357
Mof_C 	C 	0.0169	0.4289	0.5312	0.372
Mof_C 	C 	0.0778	0.5254	0.5364	0.376
Mof_C 	C 	0.0724	0.4643	0.5508	-0.116
Mof_C 	C 	0.4109	0.9507	0.4747	0.377
Mof_C 	C 	0.3656	0.9644	0.4992	-0.119
Mof_C 	C 	0.554	0.675	0.7662	0.375
Mof_C 	C 	0.5574	0.5173	0.7645	0.375
Mof_C 	C 	0.5669	0.898	0.6131	0.055
Mof_C 	C 	0.6072	0.8466	0.6197	0.003
Mof_C 	C 	0.6369	0.8189	0.5964	-0.017
Mof_C 	C 	0.6245	0.8432	0.5677	0
Mof_C 	C 	0.5817	0.8936	0.5637	0.085
Mof_C 	C 	0.6822	0.7672	0.6031	0.135
Mof_C 	C 	0.7218	0.6963	0.6356	0.139
Mof_C 	C 	0.772	0.7092	0.5933	0.138
Mof_C 	C 	0.8274	0.694	0.575	-0.022
Mof_C 	C 	0.8305	0.718	0.5473	0.007
Mof_C 	C 	0.8872	0.7044	0.5315	0.066
Mof_C 	C 	0.9321	0.6401	0.5684	0.069
Mof_C 	C 	0.8792	0.6531	0.5856	-0.001
Mof_C 	C 	0.7159	0.6655	0.6633	-0.026
Mof_C 	C 	0.651	0.6629	0.6741	0.002
Mof_C 	C 	0.6453	0.6343	0.7006	0.077
Mof_C 	C 	0.7638	0.6148	0.7076	0.042
Mof_C 	C 	0.7739	0.6404	0.68	0.01
Mof_C 	C 	0.1848	0.4839	0.4709	0.084
Mof_C 	C 	0.2332	0.4425	0.4641	0.002
Mof_C 	C 	0.2932	0.4611	0.4518	-0.024
Mof_C 	C 	0.3019	0.5214	0.4467	0.014
Mof_C 	C 	0.251	0.5606	0.4548	0.053
Mof_C 	C 	0.3487	0.4186	0.4464	0.143
Mof_C 	C 	0.41	0.3355	0.4593	0.147
Mof_C 	C 	0.4356	0.3913	0.4212	0.137
Mof_C 	C 	0.4793	0.4023	0.397	-0.021
Mof_C 	C 	0.4514	0.4228	0.3697	-0.018
Mof_C 	C 	0.4935	0.4279	0.3473	0.07
Mof_C 	C 	0.5893	0.3987	0.3785	0.044
Mof_C 	C 	0.5516	0.3888	0.4018	-0.001
Mof_C 	C 	0.4239	0.2857	0.4797	-0.021
Mof_C 	C 	0.3917	0.2819	0.5054	0.021
Mof_C 	C 	0.4054	0.235	0.5247	0.056
Mof_C 	C 	0.4822	0.1957	0.4949	0.073
Mof_C 	C 	0.4721	0.2422	0.4747	0.01
Mof_C 	C 	0.5758	0.1217	0.6007	0.15
Mof_C 	C 	0.3897	0.0698	0.595	0.121
Mof_C 	C 	0.0776	0.7172	0.4705	0.116
Mof_C 	C 	0.1792	0.6645	0.5436	0.114
Mof_C 	C 	0.7396	0.5155	0.8086	0.108
Mof_C 	C 	0.7223	0.6879	0.8105	0.121
Mof_C 	C 	0.6434	0.0397	0.6198	0.002
Mof_C 	C 	0.6892	0.0033	0.6066	-0.038
Mof_C 	C 	0.747	0.9793	0.6243	0.039
Mof_C 	C 	0.7376	0.9881	0.6563	-0.095
Mof_C 	C 	0.7035	0.0281	0.6694	0.01
Mof_C 	C 	0.6479	0.053	0.6492	-0.011
Mof_C 	C 	0.6227	0.0324	0.6247	0.038
Mof_C 	C 	0.676	0.9995	0.615	0.03
Mof_C 	C 	0.7254	0.9715	0.6355	-0.001
Mof_C 	C 	0.7087	0.9837	0.6662	0.098
Mof_C 	C 	0.6602	0.0132	0.6767	-0.034
Mof_C 	C 	0.6126	0.0397	0.6539	0.004
Mof_C 	C 	0.5383	0.2144	0.5807	0.093
Mof_C 	C 	0.5989	0.2394	0.573	-0.941
Mof_C 	C 	0.6057	0.3035	0.5769	0.059
Mof_C 	C 	0.556	0.335	0.5861	2.393
Mof_C 	C 	0.4956	0.3117	0.5966	-0.124
Mof_C 	C 	0.4879	0.2488	0.5917	0.107
Mof_O 	O 	0.5664	0.3991	0.5871	-0.636
Mof_C 	C 	0.5151	0.4366	0.5948	0.858
Mof_C 	C 	0.538	0.2143	0.5878	-0.336
Mof_C 	C 	0.558	0.2531	0.5665	1.465
Mof_C 	C 	0.543	0.316	0.5723	-2.398
Mof_C 	C 	0.501	0.3299	0.5915	-0.025
Mof_C 	C 	0.479	0.2927	0.6142	0.033
Mof_C 	C 	0.494	0.2317	0.6084	0.001
Mof_O 	O 	0.4924	0.3932	0.5995	-0.441
Mof_C 	C 	0.505	0.4348	0.5782	-0.395
Mof_C 	C 	0.4252	0.9911	0.6257	0.047
Mof_C 	C 	0.4304	0.0225	0.6533	-0.012
Mof_C 	C 	0.4214	0.9828	0.6794	-0.011
Mof_C 	C 	0.404	0.9265	0.6741	0.106
Mof_C 	C 	0.3952	0.8989	0.6477	-0.026
Mof_C 	C 	0.4082	0.9332	0.6231	-0.006
Mof_C 	C 	0.3706	0.8362	0.6975	0.087
Mof_C 	C 	0.3324	0.1455	0.5653	0.043
Mof_C 	C 	0.3147	0.1852	0.5862	-0.009
Mof_C 	C 	0.258	0.2251	0.5776	-0.02
Mof_C 	C 	0.2282	0.2214	0.5492	0.1
Mof_C 	C 	0.2441	0.1822	0.5292	-0.015
Mof_C 	C 	0.298	0.1421	0.5368	-0.005
Mof_C 	C 	0.1482	0.3029	0.5587	0.101
Mof_C 	C 	0.0131	0.7763	0.4998	0.064
Mof_C 	C 	0.0181	0.7971	0.5277	-0.034
Mof_C 	C 	0.9917	0.8567	0.5334	0.014
Mof_C 	C 	0.9608	0.8815	0.5088	0.059
Mof_C 	C 	0.9465	0.8629	0.4815	-0.006
Mof_C 	C 	0.9751	0.805	0.4777	-0.01
Mof_C 	C 	0.906	0.964	0.4938	0.094
Mof_C 	C 	0.1441	0.6737	0.4367	0.053
Mof_C 	C 	0.1278	0.6303	0.4158	-0.012
Mof_C 	C 	0.1595	0.6326	0.3884	-0.009
Mof_C 	C 	0.2035	0.6766	0.3864	0.09
Mof_C 	C 	0.2235	0.7188	0.4048	-0.007
Mof_C 	C 	0.1911	0.7166	0.4326	-0.004
Mof_C 	C 	0.2807	0.7135	0.357	0.093
Mof_C 	C 	0.1077	0.691	0.5778	0.058
Mof_C 	C 	0.1266	0.7536	0.5843	-0.013
Mof_C 	C 	0.1205	0.7714	0.6156	-0.012
Mof_C 	C 	0.0987	0.7238	0.6338	0.082
Mof_C 	C 	0.0934	0.6641	0.6309	-0.008
Mof_C 	C 	0.1011	0.6487	0.599	-0.016
Mof_C 	C 	0.1189	0.801	0.6742	0.085
Mof_C 	C 	0.2682	0.6316	0.5169	0.046
Mof_C 	C 	0.3081	0.6735	0.5036	-0.001
Mof_C 	C 	0.3787	0.6596	0.501	-0.021
Mof_C 	C 	0.404	0.6097	0.5095	0.155
Mof_C 	C 	0.3686	0.5661	0.5225	-0.035
Mof_C 	C 	0.2975	0.5785	0.5263	0.004
Mof_C 	C 	0.496	0.6005	0.4799	0.198
Mof_C 	C 	0.5	0.549	0.5028	0.117
Mof_C 	C 	0.7827	0.5052	0.7639	0.061
Mof_C 	C 	0.7606	0.4807	0.737	-0.021
Mof_C 	C 	0.8058	0.4505	0.7198	-0.011
Mof_C 	C 	0.8749	0.4478	0.7318	0.092
Mof_C 	C 	0.9027	0.471	0.7584	0.003
Mof_C 	C 	0.8544	0.4998	0.7749	-0.033
Mof_C 	C 	0.9109	0.3904	0.6881	0.102
Mof_C 	C 	0.7039	0.513	0.8553	0.057
Mof_C 	C 	0.7543	0.5376	0.8762	-0.02
Mof_C 	C 	0.7653	0.5136	0.905	-0.009
Mof_C 	C 	0.7261	0.469	0.9104	0.094
Mof_C 	C 	0.6703	0.4428	0.8914	-0.003
Mof_C 	C 	0.6602	0.4692	0.8618	-0.018
Mof_C 	C 	0.6959	0.4022	0.9506	0.119
Mof_C 	C 	0.7832	0.7012	0.7698	-0.026
Mof_C 	C 	0.7505	0.7456	0.7509	0.1
Mof_C 	C 	0.7944	0.7832	0.7339	0.071
Mof_C 	C 	0.8665	0.7601	0.7365	0.16
Mof_C 	C 	0.8944	0.7217	0.7515	0.388
Mof_C 	C 	0.8504	0.6835	0.7679	-0.608
Mof_O 	O 	0.913	0.802	0.7215	-0.301
Mof_C 	C 	0.7893	0.6772	0.7682	0.233
Mof_C 	C 	0.776	0.7335	0.7544	-0.094
Mof_C 	C 	0.821	0.754	0.7321	-0.125
Mof_C 	C 	0.884	0.715	0.7342	-0.239
Mof_C 	C 	0.9041	0.678	0.7516	-0.027
Mof_C 	C 	0.8541	0.6507	0.7695	0.451
Mof_O 	O 	0.937	0.736	0.7142	-0.171
Mof_C 	C 	0.902	0.781	0.7018	0.329
Mof_C 	C 	0.6531	0.7036	0.8482	0.058
Mof_C 	C 	0.7014	0.7198	0.8729	-0.014
Mof_C 	C 	0.6769	0.7547	0.8966	-0.031
Mof_C 	C 	0.6113	0.768	0.8947	0.105
Mof_C 	C 	0.5607	0.7536	0.8721	-0.006
Mof_C 	C 	0.5841	0.7204	0.8486	-0.015
Mof_C 	C 	0.628	0.819	0.9417	0.096
Mof_Rh	Rh	0.48822	0.01439	0.92632	0.841
Mof_Rh	Rh	0.52571	0.10783	0.95118	0.802
Mof_Rh	Rh	0.96425	0.64471	0.98121	0.814
Mof_Rh	Rh	0.87636	0.60008	0.00915	0.846
Mof_Rh	Rh	0.32589	0.59986	0.73437	0.806
Mof_Rh	Rh	0.38134	0.59421	0.68892	0.809
Mof_N 	N 	0.4225	0.0621	0.8989	-0.235
Mof_N 	N 	0.467	0.1509	0.9193	-0.187
Mof_N 	N 	0.564	0.0274	0.8997	-0.233
Mof_N 	N 	0.6078	0.1054	0.9278	-0.231
Mof_N 	N 	0.9568	0.7188	0.0055	-0.232
Mof_N 	N 	0.8868	0.6705	0.03632	-0.235
Mof_N 	N 	0.8861	0.6724	0.9512	-0.231
Mof_N 	N 	0.8033	0.6417	0.9815	-0.231
Mof_N 	N 	0.2637	0.5327	0.7201	-0.239
Mof_N 	N 	0.3035	0.5383	0.6736	-0.229
Mof_N 	N 	0.2595	0.6603	0.7136	-0.266
Mof_N 	N 	0.3288	0.6678	0.67473	-0.234
Mof_N 	N 	0.4444	0.9211	0.9139	-0.168
Mof_N 	N 	0.3227	0.74	0.8713	-0.141
Mof_N 	N 	0.2284	0.6805	0.88092	-0.14
Mof_N 	N 	0.2713	0.7524	0.91582	-0.138
Mof_N 	N 	0.0605	0.6677	0.957	-0.166
Mof_N 	N 	0.2995	0.6128	0.7823	-0.17
Mof_N 	N 	0.8046	0.5423	0.03276	-0.173
Mof_N 	N 	0.6435	0.3718	0.03606	-0.14
Mof_N 	N 	0.5496	0.3432	0.06181	-0.136
Mof_N 	N 	0.6139	0.4305	0.07555	-0.143
Mof_N 	N 	0.4397	0.4148	0.14868	-0.174
Mof_N 	N 	0.55	0.1906	0.9807	-0.177
Mof_O 	O 	0.606	0.8969	0.7992	-0.188
Mof_O 	O 	0.8266	0.2629	0.9619	-0.192
Mof_O 	O 	0.0531	0.9486	0.9792	-0.169
Mof_O 	O 	0.7698	0.6736	0.1424	-0.2
Mof_O 	O 	0.9055	0.7399	0.8346	-0.177
Mof_O 	O 	0.5275	0.5959	0.9942	-0.285
Mof_O 	O 	0.0735	0.416	0.7831	-0.184
Mof_O 	O 	0.2608	0.4462	0.5595	-0.186
Mof_O 	O 	0.4202	0.7996	0.5832	-0.19
Mof_O 	O 	0.5577	0.9713	0.95633	-0.376
Mof_O 	O 	0.583	0.0552	0.98284	-0.366
Mof_O 	O 	0.5834	0.9911	0.04392	-0.383
Mof_O 	O 	0.5585	0.9013	0.02489	-0.375
Mof_O 	O 	0.9653	0.5646	0.95911	-0.381
Mof_O 	O 	0.8737	0.5306	0.97981	-0.379
Mof_O 	O 	0.9637	0.3918	0.98638	-0.377
Mof_O 	O 	0.0455	0.4423	0.96589	-0.384
Mof_O 	O 	0.3911	0.67	0.7457	-0.387
Mof_O 	O 	0.4599	0.649	0.71072	-0.37
Mof_O 	O 	0.4028	0.5418	0.75187	-0.379
Mof_O 	O 	0.4388	0.5233	0.70776	-0.374
Mof_C 	C 	0.5879	0.9999	0.9781	0.357
Mof_C 	C 	0.9831	0.4289	0.9688	0.372
Mof_C 	C 	0.9222	0.5254	0.9636	0.376
Mof_C 	C 	0.9276	0.4643	0.9492	-0.116
Mof_C 	C 	0.5891	0.9507	0.0253	0.377
Mof_C 	C 	0.6344	0.9644	0.0008	-0.119
Mof_C 	C 	0.446	0.675	0.7338	0.375
Mof_C 	C 	0.4426	0.5173	0.7355	0.375
Mof_C 	C 	0.4331	0.898	0.8869	0.055
Mof_C 	C 	0.3928	0.8466	0.8803	0.003
Mof_C 	C 	0.3631	0.8189	0.9036	-0.017
Mof_C 	C 	0.3755	0.8432	0.9323	0
Mof_C 	C 	0.4183	0.8936	0.9363	0.085
Mof_C 	C 	0.3178	0.7672	0.8969	0.135
Mof_C 	C 	0.2782	0.6963	0.8644	0.139
Mof_C 	C 	0.228	0.7092	0.9067	0.138
Mof_C 	C 	0.1726	0.694	0.925	-0.022
Mof_C 	C 	0.1695	0.718	0.9527	0.007
Mof_C 	C 	0.1128	0.7044	0.9685	0.066
Mof_C 	C 	0.0679	0.6401	0.9316	0.069
Mof_C 	C 	0.1208	0.6531	0.9144	-0.001
Mof_C 	C 	0.2841	0.6655	0.8367	-0.026
Mof_C 	C 	0.349	0.6629	0.8259	0.002
Mof_C 	C 	0.3547	0.6343	0.7994	0.077
Mof_C 	C 	0.2362	0.6148	0.7924	0.042
Mof_C 	C 	0.2261	0.6404	0.82	0.01
Mof_C 	C 	0.8152	0.4839	0.0291	0.084
Mof_C 	C 	0.7668	0.4425	0.0359	0.002
Mof_C 	C 	0.7068	0.4611	0.0482	-0.024
Mof_C 	C 	0.6981	0.5214	0.0533	0.014
Mof_C 	C 	0.749	0.5606	0.0452	0.053
Mof_C 	C 	0.6513	0.4186	0.0536	0.143
Mof_C 	C 	0.59	0.3355	0.0407	0.147
Mof_C 	C 	0.5644	0.3913	0.0788	0.137
Mof_C 	C 	0.5207	0.4023	0.103	-0.021
Mof_C 	C 	0.5486	0.4228	0.1303	-0.018
Mof_C 	C 	0.5065	0.4279	0.1527	0.07
Mof_C 	C 	0.4107	0.3987	0.1215	0.044
Mof_C 	C 	0.4484	0.3888	0.0982	-0.001
Mof_C 	C 	0.5761	0.2857	0.0203	-0.021
Mof_C 	C 	0.6083	0.2819	0.9946	0.021
Mof_C 	C 	0.5946	0.235	0.9753	0.056
Mof_C 	C 	0.5178	0.1957	0.0051	0.073
Mof_C 	C 	0.5279	0.2422	0.0253	0.01
Mof_C 	C 	0.4242	0.1217	0.8993	0.15
Mof_C 	C 	0.6103	0.0698	0.905	0.121
Mof_C 	C 	0.9224	0.7172	0.0295	0.116
Mof_C 	C 	0.8208	0.6645	0.9564	0.114
Mof_C 	C 	0.2604	0.5155	0.6914	0.108
Mof_C 	C 	0.2777	0.6879	0.6895	0.121
Mof_C 	C 	0.3566	0.0397	0.8802	0.002
Mof_C 	C 	0.3108	0.0033	0.8934	-0.038
Mof_C 	C 	0.253	0.9793	0.8757	0.039
Mof_C 	C 	0.2624	0.9881	0.8437	-0.095
Mof_C 	C 	0.2965	0.0281	0.8306	0.01
Mof_C 	C 	0.3521	0.053	0.8508	-0.011
Mof_C 	C 	0.3773	0.0324	0.8753	0.038
Mof_C 	C 	0.324	0.9995	0.885	0.03
Mof_C 	C 	0.2746	0.9715	0.8645	-0.001
Mof_C 	C 	0.2913	0.9837	0.8338	0.098
Mof_C 	C 	0.3398	0.0132	0.8233	-0.034
Mof_C 	C 	0.3874	0.0397	0.8461	0.004
Mof_C 	C 	0.4617	0.2144	0.9193	0.093
Mof_C 	C 	0.4011	0.2394	0.927	-0.941
Mof_C 	C 	0.3943	0.3035	0.9231	0.059
Mof_C 	C 	0.444	0.335	0.9139	2.393
Mof_C 	C 	0.5044	0.3117	0.9034	-0.124
Mof_C 	C 	0.5121	0.2488	0.9083	0.107
Mof_O 	O 	0.4336	0.3991	0.9129	-0.636
Mof_C 	C 	0.4849	0.4366	0.9052	0.858
Mof_C 	C 	0.462	0.2143	0.9122	-0.336
Mof_C 	C 	0.442	0.2531	0.9335	1.465
Mof_C 	C 	0.457	0.316	0.9277	-2.398
Mof_C 	C 	0.499	0.3299	0.9085	-0.025
Mof_C 	C 	0.521	0.2927	0.8858	0.033
Mof_C 	C 	0.506	0.2317	0.8916	0.001
Mof_O 	O 	0.5076	0.3932	0.9005	-0.441
Mof_C 	C 	0.495	0.4348	0.9218	-0.395
Mof_C 	C 	0.5748	0.9911	0.8743	0.047
Mof_C 	C 	0.5696	0.0225	0.8467	-0.012
Mof_C 	C 	0.5786	0.9828	0.8206	-0.011
Mof_C 	C 	0.596	0.9265	0.8259	0.106
Mof_C 	C 	0.6048	0.8989	0.8523	-0.026
Mof_C 	C 	0.5918	0.9332	0.8769	-0.006
Mof_C 	C 	0.6294	0.8362	0.8025	0.087
Mof_C 	C 	0.6676	0.1455	0.9347	0.043
Mof_C 	C 	0.6853	0.1852	0.9138	-0.009
Mof_C 	C 	0.742	0.2251	0.9224	-0.02
Mof_C 	C 	0.7718	0.2214	0.9508	0.1
Mof_C 	C 	0.7559	0.1822	0.9708	-0.015
Mof_C 	C 	0.702	0.1421	0.9632	-0.005
Mof_C 	C 	0.8518	0.3029	0.9413	0.101
Mof_C 	C 	0.9869	0.7763	0.0002	0.064
Mof_C 	C 	0.9819	0.7971	0.9723	-0.034
Mof_C 	C 	0.0083	0.8567	0.9666	0.014
Mof_C 	C 	0.0392	0.8815	0.9912	0.059
Mof_C 	C 	0.0535	0.8629	0.0185	-0.006
Mof_C 	C 	0.0249	0.805	0.0223	-0.01
Mof_C 	C 	0.094	0.964	0.0062	0.094
Mof_C 	C 	0.8559	0.6737	0.0633	0.053
Mof_C 	C 	0.8722	0.6303	0.0842	-0.012
Mof_C 	C 	0.8405	0.6326	0.1116	-0.009
Mof_C 	C 	0.7965	0.6766	0.1136	0.09
Mof_C 	C 	0.7765	0.7188	0.0952	-0.007
Mof_C 	C 	0.8089	0.7166	0.0674	-0.004
Mof_C 	C 	0.7193	0.7135	0.143	0.093
Mof_C 	C 	0.8923	0.691	0.9222	0.058
Mof_C 	C 	0.8734	0.7536	0.9157	-0.013
Mof_C 	C 	0.8795	0.7714	0.8844	-0.012
Mof_C 	C 	0.9013	0.7238	0.8662	0.082
Mof_C 	C 	0.9066	0.6641	0.8691	-0.008
Mof_C 	C 	0.8989	0.6487	0.901	-0.016
Mof_C 	C 	0.8811	0.801	0.8258	0.085
Mof_C 	C 	0.7318	0.6316	0.9831	0.046
Mof_C 	C 	0.6919	0.6735	0.9964	-0.001
Mof_C 	C 	0.6213	0.6596	0.999	-0.021
Mof_C 	C 	0.596	0.6097	0.9905	0.155
Mof_C 	C 	0.6314	0.5661	0.9775	-0.035
Mof_C 	C 	0.7025	0.5785	0.9737	0.004
Mof_C 	C 	0.504	0.6005	0.0201	0.198
Mof_C 	C 	0.5	0.549	0.9972	0.117
Mof_C 	C 	0.2173	0.5052	0.7361	0.061
Mof_C 	C 	0.2394	0.4807	0.763	-0.021
Mof_C 	C 	0.1942	0.4505	0.7802	-0.011
Mof_C 	C 	0.1251	0.4478	0.7682	0.092
Mof_C 	C 	0.0973	0.471	0.7416	0.003
Mof_C 	C 	0.1456	0.4998	0.7251	-0.033
Mof_C 	C 	0.0891	0.3904	0.8119	0.102
Mof_C 	C 	0.2961	0.513	0.6447	0.057
Mof_C 	C 	0.2457	0.5376	0.6238	-0.02
Mof_C 	C 	0.2347	0.5136	0.595	-0.009
Mof_C 	C 	0.2739	0.469	0.5896	0.094
Mof_C 	C 	0.3297	0.4428	0.6086	-0.003
Mof_C 	C 	0.3398	0.4692	0.6382	-0.018
Mof_C 	C 	0.3041	0.4022	0.5494	0.119
Mof_C 	C 	0.2168	0.7012	0.7302	-0.026
Mof_C 	C 	0.2495	0.7456	0.7491	0.1
Mof_C 	C 	0.2056	0.7832	0.7661	0.071
Mof_C 	C 	0.1335	0.7601	0.7635	0.16
Mof_C 	C 	0.1056	0.7217	0.7485	0.388
Mof_C 	C 	0.1496	0.6835	0.7321	-0.608
Mof_O 	O 	0.087	0.802	0.7785	-0.301
Mof_C 	C 	0.2107	0.6772	0.7318	0.233
Mof_C 	C 	0.224	0.7335	0.7456	-0.094
Mof_C 	C 	0.179	0.754	0.7679	-0.125
Mof_C 	C 	0.116	0.715	0.7658	-0.239
Mof_C 	C 	0.0959	0.678	0.7484	-0.027
Mof_C 	C 	0.1459	0.6507	0.7305	0.451
Mof_O 	O 	0.063	0.736	0.7858	-0.171
Mof_C 	C 	0.098	0.781	0.7982	0.329
Mof_C 	C 	0.3469	0.7036	0.6518	0.058
Mof_C 	C 	0.2986	0.7198	0.6271	-0.014
Mof_C 	C 	0.3231	0.7547	0.6034	-0.031
Mof_C 	C 	0.3887	0.768	0.6053	0.105
Mof_C 	C 	0.4393	0.7536	0.6279	-0.006
Mof_C 	C 	0.4159	0.7204	0.6514	-0.015
Mof_C 	C 	0.372	0.819	0.5583	0.096
Mof_C 	C 	0.5	0.2848	0.25	-0.128
Mof_C 	C 	0.5	0.5214	0.25	-0.133
Mof_C 	C 	0.5	0.7152	0.75	-0.128
Mof_C 	C 	0.5	0.4786	0.75	-0.133
_end
