# CIF file generated by openbabel 3.1.0, see https://openbabel.org
data_I
_chemical_name_common 'image0'
_cell_length_a 7.2562
_cell_length_b 19.3586
_cell_length_c 25.9395
_cell_angle_alpha 90
_cell_angle_beta 90
_cell_angle_gamma 90
_space_group_name_H-M_alt 'P 1'
_space_group_name_Hall 'P 1'
loop_
    _symmetry_equiv_pos_as_xyz
    x,y,z
loop_
    _atom_site_label
    _atom_site_type_symbol
    _atom_site_fract_x
    _atom_site_fract_y
    _atom_site_fract_z
    _atom_site_occupancy
    Tb1      Tb       0.62977    0.69257    0.73851    1.000
    O1       O        0.21950    0.18350    0.28160    1.000
    O2       O        0.49600    0.17210    0.24460    1.000
    O3       O        0.83160    0.76680    0.66670    1.000
    O4       O        0.95310    0.87080    0.65380    1.000
    O5       O        0.41890    0.45020    0.24980    1.000
    O6       O        0.57160    0.49860    0.18540    1.000
    C1       C        0.36280    0.14960    0.27200    1.000
    C2       C        0.37870    0.07730    0.29040    1.000
    C3       C        0.47650    0.02890    0.26300    1.000
    H1       H        0.52780    0.04120    0.23060    1.000
    C4       C        0.50210    0.96210    0.28170    1.000
    H2       H        0.56190    0.92820    0.26110    1.000
    C5       C        0.44000    0.94570    0.33030    1.000
    C6       C        0.33800    0.99400    0.35820    1.000
    H3       H        0.29250    0.98240    0.39150    1.000
    C7       C        0.30240    0.05910    0.33780    1.000
    H4       H        0.22670    0.09080    0.35600    1.000
    C8       C        0.48710    0.87680    0.35360    1.000
    C9       C        0.49150    0.81710    0.32390    1.000
    C10      C        0.85780    0.81890    0.63940    1.000
    C11      C        0.78810    0.81780    0.58510    1.000
    C12      C        0.82000    0.87470    0.55120    1.000
    H5       H        0.88490    0.91420    0.56310    1.000
    C13      C        0.75730    0.87220    0.50180    1.000
    H6       H        0.77550    0.91090    0.48000    1.000
    C14      C        0.66550    0.81320    0.48220    1.000
    C15      C        0.64290    0.75730    0.51560    1.000
    H7       H        0.58410    0.71660    0.50330    1.000
    C16      C        0.70310    0.75920    0.56580    1.000
    H8       H        0.68640    0.72010    0.58740    1.000
    C17      C        0.59670    0.81240    0.42860    1.000
    C18      C        0.53800    0.87540    0.40620    1.000
    C19      C        0.59510    0.75300    0.39890    1.000
    C20      C        0.54160    0.75430    0.34680    1.000
    C21      C        0.52790    0.68980    0.31630    1.000
    C22      C        0.57270    0.68820    0.26420    1.000
    H9       H        0.61060    0.72970    0.24780    1.000
    C23      C        0.56380    0.62740    0.23530    1.000
    H10      H        0.59550    0.62730    0.19970    1.000
    C24      C        0.50740    0.56690    0.25970    1.000
    C25      C        0.45450    0.56830    0.31140    1.000
    H11      H        0.40820    0.52770    0.32730    1.000
    C26      C        0.46940    0.62870    0.33940    1.000
    H12      H        0.43930    0.62850    0.37500    1.000
    C27      C        0.49500    0.50000    0.23210    1.000
    Tb2      Tb       0.37023    0.30743    0.23851    1.000
    O7       O        0.78050    0.81650    0.78160    1.000
    O8       O        0.50400    0.82790    0.74460    1.000
    O9       O        0.16840    0.23320    0.16670    1.000
    O10      O        0.04690    0.12920    0.15380    1.000
    O11      O        0.58110    0.54980    0.74980    1.000
    O12      O        0.42840    0.50140    0.68540    1.000
    C28      C        0.63720    0.85040    0.77200    1.000
    C29      C        0.62130    0.92270    0.79040    1.000
    C30      C        0.52350    0.97110    0.76300    1.000
    H13      H        0.47220    0.95880    0.73060    1.000
    C31      C        0.49790    0.03790    0.78170    1.000
    H14      H        0.43810    0.07180    0.76110    1.000
    C32      C        0.56000    0.05430    0.83030    1.000
    C33      C        0.66200    0.00600    0.85820    1.000
    H15      H        0.70750    0.01760    0.89150    1.000
    C34      C        0.69760    0.94090    0.83780    1.000
    H16      H        0.77330    0.90920    0.85600    1.000
    C35      C        0.51290    0.12320    0.85360    1.000
    C36      C        0.50850    0.18290    0.82390    1.000
    C37      C        0.14220    0.18110    0.13940    1.000
    C38      C        0.21190    0.18220    0.08510    1.000
    C39      C        0.18000    0.12530    0.05120    1.000
    H17      H        0.11510    0.08580    0.06310    1.000
    C40      C        0.24270    0.12780    0.00180    1.000
    H18      H        0.22450    0.08910    0.98000    1.000
    C41      C        0.33450    0.18680    0.98220    1.000
    C42      C        0.35710    0.24270    0.01560    1.000
    H19      H        0.41590    0.28340    0.00330    1.000
    C43      C        0.29690    0.24080    0.06580    1.000
    H20      H        0.31360    0.27990    0.08740    1.000
    C44      C        0.40330    0.18760    0.92860    1.000
    C45      C        0.46200    0.12460    0.90620    1.000
    C46      C        0.40490    0.24700    0.89890    1.000
    C47      C        0.45840    0.24570    0.84680    1.000
    C48      C        0.47210    0.31020    0.81630    1.000
    C49      C        0.42730    0.31180    0.76420    1.000
    H21      H        0.38940    0.27030    0.74780    1.000
    C50      C        0.43620    0.37260    0.73530    1.000
    H22      H        0.40450    0.37270    0.69970    1.000
    C51      C        0.49260    0.43310    0.75970    1.000
    C52      C        0.54550    0.43170    0.81140    1.000
    H23      H        0.59180    0.47230    0.82730    1.000
    C53      C        0.53060    0.37130    0.83940    1.000
    H24      H        0.56070    0.37150    0.87500    1.000
    C54      C        0.50500    0.50000    0.73210    1.000
    Tb3      Tb       0.12977    0.80743    0.73851    1.000
    O13      O        0.71950    0.31650    0.28160    1.000
    O14      O        0.99600    0.32790    0.24460    1.000
    O15      O        0.33160    0.73320    0.66670    1.000
    O16      O        0.45310    0.62920    0.65380    1.000
    O17      O        0.91890    0.04980    0.24980    1.000
    O18      O        0.07160    0.00140    0.18540    1.000
    C55      C        0.86280    0.35040    0.27200    1.000
    C56      C        0.87870    0.42270    0.29040    1.000
    C57      C        0.97650    0.47110    0.26300    1.000
    H25      H        0.02780    0.45880    0.23060    1.000
    C58      C        0.00210    0.53790    0.28170    1.000
    H26      H        0.06190    0.57180    0.26110    1.000
    C59      C        0.94000    0.55430    0.33030    1.000
    C60      C        0.83800    0.50600    0.35820    1.000
    H27      H        0.79250    0.51760    0.39150    1.000
    C61      C        0.80240    0.44090    0.33780    1.000
    H28      H        0.72670    0.40920    0.35600    1.000
    C62      C        0.98710    0.62320    0.35360    1.000
    C63      C        0.99150    0.68290    0.32390    1.000
    C64      C        0.35780    0.68110    0.63940    1.000
    C65      C        0.28810    0.68220    0.58510    1.000
    C66      C        0.32000    0.62530    0.55120    1.000
    H29      H        0.38490    0.58580    0.56310    1.000
    C67      C        0.25730    0.62780    0.50180    1.000
    H30      H        0.27550    0.58910    0.48000    1.000
    C68      C        0.16550    0.68680    0.48220    1.000
    C69      C        0.14290    0.74270    0.51560    1.000
    H31      H        0.08410    0.78340    0.50330    1.000
    C70      C        0.20310    0.74080    0.56580    1.000
    H32      H        0.18640    0.77990    0.58740    1.000
    C71      C        0.09670    0.68760    0.42860    1.000
    C72      C        0.03800    0.62460    0.40620    1.000
    C73      C        0.09510    0.74700    0.39890    1.000
    C74      C        0.04160    0.74570    0.34680    1.000
    C75      C        0.02790    0.81020    0.31630    1.000
    C76      C        0.07270    0.81180    0.26420    1.000
    H33      H        0.11060    0.77030    0.24780    1.000
    C77      C        0.06380    0.87260    0.23530    1.000
    H34      H        0.09550    0.87270    0.19970    1.000
    C78      C        0.00740    0.93310    0.25970    1.000
    C79      C        0.95450    0.93170    0.31140    1.000
    H35      H        0.90820    0.97230    0.32730    1.000
    C80      C        0.96940    0.87130    0.33940    1.000
    H36      H        0.93930    0.87150    0.37500    1.000
    C81      C        0.99500    0.00000    0.23210    1.000
    Tb4      Tb       0.87023    0.19257    0.23851    1.000
    O19      O        0.28050    0.68350    0.78160    1.000
    O20      O        0.00400    0.67210    0.74460    1.000
    O21      O        0.66840    0.26680    0.16670    1.000
    O22      O        0.54690    0.37080    0.15380    1.000
    O23      O        0.08110    0.95020    0.74980    1.000
    O24      O        0.92840    0.99860    0.68540    1.000
    C82      C        0.13720    0.64960    0.77200    1.000
    C83      C        0.12130    0.57730    0.79040    1.000
    C84      C        0.02350    0.52890    0.76300    1.000
    H37      H        0.97220    0.54120    0.73060    1.000
    C85      C        0.99790    0.46210    0.78170    1.000
    H38      H        0.93810    0.42820    0.76110    1.000
    C86      C        0.06000    0.44570    0.83030    1.000
    C87      C        0.16200    0.49400    0.85820    1.000
    H39      H        0.20750    0.48240    0.89150    1.000
    C88      C        0.19760    0.55910    0.83780    1.000
    H40      H        0.27330    0.59080    0.85600    1.000
    C89      C        0.01290    0.37680    0.85360    1.000
    C90      C        0.00850    0.31710    0.82390    1.000
    C91      C        0.64220    0.31890    0.13940    1.000
    C92      C        0.71190    0.31780    0.08510    1.000
    C93      C        0.68000    0.37470    0.05120    1.000
    H41      H        0.61510    0.41420    0.06310    1.000
    C94      C        0.74270    0.37220    0.00180    1.000
    H42      H        0.72450    0.41090    0.98000    1.000
    C95      C        0.83450    0.31320    0.98220    1.000
    C96      C        0.85710    0.25730    0.01560    1.000
    H43      H        0.91590    0.21660    0.00330    1.000
    C97      C        0.79690    0.25920    0.06580    1.000
    H44      H        0.81360    0.22010    0.08740    1.000
    C98      C        0.90330    0.31240    0.92860    1.000
    C99      C        0.96200    0.37540    0.90620    1.000
    C100     C        0.90490    0.25300    0.89890    1.000
    C101     C        0.95840    0.25430    0.84680    1.000
    C102     C        0.97210    0.18980    0.81630    1.000
    C103     C        0.92730    0.18820    0.76420    1.000
    H45      H        0.88940    0.22970    0.74780    1.000
    C104     C        0.93620    0.12740    0.73530    1.000
    H46      H        0.90450    0.12730    0.69970    1.000
    C105     C        0.99260    0.06690    0.75970    1.000
    C106     C        0.04550    0.06830    0.81140    1.000
    H47      H        0.09180    0.02770    0.82730    1.000
    C107     C        0.03060    0.12870    0.83940    1.000
    H48      H        0.06070    0.12850    0.87500    1.000
    C108     C        0.00500    0.00000    0.73210    1.000
