# CIF file generated by openbabel 3.1.0, see https://openbabel.org
data_I
_chemical_name_common 'image0'
_cell_length_a 10.175
_cell_length_b 21.481
_cell_length_c 10.493
_cell_angle_alpha 90
_cell_angle_beta 93.144
_cell_angle_gamma 90
_space_group_name_H-M_alt 'P 1'
_space_group_name_Hall 'P 1'
loop_
    _symmetry_equiv_pos_as_xyz
    x,y,z
loop_
    _atom_site_label
    _atom_site_type_symbol
    _atom_site_fract_x
    _atom_site_fract_y
    _atom_site_fract_z
    _atom_site_occupancy
    Zn1      Zn       0.48930    0.42656    0.32090    1.000
    Zn2      Zn       0.52820    0.65311    0.48500    1.000
    Zn3      Zn       0.97600    0.47007    0.01560    1.000
    Zn4      Zn       0.01450    0.69784    0.18350    1.000
    O1       O        0.52730    0.55300    0.42020    1.000
    O2       O        0.47060    0.46000    0.49560    1.000
    O3       O        0.98220    0.57070    0.08550    1.000
    O4       O        0.03480    0.66340    0.01900    1.000
    N1       N        0.84550    0.45180    0.14690    1.000
    N2       N        0.85970    0.39990    0.22360    1.000
    N3       N        0.75140    0.38850    0.29140    1.000
    N4       N        0.67090    0.43350    0.25540    1.000
    N5       N        0.45660    0.33690    0.35920    1.000
    N6       N        0.37220    0.30510    0.28150    1.000
    N7       N        0.37330    0.24820    0.32700    1.000
    N8       N        0.45470    0.24320    0.43280    1.000
    N9       N        0.35570    0.45040    0.18750    1.000
    N10      N        0.36810    0.43830    0.06390    1.000
    N11      N        0.25480    0.45060    0.99750    1.000
    N12      N        0.16530    0.46160    0.08690    1.000
    N13      N        0.95230    0.28850    0.85070    1.000
    N14      N        0.86300    0.32270    0.78010    1.000
    N15      N        0.86090    0.37930    0.82230    1.000
    N16      N        0.95060    0.38400    0.92240    1.000
    N17      N        0.84070    0.68600    0.25270    1.000
    N18      N        0.73830    0.72990    0.22360    1.000
    N19      N        0.64070    0.71990    0.28200    1.000
    N20      N        0.66820    0.67100    0.35930    1.000
    N21      N        0.15410    0.66990    0.31320    1.000
    N22      N        0.13140    0.68030    0.43980    1.000
    N23      N        0.24160    0.67930    0.50240    1.000
    N24      N        0.33840    0.65820    0.42510    1.000
    N25      N        0.55400    0.60600    0.64320    1.000
    H1       H        0.63870    0.59690    0.65660    1.000
    H2       H        0.52960    0.62920    0.70810    1.000
    N26      N        0.94900    0.52390    0.84900    1.000
    H3       H        0.98770    0.50470    0.78570    1.000
    H4       H        0.86380    0.52650    0.82770    1.000
    C1       C        0.72300    0.47390    0.16900    1.000
    C2       C        0.65600    0.53130    0.11400    1.000
    H5       H        0.57000    0.53500    0.14650    1.000
    H6       H        0.70730    0.56740    0.13740    1.000
    H7       H        0.64790    0.52790    0.02250    1.000
    C3       C        0.50300    0.29860    0.44700    1.000
    C4       C        0.59700    0.31780    0.55140    1.000
    H8       H        0.61910    0.36090    0.54140    1.000
    H9       H        0.55800    0.31190    0.63170    1.000
    H10      H        0.67570    0.29310    0.54930    1.000
    C5       C        0.22490    0.46670    0.19390    1.000
    C6       C        0.15900    0.48370    0.31200    1.000
    H11      H        0.22330    0.48490    0.38300    1.000
    H12      H        0.11880    0.52390    0.30190    1.000
    H13      H        0.09310    0.45330    0.32880    1.000
    C7       C        0.00600    0.32730    0.94100    1.000
    C8       C        0.10900    0.30920    0.04000    1.000
    H14      H        0.12940    0.26590    0.03060    1.000
    H15      H        0.18630    0.33380    0.02980    1.000
    H16      H        0.07670    0.31640    0.12290    1.000
    C9       C        0.78490    0.65260    0.33760    1.000
    C10      C        0.85200    0.60240    0.40300    1.000
    H17      H        0.93760    0.59730    0.37070    1.000
    H18      H        0.86060    0.61150    0.49280    1.000
    H19      H        0.80220    0.56470    0.38990    1.000
    C11      C        0.27400    0.65920    0.30400    1.000
    C12      C        0.33700    0.64290    0.18400    1.000
    H20      H        0.42970    0.63690    0.20100    1.000
    H21      H        0.29860    0.60520    0.14930    1.000
    H22      H        0.32290    0.67600    0.12310    1.000
    C13      C        0.49900    0.51850    0.50500    1.000
    C14      C        0.47300    0.54520    0.63830    1.000
    H23      H        0.37940    0.55630    0.63900    1.000
    C15      C        0.50300    0.50010    0.74660    1.000
    H24      H        0.44870    0.46390    0.73560    1.000
    H25      H        0.59430    0.48800    0.74670    1.000
    H26      H        0.48690    0.51980    0.82630    1.000
    C16      C        0.01000    0.60770    0.99600    1.000
    C17      C        0.00200    0.58520    0.86200    1.000
    H27      H        0.95100    0.61430    0.80670    1.000
    C18      C        0.14000    0.57670    0.81400    1.000
    H28      H        0.18560    0.61580    0.81860    1.000
    H29      H        0.18700    0.54680    0.86700    1.000
    H30      H        0.13360    0.56230    0.72770    1.000
    Zn5      Zn       0.51070    0.92656    0.67910    1.000
    Zn6      Zn       0.47180    0.15311    0.51500    1.000
    Zn7      Zn       0.02400    0.97007    0.98440    1.000
    Zn8      Zn       0.98550    0.19784    0.81650    1.000
    O5       O        0.47270    0.05300    0.57980    1.000
    O6       O        0.52940    0.96000    0.50440    1.000
    O7       O        0.01780    0.07070    0.91450    1.000
    O8       O        0.96520    0.16340    0.98100    1.000
    N27      N        0.15450    0.95180    0.85310    1.000
    N28      N        0.14030    0.89990    0.77640    1.000
    N29      N        0.24860    0.88850    0.70860    1.000
    N30      N        0.32910    0.93350    0.74460    1.000
    N31      N        0.54340    0.83690    0.64080    1.000
    N32      N        0.62780    0.80510    0.71850    1.000
    N33      N        0.62670    0.74820    0.67300    1.000
    N34      N        0.54530    0.74320    0.56720    1.000
    N35      N        0.64430    0.95040    0.81250    1.000
    N36      N        0.63190    0.93830    0.93610    1.000
    N37      N        0.74520    0.95060    0.00250    1.000
    N38      N        0.83470    0.96160    0.91310    1.000
    N39      N        0.04770    0.78850    0.14930    1.000
    N40      N        0.13700    0.82270    0.21990    1.000
    N41      N        0.13910    0.87930    0.17770    1.000
    N42      N        0.04940    0.88400    0.07760    1.000
    N43      N        0.15930    0.18600    0.74730    1.000
    N44      N        0.26170    0.22990    0.77640    1.000
    N45      N        0.35930    0.21990    0.71800    1.000
    N46      N        0.33180    0.17100    0.64070    1.000
    N47      N        0.84590    0.16990    0.68680    1.000
    N48      N        0.86860    0.18030    0.56020    1.000
    N49      N        0.75840    0.17930    0.49760    1.000
    N50      N        0.66160    0.15820    0.57490    1.000
    N51      N        0.44600    0.10600    0.35680    1.000
    H31      H        0.36130    0.09690    0.34340    1.000
    H32      H        0.47040    0.12920    0.29190    1.000
    N52      N        0.05100    0.02390    0.15100    1.000
    H33      H        0.01230    0.00470    0.21430    1.000
    H34      H        0.13620    0.02650    0.17230    1.000
    C19      C        0.27700    0.97390    0.83100    1.000
    C20      C        0.34400    0.03130    0.88600    1.000
    H35      H        0.43000    0.03500    0.85350    1.000
    H36      H        0.29270    0.06740    0.86260    1.000
    H37      H        0.35210    0.02790    0.97750    1.000
    C21      C        0.49700    0.79860    0.55300    1.000
    C22      C        0.40300    0.81780    0.44860    1.000
    H38      H        0.38090    0.86090    0.45860    1.000
    H39      H        0.44200    0.81190    0.36830    1.000
    H40      H        0.32430    0.79310    0.45070    1.000
    C23      C        0.77510    0.96670    0.80610    1.000
    C24      C        0.84100    0.98370    0.68800    1.000
    H41      H        0.77670    0.98490    0.61700    1.000
    H42      H        0.88120    0.02390    0.69810    1.000
    H43      H        0.90690    0.95330    0.67120    1.000
    C25      C        0.99400    0.82730    0.05900    1.000
    C26      C        0.89100    0.80920    0.96000    1.000
    H44      H        0.87060    0.76590    0.96940    1.000
    H45      H        0.81370    0.83380    0.97020    1.000
    H46      H        0.92330    0.81640    0.87710    1.000
    C27      C        0.21510    0.15260    0.66240    1.000
    C28      C        0.14800    0.10240    0.59700    1.000
    H47      H        0.06240    0.09730    0.62930    1.000
    H48      H        0.13940    0.11150    0.50720    1.000
    H49      H        0.19780    0.06470    0.61010    1.000
    C29      C        0.72600    0.15920    0.69600    1.000
    C30      C        0.66300    0.14290    0.81600    1.000
    H50      H        0.57030    0.13690    0.79900    1.000
    H51      H        0.70140    0.10520    0.85070    1.000
    H52      H        0.67710    0.17600    0.87690    1.000
    C31      C        0.50100    0.01850    0.49500    1.000
    C32      C        0.52700    0.04520    0.36170    1.000
    H53      H        0.62060    0.05630    0.36100    1.000
    C33      C        0.49700    0.00010    0.25340    1.000
    H54      H        0.55130    0.96390    0.26440    1.000
    H55      H        0.40570    0.98800    0.25330    1.000
    H56      H        0.51310    0.01980    0.17370    1.000
    C34      C        0.99000    0.10770    0.00400    1.000
    C35      C        0.99800    0.08520    0.13800    1.000
    H57      H        0.04900    0.11430    0.19330    1.000
    C36      C        0.86000    0.07670    0.18600    1.000
    H58      H        0.81440    0.11580    0.18140    1.000
    H59      H        0.81300    0.04680    0.13300    1.000
    H60      H        0.86640    0.06230    0.27230    1.000
