data_functionalizedCrystal
_audit_creation_method	'EQeq! by Chris Wilmer'
_symmetry_space_group_name_H-M	'P1'
_symmetry_Int_Tables_number	1
_symmetry_cell_setting	triclinic
loop_
_symmetry_equiv_pos_as_xyz
  x,y,z
_cell_length_a	11.3407
_cell_length_b	11.3847
_cell_length_c	13.1908
_cell_angle_alpha	88.868
_cell_angle_beta	69.339
_cell_angle_gamma	85.726
loop_
_atom_site_label
_atom_site_type_symbol
_atom_site_fract_x
_atom_site_fract_y
_atom_site_fract_z
_atom_site_charge
Mof_Co	Co	0.99062	0.11658	0.25175	1.221
Mof_O 	O 	0.0455	0.9768	0.333	-0.377
Mof_N 	N 	0.1231	0.8869	0.277	-0.034
Mof_C 	C 	0.2478	0.8865	0.2612	0.011
Mof_H 	H 	0.2803	0.9469	0.2902	0.064
Mof_C 	C 	0.326	0.7937	0.2007	-0.045
Mof_H 	H 	0.414	0.7916	0.1879	0.049
Mof_C 	C 	0.2817	0.7067	0.1597	-0.033
Mof_H 	H 	0.3375	0.6442	0.1191	0.032
Mof_C 	C 	0.1529	0.7095	0.1774	-0.035
Mof_H 	H 	0.1204	0.6485	0.1492	0.024
Mof_C 	C 	0.0716	0.8018	0.2366	-0.048
Mof_C 	C 	0.9319	0.8065	0.2641	0.193
Mof_C 	C 	0.8627	0.7197	0.3227	-0.172
Mof_H 	H 	0.901	0.658	0.3527	0.124
Mof_C 	C 	0.7346	0.7228	0.3381	0.08
Mof_H 	H 	0.6843	0.6624	0.3775	0.008
Mof_C 	C 	0.6829	0.8134	0.296	-0.122
Mof_H 	H 	0.5953	0.8179	0.3066	0.081
Mof_C 	C 	0.7584	0.8999	0.2372	0.07
Mof_H 	H 	0.7227	0.9628	0.2064	0.051
Mof_N 	N 	0.8784	0.8951	0.2242	-0.082
Mof_O 	O 	0.9485	0.98	0.1678	-0.298
Mof_O 	O 	0.9987	0.8178	0.0011	-0.342
Mof_C 	C 	0.0333	0.7412	0.928	0.332
Mof_O 	O 	0.0846	0.7593	0.8277	-0.403
Mof_C 	C 	0.0178	0.6155	0.9643	-0.129
Mof_C 	C 	0.0849	0.5226	0.8975	0.034
Mof_H 	H 	0.1434	0.5372	0.8272	0.031
Mof_C 	C 	0.9342	0.5923	0.0656	0.059
Mof_H 	H 	0.8884	0.656	0.1115	0.034
Mof_O 	O 	0.8165	0.007	0.0096	-0.495
Mof_C 	C 	0.7713	0.9578	0.9493	0.434
Mof_O 	O 	0.8286	0.8934	0.8684	-0.379
Mof_C 	C 	0.6306	0.977	0.9773	0.153
Mof_C 	C 	0.5587	0.0562	0.0597	-0.311
Mof_H 	H 	0.5988	0.0949	0.1005	0.127
Mof_C 	C 	0.569	0.921	0.9175	-0.207
Mof_H 	H 	0.6161	0.8672	0.8611	0.125
Mof_O 	O 	0.051	0.2413	0.3255	-0.437
Mof_C 	C 	0.0139	0.2594	0.4281	0.304
Mof_O 	O 	0.9849	0.1831	0.4995	-0.325
Mof_C 	C 	0.0065	0.3854	0.4639	-0.25
Mof_C 	C 	0.0847	0.465	0.3985	0.132
Mof_H 	H 	0.1416	0.442	0.3284	-0.008
Mof_C 	C 	0.0797	0.5798	0.4361	-0.25
Mof_H 	H 	0.1357	0.6341	0.3927	0.118
Mof_O 	O 	0.8141	0.0033	0.5151	-0.417
Mof_C 	C 	0.7588	0.0506	0.4541	0.401
Mof_O 	O 	0.8121	0.111	0.3705	-0.412
Mof_C 	C 	0.6231	0.0273	0.4803	-0.248
Mof_C 	C 	0.5549	0.0844	0.4246	0.128
Mof_H 	H 	0.5923	0.1425	0.373	-0.003
Mof_C 	C 	0.5693	0.9417	0.557	0.185
Mof_H 	H 	0.6165	0.9021	0.596	0.002
Mof_Co	Co	0.00938	0.88342	0.74825	1.19
Mof_O 	O 	0.9545	0.0232	0.667	-0.355
Mof_N 	N 	0.8769	0.1131	0.723	-0.073
Mof_C 	C 	0.7522	0.1135	0.7388	0.041
Mof_H 	H 	0.7197	0.0531	0.7098	0.023
Mof_C 	C 	0.674	0.2063	0.7993	-0.109
Mof_H 	H 	0.586	0.2084	0.8121	0.073
Mof_C 	C 	0.7183	0.2933	0.8403	0.066
Mof_H 	H 	0.6625	0.3558	0.8809	0.023
Mof_C 	C 	0.8471	0.2905	0.8226	-0.146
Mof_H 	H 	0.8796	0.3515	0.8508	0.117
Mof_C 	C 	0.9284	0.1982	0.7634	0.175
Mof_C 	C 	0.0681	0.1935	0.7359	-0.043
Mof_C 	C 	0.1373	0.2803	0.6773	-0.044
Mof_H 	H 	0.099	0.342	0.6473	0.032
Mof_C 	C 	0.2654	0.2772	0.6619	-0.023
Mof_H 	H 	0.3157	0.3376	0.6225	0.039
Mof_C 	C 	0.3171	0.1866	0.704	-0.06
Mof_H 	H 	0.4047	0.1821	0.6934	0.05
Mof_C 	C 	0.2416	0.1001	0.7628	0.006
Mof_H 	H 	0.2773	0.0372	0.7936	0.031
Mof_N 	N 	0.1216	0.1049	0.7758	-0.043
Mof_O 	O 	0.0515	0.02	0.8322	-0.419
Mof_O 	O 	0.0013	0.1822	0.9989	-0.419
Mof_C 	C 	0.9667	0.2588	0.072	0.365
Mof_O 	O 	0.9154	0.2407	0.1723	-0.395
Mof_C 	C 	0.9822	0.3845	0.0357	-0.004
Mof_C 	C 	0.9151	0.4774	0.1025	-0.07
Mof_H 	H 	0.8566	0.4628	0.1728	0.073
Mof_C 	C 	0.0658	0.4077	0.9344	-0.102
Mof_H 	H 	0.1116	0.344	0.8885	0.08
Mof_O 	O 	0.1835	0.993	0.9904	-0.297
Mof_C 	C 	0.2287	0.0422	0.0507	0.292
Mof_O 	O 	0.1714	0.1066	0.1316	-0.438
Mof_C 	C 	0.3694	0.023	0.0227	-0.308
Mof_C 	C 	0.4413	0.9438	0.9403	0.276
Mof_H 	H 	0.4012	0.9051	0.8995	-0.025
Mof_C 	C 	0.431	0.079	0.0825	0.163
Mof_H 	H 	0.3839	0.1328	0.1389	-0.021
Mof_O 	O 	0.949	0.7587	0.6745	-0.374
Mof_C 	C 	0.9861	0.7406	0.5719	0.383
Mof_O 	O 	0.0151	0.8169	0.5005	-0.45
Mof_C 	C 	0.9935	0.6146	0.5361	0.116
Mof_C 	C 	0.9153	0.535	0.6015	-0.172
Mof_H 	H 	0.8584	0.558	0.6716	0.11
Mof_C 	C 	0.9203	0.4202	0.5639	0.205
Mof_H 	H 	0.8643	0.3659	0.6073	-0.009
Mof_O 	O 	0.1859	0.9967	0.4849	-0.363
Mof_C 	C 	0.2412	0.9494	0.5459	0.301
Mof_O 	O 	0.1879	0.889	0.6295	-0.381
Mof_C 	C 	0.3769	0.9727	0.5197	0.108
Mof_C 	C 	0.4451	0.9156	0.5754	-0.168
Mof_H 	H 	0.4077	0.8575	0.627	0.108
Mof_C 	C 	0.4307	0.0583	0.443	-0.229
Mof_H 	H 	0.3835	0.0979	0.404	0.1
Mof_Co	Co	5.17011e-18	0	0.5	1.137
Mof_Co	Co	-0	0	-0	1.112
_end
