data_functionalizedCrystal
_audit_creation_method	'EQeq! by Chris Wilmer'
_symmetry_space_group_name_H-M	'P1'
_symmetry_Int_Tables_number	1
_symmetry_cell_setting	triclinic
loop_
_symmetry_equiv_pos_as_xyz
  x,y,z
_cell_length_a	18.9064
_cell_length_b	20.9843
_cell_length_c	23.4284
_cell_angle_alpha	90
_cell_angle_beta	90
_cell_angle_gamma	90
loop_
_atom_site_label
_atom_site_type_symbol
_atom_site_fract_x
_atom_site_fract_y
_atom_site_fract_z
_atom_site_charge
Mof_W 	W 	0.08693	0.17081	0.28994	1.339
Mof_W 	W 	0.08723	0.27703	0.41967	1.063
Mof_W 	W 	0.18	0.12497	0.4206	2.507
Mof_W 	W 	0.18043	0.04406	0.37095	0.794
Mof_O 	O 	0.0799	0.2392	0.3454	-0.472
Mof_O 	O 	0.147	0.2088	0.2455	-0.508
Mof_O 	O 	0.0816	0.0916	0.2472	-0.452
Mof_O 	O 	0.1481	0.1304	0.3411	-0.755
Mof_O 	O 	0.1494	0.2098	0.4389	-0.522
Mof_O 	O 	0.1819	0.0837	0.4424	-1.088
Mof_O 	O 	0.1861	0.0356	0.4069	-0.282
Mof_O 	O 	0.0658	0.0349	0.3924	0.09
Mof_O 	O 	0.0659	0.1042	0.4342	-0.092
Mof_C 	C 	0.1969	0.4374	0.3175	0.02
Mof_H 	H 	0.208	0.477	0.336	0.008
Mof_C 	C 	0.246	0.39	0.3004	-0.073
Mof_H 	H 	0.2962	0.3912	0.3064	0.045
Mof_N 	N 	0.2079	0.3405	0.2728	-0.114
Mof_C 	C 	0.1352	0.3573	0.2729	0.095
Mof_H 	H 	0.0972	0.3325	0.2571	0.001
Mof_N 	N 	0.1283	0.4172	0.3006	-0.156
Mof_C 	C 	0.0663	0.4455	0.3092	0.129
Mof_H 	H 	0.092	0.5389	0.3425	0.154
Mof_O 	O 	0.24	0.2742	0.1604	-0.227
Mof_C 	C 	0.1878	0.4425	0.2251	-0.048
Mof_H 	H 	0.1957	0.4877	0.2259	0.016
Mof_H 	H 	0.0953	0.5363	0.1535	0.147
Mof_N 	N 	0.2001	0.3349	0.238	-0.169
Mof_N 	N 	0.1267	0.4095	0.2056	-0.127
Mof_C 	C 	0.1404	0.3432	0.2161	0.019
Mof_H 	H 	0.1063	0.3101	0.2096	0.042
Mof_C 	C 	0.2325	0.3941	0.2437	0.061
Mof_C 	C 	0.0634	0.4335	0.1881	0.061
Mof_O 	O 	0.2462	0.2349	0.1587	-0.13
Mof_H 	H 	0.2792	0.4013	0.2586	-0.004
Mof_W 	W 	0.58693	0.67081	0.78994	1.34
Mof_W 	W 	0.58723	0.77703	0.91967	0.927
Mof_W 	W 	0.68	0.62497	0.9206	2.509
Mof_W 	W 	0.68043	0.54406	0.87095	1.223
Mof_O 	O 	0.5799	0.7392	0.8454	-0.457
Mof_O 	O 	0.647	0.7088	0.7455	-0.515
Mof_O 	O 	0.5816	0.5916	0.7472	-0.455
Mof_O 	O 	0.6481	0.6304	0.8411	-0.8
Mof_O 	O 	0.6494	0.7098	0.9389	-0.5
Mof_O 	O 	0.6819	0.5837	0.9424	-1.171
Mof_O 	O 	0.6861	0.5356	0.9069	-0.612
Mof_O 	O 	0.5658	0.5349	0.8924	0.013
Mof_O 	O 	0.5659	0.6042	0.9342	-0.154
Mof_C 	C 	0.6969	0.9374	0.8175	0.083
Mof_H 	H 	0.708	0.977	0.836	-0.104
Mof_C 	C 	0.746	0.89	0.8004	-0.176
Mof_H 	H 	0.7962	0.8912	0.8064	0.065
Mof_N 	N 	0.7079	0.8405	0.7728	-0.116
Mof_C 	C 	0.6352	0.8573	0.7729	0.094
Mof_H 	H 	0.5972	0.8325	0.7571	0.004
Mof_N 	N 	0.6283	0.9172	0.8006	-0.129
Mof_C 	C 	0.5663	0.9455	0.8092	0.002
Mof_H 	H 	0.592	0.0389	0.8425	-0.059
Mof_O 	O 	0.74	0.7742	0.6604	-0.226
Mof_C 	C 	0.6878	0.9425	0.7251	-0.454
Mof_H 	H 	0.6957	0.9877	0.7259	0.485
Mof_H 	H 	0.5953	0.0363	0.6535	-0.092
Mof_N 	N 	0.7001	0.8349	0.738	-0.195
Mof_N 	N 	0.6267	0.9095	0.7056	-0.031
Mof_C 	C 	0.6404	0.8432	0.7161	0.009
Mof_H 	H 	0.6063	0.8101	0.7096	0.04
Mof_C 	C 	0.7325	0.8941	0.7437	0.272
Mof_C 	C 	0.5634	0.9335	0.6881	-0.12
Mof_O 	O 	0.7462	0.7349	0.6587	-0.142
Mof_H 	H 	0.7792	0.9013	0.7586	-0.08
Mof_W 	W 	0.91307	0.82919	0.28994	1.284
Mof_W 	W 	0.91277	0.72297	0.41967	0.976
Mof_W 	W 	0.82	0.87503	0.4206	2.38
Mof_W 	W 	0.81957	0.95594	0.37095	1.637
Mof_O 	O 	0.9201	0.7608	0.3454	-0.484
Mof_O 	O 	0.853	0.7912	0.2455	-0.514
Mof_O 	O 	0.9184	0.9084	0.2472	-0.527
Mof_O 	O 	0.8519	0.8696	0.3411	-0.835
Mof_O 	O 	0.8506	0.7902	0.4389	-0.423
Mof_O 	O 	0.8181	0.9163	0.4424	-0.995
Mof_O 	O 	0.8139	0.9644	0.4069	-0.927
Mof_O 	O 	0.9342	0.9651	0.3924	-0.083
Mof_O 	O 	0.9341	0.8958	0.4342	-0.119
Mof_C 	C 	0.8031	0.5626	0.3175	0.016
Mof_H 	H 	0.792	0.523	0.336	0.008
Mof_C 	C 	0.754	0.61	0.3004	-0.071
Mof_H 	H 	0.7038	0.6088	0.3064	0.045
Mof_N 	N 	0.7921	0.6595	0.2728	-0.113
Mof_C 	C 	0.8648	0.6427	0.2729	0.091
Mof_H 	H 	0.9028	0.6675	0.2571	-0.011
Mof_N 	N 	0.8717	0.5828	0.3006	-0.151
Mof_C 	C 	0.9337	0.5545	0.3092	0.077
Mof_H 	H 	0.908	0.4611	0.3425	0.171
Mof_O 	O 	0.76	0.7258	0.1604	-0.231
Mof_C 	C 	0.8122	0.5575	0.2251	-0.051
Mof_H 	H 	0.8043	0.5123	0.2259	0.018
Mof_H 	H 	0.9047	0.4637	0.1535	0.168
Mof_N 	N 	0.7999	0.6651	0.238	-0.17
Mof_N 	N 	0.8733	0.5905	0.2056	-0.124
Mof_C 	C 	0.8596	0.6568	0.2161	0.02
Mof_H 	H 	0.8937	0.6899	0.2096	0.024
Mof_C 	C 	0.7675	0.6059	0.2437	0.062
Mof_C 	C 	0.9366	0.5665	0.1881	0.005
Mof_O 	O 	0.7538	0.7651	0.1587	-0.138
Mof_H 	H 	0.7208	0.5987	0.2586	-0.004
Mof_W 	W 	0.41307	0.32919	0.78994	1.341
Mof_W 	W 	0.41277	0.22297	0.91967	0.944
Mof_W 	W 	0.32	0.37503	0.9206	2.527
Mof_W 	W 	0.31957	0.45594	0.87095	1.236
Mof_O 	O 	0.4201	0.2608	0.8454	-0.459
Mof_O 	O 	0.353	0.2912	0.7455	-0.517
Mof_O 	O 	0.4184	0.4084	0.7472	-0.456
Mof_O 	O 	0.3519	0.3696	0.8411	-0.804
Mof_O 	O 	0.3506	0.2902	0.9389	-0.498
Mof_O 	O 	0.3181	0.4163	0.9424	-1.177
Mof_O 	O 	0.3139	0.4644	0.9069	-0.616
Mof_O 	O 	0.4342	0.4651	0.8924	0.012
Mof_O 	O 	0.4341	0.3958	0.9342	-0.155
Mof_C 	C 	0.3031	0.0626	0.8175	-0.068
Mof_H 	H 	0.292	0.023	0.836	0.112
Mof_C 	C 	0.254	0.11	0.8004	0.032
Mof_H 	H 	0.2038	0.1088	0.8064	-0.001
Mof_N 	N 	0.2921	0.1595	0.7728	-0.111
Mof_C 	C 	0.3648	0.1427	0.7729	0.072
Mof_H 	H 	0.4028	0.1675	0.7571	0.007
Mof_N 	N 	0.3717	0.0828	0.8006	-0.101
Mof_C 	C 	0.4337	0.0545	0.8092	-0.014
Mof_H 	H 	0.408	0.9611	0.8425	-0.121
Mof_O 	O 	0.26	0.2258	0.6604	-0.226
Mof_C 	C 	0.3122	0.0575	0.7251	0.354
Mof_H 	H 	0.3043	0.0123	0.7259	-0.461
Mof_H 	H 	0.4047	0.9637	0.6535	-0.143
Mof_N 	N 	0.2999	0.1651	0.738	-0.142
Mof_N 	N 	0.3733	0.0905	0.7056	-0.191
Mof_C 	C 	0.3596	0.1568	0.7161	0.031
Mof_H 	H 	0.3937	0.1899	0.7096	0.028
Mof_C 	C 	0.2675	0.1059	0.7437	-0.153
Mof_C 	C 	0.4366	0.0665	0.6881	0.155
Mof_O 	O 	0.2538	0.2651	0.6587	-0.147
Mof_H 	H 	0.2208	0.0987	0.7586	0.064
Mof_W 	W 	0.91307	0.17081	0.71006	1.264
Mof_W 	W 	0.91277	0.27703	0.58033	0.992
Mof_W 	W 	0.82	0.12497	0.5794	2.494
Mof_W 	W 	0.81957	0.04406	0.62905	0.792
Mof_O 	O 	0.9201	0.2392	0.6546	-0.486
Mof_O 	O 	0.853	0.2088	0.7545	-0.513
Mof_O 	O 	0.9184	0.0916	0.7528	-0.475
Mof_O 	O 	0.8519	0.1304	0.6589	-0.746
Mof_O 	O 	0.8506	0.2098	0.5611	-0.514
Mof_O 	O 	0.8181	0.0837	0.5576	-1.08
Mof_O 	O 	0.8139	0.0356	0.5931	-0.28
Mof_O 	O 	0.9342	0.0349	0.6076	0.062
Mof_O 	O 	0.9341	0.1042	0.5658	-0.121
Mof_C 	C 	0.8031	0.4374	0.6825	0.016
Mof_H 	H 	0.792	0.477	0.664	0.009
Mof_C 	C 	0.754	0.39	0.6996	-0.07
Mof_H 	H 	0.7038	0.3912	0.6936	0.044
Mof_N 	N 	0.7921	0.3405	0.7272	-0.114
Mof_C 	C 	0.8648	0.3573	0.7271	0.093
Mof_H 	H 	0.9028	0.3325	0.7429	-0.011
Mof_N 	N 	0.8717	0.4172	0.6994	-0.151
Mof_C 	C 	0.9337	0.4455	0.6908	0.077
Mof_H 	H 	0.908	0.5389	0.6575	0.17
Mof_O 	O 	0.76	0.2742	0.8396	-0.239
Mof_C 	C 	0.8122	0.4425	0.7749	-0.056
Mof_H 	H 	0.8043	0.4877	0.7741	0.017
Mof_H 	H 	0.9047	0.5363	0.8465	0.15
Mof_N 	N 	0.7999	0.3349	0.762	-0.17
Mof_N 	N 	0.8733	0.4095	0.7944	-0.126
Mof_C 	C 	0.8596	0.3432	0.7839	0.012
Mof_H 	H 	0.8937	0.3101	0.7904	0.018
Mof_C 	C 	0.7675	0.3941	0.7563	0.06
Mof_C 	C 	0.9366	0.4335	0.8119	0
Mof_O 	O 	0.7538	0.2349	0.8413	-0.155
Mof_H 	H 	0.7208	0.4013	0.7414	-0.005
Mof_W 	W 	0.41307	0.67081	0.21006	1.346
Mof_W 	W 	0.41277	0.77703	0.08033	1.06
Mof_W 	W 	0.32	0.62497	0.0794	2.627
Mof_W 	W 	0.31957	0.54406	0.12905	1.164
Mof_O 	O 	0.4201	0.7392	0.1546	-0.478
Mof_O 	O 	0.353	0.7088	0.2545	-0.516
Mof_O 	O 	0.4184	0.5916	0.2528	-0.455
Mof_O 	O 	0.3519	0.6304	0.1589	-0.809
Mof_O 	O 	0.3506	0.7098	0.0611	-0.445
Mof_O 	O 	0.3181	0.5837	0.0576	-1.145
Mof_O 	O 	0.3139	0.5356	0.0931	-0.553
Mof_O 	O 	0.4342	0.5349	0.1076	0.029
Mof_O 	O 	0.4341	0.6042	0.0658	-0.097
Mof_C 	C 	0.3031	0.9374	0.1825	0.097
Mof_H 	H 	0.292	0.977	0.164	-0.094
Mof_C 	C 	0.254	0.89	0.1996	-0.168
Mof_H 	H 	0.2038	0.8912	0.1936	0.082
Mof_N 	N 	0.2921	0.8405	0.2272	-0.115
Mof_C 	C 	0.3648	0.8573	0.2271	0.098
Mof_H 	H 	0.4028	0.8325	0.2429	0.003
Mof_N 	N 	0.3717	0.9172	0.1994	-0.128
Mof_C 	C 	0.4337	0.9455	0.1908	-0.006
Mof_H 	H 	0.408	0.0389	0.1575	-0.038
Mof_O 	O 	0.26	0.7742	0.3396	-0.228
Mof_C 	C 	0.3122	0.9425	0.2749	-0.459
Mof_H 	H 	0.3043	0.9877	0.2741	0.489
Mof_H 	H 	0.4047	0.0363	0.3465	-0.092
Mof_N 	N 	0.2999	0.8349	0.262	-0.196
Mof_N 	N 	0.3733	0.9095	0.2944	-0.03
Mof_C 	C 	0.3596	0.8432	0.2839	0.008
Mof_H 	H 	0.3937	0.8101	0.2904	0.04
Mof_C 	C 	0.2675	0.8941	0.2563	0.272
Mof_C 	C 	0.4366	0.9335	0.3119	-0.121
Mof_O 	O 	0.2538	0.7349	0.3413	-0.142
Mof_H 	H 	0.2208	0.9013	0.2414	-0.084
Mof_W 	W 	0.08693	0.82919	0.71006	1.352
Mof_W 	W 	0.08723	0.72297	0.58033	1.045
Mof_W 	W 	0.18	0.87503	0.5794	2.392
Mof_W 	W 	0.18043	0.95594	0.62905	1.648
Mof_O 	O 	0.0799	0.7608	0.6546	-0.47
Mof_O 	O 	0.147	0.7912	0.7545	-0.524
Mof_O 	O 	0.0816	0.9084	0.7528	-0.519
Mof_O 	O 	0.1481	0.8696	0.6589	-0.843
Mof_O 	O 	0.1494	0.7902	0.5611	-0.43
Mof_O 	O 	0.1819	0.9163	0.5576	-1.003
Mof_O 	O 	0.1861	0.9644	0.5931	-0.936
Mof_O 	O 	0.0658	0.9651	0.6076	-0.058
Mof_O 	O 	0.0659	0.8958	0.5658	-0.091
Mof_C 	C 	0.1969	0.5626	0.6825	0.021
Mof_H 	H 	0.208	0.523	0.664	0.008
Mof_C 	C 	0.246	0.61	0.6996	-0.071
Mof_H 	H 	0.2962	0.6088	0.6936	0.045
Mof_N 	N 	0.2079	0.6595	0.7272	-0.115
Mof_C 	C 	0.1352	0.6427	0.7271	0.099
Mof_H 	H 	0.0972	0.6675	0.7429	0
Mof_N 	N 	0.1283	0.5828	0.6994	-0.156
Mof_C 	C 	0.0663	0.5545	0.6908	0.129
Mof_H 	H 	0.092	0.4611	0.6575	0.153
Mof_O 	O 	0.24	0.7258	0.8396	-0.236
Mof_C 	C 	0.1878	0.5575	0.7749	-0.053
Mof_H 	H 	0.1957	0.5123	0.7741	0.016
Mof_H 	H 	0.0953	0.4637	0.8465	0.13
Mof_N 	N 	0.2001	0.6651	0.762	-0.169
Mof_N 	N 	0.1267	0.5905	0.7944	-0.13
Mof_C 	C 	0.1404	0.6568	0.7839	0.01
Mof_H 	H 	0.1063	0.6899	0.7904	0.032
Mof_C 	C 	0.2325	0.6059	0.7563	0.059
Mof_C 	C 	0.0634	0.5665	0.8119	0.056
Mof_O 	O 	0.2462	0.7651	0.8413	-0.154
Mof_H 	H 	0.2792	0.5987	0.7414	-0.005
Mof_W 	W 	0.58693	0.32919	0.21006	1.346
Mof_W 	W 	0.58723	0.22297	0.08033	1.071
Mof_W 	W 	0.68	0.37503	0.0794	2.621
Mof_W 	W 	0.68043	0.45594	0.12905	1.181
Mof_O 	O 	0.5799	0.2608	0.1546	-0.479
Mof_O 	O 	0.647	0.2912	0.2545	-0.518
Mof_O 	O 	0.5816	0.4084	0.2528	-0.456
Mof_O 	O 	0.6481	0.3696	0.1589	-0.811
Mof_O 	O 	0.6494	0.2902	0.0611	-0.443
Mof_O 	O 	0.6819	0.4163	0.0576	-1.144
Mof_O 	O 	0.6861	0.4644	0.0931	-0.566
Mof_O 	O 	0.5658	0.4651	0.1076	0.028
Mof_O 	O 	0.5659	0.3958	0.0658	-0.097
Mof_C 	C 	0.6969	0.0626	0.1825	-0.056
Mof_H 	H 	0.708	0.023	0.164	0.12
Mof_C 	C 	0.746	0.11	0.1996	0.037
Mof_H 	H 	0.7962	0.1088	0.1936	0.008
Mof_N 	N 	0.7079	0.1595	0.2272	-0.111
Mof_C 	C 	0.6352	0.1427	0.2271	0.075
Mof_H 	H 	0.5972	0.1675	0.2429	0.006
Mof_N 	N 	0.6283	0.0828	0.1994	-0.1
Mof_C 	C 	0.5663	0.0545	0.1908	-0.021
Mof_H 	H 	0.592	0.9611	0.1575	-0.1
Mof_O 	O 	0.74	0.2258	0.3396	-0.225
Mof_C 	C 	0.6878	0.0575	0.2749	0.35
Mof_H 	H 	0.6957	0.0123	0.2741	-0.456
Mof_H 	H 	0.5953	0.9637	0.3465	-0.142
Mof_N 	N 	0.7001	0.1651	0.262	-0.142
Mof_N 	N 	0.6267	0.0905	0.2944	-0.19
Mof_C 	C 	0.6404	0.1568	0.2839	0.03
Mof_H 	H 	0.6063	0.1899	0.2904	0.028
Mof_C 	C 	0.7325	0.1059	0.2563	-0.153
Mof_C 	C 	0.5634	0.0665	0.3119	0.154
Mof_O 	O 	0.7462	0.2651	0.3413	-0.146
Mof_H 	H 	0.7792	0.0987	0.2414	0.065
Mof_W 	W 	0.91307	0.82919	0.71006	1.282
Mof_W 	W 	0.91277	0.72297	0.58033	0.976
Mof_W 	W 	0.82	0.87503	0.5794	2.381
Mof_W 	W 	0.81957	0.95594	0.62905	1.636
Mof_O 	O 	0.9201	0.7608	0.6546	-0.484
Mof_O 	O 	0.853	0.7912	0.7545	-0.521
Mof_O 	O 	0.9184	0.9084	0.7528	-0.533
Mof_O 	O 	0.8519	0.8696	0.6589	-0.834
Mof_O 	O 	0.8506	0.7902	0.5611	-0.423
Mof_O 	O 	0.8181	0.9163	0.5576	-0.996
Mof_O 	O 	0.8139	0.9644	0.5931	-0.926
Mof_O 	O 	0.9342	0.9651	0.6076	-0.083
Mof_O 	O 	0.9341	0.8958	0.5658	-0.119
Mof_C 	C 	0.8031	0.5626	0.6825	0.016
Mof_H 	H 	0.792	0.523	0.664	0.008
Mof_C 	C 	0.754	0.61	0.6996	-0.07
Mof_H 	H 	0.7038	0.6088	0.6936	0.045
Mof_N 	N 	0.7921	0.6595	0.7272	-0.114
Mof_C 	C 	0.8648	0.6427	0.7271	0.094
Mof_H 	H 	0.9028	0.6675	0.7429	-0.011
Mof_N 	N 	0.8717	0.5828	0.6994	-0.151
Mof_C 	C 	0.9337	0.5545	0.6908	0.077
Mof_H 	H 	0.908	0.4611	0.6575	0.17
Mof_O 	O 	0.76	0.7258	0.8396	-0.24
Mof_C 	C 	0.8122	0.5575	0.7749	-0.056
Mof_H 	H 	0.8043	0.5123	0.7741	0.017
Mof_H 	H 	0.9047	0.4637	0.8465	0.151
Mof_N 	N 	0.7999	0.6651	0.762	-0.17
Mof_N 	N 	0.8733	0.5905	0.7944	-0.127
Mof_C 	C 	0.8596	0.6568	0.7839	0.011
Mof_H 	H 	0.8937	0.6899	0.7904	0.016
Mof_C 	C 	0.7675	0.6059	0.7563	0.06
Mof_C 	C 	0.9366	0.5665	0.8119	0
Mof_O 	O 	0.7538	0.7651	0.8413	-0.158
Mof_H 	H 	0.7208	0.5987	0.7414	-0.005
Mof_W 	W 	0.41307	0.32919	0.21006	1.346
Mof_W 	W 	0.41277	0.22297	0.08033	1.074
Mof_W 	W 	0.32	0.37503	0.0794	2.633
Mof_W 	W 	0.31957	0.45594	0.12905	1.179
Mof_O 	O 	0.4201	0.2608	0.1546	-0.48
Mof_O 	O 	0.353	0.2912	0.2545	-0.518
Mof_O 	O 	0.4184	0.4084	0.2528	-0.456
Mof_O 	O 	0.3519	0.3696	0.1589	-0.812
Mof_O 	O 	0.3506	0.2902	0.0611	-0.443
Mof_O 	O 	0.3181	0.4163	0.0576	-1.148
Mof_O 	O 	0.3139	0.4644	0.0931	-0.562
Mof_O 	O 	0.4342	0.4651	0.1076	0.028
Mof_O 	O 	0.4341	0.3958	0.0658	-0.098
Mof_C 	C 	0.3031	0.0626	0.1825	-0.055
Mof_H 	H 	0.292	0.023	0.164	0.122
Mof_C 	C 	0.254	0.11	0.1996	0.04
Mof_H 	H 	0.2038	0.1088	0.1936	0.012
Mof_N 	N 	0.2921	0.1595	0.2272	-0.111
Mof_C 	C 	0.3648	0.1427	0.2271	0.075
Mof_H 	H 	0.4028	0.1675	0.2429	0.006
Mof_N 	N 	0.3717	0.0828	0.1994	-0.1
Mof_C 	C 	0.4337	0.0545	0.1908	-0.021
Mof_H 	H 	0.408	0.9611	0.1575	-0.1
Mof_O 	O 	0.26	0.2258	0.3396	-0.226
Mof_C 	C 	0.3122	0.0575	0.2749	0.353
Mof_H 	H 	0.3043	0.0123	0.2741	-0.461
Mof_H 	H 	0.4047	0.9637	0.3465	-0.143
Mof_N 	N 	0.2999	0.1651	0.262	-0.142
Mof_N 	N 	0.3733	0.0905	0.2944	-0.191
Mof_C 	C 	0.3596	0.1568	0.2839	0.03
Mof_H 	H 	0.3937	0.1899	0.2904	0.029
Mof_C 	C 	0.2675	0.1059	0.2563	-0.155
Mof_C 	C 	0.4366	0.0665	0.3119	0.155
Mof_O 	O 	0.2538	0.2651	0.3413	-0.147
Mof_H 	H 	0.2208	0.0987	0.2414	0.063
Mof_W 	W 	0.08693	0.17081	0.71006	1.336
Mof_W 	W 	0.08723	0.27703	0.58033	1.062
Mof_W 	W 	0.18	0.12497	0.5794	2.507
Mof_W 	W 	0.18043	0.04406	0.62905	0.792
Mof_O 	O 	0.0799	0.2392	0.6546	-0.472
Mof_O 	O 	0.147	0.2088	0.7545	-0.515
Mof_O 	O 	0.0816	0.0916	0.7528	-0.459
Mof_O 	O 	0.1481	0.1304	0.6589	-0.754
Mof_O 	O 	0.1494	0.2098	0.5611	-0.522
Mof_O 	O 	0.1819	0.0837	0.5576	-1.089
Mof_O 	O 	0.1861	0.0356	0.5931	-0.28
Mof_O 	O 	0.0658	0.0349	0.6076	0.091
Mof_O 	O 	0.0659	0.1042	0.5658	-0.092
Mof_C 	C 	0.1969	0.4374	0.6825	0.02
Mof_H 	H 	0.208	0.477	0.664	0.009
Mof_C 	C 	0.246	0.39	0.6996	-0.071
Mof_H 	H 	0.2962	0.3912	0.6936	0.045
Mof_N 	N 	0.2079	0.3405	0.7272	-0.115
Mof_C 	C 	0.1352	0.3573	0.7271	0.098
Mof_H 	H 	0.0972	0.3325	0.7429	0
Mof_N 	N 	0.1283	0.4172	0.6994	-0.156
Mof_C 	C 	0.0663	0.4455	0.6908	0.129
Mof_H 	H 	0.092	0.5389	0.6575	0.153
Mof_O 	O 	0.24	0.2742	0.8396	-0.235
Mof_C 	C 	0.1878	0.4425	0.7749	-0.053
Mof_H 	H 	0.1957	0.4877	0.7741	0.016
Mof_H 	H 	0.0953	0.5363	0.8465	0.13
Mof_N 	N 	0.2001	0.3349	0.762	-0.168
Mof_N 	N 	0.1267	0.4095	0.7944	-0.13
Mof_C 	C 	0.1404	0.3432	0.7839	0.01
Mof_H 	H 	0.1063	0.3101	0.7904	0.034
Mof_C 	C 	0.2325	0.3941	0.7563	0.059
Mof_C 	C 	0.0634	0.4335	0.8119	0.056
Mof_O 	O 	0.2462	0.2349	0.8413	-0.15
Mof_H 	H 	0.2792	0.4013	0.7414	-0.005
Mof_W 	W 	0.58693	0.67081	0.21006	1.345
Mof_W 	W 	0.58723	0.77703	0.08033	1.057
Mof_W 	W 	0.68	0.62497	0.0794	2.615
Mof_W 	W 	0.68043	0.54406	0.12905	1.166
Mof_O 	O 	0.5799	0.7392	0.1546	-0.478
Mof_O 	O 	0.647	0.7088	0.2545	-0.516
Mof_O 	O 	0.5816	0.5916	0.2528	-0.455
Mof_O 	O 	0.6481	0.6304	0.1589	-0.809
Mof_O 	O 	0.6494	0.7098	0.0611	-0.446
Mof_O 	O 	0.6819	0.5837	0.0576	-1.142
Mof_O 	O 	0.6861	0.5356	0.0931	-0.557
Mof_O 	O 	0.5658	0.5349	0.1076	0.028
Mof_O 	O 	0.5659	0.6042	0.0658	-0.096
Mof_C 	C 	0.6969	0.9374	0.1825	0.095
Mof_H 	H 	0.708	0.977	0.164	-0.094
Mof_C 	C 	0.746	0.89	0.1996	-0.169
Mof_H 	H 	0.7962	0.8912	0.1936	0.078
Mof_N 	N 	0.7079	0.8405	0.2272	-0.115
Mof_C 	C 	0.6352	0.8573	0.2271	0.097
Mof_H 	H 	0.5972	0.8325	0.2429	0.003
Mof_N 	N 	0.6283	0.9172	0.1994	-0.128
Mof_C 	C 	0.5663	0.9455	0.1908	-0.006
Mof_H 	H 	0.592	0.0389	0.1575	-0.038
Mof_O 	O 	0.74	0.7742	0.3396	-0.226
Mof_C 	C 	0.6878	0.9425	0.2749	-0.454
Mof_H 	H 	0.6957	0.9877	0.2741	0.484
Mof_H 	H 	0.5953	0.0363	0.3465	-0.092
Mof_N 	N 	0.7001	0.8349	0.262	-0.195
Mof_N 	N 	0.6267	0.9095	0.2944	-0.031
Mof_C 	C 	0.6404	0.8432	0.2839	0.008
Mof_H 	H 	0.6063	0.8101	0.2904	0.04
Mof_C 	C 	0.7325	0.8941	0.2563	0.27
Mof_C 	C 	0.5634	0.9335	0.3119	-0.12
Mof_O 	O 	0.7462	0.7349	0.3413	-0.142
Mof_H 	H 	0.7792	0.9013	0.2414	-0.081
Mof_W 	W 	0.08693	0.82919	0.28994	1.355
Mof_W 	W 	0.08723	0.72297	0.41967	1.045
Mof_W 	W 	0.18	0.87503	0.4206	2.391
Mof_W 	W 	0.18043	0.95594	0.37095	1.649
Mof_O 	O 	0.0799	0.7608	0.3454	-0.47
Mof_O 	O 	0.147	0.7912	0.2455	-0.517
Mof_O 	O 	0.0816	0.9084	0.2472	-0.512
Mof_O 	O 	0.1481	0.8696	0.3411	-0.844
Mof_O 	O 	0.1494	0.7902	0.4389	-0.43
Mof_O 	O 	0.1819	0.9163	0.4424	-1.002
Mof_O 	O 	0.1861	0.9644	0.4069	-0.937
Mof_O 	O 	0.0658	0.9651	0.3924	-0.058
Mof_O 	O 	0.0659	0.8958	0.4342	-0.091
Mof_C 	C 	0.1969	0.5626	0.3175	0.021
Mof_H 	H 	0.208	0.523	0.336	0.008
Mof_C 	C 	0.246	0.61	0.3004	-0.072
Mof_H 	H 	0.2962	0.6088	0.3064	0.045
Mof_N 	N 	0.2079	0.6595	0.2728	-0.114
Mof_C 	C 	0.1352	0.6427	0.2729	0.096
Mof_H 	H 	0.0972	0.6675	0.2571	0
Mof_N 	N 	0.1283	0.5828	0.3006	-0.156
Mof_C 	C 	0.0663	0.5545	0.3092	0.129
Mof_H 	H 	0.092	0.4611	0.3425	0.153
Mof_O 	O 	0.24	0.7258	0.1604	-0.228
Mof_C 	C 	0.1878	0.5575	0.2251	-0.047
Mof_H 	H 	0.1957	0.5123	0.2259	0.016
Mof_H 	H 	0.0953	0.4637	0.1535	0.147
Mof_N 	N 	0.2001	0.6651	0.238	-0.169
Mof_N 	N 	0.1267	0.5905	0.2056	-0.127
Mof_C 	C 	0.1404	0.6568	0.2161	0.019
Mof_H 	H 	0.1063	0.6899	0.2096	0.04
Mof_C 	C 	0.2325	0.6059	0.2437	0.061
Mof_C 	C 	0.0634	0.5665	0.1881	0.06
Mof_O 	O 	0.2462	0.7651	0.1587	-0.133
Mof_H 	H 	0.2792	0.5987	0.2586	-0.004
Mof_W 	W 	0.58693	0.32919	0.78994	1.341
Mof_W 	W 	0.58723	0.22297	0.91967	0.941
Mof_W 	W 	0.68	0.37503	0.9206	2.515
Mof_W 	W 	0.68043	0.45594	0.87095	1.238
Mof_O 	O 	0.5799	0.2608	0.8454	-0.459
Mof_O 	O 	0.647	0.2912	0.7455	-0.517
Mof_O 	O 	0.5816	0.4084	0.7472	-0.456
Mof_O 	O 	0.6481	0.3696	0.8411	-0.803
Mof_O 	O 	0.6494	0.2902	0.9389	-0.498
Mof_O 	O 	0.6819	0.4163	0.9424	-1.173
Mof_O 	O 	0.6861	0.4644	0.9069	-0.62
Mof_O 	O 	0.5658	0.4651	0.8924	0.012
Mof_O 	O 	0.5659	0.3958	0.9342	-0.154
Mof_C 	C 	0.6969	0.0626	0.8175	-0.068
Mof_H 	H 	0.708	0.023	0.836	0.11
Mof_C 	C 	0.746	0.11	0.8004	0.03
Mof_H 	H 	0.7962	0.1088	0.8064	-0.004
Mof_N 	N 	0.7079	0.1595	0.7728	-0.112
Mof_C 	C 	0.6352	0.1427	0.7729	0.072
Mof_H 	H 	0.5972	0.1675	0.7571	0.007
Mof_N 	N 	0.6283	0.0828	0.8006	-0.101
Mof_C 	C 	0.5663	0.0545	0.8092	-0.013
Mof_H 	H 	0.592	0.9611	0.8425	-0.122
Mof_O 	O 	0.74	0.2258	0.6604	-0.225
Mof_C 	C 	0.6878	0.0575	0.7251	0.351
Mof_H 	H 	0.6957	0.0123	0.7259	-0.456
Mof_H 	H 	0.5953	0.9637	0.6535	-0.143
Mof_N 	N 	0.7001	0.1651	0.738	-0.142
Mof_N 	N 	0.6267	0.0905	0.7056	-0.19
Mof_C 	C 	0.6404	0.1568	0.7161	0.031
Mof_H 	H 	0.6063	0.1899	0.7096	0.028
Mof_C 	C 	0.7325	0.1059	0.7437	-0.151
Mof_C 	C 	0.5634	0.0665	0.6881	0.155
Mof_O 	O 	0.7462	0.2651	0.6587	-0.146
Mof_H 	H 	0.7792	0.0987	0.7586	0.066
Mof_W 	W 	0.91307	0.17081	0.28994	1.266
Mof_W 	W 	0.91277	0.27703	0.41967	0.992
Mof_W 	W 	0.82	0.12497	0.4206	2.493
Mof_W 	W 	0.81957	0.04406	0.37095	0.794
Mof_O 	O 	0.9201	0.2392	0.3454	-0.487
Mof_O 	O 	0.853	0.2088	0.2455	-0.505
Mof_O 	O 	0.9184	0.0916	0.2472	-0.469
Mof_O 	O 	0.8519	0.1304	0.3411	-0.747
Mof_O 	O 	0.8506	0.2098	0.4389	-0.514
Mof_O 	O 	0.8181	0.0837	0.4424	-1.08
Mof_O 	O 	0.8139	0.0356	0.4069	-0.282
Mof_O 	O 	0.9342	0.0349	0.3924	0.062
Mof_O 	O 	0.9341	0.1042	0.4342	-0.121
Mof_C 	C 	0.8031	0.4374	0.3175	0.015
Mof_H 	H 	0.792	0.477	0.336	0.008
Mof_C 	C 	0.754	0.39	0.3004	-0.071
Mof_H 	H 	0.7038	0.3912	0.3064	0.044
Mof_N 	N 	0.7921	0.3405	0.2728	-0.113
Mof_C 	C 	0.8648	0.3573	0.2729	0.09
Mof_H 	H 	0.9028	0.3325	0.2571	-0.011
Mof_N 	N 	0.8717	0.4172	0.3006	-0.151
Mof_C 	C 	0.9337	0.4455	0.3092	0.076
Mof_H 	H 	0.908	0.5389	0.3425	0.171
Mof_O 	O 	0.76	0.2742	0.1604	-0.231
Mof_C 	C 	0.8122	0.4425	0.2251	-0.051
Mof_H 	H 	0.8043	0.4877	0.2259	0.018
Mof_H 	H 	0.9047	0.5363	0.1535	0.168
Mof_N 	N 	0.7999	0.3349	0.238	-0.17
Mof_N 	N 	0.8733	0.4095	0.2056	-0.123
Mof_C 	C 	0.8596	0.3432	0.2161	0.021
Mof_H 	H 	0.8937	0.3101	0.2096	0.026
Mof_C 	C 	0.7675	0.3941	0.2437	0.062
Mof_C 	C 	0.9366	0.4335	0.1881	0.004
Mof_O 	O 	0.7538	0.2349	0.1587	-0.134
Mof_H 	H 	0.7208	0.4013	0.2586	-0.005
Mof_W 	W 	0.41307	0.67081	0.78994	1.341
Mof_W 	W 	0.41277	0.77703	0.91967	0.93
Mof_W 	W 	0.32	0.62497	0.9206	2.521
Mof_W 	W 	0.31957	0.54406	0.87095	1.221
Mof_O 	O 	0.4201	0.7392	0.8454	-0.458
Mof_O 	O 	0.353	0.7088	0.7455	-0.515
Mof_O 	O 	0.4184	0.5916	0.7472	-0.455
Mof_O 	O 	0.3519	0.6304	0.8411	-0.801
Mof_O 	O 	0.3506	0.7098	0.9389	-0.5
Mof_O 	O 	0.3181	0.5837	0.9424	-1.175
Mof_O 	O 	0.3139	0.5356	0.9069	-0.608
Mof_O 	O 	0.4342	0.5349	0.8924	0.013
Mof_O 	O 	0.4341	0.6042	0.9342	-0.154
Mof_C 	C 	0.3031	0.9374	0.8175	0.085
Mof_H 	H 	0.292	0.977	0.836	-0.104
Mof_C 	C 	0.254	0.89	0.8004	-0.176
Mof_H 	H 	0.2038	0.8912	0.8064	0.07
Mof_N 	N 	0.2921	0.8405	0.7728	-0.116
Mof_C 	C 	0.3648	0.8573	0.7729	0.094
Mof_H 	H 	0.4028	0.8325	0.7571	0.004
Mof_N 	N 	0.3717	0.9172	0.8006	-0.129
Mof_C 	C 	0.4337	0.9455	0.8092	0.001
Mof_H 	H 	0.408	0.0389	0.8425	-0.059
Mof_O 	O 	0.26	0.7742	0.6604	-0.228
Mof_C 	C 	0.3122	0.9425	0.7251	-0.459
Mof_H 	H 	0.3043	0.9877	0.7259	0.489
Mof_H 	H 	0.4047	0.0363	0.6535	-0.092
Mof_N 	N 	0.2999	0.8349	0.738	-0.196
Mof_N 	N 	0.3733	0.9095	0.7056	-0.03
Mof_C 	C 	0.3596	0.8432	0.7161	0.009
Mof_H 	H 	0.3937	0.8101	0.7096	0.04
Mof_C 	C 	0.2675	0.8941	0.7437	0.274
Mof_C 	C 	0.4366	0.9335	0.6881	-0.121
Mof_O 	O 	0.2538	0.7349	0.6587	-0.142
Mof_H 	H 	0.2208	0.9013	0.7586	-0.083
Mof_W 	W 	0.08778	2.71584e-33	0.23895	1.184
Mof_O 	O 	0.15	2.71584e-33	0.2999	-0.601
Mof_W 	W 	0.58778	0.5	0.73895	1.077
Mof_O 	O 	0.65	0.5	0.7999	-0.641
Mof_W 	W 	0.91222	2.71584e-33	0.23895	1.109
Mof_O 	O 	0.85	2.71584e-33	0.2999	-0.593
Mof_W 	W 	0.41222	0.5	0.73895	1.077
Mof_O 	O 	0.35	0.5	0.7999	-0.64
Mof_W 	W 	0.91222	1.08634e-32	0.76105	1.089
Mof_O 	O 	0.85	0	0.7001	-0.59
Mof_W 	W 	0.41222	0.5	0.26105	1.073
Mof_O 	O 	0.35	0.5	0.2001	-0.626
Mof_W 	W 	0.08778	1.08634e-32	0.76105	1.164
Mof_O 	O 	0.15	0	0.7001	-0.598
Mof_W 	W 	0.58778	0.5	0.26105	1.073
Mof_O 	O 	0.65	0.5	0.2001	-0.626
Mof_W 	W 	0.17931	0.14881	0.5	-1.177
Mof_O 	O 	0.0814	0.2955	0.5	-0.413
Mof_O 	O 	0.1868	0.114	0.5	0.707
Mof_O 	O 	0.0662	0.122	0.5	0.206
Mof_W 	W 	0.67931	0.64881	-0	-1.801
Mof_O 	O 	0.5814	0.7955	-0	-0.32
Mof_O 	O 	0.6868	0.614	-0	1.207
Mof_O 	O 	0.5662	0.622	-0	0.298
Mof_W 	W 	0.82069	0.85119	0.5	-1.809
Mof_O 	O 	0.9186	0.7045	0.5	-0.417
Mof_O 	O 	0.8132	0.886	0.5	1.116
Mof_O 	O 	0.9338	0.878	0.5	0.199
Mof_W 	W 	0.32069	0.35119	-0	-1.816
Mof_O 	O 	0.4186	0.2045	-0	-0.309
Mof_O 	O 	0.3132	0.386	-0	1.221
Mof_O 	O 	0.4338	0.378	-0	0.298
Mof_W 	W 	0.82069	0.14881	0.5	-1.177
Mof_O 	O 	0.9186	0.2955	0.5	-0.429
Mof_O 	O 	0.8132	0.114	0.5	0.709
Mof_O 	O 	0.9338	0.122	0.5	0.18
Mof_W 	W 	0.32069	0.64881	-0	-1.799
Mof_O 	O 	0.4186	0.7955	-0	-0.319
Mof_O 	O 	0.3132	0.614	-0	1.209
Mof_O 	O 	0.4338	0.622	-0	0.298
Mof_W 	W 	0.17931	0.85119	0.5	-1.818
Mof_O 	O 	0.0814	0.7045	0.5	-0.401
Mof_O 	O 	0.1868	0.886	0.5	1.119
Mof_O 	O 	0.0662	0.878	0.5	0.225
Mof_W 	W 	0.67931	0.35119	-0	-1.817
Mof_O 	O 	0.5814	0.2045	-0	-0.31
Mof_O 	O 	0.6868	0.386	-0	1.219
Mof_O 	O 	0.5662	0.378	-0	0.298
Mof_P 	P 	7.75477e-33	0.1627	0.5	0.235
Mof_P 	P 	0.5	0.6627	-0	0.27
Mof_P 	P 	7.75477e-33	0.8373	0.5	0.226
Mof_P 	P 	0.5	0.3373	-0	0.269
Mof_P 	P 	1.92212e-33	0.136	0.4137	0.373
Mof_P 	P 	1.66565e-33	0.0486	0.3585	0.318
Mof_O 	O 	-3.53372e-33	0.321	0.4085	-0.407
Mof_O 	O 	3.89597e-33	0.1975	0.254	-0.418
Mof_O 	O 	1.59178e-33	0.1274	0.3426	-0.41
Mof_O 	O 	2.04106e-33	0.2075	0.4393	-0.346
Mof_C 	C 	1.37991e-33	0.415	0.297	-0.158
Mof_H 	H 	1.3e-33	0.3732	0.2798	0.1
Mof_C 	C 	-3.83805e-33	0.461	0.343	0.2
Mof_H 	H 	-3.78276e-33	0.4176	0.3549	-0.011
Mof_C 	C 	3.68689e-33	0.406	0.209	-0.005
Mof_H 	H 	3.80955e-33	0.3711	0.2354	0.04
Mof_C 	C 	6.36526e-34	0.48	0.137	0.16
Mof_H 	H 	5.93068e-33	0.4484	0.1074	0.002
Mof_P 	P 	0.5	0.636	0.9137	0.327
Mof_P 	P 	0.5	0.5486	0.8585	0.283
Mof_O 	O 	0.5	0.821	0.9085	-0.457
Mof_O 	O 	0.5	0.6975	0.754	-0.465
Mof_O 	O 	0.5	0.6274	0.8426	-0.424
Mof_O 	O 	0.5	0.7075	0.9393	-0.414
Mof_C 	C 	0.5	0.915	0.797	0.001
Mof_H 	H 	0.5	0.8732	0.7798	0.023
Mof_C 	C 	0.5	0.961	0.843	-0.402
Mof_H 	H 	0.5	0.9176	0.8549	0.164
Mof_C 	C 	0.5	0.906	0.709	-0.015
Mof_H 	H 	0.5	0.8711	0.7354	0.038
Mof_C 	C 	0.5	0.98	0.637	0.703
Mof_H 	H 	0.5	0.9484	0.6074	-0.212
Mof_P 	P 	-3.50956e-33	0.864	0.4137	0.376
Mof_P 	P 	7.09734e-33	0.9514	0.3585	0.267
Mof_O 	O 	1.89796e-33	0.679	0.4085	-0.401
Mof_O 	O 	1.18013e-33	0.8025	0.254	-0.43
Mof_O 	O 	1.59178e-33	0.8726	0.3426	-0.414
Mof_O 	O 	2.04106e-33	0.7925	0.4393	-0.336
Mof_C 	C 	6.8116e-33	0.585	0.297	-0.158
Mof_H 	H 	-9.56337e-33	0.6268	0.2798	0.1
Mof_C 	C 	7.02532e-33	0.539	0.343	0.199
Mof_H 	H 	7.08061e-33	0.5824	0.3549	-0.01
Mof_C 	C 	-7.17647e-33	0.594	0.209	-0.006
Mof_H 	H 	-7.05382e-33	0.6289	0.2354	0.04
Mof_C 	C 	6.36526e-34	0.52	0.137	0.156
Mof_H 	H 	-4.93268e-33	0.5516	0.1074	0.002
Mof_P 	P 	0.5	0.364	0.9137	0.327
Mof_P 	P 	0.5	0.4514	0.8585	0.284
Mof_O 	O 	0.5	0.179	0.9085	-0.445
Mof_O 	O 	0.5	0.3025	0.754	-0.467
Mof_O 	O 	0.5	0.3726	0.8426	-0.424
Mof_O 	O 	0.5	0.2925	0.9393	-0.417
Mof_C 	C 	0.5	0.085	0.797	0.003
Mof_H 	H 	0.5	0.1268	0.7798	0.017
Mof_C 	C 	0.5	0.039	0.843	-0.164
Mof_H 	H 	0.5	0.0824	0.8549	0.097
Mof_C 	C 	0.5	0.094	0.709	-0.135
Mof_H 	H 	0.5	0.1289	0.7354	0.08
Mof_C 	C 	0.5	0.02	0.637	-1.186
Mof_H 	H 	0.5	0.0516	0.6074	0.427
Mof_P 	P 	2.72405e-33	0.136	0.5863	0.374
Mof_P 	P 	2.98052e-33	0.0486	0.6415	0.318
Mof_O 	O 	-2.68347e-33	0.321	0.5915	-0.407
Mof_O 	O 	3.46605e-33	0.1975	0.746	-0.428
Mof_O 	O 	3.0544e-33	0.1274	0.6574	-0.409
Mof_O 	O 	1.34685e-32	0.2075	0.5607	-0.346
Mof_C 	C 	-1.84605e-32	0.415	0.703	-0.156
Mof_H 	H 	1.42095e-32	0.3732	0.7202	0.099
Mof_C 	C 	-7.81083e-33	0.461	0.657	0.199
Mof_H 	H 	-7.86612e-33	0.4176	0.6451	-0.011
Mof_C 	C 	3.67512e-33	0.406	0.791	-0.011
Mof_H 	H 	3.55246e-33	0.3711	0.7646	0.039
Mof_C 	C 	-6.85372e-33	0.48	0.863	0.157
Mof_H 	H 	1.50105e-32	0.4484	0.8926	-0.038
Mof_P 	P 	0.5	0.636	0.0863	0.331
Mof_P 	P 	0.5	0.5486	0.1415	0.28
Mof_O 	O 	0.5	0.821	0.0915	-0.442
Mof_O 	O 	0.5	0.6975	0.246	-0.467
Mof_O 	O 	0.5	0.6274	0.1574	-0.43
Mof_O 	O 	0.5	0.7075	0.0607	-0.359
Mof_C 	C 	0.5	0.915	0.203	-0.001
Mof_H 	H 	0.5	0.8732	0.2202	0.024
Mof_C 	C 	0.5	0.961	0.157	-0.373
Mof_H 	H 	0.5	0.9176	0.1451	0.17
Mof_C 	C 	0.5	0.906	0.291	-0.014
Mof_H 	H 	0.5	0.8711	0.2646	0.038
Mof_C 	C 	0.5	0.98	0.363	0.704
Mof_H 	H 	0.5	0.9484	0.3926	-0.212
Mof_P 	P 	-1.90027e-32	0.864	0.5863	0.377
Mof_P 	P 	-2.45116e-33	0.9514	0.6415	0.267
Mof_O 	O 	2.74821e-33	0.679	0.5915	-0.401
Mof_O 	O 	3.46605e-33	0.8025	0.746	-0.44
Mof_O 	O 	1.39178e-32	0.8726	0.6574	-0.412
Mof_O 	O 	2.60511e-33	0.7925	0.5607	-0.336
Mof_C 	C 	-7.59711e-33	0.585	0.703	-0.156
Mof_H 	H 	-7.51719e-33	0.6268	0.7202	0.099
Mof_C 	C 	3.05254e-33	0.539	0.657	0.199
Mof_H 	H 	-7.86612e-33	0.5824	0.6451	-0.01
Mof_C 	C 	3.67512e-33	0.594	0.791	-0.012
Mof_H 	H 	1.44158e-32	0.6289	0.7646	0.038
Mof_C 	C 	4.00965e-33	0.52	0.863	0.153
Mof_H 	H 	-6.71619e-33	0.5516	0.8926	-0.039
Mof_P 	P 	0.5	0.364	0.0863	0.331
Mof_P 	P 	0.5	0.4514	0.1415	0.28
Mof_O 	O 	0.5	0.179	0.0915	-0.43
Mof_O 	O 	0.5	0.3025	0.246	-0.469
Mof_O 	O 	0.5	0.3726	0.1574	-0.431
Mof_O 	O 	0.5	0.2925	0.0607	-0.362
Mof_C 	C 	0.5	0.085	0.203	0.001
Mof_H 	H 	0.5	0.1268	0.2202	0.018
Mof_C 	C 	0.5	0.039	0.157	-0.135
Mof_H 	H 	0.5	0.0824	0.1451	0.102
Mof_C 	C 	0.5	0.094	0.291	-0.135
Mof_H 	H 	0.5	0.1289	0.2646	0.08
Mof_C 	C 	0.5	0.02	0.363	-1.186
Mof_H 	H 	0.5	0.0516	0.3926	0.426
Mof_O 	O 	9.13902e-34	0	0.1967	-0.372
Mof_O 	O 	1.41569e-33	2.71584e-33	0.3047	-0.337
Mof_O 	O 	0.5	0.5	0.6967	-0.437
Mof_O 	O 	0.5	0.5	0.8047	-0.395
Mof_O 	O 	-7.13109e-33	0	0.8033	-0.396
Mof_O 	O 	1.40939e-32	0	0.6953	-0.333
Mof_O 	O 	0.5	0.5	0.3033	-0.436
Mof_O 	O 	0.5	0.5	0.1953	-0.394
Mof_Co	Co	0.25	0.25	0.25	1.183
Mof_Co	Co	0.75	0.75	0.25	1.184
Mof_Co	Co	0.75	0.25	0.75	1.183
Mof_Co	Co	0.25	0.75	0.75	1.184
Mof_Co	Co	0.75	0.75	0.75	1.184
Mof_Co	Co	0.25	0.25	0.75	1.183
Mof_Co	Co	0.25	0.75	0.25	1.184
Mof_Co	Co	0.75	0.25	0.25	1.183
Mof_C 	C 	0.0669	0.5	0.3351	-0.457
Mof_C 	C 	0.0648	0.5	0.1575	-0.378
Mof_C 	C 	0.5669	0	0.8351	0.381
Mof_C 	C 	0.5648	0	0.6575	0.413
Mof_C 	C 	0.9331	0.5	0.3351	-0.498
Mof_C 	C 	0.9352	0.5	0.1575	-0.446
Mof_C 	C 	0.4331	0	0.8351	0.382
Mof_C 	C 	0.4352	0	0.6575	0.414
Mof_C 	C 	0.9331	0.5	0.6649	-0.497
Mof_C 	C 	0.9352	0.5	0.8425	-0.438
Mof_C 	C 	0.4331	0	0.1649	0.363
Mof_C 	C 	0.4352	5.43168e-33	0.3425	0.413
Mof_C 	C 	0.0669	0.5	0.6649	-0.456
Mof_C 	C 	0.0648	0.5	0.8425	-0.371
Mof_C 	C 	0.5669	0	0.1649	0.362
Mof_C 	C 	0.5648	5.43168e-33	0.3425	0.413
Mof_O 	O 	0.046	5.43168e-33	0.5	2.795
Mof_K 	K 	0.0864	5.43168e-33	0.5	-5.626
Mof_O 	O 	0.546	0.5	-0	2.782
Mof_K 	K 	0.5864	0.5	-0	-5.649
Mof_O 	O 	0.954	5.43168e-33	0.5	2.744
Mof_K 	K 	0.9136	5.43168e-33	0.5	-5.631
Mof_O 	O 	0.454	0.5	-0	2.784
Mof_K 	K 	0.4136	0.5	-0	-5.652
_end
