# CIF file generated by openbabel 3.1.0, see https://openbabel.org
data_I
_chemical_name_common 'image0'
_cell_length_a 32.223
_cell_length_b 32.223
_cell_length_c 20.8273
_cell_angle_alpha 90
_cell_angle_beta 90
_cell_angle_gamma 120
_space_group_name_H-M_alt 'P 1'
_space_group_name_Hall 'P 1'
loop_
    _symmetry_equiv_pos_as_xyz
    x,y,z
loop_
    _atom_site_label
    _atom_site_type_symbol
    _atom_site_fract_x
    _atom_site_fract_y
    _atom_site_fract_z
    _atom_site_occupancy
    Ag1      Ag       0.14932    0.04590    0.23113    1.000
    Ag2      Ag       0.37039    0.04775    0.33030    1.000
    N1       N        0.30390    0.05850    0.30940    1.000
    N2       N        0.22050    0.05740    0.26860    1.000
    C1       C        0.24590    0.04730    0.22830    1.000
    C2       C        0.28760    0.04740    0.24930    1.000
    C3       C        0.27890    0.07090    0.34940    1.000
    C4       C        0.29550    0.08420    0.41420    1.000
    H1       H        0.32410    0.08530    0.42790    1.000
    C5       C        0.27000    0.09520    0.45560    1.000
    H2       H        0.28030    0.10240    0.49900    1.000
    C6       C        0.22840    0.09610    0.43580    1.000
    H3       H        0.21220    0.10570    0.46520    1.000
    C7       C        0.21080    0.08290    0.37260    1.000
    H4       H        0.18250    0.08250    0.35910    1.000
    C8       C        0.23700    0.07020    0.33030    1.000
    N3       N        0.18900    0.03330    0.14560    1.000
    N4       N        0.24210    0.01260    0.05760    1.000
    C9       C        0.25650    0.02440    0.11720    1.000
    C10      C        0.22920    0.03520    0.16320    1.000
    C11      C        0.17370    0.02230    0.08290    1.000
    C12      C        0.13200    0.02040    0.06420    1.000
    H5       H        0.11340    0.02640    0.09410    1.000
    C13      C        0.11780    0.00970    0.00150    1.000
    H6       H        0.08890    0.00850    0.98840    1.000
    C14      C        0.14330    0.00070    0.95750    1.000
    H7       H        0.13220    0.99370    0.91440    1.000
    C15      C        0.18540    0.00140    0.97410    1.000
    H8       H        0.20290    0.99470    0.94320    1.000
    C16      C        0.20160    0.01250    0.03860    1.000
    N5       N        0.32230    0.01190    0.09790    1.000
    N6       N        0.35220    0.03200    0.22590    1.000
    C17      C        0.31460    0.03440    0.20480    1.000
    C18      C        0.29960    0.02320    0.13900    1.000
    C19      C        0.36160    0.01030    0.11820    1.000
    C20      C        0.38660    0.99770    0.07540    1.000
    H9       H        0.37650    0.99020    0.03200    1.000
    C21      C        0.42680    0.99620    0.09710    1.000
    H10      H        0.44440    0.98850    0.06780    1.000
    C22      C        0.44140    0.00590    0.16060    1.000
    H11      H        0.46880    0.00460    0.17420    1.000
    C23      C        0.41690    0.01730    0.20360    1.000
    H12      H        0.42690    0.02370    0.24720    1.000
    C24      C        0.37640    0.01950    0.18300    1.000
    N7       N        0.07150    0.97660    0.23690    1.000
    N8       N        0.97560    0.90440    0.23640    1.000
    C25      C        0.98770    0.95050    0.24000    1.000
    C26      C        0.03660    0.98660    0.24070    1.000
    C27      C        0.05940    0.93040    0.23320    1.000
    C28      C        0.09560    0.91720    0.22670    1.000
    H13      H        0.12860    0.94110    0.22770    1.000
    C29      C        0.08270    0.87070    0.21930    1.000
    H14      H        0.10690    0.86250    0.21280    1.000
    C30      C        0.03520    0.83460    0.22100    1.000
    H15      H        0.02760    0.80210    0.21760    1.000
    C31      C        0.99880    0.84480    0.22740    1.000
    H16      H        0.96630    0.81980    0.22830    1.000
    C32      C        0.01080    0.89360    0.23260    1.000
    Ag3      Ag       0.81599    0.37923    0.56446    1.000
    Ag4      Ag       0.03706    0.38108    0.66363    1.000
    N9       N        0.97057    0.39183    0.64273    1.000
    N10      N        0.88717    0.39073    0.60193    1.000
    C33      C        0.91257    0.38063    0.56163    1.000
    C34      C        0.95427    0.38073    0.58263    1.000
    C35      C        0.94557    0.40423    0.68273    1.000
    C36      C        0.96217    0.41753    0.74753    1.000
    H17      H        0.99077    0.41863    0.76123    1.000
    C37      C        0.93667    0.42853    0.78893    1.000
    H18      H        0.94697    0.43573    0.83233    1.000
    C38      C        0.89507    0.42943    0.76913    1.000
    H19      H        0.87887    0.43903    0.79853    1.000
    C39      C        0.87747    0.41623    0.70593    1.000
    H20      H        0.84917    0.41583    0.69243    1.000
    C40      C        0.90367    0.40353    0.66363    1.000
    N11      N        0.85567    0.36663    0.47893    1.000
    N12      N        0.90877    0.34593    0.39093    1.000
    C41      C        0.92317    0.35773    0.45053    1.000
    C42      C        0.89587    0.36853    0.49653    1.000
    C43      C        0.84037    0.35563    0.41623    1.000
    C44      C        0.79867    0.35373    0.39753    1.000
    H21      H        0.78007    0.35973    0.42743    1.000
    C45      C        0.78447    0.34303    0.33483    1.000
    H22      H        0.75557    0.34183    0.32173    1.000
    C46      C        0.80997    0.33403    0.29083    1.000
    H23      H        0.79887    0.32703    0.24773    1.000
    C47      C        0.85207    0.33473    0.30743    1.000
    H24      H        0.86957    0.32803    0.27653    1.000
    C48      C        0.86827    0.34583    0.37193    1.000
    N13      N        0.98897    0.34523    0.43123    1.000
    N14      N        0.01887    0.36533    0.55923    1.000
    C49      C        0.98127    0.36773    0.53813    1.000
    C50      C        0.96627    0.35653    0.47233    1.000
    C51      C        0.02827    0.34363    0.45153    1.000
    C52      C        0.05327    0.33103    0.40873    1.000
    H25      H        0.04317    0.32353    0.36533    1.000
    C53      C        0.09347    0.32953    0.43043    1.000
    H26      H        0.11107    0.32183    0.40113    1.000
    C54      C        0.10807    0.33923    0.49393    1.000
    H27      H        0.13547    0.33793    0.50753    1.000
    C55      C        0.08357    0.35063    0.53693    1.000
    H28      H        0.09357    0.35703    0.58053    1.000
    C56      C        0.04307    0.35283    0.51633    1.000
    N15      N        0.73817    0.30993    0.57023    1.000
    N16      N        0.64227    0.23773    0.56973    1.000
    C57      C        0.65437    0.28383    0.57333    1.000
    C58      C        0.70327    0.31993    0.57403    1.000
    C59      C        0.72607    0.26373    0.56653    1.000
    C60      C        0.76227    0.25053    0.56003    1.000
    H29      H        0.79527    0.27443    0.56103    1.000
    C61      C        0.74937    0.20403    0.55263    1.000
    H30      H        0.77357    0.19583    0.54613    1.000
    C62      C        0.70187    0.16793    0.55433    1.000
    H31      H        0.69427    0.13543    0.55093    1.000
    C63      C        0.66547    0.17813    0.56073    1.000
    H32      H        0.63297    0.15313    0.56163    1.000
    C64      C        0.67747    0.22693    0.56593    1.000
    Ag5      Ag       0.48265    0.71257    0.89780    1.000
    Ag6      Ag       0.70372    0.71442    0.99697    1.000
    N17      N        0.63723    0.72517    0.97607    1.000
    N18      N        0.55383    0.72407    0.93527    1.000
    C65      C        0.57923    0.71397    0.89497    1.000
    C66      C        0.62093    0.71407    0.91597    1.000
    C67      C        0.61223    0.73757    0.01607    1.000
    C68      C        0.62883    0.75087    0.08087    1.000
    H33      H        0.65743    0.75197    0.09457    1.000
    C69      C        0.60333    0.76187    0.12227    1.000
    H34      H        0.61363    0.76907    0.16567    1.000
    C70      C        0.56173    0.76277    0.10247    1.000
    H35      H        0.54553    0.77237    0.13187    1.000
    C71      C        0.54413    0.74957    0.03927    1.000
    H36      H        0.51583    0.74917    0.02577    1.000
    C72      C        0.57033    0.73687    0.99697    1.000
    N19      N        0.52233    0.69997    0.81227    1.000
    N20      N        0.57543    0.67927    0.72427    1.000
    C73      C        0.58983    0.69107    0.78387    1.000
    C74      C        0.56253    0.70187    0.82987    1.000
    C75      C        0.50703    0.68897    0.74957    1.000
    C76      C        0.46533    0.68707    0.73087    1.000
    H37      H        0.44673    0.69307    0.76077    1.000
    C77      C        0.45113    0.67637    0.66817    1.000
    H38      H        0.42223    0.67517    0.65507    1.000
    C78      C        0.47663    0.66737    0.62417    1.000
    H39      H        0.46553    0.66037    0.58107    1.000
    C79      C        0.51873    0.66807    0.64077    1.000
    H40      H        0.53623    0.66137    0.60987    1.000
    C80      C        0.53493    0.67917    0.70527    1.000
    N21      N        0.65563    0.67857    0.76457    1.000
    N22      N        0.68553    0.69867    0.89257    1.000
    C81      C        0.64793    0.70107    0.87147    1.000
    C82      C        0.63293    0.68987    0.80567    1.000
    C83      C        0.69493    0.67697    0.78487    1.000
    C84      C        0.71993    0.66437    0.74207    1.000
    H41      H        0.70983    0.65687    0.69867    1.000
    C85      C        0.76013    0.66287    0.76377    1.000
    H42      H        0.77773    0.65517    0.73447    1.000
    C86      C        0.77473    0.67257    0.82727    1.000
    H43      H        0.80213    0.67127    0.84087    1.000
    C87      C        0.75023    0.68397    0.87027    1.000
    H44      H        0.76023    0.69037    0.91387    1.000
    C88      C        0.70973    0.68617    0.84967    1.000
    N23      N        0.40483    0.64327    0.90357    1.000
    N24      N        0.30893    0.57107    0.90307    1.000
    C89      C        0.32103    0.61717    0.90667    1.000
    C90      C        0.36993    0.65327    0.90737    1.000
    C91      C        0.39273    0.59707    0.89987    1.000
    C92      C        0.42893    0.58387    0.89337    1.000
    H45      H        0.46193    0.60777    0.89437    1.000
    C93      C        0.41603    0.53737    0.88597    1.000
    H46      H        0.44023    0.52917    0.87947    1.000
    C94      C        0.36853    0.50127    0.88767    1.000
    H47      H        0.36093    0.46877    0.88427    1.000
    C95      C        0.33213    0.51147    0.89407    1.000
    H48      H        0.29963    0.48647    0.89497    1.000
    C96      C        0.34413    0.56027    0.89927    1.000
    Ag7      Ag       0.95410    0.10342    0.23113    1.000
    Ag8      Ag       0.95225    0.32264    0.33030    1.000
    N25      N        0.94150    0.24540    0.30940    1.000
    N26      N        0.94260    0.16310    0.26860    1.000
    C97      C        0.95270    0.19860    0.22830    1.000
    C98      C        0.95260    0.24020    0.24930    1.000
    C99      C        0.92910    0.20800    0.34940    1.000
    C100     C        0.91580    0.21130    0.41420    1.000
    H49      H        0.91470    0.23880    0.42790    1.000
    C101     C        0.90480    0.17480    0.45560    1.000
    H50      H        0.89760    0.17790    0.49900    1.000
    C102     C        0.90390    0.13230    0.43580    1.000
    H51      H        0.89430    0.10650    0.46520    1.000
    C103     C        0.91710    0.12790    0.37260    1.000
    H52      H        0.91750    0.10000    0.35910    1.000
    C104     C        0.92980    0.16680    0.33030    1.000
    N27      N        0.96670    0.15570    0.14560    1.000
    N28      N        0.98740    0.22950    0.05760    1.000
    C105     C        0.97560    0.23210    0.11720    1.000
    C106     C        0.96480    0.19400    0.16320    1.000
    C107     C        0.97770    0.15140    0.08290    1.000
    C108     C        0.97960    0.11160    0.06420    1.000
    H53      H        0.97360    0.08700    0.09410    1.000
    C109     C        0.99030    0.10810    0.00150    1.000
    H54      H        0.99150    0.08040    0.98840    1.000
    C110     C        0.99930    0.14260    0.95750    1.000
    H55      H        0.00630    0.13850    0.91440    1.000
    C111     C        0.99860    0.18400    0.97410    1.000
    H56      H        0.00530    0.20820    0.94320    1.000
    C112     C        0.98750    0.18910    0.03860    1.000
    N29      N        0.98810    0.31040    0.09790    1.000
    N30      N        0.96800    0.32020    0.22590    1.000
    C113     C        0.96560    0.28020    0.20480    1.000
    C114     C        0.97680    0.27640    0.13900    1.000
    C115     C        0.98970    0.35130    0.11820    1.000
    C116     C        0.00230    0.38890    0.07540    1.000
    H57      H        0.00980    0.38630    0.03200    1.000
    C117     C        0.00380    0.43060    0.09710    1.000
    H58      H        0.01150    0.45590    0.06780    1.000
    C118     C        0.99410    0.43550    0.16060    1.000
    H59      H        0.99540    0.46420    0.17420    1.000
    C119     C        0.98270    0.39960    0.20360    1.000
    H60      H        0.97630    0.40320    0.24720    1.000
    C120     C        0.98050    0.35690    0.18300    1.000
    N31      N        0.02340    0.09490    0.23690    1.000
    N32      N        0.09560    0.07120    0.23640    1.000
    C121     C        0.04950    0.03720    0.24000    1.000
    C122     C        0.01340    0.05000    0.24070    1.000
    C123     C        0.06960    0.12900    0.23320    1.000
    C124     C        0.08280    0.17840    0.22670    1.000
    H61      H        0.05890    0.18750    0.22770    1.000
    C125     C        0.12930    0.21200    0.21930    1.000
    H62      H        0.13750    0.24440    0.21280    1.000
    C126     C        0.16540    0.20060    0.22100    1.000
    H63      H        0.19790    0.22550    0.21760    1.000
    C127     C        0.15520    0.15400    0.22740    1.000
    H64      H        0.18020    0.14650    0.22830    1.000
    C128     C        0.10640    0.11720    0.23260    1.000
    Ag9      Ag       0.62077    0.43675    0.56446    1.000
    Ag10     Ag       0.61892    0.65597    0.66363    1.000
    N33      N        0.60817    0.57873    0.64273    1.000
    N34      N        0.60927    0.49643    0.60193    1.000
    C129     C        0.61937    0.53193    0.56163    1.000
    C130     C        0.61927    0.57353    0.58263    1.000
    C131     C        0.59577    0.54133    0.68273    1.000
    C132     C        0.58247    0.54463    0.74753    1.000
    H65      H        0.58137    0.57213    0.76123    1.000
    C133     C        0.57147    0.50813    0.78893    1.000
    H66      H        0.56427    0.51123    0.83233    1.000
    C134     C        0.57057    0.46563    0.76913    1.000
    H67      H        0.56097    0.43983    0.79853    1.000
    C135     C        0.58377    0.46123    0.70593    1.000
    H68      H        0.58417    0.43333    0.69243    1.000
    C136     C        0.59647    0.50013    0.66363    1.000
    N35      N        0.63337    0.48903    0.47893    1.000
    N36      N        0.65407    0.56283    0.39093    1.000
    C137     C        0.64227    0.56543    0.45053    1.000
    C138     C        0.63147    0.52733    0.49653    1.000
    C139     C        0.64437    0.48473    0.41623    1.000
    C140     C        0.64627    0.44493    0.39753    1.000
    H69      H        0.64027    0.42033    0.42743    1.000
    C141     C        0.65697    0.44143    0.33483    1.000
    H70      H        0.65817    0.41373    0.32173    1.000
    C142     C        0.66597    0.47593    0.29083    1.000
    H71      H        0.67297    0.47183    0.24773    1.000
    C143     C        0.66527    0.51733    0.30743    1.000
    H72      H        0.67197    0.54153    0.27653    1.000
    C144     C        0.65417    0.52243    0.37193    1.000
    N37      N        0.65477    0.64373    0.43123    1.000
    N38      N        0.63467    0.65353    0.55923    1.000
    C145     C        0.63227    0.61353    0.53813    1.000
    C146     C        0.64347    0.60973    0.47233    1.000
    C147     C        0.65637    0.68463    0.45153    1.000
    C148     C        0.66897    0.72223    0.40873    1.000
    H73      H        0.67647    0.71963    0.36533    1.000
    C149     C        0.67047    0.76393    0.43043    1.000
    H74      H        0.67817    0.78923    0.40113    1.000
    C150     C        0.66077    0.76883    0.49393    1.000
    H75      H        0.66207    0.79753    0.50753    1.000
    C151     C        0.64937    0.73293    0.53693    1.000
    H76      H        0.64297    0.73653    0.58053    1.000
    C152     C        0.64717    0.69023    0.51633    1.000
    N39      N        0.69007    0.42823    0.57023    1.000
    N40      N        0.76227    0.40453    0.56973    1.000
    C153     C        0.71617    0.37053    0.57333    1.000
    C154     C        0.68007    0.38333    0.57403    1.000
    C155     C        0.73627    0.46233    0.56653    1.000
    C156     C        0.74947    0.51173    0.56003    1.000
    H77      H        0.72557    0.52083    0.56103    1.000
    C157     C        0.79597    0.54533    0.55263    1.000
    H78      H        0.80417    0.57773    0.54613    1.000
    C158     C        0.83207    0.53393    0.55433    1.000
    H79      H        0.86457    0.55883    0.55093    1.000
    C159     C        0.82187    0.48733    0.56073    1.000
    H80      H        0.84687    0.47983    0.56163    1.000
    C160     C        0.77307    0.45053    0.56593    1.000
    Ag11     Ag       0.28743    0.77009    0.89780    1.000
    Ag12     Ag       0.28558    0.98931    0.99697    1.000
    N41      N        0.27483    0.91207    0.97607    1.000
    N42      N        0.27593    0.82977    0.93527    1.000
    C161     C        0.28603    0.86527    0.89497    1.000
    C162     C        0.28593    0.90687    0.91597    1.000
    C163     C        0.26243    0.87467    0.01607    1.000
    C164     C        0.24913    0.87797    0.08087    1.000
    H81      H        0.24803    0.90547    0.09457    1.000
    C165     C        0.23813    0.84147    0.12227    1.000
    H82      H        0.23093    0.84457    0.16567    1.000
    C166     C        0.23723    0.79897    0.10247    1.000
    H83      H        0.22763    0.77317    0.13187    1.000
    C167     C        0.25043    0.79457    0.03927    1.000
    H84      H        0.25083    0.76667    0.02577    1.000
    C168     C        0.26313    0.83347    0.99697    1.000
    N43      N        0.30003    0.82237    0.81227    1.000
    N44      N        0.32073    0.89617    0.72427    1.000
    C169     C        0.30893    0.89877    0.78387    1.000
    C170     C        0.29813    0.86067    0.82987    1.000
    C171     C        0.31103    0.81807    0.74957    1.000
    C172     C        0.31293    0.77827    0.73087    1.000
    H85      H        0.30693    0.75367    0.76077    1.000
    C173     C        0.32363    0.77477    0.66817    1.000
    H86      H        0.32483    0.74707    0.65507    1.000
    C174     C        0.33263    0.80927    0.62417    1.000
    H87      H        0.33963    0.80517    0.58107    1.000
    C175     C        0.33193    0.85067    0.64077    1.000
    H88      H        0.33863    0.87487    0.60987    1.000
    C176     C        0.32083    0.85577    0.70527    1.000
    N45      N        0.32143    0.97707    0.76457    1.000
    N46      N        0.30133    0.98687    0.89257    1.000
    C177     C        0.29893    0.94687    0.87147    1.000
    C178     C        0.31013    0.94307    0.80567    1.000
    C179     C        0.32303    0.01797    0.78487    1.000
    C180     C        0.33563    0.05557    0.74207    1.000
    H89      H        0.34313    0.05297    0.69867    1.000
    C181     C        0.33713    0.09727    0.76377    1.000
    H90      H        0.34483    0.12257    0.73447    1.000
    C182     C        0.32743    0.10217    0.82727    1.000
    H91      H        0.32873    0.13087    0.84087    1.000
    C183     C        0.31603    0.06627    0.87027    1.000
    H92      H        0.30963    0.06987    0.91387    1.000
    C184     C        0.31383    0.02357    0.84967    1.000
    N47      N        0.35673    0.76157    0.90357    1.000
    N48      N        0.42893    0.73787    0.90307    1.000
    C185     C        0.38283    0.70387    0.90667    1.000
    C186     C        0.34673    0.71667    0.90737    1.000
    C187     C        0.40293    0.79567    0.89987    1.000
    C188     C        0.41613    0.84507    0.89337    1.000
    H93      H        0.39223    0.85417    0.89437    1.000
    C189     C        0.46263    0.87867    0.88597    1.000
    H94      H        0.47083    0.91107    0.87947    1.000
    C190     C        0.49873    0.86727    0.88767    1.000
    H95      H        0.53123    0.89217    0.88427    1.000
    C191     C        0.48853    0.82067    0.89407    1.000
    H96      H        0.51353    0.81317    0.89497    1.000
    C192     C        0.43973    0.78387    0.89927    1.000
    Ag13     Ag       0.89658    0.85068    0.23113    1.000
    Ag14     Ag       0.67736    0.62961    0.33030    1.000
    N49      N        0.75460    0.69610    0.30940    1.000
    N50      N        0.83690    0.77950    0.26860    1.000
    C193     C        0.80140    0.75410    0.22830    1.000
    C194     C        0.75980    0.71240    0.24930    1.000
    C195     C        0.79200    0.72110    0.34940    1.000
    C196     C        0.78870    0.70450    0.41420    1.000
    H97      H        0.76120    0.67590    0.42790    1.000
    C197     C        0.82520    0.73000    0.45560    1.000
    H98      H        0.82210    0.71970    0.49900    1.000
    C198     C        0.86770    0.77160    0.43580    1.000
    H99      H        0.89350    0.78780    0.46520    1.000
    C199     C        0.87210    0.78920    0.37260    1.000
    H100     H        0.90000    0.81750    0.35910    1.000
    C200     C        0.83320    0.76300    0.33030    1.000
    N51      N        0.84430    0.81100    0.14560    1.000
    N52      N        0.77050    0.75790    0.05760    1.000
    C201     C        0.76790    0.74350    0.11720    1.000
    C202     C        0.80600    0.77080    0.16320    1.000
    C203     C        0.84860    0.82630    0.08290    1.000
    C204     C        0.88840    0.86800    0.06420    1.000
    H101     H        0.91300    0.88660    0.09410    1.000
    C205     C        0.89190    0.88220    0.00150    1.000
    H102     H        0.91960    0.91110    0.98840    1.000
    C206     C        0.85740    0.85670    0.95750    1.000
    H103     H        0.86150    0.86780    0.91440    1.000
    C207     C        0.81600    0.81460    0.97410    1.000
    H104     H        0.79180    0.79710    0.94320    1.000
    C208     C        0.81090    0.79840    0.03860    1.000
    N53      N        0.68960    0.67770    0.09790    1.000
    N54      N        0.67980    0.64780    0.22590    1.000
    C209     C        0.71980    0.68540    0.20480    1.000
    C210     C        0.72360    0.70040    0.13900    1.000
    C211     C        0.64870    0.63840    0.11820    1.000
    C212     C        0.61110    0.61340    0.07540    1.000
    H105     H        0.61370    0.62350    0.03200    1.000
    C213     C        0.56940    0.57320    0.09710    1.000
    H106     H        0.54410    0.55560    0.06780    1.000
    C214     C        0.56450    0.55860    0.16060    1.000
    H107     H        0.53580    0.53120    0.17420    1.000
    C215     C        0.60040    0.58310    0.20360    1.000
    H108     H        0.59680    0.57310    0.24720    1.000
    C216     C        0.64310    0.62360    0.18300    1.000
    N55      N        0.90510    0.92850    0.23690    1.000
    N56      N        0.92880    0.02440    0.23640    1.000
    C217     C        0.96280    0.01230    0.24000    1.000
    C218     C        0.95000    0.96340    0.24070    1.000
    C219     C        0.87100    0.94060    0.23320    1.000
    C220     C        0.82160    0.90440    0.22670    1.000
    H109     H        0.81250    0.87140    0.22770    1.000
    C221     C        0.78800    0.91730    0.21930    1.000
    H110     H        0.75560    0.89310    0.21280    1.000
    C222     C        0.79940    0.96480    0.22100    1.000
    H111     H        0.77450    0.97240    0.21760    1.000
    C223     C        0.84600    0.00120    0.22740    1.000
    H112     H        0.85350    0.03370    0.22830    1.000
    C224     C        0.88280    0.98920    0.23260    1.000
    Ag15     Ag       0.56325    0.18401    0.56446    1.000
    Ag16     Ag       0.34403    0.96294    0.66363    1.000
    N57      N        0.42127    0.02943    0.64273    1.000
    N58      N        0.50357    0.11283    0.60193    1.000
    C225     C        0.46807    0.08743    0.56163    1.000
    C226     C        0.42647    0.04573    0.58263    1.000
    C227     C        0.45867    0.05443    0.68273    1.000
    C228     C        0.45537    0.03783    0.74753    1.000
    H113     H        0.42787    0.00923    0.76123    1.000
    C229     C        0.49187    0.06333    0.78893    1.000
    H114     H        0.48877    0.05303    0.83233    1.000
    C230     C        0.53437    0.10493    0.76913    1.000
    H115     H        0.56017    0.12113    0.79853    1.000
    C231     C        0.53877    0.12253    0.70593    1.000
    H116     H        0.56667    0.15083    0.69243    1.000
    C232     C        0.49987    0.09633    0.66363    1.000
    N59      N        0.51097    0.14433    0.47893    1.000
    N60      N        0.43717    0.09123    0.39093    1.000
    C233     C        0.43457    0.07683    0.45053    1.000
    C234     C        0.47267    0.10413    0.49653    1.000
    C235     C        0.51527    0.15963    0.41623    1.000
    C236     C        0.55507    0.20133    0.39753    1.000
    H117     H        0.57967    0.21993    0.42743    1.000
    C237     C        0.55857    0.21553    0.33483    1.000
    H118     H        0.58627    0.24443    0.32173    1.000
    C238     C        0.52407    0.19003    0.29083    1.000
    H119     H        0.52817    0.20113    0.24773    1.000
    C239     C        0.48267    0.14793    0.30743    1.000
    H120     H        0.45847    0.13043    0.27653    1.000
    C240     C        0.47757    0.13173    0.37193    1.000
    N61      N        0.35627    0.01103    0.43123    1.000
    N62      N        0.34647    0.98113    0.55923    1.000
    C241     C        0.38647    0.01873    0.53813    1.000
    C242     C        0.39027    0.03373    0.47233    1.000
    C243     C        0.31537    0.97173    0.45153    1.000
    C244     C        0.27777    0.94673    0.40873    1.000
    H121     H        0.28037    0.95683    0.36533    1.000
    C245     C        0.23607    0.90653    0.43043    1.000
    H122     H        0.21077    0.88893    0.40113    1.000
    C246     C        0.23117    0.89193    0.49393    1.000
    H123     H        0.20247    0.86453    0.50753    1.000
    C247     C        0.26707    0.91643    0.53693    1.000
    H124     H        0.26347    0.90643    0.58053    1.000
    C248     C        0.30977    0.95693    0.51633    1.000
    N63      N        0.57177    0.26183    0.57023    1.000
    N64      N        0.59547    0.35773    0.56973    1.000
    C249     C        0.62947    0.34563    0.57333    1.000
    C250     C        0.61667    0.29673    0.57403    1.000
    C251     C        0.53767    0.27393    0.56653    1.000
    C252     C        0.48827    0.23773    0.56003    1.000
    H125     H        0.47917    0.20473    0.56103    1.000
    C253     C        0.45467    0.25063    0.55263    1.000
    H126     H        0.42227    0.22643    0.54613    1.000
    C254     C        0.46607    0.29813    0.55433    1.000
    H127     H        0.44117    0.30573    0.55093    1.000
    C255     C        0.51267    0.33453    0.56073    1.000
    H128     H        0.52017    0.36703    0.56163    1.000
    C256     C        0.54947    0.32253    0.56593    1.000
    Ag17     Ag       0.22991    0.51735    0.89780    1.000
    Ag18     Ag       0.01069    0.29628    0.99697    1.000
    N65      N        0.08793    0.36277    0.97607    1.000
    N66      N        0.17023    0.44617    0.93527    1.000
    C257     C        0.13473    0.42077    0.89497    1.000
    C258     C        0.09313    0.37907    0.91597    1.000
    C259     C        0.12533    0.38777    0.01607    1.000
    C260     C        0.12203    0.37117    0.08087    1.000
    H129     H        0.09453    0.34257    0.09457    1.000
    C261     C        0.15853    0.39667    0.12227    1.000
    H130     H        0.15543    0.38637    0.16567    1.000
    C262     C        0.20103    0.43827    0.10247    1.000
    H131     H        0.22683    0.45447    0.13187    1.000
    C263     C        0.20543    0.45587    0.03927    1.000
    H132     H        0.23333    0.48417    0.02577    1.000
    C264     C        0.16653    0.42967    0.99697    1.000
    N67      N        0.17763    0.47767    0.81227    1.000
    N68      N        0.10383    0.42457    0.72427    1.000
    C265     C        0.10123    0.41017    0.78387    1.000
    C266     C        0.13933    0.43747    0.82987    1.000
    C267     C        0.18193    0.49297    0.74957    1.000
    C268     C        0.22173    0.53467    0.73087    1.000
    H133     H        0.24633    0.55327    0.76077    1.000
    C269     C        0.22523    0.54887    0.66817    1.000
    H134     H        0.25293    0.57777    0.65507    1.000
    C270     C        0.19073    0.52337    0.62417    1.000
    H135     H        0.19483    0.53447    0.58107    1.000
    C271     C        0.14933    0.48127    0.64077    1.000
    H136     H        0.12513    0.46377    0.60987    1.000
    C272     C        0.14423    0.46507    0.70527    1.000
    N69      N        0.02293    0.34437    0.76457    1.000
    N70      N        0.01313    0.31447    0.89257    1.000
    C273     C        0.05313    0.35207    0.87147    1.000
    C274     C        0.05693    0.36707    0.80567    1.000
    C275     C        0.98203    0.30507    0.78487    1.000
    C276     C        0.94443    0.28007    0.74207    1.000
    H137     H        0.94703    0.29017    0.69867    1.000
    C277     C        0.90273    0.23987    0.76377    1.000
    H138     H        0.87743    0.22227    0.73447    1.000
    C278     C        0.89783    0.22527    0.82727    1.000
    H139     H        0.86913    0.19787    0.84087    1.000
    C279     C        0.93373    0.24977    0.87027    1.000
    H140     H        0.93013    0.23977    0.91387    1.000
    C280     C        0.97643    0.29027    0.84967    1.000
    N71      N        0.23843    0.59517    0.90357    1.000
    N72      N        0.26213    0.69107    0.90307    1.000
    C281     C        0.29613    0.67897    0.90667    1.000
    C282     C        0.28333    0.63007    0.90737    1.000
    C283     C        0.20433    0.60727    0.89987    1.000
    C284     C        0.15493    0.57107    0.89337    1.000
    H141     H        0.14583    0.53807    0.89437    1.000
    C285     C        0.12133    0.58397    0.88597    1.000
    H142     H        0.08893    0.55977    0.87947    1.000
    C286     C        0.13273    0.63147    0.88767    1.000
    H143     H        0.10783    0.63907    0.88427    1.000
    C287     C        0.17933    0.66787    0.89407    1.000
    H144     H        0.18683    0.70037    0.89497    1.000
    C288     C        0.21613    0.65587    0.89927    1.000
    Ag19     Ag       0.85068    0.95410    0.76887    1.000
    Ag20     Ag       0.62961    0.95225    0.66970    1.000
    N73      N        0.69610    0.94150    0.69060    1.000
    N74      N        0.77950    0.94260    0.73140    1.000
    C289     C        0.75410    0.95270    0.77170    1.000
    C290     C        0.71240    0.95260    0.75070    1.000
    C291     C        0.72110    0.92910    0.65060    1.000
    C292     C        0.70450    0.91580    0.58580    1.000
    H145     H        0.67590    0.91470    0.57210    1.000
    C293     C        0.73000    0.90480    0.54440    1.000
    H146     H        0.71970    0.89760    0.50100    1.000
    C294     C        0.77160    0.90390    0.56420    1.000
    H147     H        0.78780    0.89430    0.53480    1.000
    C295     C        0.78920    0.91710    0.62740    1.000
    H148     H        0.81750    0.91750    0.64090    1.000
    C296     C        0.76300    0.92980    0.66970    1.000
    N75      N        0.81100    0.96670    0.85440    1.000
    N76      N        0.75790    0.98740    0.94240    1.000
    C297     C        0.74350    0.97560    0.88280    1.000
    C298     C        0.77080    0.96480    0.83680    1.000
    C299     C        0.82630    0.97770    0.91710    1.000
    C300     C        0.86800    0.97960    0.93580    1.000
    H149     H        0.88660    0.97360    0.90590    1.000
    C301     C        0.88220    0.99030    0.99850    1.000
    H150     H        0.91110    0.99150    0.01160    1.000
    C302     C        0.85670    0.99930    0.04250    1.000
    H151     H        0.86780    0.00630    0.08560    1.000
    C303     C        0.81460    0.99860    0.02590    1.000
    H152     H        0.79710    0.00530    0.05680    1.000
    C304     C        0.79840    0.98750    0.96140    1.000
    N77      N        0.67770    0.98810    0.90210    1.000
    N78      N        0.64780    0.96800    0.77410    1.000
    C305     C        0.68540    0.96560    0.79520    1.000
    C306     C        0.70040    0.97680    0.86100    1.000
    C307     C        0.63840    0.98970    0.88180    1.000
    C308     C        0.61340    0.00230    0.92460    1.000
    H153     H        0.62350    0.00980    0.96800    1.000
    C309     C        0.57320    0.00380    0.90290    1.000
    H154     H        0.55560    0.01150    0.93220    1.000
    C310     C        0.55860    0.99410    0.83940    1.000
    H155     H        0.53120    0.99540    0.82580    1.000
    C311     C        0.58310    0.98270    0.79640    1.000
    H156     H        0.57310    0.97630    0.75280    1.000
    C312     C        0.62360    0.98050    0.81700    1.000
    N79      N        0.92850    0.02340    0.76310    1.000
    N80      N        0.02440    0.09560    0.76360    1.000
    C313     C        0.01230    0.04950    0.76000    1.000
    C314     C        0.96340    0.01340    0.75930    1.000
    C315     C        0.94060    0.06960    0.76680    1.000
    C316     C        0.90440    0.08280    0.77330    1.000
    H157     H        0.87140    0.05890    0.77230    1.000
    C317     C        0.91730    0.12930    0.78070    1.000
    H158     H        0.89310    0.13750    0.78720    1.000
    C318     C        0.96480    0.16540    0.77900    1.000
    H159     H        0.97240    0.19790    0.78240    1.000
    C319     C        0.00120    0.15520    0.77260    1.000
    H160     H        0.03370    0.18020    0.77170    1.000
    C320     C        0.98920    0.10640    0.76740    1.000
    Ag21     Ag       0.51735    0.28743    0.10220    1.000
    Ag22     Ag       0.29628    0.28558    0.00303    1.000
    N81      N        0.36277    0.27483    0.02393    1.000
    N82      N        0.44617    0.27593    0.06473    1.000
    C321     C        0.42077    0.28603    0.10503    1.000
    C322     C        0.37907    0.28593    0.08403    1.000
    C323     C        0.38777    0.26243    0.98393    1.000
    C324     C        0.37117    0.24913    0.91913    1.000
    H161     H        0.34257    0.24803    0.90543    1.000
    C325     C        0.39667    0.23813    0.87773    1.000
    H162     H        0.38637    0.23093    0.83433    1.000
    C326     C        0.43827    0.23723    0.89753    1.000
    H163     H        0.45447    0.22763    0.86813    1.000
    C327     C        0.45587    0.25043    0.96073    1.000
    H164     H        0.48417    0.25083    0.97423    1.000
    C328     C        0.42967    0.26313    0.00303    1.000
    N83      N        0.47767    0.30003    0.18773    1.000
    N84      N        0.42457    0.32073    0.27573    1.000
    C329     C        0.41017    0.30893    0.21613    1.000
    C330     C        0.43747    0.29813    0.17013    1.000
    C331     C        0.49297    0.31103    0.25043    1.000
    C332     C        0.53467    0.31293    0.26913    1.000
    H165     H        0.55327    0.30693    0.23923    1.000
    C333     C        0.54887    0.32363    0.33183    1.000
    H166     H        0.57777    0.32483    0.34493    1.000
    C334     C        0.52337    0.33263    0.37583    1.000
    H167     H        0.53447    0.33963    0.41893    1.000
    C335     C        0.48127    0.33193    0.35923    1.000
    H168     H        0.46377    0.33863    0.39013    1.000
    C336     C        0.46507    0.32083    0.29473    1.000
    N85      N        0.34437    0.32143    0.23543    1.000
    N86      N        0.31447    0.30133    0.10743    1.000
    C337     C        0.35207    0.29893    0.12853    1.000
    C338     C        0.36707    0.31013    0.19433    1.000
    C339     C        0.30507    0.32303    0.21513    1.000
    C340     C        0.28007    0.33563    0.25793    1.000
    H169     H        0.29017    0.34313    0.30133    1.000
    C341     C        0.23987    0.33713    0.23623    1.000
    H170     H        0.22227    0.34483    0.26553    1.000
    C342     C        0.22527    0.32743    0.17273    1.000
    H171     H        0.19787    0.32873    0.15913    1.000
    C343     C        0.24977    0.31603    0.12973    1.000
    H172     H        0.23977    0.30963    0.08613    1.000
    C344     C        0.29027    0.31383    0.15033    1.000
    N87      N        0.59517    0.35673    0.09643    1.000
    N88      N        0.69107    0.42893    0.09693    1.000
    C345     C        0.67897    0.38283    0.09333    1.000
    C346     C        0.63007    0.34673    0.09263    1.000
    C347     C        0.60727    0.40293    0.10013    1.000
    C348     C        0.57107    0.41613    0.10663    1.000
    H173     H        0.53807    0.39223    0.10563    1.000
    C349     C        0.58397    0.46263    0.11403    1.000
    H174     H        0.55977    0.47083    0.12053    1.000
    C350     C        0.63147    0.49873    0.11233    1.000
    H175     H        0.63907    0.53123    0.11573    1.000
    C351     C        0.66787    0.48853    0.10593    1.000
    H176     H        0.70037    0.51353    0.10503    1.000
    C352     C        0.65587    0.43973    0.10073    1.000
    Ag23     Ag       0.18401    0.62077    0.43554    1.000
    Ag24     Ag       0.96294    0.61892    0.33637    1.000
    N89      N        0.02943    0.60817    0.35727    1.000
    N90      N        0.11283    0.60927    0.39807    1.000
    C353     C        0.08743    0.61937    0.43837    1.000
    C354     C        0.04573    0.61927    0.41737    1.000
    C355     C        0.05443    0.59577    0.31727    1.000
    C356     C        0.03783    0.58247    0.25247    1.000
    H177     H        0.00923    0.58137    0.23877    1.000
    C357     C        0.06333    0.57147    0.21107    1.000
    H178     H        0.05303    0.56427    0.16767    1.000
    C358     C        0.10493    0.57057    0.23087    1.000
    H179     H        0.12113    0.56097    0.20147    1.000
    C359     C        0.12253    0.58377    0.29407    1.000
    H180     H        0.15083    0.58417    0.30757    1.000
    C360     C        0.09633    0.59647    0.33637    1.000
    N91      N        0.14433    0.63337    0.52107    1.000
    N92      N        0.09123    0.65407    0.60907    1.000
    C361     C        0.07683    0.64227    0.54947    1.000
    C362     C        0.10413    0.63147    0.50347    1.000
    C363     C        0.15963    0.64437    0.58377    1.000
    C364     C        0.20133    0.64627    0.60247    1.000
    H181     H        0.21993    0.64027    0.57257    1.000
    C365     C        0.21553    0.65697    0.66517    1.000
    H182     H        0.24443    0.65817    0.67827    1.000
    C366     C        0.19003    0.66597    0.70917    1.000
    H183     H        0.20113    0.67297    0.75227    1.000
    C367     C        0.14793    0.66527    0.69257    1.000
    H184     H        0.13043    0.67197    0.72347    1.000
    C368     C        0.13173    0.65417    0.62807    1.000
    N93      N        0.01103    0.65477    0.56877    1.000
    N94      N        0.98113    0.63467    0.44077    1.000
    C369     C        0.01873    0.63227    0.46187    1.000
    C370     C        0.03373    0.64347    0.52767    1.000
    C371     C        0.97173    0.65637    0.54847    1.000
    C372     C        0.94673    0.66897    0.59127    1.000
    H185     H        0.95683    0.67647    0.63467    1.000
    C373     C        0.90653    0.67047    0.56957    1.000
    H186     H        0.88893    0.67817    0.59887    1.000
    C374     C        0.89193    0.66077    0.50607    1.000
    H187     H        0.86453    0.66207    0.49247    1.000
    C375     C        0.91643    0.64937    0.46307    1.000
    H188     H        0.90643    0.64297    0.41947    1.000
    C376     C        0.95693    0.64717    0.48367    1.000
    N95      N        0.26183    0.69007    0.42977    1.000
    N96      N        0.35773    0.76227    0.43027    1.000
    C377     C        0.34563    0.71617    0.42667    1.000
    C378     C        0.29673    0.68007    0.42597    1.000
    C379     C        0.27393    0.73627    0.43347    1.000
    C380     C        0.23773    0.74947    0.43997    1.000
    H189     H        0.20473    0.72557    0.43897    1.000
    C381     C        0.25063    0.79597    0.44737    1.000
    H190     H        0.22643    0.80417    0.45387    1.000
    C382     C        0.29813    0.83207    0.44567    1.000
    H191     H        0.30573    0.86457    0.44907    1.000
    C383     C        0.33453    0.82187    0.43927    1.000
    H192     H        0.36703    0.84687    0.43837    1.000
    C384     C        0.32253    0.77307    0.43407    1.000
    Ag25     Ag       0.04590    0.89658    0.76887    1.000
    Ag26     Ag       0.04775    0.67736    0.66970    1.000
    N97      N        0.05850    0.75460    0.69060    1.000
    N98      N        0.05740    0.83690    0.73140    1.000
    C385     C        0.04730    0.80140    0.77170    1.000
    C386     C        0.04740    0.75980    0.75070    1.000
    C387     C        0.07090    0.79200    0.65060    1.000
    C388     C        0.08420    0.78870    0.58580    1.000
    H193     H        0.08530    0.76120    0.57210    1.000
    C389     C        0.09520    0.82520    0.54440    1.000
    H194     H        0.10240    0.82210    0.50100    1.000
    C390     C        0.09610    0.86770    0.56420    1.000
    H195     H        0.10570    0.89350    0.53480    1.000
    C391     C        0.08290    0.87210    0.62740    1.000
    H196     H        0.08250    0.90000    0.64090    1.000
    C392     C        0.07020    0.83320    0.66970    1.000
    N99      N        0.03330    0.84430    0.85440    1.000
    N100     N        0.01260    0.77050    0.94240    1.000
    C393     C        0.02440    0.76790    0.88280    1.000
    C394     C        0.03520    0.80600    0.83680    1.000
    C395     C        0.02230    0.84860    0.91710    1.000
    C396     C        0.02040    0.88840    0.93580    1.000
    H197     H        0.02640    0.91300    0.90590    1.000
    C397     C        0.00970    0.89190    0.99850    1.000
    H198     H        0.00850    0.91960    0.01160    1.000
    C398     C        0.00070    0.85740    0.04250    1.000
    H199     H        0.99370    0.86150    0.08560    1.000
    C399     C        0.00140    0.81600    0.02590    1.000
    H200     H        0.99470    0.79180    0.05680    1.000
    C400     C        0.01250    0.81090    0.96140    1.000
    N101     N        0.01190    0.68960    0.90210    1.000
    N102     N        0.03200    0.67980    0.77410    1.000
    C401     C        0.03440    0.71980    0.79520    1.000
    C402     C        0.02320    0.72360    0.86100    1.000
    C403     C        0.01030    0.64870    0.88180    1.000
    C404     C        0.99770    0.61110    0.92460    1.000
    H201     H        0.99020    0.61370    0.96800    1.000
    C405     C        0.99620    0.56940    0.90290    1.000
    H202     H        0.98850    0.54410    0.93220    1.000
    C406     C        0.00590    0.56450    0.83940    1.000
    H203     H        0.00460    0.53580    0.82580    1.000
    C407     C        0.01730    0.60040    0.79640    1.000
    H204     H        0.02370    0.59680    0.75280    1.000
    C408     C        0.01950    0.64310    0.81700    1.000
    N103     N        0.97660    0.90510    0.76310    1.000
    N104     N        0.90440    0.92880    0.76360    1.000
    C409     C        0.95050    0.96280    0.76000    1.000
    C410     C        0.98660    0.95000    0.75930    1.000
    C411     C        0.93040    0.87100    0.76680    1.000
    C412     C        0.91720    0.82160    0.77330    1.000
    H205     H        0.94110    0.81250    0.77230    1.000
    C413     C        0.87070    0.78800    0.78070    1.000
    H206     H        0.86250    0.75560    0.78720    1.000
    C414     C        0.83460    0.79940    0.77900    1.000
    H207     H        0.80210    0.77450    0.78240    1.000
    C415     C        0.84480    0.84600    0.77260    1.000
    H208     H        0.81980    0.85350    0.77170    1.000
    C416     C        0.89360    0.88280    0.76740    1.000
    Ag27     Ag       0.71257    0.22991    0.10220    1.000
    Ag28     Ag       0.71442    0.01069    0.00303    1.000
    N105     N        0.72517    0.08793    0.02393    1.000
    N106     N        0.72407    0.17023    0.06473    1.000
    C417     C        0.71397    0.13473    0.10503    1.000
    C418     C        0.71407    0.09313    0.08403    1.000
    C419     C        0.73757    0.12533    0.98393    1.000
    C420     C        0.75087    0.12203    0.91913    1.000
    H209     H        0.75197    0.09453    0.90543    1.000
    C421     C        0.76187    0.15853    0.87773    1.000
    H210     H        0.76907    0.15543    0.83433    1.000
    C422     C        0.76277    0.20103    0.89753    1.000
    H211     H        0.77237    0.22683    0.86813    1.000
    C423     C        0.74957    0.20543    0.96073    1.000
    H212     H        0.74917    0.23333    0.97423    1.000
    C424     C        0.73687    0.16653    0.00303    1.000
    N107     N        0.69997    0.17763    0.18773    1.000
    N108     N        0.67927    0.10383    0.27573    1.000
    C425     C        0.69107    0.10123    0.21613    1.000
    C426     C        0.70187    0.13933    0.17013    1.000
    C427     C        0.68897    0.18193    0.25043    1.000
    C428     C        0.68707    0.22173    0.26913    1.000
    H213     H        0.69307    0.24633    0.23923    1.000
    C429     C        0.67637    0.22523    0.33183    1.000
    H214     H        0.67517    0.25293    0.34493    1.000
    C430     C        0.66737    0.19073    0.37583    1.000
    H215     H        0.66037    0.19483    0.41893    1.000
    C431     C        0.66807    0.14933    0.35923    1.000
    H216     H        0.66137    0.12513    0.39013    1.000
    C432     C        0.67917    0.14423    0.29473    1.000
    N109     N        0.67857    0.02293    0.23543    1.000
    N110     N        0.69867    0.01313    0.10743    1.000
    C433     C        0.70107    0.05313    0.12853    1.000
    C434     C        0.68987    0.05693    0.19433    1.000
    C435     C        0.67697    0.98203    0.21513    1.000
    C436     C        0.66437    0.94443    0.25793    1.000
    H217     H        0.65687    0.94703    0.30133    1.000
    C437     C        0.66287    0.90273    0.23623    1.000
    H218     H        0.65517    0.87743    0.26553    1.000
    C438     C        0.67257    0.89783    0.17273    1.000
    H219     H        0.67127    0.86913    0.15913    1.000
    C439     C        0.68397    0.93373    0.12973    1.000
    H220     H        0.69037    0.93013    0.08613    1.000
    C440     C        0.68617    0.97643    0.15033    1.000
    N111     N        0.64327    0.23843    0.09643    1.000
    N112     N        0.57107    0.26213    0.09693    1.000
    C441     C        0.61717    0.29613    0.09333    1.000
    C442     C        0.65327    0.28333    0.09263    1.000
    C443     C        0.59707    0.20433    0.10013    1.000
    C444     C        0.58387    0.15493    0.10663    1.000
    H221     H        0.60777    0.14583    0.10563    1.000
    C445     C        0.53737    0.12133    0.11403    1.000
    H222     H        0.52917    0.08893    0.12053    1.000
    C446     C        0.50127    0.13273    0.11233    1.000
    H223     H        0.46877    0.10783    0.11573    1.000
    C447     C        0.51147    0.17933    0.10593    1.000
    H224     H        0.48647    0.18683    0.10503    1.000
    C448     C        0.56027    0.21613    0.10073    1.000
    Ag29     Ag       0.37923    0.56325    0.43554    1.000
    Ag30     Ag       0.38108    0.34403    0.33637    1.000
    N113     N        0.39183    0.42127    0.35727    1.000
    N114     N        0.39073    0.50357    0.39807    1.000
    C449     C        0.38063    0.46807    0.43837    1.000
    C450     C        0.38073    0.42647    0.41737    1.000
    C451     C        0.40423    0.45867    0.31727    1.000
    C452     C        0.41753    0.45537    0.25247    1.000
    H225     H        0.41863    0.42787    0.23877    1.000
    C453     C        0.42853    0.49187    0.21107    1.000
    H226     H        0.43573    0.48877    0.16767    1.000
    C454     C        0.42943    0.53437    0.23087    1.000
    H227     H        0.43903    0.56017    0.20147    1.000
    C455     C        0.41623    0.53877    0.29407    1.000
    H228     H        0.41583    0.56667    0.30757    1.000
    C456     C        0.40353    0.49987    0.33637    1.000
    N115     N        0.36663    0.51097    0.52107    1.000
    N116     N        0.34593    0.43717    0.60907    1.000
    C457     C        0.35773    0.43457    0.54947    1.000
    C458     C        0.36853    0.47267    0.50347    1.000
    C459     C        0.35563    0.51527    0.58377    1.000
    C460     C        0.35373    0.55507    0.60247    1.000
    H229     H        0.35973    0.57967    0.57257    1.000
    C461     C        0.34303    0.55857    0.66517    1.000
    H230     H        0.34183    0.58627    0.67827    1.000
    C462     C        0.33403    0.52407    0.70917    1.000
    H231     H        0.32703    0.52817    0.75227    1.000
    C463     C        0.33473    0.48267    0.69257    1.000
    H232     H        0.32803    0.45847    0.72347    1.000
    C464     C        0.34583    0.47757    0.62807    1.000
    N117     N        0.34523    0.35627    0.56877    1.000
    N118     N        0.36533    0.34647    0.44077    1.000
    C465     C        0.36773    0.38647    0.46187    1.000
    C466     C        0.35653    0.39027    0.52767    1.000
    C467     C        0.34363    0.31537    0.54847    1.000
    C468     C        0.33103    0.27777    0.59127    1.000
    H233     H        0.32353    0.28037    0.63467    1.000
    C469     C        0.32953    0.23607    0.56957    1.000
    H234     H        0.32183    0.21077    0.59887    1.000
    C470     C        0.33923    0.23117    0.50607    1.000
    H235     H        0.33793    0.20247    0.49247    1.000
    C471     C        0.35063    0.26707    0.46307    1.000
    H236     H        0.35703    0.26347    0.41947    1.000
    C472     C        0.35283    0.30977    0.48367    1.000
    N119     N        0.30993    0.57177    0.42977    1.000
    N120     N        0.23773    0.59547    0.43027    1.000
    C473     C        0.28383    0.62947    0.42667    1.000
    C474     C        0.31993    0.61667    0.42597    1.000
    C475     C        0.26373    0.53767    0.43347    1.000
    C476     C        0.25053    0.48827    0.43997    1.000
    H237     H        0.27443    0.47917    0.43897    1.000
    C477     C        0.20403    0.45467    0.44737    1.000
    H238     H        0.19583    0.42227    0.45387    1.000
    C478     C        0.16793    0.46607    0.44567    1.000
    H239     H        0.13543    0.44117    0.44907    1.000
    C479     C        0.17813    0.51267    0.43927    1.000
    H240     H        0.15313    0.52017    0.43837    1.000
    C480     C        0.22693    0.54947    0.43407    1.000
    Ag31     Ag       0.10342    0.14932    0.76887    1.000
    Ag32     Ag       0.32264    0.37039    0.66970    1.000
    N121     N        0.24540    0.30390    0.69060    1.000
    N122     N        0.16310    0.22050    0.73140    1.000
    C481     C        0.19860    0.24590    0.77170    1.000
    C482     C        0.24020    0.28760    0.75070    1.000
    C483     C        0.20800    0.27890    0.65060    1.000
    C484     C        0.21130    0.29550    0.58580    1.000
    H241     H        0.23880    0.32410    0.57210    1.000
    C485     C        0.17480    0.27000    0.54440    1.000
    H242     H        0.17790    0.28030    0.50100    1.000
    C486     C        0.13230    0.22840    0.56420    1.000
    H243     H        0.10650    0.21220    0.53480    1.000
    C487     C        0.12790    0.21080    0.62740    1.000
    H244     H        0.10000    0.18250    0.64090    1.000
    C488     C        0.16680    0.23700    0.66970    1.000
    N123     N        0.15570    0.18900    0.85440    1.000
    N124     N        0.22950    0.24210    0.94240    1.000
    C489     C        0.23210    0.25650    0.88280    1.000
    C490     C        0.19400    0.22920    0.83680    1.000
    C491     C        0.15140    0.17370    0.91710    1.000
    C492     C        0.11160    0.13200    0.93580    1.000
    H245     H        0.08700    0.11340    0.90590    1.000
    C493     C        0.10810    0.11780    0.99850    1.000
    H246     H        0.08040    0.08890    0.01160    1.000
    C494     C        0.14260    0.14330    0.04250    1.000
    H247     H        0.13850    0.13220    0.08560    1.000
    C495     C        0.18400    0.18540    0.02590    1.000
    H248     H        0.20820    0.20290    0.05680    1.000
    C496     C        0.18910    0.20160    0.96140    1.000
    N125     N        0.31040    0.32230    0.90210    1.000
    N126     N        0.32020    0.35220    0.77410    1.000
    C497     C        0.28020    0.31460    0.79520    1.000
    C498     C        0.27640    0.29960    0.86100    1.000
    C499     C        0.35130    0.36160    0.88180    1.000
    C500     C        0.38890    0.38660    0.92460    1.000
    H249     H        0.38630    0.37650    0.96800    1.000
    C501     C        0.43060    0.42680    0.90290    1.000
    H250     H        0.45590    0.44440    0.93220    1.000
    C502     C        0.43550    0.44140    0.83940    1.000
    H251     H        0.46420    0.46880    0.82580    1.000
    C503     C        0.39960    0.41690    0.79640    1.000
    H252     H        0.40320    0.42690    0.75280    1.000
    C504     C        0.35690    0.37640    0.81700    1.000
    N127     N        0.09490    0.07150    0.76310    1.000
    N128     N        0.07120    0.97560    0.76360    1.000
    C505     C        0.03720    0.98770    0.76000    1.000
    C506     C        0.05000    0.03660    0.75930    1.000
    C507     C        0.12900    0.05940    0.76680    1.000
    C508     C        0.17840    0.09560    0.77330    1.000
    H253     H        0.18750    0.12860    0.77230    1.000
    C509     C        0.21200    0.08270    0.78070    1.000
    H254     H        0.24440    0.10690    0.78720    1.000
    C510     C        0.20060    0.03520    0.77900    1.000
    H255     H        0.22550    0.02760    0.78240    1.000
    C511     C        0.15400    0.99880    0.77260    1.000
    H256     H        0.14650    0.96630    0.77170    1.000
    C512     C        0.11720    0.01080    0.76740    1.000
    Ag33     Ag       0.77009    0.48265    0.10220    1.000
    Ag34     Ag       0.98931    0.70372    0.00303    1.000
    N129     N        0.91207    0.63723    0.02393    1.000
    N130     N        0.82977    0.55383    0.06473    1.000
    C513     C        0.86527    0.57923    0.10503    1.000
    C514     C        0.90687    0.62093    0.08403    1.000
    C515     C        0.87467    0.61223    0.98393    1.000
    C516     C        0.87797    0.62883    0.91913    1.000
    H257     H        0.90547    0.65743    0.90543    1.000
    C517     C        0.84147    0.60333    0.87773    1.000
    H258     H        0.84457    0.61363    0.83433    1.000
    C518     C        0.79897    0.56173    0.89753    1.000
    H259     H        0.77317    0.54553    0.86813    1.000
    C519     C        0.79457    0.54413    0.96073    1.000
    H260     H        0.76667    0.51583    0.97423    1.000
    C520     C        0.83347    0.57033    0.00303    1.000
    N131     N        0.82237    0.52233    0.18773    1.000
    N132     N        0.89617    0.57543    0.27573    1.000
    C521     C        0.89877    0.58983    0.21613    1.000
    C522     C        0.86067    0.56253    0.17013    1.000
    C523     C        0.81807    0.50703    0.25043    1.000
    C524     C        0.77827    0.46533    0.26913    1.000
    H261     H        0.75367    0.44673    0.23923    1.000
    C525     C        0.77477    0.45113    0.33183    1.000
    H262     H        0.74707    0.42223    0.34493    1.000
    C526     C        0.80927    0.47663    0.37583    1.000
    H263     H        0.80517    0.46553    0.41893    1.000
    C527     C        0.85067    0.51873    0.35923    1.000
    H264     H        0.87487    0.53623    0.39013    1.000
    C528     C        0.85577    0.53493    0.29473    1.000
    N133     N        0.97707    0.65563    0.23543    1.000
    N134     N        0.98687    0.68553    0.10743    1.000
    C529     C        0.94687    0.64793    0.12853    1.000
    C530     C        0.94307    0.63293    0.19433    1.000
    C531     C        0.01797    0.69493    0.21513    1.000
    C532     C        0.05557    0.71993    0.25793    1.000
    H265     H        0.05297    0.70983    0.30133    1.000
    C533     C        0.09727    0.76013    0.23623    1.000
    H266     H        0.12257    0.77773    0.26553    1.000
    C534     C        0.10217    0.77473    0.17273    1.000
    H267     H        0.13087    0.80213    0.15913    1.000
    C535     C        0.06627    0.75023    0.12973    1.000
    H268     H        0.06987    0.76023    0.08613    1.000
    C536     C        0.02357    0.70973    0.15033    1.000
    N135     N        0.76157    0.40483    0.09643    1.000
    N136     N        0.73787    0.30893    0.09693    1.000
    C537     C        0.70387    0.32103    0.09333    1.000
    C538     C        0.71667    0.36993    0.09263    1.000
    C539     C        0.79567    0.39273    0.10013    1.000
    C540     C        0.84507    0.42893    0.10663    1.000
    H269     H        0.85417    0.46193    0.10563    1.000
    C541     C        0.87867    0.41603    0.11403    1.000
    H270     H        0.91107    0.44023    0.12053    1.000
    C542     C        0.86727    0.36853    0.11233    1.000
    H271     H        0.89217    0.36093    0.11573    1.000
    C543     C        0.82067    0.33213    0.10593    1.000
    H272     H        0.81317    0.29963    0.10503    1.000
    C544     C        0.78387    0.34413    0.10073    1.000
    Ag35     Ag       0.43675    0.81599    0.43554    1.000
    Ag36     Ag       0.65597    0.03706    0.33637    1.000
    N137     N        0.57873    0.97057    0.35727    1.000
    N138     N        0.49643    0.88717    0.39807    1.000
    C545     C        0.53193    0.91257    0.43837    1.000
    C546     C        0.57353    0.95427    0.41737    1.000
    C547     C        0.54133    0.94557    0.31727    1.000
    C548     C        0.54463    0.96217    0.25247    1.000
    H273     H        0.57213    0.99077    0.23877    1.000
    C549     C        0.50813    0.93667    0.21107    1.000
    H274     H        0.51123    0.94697    0.16767    1.000
    C550     C        0.46563    0.89507    0.23087    1.000
    H275     H        0.43983    0.87887    0.20147    1.000
    C551     C        0.46123    0.87747    0.29407    1.000
    H276     H        0.43333    0.84917    0.30757    1.000
    C552     C        0.50013    0.90367    0.33637    1.000
    N139     N        0.48903    0.85567    0.52107    1.000
    N140     N        0.56283    0.90877    0.60907    1.000
    C553     C        0.56543    0.92317    0.54947    1.000
    C554     C        0.52733    0.89587    0.50347    1.000
    C555     C        0.48473    0.84037    0.58377    1.000
    C556     C        0.44493    0.79867    0.60247    1.000
    H277     H        0.42033    0.78007    0.57257    1.000
    C557     C        0.44143    0.78447    0.66517    1.000
    H278     H        0.41373    0.75557    0.67827    1.000
    C558     C        0.47593    0.80997    0.70917    1.000
    H279     H        0.47183    0.79887    0.75227    1.000
    C559     C        0.51733    0.85207    0.69257    1.000
    H280     H        0.54153    0.86957    0.72347    1.000
    C560     C        0.52243    0.86827    0.62807    1.000
    N141     N        0.64373    0.98897    0.56877    1.000
    N142     N        0.65353    0.01887    0.44077    1.000
    C561     C        0.61353    0.98127    0.46187    1.000
    C562     C        0.60973    0.96627    0.52767    1.000
    C563     C        0.68463    0.02827    0.54847    1.000
    C564     C        0.72223    0.05327    0.59127    1.000
    H281     H        0.71963    0.04317    0.63467    1.000
    C565     C        0.76393    0.09347    0.56957    1.000
    H282     H        0.78923    0.11107    0.59887    1.000
    C566     C        0.76883    0.10807    0.50607    1.000
    H283     H        0.79753    0.13547    0.49247    1.000
    C567     C        0.73293    0.08357    0.46307    1.000
    H284     H        0.73653    0.09357    0.41947    1.000
    C568     C        0.69023    0.04307    0.48367    1.000
    N143     N        0.42823    0.73817    0.42977    1.000
    N144     N        0.40453    0.64227    0.43027    1.000
    C569     C        0.37053    0.65437    0.42667    1.000
    C570     C        0.38333    0.70327    0.42597    1.000
    C571     C        0.46233    0.72607    0.43347    1.000
    C572     C        0.51173    0.76227    0.43997    1.000
    H285     H        0.52083    0.79527    0.43897    1.000
    C573     C        0.54533    0.74937    0.44737    1.000
    H286     H        0.57773    0.77357    0.45387    1.000
    C574     C        0.53393    0.70187    0.44567    1.000
    H287     H        0.55883    0.69427    0.44907    1.000
    C575     C        0.48733    0.66547    0.43927    1.000
    H288     H        0.47983    0.63297    0.43837    1.000
    C576     C        0.45053    0.67747    0.43407    1.000
