data_functionalizedCrystal
_audit_creation_method	'EQeq! by Chris Wilmer'
_symmetry_space_group_name_H-M	'P1'
_symmetry_Int_Tables_number	1
_symmetry_cell_setting	triclinic
loop_
_symmetry_equiv_pos_as_xyz
  x,y,z
_cell_length_a	10.0205
_cell_length_b	11.4964
_cell_length_c	14.8452
_cell_angle_alpha	91.5476
_cell_angle_beta	90
_cell_angle_gamma	90
loop_
_atom_site_label
_atom_site_type_symbol
_atom_site_fract_x
_atom_site_fract_y
_atom_site_fract_z
_atom_site_charge
Mof_Fe	Fe	0.92595	0.75618	0.13302	1.027
Mof_Fe	Fe	0.88181	0.25958	0.69273	0.972
Mof_Fe	Fe	0.42595	0.74382	0.36698	0.939
Mof_Fe	Fe	0.38181	0.24042	0.80727	0.929
Mof_Fe	Fe	0.07405	0.24382	0.86698	0.833
Mof_Fe	Fe	0.11819	0.74042	0.30727	0.907
Mof_Fe	Fe	0.57405	0.25618	0.63302	0.92
Mof_Fe	Fe	0.61819	0.75958	0.19273	0.947
Mof_Fe	Fe	-0	0.5	-0	0.758
Mof_Fe	Fe	0.5	0	0.5	0.888
Mof_Fe	Fe	-0	0	-0	0.702
Mof_Fe	Fe	0.5	0.5	0.5	0.964
Mof_H 	H 	0.7687	0.8496	0.369	-0.107
Mof_H 	H 	0.0534	0.481	0.2583	-0.134
Mof_H 	H 	0.6261	0.5554	0.0491	-0.131
Mof_H 	H 	0.2008	0.9769	0.2236	-0.152
Mof_H 	H 	0.15	0.6986	0.9264	-0.136
Mof_H 	H 	0.7103	0.9947	0.023	-0.101
Mof_H 	H 	0.2687	0.6504	0.131	-0.136
Mof_H 	H 	0.5534	0.019	0.2417	-0.218
Mof_H 	H 	0.1261	0.9446	0.4509	-0.114
Mof_H 	H 	0.7008	0.5231	0.2764	-0.125
Mof_H 	H 	0.65	0.8014	0.5736	-0.097
Mof_H 	H 	0.2103	0.5053	0.477	-0.119
Mof_H 	H 	0.2313	0.1504	0.631	-0.134
Mof_H 	H 	0.9466	0.519	0.7417	-0.088
Mof_H 	H 	0.3739	0.4446	0.9509	-0.082
Mof_H 	H 	0.7992	0.0231	0.7764	-0.095
Mof_H 	H 	0.85	0.3014	0.0736	-0.053
Mof_H 	H 	0.2897	0.0053	0.977	-0.089
Mof_H 	H 	0.7313	0.3496	0.869	-0.1
Mof_H 	H 	0.4466	0.981	0.7583	-0.007
Mof_H 	H 	0.8739	0.0554	0.5491	-0.105
Mof_H 	H 	0.2992	0.4769	0.7236	-0.138
Mof_H 	H 	0.35	0.1986	0.4264	-0.124
Mof_H 	H 	0.7897	0.4947	0.523	-0.096
Mof_C 	C 	0.8369	0.82186	0.33186	0.516
Mof_C 	C 	0.0279	0.51962	0.20682	0.537
Mof_C 	C 	0.7163	0.57357	0.05377	0.524
Mof_C 	C 	0.139	0.95024	0.18114	0.616
Mof_C 	C 	0.0974	0.74262	0.96602	0.628
Mof_C 	C 	0.7278	0.93355	0.06105	0.499
Mof_C 	C 	0.3369	0.67814	0.16814	0.524
Mof_C 	C 	0.5279	0.98038	0.29318	0.723
Mof_C 	C 	0.2163	0.92643	0.44623	0.511
Mof_C 	C 	0.639	0.54976	0.31886	0.536
Mof_C 	C 	0.5974	0.75738	0.53398	0.521
Mof_C 	C 	0.2278	0.56645	0.43895	0.521
Mof_C 	C 	0.1631	0.17814	0.66814	0.522
Mof_C 	C 	0.9721	0.48038	0.79318	0.493
Mof_C 	C 	0.2837	0.42643	0.94623	0.484
Mof_C 	C 	0.861	0.04976	0.81886	0.414
Mof_C 	C 	0.9026	0.25738	0.03398	0.357
Mof_C 	C 	0.2722	0.06645	0.93895	0.494
Mof_C 	C 	0.6631	0.32186	0.83186	0.512
Mof_C 	C 	0.4721	0.01962	0.70682	0.321
Mof_C 	C 	0.7837	0.07357	0.55377	0.518
Mof_C 	C 	0.361	0.45024	0.68114	0.541
Mof_C 	C 	0.4026	0.24262	0.46602	0.533
Mof_C 	C 	0.7722	0.43355	0.56105	0.511
Mof_O 	O 	0.80855	0.80356	0.24934	-0.467
Mof_O 	O 	0.94673	0.80619	0.36734	-0.351
Mof_O 	O 	0.01609	0.62894	0.2142	-0.515
Mof_O 	O 	0.00907	0.45933	0.13851	-0.425
Mof_O 	O 	0.74766	0.65437	0.10985	-0.477
Mof_O 	O 	0.79281	0.51661	0.00497	-0.396
Mof_O 	O 	0.08792	0.85162	0.19401	-0.528
Mof_O 	O 	0.11551	0.01423	0.11837	-0.474
Mof_O 	O 	0.02652	0.68673	0.02159	-0.566
Mof_O 	O 	0.10325	0.84827	0.95954	-0.37
Mof_O 	O 	0.84807	0.9	0.0655	-0.438
Mof_O 	O 	0.63125	0.89386	0.10183	-0.39
Mof_O 	O 	0.30855	0.69644	0.25066	-0.478
Mof_O 	O 	0.44673	0.69381	0.13266	-0.414
Mof_O 	O 	0.51609	0.87106	0.2858	-0.527
Mof_O 	O 	0.50907	0.04067	0.36149	-0.479
Mof_O 	O 	0.24766	0.84563	0.39015	-0.471
Mof_O 	O 	0.29281	0.98339	0.49503	-0.367
Mof_O 	O 	0.58792	0.64838	0.30599	-0.483
Mof_O 	O 	0.61551	0.48577	0.38163	-0.402
Mof_O 	O 	0.52652	0.81327	0.47841	-0.459
Mof_O 	O 	0.60325	0.65173	0.54046	-0.399
Mof_O 	O 	0.34807	0.6	0.4345	-0.482
Mof_O 	O 	0.13125	0.60614	0.39817	-0.412
Mof_O 	O 	0.19145	0.19644	0.75066	-0.487
Mof_O 	O 	0.05327	0.19381	0.63266	-0.45
Mof_O 	O 	0.98391	0.37106	0.7858	-0.433
Mof_O 	O 	0.99093	0.54067	0.86149	-0.305
Mof_O 	O 	0.25234	0.34563	0.89015	-0.456
Mof_O 	O 	0.20719	0.48339	0.99503	-0.334
Mof_O 	O 	0.91208	0.14838	0.80599	-0.416
Mof_O 	O 	0.88449	0.98577	0.88163	-0.244
Mof_O 	O 	0.97348	0.31327	0.97841	-0.305
Mof_O 	O 	0.89675	0.15173	0.04046	-0.34
Mof_O 	O 	0.15193	0.1	0.9345	-0.438
Mof_O 	O 	0.36875	0.10614	0.89817	-0.388
Mof_O 	O 	0.69145	0.30356	0.74934	-0.476
Mof_O 	O 	0.55327	0.30619	0.86734	-0.383
Mof_O 	O 	0.48391	0.12894	0.7142	-0.431
Mof_O 	O 	0.49093	0.95933	0.63851	-0.292
Mof_O 	O 	0.75234	0.15437	0.60985	-0.473
Mof_O 	O 	0.70719	0.01661	0.50497	-0.407
Mof_O 	O 	0.41208	0.35162	0.69401	-0.485
Mof_O 	O 	0.38449	0.51423	0.61837	-0.408
Mof_O 	O 	0.47348	0.18673	0.52159	-0.475
Mof_O 	O 	0.39675	0.34827	0.45954	-0.413
Mof_O 	O 	0.65193	0.4	0.5655	-0.473
Mof_O 	O 	0.86875	0.39386	0.60183	-0.379
_end
