data_functionalizedCrystal
_audit_creation_method	'EQeq! by Chris Wilmer'
_symmetry_space_group_name_H-M	'P1'
_symmetry_Int_Tables_number	1
_symmetry_cell_setting	triclinic
loop_
_symmetry_equiv_pos_as_xyz
  x,y,z
_cell_length_a	8.2568
_cell_length_b	12.3524
_cell_length_c	17.501
_cell_angle_alpha	97.3828
_cell_angle_beta	90
_cell_angle_gamma	109.525
loop_
_atom_site_label
_atom_site_type_symbol
_atom_site_fract_x
_atom_site_fract_y
_atom_site_fract_z
_atom_site_charge
Mof_Yb	Yb	0.31469	0	0.75	1.21
Mof_Yb	Yb	0.68531	0	0.25	1.198
Mof_Yb	Yb	0.5	0	-0	1.147
Mof_Yb	Yb	0.5	0	0.5	1.286
Mof_H 	H 	0.83	0.5054	0.735	0.064
Mof_H 	H 	0.0033	0.6972	0.7621	0.047
Mof_H 	H 	0.244	0.6224	0.9403	0.072
Mof_H 	H 	0.1436	0.4212	0.9749	0.09
Mof_H 	H 	0.9494	0.2342	0.9564	0.022
Mof_H 	H 	0.7265	0.305	0.7712	0.04
Mof_H 	H 	0.3832	0.431	0.1326	0.021
Mof_H 	H 	0.3019	0.2424	0.0722	0.05
Mof_H 	H 	0.4767	0.3572	0.8702	0.083
Mof_H 	H 	0.3246	0.4946	0.765	0.073
Mof_H 	H 	0.3061	0.3028	0.7379	0.014
Mof_H 	H 	0.6216	0.3776	0.5597	0.047
Mof_H 	H 	0.7224	0.5788	0.5251	0.064
Mof_H 	H 	0.7152	0.7658	0.5436	0.065
Mof_H 	H 	0.4215	0.695	0.7288	0.066
Mof_H 	H 	0.9522	0.569	0.3674	0.063
Mof_H 	H 	0.0595	0.7576	0.4278	0.07
Mof_H 	H 	0.1195	0.6428	0.6298	0.057
Mof_H 	H 	0.17	0.4946	0.265	0.071
Mof_H 	H 	0.9967	0.3028	0.2379	0.017
Mof_H 	H 	0.756	0.3776	0.0597	0.036
Mof_H 	H 	0.8564	0.5788	0.0251	0.052
Mof_H 	H 	0.0506	0.7658	0.0436	0.054
Mof_H 	H 	0.2735	0.695	0.2288	0.067
Mof_H 	H 	0.6168	0.569	0.8674	0.108
Mof_H 	H 	0.6981	0.7576	0.9278	0.027
Mof_H 	H 	0.5233	0.6428	0.1298	0.018
Mof_H 	H 	0.6754	0.5054	0.235	0.062
Mof_H 	H 	0.6939	0.6972	0.2621	0.048
Mof_H 	H 	0.3784	0.6224	0.4403	0.06
Mof_H 	H 	0.2776	0.4212	0.4749	0.078
Mof_H 	H 	0.2848	0.2342	0.4564	0.005
Mof_H 	H 	0.5785	0.305	0.2712	0.039
Mof_H 	H 	0.0478	0.431	0.6326	0.068
Mof_H 	H 	0.9405	0.2424	0.5722	0.003
Mof_H 	H 	0.8805	0.3572	0.3702	0.042
Mof_C 	C 	0.2537	0.8014	0.8711	0.405
Mof_C 	C 	0.6818	0.1352	0.8533	0.426
Mof_C 	C 	0.923	0.4458	0.8246	-0
Mof_C 	C 	0.9112	0.5288	0.7775	-0.094
Mof_C 	C 	0.0152	0.6418	0.7928	0.023
Mof_C 	C 	0.1418	0.6772	0.8546	-0.086
Mof_C 	C 	0.15815	0.5981	0.8996	-0.038
Mof_C 	C 	0.0488	0.4804	0.8863	0.048
Mof_C 	C 	0.0576	0.3988	0.9343	-0.101
Mof_C 	C 	0.9433	0.2876	0.923	0.046
Mof_C 	C 	0.817	0.2522	0.8624	-0.137
Mof_C 	C 	0.8092	0.3298	0.8131	-0.009
Mof_C 	C 	0.3325	0.1604	0.9242	0.362
Mof_C 	C 	0.4847	0.5102	0.0399	-0.136
Mof_C 	C 	0.4039	0.4164	0.0795	0.025
Mof_C 	C 	0.3541	0.3048	0.0438	-0.128
Mof_C 	C 	0.3807	0.2818	0.9633	0.014
Mof_C 	C 	0.4592	0.3726	0.9236	-0.128
Mof_C 	C 	0.4523	0.1986	0.6289	0.448
Mof_C 	C 	0.5466	0.8648	0.6467	0.381
Mof_C 	C 	0.4772	0.5542	0.6754	0.043
Mof_C 	C 	0.3824	0.4712	0.7225	-0.12
Mof_C 	C 	0.3734	0.3582	0.7072	0.048
Mof_C 	C 	0.4646	0.3228	0.6454	-0.144
Mof_C 	C 	0.56005	0.4019	0.6004	-0.004
Mof_C 	C 	0.5684	0.5196	0.6137	0.001
Mof_C 	C 	0.6588	0.6012	0.5657	-0.068
Mof_C 	C 	0.6557	0.7124	0.577	0.004
Mof_C 	C 	0.5648	0.7478	0.6376	-0.063
Mof_C 	C 	0.4794	0.6702	0.6869	-0.048
Mof_C 	C 	0.1721	0.8396	0.5758	0.356
Mof_C 	C 	0.9745	0.4898	0.4601	-0.005
Mof_C 	C 	0.9875	0.5836	0.4205	-0.082
Mof_C 	C 	0.0493	0.6952	0.4562	0.011
Mof_C 	C 	0.0989	0.7182	0.5367	-0.07
Mof_C 	C 	0.0866	0.6274	0.5764	-0.047
Mof_C 	C 	0.7463	0.1986	0.1289	0.441
Mof_C 	C 	0.3182	0.8648	0.1467	0.376
Mof_C 	C 	0.077	0.5542	0.1754	0.045
Mof_C 	C 	0.0888	0.4712	0.2225	-0.106
Mof_C 	C 	0.9848	0.3582	0.2072	0.033
Mof_C 	C 	0.8582	0.3228	0.1454	-0.144
Mof_C 	C 	0.84185	0.4019	0.1004	-0.007
Mof_C 	C 	0.9512	0.5196	0.1137	-0.009
Mof_C 	C 	0.9424	0.6012	0.0657	-0.084
Mof_C 	C 	0.0567	0.7124	0.077	0.013
Mof_C 	C 	0.183	0.7478	0.1376	-0.067
Mof_C 	C 	0.1908	0.6702	0.1869	-0.046
Mof_C 	C 	0.6675	0.8396	0.0758	0.393
Mof_C 	C 	0.5153	0.4898	0.9601	0.174
Mof_C 	C 	0.5961	0.5836	0.9205	-0.206
Mof_C 	C 	0.6459	0.6952	0.9562	0.166
Mof_C 	C 	0.6193	0.7182	0.0367	-0.204
Mof_C 	C 	0.5408	0.6274	0.0764	0.07
Mof_C 	C 	0.5477	0.8014	0.3711	0.412
Mof_C 	C 	0.4534	0.1352	0.3533	0.44
Mof_C 	C 	0.5228	0.4458	0.3246	0.001
Mof_C 	C 	0.6176	0.5288	0.2775	-0.081
Mof_C 	C 	0.6266	0.6418	0.2928	0.013
Mof_C 	C 	0.5354	0.6772	0.3546	-0.093
Mof_C 	C 	0.43995	0.5981	0.3996	-0.039
Mof_C 	C 	0.4316	0.4804	0.3863	0.039
Mof_C 	C 	0.3412	0.3988	0.4343	-0.118
Mof_C 	C 	0.3443	0.2876	0.423	0.059
Mof_C 	C 	0.4352	0.2522	0.3624	-0.151
Mof_C 	C 	0.5206	0.3298	0.3131	-0.003
Mof_C 	C 	0.8279	0.1604	0.4242	0.413
Mof_C 	C 	0.0255	0.5102	0.5399	0.043
Mof_C 	C 	0.0125	0.4164	0.5795	-0.107
Mof_C 	C 	0.9507	0.3048	0.5438	0.038
Mof_C 	C 	0.9011	0.2818	0.4633	-0.134
Mof_C 	C 	0.9134	0.3726	0.4236	-0.005
Mof_O 	O 	0.23768	0.86956	0.8273	-0.318
Mof_O 	O 	0.35857	0.83254	0.929	-0.303
Mof_O 	O 	0.59018	0.10296	0.7925	-0.474
Mof_O 	O 	0.66444	0.07428	0.9079	-0.487
Mof_O 	O 	0.31181	0.14082	0.85245	-0.432
Mof_O 	O 	0.31415	0.0803	0.96684	-0.458
Mof_O 	O 	0.36812	0.13044	0.6727	-0.529
Mof_O 	O 	0.52603	0.16746	0.571	-0.482
Mof_O 	O 	0.48722	0.89704	0.7075	-0.269
Mof_O 	O 	0.59016	0.92572	0.5921	-0.288
Mof_O 	O 	0.17099	0.85918	0.64755	-0.305
Mof_O 	O 	0.23385	0.9197	0.53316	-0.268
Mof_O 	O 	0.76232	0.13044	0.1727	-0.527
Mof_O 	O 	0.64143	0.16746	0.071	-0.48
Mof_O 	O 	0.40982	0.89704	0.2075	-0.264
Mof_O 	O 	0.33556	0.92572	0.0921	-0.279
Mof_O 	O 	0.68819	0.85918	0.14755	-0.315
Mof_O 	O 	0.68585	0.9197	0.03316	-0.283
Mof_O 	O 	0.63188	0.86956	0.3273	-0.323
Mof_O 	O 	0.47397	0.83254	0.429	-0.341
Mof_O 	O 	0.51278	0.10296	0.2925	-0.478
Mof_O 	O 	0.40984	0.07428	0.4079	-0.527
Mof_O 	O 	0.82901	0.14082	0.35245	-0.451
Mof_O 	O 	0.76615	0.0803	0.46684	-0.521
_end
