# CIF file generated by openbabel 3.1.0, see https://openbabel.org
data_I
_chemical_name_common 'image0'
_cell_length_a 19.806
_cell_length_b 7.366
_cell_length_c 7.055
_cell_angle_alpha 90
_cell_angle_beta 104.36
_cell_angle_gamma 90
_space_group_name_H-M_alt 'P 1'
_space_group_name_Hall 'P 1'
loop_
    _symmetry_equiv_pos_as_xyz
    x,y,z
loop_
    _atom_site_label
    _atom_site_type_symbol
    _atom_site_fract_x
    _atom_site_fract_y
    _atom_site_fract_z
    _atom_site_occupancy
    Al1      Al       0.99872    0.00020    0.99870    1.000
    O1       O        0.99980    0.88990    0.74450    1.000
    O2       O        0.22000    0.22000    0.19000    1.000
    O3       O        0.29000    0.27000    0.25000    1.000
    C1       C        0.07000    0.12000    0.06000    1.000
    C2       C        0.93000    0.13000    0.86000    1.000
    C3       C        0.19000    0.20000    0.99000    1.000
    C4       C        0.22000    0.22000    0.86000    1.000
    C5       C        0.29000    0.27000    0.91000    1.000
    C6       C        0.32000    0.29000    0.11000    1.000
    C7       C        0.11000    0.14000    0.93000    1.000
    C8       C        0.08000    0.88000    0.25000    1.000
    C9       C        0.90000    0.15000    0.67000    1.000
    C10      C        0.93000    0.87000    0.04000    1.000
    Al2      Al       0.49872    0.50020    0.99870    1.000
    O4       O        0.49980    0.38990    0.74450    1.000
    O5       O        0.72000    0.72000    0.19000    1.000
    O6       O        0.79000    0.77000    0.25000    1.000
    C11      C        0.57000    0.62000    0.06000    1.000
    C12      C        0.43000    0.63000    0.86000    1.000
    C13      C        0.69000    0.70000    0.99000    1.000
    C14      C        0.72000    0.72000    0.86000    1.000
    C15      C        0.79000    0.77000    0.91000    1.000
    C16      C        0.82000    0.79000    0.11000    1.000
    C17      C        0.61000    0.64000    0.93000    1.000
    C18      C        0.58000    0.38000    0.25000    1.000
    C19      C        0.40000    0.65000    0.67000    1.000
    C20      C        0.43000    0.37000    0.04000    1.000
    Al3      Al       0.99872    0.99980    0.49870    1.000
    O7       O        0.99980    0.11010    0.24450    1.000
    O8       O        0.22000    0.78000    0.69000    1.000
    O9       O        0.29000    0.73000    0.75000    1.000
    C21      C        0.07000    0.88000    0.56000    1.000
    C22      C        0.93000    0.87000    0.36000    1.000
    C23      C        0.19000    0.80000    0.49000    1.000
    C24      C        0.22000    0.78000    0.36000    1.000
    C25      C        0.29000    0.73000    0.41000    1.000
    C26      C        0.32000    0.71000    0.61000    1.000
    C27      C        0.11000    0.86000    0.43000    1.000
    C28      C        0.08000    0.12000    0.75000    1.000
    C29      C        0.90000    0.85000    0.17000    1.000
    C30      C        0.93000    0.13000    0.54000    1.000
    Al4      Al       0.49872    0.49980    0.49870    1.000
    O10      O        0.49980    0.61010    0.24450    1.000
    O11      O        0.72000    0.28000    0.69000    1.000
    O12      O        0.79000    0.23000    0.75000    1.000
    C31      C        0.57000    0.38000    0.56000    1.000
    C32      C        0.43000    0.37000    0.36000    1.000
    C33      C        0.69000    0.30000    0.49000    1.000
    C34      C        0.72000    0.28000    0.36000    1.000
    C35      C        0.79000    0.23000    0.41000    1.000
    C36      C        0.82000    0.21000    0.61000    1.000
    C37      C        0.61000    0.36000    0.43000    1.000
    C38      C        0.58000    0.62000    0.75000    1.000
    C39      C        0.40000    0.35000    0.17000    1.000
    C40      C        0.43000    0.63000    0.54000    1.000
