data_functionalizedCrystal
_audit_creation_method	'EQeq! by Chris Wilmer'
_symmetry_space_group_name_H-M	'P1'
_symmetry_Int_Tables_number	1
_symmetry_cell_setting	triclinic
loop_
_symmetry_equiv_pos_as_xyz
  x,y,z
_cell_length_a	12.3299
_cell_length_b	22.7467
_cell_length_c	26.7771
_cell_angle_alpha	90
_cell_angle_beta	101.159
_cell_angle_gamma	90
loop_
_atom_site_label
_atom_site_type_symbol
_atom_site_fract_x
_atom_site_fract_y
_atom_site_fract_z
_atom_site_charge
Mof_Cu	Cu	0.96829	0.85464	0.29368	0.853
Mof_N 	N 	0.9082	0.9327	0.26427	-0.228
Mof_N 	N 	0.9227	0.8757	0.36023	-0.229
Mof_N 	N 	0.4627	0.2804	0.17183	-0.228
Mof_N 	N 	0.9814	0.1662	0.77162	-0.227
Mof_C 	C 	0.808	0.9531	0.2704	0.064
Mof_C 	C 	0.9703	0.9685	0.2416	0.05
Mof_C 	C 	0.9731	0.9203	0.388	0.065
Mof_C 	C 	0.8409	0.8475	0.3765	0.064
Mof_H 	H 	0.763	0.9282	0.2864	0.001
Mof_C 	C 	0.769	0.0073	0.2549	-0.085
Mof_C 	C 	0.9375	0.0245	0.226	-0.082
Mof_H 	H 	0.0397	0.9546	0.236	0.006
Mof_H 	H 	0.0312	0.9405	0.3766	-0.003
Mof_C 	C 	0.9436	0.9379	0.4324	-0.088
Mof_C 	C 	0.8039	0.8637	0.4206	-0.088
Mof_H 	H 	0.8065	0.8152	0.3573	-0.004
Mof_H 	H 	0.6974	0.0194	0.2588	0.098
Mof_C 	C 	0.8358	0.0445	0.2332	0.005
Mof_H 	H 	0.984	0.049	0.2105	0.09
Mof_H 	H 	0.9823	0.969	0.4518	0.099
Mof_C 	C 	0.8569	0.91	0.449	-0
Mof_H 	H 	0.7442	0.8436	0.4308	0.099
Mof_C 	C 	0.7949	0.1052	0.2175	0.275
Mof_C 	C 	0.8252	0.9311	0.4965	0.284
Mof_O 	O 	0.7053	0.1235	0.2215	-0.252
Mof_O 	O 	0.8708	0.13545	0.20011	-0.24
Mof_O 	O 	0.8818	0.964	0.5251	-0.26
Mof_O 	O 	0.7312	0.9103	0.50478	-0.243
Mof_C 	C 	0.8402	0.1953	0.1836	0.061
Mof_C 	C 	0.7019	0.9334	0.5511	0.066
Mof_H 	H 	0.8385	0.2208	0.2134	0.018
Mof_H 	H 	0.7661	0.1957	0.1613	0.04
Mof_C 	C 	0.9257	0.2164	0.1552	-0.079
Mof_H 	H 	0.7064	0.9769	0.5514	0.044
Mof_H 	H 	0.7536	0.9182	0.5814	0.037
Mof_C 	C 	0.5859	0.9141	0.5524	-0.089
Mof_N 	N 	0.9231	0.1833	0.1073	-0.171
Mof_H 	H 	0.9132	0.2586	0.1471	0.078
Mof_H 	H 	0.9997	0.2123	0.1771	0.093
Mof_N 	N 	0.5608	0.9341	0.60131	-0.174
Mof_H 	H 	0.5333	0.9317	0.5236	0.105
Mof_H 	H 	0.5799	0.8707	0.5497	0.095
Mof_C 	C 	0.007	0.143	0.1049	0.288
Mof_C 	C 	0.836	0.1954	0.069	0.297
Mof_C 	C 	0.5881	0.8961	0.642	0.283
Mof_C 	C 	0.522	0.9903	0.6036	0.286
Mof_O 	O 	0.0824	0.1347	0.14	-0.231
Mof_N 	N 	0.9982	0.1145	0.0592	-0.171
Mof_O 	O 	0.7651	0.231	0.0731	-0.252
Mof_N 	N 	0.8318	0.1643	0.0255	-0.177
Mof_O 	O 	0.6272	0.8482	0.63909	-0.237
Mof_N 	N 	0.5666	0.9185	0.68789	-0.17
Mof_O 	O 	0.504	0.0222	0.56625	-0.225
Mof_N 	N 	0.5052	0.0087	0.6509	-0.168
Mof_C 	C 	0.0843	0.0721	0.0542	-0.069
Mof_C 	C 	0.9094	0.1217	0.0188	0.28
Mof_C 	C 	0.734	0.1743	0.9844	-0.052
Mof_C 	C 	0.59	0.8813	0.7334	-0.06
Mof_C 	C 	0.5235	0.9739	0.6934	0.29
Mof_C 	C 	0.4569	0.0673	0.6545	-0.075
Mof_C 	C 	0.1683	0.0977	0.0253	0.058
Mof_H 	H 	0.0498	0.0369	0.036	0.075
Mof_H 	H 	0.1227	0.0597	0.0885	0.087
Mof_O 	O 	0.9037	0.0929	0.9801	-0.234
Mof_C 	C 	0.7416	0.238	0.9531	0.041
Mof_H 	H 	0.6666	0.1747	0.9994	0.061
Mof_H 	H 	0.7273	0.1414	0.9599	0.079
Mof_C 	C 	0.7008	0.8963	0.7669	0.039
Mof_H 	H 	0.5901	0.8395	0.723	0.076
Mof_H 	H 	0.5307	0.8865	0.7532	0.073
Mof_O 	O 	0.5045	0.9901	0.73363	-0.245
Mof_C 	C 	0.542	0.1143	0.6697	0.06
Mof_H 	H 	0.4079	0.0659	0.6797	0.074
Mof_H 	H 	0.411	0.0776	0.6211	0.097
Mof_O 	O 	0.2282	0.1453	0.0531	-0.239
Mof_H 	H 	0.2208	0.0666	0.0197	0.039
Mof_H 	H 	0.1296	0.112	0.9916	0.043
Mof_O 	O 	0.7796	0.2227	0.9065	-0.243
Mof_H 	H 	0.6682	0.2571	0.945	0.027
Mof_H 	H 	0.7943	0.2653	0.974	0.057
Mof_O 	O 	0.7888	0.8905	0.73821	-0.229
Mof_H 	H 	0.6991	0.937	0.7796	0.054
Mof_H 	H 	0.7151	0.8695	0.7966	0.056
Mof_O 	O 	0.6081	0.1223	0.63018	-0.248
Mof_H 	H 	0.5049	0.1517	0.6751	0.025
Mof_H 	H 	0.591	0.1033	0.7022	0.035
Mof_C 	C 	0.319	0.1311	0.087	0.273
Mof_C 	C 	0.8877	0.2153	0.9115	0.31
Mof_C 	C 	0.8263	0.836	0.7332	0.275
Mof_C 	C 	0.5609	0.151	0.5896	0.276
Mof_O 	O 	0.3555	0.0831	0.0949	-0.241
Mof_C 	C 	0.3685	0.1839	0.1165	0.002
Mof_O 	O 	0.9518	0.2199	0.9493	-0.258
Mof_C 	C 	0.9162	0.1975	0.8617	-0.009
Mof_O 	O 	0.802	0.7926	0.75442	-0.242
Mof_C 	C 	0.9033	0.8356	0.6954	0.008
Mof_O 	O 	0.4703	0.1752	0.5836	-0.237
Mof_C 	C 	0.6303	0.153	0.55	-0.003
Mof_C 	C 	0.3151	0.2369	0.1135	-0.083
Mof_C 	C 	0.4701	0.1798	0.1486	-0.091
Mof_C 	C 	0.0224	0.1782	0.8618	-0.074
Mof_C 	C 	0.8419	0.1997	0.8153	-0.066
Mof_C 	C 	0.9184	0.8856	0.6684	-0.073
Mof_C 	C 	0.9565	0.7849	0.6872	-0.081
Mof_C 	C 	0.6079	0.1952	0.5119	-0.087
Mof_C 	C 	0.7177	0.1145	0.5492	-0.077
Mof_C 	C 	0.3634	0.2837	0.1409	0.058
Mof_H 	H 	0.2442	0.2411	0.0923	0.083
Mof_H 	H 	0.5093	0.1436	0.152	0.089
Mof_C 	C 	0.514	0.2282	0.1757	0.063
Mof_C 	C 	0.0507	0.1623	0.816	0.051
Mof_H 	H 	0.0751	0.1758	0.8928	0.074
Mof_H 	H 	0.7674	0.2115	0.8139	0.083
Mof_C 	C 	0.8778	0.1849	0.7723	0.05
Mof_C 	C 	0.9878	0.8831	0.6344	0.054
Mof_H 	H 	0.8812	0.9211	0.6733	0.076
Mof_H 	H 	0.9475	0.75	0.7054	0.07
Mof_C 	C 	0.0234	0.7859	0.6517	0.058
Mof_C 	C 	0.6727	0.1979	0.4753	0.062
Mof_H 	H 	0.5484	0.222	0.511	0.099
Mof_H 	H 	0.7359	0.085	0.5745	0.074
Mof_C 	C 	0.7768	0.1198	0.5115	0.058
Mof_H 	H 	0.3252	0.3202	0.1379	-0.002
Mof_H 	H 	0.5836	0.2247	0.198	-0.001
Mof_H 	H 	0.1233	0.1479	0.8164	-0.001
Mof_H 	H 	0.8271	0.1877	0.7408	0.013
Mof_N 	N 	0.0412	0.8341	0.6257	-0.217
Mof_H 	H 	0.9987	0.9178	0.6162	0.031
Mof_H 	H 	0.059	0.7504	0.6452	-0
Mof_N 	N 	0.756	0.1605	0.4749	-0.221
Mof_H 	H 	0.6575	0.2271	0.4496	0.013
Mof_H 	H 	0.836	0.0932	0.5111	0.016
Mof_Cu	Cu	0.15005	0.83389	0.57838	0.871
Mof_O 	O 	0.273	0.7779	0.6357	-0.297
Mof_C 	C 	0.3458	0.8001	0.6767	-0.087
Mof_H 	H 	0.3889	0.7679	0.695	0.063
Mof_H 	H 	0.3958	0.828	0.6648	0.086
Mof_H 	H 	0.3047	0.8202	0.6995	0.083
Mof_O 	O 	0.157	0.9222	0.5851	-0.241
Mof_N 	N 	0.2487	0.9397	0.6096	0.081
Mof_O 	O 	0.2611	0.9929	0.6214	-0.119
Mof_O 	O 	0.3338	0.9081	0.618	-0.076
Mof_H 	H 	0.2632	0.8027	0.612	0.073
Mof_O 	O 	0.734	0.1095	0.3687	-0.166
Mof_Cu	Cu	0.53171	0.35464	0.20632	0.853
Mof_N 	N 	0.5918	0.4327	0.23573	-0.23
Mof_N 	N 	0.5773	0.3757	0.13977	-0.23
Mof_N 	N 	0.0373	0.7804	0.32817	-0.226
Mof_N 	N 	0.5186	0.6662	0.72838	-0.228
Mof_C 	C 	0.692	0.4531	0.2296	0.067
Mof_C 	C 	0.5297	0.4685	0.2584	0.059
Mof_C 	C 	0.5269	0.4203	0.112	0.069
Mof_C 	C 	0.6591	0.3475	0.1235	0.065
Mof_H 	H 	0.737	0.4282	0.2136	-0
Mof_C 	C 	0.731	0.5073	0.2451	-0.09
Mof_C 	C 	0.5625	0.5245	0.274	-0.089
Mof_H 	H 	0.4603	0.4546	0.264	0.002
Mof_H 	H 	0.4688	0.4405	0.1234	-0.006
Mof_C 	C 	0.5564	0.4379	0.0676	-0.09
Mof_C 	C 	0.6961	0.3637	0.0794	-0.089
Mof_H 	H 	0.6935	0.3152	0.1427	-0.004
Mof_H 	H 	0.8026	0.5194	0.2412	0.099
Mof_C 	C 	0.6642	0.5445	0.2668	0.008
Mof_H 	H 	0.516	0.549	0.2895	0.092
Mof_H 	H 	0.5177	0.469	0.0482	0.1
Mof_C 	C 	0.6431	0.41	0.051	0.001
Mof_H 	H 	0.7558	0.3436	0.0692	0.1
Mof_C 	C 	0.7051	0.6052	0.2825	0.274
Mof_C 	C 	0.6748	0.4311	0.0035	0.283
Mof_O 	O 	0.7947	0.6235	0.2785	-0.251
Mof_O 	O 	0.6292	0.63545	0.29989	-0.24
Mof_O 	O 	0.6182	0.464	0.9749	-0.259
Mof_O 	O 	0.7688	0.4103	0.99522	-0.242
Mof_C 	C 	0.6598	0.6953	0.3164	0.061
Mof_C 	C 	0.7981	0.4334	0.9489	0.066
Mof_H 	H 	0.6615	0.7208	0.2866	0.018
Mof_H 	H 	0.7339	0.6957	0.3387	0.04
Mof_C 	C 	0.5743	0.7164	0.3448	-0.079
Mof_H 	H 	0.7936	0.4769	0.9486	0.044
Mof_H 	H 	0.7464	0.4182	0.9186	0.037
Mof_C 	C 	0.9141	0.4141	0.9476	-0.089
Mof_N 	N 	0.5769	0.6833	0.3927	-0.172
Mof_H 	H 	0.5868	0.7586	0.3529	0.078
Mof_H 	H 	0.5003	0.7123	0.3229	0.093
Mof_N 	N 	0.9392	0.4341	0.89869	-0.174
Mof_H 	H 	0.9667	0.4317	0.9764	0.105
Mof_H 	H 	0.9201	0.3707	0.9503	0.095
Mof_C 	C 	0.493	0.643	0.3951	0.29
Mof_C 	C 	0.664	0.6954	0.431	0.297
Mof_C 	C 	0.9119	0.3961	0.858	0.283
Mof_C 	C 	0.978	0.4903	0.8964	0.286
Mof_O 	O 	0.4176	0.6347	0.36	-0.231
Mof_N 	N 	0.5018	0.6145	0.4408	-0.172
Mof_O 	O 	0.7349	0.731	0.4269	-0.252
Mof_N 	N 	0.6682	0.6643	0.4745	-0.177
Mof_O 	O 	0.8728	0.3482	0.86091	-0.237
Mof_N 	N 	0.9334	0.4185	0.81211	-0.17
Mof_O 	O 	0.996	0.5222	0.93375	-0.225
Mof_N 	N 	0.9948	0.5087	0.8491	-0.168
Mof_C 	C 	0.4157	0.5721	0.4458	-0.067
Mof_C 	C 	0.5906	0.6217	0.4812	0.281
Mof_C 	C 	0.766	0.6743	0.5156	-0.053
Mof_C 	C 	0.91	0.3813	0.7666	-0.06
Mof_C 	C 	0.9765	0.4739	0.8066	0.291
Mof_C 	C 	0.0431	0.5673	0.8455	-0.076
Mof_C 	C 	0.3317	0.5977	0.4747	0.056
Mof_H 	H 	0.4502	0.5369	0.464	0.075
Mof_H 	H 	0.3773	0.5597	0.4115	0.087
Mof_O 	O 	0.5963	0.5929	0.5199	-0.235
Mof_C 	C 	0.7584	0.738	0.5469	0.041
Mof_H 	H 	0.8334	0.6747	0.5006	0.061
Mof_H 	H 	0.7727	0.6414	0.5401	0.079
Mof_C 	C 	0.7992	0.3963	0.7331	0.039
Mof_H 	H 	0.9099	0.3395	0.777	0.076
Mof_H 	H 	0.9693	0.3865	0.7468	0.073
Mof_O 	O 	0.9955	0.4901	0.76637	-0.244
Mof_C 	C 	0.958	0.6143	0.8303	0.06
Mof_H 	H 	0.0921	0.5659	0.8203	0.074
Mof_H 	H 	0.089	0.5776	0.8789	0.097
Mof_O 	O 	0.2718	0.6453	0.4469	-0.239
Mof_H 	H 	0.2792	0.5666	0.4803	0.04
Mof_H 	H 	0.3704	0.612	0.5084	0.044
Mof_O 	O 	0.7204	0.7227	0.5935	-0.244
Mof_H 	H 	0.8318	0.7571	0.555	0.027
Mof_H 	H 	0.7057	0.7653	0.526	0.057
Mof_O 	O 	0.7112	0.3905	0.76179	-0.229
Mof_H 	H 	0.8009	0.437	0.7204	0.054
Mof_H 	H 	0.7849	0.3695	0.7034	0.056
Mof_O 	O 	0.8919	0.6223	0.86982	-0.248
Mof_H 	H 	0.9951	0.6517	0.8249	0.025
Mof_H 	H 	0.909	0.6033	0.7978	0.034
Mof_C 	C 	0.181	0.6311	0.413	0.274
Mof_C 	C 	0.6123	0.7153	0.5885	0.311
Mof_C 	C 	0.6737	0.336	0.7668	0.275
Mof_C 	C 	0.9391	0.651	0.9104	0.276
Mof_O 	O 	0.1445	0.5831	0.4051	-0.241
Mof_C 	C 	0.1315	0.6839	0.3835	-0.001
Mof_O 	O 	0.5482	0.7199	0.5507	-0.259
Mof_C 	C 	0.5838	0.6975	0.6383	-0.011
Mof_O 	O 	0.698	0.2926	0.74558	-0.242
Mof_C 	C 	0.5967	0.3356	0.8046	0.008
Mof_O 	O 	0.0297	0.6752	0.9164	-0.237
Mof_C 	C 	0.8697	0.653	0.95	-0.003
Mof_C 	C 	0.1849	0.7369	0.3865	-0.081
Mof_C 	C 	0.0299	0.6798	0.3514	-0.085
Mof_C 	C 	0.4776	0.6782	0.6382	-0.071
Mof_C 	C 	0.6581	0.6997	0.6847	-0.065
Mof_C 	C 	0.5816	0.3856	0.8316	-0.073
Mof_C 	C 	0.5435	0.2849	0.8128	-0.079
Mof_C 	C 	0.8921	0.6952	0.9881	-0.086
Mof_C 	C 	0.7823	0.6145	0.9508	-0.077
Mof_C 	C 	0.1366	0.7837	0.3591	0.057
Mof_H 	H 	0.2558	0.7411	0.4077	0.082
Mof_H 	H 	0.9907	0.6436	0.348	0.086
Mof_C 	C 	0.986	0.7282	0.3243	0.057
Mof_C 	C 	0.4493	0.6623	0.684	0.052
Mof_H 	H 	0.4249	0.6758	0.6072	0.074
Mof_H 	H 	0.7326	0.7115	0.6861	0.083
Mof_C 	C 	0.6222	0.6849	0.7277	0.049
Mof_C 	C 	0.5122	0.3831	0.8656	0.055
Mof_H 	H 	0.6188	0.4211	0.8267	0.076
Mof_H 	H 	0.5525	0.25	0.7946	0.07
Mof_C 	C 	0.4766	0.2859	0.8483	0.056
Mof_C 	C 	0.8273	0.6979	0.0247	0.062
Mof_H 	H 	0.9516	0.722	0.989	0.099
Mof_H 	H 	0.7641	0.585	0.9255	0.073
Mof_C 	C 	0.7232	0.6198	0.9885	0.058
Mof_H 	H 	0.1748	0.8202	0.3621	-0.001
Mof_H 	H 	0.9164	0.7247	0.302	0
Mof_H 	H 	0.3767	0.6479	0.6836	-0.001
Mof_H 	H 	0.6729	0.6877	0.7592	0.013
Mof_N 	N 	0.4588	0.3341	0.8743	-0.217
Mof_H 	H 	0.5013	0.4178	0.8838	0.031
Mof_H 	H 	0.441	0.2504	0.8548	-0
Mof_N 	N 	0.744	0.6605	0.0251	-0.221
Mof_H 	H 	0.8425	0.7271	0.0504	0.013
Mof_H 	H 	0.664	0.5932	0.9889	0.015
Mof_Cu	Cu	0.34995	0.33389	0.92162	0.871
Mof_O 	O 	0.227	0.2779	0.8643	-0.297
Mof_C 	C 	0.1542	0.3001	0.8233	-0.086
Mof_H 	H 	0.1111	0.2679	0.805	0.062
Mof_H 	H 	0.1042	0.328	0.8352	0.085
Mof_H 	H 	0.1953	0.3202	0.8005	0.082
Mof_O 	O 	0.343	0.4222	0.9149	-0.241
Mof_N 	N 	0.2513	0.4397	0.8904	0.081
Mof_O 	O 	0.2389	0.4929	0.8786	-0.119
Mof_O 	O 	0.1662	0.4081	0.882	-0.077
Mof_H 	H 	0.2368	0.3027	0.888	0.073
Mof_O 	O 	0.766	0.6095	0.1313	-0.166
Mof_Cu	Cu	0.03171	0.14536	0.70632	0.853
Mof_N 	N 	0.0918	0.0673	0.73573	-0.228
Mof_N 	N 	0.0773	0.1243	0.63977	-0.229
Mof_N 	N 	0.5373	0.7196	0.82817	-0.228
Mof_N 	N 	0.0186	0.8338	0.22838	-0.227
Mof_C 	C 	0.192	0.0469	0.7296	0.064
Mof_C 	C 	0.0297	0.0315	0.7584	0.05
Mof_C 	C 	0.0269	0.0797	0.612	0.065
Mof_C 	C 	0.1591	0.1525	0.6235	0.064
Mof_H 	H 	0.237	0.0718	0.7136	0.001
Mof_C 	C 	0.231	0.9927	0.7451	-0.085
Mof_C 	C 	0.0625	0.9755	0.774	-0.082
Mof_H 	H 	0.9603	0.0454	0.764	0.006
Mof_H 	H 	0.9688	0.0595	0.6234	-0.003
Mof_C 	C 	0.0564	0.0621	0.5676	-0.088
Mof_C 	C 	0.1961	0.1363	0.5794	-0.088
Mof_H 	H 	0.1935	0.1848	0.6427	-0.004
Mof_H 	H 	0.3026	0.9806	0.7412	0.098
Mof_C 	C 	0.1642	0.9555	0.7668	0.005
Mof_H 	H 	0.016	0.951	0.7895	0.09
Mof_H 	H 	0.0177	0.031	0.5482	0.099
Mof_C 	C 	0.1431	0.09	0.551	-0
Mof_H 	H 	0.2558	0.1564	0.5692	0.099
Mof_C 	C 	0.2051	0.8948	0.7825	0.275
Mof_C 	C 	0.1748	0.0689	0.5035	0.284
Mof_O 	O 	0.2947	0.8765	0.7785	-0.252
Mof_O 	O 	0.1292	0.86455	0.79989	-0.24
Mof_O 	O 	0.1182	0.036	0.4749	-0.26
Mof_O 	O 	0.2688	0.0897	0.49522	-0.243
Mof_C 	C 	0.1598	0.8047	0.8164	0.061
Mof_C 	C 	0.2981	0.0666	0.4489	0.066
Mof_H 	H 	0.1615	0.7792	0.7866	0.018
Mof_H 	H 	0.2339	0.8043	0.8387	0.04
Mof_C 	C 	0.0743	0.7836	0.8448	-0.079
Mof_H 	H 	0.2936	0.0231	0.4486	0.044
Mof_H 	H 	0.2464	0.0818	0.4186	0.037
Mof_C 	C 	0.4141	0.0859	0.4476	-0.089
Mof_N 	N 	0.0769	0.8167	0.8927	-0.171
Mof_H 	H 	0.0868	0.7414	0.8529	0.078
Mof_H 	H 	0.0003	0.7877	0.8229	0.093
Mof_N 	N 	0.4392	0.0659	0.39869	-0.174
Mof_H 	H 	0.4667	0.0683	0.4764	0.105
Mof_H 	H 	0.4201	0.1293	0.4503	0.095
Mof_C 	C 	0.993	0.857	0.8951	0.288
Mof_C 	C 	0.164	0.8046	0.931	0.297
Mof_C 	C 	0.4119	0.1039	0.358	0.283
Mof_C 	C 	0.478	0.0097	0.3964	0.286
Mof_O 	O 	0.9176	0.8653	0.86	-0.231
Mof_N 	N 	0.0018	0.8855	0.9408	-0.171
Mof_O 	O 	0.2349	0.769	0.9269	-0.252
Mof_N 	N 	0.1682	0.8357	0.9745	-0.177
Mof_O 	O 	0.3728	0.1518	0.36091	-0.237
Mof_N 	N 	0.4334	0.0815	0.31211	-0.17
Mof_O 	O 	0.496	0.9778	0.43375	-0.225
Mof_N 	N 	0.4948	0.9913	0.3491	-0.168
Mof_C 	C 	0.9157	0.9279	0.9458	-0.069
Mof_C 	C 	0.0906	0.8783	0.9812	0.28
Mof_C 	C 	0.266	0.8257	0.0156	-0.052
Mof_C 	C 	0.41	0.1187	0.2666	-0.06
Mof_C 	C 	0.4765	0.0261	0.3066	0.29
Mof_C 	C 	0.5431	0.9327	0.3455	-0.075
Mof_C 	C 	0.8317	0.9023	0.9747	0.058
Mof_H 	H 	0.9502	0.9631	0.964	0.075
Mof_H 	H 	0.8773	0.9403	0.9115	0.087
Mof_O 	O 	0.0963	0.9071	0.0199	-0.234
Mof_C 	C 	0.2584	0.762	0.0469	0.041
Mof_H 	H 	0.3334	0.8253	0.0006	0.061
Mof_H 	H 	0.2727	0.8586	0.0401	0.079
Mof_C 	C 	0.2992	0.1037	0.2331	0.039
Mof_H 	H 	0.4099	0.1605	0.277	0.076
Mof_H 	H 	0.4693	0.1135	0.2468	0.073
Mof_O 	O 	0.4955	0.0099	0.26637	-0.245
Mof_C 	C 	0.458	0.8857	0.3303	0.06
Mof_H 	H 	0.5921	0.9341	0.3203	0.074
Mof_H 	H 	0.589	0.9224	0.3789	0.097
Mof_O 	O 	0.7718	0.8547	0.9469	-0.239
Mof_H 	H 	0.7792	0.9334	0.9803	0.039
Mof_H 	H 	0.8704	0.888	0.0084	0.043
Mof_O 	O 	0.2204	0.7773	0.0935	-0.243
Mof_H 	H 	0.3318	0.7429	0.055	0.027
Mof_H 	H 	0.2057	0.7347	0.026	0.057
Mof_O 	O 	0.2112	0.1095	0.26179	-0.229
Mof_H 	H 	0.3009	0.063	0.2204	0.054
Mof_H 	H 	0.2849	0.1305	0.2034	0.056
Mof_O 	O 	0.3919	0.8777	0.36982	-0.248
Mof_H 	H 	0.4951	0.8483	0.3249	0.025
Mof_H 	H 	0.409	0.8967	0.2978	0.035
Mof_C 	C 	0.681	0.8689	0.913	0.273
Mof_C 	C 	0.1123	0.7847	0.0885	0.31
Mof_C 	C 	0.1737	0.164	0.2668	0.275
Mof_C 	C 	0.4391	0.849	0.4104	0.276
Mof_O 	O 	0.6445	0.9169	0.9051	-0.241
Mof_C 	C 	0.6315	0.8161	0.8835	0.002
Mof_O 	O 	0.0482	0.7801	0.0507	-0.258
Mof_C 	C 	0.0838	0.8025	0.1383	-0.009
Mof_O 	O 	0.198	0.2074	0.24558	-0.242
Mof_C 	C 	0.0967	0.1644	0.3046	0.008
Mof_O 	O 	0.5297	0.8248	0.4164	-0.237
Mof_C 	C 	0.3697	0.847	0.45	-0.003
Mof_C 	C 	0.6849	0.7631	0.8865	-0.083
Mof_C 	C 	0.5299	0.8202	0.8514	-0.091
Mof_C 	C 	0.9776	0.8218	0.1382	-0.074
Mof_C 	C 	0.1581	0.8003	0.1847	-0.066
Mof_C 	C 	0.0816	0.1144	0.3316	-0.073
Mof_C 	C 	0.0435	0.2151	0.3128	-0.081
Mof_C 	C 	0.3921	0.8048	0.4881	-0.087
Mof_C 	C 	0.2823	0.8855	0.4508	-0.077
Mof_C 	C 	0.6366	0.7163	0.8591	0.058
Mof_H 	H 	0.7558	0.7589	0.9077	0.083
Mof_H 	H 	0.4907	0.8564	0.848	0.089
Mof_C 	C 	0.486	0.7718	0.8243	0.063
Mof_C 	C 	0.9493	0.8377	0.184	0.051
Mof_H 	H 	0.9249	0.8242	0.1072	0.074
Mof_H 	H 	0.2326	0.7885	0.1861	0.083
Mof_C 	C 	0.1222	0.8151	0.2277	0.05
Mof_C 	C 	0.0122	0.1169	0.3656	0.054
Mof_H 	H 	0.1188	0.0789	0.3267	0.076
Mof_H 	H 	0.0525	0.25	0.2946	0.07
Mof_C 	C 	0.9766	0.2141	0.3483	0.058
Mof_C 	C 	0.3273	0.8021	0.5247	0.062
Mof_H 	H 	0.4516	0.778	0.489	0.099
Mof_H 	H 	0.2641	0.915	0.4255	0.074
Mof_C 	C 	0.2232	0.8802	0.4885	0.058
Mof_H 	H 	0.6748	0.6798	0.8621	-0.002
Mof_H 	H 	0.4164	0.7753	0.802	-0.001
Mof_H 	H 	0.8767	0.8521	0.1836	-0.001
Mof_H 	H 	0.1729	0.8123	0.2592	0.013
Mof_N 	N 	0.9588	0.1659	0.3743	-0.217
Mof_H 	H 	0.0013	0.0822	0.3838	0.031
Mof_H 	H 	0.941	0.2496	0.3548	-0
Mof_N 	N 	0.244	0.8395	0.5251	-0.221
Mof_H 	H 	0.3425	0.7729	0.5504	0.013
Mof_H 	H 	0.164	0.9068	0.4889	0.016
Mof_Cu	Cu	0.84995	0.16611	0.42162	0.871
Mof_O 	O 	0.727	0.2221	0.3643	-0.297
Mof_C 	C 	0.6542	0.1999	0.3233	-0.087
Mof_H 	H 	0.6111	0.2321	0.305	0.063
Mof_H 	H 	0.6042	0.172	0.3352	0.086
Mof_H 	H 	0.6953	0.1798	0.3005	0.083
Mof_O 	O 	0.843	0.0778	0.4149	-0.241
Mof_N 	N 	0.7513	0.0603	0.3904	0.081
Mof_O 	O 	0.7389	0.0071	0.3786	-0.119
Mof_O 	O 	0.6662	0.0919	0.382	-0.076
Mof_H 	H 	0.7368	0.1973	0.388	0.073
Mof_O 	O 	0.266	0.8905	0.6313	-0.166
Mof_Cu	Cu	0.46829	0.64536	0.79368	0.853
Mof_N 	N 	0.4082	0.5673	0.76427	-0.23
Mof_N 	N 	0.4227	0.6243	0.86023	-0.23
Mof_N 	N 	0.9627	0.2196	0.67183	-0.226
Mof_N 	N 	0.4814	0.3338	0.27162	-0.228
Mof_C 	C 	0.308	0.5469	0.7704	0.067
Mof_C 	C 	0.4703	0.5315	0.7416	0.059
Mof_C 	C 	0.4731	0.5797	0.888	0.069
Mof_C 	C 	0.3409	0.6525	0.8765	0.065
Mof_H 	H 	0.263	0.5718	0.7864	-0
Mof_C 	C 	0.269	0.4927	0.7549	-0.09
Mof_C 	C 	0.4375	0.4755	0.726	-0.089
Mof_H 	H 	0.5397	0.5454	0.736	0.002
Mof_H 	H 	0.5312	0.5595	0.8766	-0.006
Mof_C 	C 	0.4436	0.5621	0.9324	-0.09
Mof_C 	C 	0.3039	0.6363	0.9206	-0.089
Mof_H 	H 	0.3065	0.6848	0.8573	-0.004
Mof_H 	H 	0.1974	0.4806	0.7588	0.099
Mof_C 	C 	0.3358	0.4555	0.7332	0.008
Mof_H 	H 	0.484	0.451	0.7105	0.092
Mof_H 	H 	0.4823	0.531	0.9518	0.1
Mof_C 	C 	0.3569	0.59	0.949	0.001
Mof_H 	H 	0.2442	0.6564	0.9308	0.1
Mof_C 	C 	0.2949	0.3948	0.7175	0.274
Mof_C 	C 	0.3252	0.5689	0.9965	0.283
Mof_O 	O 	0.2053	0.3765	0.7215	-0.251
Mof_O 	O 	0.3708	0.36455	0.70011	-0.24
Mof_O 	O 	0.3818	0.536	0.0251	-0.259
Mof_O 	O 	0.2312	0.5897	0.00478	-0.242
Mof_C 	C 	0.3402	0.3047	0.6836	0.061
Mof_C 	C 	0.2019	0.5666	0.0511	0.066
Mof_H 	H 	0.3385	0.2792	0.7134	0.018
Mof_H 	H 	0.2661	0.3043	0.6613	0.04
Mof_C 	C 	0.4257	0.2836	0.6552	-0.079
Mof_H 	H 	0.2064	0.5231	0.0514	0.044
Mof_H 	H 	0.2536	0.5818	0.0814	0.037
Mof_C 	C 	0.0859	0.5859	0.0524	-0.089
Mof_N 	N 	0.4231	0.3167	0.6073	-0.172
Mof_H 	H 	0.4132	0.2414	0.6471	0.078
Mof_H 	H 	0.4997	0.2877	0.6771	0.093
Mof_N 	N 	0.0608	0.5659	0.10131	-0.174
Mof_H 	H 	0.0333	0.5683	0.0236	0.105
Mof_H 	H 	0.0799	0.6293	0.0497	0.095
Mof_C 	C 	0.507	0.357	0.6049	0.29
Mof_C 	C 	0.336	0.3046	0.569	0.297
Mof_C 	C 	0.0881	0.6039	0.142	0.283
Mof_C 	C 	0.022	0.5097	0.1036	0.286
Mof_O 	O 	0.5824	0.3653	0.64	-0.231
Mof_N 	N 	0.4982	0.3855	0.5592	-0.172
Mof_O 	O 	0.2651	0.269	0.5731	-0.252
Mof_N 	N 	0.3318	0.3357	0.5255	-0.177
Mof_O 	O 	0.1272	0.6518	0.13909	-0.237
Mof_N 	N 	0.0666	0.5815	0.18789	-0.17
Mof_O 	O 	0.004	0.4778	0.06625	-0.225
Mof_N 	N 	0.0052	0.4913	0.1509	-0.168
Mof_C 	C 	0.5843	0.4279	0.5542	-0.067
Mof_C 	C 	0.4094	0.3783	0.5188	0.281
Mof_C 	C 	0.234	0.3257	0.4844	-0.053
Mof_C 	C 	0.09	0.6187	0.2334	-0.06
Mof_C 	C 	0.0235	0.5261	0.1934	0.291
Mof_C 	C 	0.9569	0.4327	0.1545	-0.076
Mof_C 	C 	0.6683	0.4023	0.5253	0.056
Mof_H 	H 	0.5498	0.4631	0.536	0.075
Mof_H 	H 	0.6227	0.4403	0.5885	0.087
Mof_O 	O 	0.4037	0.4071	0.4801	-0.235
Mof_C 	C 	0.2416	0.262	0.4531	0.041
Mof_H 	H 	0.1666	0.3253	0.4994	0.061
Mof_H 	H 	0.2273	0.3586	0.4599	0.079
Mof_C 	C 	0.2008	0.6037	0.2669	0.039
Mof_H 	H 	0.0901	0.6605	0.223	0.076
Mof_H 	H 	0.0307	0.6135	0.2532	0.073
Mof_O 	O 	0.0045	0.5099	0.23363	-0.244
Mof_C 	C 	0.042	0.3857	0.1697	0.06
Mof_H 	H 	0.9079	0.4341	0.1797	0.074
Mof_H 	H 	0.911	0.4224	0.1211	0.097
Mof_O 	O 	0.7282	0.3547	0.5531	-0.239
Mof_H 	H 	0.7208	0.4334	0.5197	0.04
Mof_H 	H 	0.6296	0.388	0.4916	0.044
Mof_O 	O 	0.2796	0.2773	0.4065	-0.244
Mof_H 	H 	0.1682	0.2429	0.445	0.027
Mof_H 	H 	0.2943	0.2347	0.474	0.057
Mof_O 	O 	0.2888	0.6095	0.23821	-0.229
Mof_H 	H 	0.1991	0.563	0.2796	0.054
Mof_H 	H 	0.2151	0.6305	0.2966	0.056
Mof_O 	O 	0.1081	0.3777	0.13018	-0.248
Mof_H 	H 	0.0049	0.3483	0.1751	0.025
Mof_H 	H 	0.091	0.3967	0.2022	0.034
Mof_C 	C 	0.819	0.3689	0.587	0.274
Mof_C 	C 	0.3877	0.2847	0.4115	0.311
Mof_C 	C 	0.3263	0.664	0.2332	0.275
Mof_C 	C 	0.0609	0.349	0.0896	0.276
Mof_O 	O 	0.8555	0.4169	0.5949	-0.241
Mof_C 	C 	0.8685	0.3161	0.6165	-0.001
Mof_O 	O 	0.4518	0.2801	0.4493	-0.259
Mof_C 	C 	0.4162	0.3025	0.3617	-0.011
Mof_O 	O 	0.302	0.7074	0.25442	-0.242
Mof_C 	C 	0.4033	0.6644	0.1954	0.008
Mof_O 	O 	0.9703	0.3248	0.0836	-0.237
Mof_C 	C 	0.1303	0.347	0.05	-0.003
Mof_C 	C 	0.8151	0.2631	0.6135	-0.081
Mof_C 	C 	0.9701	0.3202	0.6486	-0.085
Mof_C 	C 	0.5224	0.3218	0.3618	-0.071
Mof_C 	C 	0.3419	0.3003	0.3153	-0.065
Mof_C 	C 	0.4184	0.6144	0.1684	-0.073
Mof_C 	C 	0.4565	0.7151	0.1872	-0.079
Mof_C 	C 	0.1079	0.3048	0.0119	-0.086
Mof_C 	C 	0.2177	0.3855	0.0492	-0.077
Mof_C 	C 	0.8634	0.2163	0.6409	0.057
Mof_H 	H 	0.7442	0.2589	0.5923	0.082
Mof_H 	H 	0.0093	0.3564	0.652	0.086
Mof_C 	C 	0.014	0.2718	0.6757	0.057
Mof_C 	C 	0.5507	0.3377	0.316	0.052
Mof_H 	H 	0.5751	0.3242	0.3928	0.074
Mof_H 	H 	0.2674	0.2885	0.3139	0.083
Mof_C 	C 	0.3778	0.3151	0.2723	0.049
Mof_C 	C 	0.4878	0.6169	0.1344	0.055
Mof_H 	H 	0.3812	0.5789	0.1733	0.076
Mof_H 	H 	0.4475	0.75	0.2054	0.07
Mof_C 	C 	0.5234	0.7141	0.1517	0.056
Mof_C 	C 	0.1727	0.3021	0.9753	0.062
Mof_H 	H 	0.0484	0.278	0.011	0.099
Mof_H 	H 	0.2359	0.415	0.0745	0.073
Mof_C 	C 	0.2768	0.3802	0.0115	0.058
Mof_H 	H 	0.8252	0.1798	0.6379	-0.001
Mof_H 	H 	0.0836	0.2753	0.698	0
Mof_H 	H 	0.6233	0.3521	0.3164	-0.001
Mof_H 	H 	0.3271	0.3123	0.2408	0.013
Mof_N 	N 	0.5412	0.6659	0.1257	-0.217
Mof_H 	H 	0.4987	0.5822	0.1162	0.031
Mof_H 	H 	0.559	0.7496	0.1452	-0
Mof_N 	N 	0.256	0.3395	0.9749	-0.221
Mof_H 	H 	0.1575	0.2729	0.9496	0.013
Mof_H 	H 	0.336	0.4068	0.0111	0.015
Mof_Cu	Cu	0.65005	0.66611	0.07838	0.871
Mof_O 	O 	0.773	0.7221	0.1357	-0.297
Mof_C 	C 	0.8458	0.6999	0.1767	-0.086
Mof_H 	H 	0.8889	0.7321	0.195	0.062
Mof_H 	H 	0.8958	0.672	0.1648	0.085
Mof_H 	H 	0.8047	0.6798	0.1995	0.082
Mof_O 	O 	0.657	0.5778	0.0851	-0.241
Mof_N 	N 	0.7487	0.5603	0.1096	0.081
Mof_O 	O 	0.7611	0.5071	0.1214	-0.119
Mof_O 	O 	0.8338	0.5919	0.118	-0.077
Mof_H 	H 	0.7632	0.6973	0.112	0.073
Mof_O 	O 	0.234	0.3905	0.8687	-0.166
_end
