# CIF file generated by openbabel 3.1.0, see https://openbabel.org
data_I
_chemical_name_common 'image0'
_cell_length_a 10.8336
_cell_length_b 18.2867
_cell_length_c 15.1258
_cell_angle_alpha 90
_cell_angle_beta 111.208
_cell_angle_gamma 90
_space_group_name_H-M_alt 'P 1'
_space_group_name_Hall 'P 1'
loop_
    _symmetry_equiv_pos_as_xyz
    x,y,z
loop_
    _atom_site_label
    _atom_site_type_symbol
    _atom_site_fract_x
    _atom_site_fract_y
    _atom_site_fract_z
    _atom_site_occupancy
    Mn1      Mn       0.17170    0.01142    0.16771    1.000
    O1       O        0.16510    0.02534    0.02401    1.000
    O2       O        0.48190    0.01778    0.35589    1.000
    O3       O        0.18040    0.00278    0.31144    1.000
    O4       O        0.01080    0.04998    0.88258    1.000
    O5       O        0.35490    0.07248    0.22139    1.000
    O6       O        0.30160    0.95136    0.45013    1.000
    F1       F        0.54350    0.20697    0.09785    1.000
    C1       C        0.20790    0.95146    0.37130    1.000
    N1       N        0.71930    0.40126    0.32496    1.000
    N2       N        0.93840    0.62040    0.34799    1.000
    C2       C        0.10840    0.06669    0.95450    1.000
    N3       N        0.42030    0.38400    0.00865    1.000
    C3       C        0.45000    0.07114    0.29890    1.000
    C4       C        0.57690    0.26917    0.30280    1.000
    C5       C        0.06850    0.75718    0.37820    1.000
    C6       C        0.11870    0.88607    0.34470    1.000
    H1       H        0.04470    0.88740    0.28900    1.000
    C7       C        0.05920    0.62851    0.41310    1.000
    H2       H        0.10000    0.58820    0.44930    1.000
    C8       C        0.94300    0.74654    0.31100    1.000
    C9       C        0.14190    0.82617    0.39810    1.000
    H3       H        0.21360    0.82840    0.45520    1.000
    F2       F        0.87760    0.80109    0.25570    1.000
    C10      C        0.32230    0.24136    0.01310    1.000
    C11      C        0.24000    0.29953    0.96830    1.000
    H4       H        0.14940    0.29190    0.93900    1.000
    C12      C        0.45370    0.25947    0.05430    1.000
    C13      C        0.77690    0.33622    0.33090    1.000
    H5       H        0.86740    0.33510    0.34310    1.000
    C14      C        0.49770    0.20167    0.28510    1.000
    H6       H        0.41180    0.20440    0.24090    1.000
    C15      C        0.71070    0.27035    0.32000    1.000
    H7       H        0.75650    0.22670    0.32430    1.000
    C16      C        0.53690    0.13794    0.32570    1.000
    H8       H        0.62070    0.13400    0.37240    1.000
    C17      C        0.88140    0.67927    0.29690    1.000
    H9       H        0.79750    0.67470    0.25050    1.000
    C18      C        0.12690    0.69457    0.42930    1.000
    C19      C        0.16140    0.14205    0.95360    1.000
    H10      H        0.11220    0.17360    0.90550    1.000
    F3       F        0.38930    0.34100    0.28260    1.000
    C20      C        0.50010    0.32927    0.05350    1.000
    H11      H        0.58970    0.33870    0.08510    1.000
    C21      C        0.27250    0.16692    0.01580    1.000
    H12      H        0.32230    0.13580    0.06420    1.000
    C22      C        0.29220    0.36825    0.96730    1.000
    H13      H        0.23470    0.40560    0.93590    1.000
    C23      C        0.59020    0.40089    0.30920    1.000
    H14      H        0.54650    0.44520    0.30550    1.000
    C24      C        0.51940    0.33694    0.29820    1.000
    F4       F        0.25130    0.69500    0.48270    1.000
    Mn2      Mn       0.82830    0.51142    0.33229    1.000
    O7       O        0.83490    0.52534    0.47599    1.000
    O8       O        0.51810    0.51778    0.14411    1.000
    O9       O        0.81960    0.50278    0.18856    1.000
    O10      O        0.98920    0.54998    0.61742    1.000
    O11      O        0.64510    0.57248    0.27861    1.000
    O12      O        0.69840    0.45136    0.04987    1.000
    F5       F        0.45650    0.70697    0.40215    1.000
    C25      C        0.79210    0.45146    0.12870    1.000
    N4       N        0.28070    0.90126    0.17504    1.000
    N5       N        0.06160    0.12040    0.15201    1.000
    C26      C        0.89160    0.56669    0.54550    1.000
    N6       N        0.57970    0.88400    0.49135    1.000
    C27      C        0.55000    0.57114    0.20110    1.000
    C28      C        0.42310    0.76917    0.19720    1.000
    C29      C        0.93150    0.25718    0.12180    1.000
    C30      C        0.88130    0.38607    0.15530    1.000
    H15      H        0.95530    0.38740    0.21100    1.000
    C31      C        0.94080    0.12851    0.08690    1.000
    H16      H        0.90000    0.08820    0.05070    1.000
    C32      C        0.05700    0.24654    0.18900    1.000
    C33      C        0.85810    0.32617    0.10190    1.000
    H17      H        0.78640    0.32840    0.04480    1.000
    F6       F        0.12240    0.30109    0.24430    1.000
    C34      C        0.67770    0.74136    0.48690    1.000
    C35      C        0.76000    0.79953    0.53170    1.000
    H18      H        0.85060    0.79190    0.56100    1.000
    C36      C        0.54630    0.75947    0.44570    1.000
    C37      C        0.22310    0.83622    0.16910    1.000
    H19      H        0.13260    0.83510    0.15690    1.000
    C38      C        0.50230    0.70167    0.21490    1.000
    H20      H        0.58820    0.70440    0.25910    1.000
    C39      C        0.28930    0.77035    0.18000    1.000
    H21      H        0.24350    0.72670    0.17570    1.000
    C40      C        0.46310    0.63794    0.17430    1.000
    H22      H        0.37930    0.63400    0.12760    1.000
    C41      C        0.11860    0.17927    0.20310    1.000
    H23      H        0.20250    0.17470    0.24950    1.000
    C42      C        0.87310    0.19457    0.07070    1.000
    C43      C        0.83860    0.64205    0.54640    1.000
    H24      H        0.88780    0.67360    0.59450    1.000
    F7       F        0.61070    0.84100    0.21740    1.000
    C44      C        0.49990    0.82927    0.44650    1.000
    H25      H        0.41030    0.83870    0.41490    1.000
    C45      C        0.72750    0.66692    0.48420    1.000
    H26      H        0.67770    0.63580    0.43580    1.000
    C46      C        0.70780    0.86825    0.53270    1.000
    H27      H        0.76530    0.90560    0.56410    1.000
    C47      C        0.40980    0.90089    0.19080    1.000
    H28      H        0.45350    0.94520    0.19450    1.000
    C48      C        0.48060    0.83694    0.20180    1.000
    F8       F        0.74870    0.19500    0.01730    1.000
    Mn3      Mn       0.82830    0.98858    0.83229    1.000
    O13      O        0.83490    0.97466    0.97599    1.000
    O14      O        0.51810    0.98222    0.64411    1.000
    O15      O        0.81960    0.99722    0.68856    1.000
    O16      O        0.98920    0.95002    0.11742    1.000
    O17      O        0.64510    0.92752    0.77861    1.000
    O18      O        0.69840    0.04864    0.54987    1.000
    F9       F        0.45650    0.79303    0.90215    1.000
    C49      C        0.79210    0.04854    0.62870    1.000
    N7       N        0.28070    0.59874    0.67504    1.000
    N8       N        0.06160    0.37960    0.65201    1.000
    C50      C        0.89160    0.93331    0.04550    1.000
    N9       N        0.57970    0.61600    0.99135    1.000
    C51      C        0.55000    0.92886    0.70110    1.000
    C52      C        0.42310    0.73083    0.69720    1.000
    C53      C        0.93150    0.24282    0.62180    1.000
    C54      C        0.88130    0.11393    0.65530    1.000
    H29      H        0.95530    0.11260    0.71100    1.000
    C55      C        0.94080    0.37149    0.58690    1.000
    H30      H        0.90000    0.41180    0.55070    1.000
    C56      C        0.05700    0.25346    0.68900    1.000
    C57      C        0.85810    0.17383    0.60190    1.000
    H31      H        0.78640    0.17160    0.54480    1.000
    F10      F        0.12240    0.19891    0.74430    1.000
    C58      C        0.67770    0.75864    0.98690    1.000
    C59      C        0.76000    0.70047    0.03170    1.000
    H32      H        0.85060    0.70810    0.06100    1.000
    C60      C        0.54630    0.74053    0.94570    1.000
    C61      C        0.22310    0.66378    0.66910    1.000
    H33      H        0.13260    0.66490    0.65690    1.000
    C62      C        0.50230    0.79833    0.71490    1.000
    H34      H        0.58820    0.79560    0.75910    1.000
    C63      C        0.28930    0.72965    0.68000    1.000
    H35      H        0.24350    0.77330    0.67570    1.000
    C64      C        0.46310    0.86206    0.67430    1.000
    H36      H        0.37930    0.86600    0.62760    1.000
    C65      C        0.11860    0.32073    0.70310    1.000
    H37      H        0.20250    0.32530    0.74950    1.000
    C66      C        0.87310    0.30543    0.57070    1.000
    C67      C        0.83860    0.85795    0.04640    1.000
    H38      H        0.88780    0.82640    0.09450    1.000
    F11      F        0.61070    0.65900    0.71740    1.000
    C68      C        0.49990    0.67073    0.94650    1.000
    H39      H        0.41030    0.66130    0.91490    1.000
    C69      C        0.72750    0.83308    0.98420    1.000
    H40      H        0.67770    0.86420    0.93580    1.000
    C70      C        0.70780    0.63175    0.03270    1.000
    H41      H        0.76530    0.59440    0.06410    1.000
    C71      C        0.40980    0.59911    0.69080    1.000
    H42      H        0.45350    0.55480    0.69450    1.000
    C72      C        0.48060    0.66306    0.70180    1.000
    F12      F        0.74870    0.30500    0.51730    1.000
    Mn4      Mn       0.17170    0.48858    0.66771    1.000
    O19      O        0.16510    0.47466    0.52401    1.000
    O20      O        0.48190    0.48222    0.85589    1.000
    O21      O        0.18040    0.49722    0.81144    1.000
    O22      O        0.01080    0.45002    0.38258    1.000
    O23      O        0.35490    0.42752    0.72139    1.000
    O24      O        0.30160    0.54864    0.95013    1.000
    F13      F        0.54350    0.29303    0.59785    1.000
    C73      C        0.20790    0.54854    0.87130    1.000
    N10      N        0.71930    0.09874    0.82496    1.000
    N11      N        0.93840    0.87960    0.84799    1.000
    C74      C        0.10840    0.43331    0.45450    1.000
    N12      N        0.42030    0.11600    0.50865    1.000
    C75      C        0.45000    0.42886    0.79890    1.000
    C76      C        0.57690    0.23083    0.80280    1.000
    C77      C        0.06850    0.74282    0.87820    1.000
    C78      C        0.11870    0.61393    0.84470    1.000
    H43      H        0.04470    0.61260    0.78900    1.000
    C79      C        0.05920    0.87149    0.91310    1.000
    H44      H        0.10000    0.91180    0.94930    1.000
    C80      C        0.94300    0.75346    0.81100    1.000
    C81      C        0.14190    0.67383    0.89810    1.000
    H45      H        0.21360    0.67160    0.95520    1.000
    F14      F        0.87760    0.69891    0.75570    1.000
    C82      C        0.32230    0.25864    0.51310    1.000
    C83      C        0.24000    0.20047    0.46830    1.000
    H46      H        0.14940    0.20810    0.43900    1.000
    C84      C        0.45370    0.24053    0.55430    1.000
    C85      C        0.77690    0.16378    0.83090    1.000
    H47      H        0.86740    0.16490    0.84310    1.000
    C86      C        0.49770    0.29833    0.78510    1.000
    H48      H        0.41180    0.29560    0.74090    1.000
    C87      C        0.71070    0.22965    0.82000    1.000
    H49      H        0.75650    0.27330    0.82430    1.000
    C88      C        0.53690    0.36206    0.82570    1.000
    H50      H        0.62070    0.36600    0.87240    1.000
    C89      C        0.88140    0.82073    0.79690    1.000
    H51      H        0.79750    0.82530    0.75050    1.000
    C90      C        0.12690    0.80543    0.92930    1.000
    C91      C        0.16140    0.35795    0.45360    1.000
    H52      H        0.11220    0.32640    0.40550    1.000
    F15      F        0.38930    0.15900    0.78260    1.000
    C92      C        0.50010    0.17073    0.55350    1.000
    H53      H        0.58970    0.16130    0.58510    1.000
    C93      C        0.27250    0.33308    0.51580    1.000
    H54      H        0.32230    0.36420    0.56420    1.000
    C94      C        0.29220    0.13175    0.46730    1.000
    H55      H        0.23470    0.09440    0.43590    1.000
    C95      C        0.59020    0.09911    0.80920    1.000
    H56      H        0.54650    0.05480    0.80550    1.000
    C96      C        0.51940    0.16306    0.79820    1.000
    F16      F        0.25130    0.80500    0.98270    1.000
    Mn5      Mn       0.50000    0.50000    0.00000    1.000
    Mn6      Mn       0.50000    0.00000    0.50000    1.000
