data_functionalizedCrystal
_audit_creation_method	'EQeq! by Chris Wilmer'
_symmetry_space_group_name_H-M	'P1'
_symmetry_Int_Tables_number	1
_symmetry_cell_setting	triclinic
loop_
_symmetry_equiv_pos_as_xyz
  x,y,z
_cell_length_a	13.4208
_cell_length_b	13.4208
_cell_length_c	22.8027
_cell_angle_alpha	101.939
_cell_angle_beta	101.939
_cell_angle_gamma	107.281
loop_
_atom_site_label
_atom_site_type_symbol
_atom_site_fract_x
_atom_site_fract_y
_atom_site_fract_z
_atom_site_charge
Mof_Cu	Cu	0.53225	0.30395	0.90356	0.922
Mof_Cu	Cu	0.37131	0.09961	0.90356	0.922
Mof_Cu	Cu	0.62869	0.90039	0.09644	0.922
Mof_Cu	Cu	0.90039	0.62869	0.59644	0.922
Mof_Cu	Cu	0.46775	0.69605	0.09644	0.922
Mof_Cu	Cu	0.625	0.375	0.25	0.824
Mof_Cu	Cu	0.375	0.625	0.75	0.824
Mof_Cu	Cu	0.69605	0.46775	0.59644	0.922
Mof_Cu	Cu	0.09961	0.37131	0.40356	0.922
Mof_Cu	Cu	0.30395	0.53225	0.40356	0.922
Mof_H 	H 	0.192	0.4068	0.9164	-0.04
Mof_H 	H 	0.1397	0.0521	0.837	0.001
Mof_H 	H 	0.4378	0.1476	0.6888	-0.001
Mof_H 	H 	0.4354	0.07	0.338	0.12
Mof_H 	H 	0.0687	0.6343	0.5532	0.037
Mof_H 	H 	0.0974	0.232	0.662	0.119
Mof_H 	H 	0.6217	0.4957	0.062	0.174
Mof_H 	H 	0.234	0.1894	0.2578	0.097
Mof_H 	H 	0.5043	0.3783	0.438	0.174
Mof_H 	H 	0.975	0.9152	0.796	0.089
Mof_H 	H 	0.0238	0.5684	0.2578	0.096
Mof_H 	H 	0.93	0.5646	0.162	0.12
Mof_H 	H 	0.0521	0.1397	0.337	0.002
Mof_H 	H 	0.0663	0.4403	0.562	0.172
Mof_H 	H 	0.7688	0.2592	0.0474	0.108
Mof_H 	H 	0.1026	0.724	0.8722	0.092
Mof_H 	H 	0.276	0.8974	0.6278	0.091
Mof_H 	H 	0.2167	0.5467	0.6216	-0.061
Mof_H 	H 	0.1476	0.4378	0.1888	-0.001
Mof_H 	H 	0.7408	0.2312	0.4526	0.108
Mof_H 	H 	0.5951	0.4251	0.3784	-0.062
Mof_H 	H 	0.4533	0.7833	0.8784	-0.062
Mof_H 	H 	0.5467	0.2167	0.1216	-0.062
Mof_H 	H 	0.232	0.0974	0.162	0.12
Mof_H 	H 	0.4403	0.0663	0.062	0.174
Mof_H 	H 	0.7696	0.6482	0.8722	0.091
Mof_H 	H 	0.8603	0.9479	0.163	0.001
Mof_H 	H 	0.808	0.5932	0.0836	-0.04
Mof_H 	H 	0.5749	0.4049	0.1216	-0.062
Mof_H 	H 	0.9479	0.8603	0.663	0.002
Mof_H 	H 	0.821	0.3808	0.796	0.09
Mof_H 	H 	0.6973	0.2849	0.837	0.004
Mof_H 	H 	0.07	0.4354	0.838	0.12
Mof_H 	H 	0.9152	0.975	0.296	0.089
Mof_H 	H 	0.9904	0.2756	0.5836	-0.037
Mof_H 	H 	0.3783	0.5043	0.938	0.174
Mof_H 	H 	0.4049	0.5749	0.6216	-0.062
Mof_H 	H 	0.724	0.1026	0.3722	0.091
Mof_H 	H 	0.4251	0.5951	0.8784	-0.062
Mof_H 	H 	0.8555	0.3861	0.2538	0.043
Mof_H 	H 	0.6017	0.6323	0.7462	0.043
Mof_H 	H 	0.0412	0.251	0.1888	-0.003
Mof_H 	H 	0.5811	0.5155	0.9468	0.037
Mof_H 	H 	0.0848	0.025	0.704	0.089
Mof_H 	H 	0.2882	0.2786	0.5474	0.108
Mof_H 	H 	0.5155	0.5811	0.4468	0.037
Mof_H 	H 	0.6323	0.6017	0.2462	0.043
Mof_H 	H 	0.6192	0.179	0.704	0.09
Mof_H 	H 	0.8106	0.766	0.2422	0.097
Mof_H 	H 	0.9762	0.4316	0.7422	0.096
Mof_H 	H 	0.9313	0.3657	0.4468	0.037
Mof_H 	H 	0.6343	0.0687	0.0532	0.037
Mof_H 	H 	0.2786	0.2882	0.0474	0.108
Mof_H 	H 	0.768	0.9026	0.838	0.12
Mof_H 	H 	0.251	0.0412	0.6888	-0.003
Mof_H 	H 	0.2312	0.7408	0.9526	0.108
Mof_H 	H 	0.8524	0.5622	0.8112	-0.001
Mof_H 	H 	0.6482	0.7696	0.3722	0.091
Mof_H 	H 	0.2756	0.9904	0.0836	-0.039
Mof_H 	H 	0.3677	0.3983	0.7538	0.043
Mof_H 	H 	0.4957	0.6217	0.562	0.174
Mof_H 	H 	0.3657	0.9313	0.9468	0.037
Mof_H 	H 	0.025	0.0848	0.204	0.089
Mof_H 	H 	0.3983	0.3677	0.2538	0.043
Mof_H 	H 	0.7151	0.3027	0.663	0.004
Mof_H 	H 	0.7833	0.4533	0.3784	-0.061
Mof_H 	H 	0.749	0.9588	0.3112	-0.003
Mof_H 	H 	0.5597	0.9337	0.938	0.174
Mof_H 	H 	0.8974	0.276	0.1278	0.092
Mof_H 	H 	0.7214	0.7118	0.9526	0.108
Mof_H 	H 	0.7244	0.0096	0.9164	-0.039
Mof_H 	H 	0.9337	0.5597	0.438	0.172
Mof_H 	H 	0.4189	0.4845	0.0532	0.037
Mof_H 	H 	0.179	0.6192	0.204	0.09
Mof_H 	H 	0.9588	0.749	0.8112	-0.003
Mof_H 	H 	0.6139	0.1445	0.2462	0.043
Mof_H 	H 	0.3518	0.2304	0.6278	0.091
Mof_H 	H 	0.1894	0.234	0.7578	0.097
Mof_H 	H 	0.5646	0.93	0.662	0.12
Mof_H 	H 	0.3027	0.7151	0.163	0.004
Mof_H 	H 	0.4316	0.9762	0.2422	0.096
Mof_H 	H 	0.3861	0.8555	0.7538	0.043
Mof_H 	H 	0.7118	0.7214	0.4526	0.108
Mof_H 	H 	0.766	0.8106	0.7422	0.097
Mof_H 	H 	0.2592	0.7688	0.5474	0.108
Mof_H 	H 	0.5932	0.808	0.5836	-0.04
Mof_H 	H 	0.3808	0.821	0.296	0.09
Mof_H 	H 	0.9026	0.768	0.338	0.119
Mof_H 	H 	0.1445	0.6139	0.7462	0.043
Mof_H 	H 	0.5622	0.8524	0.3112	-0.001
Mof_H 	H 	0.2304	0.3518	0.1278	0.091
Mof_H 	H 	0.2849	0.6973	0.337	0.004
Mof_H 	H 	0.4068	0.192	0.4164	-0.04
Mof_H 	H 	0.4845	0.4189	0.5532	0.037
Mof_H 	H 	0.5684	0.0238	0.7578	0.096
Mof_H 	H 	0.0096	0.7244	0.4164	-0.037
Mof_C 	C 	0.68739	0.51439	0.89418	0.105
Mof_C 	C 	0.87979	0.20679	0.39418	0.106
Mof_C 	C 	0.2871	0.6405	0.155	0.106
Mof_C 	C 	0.9754	0.193	0.1704	0.107
Mof_C 	C 	0.4796	0.1904	0.1292	0.248
Mof_C 	C 	0.56229	0.63829	0.43758	-0.026
Mof_C 	C 	0.8906	0.2082	0.134	-0.172
Mof_C 	C 	0.7053	0.6465	0.2596	-0.061
Mof_C 	C 	0.5204	0.8096	0.8708	0.248
Mof_C 	C 	0.195	0.4774	0.1704	0.103
Mof_C 	C 	0.2201	0.3711	0.6876	0.157
Mof_C 	C 	0.28218	0.37618	0.48616	0.371
Mof_C 	C 	0.36171	0.43771	0.06242	-0.026
Mof_C 	C 	0.6289	0.7799	0.8124	0.158
Mof_C 	C 	0.2627	0.2771	0.7694	-0.175
Mof_C 	C 	0.8165	0.4675	0.1876	0.159
Mof_C 	C 	0.5226	0.805	0.3296	0.103
Mof_C 	C 	0.79321	0.12021	0.10582	0.107
Mof_C 	C 	0.5543	0.1131	0.2596	-0.062
Mof_C 	C 	0.1131	0.5543	0.7596	-0.062
Mof_C 	C 	0.7013	0.8769	0.846	-0.262
Mof_C 	C 	0.6762	0.94	0.8934	0.216
Mof_C 	C 	0.9855	0.1321	0.345	0.109
Mof_C 	C 	0.70071	0.12471	0.06242	-0.027
Mof_C 	C 	0.7229	0.7373	0.7306	-0.175
Mof_C 	C 	0.60998	0.20398	0.98616	0.37
Mof_C 	C 	0.7033	0.2007	0.0354	-0.181
Mof_C 	C 	0.5612	0.3504	0.3708	0.249
Mof_C 	C 	0.12021	0.79321	0.60582	0.106
Mof_C 	C 	0.8869	0.4457	0.2404	-0.062
Mof_C 	C 	0.9923	0.5067	0.2694	-0.174
Mof_C 	C 	0.37618	0.28218	0.98616	0.371
Mof_C 	C 	0.1904	0.4796	0.6292	0.246
Mof_C 	C 	0.5846	0.2144	0.6804	-0.174
Mof_C 	C 	0.5789	0.8973	0.9054	-0.347
Mof_C 	C 	0.1027	0.4211	0.5946	-0.343
Mof_C 	C 	0.5466	0.7828	0.6066	0.217
Mof_C 	C 	0.5081	0.3265	0.4054	-0.348
Mof_C 	C 	0.0077	0.4933	0.7306	-0.174
Mof_C 	C 	0.5325	0.1835	0.3124	0.159
Mof_C 	C 	0.034	0.9042	0.8196	-0.174
Mof_C 	C 	0.1447	0.4691	0.846	-0.263
Mof_C 	C 	0.6496	0.4388	0.1292	0.249
Mof_C 	C 	0.0246	0.807	0.8296	0.107
Mof_C 	C 	0.8096	0.5204	0.3708	0.246
Mof_C 	C 	0.4388	0.6496	0.6292	0.249
Mof_C 	C 	0.2144	0.5846	0.1804	-0.174
Mof_C 	C 	0.7918	0.1094	0.366	-0.171
Mof_C 	C 	0.807	0.0246	0.3296	0.106
Mof_C 	C 	0.65924	0.74084	0.17988	0.39
Mof_C 	C 	0.6679	0.6653	0.9646	-0.182
Mof_C 	C 	0.7799	0.6289	0.3124	0.157
Mof_C 	C 	0.966	0.0958	0.1804	-0.174
Mof_C 	C 	0.2967	0.7993	0.9646	-0.181
Mof_C 	C 	0.48561	0.31261	0.60582	0.105
Mof_C 	C 	0.8769	0.7013	0.346	-0.26
Mof_C 	C 	0.94	0.6762	0.3934	0.212
Mof_C 	C 	0.06096	0.47936	0.32012	0.39
Mof_C 	C 	0.20679	0.87979	0.89418	0.107
Mof_C 	C 	0.8553	0.5309	0.154	-0.263
Mof_C 	C 	0.7373	0.7229	0.2306	-0.175
Mof_C 	C 	0.7129	0.3595	0.845	0.106
Mof_C 	C 	0.93904	0.52064	0.67988	0.39
Mof_C 	C 	0.4258	0.2434	0.634	-0.169
Mof_C 	C 	0.1231	0.2987	0.654	-0.26
Mof_C 	C 	0.62382	0.71782	0.01384	0.371
Mof_C 	C 	0.52064	0.93904	0.17988	0.39
Mof_C 	C 	0.4691	0.1447	0.346	-0.263
Mof_C 	C 	0.2172	0.4534	0.8934	0.217
Mof_C 	C 	0.4774	0.195	0.6704	0.103
Mof_C 	C 	0.31261	0.48561	0.10582	0.105
Mof_C 	C 	0.4675	0.8165	0.6876	0.159
Mof_C 	C 	0.4933	0.0077	0.2306	-0.174
Mof_C 	C 	0.4919	0.6735	0.5946	-0.348
Mof_C 	C 	0.63829	0.56229	0.93758	-0.026
Mof_C 	C 	0.5742	0.7566	0.366	-0.169
Mof_C 	C 	0.1835	0.5325	0.8124	0.159
Mof_C 	C 	0.0145	0.8679	0.655	0.109
Mof_C 	C 	0.6735	0.4919	0.0946	-0.348
Mof_C 	C 	0.87529	0.29929	0.43758	-0.026
Mof_C 	C 	0.3504	0.5612	0.8708	0.249
Mof_C 	C 	0.12471	0.70071	0.56242	-0.026
Mof_C 	C 	0.51439	0.68739	0.39418	0.105
Mof_C 	C 	0.74084	0.65924	0.67988	0.39
Mof_C 	C 	0.4211	0.1027	0.0946	-0.347
Mof_C 	C 	0.0958	0.966	0.6804	-0.173
Mof_C 	C 	0.2987	0.1231	0.154	-0.262
Mof_C 	C 	0.7993	0.2967	0.4646	-0.182
Mof_C 	C 	0.43771	0.36171	0.56242	-0.026
Mof_C 	C 	0.2082	0.8906	0.634	-0.171
Mof_C 	C 	0.5067	0.9923	0.7694	-0.174
Mof_C 	C 	0.7856	0.4154	0.8196	-0.174
Mof_C 	C 	0.4457	0.8869	0.7404	-0.062
Mof_C 	C 	0.9042	0.034	0.3196	-0.173
Mof_C 	C 	0.34076	0.25916	0.82012	0.39
Mof_C 	C 	0.3347	0.3321	0.5354	-0.182
Mof_C 	C 	0.3535	0.2947	0.2404	-0.061
Mof_C 	C 	0.7828	0.5466	0.1066	0.217
Mof_C 	C 	0.3238	0.06	0.1066	0.216
Mof_C 	C 	0.6405	0.2871	0.655	0.106
Mof_C 	C 	0.39002	0.79602	0.01384	0.37
Mof_C 	C 	0.5309	0.8553	0.654	-0.263
Mof_C 	C 	0.6465	0.7053	0.7596	-0.061
Mof_C 	C 	0.3711	0.2201	0.1876	0.158
Mof_C 	C 	0.805	0.5226	0.8296	0.103
Mof_C 	C 	0.2007	0.7033	0.5354	-0.182
Mof_C 	C 	0.20398	0.60998	0.48616	0.371
Mof_C 	C 	0.6653	0.6679	0.4646	-0.182
Mof_C 	C 	0.3595	0.7129	0.345	0.106
Mof_C 	C 	0.4154	0.7856	0.3196	-0.174
Mof_C 	C 	0.4534	0.2172	0.3934	0.217
Mof_C 	C 	0.29929	0.87529	0.93758	-0.027
Mof_C 	C 	0.7566	0.5742	0.866	-0.17
Mof_C 	C 	0.8973	0.5789	0.4054	-0.343
Mof_C 	C 	0.2771	0.2627	0.2694	-0.175
Mof_C 	C 	0.79602	0.39002	0.51384	0.371
Mof_C 	C 	0.1094	0.7918	0.866	-0.172
Mof_C 	C 	0.2947	0.3535	0.7404	-0.061
Mof_C 	C 	0.25916	0.34076	0.32012	0.39
Mof_C 	C 	0.06	0.3238	0.6066	0.212
Mof_C 	C 	0.3265	0.5081	0.9054	-0.348
Mof_C 	C 	0.2434	0.4258	0.134	-0.17
Mof_C 	C 	0.1321	0.9855	0.845	0.111
Mof_C 	C 	0.47936	0.06096	0.82012	0.39
Mof_C 	C 	0.3321	0.3347	0.0354	-0.182
Mof_C 	C 	0.8679	0.0145	0.155	0.111
Mof_C 	C 	0.193	0.9754	0.6704	0.106
Mof_C 	C 	0.71782	0.62382	0.51384	0.371
Mof_N 	N 	0.2884	0.5808	0.8228	-0.262
Mof_N 	N 	0.59495	0.33775	0.6193	-0.205
Mof_N 	N 	0.02435	0.78155	0.6193	-0.205
Mof_N 	N 	0.40505	0.66225	0.3807	-0.205
Mof_N 	N 	0.258	0.4656	0.6772	-0.261
Mof_N 	N 	0.5344	0.742	0.8228	-0.262
Mof_N 	N 	0.5808	0.2884	0.3228	-0.262
Mof_N 	N 	0.78155	0.02435	0.1193	-0.205
Mof_N 	N 	0.742	0.5344	0.3228	-0.261
Mof_N 	N 	0.33775	0.59495	0.1193	-0.205
Mof_N 	N 	0.4192	0.7116	0.6772	-0.262
Mof_N 	N 	0.21845	0.97565	0.8807	-0.205
Mof_N 	N 	0.7116	0.4192	0.1772	-0.262
Mof_N 	N 	0.66225	0.40505	0.8807	-0.205
Mof_N 	N 	0.4656	0.258	0.1772	-0.262
Mof_N 	N 	0.97565	0.21845	0.3807	-0.205
Mof_O 	O 	0.40702	0.01002	0.84184	-0.417
Mof_O 	O 	0.33182	0.43482	0.34184	-0.417
Mof_O 	O 	0.33187	0.18087	0.96634	-0.417
Mof_O 	O 	0.43482	0.33182	0.84184	-0.417
Mof_O 	O 	0.71453	0.36553	0.53366	-0.417
Mof_O 	O 	0.65613	0.54633	0.52966	-0.39
Mof_O 	O 	0.18087	0.33187	0.46634	-0.417
Mof_O 	O 	0.56518	0.66818	0.15816	-0.417
Mof_O 	O 	0.51667	0.12647	0.97034	-0.39
Mof_O 	O 	0.66818	0.56518	0.65816	-0.417
Mof_O 	O 	0.17661	0.30541	0.33582	-0.4
Mof_O 	O 	0.15921	0.53041	0.33582	-0.4
Mof_O 	O 	0.46959	0.84079	0.16418	-0.4
Mof_O 	O 	0.53041	0.15921	0.83582	-0.4
Mof_O 	O 	0.59298	0.98998	0.15816	-0.417
Mof_O 	O 	0.01002	0.40702	0.34184	-0.417
Mof_O 	O 	0.36553	0.71453	0.03366	-0.417
Mof_O 	O 	0.81913	0.66813	0.53366	-0.417
Mof_O 	O 	0.48333	0.87353	0.02966	-0.39
Mof_O 	O 	0.54633	0.65613	0.02966	-0.39
Mof_O 	O 	0.34387	0.45367	0.47034	-0.39
Mof_O 	O 	0.30541	0.17661	0.83582	-0.4
Mof_O 	O 	0.87353	0.48333	0.52966	-0.39
Mof_O 	O 	0.63447	0.28547	0.96634	-0.417
Mof_O 	O 	0.45367	0.34387	0.97034	-0.39
Mof_O 	O 	0.28547	0.63447	0.46634	-0.417
Mof_O 	O 	0.66813	0.81913	0.03366	-0.417
Mof_O 	O 	0.84079	0.46959	0.66418	-0.4
Mof_O 	O 	0.69459	0.82339	0.16418	-0.4
Mof_O 	O 	0.98998	0.59298	0.65816	-0.417
Mof_O 	O 	0.12647	0.51667	0.47034	-0.39
Mof_O 	O 	0.82339	0.69459	0.66418	-0.4
_end
