# CIF file generated by openbabel 3.1.0, see https://openbabel.org
data_I
_chemical_name_common 'image0'
_cell_length_a 11.0607
_cell_length_b 12.8079
_cell_length_c 12.936
_cell_angle_alpha 107.502
_cell_angle_beta 105.81
_cell_angle_gamma 106.097
_space_group_name_H-M_alt 'P 1'
_space_group_name_Hall 'P 1'
loop_
    _symmetry_equiv_pos_as_xyz
    x,y,z
loop_
    _atom_site_label
    _atom_site_type_symbol
    _atom_site_fract_x
    _atom_site_fract_y
    _atom_site_fract_z
    _atom_site_occupancy
    B1       B        0.85590    0.01390    0.92970    1.000
    H1       H        0.76080    0.02260    0.88170    1.000
    B2       B        0.02410    0.11990    0.96680    1.000
    H2       H        0.03940    0.19870    0.94340    1.000
    B3       B        0.86780    0.95820    0.03890    1.000
    H3       H        0.78080    0.93060    0.06660    1.000
    B4       B        0.96270    0.11030    0.07920    1.000
    H4       H        0.93880    0.18280    0.13200    1.000
    B5       B        0.86500    0.87340    0.90160    1.000
    H5       H        0.77570    0.79010    0.83520    1.000
    B6       B        0.33330    0.47740    0.95480    1.000
    H6       H        0.22210    0.46090    0.92350    1.000
    B7       B        0.43800    0.53270    0.88460    1.000
    H7       H        0.39590    0.55240    0.80690    1.000
    B8       B        0.43590    0.52960    0.10520    1.000
    H8       H        0.39530    0.55100    0.17590    1.000
    B9       B        0.46250    0.62250    0.02720    1.000
    H9       H        0.43900    0.70420    0.04680    1.000
    B10      B        0.39440    0.38080    0.00910    1.000
    H10      H        0.32420    0.30150    0.01320    1.000
    B11      B        0.06430    0.50560    0.63600    1.000
    H11      H        0.10780    0.50830    0.72620    1.000
    B12      B        0.16880    0.52970    0.55380    1.000
    H12      H        0.28030    0.54790    0.58960    1.000
    B13      B        0.93430    0.55640    0.59710    1.000
    H13      H        0.89130    0.59470    0.66120    1.000
    B14      B        0.10180    0.63600    0.60870    1.000
    H14      H        0.16840    0.72670    0.68010    1.000
    B15      B        0.89740    0.40370    0.53490    1.000
    H15      H        0.83010    0.33890    0.55760    1.000
    C1       C        0.93040    0.95210    0.73700    1.000
    C2       C        0.96670    0.97540    0.86790    1.000
    C3       C        0.30930    0.28560    0.76530    1.000
    C4       C        0.40370    0.39360    0.88290    1.000
    C5       C        0.07710    0.29340    0.51850    1.000
    C6       C        0.04030    0.39330    0.50890    1.000
    Co1      Co       0.02067    0.10043    0.61367    1.000
    Co2      Co       0.73423    0.83185    0.48893    1.000
    O1       O        0.86090    0.96500    0.47050    1.000
    O2       O        0.80540    0.89090    0.66940    1.000
    O3       O        0.02890    0.99870    0.71400    1.000
    O4       O        0.18570    0.24350    0.75050    1.000
    O5       O        0.36490    0.25300    0.69710    1.000
    O6       O        0.98700    0.21190    0.52770    1.000
    O7       O        0.19090    0.29750    0.51450    1.000
    B16      B        0.14410    0.98610    0.07030    1.000
    H16      H        0.23920    0.97740    0.11830    1.000
    B17      B        0.97590    0.88010    0.03320    1.000
    H17      H        0.96060    0.80130    0.05660    1.000
    B18      B        0.13220    0.04180    0.96110    1.000
    H18      H        0.21920    0.06940    0.93340    1.000
    B19      B        0.03730    0.88970    0.92080    1.000
    H19      H        0.06120    0.81720    0.86800    1.000
    B20      B        0.13500    0.12660    0.09840    1.000
    H20      H        0.22430    0.20990    0.16480    1.000
    B21      B        0.66670    0.52260    0.04520    1.000
    H21      H        0.77790    0.53910    0.07650    1.000
    B22      B        0.56200    0.46730    0.11540    1.000
    H22      H        0.60410    0.44760    0.19310    1.000
    B23      B        0.56410    0.47040    0.89480    1.000
    H23      H        0.60470    0.44900    0.82410    1.000
    B24      B        0.53750    0.37750    0.97280    1.000
    H24      H        0.56100    0.29580    0.95320    1.000
    B25      B        0.60560    0.61920    0.99090    1.000
    H25      H        0.67580    0.69850    0.98680    1.000
    B26      B        0.93570    0.49440    0.36400    1.000
    H26      H        0.89220    0.49170    0.27380    1.000
    B27      B        0.83120    0.47030    0.44620    1.000
    H27      H        0.71970    0.45210    0.41040    1.000
    B28      B        0.06570    0.44360    0.40290    1.000
    H28      H        0.10870    0.40530    0.33880    1.000
    B29      B        0.89820    0.36400    0.39130    1.000
    H29      H        0.83160    0.27330    0.31990    1.000
    B30      B        0.10260    0.59630    0.46510    1.000
    H30      H        0.16990    0.66110    0.44240    1.000
    C7       C        0.06960    0.04790    0.26300    1.000
    C8       C        0.03330    0.02460    0.13210    1.000
    C9       C        0.69070    0.71440    0.23470    1.000
    C10      C        0.59630    0.60640    0.11710    1.000
    C11      C        0.92290    0.70660    0.48150    1.000
    C12      C        0.95970    0.60670    0.49110    1.000
    Co3      Co       0.97933    0.89957    0.38633    1.000
    Co4      Co       0.26577    0.16815    0.51107    1.000
    O8       O        0.13910    0.03500    0.52950    1.000
    O9       O        0.19460    0.10910    0.33060    1.000
    O10      O        0.97110    0.00130    0.28600    1.000
    O11      O        0.81430    0.75650    0.24950    1.000
    O12      O        0.63510    0.74700    0.30290    1.000
    O13      O        0.01300    0.78810    0.47230    1.000
    O14      O        0.80910    0.70250    0.48550    1.000
