# CIF file generated by openbabel 3.1.0, see https://openbabel.org
data_I
_chemical_name_common 'image0'
_cell_length_a 18.478
_cell_length_b 12.181
_cell_length_c 23.055
_cell_angle_alpha 90
_cell_angle_beta 90
_cell_angle_gamma 90
_space_group_name_H-M_alt 'P 1'
_space_group_name_Hall 'P 1'
loop_
    _symmetry_equiv_pos_as_xyz
    x,y,z
loop_
    _atom_site_label
    _atom_site_type_symbol
    _atom_site_fract_x
    _atom_site_fract_y
    _atom_site_fract_z
    _atom_site_occupancy
    Zn1      Zn       0.29917    0.23754    0.18567    1.000
    Zn2      Zn       0.20014    0.23794    0.29952    1.000
    Zn3      Zn       0.17020    0.06638    0.20422    1.000
    Zn4      Zn       0.31982    0.06147    0.28798    1.000
    C1       C        0.11400    0.46270    0.17500    1.000
    C2       C        0.04610    0.48980    0.19855    1.000
    H1       H        0.03060    0.45660    0.23270    1.000
    C3       C        0.00230    0.56580    0.17096    1.000
    C4       C        0.02510    0.61590    0.12020    1.000
    H2       H        0.99550    0.66700    0.10200    1.000
    C5       C        0.09210    0.59010    0.09624    1.000
    C6       C        0.13480    0.51260    0.12340    1.000
    H3       H        0.17880    0.49310    0.10660    1.000
    C7       C        0.16110    0.38050    0.20324    1.000
    C8       C        0.93100    0.59480    0.19860    1.000
    C9       C        0.11710    0.64850    0.04146    1.000
    C10      C        0.06880    0.69230    0.00290    1.000
    H4       H        0.01950    0.68330    0.00950    1.000
    C11      C        0.09130    0.74970    0.95420    1.000
    H5       H        0.05740    0.78130    0.92950    1.000
    C12      C        0.16440    0.75980    0.94257    1.000
    C13      C        0.21340    0.71010    0.98030    1.000
    H6       H        0.26270    0.71450    0.97260    1.000
    C14      C        0.19000    0.65470    0.02880    1.000
    H7       H        0.22350    0.62130    0.05310    1.000
    C15      C        0.19060    0.81810    0.88895    1.000
    C16      C        0.49700    0.03600    0.17268    1.000
    C17      C        0.54270    0.96480    0.20083    1.000
    H8       H        0.52770    0.92990    0.23460    1.000
    C18      C        0.61230    0.94480    0.17860    1.000
    C19      C        0.63380    0.99820    0.12730    1.000
    H9       H        0.67990    0.98580    0.11240    1.000
    C20      C        0.58710    0.06920    0.09870    1.000
    C21      C        0.51900    0.08990    0.12240    1.000
    H10      H        0.48810    0.13990    0.10460    1.000
    C22      C        0.42330    0.06500    0.19760    1.000
    C23      C        0.66310    0.86870    0.20925    1.000
    C24      C        0.61040    0.12890    0.04575    1.000
    C25      C        0.56000    0.16030    0.00250    1.000
    H11      H        0.51160    0.14020    0.00610    1.000
    C26      C        0.58290    0.22260    0.95360    1.000
    H12      H        0.54930    0.24580    0.92620    1.000
    C27      C        0.65520    0.24830    0.94690    1.000
    C28      C        0.70310    0.20940    0.98600    1.000
    H13      H        0.75200    0.22410    0.98040    1.000
    C29      C        0.68290    0.14860    0.03430    1.000
    H14      H        0.71810    0.12090    0.05900    1.000
    C30      C        0.67900    0.31630    0.89522    1.000
    O1       O        0.24784    0.13840    0.24341    1.000
    O2       O        0.22282    0.36250    0.18058    1.000
    O3       O        0.13799    0.33590    0.25027    1.000
    O4       O        0.91518    0.54930    0.24576    1.000
    O5       O        0.89219    0.66460    0.17144    1.000
    O6       O        0.14176    0.86000    0.85658    1.000
    O7       O        0.25690    0.82440    0.87931    1.000
    O8       O        0.38427    0.12680    0.16945    1.000
    O9       O        0.40803    0.01870    0.24540    1.000
    O10      O        0.72610    0.86100    0.18730    1.000
    O11      O        0.63902    0.81760    0.25237    1.000
    O12      O        0.62874    0.34740    0.86153    1.000
    O13      O        0.74353    0.33470    0.88764    1.000
    Zn5      Zn       0.20083    0.76246    0.68567    1.000
    Zn6      Zn       0.29986    0.76206    0.79952    1.000
    Zn7      Zn       0.32980    0.93362    0.70422    1.000
    Zn8      Zn       0.18018    0.93853    0.78798    1.000
    C31      C        0.38600    0.53730    0.67500    1.000
    C32      C        0.45390    0.51020    0.69855    1.000
    H15      H        0.46940    0.54340    0.73270    1.000
    C33      C        0.49770    0.43420    0.67096    1.000
    C34      C        0.47490    0.38410    0.62020    1.000
    H16      H        0.50450    0.33300    0.60200    1.000
    C35      C        0.40790    0.40990    0.59624    1.000
    C36      C        0.36520    0.48740    0.62340    1.000
    H17      H        0.32120    0.50690    0.60660    1.000
    C37      C        0.33890    0.61950    0.70324    1.000
    C38      C        0.56900    0.40520    0.69860    1.000
    C39      C        0.38290    0.35150    0.54146    1.000
    C40      C        0.43120    0.30770    0.50290    1.000
    H18      H        0.48050    0.31670    0.50950    1.000
    C41      C        0.40870    0.25030    0.45420    1.000
    H19      H        0.44260    0.21870    0.42950    1.000
    C42      C        0.33560    0.24020    0.44257    1.000
    C43      C        0.28660    0.28990    0.48030    1.000
    H20      H        0.23730    0.28550    0.47260    1.000
    C44      C        0.31000    0.34530    0.52880    1.000
    H21      H        0.27650    0.37870    0.55310    1.000
    C45      C        0.30940    0.18190    0.38895    1.000
    C46      C        0.00300    0.96400    0.67268    1.000
    C47      C        0.95730    0.03520    0.70083    1.000
    H22      H        0.97230    0.07010    0.73460    1.000
    C48      C        0.88770    0.05520    0.67860    1.000
    C49      C        0.86620    0.00180    0.62730    1.000
    H23      H        0.82010    0.01420    0.61240    1.000
    C50      C        0.91290    0.93080    0.59870    1.000
    C51      C        0.98100    0.91010    0.62240    1.000
    H24      H        0.01190    0.86010    0.60460    1.000
    C52      C        0.07670    0.93500    0.69760    1.000
    C53      C        0.83690    0.13130    0.70925    1.000
    C54      C        0.88960    0.87110    0.54575    1.000
    C55      C        0.94000    0.83970    0.50250    1.000
    H25      H        0.98840    0.85980    0.50610    1.000
    C56      C        0.91710    0.77740    0.45360    1.000
    H26      H        0.95070    0.75420    0.42620    1.000
    C57      C        0.84480    0.75170    0.44690    1.000
    C58      C        0.79690    0.79060    0.48600    1.000
    H27      H        0.74800    0.77590    0.48040    1.000
    C59      C        0.81710    0.85140    0.53430    1.000
    H28      H        0.78190    0.87910    0.55900    1.000
    C60      C        0.82100    0.68370    0.39522    1.000
    O14      O        0.25216    0.86160    0.74341    1.000
    O15      O        0.27718    0.63750    0.68058    1.000
    O16      O        0.36201    0.66410    0.75027    1.000
    O17      O        0.58482    0.45070    0.74576    1.000
    O18      O        0.60781    0.33540    0.67144    1.000
    O19      O        0.35824    0.14000    0.35658    1.000
    O20      O        0.24310    0.17560    0.37931    1.000
    O21      O        0.11573    0.87320    0.66945    1.000
    O22      O        0.09197    0.98130    0.74540    1.000
    O23      O        0.77390    0.13900    0.68730    1.000
    O24      O        0.86098    0.18240    0.75237    1.000
    O25      O        0.87126    0.65260    0.36153    1.000
    O26      O        0.75647    0.66530    0.38764    1.000
    Zn9      Zn       0.70083    0.73754    0.31433    1.000
    Zn10     Zn       0.79986    0.73794    0.20048    1.000
    Zn11     Zn       0.82980    0.56638    0.29578    1.000
    Zn12     Zn       0.68018    0.56147    0.21202    1.000
    C61      C        0.88600    0.96270    0.32500    1.000
    C62      C        0.95390    0.98980    0.30145    1.000
    H29      H        0.96940    0.95660    0.26730    1.000
    C63      C        0.99770    0.06580    0.32904    1.000
    C64      C        0.97490    0.11590    0.37980    1.000
    H30      H        0.00450    0.16700    0.39800    1.000
    C65      C        0.90790    0.09010    0.40376    1.000
    C66      C        0.86520    0.01260    0.37660    1.000
    H31      H        0.82120    0.99310    0.39340    1.000
    C67      C        0.83890    0.88050    0.29676    1.000
    C68      C        0.06900    0.09480    0.30140    1.000
    C69      C        0.88290    0.14850    0.45854    1.000
    C70      C        0.93120    0.19230    0.49710    1.000
    H32      H        0.98050    0.18330    0.49050    1.000
    C71      C        0.90870    0.24970    0.54580    1.000
    H33      H        0.94260    0.28130    0.57050    1.000
    C72      C        0.83560    0.25980    0.55743    1.000
    C73      C        0.78660    0.21010    0.51970    1.000
    H34      H        0.73730    0.21450    0.52740    1.000
    C74      C        0.81000    0.15470    0.47120    1.000
    H35      H        0.77650    0.12130    0.44690    1.000
    C75      C        0.80940    0.31810    0.61105    1.000
    C76      C        0.50300    0.53600    0.32732    1.000
    C77      C        0.45730    0.46480    0.29917    1.000
    H36      H        0.47230    0.42990    0.26540    1.000
    C78      C        0.38770    0.44480    0.32140    1.000
    C79      C        0.36620    0.49820    0.37270    1.000
    H37      H        0.32010    0.48580    0.38760    1.000
    C80      C        0.41290    0.56920    0.40130    1.000
    C81      C        0.48100    0.58990    0.37760    1.000
    H38      H        0.51190    0.63990    0.39540    1.000
    C82      C        0.57670    0.56500    0.30240    1.000
    C83      C        0.33690    0.36870    0.29075    1.000
    C84      C        0.38960    0.62890    0.45425    1.000
    C85      C        0.44000    0.66030    0.49750    1.000
    H39      H        0.48840    0.64020    0.49390    1.000
    C86      C        0.41710    0.72260    0.54640    1.000
    H40      H        0.45070    0.74580    0.57380    1.000
    C87      C        0.34480    0.74830    0.55310    1.000
    C88      C        0.29690    0.70940    0.51400    1.000
    H41      H        0.24800    0.72410    0.51960    1.000
    C89      C        0.31710    0.64860    0.46570    1.000
    H42      H        0.28190    0.62090    0.44100    1.000
    C90      C        0.32100    0.81630    0.60478    1.000
    O27      O        0.75216    0.63840    0.25659    1.000
    O28      O        0.77718    0.86250    0.31942    1.000
    O29      O        0.86201    0.83590    0.24973    1.000
    O30      O        0.08482    0.04930    0.25424    1.000
    O31      O        0.10781    0.16460    0.32856    1.000
    O32      O        0.85824    0.36000    0.64342    1.000
    O33      O        0.74310    0.32440    0.62069    1.000
    O34      O        0.61573    0.62680    0.33055    1.000
    O35      O        0.59197    0.51870    0.25460    1.000
    O36      O        0.27390    0.36100    0.31270    1.000
    O37      O        0.36098    0.31760    0.24763    1.000
    O38      O        0.37126    0.84740    0.63847    1.000
    O39      O        0.25647    0.83470    0.61236    1.000
    Zn13     Zn       0.79917    0.26246    0.81433    1.000
    Zn14     Zn       0.70014    0.26206    0.70048    1.000
    Zn15     Zn       0.67020    0.43362    0.79578    1.000
    Zn16     Zn       0.81982    0.43853    0.71202    1.000
    C91      C        0.61400    0.03730    0.82500    1.000
    C92      C        0.54610    0.01020    0.80145    1.000
    H43      H        0.53060    0.04340    0.76730    1.000
    C93      C        0.50230    0.93420    0.82904    1.000
    C94      C        0.52510    0.88410    0.87980    1.000
    H44      H        0.49550    0.83300    0.89800    1.000
    C95      C        0.59210    0.90990    0.90376    1.000
    C96      C        0.63480    0.98740    0.87660    1.000
    H45      H        0.67880    0.00690    0.89340    1.000
    C97      C        0.66110    0.11950    0.79676    1.000
    C98      C        0.43100    0.90520    0.80140    1.000
    C99      C        0.61710    0.85150    0.95854    1.000
    C100     C        0.56880    0.80770    0.99710    1.000
    H46      H        0.51950    0.81670    0.99050    1.000
    C101     C        0.59130    0.75030    0.04580    1.000
    H47      H        0.55740    0.71870    0.07050    1.000
    C102     C        0.66440    0.74020    0.05743    1.000
    C103     C        0.71340    0.78990    0.01970    1.000
    H48      H        0.76270    0.78550    0.02740    1.000
    C104     C        0.69000    0.84530    0.97120    1.000
    H49      H        0.72350    0.87870    0.94690    1.000
    C105     C        0.69060    0.68190    0.11105    1.000
    C106     C        0.99700    0.46400    0.82732    1.000
    C107     C        0.04270    0.53520    0.79917    1.000
    H50      H        0.02770    0.57010    0.76540    1.000
    C108     C        0.11230    0.55520    0.82140    1.000
    C109     C        0.13380    0.50180    0.87270    1.000
    H51      H        0.17990    0.51420    0.88760    1.000
    C110     C        0.08710    0.43080    0.90130    1.000
    C111     C        0.01900    0.41010    0.87760    1.000
    H52      H        0.98810    0.36010    0.89540    1.000
    C112     C        0.92330    0.43500    0.80240    1.000
    C113     C        0.16310    0.63130    0.79075    1.000
    C114     C        0.11040    0.37110    0.95425    1.000
    C115     C        0.06000    0.33970    0.99750    1.000
    H53      H        0.01160    0.35980    0.99390    1.000
    C116     C        0.08290    0.27740    0.04640    1.000
    H54      H        0.04930    0.25420    0.07380    1.000
    C117     C        0.15520    0.25170    0.05310    1.000
    C118     C        0.20310    0.29060    0.01400    1.000
    H55      H        0.25200    0.27590    0.01960    1.000
    C119     C        0.18290    0.35140    0.96570    1.000
    H56      H        0.21810    0.37910    0.94100    1.000
    C120     C        0.17900    0.18370    0.10478    1.000
    O40      O        0.74784    0.36160    0.75659    1.000
    O41      O        0.72282    0.13750    0.81942    1.000
    O42      O        0.63799    0.16410    0.74973    1.000
    O43      O        0.41518    0.95070    0.75424    1.000
    O44      O        0.39219    0.83540    0.82856    1.000
    O45      O        0.64176    0.64000    0.14342    1.000
    O46      O        0.75690    0.67560    0.12069    1.000
    O47      O        0.88427    0.37320    0.83055    1.000
    O48      O        0.90803    0.48130    0.75460    1.000
    O49      O        0.22610    0.63900    0.81270    1.000
    O50      O        0.13902    0.68240    0.74763    1.000
    O51      O        0.12874    0.15260    0.13847    1.000
    O52      O        0.24353    0.16530    0.11236    1.000
