data_functionalizedCrystal
_audit_creation_method	'EQeq! by Chris Wilmer'
_symmetry_space_group_name_H-M	'P1'
_symmetry_Int_Tables_number	1
_symmetry_cell_setting	triclinic
loop_
_symmetry_equiv_pos_as_xyz
  x,y,z
_cell_length_a	10.2589
_cell_length_b	29.5851
_cell_length_c	13.7578
_cell_angle_alpha	90
_cell_angle_beta	103.303
_cell_angle_gamma	90
loop_
_atom_site_label
_atom_site_type_symbol
_atom_site_fract_x
_atom_site_fract_y
_atom_site_fract_z
_atom_site_charge
Mof_Zn	Zn	0.79622	0.26838	0.26846	1.237
Mof_Zn	Zn	0.68684	0.09447	0.09329	1.23
Mof_Zn	Zn	0.82015	0.08198	0.39448	1.235
Mof_Zn	Zn	0.728	0.16214	0.61576	1.234
Mof_Zn	Zn	0.84374	0.16473	0.91434	1.233
Mof_Zn	Zn	0.25191	0.01475	0.24118	1.236
Mof_P 	P 	0.82687	0.18873	0.12521	0.431
Mof_H 	H 	0.8977	0.1729	0.2109	-0.056
Mof_P 	P 	0.71906	0.18517	0.39526	0.462
Mof_H 	H 	0.6208	0.1767	0.3169	-0.054
Mof_P 	P 	0.95969	0.04908	0.22477	0.481
Mof_H 	H 	0.9379	0.0058	0.2382	-0.06
Mof_P 	P 	0.54324	0.04949	0.24885	0.466
Mof_H 	H 	0.5466	0.0096	0.2064	-0.056
Mof_P 	P 	0.50919	0.30651	0.2589	0.46
Mof_H 	H 	0.4932	0.2633	0.2776	-0.061
Mof_P 	P 	0.08454	0.29299	0.26958	0.453
Mof_H 	H 	0.0709	0.2522	0.2294	-0.051
Mof_P 	P 	0.82055	0.0602	0.61488	0.457
Mof_H 	H 	0.9162	0.0708	0.6935	-0.056
Mof_P 	P 	0.68169	0.07033	0.87999	0.451
Mof_H 	H 	0.6029	0.0821	0.7937	-0.047
Mof_O 	O 	0.791	0.23746	0.143	-0.421
Mof_O 	O 	0.7008	0.16015	0.0962	-0.46
Mof_O 	O 	0.914	0.18548	0.0499	-0.427
Mof_O 	O 	0.7821	0.22966	0.377	-0.439
Mof_O 	O 	0.6586	0.18942	0.4853	-0.428
Mof_O 	O 	0.8191	0.14695	0.4048	-0.467
Mof_O 	O 	0.8529	0.0645	0.1377	-0.473
Mof_O 	O 	0.0948	0.05247	0.1996	-0.424
Mof_O 	O 	0.9582	0.07276	0.3213	-0.45
Mof_O 	O 	0.5546	0.08488	0.1714	-0.451
Mof_O 	O 	0.4096	0.0529	0.2771	-0.417
Mof_O 	O 	0.6573	0.05057	0.3392	-0.46
Mof_O 	O 	0.4082	0.31814	0.165	-0.46
Mof_O 	O 	0.6512	0.31216	0.2431	-0.408
Mof_O 	O 	0.4948	0.33284	0.3498	-0.435
Mof_O 	O 	0.0907	0.32567	0.1865	-0.454
Mof_O 	O 	0.2117	0.29227	0.3505	-0.459
Mof_O 	O 	0.9608	0.3016	0.309	-0.424
Mof_O 	O 	0.7167	0.09703	0.6022	-0.464
Mof_O 	O 	0.8847	0.0566	0.5267	-0.426
Mof_O 	O 	0.7644	0.01496	0.6364	-0.426
Mof_O 	O 	0.7995	0.10225	0.8995	-0.485
Mof_O 	O 	0.7266	0.02232	0.8692	-0.439
Mof_O 	O 	0.5991	0.07387	0.95867	-0.424
Mof_Zn	Zn	0.70378	0.76838	0.23154	1.237
Mof_Zn	Zn	0.81316	0.59447	0.40671	1.23
Mof_Zn	Zn	0.67985	0.58198	0.10552	1.235
Mof_Zn	Zn	0.772	0.66214	0.88424	1.233
Mof_Zn	Zn	0.65626	0.66473	0.58566	1.233
Mof_Zn	Zn	0.24809	0.51475	0.25882	1.236
Mof_P 	P 	0.67313	0.68873	0.37479	0.431
Mof_H 	H 	0.6023	0.6729	0.2891	-0.057
Mof_P 	P 	0.78094	0.68517	0.10474	0.462
Mof_H 	H 	0.8792	0.6767	0.1831	-0.055
Mof_P 	P 	0.54031	0.54908	0.27523	0.48
Mof_H 	H 	0.5621	0.5058	0.2618	-0.059
Mof_P 	P 	0.95676	0.54949	0.25115	0.465
Mof_H 	H 	0.9534	0.5096	0.2936	-0.055
Mof_P 	P 	0.99081	0.80651	0.2411	0.454
Mof_H 	H 	0.0068	0.7633	0.2224	-0.059
Mof_P 	P 	0.41546	0.79299	0.23042	0.455
Mof_H 	H 	0.4291	0.7522	0.2706	-0.05
Mof_P 	P 	0.67945	0.5602	0.88512	0.457
Mof_H 	H 	0.5838	0.5708	0.8065	-0.056
Mof_P 	P 	0.81831	0.57033	0.62001	0.451
Mof_H 	H 	0.8971	0.5821	0.7063	-0.048
Mof_O 	O 	0.709	0.73746	0.357	-0.422
Mof_O 	O 	0.7992	0.66015	0.4038	-0.461
Mof_O 	O 	0.586	0.68548	0.4501	-0.428
Mof_O 	O 	0.7179	0.72966	0.123	-0.44
Mof_O 	O 	0.8414	0.68942	0.0147	-0.428
Mof_O 	O 	0.6809	0.64695	0.0952	-0.468
Mof_O 	O 	0.6471	0.5645	0.3623	-0.473
Mof_O 	O 	0.4052	0.55247	0.3004	-0.423
Mof_O 	O 	0.5418	0.57276	0.1787	-0.45
Mof_O 	O 	0.9454	0.58488	0.3286	-0.451
Mof_O 	O 	0.0904	0.5529	0.2229	-0.416
Mof_O 	O 	0.8427	0.55057	0.1608	-0.46
Mof_O 	O 	0.0918	0.81814	0.335	-0.458
Mof_O 	O 	0.8488	0.81216	0.2569	-0.409
Mof_O 	O 	0.0052	0.83284	0.1502	-0.433
Mof_O 	O 	0.4093	0.82567	0.3135	-0.453
Mof_O 	O 	0.2883	0.79227	0.1495	-0.458
Mof_O 	O 	0.5392	0.8016	0.191	-0.426
Mof_O 	O 	0.7833	0.59703	0.8978	-0.464
Mof_O 	O 	0.6153	0.5566	0.9733	-0.426
Mof_O 	O 	0.7356	0.51496	0.8636	-0.426
Mof_O 	O 	0.7005	0.60225	0.6005	-0.486
Mof_O 	O 	0.7734	0.52232	0.6308	-0.44
Mof_O 	O 	0.9009	0.57387	0.54133	-0.425
Mof_Zn	Zn	0.20378	0.73162	0.73154	1.237
Mof_Zn	Zn	0.31316	0.90553	0.90671	1.23
Mof_Zn	Zn	0.17985	0.91802	0.60552	1.235
Mof_Zn	Zn	0.272	0.83786	0.38424	1.234
Mof_Zn	Zn	0.15626	0.83527	0.08566	1.233
Mof_Zn	Zn	0.74809	0.98525	0.75882	1.236
Mof_P 	P 	0.17313	0.81127	0.87479	0.431
Mof_H 	H 	0.1023	0.8271	0.7891	-0.056
Mof_P 	P 	0.28094	0.81483	0.60474	0.462
Mof_H 	H 	0.3792	0.8233	0.6831	-0.054
Mof_P 	P 	0.04031	0.95092	0.77523	0.481
Mof_H 	H 	0.0621	0.9942	0.7618	-0.06
Mof_P 	P 	0.45676	0.95051	0.75115	0.466
Mof_H 	H 	0.4534	0.9904	0.7936	-0.056
Mof_P 	P 	0.49081	0.69349	0.7411	0.46
Mof_H 	H 	0.5068	0.7367	0.7224	-0.061
Mof_P 	P 	0.91546	0.70701	0.73042	0.453
Mof_H 	H 	0.9291	0.7478	0.7706	-0.051
Mof_P 	P 	0.17945	0.9398	0.38512	0.457
Mof_H 	H 	0.0838	0.9292	0.3065	-0.056
Mof_P 	P 	0.31831	0.92967	0.12001	0.451
Mof_H 	H 	0.3971	0.9179	0.2063	-0.047
Mof_O 	O 	0.209	0.76254	0.857	-0.421
Mof_O 	O 	0.2992	0.83985	0.9038	-0.46
Mof_O 	O 	0.086	0.81452	0.9501	-0.427
Mof_O 	O 	0.2179	0.77034	0.623	-0.439
Mof_O 	O 	0.3414	0.81058	0.5147	-0.428
Mof_O 	O 	0.1809	0.85305	0.5952	-0.467
Mof_O 	O 	0.1471	0.9355	0.8623	-0.473
Mof_O 	O 	0.9052	0.94753	0.8004	-0.424
Mof_O 	O 	0.0418	0.92724	0.6787	-0.45
Mof_O 	O 	0.4454	0.91512	0.8286	-0.451
Mof_O 	O 	0.5904	0.9471	0.7229	-0.417
Mof_O 	O 	0.3427	0.94943	0.6608	-0.46
Mof_O 	O 	0.5918	0.68186	0.835	-0.46
Mof_O 	O 	0.3488	0.68784	0.7569	-0.408
Mof_O 	O 	0.5052	0.66716	0.6502	-0.435
Mof_O 	O 	0.9093	0.67433	0.8135	-0.454
Mof_O 	O 	0.7883	0.70773	0.6495	-0.459
Mof_O 	O 	0.0392	0.6984	0.691	-0.424
Mof_O 	O 	0.2833	0.90297	0.3978	-0.464
Mof_O 	O 	0.1153	0.9434	0.4733	-0.426
Mof_O 	O 	0.2356	0.98504	0.3636	-0.426
Mof_O 	O 	0.2005	0.89775	0.1005	-0.485
Mof_O 	O 	0.2734	0.97768	0.1308	-0.439
Mof_O 	O 	0.4009	0.92613	0.04133	-0.424
Mof_Zn	Zn	0.29622	0.23162	0.76846	1.237
Mof_Zn	Zn	0.18684	0.40553	0.59329	1.23
Mof_Zn	Zn	0.32015	0.41802	0.89448	1.235
Mof_Zn	Zn	0.228	0.33786	0.11576	1.233
Mof_Zn	Zn	0.34374	0.33527	0.41434	1.233
Mof_Zn	Zn	0.75191	0.48525	0.74118	1.236
Mof_P 	P 	0.32687	0.31127	0.62521	0.431
Mof_H 	H 	0.3977	0.3271	0.7109	-0.057
Mof_P 	P 	0.21906	0.31483	0.89526	0.462
Mof_H 	H 	0.1208	0.3233	0.8169	-0.055
Mof_P 	P 	0.45969	0.45092	0.72477	0.48
Mof_H 	H 	0.4379	0.4942	0.7382	-0.059
Mof_P 	P 	0.04324	0.45051	0.74885	0.465
Mof_H 	H 	0.0466	0.4904	0.7064	-0.055
Mof_P 	P 	0.00919	0.19349	0.7589	0.454
Mof_H 	H 	0.9932	0.2367	0.7776	-0.059
Mof_P 	P 	0.58454	0.20701	0.76958	0.455
Mof_H 	H 	0.5709	0.2478	0.7294	-0.05
Mof_P 	P 	0.32055	0.4398	0.11488	0.457
Mof_H 	H 	0.4162	0.4292	0.1935	-0.056
Mof_P 	P 	0.18169	0.42967	0.37999	0.451
Mof_H 	H 	0.1029	0.4179	0.2937	-0.048
Mof_O 	O 	0.291	0.26254	0.643	-0.422
Mof_O 	O 	0.2008	0.33985	0.5962	-0.461
Mof_O 	O 	0.414	0.31452	0.5499	-0.428
Mof_O 	O 	0.2821	0.27034	0.877	-0.44
Mof_O 	O 	0.1586	0.31058	0.9853	-0.428
Mof_O 	O 	0.3191	0.35305	0.9048	-0.468
Mof_O 	O 	0.3529	0.4355	0.6377	-0.473
Mof_O 	O 	0.5948	0.44753	0.6996	-0.423
Mof_O 	O 	0.4582	0.42724	0.8213	-0.45
Mof_O 	O 	0.0546	0.41512	0.6714	-0.451
Mof_O 	O 	0.9096	0.4471	0.7771	-0.416
Mof_O 	O 	0.1573	0.44943	0.8392	-0.46
Mof_O 	O 	0.9082	0.18186	0.665	-0.458
Mof_O 	O 	0.1512	0.18784	0.7431	-0.409
Mof_O 	O 	0.9948	0.16716	0.8498	-0.433
Mof_O 	O 	0.5907	0.17433	0.6865	-0.453
Mof_O 	O 	0.7117	0.20773	0.8505	-0.458
Mof_O 	O 	0.4608	0.1984	0.809	-0.426
Mof_O 	O 	0.2167	0.40297	0.1022	-0.464
Mof_O 	O 	0.3847	0.4434	0.0267	-0.426
Mof_O 	O 	0.2644	0.48504	0.1364	-0.426
Mof_O 	O 	0.2995	0.39775	0.3995	-0.486
Mof_O 	O 	0.2266	0.47768	0.3692	-0.44
Mof_O 	O 	0.0991	0.42613	0.45867	-0.425
_end
