data_functionalizedCrystal
_audit_creation_method	'EQeq! by Chris Wilmer'
_symmetry_space_group_name_H-M	'P1'
_symmetry_Int_Tables_number	1
_symmetry_cell_setting	triclinic
loop_
_symmetry_equiv_pos_as_xyz
  x,y,z
_cell_length_a	15.8545
_cell_length_b	15.8545
_cell_length_c	21.596
_cell_angle_alpha	90
_cell_angle_beta	90
_cell_angle_gamma	90
loop_
_atom_site_label
_atom_site_type_symbol
_atom_site_fract_x
_atom_site_fract_y
_atom_site_fract_z
_atom_site_charge
Mof_Cd	Cd	0.05898	0.94102	0.25	0.384
Mof_Cd	Cd	0.94102	0.05898	0.75	0.384
Mof_Cd	Cd	0.55898	0.55898	0.5	0.385
Mof_Cd	Cd	0.44102	0.44102	-0	0.382
Mof_H 	H 	0.1104	0.963	0.0977	0.016
Mof_H 	H 	0.2141	0.9139	0.0321	0.075
Mof_H 	H 	0.2403	0.7122	0.1451	0.072
Mof_H 	H 	0.1408	0.7698	0.2092	0.008
Mof_H 	H 	0.3002	0.8515	0.9687	0.061
Mof_H 	H 	0.4139	0.8012	0.9139	0.04
Mof_H 	H 	0.5072	0.7038	0.958	0.078
Mof_H 	H 	0.3598	0.697	0.1117	0.055
Mof_H 	H 	0.6191	0.4548	0.21	0.064
Mof_H 	H 	0.7318	0.4348	0.2793	0.051
Mof_H 	H 	0.8359	0.5373	0.288	0.057
Mof_H 	H 	0.7232	0.6749	0.1547	0.083
Mof_H 	H 	0.899	0.6524	0.3147	0.074
Mof_H 	H 	0.9932	0.7622	0.3242	0.008
Mof_H 	H 	0.9405	0.8426	0.1569	0.015
Mof_H 	H 	0.8443	0.735	0.1421	0.094
Mof_H 	H 	0.5288	0.7598	0.1432	0.116
Mof_H 	H 	0.5859	0.7595	0.0975	0.141
Mof_H 	H 	0.8896	0.037	0.5977	0.016
Mof_H 	H 	0.7859	0.0861	0.5321	0.074
Mof_H 	H 	0.7597	0.2878	0.6451	0.07
Mof_H 	H 	0.8592	0.2302	0.7092	0.008
Mof_H 	H 	0.6998	0.1485	0.4687	0.063
Mof_H 	H 	0.5861	0.1988	0.4139	0.037
Mof_H 	H 	0.4928	0.2962	0.458	0.081
Mof_H 	H 	0.6402	0.303	0.6117	0.058
Mof_H 	H 	0.3809	0.5452	0.71	0.064
Mof_H 	H 	0.2682	0.5652	0.7793	0.051
Mof_H 	H 	0.1641	0.4627	0.788	0.057
Mof_H 	H 	0.2768	0.3251	0.6547	0.083
Mof_H 	H 	0.101	0.3476	0.8147	0.074
Mof_H 	H 	0.0068	0.2378	0.8242	0.009
Mof_H 	H 	0.0595	0.1574	0.6569	0.015
Mof_H 	H 	0.1557	0.265	0.6421	0.094
Mof_H 	H 	0.4712	0.2402	0.6432	0.116
Mof_H 	H 	0.4141	0.2405	0.5975	0.141
Mof_H 	H 	0.537	0.6104	0.3477	0.016
Mof_H 	H 	0.5861	0.7141	0.2821	0.074
Mof_H 	H 	0.7878	0.7403	0.3951	0.07
Mof_H 	H 	0.7302	0.6408	0.4592	0.008
Mof_H 	H 	0.6485	0.8002	0.2187	0.063
Mof_H 	H 	0.6988	0.9139	0.1639	0.037
Mof_H 	H 	0.7962	0.0072	0.208	0.08
Mof_H 	H 	0.803	0.8598	0.3617	0.058
Mof_H 	H 	0.0452	0.1191	0.46	0.064
Mof_H 	H 	0.0652	0.2318	0.5293	0.051
Mof_H 	H 	0.9627	0.3359	0.538	0.057
Mof_H 	H 	0.8251	0.2232	0.4047	0.083
Mof_H 	H 	0.8476	0.399	0.5647	0.074
Mof_H 	H 	0.7378	0.4932	0.5742	0.008
Mof_H 	H 	0.6574	0.4405	0.4069	0.015
Mof_H 	H 	0.765	0.3443	0.3921	0.094
Mof_H 	H 	0.7402	0.0288	0.3932	0.116
Mof_H 	H 	0.7405	0.0859	0.3475	0.141
Mof_H 	H 	0.463	0.3896	0.8477	0.016
Mof_H 	H 	0.4139	0.2859	0.7821	0.074
Mof_H 	H 	0.2122	0.2597	0.8951	0.07
Mof_H 	H 	0.2698	0.3592	0.9592	0.009
Mof_H 	H 	0.3515	0.1998	0.7187	0.063
Mof_H 	H 	0.3012	0.0861	0.6639	0.038
Mof_H 	H 	0.2038	0.9928	0.708	0.08
Mof_H 	H 	0.197	0.1402	0.8617	0.058
Mof_H 	H 	0.9548	0.8809	0.96	0.064
Mof_H 	H 	0.9348	0.7682	0.0293	0.051
Mof_H 	H 	0.0373	0.6641	0.038	0.058
Mof_H 	H 	0.1749	0.7768	0.9047	0.083
Mof_H 	H 	0.1524	0.601	0.0647	0.075
Mof_H 	H 	0.2622	0.5068	0.0742	0.008
Mof_H 	H 	0.3426	0.5595	0.9069	0.015
Mof_H 	H 	0.235	0.6557	0.8921	0.094
Mof_H 	H 	0.2598	0.9712	0.8932	0.116
Mof_H 	H 	0.2595	0.9141	0.8475	0.141
Mof_H 	H 	0.3896	0.463	0.1523	0.016
Mof_H 	H 	0.2859	0.4139	0.2179	0.074
Mof_H 	H 	0.2597	0.2122	0.1049	0.07
Mof_H 	H 	0.3592	0.2698	0.0408	0.007
Mof_H 	H 	0.1998	0.3515	0.2813	0.063
Mof_H 	H 	0.0861	0.3012	0.3361	0.038
Mof_H 	H 	0.9928	0.2038	0.292	0.08
Mof_H 	H 	0.1402	0.197	0.1383	0.057
Mof_H 	H 	0.8809	0.9548	0.04	0.065
Mof_H 	H 	0.7682	0.9348	0.9707	0.05
Mof_H 	H 	0.6641	0.0373	0.962	0.057
Mof_H 	H 	0.7768	0.1749	0.0953	0.083
Mof_H 	H 	0.601	0.1524	0.9353	0.073
Mof_H 	H 	0.5068	0.2622	0.9258	0.008
Mof_H 	H 	0.5595	0.3426	0.0931	0.015
Mof_H 	H 	0.6557	0.235	0.1079	0.094
Mof_H 	H 	0.9712	0.2598	0.1068	0.116
Mof_H 	H 	0.9141	0.2595	0.1525	0.141
Mof_H 	H 	0.6104	0.537	0.6523	0.016
Mof_H 	H 	0.7141	0.5861	0.7179	0.074
Mof_H 	H 	0.7403	0.7878	0.6049	0.07
Mof_H 	H 	0.6408	0.7302	0.5408	0.008
Mof_H 	H 	0.8002	0.6485	0.7813	0.063
Mof_H 	H 	0.9139	0.6988	0.8361	0.038
Mof_H 	H 	0.0072	0.7962	0.792	0.08
Mof_H 	H 	0.8598	0.803	0.6383	0.058
Mof_H 	H 	0.1191	0.0452	0.54	0.064
Mof_H 	H 	0.2318	0.0652	0.4707	0.051
Mof_H 	H 	0.3359	0.9627	0.462	0.057
Mof_H 	H 	0.2232	0.8251	0.5953	0.083
Mof_H 	H 	0.399	0.8476	0.4353	0.074
Mof_H 	H 	0.4932	0.7378	0.4258	0.008
Mof_H 	H 	0.4405	0.6574	0.5931	0.015
Mof_H 	H 	0.3443	0.765	0.6079	0.094
Mof_H 	H 	0.0288	0.7402	0.6068	0.116
Mof_H 	H 	0.0859	0.7405	0.6525	0.141
Mof_H 	H 	0.963	0.1104	0.9023	0.016
Mof_H 	H 	0.9139	0.2141	0.9679	0.074
Mof_H 	H 	0.7122	0.2403	0.8549	0.069
Mof_H 	H 	0.7698	0.1408	0.7908	0.008
Mof_H 	H 	0.8515	0.3002	0.0313	0.065
Mof_H 	H 	0.8012	0.4139	0.0861	0.035
Mof_H 	H 	0.7038	0.5072	0.042	0.083
Mof_H 	H 	0.697	0.3598	0.8883	0.059
Mof_H 	H 	0.4548	0.6191	0.79	0.064
Mof_H 	H 	0.4348	0.7318	0.7207	0.051
Mof_H 	H 	0.5373	0.8359	0.712	0.057
Mof_H 	H 	0.6749	0.7232	0.8453	0.083
Mof_H 	H 	0.6524	0.899	0.6853	0.074
Mof_H 	H 	0.7622	0.9932	0.6758	0.008
Mof_H 	H 	0.8426	0.9405	0.8431	0.015
Mof_H 	H 	0.735	0.8443	0.8579	0.094
Mof_H 	H 	0.7598	0.5288	0.8568	0.116
Mof_H 	H 	0.7595	0.5859	0.9025	0.142
Mof_H 	H 	0.037	0.8896	0.4023	0.016
Mof_H 	H 	0.0861	0.7859	0.4679	0.074
Mof_H 	H 	0.2878	0.7597	0.3549	0.07
Mof_H 	H 	0.2302	0.8592	0.2908	0.008
Mof_H 	H 	0.1485	0.6998	0.5313	0.063
Mof_H 	H 	0.1988	0.5861	0.5861	0.037
Mof_H 	H 	0.2962	0.4928	0.542	0.081
Mof_H 	H 	0.303	0.6402	0.3883	0.058
Mof_H 	H 	0.5452	0.3809	0.29	0.064
Mof_H 	H 	0.5652	0.2682	0.2207	0.051
Mof_H 	H 	0.4627	0.1641	0.212	0.056
Mof_H 	H 	0.3251	0.2768	0.3453	0.083
Mof_H 	H 	0.3476	0.101	0.1853	0.074
Mof_H 	H 	0.2378	0.0068	0.1758	0.008
Mof_H 	H 	0.1574	0.0595	0.3431	0.015
Mof_H 	H 	0.265	0.1557	0.3579	0.094
Mof_H 	H 	0.2402	0.4712	0.3568	0.116
Mof_H 	H 	0.2405	0.4141	0.4025	0.141
Mof_C 	C 	0.1398	0.913	0.1087	0.068
Mof_C 	C 	0.2014	0.8838	0.069	-0.128
Mof_C 	C 	0.2447	0.8101	0.0833	0.065
Mof_C 	C 	0.2171	0.766	0.1357	-0.131
Mof_C 	C 	0.1568	0.8004	0.1733	0.072
Mof_C 	C 	0.3173	0.7789	0.0461	0.013
Mof_C 	C 	0.3356	0.8098	0.9867	-0.07
Mof_C 	C 	0.4037	0.7807	0.9546	0.001
Mof_C 	C 	0.4584	0.7217	0.9799	-0.068
Mof_C 	C 	0.4401	0.6895	0.0384	0.015
Mof_C 	C 	0.3708	0.7185	0.0715	-0.077
Mof_C 	C 	0.496	0.6272	0.0692	0.097
Mof_C 	C 	0.5907	0.5764	0.132	0.1
Mof_C 	C 	0.6611	0.5674	0.1764	0.027
Mof_C 	C 	0.6627	0.4957	0.213	-0.07
Mof_C 	C 	0.7292	0.4842	0.2544	-0.002
Mof_C 	C 	0.7915	0.545	0.259	-0.067
Mof_C 	C 	0.7907	0.6167	0.2225	0.019
Mof_C 	C 	0.7246	0.6266	0.1807	-0.082
Mof_C 	C 	0.8575	0.6821	0.2281	0.072
Mof_C 	C 	0.9053	0.6914	0.2816	-0.134
Mof_C 	C 	0.9618	0.757	0.2869	0.076
Mof_C 	C 	0.9311	0.8037	0.1896	0.083
Mof_C 	C 	0.8732	0.7398	0.1805	-0.137
Mof_C 	C 	0.8602	0.087	0.6087	0.067
Mof_C 	C 	0.7986	0.1162	0.569	-0.125
Mof_C 	C 	0.7553	0.1899	0.5833	0.062
Mof_C 	C 	0.7829	0.234	0.6357	-0.129
Mof_C 	C 	0.8432	0.1996	0.6733	0.071
Mof_C 	C 	0.6827	0.2211	0.5461	0.022
Mof_C 	C 	0.6644	0.1902	0.4867	-0.081
Mof_C 	C 	0.5963	0.2193	0.4546	0.01
Mof_C 	C 	0.5416	0.2783	0.4799	-0.078
Mof_C 	C 	0.5599	0.3105	0.5384	0.024
Mof_C 	C 	0.6292	0.2815	0.5715	-0.084
Mof_C 	C 	0.504	0.3728	0.5692	0.096
Mof_C 	C 	0.4093	0.4236	0.632	0.1
Mof_C 	C 	0.3389	0.4326	0.6764	0.027
Mof_C 	C 	0.3373	0.5043	0.713	-0.07
Mof_C 	C 	0.2708	0.5158	0.7544	-0.002
Mof_C 	C 	0.2085	0.455	0.759	-0.067
Mof_C 	C 	0.2093	0.3833	0.7225	0.019
Mof_C 	C 	0.2754	0.3734	0.6807	-0.082
Mof_C 	C 	0.1425	0.3179	0.7281	0.072
Mof_C 	C 	0.0947	0.3086	0.7816	-0.133
Mof_C 	C 	0.0382	0.243	0.7869	0.076
Mof_C 	C 	0.0689	0.1963	0.6896	0.083
Mof_C 	C 	0.1268	0.2602	0.6805	-0.137
Mof_C 	C 	0.587	0.6398	0.3587	0.067
Mof_C 	C 	0.6162	0.7014	0.319	-0.125
Mof_C 	C 	0.6899	0.7447	0.3333	0.062
Mof_C 	C 	0.734	0.7171	0.3857	-0.129
Mof_C 	C 	0.6996	0.6568	0.4233	0.071
Mof_C 	C 	0.7211	0.8173	0.2961	0.022
Mof_C 	C 	0.6902	0.8356	0.2367	-0.08
Mof_C 	C 	0.7193	0.9037	0.2046	0.009
Mof_C 	C 	0.7783	0.9584	0.2299	-0.077
Mof_C 	C 	0.8105	0.9401	0.2884	0.023
Mof_C 	C 	0.7815	0.8708	0.3215	-0.083
Mof_C 	C 	0.8728	0.996	0.3192	0.096
Mof_C 	C 	0.9236	0.0907	0.382	0.1
Mof_C 	C 	0.9326	0.1611	0.4264	0.026
Mof_C 	C 	0.0043	0.1627	0.463	-0.069
Mof_C 	C 	0.0158	0.2292	0.5044	-0.002
Mof_C 	C 	0.955	0.2915	0.509	-0.068
Mof_C 	C 	0.8833	0.2907	0.4725	0.019
Mof_C 	C 	0.8734	0.2246	0.4307	-0.082
Mof_C 	C 	0.8179	0.3575	0.4781	0.072
Mof_C 	C 	0.8086	0.4053	0.5316	-0.134
Mof_C 	C 	0.743	0.4618	0.5369	0.076
Mof_C 	C 	0.6963	0.4311	0.4396	0.083
Mof_C 	C 	0.7602	0.3732	0.4305	-0.137
Mof_C 	C 	0.413	0.3602	0.8587	0.067
Mof_C 	C 	0.3838	0.2986	0.819	-0.125
Mof_C 	C 	0.3101	0.2553	0.8333	0.062
Mof_C 	C 	0.266	0.2829	0.8857	-0.129
Mof_C 	C 	0.3004	0.3432	0.9233	0.071
Mof_C 	C 	0.2789	0.1827	0.7961	0.022
Mof_C 	C 	0.3098	0.1644	0.7367	-0.08
Mof_C 	C 	0.2807	0.0963	0.7046	0.009
Mof_C 	C 	0.2217	0.0416	0.7299	-0.077
Mof_C 	C 	0.1895	0.0599	0.7884	0.023
Mof_C 	C 	0.2185	0.1292	0.8215	-0.083
Mof_C 	C 	0.1272	0.004	0.8192	0.096
Mof_C 	C 	0.0764	0.9093	0.882	0.1
Mof_C 	C 	0.0674	0.8389	0.9264	0.028
Mof_C 	C 	0.9957	0.8373	0.963	-0.069
Mof_C 	C 	0.9842	0.7708	0.0044	-0.001
Mof_C 	C 	0.045	0.7085	0.009	-0.074
Mof_C 	C 	0.1167	0.7093	0.9725	0.024
Mof_C 	C 	0.1266	0.7754	0.9307	-0.084
Mof_C 	C 	0.1821	0.6425	0.9781	0.075
Mof_C 	C 	0.1914	0.5947	0.0316	-0.137
Mof_C 	C 	0.257	0.5382	0.0369	0.074
Mof_C 	C 	0.3037	0.5689	0.9396	0.083
Mof_C 	C 	0.2398	0.6268	0.9305	-0.137
Mof_C 	C 	0.3602	0.413	0.1413	0.067
Mof_C 	C 	0.2986	0.3838	0.181	-0.125
Mof_C 	C 	0.2553	0.3101	0.1667	0.062
Mof_C 	C 	0.2829	0.266	0.1143	-0.13
Mof_C 	C 	0.3432	0.3004	0.0767	0.071
Mof_C 	C 	0.1827	0.2789	0.2039	0.021
Mof_C 	C 	0.1644	0.3098	0.2633	-0.08
Mof_C 	C 	0.0963	0.2807	0.2954	0.009
Mof_C 	C 	0.0416	0.2217	0.2701	-0.077
Mof_C 	C 	0.0599	0.1895	0.2116	0.023
Mof_C 	C 	0.1292	0.2185	0.1785	-0.083
Mof_C 	C 	0.004	0.1272	0.1808	0.096
Mof_C 	C 	0.9093	0.0764	0.118	0.099
Mof_C 	C 	0.8389	0.0674	0.0736	0.028
Mof_C 	C 	0.8373	0.9957	0.037	-0.075
Mof_C 	C 	0.7708	0.9842	0.9956	0.004
Mof_C 	C 	0.7085	0.045	0.991	-0.068
Mof_C 	C 	0.7093	0.1167	0.0275	0.019
Mof_C 	C 	0.7754	0.1266	0.0693	-0.084
Mof_C 	C 	0.6425	0.1821	0.0219	0.069
Mof_C 	C 	0.5947	0.1914	0.9684	-0.13
Mof_C 	C 	0.5382	0.257	0.9631	0.078
Mof_C 	C 	0.5689	0.3037	0.0604	0.082
Mof_C 	C 	0.6268	0.2398	0.0695	-0.136
Mof_C 	C 	0.6398	0.587	0.6413	0.067
Mof_C 	C 	0.7014	0.6162	0.681	-0.125
Mof_C 	C 	0.7447	0.6899	0.6667	0.062
Mof_C 	C 	0.7171	0.734	0.6143	-0.129
Mof_C 	C 	0.6568	0.6996	0.5767	0.071
Mof_C 	C 	0.8173	0.7211	0.7039	0.022
Mof_C 	C 	0.8356	0.6902	0.7633	-0.08
Mof_C 	C 	0.9037	0.7193	0.7954	0.01
Mof_C 	C 	0.9584	0.7783	0.7701	-0.078
Mof_C 	C 	0.9401	0.8105	0.7116	0.024
Mof_C 	C 	0.8708	0.7815	0.6785	-0.083
Mof_C 	C 	0.996	0.8728	0.6808	0.096
Mof_C 	C 	0.0907	0.9236	0.618	0.1
Mof_C 	C 	0.1611	0.9326	0.5736	0.026
Mof_C 	C 	0.1627	0.0043	0.537	-0.069
Mof_C 	C 	0.2292	0.0158	0.4956	-0.002
Mof_C 	C 	0.2915	0.955	0.491	-0.068
Mof_C 	C 	0.2907	0.8833	0.5275	0.019
Mof_C 	C 	0.2246	0.8734	0.5693	-0.082
Mof_C 	C 	0.3575	0.8179	0.5219	0.072
Mof_C 	C 	0.4053	0.8086	0.4684	-0.134
Mof_C 	C 	0.4618	0.743	0.4631	0.076
Mof_C 	C 	0.4311	0.6963	0.5604	0.083
Mof_C 	C 	0.3732	0.7602	0.5695	-0.137
Mof_C 	C 	0.913	0.1398	0.8913	0.066
Mof_C 	C 	0.8838	0.2014	0.931	-0.123
Mof_C 	C 	0.8101	0.2447	0.9167	0.059
Mof_C 	C 	0.766	0.2171	0.8643	-0.128
Mof_C 	C 	0.8004	0.1568	0.8267	0.07
Mof_C 	C 	0.7789	0.3173	0.9539	0.029
Mof_C 	C 	0.8098	0.3356	0.0133	-0.089
Mof_C 	C 	0.7807	0.4037	0.0454	0.017
Mof_C 	C 	0.7217	0.4584	0.0201	-0.087
Mof_C 	C 	0.6895	0.4401	0.9616	0.031
Mof_C 	C 	0.7185	0.3708	0.9285	-0.089
Mof_C 	C 	0.6272	0.496	0.9308	0.094
Mof_C 	C 	0.5764	0.5907	0.868	0.1
Mof_C 	C 	0.5674	0.6611	0.8236	0.027
Mof_C 	C 	0.4957	0.6627	0.787	-0.07
Mof_C 	C 	0.4842	0.7292	0.7456	-0.002
Mof_C 	C 	0.545	0.7915	0.741	-0.067
Mof_C 	C 	0.6167	0.7907	0.7775	0.019
Mof_C 	C 	0.6266	0.7246	0.8193	-0.082
Mof_C 	C 	0.6821	0.8575	0.7719	0.072
Mof_C 	C 	0.6914	0.9053	0.7184	-0.134
Mof_C 	C 	0.757	0.9618	0.7131	0.076
Mof_C 	C 	0.8037	0.9311	0.8104	0.083
Mof_C 	C 	0.7398	0.8732	0.8195	-0.137
Mof_C 	C 	0.087	0.8602	0.3913	0.067
Mof_C 	C 	0.1162	0.7986	0.431	-0.125
Mof_C 	C 	0.1899	0.7553	0.4167	0.062
Mof_C 	C 	0.234	0.7829	0.3643	-0.129
Mof_C 	C 	0.1996	0.8432	0.3267	0.071
Mof_C 	C 	0.2211	0.6827	0.4539	0.022
Mof_C 	C 	0.1902	0.6644	0.5133	-0.081
Mof_C 	C 	0.2193	0.5963	0.5454	0.01
Mof_C 	C 	0.2783	0.5416	0.5201	-0.078
Mof_C 	C 	0.3105	0.5599	0.4616	0.024
Mof_C 	C 	0.2815	0.6292	0.4285	-0.084
Mof_C 	C 	0.3728	0.504	0.4308	0.096
Mof_C 	C 	0.4236	0.4093	0.368	0.1
Mof_C 	C 	0.4326	0.3389	0.3236	0.027
Mof_C 	C 	0.5043	0.3373	0.287	-0.07
Mof_C 	C 	0.5158	0.2708	0.2456	-0.002
Mof_C 	C 	0.455	0.2085	0.241	-0.067
Mof_C 	C 	0.3833	0.2093	0.2775	0.019
Mof_C 	C 	0.3734	0.2754	0.3193	-0.082
Mof_C 	C 	0.3179	0.1425	0.2719	0.072
Mof_C 	C 	0.3086	0.0947	0.2184	-0.134
Mof_C 	C 	0.243	0.0382	0.2131	0.076
Mof_C 	C 	0.1963	0.0689	0.3104	0.083
Mof_C 	C 	0.2602	0.1268	0.3195	-0.137
Mof_N 	N 	0.1188	0.8744	0.1625	-0.151
Mof_N 	N 	0.4937	0.5441	0.0655	-0.115
Mof_N 	N 	0.5539	0.5118	0.1046	-0.1
Mof_N 	N 	0.556	0.6492	0.1112	-0.101
Mof_N 	N 	0.574	0.7311	0.1318	-0.221
Mof_N 	N 	0.9745	0.8136	0.242	-0.151
Mof_N 	N 	0.8812	0.1256	0.6625	-0.15
Mof_N 	N 	0.5063	0.4559	0.5655	-0.114
Mof_N 	N 	0.4461	0.4882	0.6046	-0.1
Mof_N 	N 	0.444	0.3508	0.6112	-0.1
Mof_N 	N 	0.426	0.2689	0.6318	-0.221
Mof_N 	N 	0.0255	0.1864	0.742	-0.151
Mof_N 	N 	0.6256	0.6188	0.4125	-0.15
Mof_N 	N 	0.9559	0.9937	0.3155	-0.114
Mof_N 	N 	0.9882	0.0539	0.3546	-0.1
Mof_N 	N 	0.8508	0.056	0.3612	-0.101
Mof_N 	N 	0.7689	0.074	0.3818	-0.221
Mof_N 	N 	0.6864	0.4745	0.492	-0.152
Mof_N 	N 	0.3744	0.3812	0.9125	-0.15
Mof_N 	N 	0.0441	0.0063	0.8155	-0.114
Mof_N 	N 	0.0118	0.9461	0.8546	-0.1
Mof_N 	N 	0.1492	0.944	0.8612	-0.101
Mof_N 	N 	0.2311	0.926	0.8818	-0.221
Mof_N 	N 	0.3136	0.5255	0.992	-0.149
Mof_N 	N 	0.3812	0.3744	0.0875	-0.15
Mof_N 	N 	0.0063	0.0441	0.1845	-0.114
Mof_N 	N 	0.9461	0.0118	0.1454	-0.1
Mof_N 	N 	0.944	0.1492	0.1388	-0.1
Mof_N 	N 	0.926	0.2311	0.1182	-0.221
Mof_N 	N 	0.5255	0.3136	0.008	-0.153
Mof_N 	N 	0.6188	0.6256	0.5875	-0.15
Mof_N 	N 	0.9937	0.9559	0.6845	-0.114
Mof_N 	N 	0.0539	0.9882	0.6454	-0.1
Mof_N 	N 	0.056	0.8508	0.6388	-0.101
Mof_N 	N 	0.074	0.7689	0.6182	-0.221
Mof_N 	N 	0.4745	0.6864	0.508	-0.152
Mof_N 	N 	0.8744	0.1188	0.8375	-0.15
Mof_N 	N 	0.5441	0.4937	0.9345	-0.113
Mof_N 	N 	0.5118	0.5539	0.8954	-0.099
Mof_N 	N 	0.6492	0.556	0.8888	-0.1
Mof_N 	N 	0.7311	0.574	0.8682	-0.221
Mof_N 	N 	0.8136	0.9745	0.758	-0.151
Mof_N 	N 	0.1256	0.8812	0.3375	-0.15
Mof_N 	N 	0.4559	0.5063	0.4345	-0.114
Mof_N 	N 	0.4882	0.4461	0.3954	-0.1
Mof_N 	N 	0.3508	0.444	0.3888	-0.1
Mof_N 	N 	0.2689	0.426	0.3682	-0.221
Mof_N 	N 	0.1864	0.0255	0.258	-0.151
Mof_Cl	Cl	0.73118	0.73118	-0	-0.225
Mof_O 	O 	0.7548	0.7732	0.0523	-0.04
Mof_O 	O 	0.7869	0.6628	0.0207	-0.054
Mof_O 	O 	0.7732	0.7548	0.9477	-0.038
Mof_O 	O 	0.6628	0.7869	0.9793	-0.051
Mof_Cl	Cl	0.26882	0.26882	0.5	-0.22
Mof_O 	O 	0.2452	0.2268	0.5523	-0.041
Mof_O 	O 	0.2131	0.3372	0.5207	-0.054
Mof_O 	O 	0.2268	0.2452	0.4477	-0.041
Mof_O 	O 	0.3372	0.2131	0.4793	-0.054
Mof_Cl	Cl	0.76882	0.23118	0.25	-0.22
Mof_O 	O 	0.7268	0.2548	0.3023	-0.041
Mof_O 	O 	0.8372	0.2869	0.2707	-0.054
Mof_O 	O 	0.7452	0.2732	0.1977	-0.041
Mof_O 	O 	0.7131	0.1628	0.2293	-0.054
Mof_Cl	Cl	0.23118	0.76882	0.75	-0.22
Mof_O 	O 	0.2732	0.7452	0.8023	-0.041
Mof_O 	O 	0.1628	0.7131	0.7707	-0.054
Mof_O 	O 	0.2548	0.7268	0.6977	-0.041
Mof_O 	O 	0.2869	0.8372	0.7293	-0.054
_end
