data_functionalizedCrystal
_audit_creation_method	'EQeq! by Chris Wilmer'
_symmetry_space_group_name_H-M	'P1'
_symmetry_Int_Tables_number	1
_symmetry_cell_setting	triclinic
loop_
_symmetry_equiv_pos_as_xyz
  x,y,z
_cell_length_a	6.9994
_cell_length_b	20.539
_cell_length_c	20.539
_cell_angle_alpha	90
_cell_angle_beta	90
_cell_angle_gamma	90
loop_
_atom_site_label
_atom_site_type_symbol
_atom_site_fract_x
_atom_site_fract_y
_atom_site_fract_z
_atom_site_charge
Mof_Cu	Cu	0.66374	0.01897	0.02391	0.901
Mof_Cu	Cu	0.66374	0.48103	0.47609	0.901
Mof_Cu	Cu	0.16374	0.97609	0.51897	0.901
Mof_Cu	Cu	0.16374	0.52391	0.98103	0.901
Mof_Cu	Cu	0.33626	0.98103	0.97609	0.901
Mof_Cu	Cu	0.33626	0.51897	0.52391	0.901
Mof_Cu	Cu	0.83626	0.02391	0.48103	0.901
Mof_Cu	Cu	0.83626	0.47609	0.01897	0.901
Mof_H 	H 	0.0672	0.1717	0.028	0.041
Mof_H 	H 	0.9756	0.2819	0.0282	0.057
Mof_H 	H 	0.4565	0.3867	0.907	0.081
Mof_H 	H 	0.7272	0.3518	0.854	0.047
Mof_H 	H 	0.8259	0.2423	0.8606	0.043
Mof_H 	H 	0.651	0.1687	0.9209	0.069
Mof_H 	H 	0.0672	0.3283	0.472	0.042
Mof_H 	H 	0.9756	0.2181	0.4718	0.059
Mof_H 	H 	0.4565	0.1133	0.593	0.081
Mof_H 	H 	0.7272	0.1482	0.646	0.046
Mof_H 	H 	0.8259	0.2577	0.6394	0.043
Mof_H 	H 	0.651	0.3313	0.5791	0.068
Mof_H 	H 	0.5672	0.972	0.6717	0.043
Mof_H 	H 	0.4756	0.9718	0.7819	0.058
Mof_H 	H 	0.9565	0.093	0.8867	0.082
Mof_H 	H 	0.2272	0.146	0.8518	0.046
Mof_H 	H 	0.3259	0.1394	0.7423	0.044
Mof_H 	H 	0.151	0.0791	0.6687	0.068
Mof_H 	H 	0.5672	0.528	0.8283	0.043
Mof_H 	H 	0.4756	0.5282	0.7181	0.058
Mof_H 	H 	0.9565	0.407	0.6133	0.082
Mof_H 	H 	0.2272	0.354	0.6482	0.046
Mof_H 	H 	0.3259	0.3606	0.7577	0.044
Mof_H 	H 	0.151	0.4209	0.8313	0.068
Mof_H 	H 	0.9328	0.8283	0.972	0.042
Mof_H 	H 	0.0244	0.7181	0.9718	0.058
Mof_H 	H 	0.5435	0.6133	0.093	0.081
Mof_H 	H 	0.2728	0.6482	0.146	0.047
Mof_H 	H 	0.1741	0.7577	0.1394	0.043
Mof_H 	H 	0.349	0.8313	0.0791	0.069
Mof_H 	H 	0.9328	0.6717	0.528	0.042
Mof_H 	H 	0.0244	0.7819	0.5282	0.059
Mof_H 	H 	0.5435	0.8867	0.407	0.081
Mof_H 	H 	0.2728	0.8518	0.354	0.046
Mof_H 	H 	0.1741	0.7423	0.3606	0.043
Mof_H 	H 	0.349	0.6687	0.4209	0.068
Mof_H 	H 	0.4328	0.028	0.3283	0.043
Mof_H 	H 	0.5244	0.0282	0.2181	0.058
Mof_H 	H 	0.0435	0.907	0.1133	0.082
Mof_H 	H 	0.7728	0.854	0.1482	0.046
Mof_H 	H 	0.6741	0.8606	0.2577	0.044
Mof_H 	H 	0.849	0.9209	0.3313	0.068
Mof_H 	H 	0.4328	0.472	0.1717	0.043
Mof_H 	H 	0.5244	0.4718	0.2819	0.058
Mof_H 	H 	0.0435	0.593	0.3867	0.082
Mof_H 	H 	0.7728	0.646	0.3518	0.046
Mof_H 	H 	0.6741	0.6394	0.2423	0.044
Mof_H 	H 	0.849	0.5791	0.1687	0.068
Mof_C 	C 	0.3224	0.186	0.98432	-0.093
Mof_C 	C 	0.1493	0.20372	0.00976	-0.007
Mof_C 	C 	0.0935	0.26966	0.00884	-0.018
Mof_C 	C 	0.2061	0.31677	0.98042	-0.09
Mof_C 	C 	0.4935	0.34228	0.91021	-0.08
Mof_C 	C 	0.6543	0.32169	0.87878	-0.018
Mof_C 	C 	0.7137	0.2561	0.88265	-0.026
Mof_C 	C 	0.6096	0.21264	0.91809	-0.072
Mof_C 	C 	0.4399	0.23202	0.95098	0.042
Mof_C 	C 	0.38	0.29879	0.94767	0.044
Mof_C 	C 	0.3831	0.11619	0.9919	0.353
Mof_C 	C 	0.1348	0.38571	0.98737	0.351
Mof_C 	C 	0.3224	0.314	0.51568	-0.093
Mof_C 	C 	0.1493	0.29628	0.49024	-0.006
Mof_C 	C 	0.0935	0.23034	0.49116	-0.018
Mof_C 	C 	0.2061	0.18323	0.51958	-0.09
Mof_C 	C 	0.4935	0.15772	0.58979	-0.08
Mof_C 	C 	0.6543	0.17831	0.62122	-0.018
Mof_C 	C 	0.7137	0.2439	0.61735	-0.027
Mof_C 	C 	0.6096	0.28736	0.58191	-0.072
Mof_C 	C 	0.4399	0.26798	0.54902	0.042
Mof_C 	C 	0.38	0.20121	0.55233	0.044
Mof_C 	C 	0.3831	0.38381	0.5081	0.352
Mof_C 	C 	0.1348	0.11429	0.51263	0.351
Mof_C 	C 	0.8224	0.01568	0.686	-0.092
Mof_C 	C 	0.6493	0.99024	0.70372	-0.008
Mof_C 	C 	0.5935	0.99116	0.76966	-0.017
Mof_C 	C 	0.7061	0.01958	0.81677	-0.091
Mof_C 	C 	0.9935	0.08979	0.84228	-0.082
Mof_C 	C 	0.1543	0.12122	0.82169	-0.015
Mof_C 	C 	0.2137	0.11735	0.7561	-0.029
Mof_C 	C 	0.1096	0.08191	0.71264	-0.069
Mof_C 	C 	0.9399	0.04902	0.73202	0.04
Mof_C 	C 	0.88	0.05233	0.79879	0.046
Mof_C 	C 	0.8831	0.0081	0.61619	0.351
Mof_C 	C 	0.6348	0.01263	0.88571	0.353
Mof_C 	C 	0.8224	0.48432	0.814	-0.092
Mof_C 	C 	0.6493	0.50976	0.79628	-0.008
Mof_C 	C 	0.5935	0.50884	0.73034	-0.016
Mof_C 	C 	0.7061	0.48042	0.68323	-0.092
Mof_C 	C 	0.9935	0.41021	0.65772	-0.082
Mof_C 	C 	0.1543	0.37878	0.67831	-0.015
Mof_C 	C 	0.2137	0.38265	0.7439	-0.028
Mof_C 	C 	0.1096	0.41809	0.78736	-0.07
Mof_C 	C 	0.9399	0.45098	0.76798	0.04
Mof_C 	C 	0.88	0.44767	0.70121	0.045
Mof_C 	C 	0.8831	0.4919	0.88381	0.351
Mof_C 	C 	0.6348	0.48737	0.61429	0.352
Mof_C 	C 	0.6776	0.814	0.01568	-0.093
Mof_C 	C 	0.8507	0.79628	0.99024	-0.007
Mof_C 	C 	0.9065	0.73034	0.99116	-0.018
Mof_C 	C 	0.7939	0.68323	0.01958	-0.09
Mof_C 	C 	0.5065	0.65772	0.08979	-0.08
Mof_C 	C 	0.3457	0.67831	0.12122	-0.018
Mof_C 	C 	0.2863	0.7439	0.11735	-0.026
Mof_C 	C 	0.3904	0.78736	0.08191	-0.072
Mof_C 	C 	0.5601	0.76798	0.04902	0.042
Mof_C 	C 	0.62	0.70121	0.05233	0.044
Mof_C 	C 	0.6169	0.88381	0.0081	0.353
Mof_C 	C 	0.8652	0.61429	0.01263	0.351
Mof_C 	C 	0.6776	0.686	0.48432	-0.093
Mof_C 	C 	0.8507	0.70372	0.50976	-0.006
Mof_C 	C 	0.9065	0.76966	0.50884	-0.018
Mof_C 	C 	0.7939	0.81677	0.48042	-0.09
Mof_C 	C 	0.5065	0.84228	0.41021	-0.08
Mof_C 	C 	0.3457	0.82169	0.37878	-0.018
Mof_C 	C 	0.2863	0.7561	0.38265	-0.027
Mof_C 	C 	0.3904	0.71264	0.41809	-0.072
Mof_C 	C 	0.5601	0.73202	0.45098	0.042
Mof_C 	C 	0.62	0.79879	0.44767	0.044
Mof_C 	C 	0.6169	0.61619	0.4919	0.352
Mof_C 	C 	0.8652	0.88571	0.48737	0.351
Mof_C 	C 	0.1776	0.98432	0.314	-0.092
Mof_C 	C 	0.3507	0.00976	0.29628	-0.008
Mof_C 	C 	0.4065	0.00884	0.23034	-0.017
Mof_C 	C 	0.2939	0.98042	0.18323	-0.091
Mof_C 	C 	0.0065	0.91021	0.15772	-0.082
Mof_C 	C 	0.8457	0.87878	0.17831	-0.015
Mof_C 	C 	0.7863	0.88265	0.2439	-0.029
Mof_C 	C 	0.8904	0.91809	0.28736	-0.069
Mof_C 	C 	0.0601	0.95098	0.26798	0.04
Mof_C 	C 	0.12	0.94767	0.20121	0.046
Mof_C 	C 	0.1169	0.9919	0.38381	0.351
Mof_C 	C 	0.3652	0.98737	0.11429	0.353
Mof_C 	C 	0.1776	0.51568	0.186	-0.092
Mof_C 	C 	0.3507	0.49024	0.20372	-0.008
Mof_C 	C 	0.4065	0.49116	0.26966	-0.016
Mof_C 	C 	0.2939	0.51958	0.31677	-0.092
Mof_C 	C 	0.0065	0.58979	0.34228	-0.082
Mof_C 	C 	0.8457	0.62122	0.32169	-0.015
Mof_C 	C 	0.7863	0.61735	0.2561	-0.028
Mof_C 	C 	0.8904	0.58191	0.21264	-0.07
Mof_C 	C 	0.0601	0.54902	0.23202	0.04
Mof_C 	C 	0.12	0.55233	0.29879	0.045
Mof_C 	C 	0.1169	0.5081	0.11619	0.351
Mof_C 	C 	0.3652	0.51263	0.38571	0.352
Mof_O 	O 	0.5484	0.1059	0.01488	-0.406
Mof_O 	O 	0.2655	0.07344	0.97519	-0.407
Mof_O 	O 	0.2492	0.43251	0.97618	-0.406
Mof_O 	O 	0.9653	0.39259	0.00537	-0.408
Mof_O 	O 	0.5484	0.3941	0.48512	-0.405
Mof_O 	O 	0.2655	0.42656	0.52481	-0.407
Mof_O 	O 	0.2492	0.06749	0.52382	-0.406
Mof_O 	O 	0.9653	0.10741	0.49463	-0.408
Mof_O 	O 	0.0484	0.98512	0.6059	-0.405
Mof_O 	O 	0.7655	0.02481	0.57344	-0.407
Mof_O 	O 	0.7492	0.02382	0.93251	-0.406
Mof_O 	O 	0.4653	0.99463	0.89259	-0.409
Mof_O 	O 	0.0484	0.51488	0.8941	-0.405
Mof_O 	O 	0.7655	0.47519	0.92656	-0.407
Mof_O 	O 	0.7492	0.47618	0.56749	-0.407
Mof_O 	O 	0.4653	0.50537	0.60741	-0.408
Mof_O 	O 	0.4516	0.8941	0.98512	-0.406
Mof_O 	O 	0.7345	0.92656	0.02481	-0.407
Mof_O 	O 	0.7508	0.56749	0.02382	-0.406
Mof_O 	O 	0.0347	0.60741	0.99463	-0.408
Mof_O 	O 	0.4516	0.6059	0.51488	-0.405
Mof_O 	O 	0.7345	0.57344	0.47519	-0.407
Mof_O 	O 	0.7508	0.93251	0.47618	-0.406
Mof_O 	O 	0.0347	0.89259	0.50537	-0.408
Mof_O 	O 	0.9516	0.01488	0.3941	-0.405
Mof_O 	O 	0.2345	0.97519	0.42656	-0.407
Mof_O 	O 	0.2508	0.97618	0.06749	-0.406
Mof_O 	O 	0.5347	0.00537	0.10741	-0.409
Mof_O 	O 	0.9516	0.48512	0.1059	-0.405
Mof_O 	O 	0.2345	0.52481	0.07344	-0.407
Mof_O 	O 	0.2508	0.52382	0.43251	-0.407
Mof_O 	O 	0.5347	0.49463	0.39259	-0.408
_end
