# CIF file generated by openbabel 3.1.0, see https://openbabel.org
data_I
_chemical_name_common 'image0'
_cell_length_a 13.111
_cell_length_b 14.791
_cell_length_c 15.671
_cell_angle_alpha 90
_cell_angle_beta 92.625
_cell_angle_gamma 90
_space_group_name_H-M_alt 'P 1'
_space_group_name_Hall 'P 1'
loop_
    _symmetry_equiv_pos_as_xyz
    x,y,z
loop_
    _atom_site_label
    _atom_site_type_symbol
    _atom_site_fract_x
    _atom_site_fract_y
    _atom_site_fract_z
    _atom_site_occupancy
    Cu1      Cu       0.52586    0.19820    0.39180    1.000
    C1       C        0.88740    0.17890    0.79990    1.000
    H1       H        0.90630    0.14120    0.84550    1.000
    C2       C        0.81840    0.14720    0.73830    1.000
    H2       H        0.79230    0.08900    0.74160    1.000
    C3       C        0.78860    0.20370    0.67110    1.000
    C4       C        0.82960    0.28870    0.66940    1.000
    H3       H        0.81060    0.32850    0.62550    1.000
    C5       C        0.89920    0.31520    0.73290    1.000
    H4       H        0.92690    0.37300    0.73090    1.000
    C6       C        0.71330    0.17280    0.60600    1.000
    C7       C        0.16930    0.24810    0.76520    1.000
    H5       H        0.14740    0.30270    0.74120    1.000
    C8       C        0.23530    0.19510    0.72080    1.000
    H6       H        0.25730    0.21370    0.66800    1.000
    C9       C        0.26840    0.11350    0.75590    1.000
    C10      C        0.23320    0.09000    0.83420    1.000
    H7       H        0.25370    0.03580    0.85980    1.000
    C11      C        0.16770    0.14640    0.87450    1.000
    H8       H        0.14500    0.12930    0.92760    1.000
    C12      C        0.33600    0.05550    0.70861    1.000
    N1       N        0.92800    0.26072    0.79724    1.000
    N2       N        0.68540    0.22122    0.53608    1.000
    N3       N        0.61610    0.16957    0.49612    1.000
    N4       N        0.60300    0.09381    0.53972    1.000
    N5       N        0.66390    0.09377    0.60968    1.000
    N6       N        0.13540    0.22434    0.84097    1.000
    N7       N        0.37850    0.08184    0.63626    1.000
    N8       N        0.42960    0.00954    0.61246    1.000
    N9       N        0.41880    0.94268    0.66698    1.000
    N10      N        0.36000    0.96976    0.72915    1.000
    N11      N        0.41690    0.12503    0.44235    1.000
    N12      N        0.33060    0.13560    0.42810    1.000
    N13      N        0.24510    0.14490    0.41480    1.000
    Cu2      Cu       0.97414    0.69820    0.10820    1.000
    C13      C        0.61260    0.67890    0.70010    1.000
    H9       H        0.59370    0.64120    0.65450    1.000
    C14      C        0.68160    0.64720    0.76170    1.000
    H10      H        0.70770    0.58900    0.75840    1.000
    C15      C        0.71140    0.70370    0.82890    1.000
    C16      C        0.67040    0.78870    0.83060    1.000
    H11      H        0.68940    0.82850    0.87450    1.000
    C17      C        0.60080    0.81520    0.76710    1.000
    H12      H        0.57310    0.87300    0.76910    1.000
    C18      C        0.78670    0.67280    0.89400    1.000
    C19      C        0.33070    0.74810    0.73480    1.000
    H13      H        0.35260    0.80270    0.75880    1.000
    C20      C        0.26470    0.69510    0.77920    1.000
    H14      H        0.24270    0.71370    0.83200    1.000
    C21      C        0.23160    0.61350    0.74410    1.000
    C22      C        0.26680    0.59000    0.66580    1.000
    H15      H        0.24630    0.53580    0.64020    1.000
    C23      C        0.33230    0.64640    0.62550    1.000
    H16      H        0.35500    0.62930    0.57240    1.000
    C24      C        0.16400    0.55550    0.79139    1.000
    N14      N        0.57200    0.76072    0.70276    1.000
    N15      N        0.81460    0.72122    0.96392    1.000
    N16      N        0.88390    0.66957    0.00388    1.000
    N17      N        0.89700    0.59381    0.96028    1.000
    N18      N        0.83610    0.59377    0.89032    1.000
    N19      N        0.36460    0.72434    0.65903    1.000
    N20      N        0.12150    0.58184    0.86374    1.000
    N21      N        0.07040    0.50954    0.88754    1.000
    N22      N        0.08120    0.44268    0.83302    1.000
    N23      N        0.14000    0.46976    0.77085    1.000
    N24      N        0.08310    0.62503    0.05765    1.000
    N25      N        0.16940    0.63560    0.07190    1.000
    N26      N        0.25490    0.64490    0.08520    1.000
    Cu3      Cu       0.47414    0.80180    0.60820    1.000
    C25      C        0.11260    0.82110    0.20010    1.000
    H17      H        0.09370    0.85880    0.15450    1.000
    C26      C        0.18160    0.85280    0.26170    1.000
    H18      H        0.20770    0.91100    0.25840    1.000
    C27      C        0.21140    0.79630    0.32890    1.000
    C28      C        0.17040    0.71130    0.33060    1.000
    H19      H        0.18940    0.67150    0.37450    1.000
    C29      C        0.10080    0.68480    0.26710    1.000
    H20      H        0.07310    0.62700    0.26910    1.000
    C30      C        0.28670    0.82720    0.39400    1.000
    C31      C        0.83070    0.75190    0.23480    1.000
    H21      H        0.85260    0.69730    0.25880    1.000
    C32      C        0.76470    0.80490    0.27920    1.000
    H22      H        0.74270    0.78630    0.33200    1.000
    C33      C        0.73160    0.88650    0.24410    1.000
    C34      C        0.76680    0.91000    0.16580    1.000
    H23      H        0.74630    0.96420    0.14020    1.000
    C35      C        0.83230    0.85360    0.12550    1.000
    H24      H        0.85500    0.87070    0.07240    1.000
    C36      C        0.66400    0.94450    0.29139    1.000
    N27      N        0.07200    0.73928    0.20276    1.000
    N28      N        0.31460    0.77878    0.46392    1.000
    N29      N        0.38390    0.83043    0.50388    1.000
    N30      N        0.39700    0.90619    0.46028    1.000
    N31      N        0.33610    0.90623    0.39032    1.000
    N32      N        0.86460    0.77566    0.15903    1.000
    N33      N        0.62150    0.91816    0.36374    1.000
    N34      N        0.57040    0.99046    0.38754    1.000
    N35      N        0.58120    0.05732    0.33302    1.000
    N36      N        0.64000    0.03024    0.27085    1.000
    N37      N        0.58310    0.87497    0.55765    1.000
    N38      N        0.66940    0.86440    0.57190    1.000
    N39      N        0.75490    0.85510    0.58520    1.000
    Cu4      Cu       0.02586    0.30180    0.89180    1.000
    C37      C        0.38740    0.32110    0.29990    1.000
    H25      H        0.40630    0.35880    0.34550    1.000
    C38      C        0.31840    0.35280    0.23830    1.000
    H26      H        0.29230    0.41100    0.24160    1.000
    C39      C        0.28860    0.29630    0.17110    1.000
    C40      C        0.32960    0.21130    0.16940    1.000
    H27      H        0.31060    0.17150    0.12550    1.000
    C41      C        0.39920    0.18480    0.23290    1.000
    H28      H        0.42690    0.12700    0.23090    1.000
    C42      C        0.21330    0.32720    0.10600    1.000
    C43      C        0.66930    0.25190    0.26520    1.000
    H29      H        0.64740    0.19730    0.24120    1.000
    C44      C        0.73530    0.30490    0.22080    1.000
    H30      H        0.75730    0.28630    0.16800    1.000
    C45      C        0.76840    0.38650    0.25590    1.000
    C46      C        0.73320    0.41000    0.33420    1.000
    H31      H        0.75370    0.46420    0.35980    1.000
    C47      C        0.66770    0.35360    0.37450    1.000
    H32      H        0.64500    0.37070    0.42760    1.000
    C48      C        0.83600    0.44450    0.20861    1.000
    N40      N        0.42800    0.23928    0.29724    1.000
    N41      N        0.18540    0.27878    0.03608    1.000
    N42      N        0.11610    0.33043    0.99612    1.000
    N43      N        0.10300    0.40619    0.03972    1.000
    N44      N        0.16390    0.40623    0.10968    1.000
    N45      N        0.63540    0.27566    0.34097    1.000
    N46      N        0.87850    0.41816    0.13626    1.000
    N47      N        0.92960    0.49046    0.11246    1.000
    N48      N        0.91880    0.55732    0.16698    1.000
    N49      N        0.86000    0.53024    0.22915    1.000
    N50      N        0.91690    0.37497    0.94235    1.000
    N51      N        0.83060    0.36440    0.92810    1.000
    N52      N        0.74510    0.35510    0.91480    1.000
    Cu5      Cu       0.50000    0.00000    0.50000    1.000
    Cu6      Cu       0.00000    0.50000    0.00000    1.000
