data_functionalizedCrystal
_audit_creation_method	'EQeq! by Chris Wilmer'
_symmetry_space_group_name_H-M	'P1'
_symmetry_Int_Tables_number	1
_symmetry_cell_setting	triclinic
loop_
_symmetry_equiv_pos_as_xyz
  x,y,z
_cell_length_a	18.4148
_cell_length_b	29.5574
_cell_length_c	16.3155
_cell_angle_alpha	90
_cell_angle_beta	119.269
_cell_angle_gamma	90
loop_
_atom_site_label
_atom_site_type_symbol
_atom_site_fract_x
_atom_site_fract_y
_atom_site_fract_z
_atom_site_charge
Mof_Cd	Cd	0.09561	0.63063	0.13057	0.251
Mof_O 	O 	0.09089	0.59639	0.2496	-0.707
Mof_O 	O 	0.0609	0.43044	0.5327	-0.361
Mof_O 	O 	0.95888	0.66197	0.0841	-0.621
Mof_O 	O 	0.70589	0.82704	0.7215	-0.784
Mof_O 	O 	0.367	0.66394	0.1769	-0.74
Mof_O 	O 	0.5561	0.57734	0.3656	-0.432
Mof_O 	O 	0.2137	0.57013	0.2782	-0.759
Mof_O 	O 	0.1863	0.40501	0.5733	-0.719
Mof_O 	O 	0.6201	0.79523	0.7639	-0.707
Mof_O 	O 	0.4519	0.69354	0.1334	-0.352
Mof_O 	O 	0.0259	0.68179	0.0095	-0.406
Mof_C 	C 	0.2096	0.5032	0.3989	0.065
Mof_H 	H 	0.2555	0.5036	0.3895	-0.015
Mof_O 	O 	0.4272	0.59182	0.3274	-0.852
Mof_C 	C 	0.3303	0.75673	0.0169	-0.026
Mof_H 	H 	0.3844	0.7614	0.0284	0.054
Mof_C 	C 	0.7516	0.73994	0.8953	0.081
Mof_H 	H 	0.7017	0.7392	0.8967	-0.028
Mof_C 	C 	0.204	0.47028	0.4566	-0.065
Mof_H 	H 	0.2461	0.4489	0.4856	0.019
Mof_C 	C 	0.8172	0.71284	0.9563	-0.067
Mof_H 	H 	0.8111	0.6941	0.9984	0.017
Mof_C 	C 	0.6893	0.79872	0.7681	0.612
Mof_C 	C 	0.8917	0.71338	0.9551	-0.092
Mof_C 	C 	0.075	0.5012	0.4281	-0.091
Mof_H 	H 	0.0292	0.5006	0.4376	0.045
Mof_C 	C 	0.4309	0.52751	0.4571	0.031
Mof_H 	H 	0.3843	0.5461	0.4286	-0.045
Mof_C 	C 	0.1478	0.53542	0.3554	-0.263
Mof_C 	C 	0.1364	0.46928	0.4708	-0.102
Mof_C 	C 	0.1524	0.56989	0.2907	0.609
Mof_C 	C 	0.4959	0.53374	0.4387	-0.205
Mof_C 	C 	0.8991	0.74086	0.8923	-0.093
Mof_H 	H 	0.9489	0.7412	0.8906	0.105
Mof_C 	C 	0.2325	0.71572	0.0451	0.044
Mof_H 	H 	0.2208	0.6927	0.0757	-0.033
Mof_C 	C 	0.314	0.72205	0.0626	-0.163
Mof_C 	C 	0.5651	0.5059	0.4827	-0.015
Mof_H 	H 	0.6094	0.5099	0.4712	0.014
Mof_C 	C 	0.7594	0.76793	0.8328	-0.28
Mof_C 	C 	0.8343	0.76811	0.8314	0.114
Mof_H 	H 	0.8407	0.7867	0.7893	-0.076
Mof_C 	C 	0.3824	0.69154	0.1287	0.504
Mof_C 	C 	0.0803	0.53405	0.3715	0.094
Mof_H 	H 	0.0383	0.5555	0.3437	-0.063
Mof_C 	C 	0.9633	0.68374	0.0211	0.519
Mof_C 	C 	0.1281	0.43241	0.5305	0.441
Mof_C 	C 	0.4922	0.57014	0.3725	0.563
Mof_Na	Na	0.29578	0.61398	0.22518	3.236
Mof_Cd	Cd	0.59561	0.13063	0.13057	0.265
Mof_O 	O 	0.59089	0.09639	0.2496	-0.727
Mof_O 	O 	0.5609	0.93044	0.5327	-0.332
Mof_O 	O 	0.45888	0.16197	0.0841	-0.682
Mof_O 	O 	0.20589	0.32704	0.7215	-0.773
Mof_O 	O 	0.867	0.16394	0.1769	-0.719
Mof_O 	O 	0.0561	0.07734	0.3656	-0.492
Mof_O 	O 	0.7137	0.07013	0.2782	-0.768
Mof_O 	O 	0.6863	0.90501	0.5733	-0.719
Mof_O 	O 	0.1201	0.29523	0.7639	-0.684
Mof_O 	O 	0.9519	0.19354	0.1334	-0.299
Mof_O 	O 	0.5259	0.18179	0.0095	-0.323
Mof_C 	C 	0.7096	0.0032	0.3989	0.084
Mof_H 	H 	0.7555	0.0036	0.3895	-0.016
Mof_O 	O 	0.9272	0.09182	0.3274	-0.841
Mof_C 	C 	0.8303	0.25673	0.0169	-0.029
Mof_H 	H 	0.8844	0.2614	0.0284	0.069
Mof_C 	C 	0.2516	0.23994	0.8953	0.077
Mof_H 	H 	0.2017	0.2392	0.8967	-0.031
Mof_C 	C 	0.704	0.97028	0.4566	-0.073
Mof_H 	H 	0.7461	0.9489	0.4856	0.029
Mof_C 	C 	0.3172	0.21284	0.9563	-0.076
Mof_H 	H 	0.3111	0.1941	0.9984	0.011
Mof_C 	C 	0.1893	0.29872	0.7681	0.596
Mof_C 	C 	0.3917	0.21338	0.9551	-0.087
Mof_C 	C 	0.575	0.0012	0.4281	-0.099
Mof_H 	H 	0.5292	0.0006	0.4376	0.076
Mof_C 	C 	0.9309	0.02751	0.4571	-0.189
Mof_H 	H 	0.8843	0.0461	0.4286	0.035
Mof_C 	C 	0.6478	0.03542	0.3554	-0.271
Mof_C 	C 	0.6364	0.96928	0.4708	-0.081
Mof_C 	C 	0.6524	0.06989	0.2907	0.63
Mof_C 	C 	0.9959	0.03374	0.4387	0.033
Mof_C 	C 	0.3991	0.24086	0.8923	-0.106
Mof_H 	H 	0.4489	0.2412	0.8906	0.077
Mof_C 	C 	0.7325	0.21572	0.0451	0.046
Mof_H 	H 	0.7208	0.1927	0.0757	-0.033
Mof_C 	C 	0.814	0.22205	0.0626	-0.151
Mof_C 	C 	0.0651	0.0059	0.4827	-0.317
Mof_H 	H 	0.1094	0.0099	0.4712	0.104
Mof_C 	C 	0.2594	0.26793	0.8328	-0.279
Mof_C 	C 	0.3343	0.26811	0.8314	0.107
Mof_H 	H 	0.3407	0.2867	0.7893	-0.081
Mof_C 	C 	0.8824	0.19154	0.1287	0.5
Mof_C 	C 	0.5803	0.03405	0.3715	0.118
Mof_H 	H 	0.5383	0.0555	0.3437	-0.049
Mof_C 	C 	0.4633	0.18374	0.0211	0.427
Mof_C 	C 	0.6281	0.93241	0.5305	0.437
Mof_C 	C 	0.9922	0.07014	0.3725	0.596
Mof_Na	Na	0.79578	0.11398	0.22518	3.28
Mof_Cd	Cd	0.90439	0.63063	0.36943	0.31
Mof_O 	O 	0.90911	0.59639	0.2504	-0.655
Mof_O 	O 	0.9391	0.43044	0.9673	-0.301
Mof_O 	O 	0.04112	0.66197	0.4159	-0.641
Mof_O 	O 	0.29411	0.82704	0.7785	-0.78
Mof_O 	O 	0.633	0.66394	0.3231	-0.741
Mof_O 	O 	0.4439	0.57734	0.1344	-0.433
Mof_O 	O 	0.7863	0.57013	0.2218	-0.753
Mof_O 	O 	0.8137	0.40501	0.9267	-0.713
Mof_O 	O 	0.3799	0.79523	0.7361	-0.709
Mof_O 	O 	0.5481	0.69354	0.3666	-0.352
Mof_O 	O 	0.9741	0.68179	0.4905	-0.222
Mof_C 	C 	0.7904	0.5032	0.1011	0.07
Mof_H 	H 	0.7445	0.5036	0.1105	-0.011
Mof_O 	O 	0.5728	0.59182	0.1726	-0.853
Mof_C 	C 	0.6697	0.75673	0.4831	-0.014
Mof_H 	H 	0.6156	0.7614	0.4716	0.051
Mof_C 	C 	0.2484	0.73994	0.6047	0.108
Mof_H 	H 	0.2983	0.7392	0.6033	-0.038
Mof_C 	C 	0.796	0.47028	0.0434	-0.064
Mof_H 	H 	0.7539	0.4489	0.0144	0.024
Mof_C 	C 	0.1828	0.71284	0.5437	-0.119
Mof_H 	H 	0.1889	0.6941	0.5016	0.032
Mof_C 	C 	0.3107	0.79872	0.7319	0.615
Mof_C 	C 	0.1083	0.71338	0.5449	-0.039
Mof_C 	C 	0.925	0.5012	0.0719	-0.083
Mof_H 	H 	0.9708	0.5006	0.0624	0.1
Mof_C 	C 	0.5691	0.52751	0.0429	0.038
Mof_H 	H 	0.6157	0.5461	0.0714	-0.046
Mof_C 	C 	0.8522	0.53542	0.1446	-0.24
Mof_C 	C 	0.8636	0.46928	0.0292	-0.076
Mof_C 	C 	0.8476	0.56989	0.2093	0.606
Mof_C 	C 	0.5041	0.53374	0.0613	-0.209
Mof_C 	C 	0.1009	0.74086	0.6077	-0.148
Mof_H 	H 	0.0511	0.7412	0.6094	0.062
Mof_C 	C 	0.7675	0.71572	0.4549	0.063
Mof_H 	H 	0.7792	0.6927	0.4243	-0.037
Mof_C 	C 	0.686	0.72205	0.4374	-0.17
Mof_C 	C 	0.4349	0.5059	0.0173	-0.009
Mof_H 	H 	0.3906	0.5099	0.0288	0.011
Mof_C 	C 	0.2406	0.76793	0.6672	-0.303
Mof_C 	C 	0.1657	0.76811	0.6686	0.13
Mof_H 	H 	0.1593	0.7867	0.7107	-0.095
Mof_C 	C 	0.6176	0.69154	0.3713	0.508
Mof_C 	C 	0.9197	0.53405	0.1285	0.107
Mof_H 	H 	0.9617	0.5555	0.1563	-0.008
Mof_C 	C 	0.0367	0.68374	0.4789	0.29
Mof_C 	C 	0.8719	0.43241	0.9695	0.432
Mof_C 	C 	0.5078	0.57014	0.1275	0.565
Mof_Na	Na	0.70422	0.61398	0.27482	3.24
Mof_Cd	Cd	0.40439	0.13063	0.36943	0.267
Mof_O 	O 	0.40911	0.09639	0.2504	-0.726
Mof_O 	O 	0.4391	0.93044	0.9673	-0.331
Mof_O 	O 	0.54112	0.16197	0.4159	-0.681
Mof_O 	O 	0.79411	0.32704	0.7785	-0.77
Mof_O 	O 	0.133	0.16394	0.3231	-0.744
Mof_O 	O 	0.9439	0.07734	0.1344	-0.353
Mof_O 	O 	0.2863	0.07013	0.2218	-0.762
Mof_O 	O 	0.3137	0.90501	0.9267	-0.715
Mof_O 	O 	0.8799	0.29523	0.7361	-0.636
Mof_O 	O 	0.0481	0.19354	0.3666	-0.387
Mof_O 	O 	0.4741	0.18179	0.4905	-0.323
Mof_C 	C 	0.2904	0.0032	0.1011	0.076
Mof_H 	H 	0.2445	0.0036	0.1105	-0.019
Mof_O 	O 	0.0728	0.09182	0.1726	-0.852
Mof_C 	C 	0.1697	0.25673	0.4831	-0.014
Mof_H 	H 	0.1156	0.2614	0.4716	0.037
Mof_C 	C 	0.7484	0.23994	0.6047	0.069
Mof_H 	H 	0.7983	0.2392	0.6033	-0.014
Mof_C 	C 	0.296	0.97028	0.0434	-0.076
Mof_H 	H 	0.2539	0.9489	0.0144	0.021
Mof_C 	C 	0.6828	0.21284	0.5437	-0.065
Mof_H 	H 	0.6889	0.1941	0.5016	0.013
Mof_C 	C 	0.8107	0.29872	0.7319	0.589
Mof_C 	C 	0.6083	0.21338	0.5449	-0.089
Mof_C 	C 	0.425	0.0012	0.0719	-0.101
Mof_H 	H 	0.4708	0.0006	0.0624	0.077
Mof_C 	C 	0.0691	0.02751	0.0429	0.256
Mof_H 	H 	0.1157	0.0461	0.0714	-0.126
Mof_C 	C 	0.3522	0.03542	0.1446	-0.269
Mof_C 	C 	0.3636	0.96928	0.0292	-0.081
Mof_C 	C 	0.3476	0.06989	0.2093	0.625
Mof_C 	C 	0.0041	0.03374	0.0613	-0.441
Mof_C 	C 	0.6009	0.24086	0.6077	-0.098
Mof_H 	H 	0.5511	0.2412	0.6094	0.075
Mof_C 	C 	0.2675	0.21572	0.4549	0.058
Mof_H 	H 	0.2792	0.1927	0.4243	-0.037
Mof_C 	C 	0.186	0.22205	0.4374	-0.18
Mof_C 	C 	0.9349	0.0059	0.0173	0.287
Mof_H 	H 	0.8906	0.0099	0.0288	-0.078
Mof_C 	C 	0.7406	0.26793	0.6672	-0.263
Mof_C 	C 	0.6657	0.26811	0.6686	0.1
Mof_H 	H 	0.6593	0.2867	0.7107	-0.078
Mof_C 	C 	0.1176	0.19154	0.3713	0.511
Mof_C 	C 	0.4197	0.03405	0.1285	0.116
Mof_H 	H 	0.4617	0.0555	0.1563	-0.049
Mof_C 	C 	0.5367	0.18374	0.4789	0.428
Mof_C 	C 	0.3719	0.93241	0.9695	0.432
Mof_C 	C 	0.0078	0.07014	0.1275	0.531
Mof_Na	Na	0.20422	0.11398	0.27482	3.229
Mof_Cd	Cd	0.90439	0.36937	0.86943	0.309
Mof_O 	O 	0.90911	0.40361	0.7504	-0.655
Mof_O 	O 	0.9391	0.56956	0.4673	-0.3
Mof_O 	O 	0.04112	0.33803	0.9159	-0.641
Mof_O 	O 	0.29411	0.17296	0.2785	-0.781
Mof_O 	O 	0.633	0.33606	0.8231	-0.74
Mof_O 	O 	0.4439	0.42266	0.6344	-0.433
Mof_O 	O 	0.7863	0.42987	0.7218	-0.753
Mof_O 	O 	0.8137	0.59499	0.4267	-0.714
Mof_O 	O 	0.3799	0.20477	0.2361	-0.709
Mof_O 	O 	0.5481	0.30646	0.8666	-0.352
Mof_O 	O 	0.9741	0.31821	0.9905	-0.224
Mof_C 	C 	0.7904	0.4968	0.6011	0.07
Mof_H 	H 	0.7445	0.4964	0.6105	-0.011
Mof_O 	O 	0.5728	0.40818	0.6726	-0.852
Mof_C 	C 	0.6697	0.24327	0.9831	-0.019
Mof_H 	H 	0.6156	0.2386	0.9716	0.052
Mof_C 	C 	0.2484	0.26006	0.1047	0.109
Mof_H 	H 	0.2983	0.2608	0.1033	-0.038
Mof_C 	C 	0.796	0.52972	0.5434	-0.064
Mof_H 	H 	0.7539	0.5511	0.5144	0.023
Mof_C 	C 	0.1828	0.28716	0.0437	-0.12
Mof_H 	H 	0.1889	0.3059	0.0016	0.033
Mof_C 	C 	0.3107	0.20128	0.2319	0.615
Mof_C 	C 	0.1083	0.28662	0.0449	-0.037
Mof_C 	C 	0.925	0.4988	0.5719	-0.082
Mof_H 	H 	0.9708	0.4994	0.5624	0.1
Mof_C 	C 	0.5691	0.47249	0.5429	0.033
Mof_H 	H 	0.6157	0.4539	0.5714	-0.045
Mof_C 	C 	0.8522	0.46458	0.6446	-0.24
Mof_C 	C 	0.8636	0.53072	0.5292	-0.077
Mof_C 	C 	0.8476	0.43011	0.7093	0.605
Mof_C 	C 	0.5041	0.46626	0.5613	-0.206
Mof_C 	C 	0.1009	0.25914	0.1077	-0.149
Mof_H 	H 	0.0511	0.2588	0.1094	0.063
Mof_C 	C 	0.7675	0.28428	0.9549	0.058
Mof_H 	H 	0.7792	0.3073	0.9243	-0.036
Mof_C 	C 	0.686	0.27795	0.9374	-0.168
Mof_C 	C 	0.4349	0.4941	0.5173	-0.014
Mof_H 	H 	0.3906	0.4901	0.5288	0.013
Mof_C 	C 	0.2406	0.23207	0.1672	-0.304
Mof_C 	C 	0.1657	0.23189	0.1686	0.132
Mof_H 	H 	0.1593	0.2133	0.2107	-0.096
Mof_C 	C 	0.6176	0.30846	0.8713	0.507
Mof_C 	C 	0.9197	0.46595	0.6285	0.106
Mof_H 	H 	0.9617	0.4445	0.6563	-0.007
Mof_C 	C 	0.0367	0.31626	0.9789	0.29
Mof_C 	C 	0.8719	0.56759	0.4695	0.433
Mof_C 	C 	0.5078	0.42986	0.6275	0.563
Mof_Na	Na	0.70422	0.38602	0.77482	3.238
Mof_Cd	Cd	0.40439	0.86937	0.86943	0.267
Mof_O 	O 	0.40911	0.90361	0.7504	-0.726
Mof_O 	O 	0.4391	0.06956	0.4673	-0.331
Mof_O 	O 	0.54112	0.83803	0.9159	-0.681
Mof_O 	O 	0.79411	0.67296	0.2785	-0.77
Mof_O 	O 	0.133	0.83606	0.8231	-0.743
Mof_O 	O 	0.9439	0.92266	0.6344	-0.352
Mof_O 	O 	0.2863	0.92987	0.7218	-0.762
Mof_O 	O 	0.3137	0.09499	0.4267	-0.715
Mof_O 	O 	0.8799	0.70477	0.2361	-0.637
Mof_O 	O 	0.0481	0.80646	0.8666	-0.387
Mof_O 	O 	0.4741	0.81821	0.9905	-0.323
Mof_C 	C 	0.2904	0.9968	0.6011	0.074
Mof_H 	H 	0.2445	0.9964	0.6105	-0.019
Mof_O 	O 	0.0728	0.90818	0.6726	-0.852
Mof_C 	C 	0.1697	0.74327	0.9831	-0.02
Mof_H 	H 	0.1156	0.7386	0.9716	0.039
Mof_C 	C 	0.7484	0.76006	0.1047	0.071
Mof_H 	H 	0.7983	0.7608	0.1033	-0.014
Mof_C 	C 	0.296	0.02972	0.5434	-0.075
Mof_H 	H 	0.2539	0.0511	0.5144	0.019
Mof_C 	C 	0.6828	0.78716	0.0437	-0.067
Mof_H 	H 	0.6889	0.8059	0.0016	0.014
Mof_C 	C 	0.8107	0.70128	0.2319	0.589
Mof_C 	C 	0.6083	0.78662	0.0449	-0.087
Mof_C 	C 	0.425	0.9988	0.5719	-0.099
Mof_H 	H 	0.4708	0.9994	0.5624	0.076
Mof_C 	C 	0.0691	0.97249	0.5429	0.254
Mof_H 	H 	0.1157	0.9539	0.5714	-0.126
Mof_C 	C 	0.3522	0.96458	0.6446	-0.269
Mof_C 	C 	0.3636	0.03072	0.5292	-0.084
Mof_C 	C 	0.3476	0.93011	0.7093	0.625
Mof_C 	C 	0.0041	0.96626	0.5613	-0.442
Mof_C 	C 	0.6009	0.75914	0.1077	-0.099
Mof_H 	H 	0.5511	0.7588	0.1094	0.076
Mof_C 	C 	0.2675	0.78428	0.9549	0.052
Mof_H 	H 	0.2792	0.8073	0.9243	-0.035
Mof_C 	C 	0.186	0.77795	0.9374	-0.176
Mof_C 	C 	0.9349	0.9941	0.5173	0.288
Mof_H 	H 	0.8906	0.9901	0.5288	-0.078
Mof_C 	C 	0.7406	0.73207	0.1672	-0.264
Mof_C 	C 	0.6657	0.73189	0.1686	0.101
Mof_H 	H 	0.6593	0.7133	0.2107	-0.078
Mof_C 	C 	0.1176	0.80846	0.8713	0.509
Mof_C 	C 	0.4197	0.96595	0.6285	0.115
Mof_H 	H 	0.4617	0.9445	0.6563	-0.048
Mof_C 	C 	0.5367	0.81626	0.9789	0.426
Mof_C 	C 	0.3719	0.06759	0.4695	0.434
Mof_C 	C 	0.0078	0.92986	0.6275	0.53
Mof_Na	Na	0.20422	0.88602	0.77482	3.227
Mof_Cd	Cd	0.09561	0.36937	0.63057	0.25
Mof_O 	O 	0.09089	0.40361	0.7496	-0.708
Mof_O 	O 	0.0609	0.56956	0.0327	-0.362
Mof_O 	O 	0.95888	0.33803	0.5841	-0.62
Mof_O 	O 	0.70589	0.17296	0.2215	-0.784
Mof_O 	O 	0.367	0.33606	0.6769	-0.739
Mof_O 	O 	0.5561	0.42266	0.8656	-0.432
Mof_O 	O 	0.2137	0.42987	0.7782	-0.759
Mof_O 	O 	0.1863	0.59499	0.0733	-0.72
Mof_O 	O 	0.6201	0.20477	0.2639	-0.707
Mof_O 	O 	0.4519	0.30646	0.6334	-0.352
Mof_O 	O 	0.0259	0.31821	0.5095	-0.407
Mof_C 	C 	0.2096	0.4968	0.8989	0.064
Mof_H 	H 	0.2555	0.4964	0.8895	-0.015
Mof_O 	O 	0.4272	0.40818	0.8274	-0.851
Mof_C 	C 	0.3303	0.24327	0.5169	-0.032
Mof_H 	H 	0.3844	0.2386	0.5284	0.056
Mof_C 	C 	0.7516	0.26006	0.3953	0.083
Mof_H 	H 	0.7017	0.2608	0.3967	-0.028
Mof_C 	C 	0.204	0.52972	0.9566	-0.064
Mof_H 	H 	0.2461	0.5511	0.9856	0.018
Mof_C 	C 	0.8172	0.28716	0.4563	-0.068
Mof_H 	H 	0.8111	0.3059	0.4984	0.018
Mof_C 	C 	0.6893	0.20128	0.2681	0.612
Mof_C 	C 	0.8917	0.28662	0.4551	-0.09
Mof_C 	C 	0.075	0.4988	0.9281	-0.089
Mof_H 	H 	0.0292	0.4994	0.9376	0.044
Mof_C 	C 	0.4309	0.47249	0.9571	0.026
Mof_H 	H 	0.3843	0.4539	0.9286	-0.043
Mof_C 	C 	0.1478	0.46458	0.8554	-0.263
Mof_C 	C 	0.1364	0.53072	0.9708	-0.105
Mof_C 	C 	0.1524	0.43011	0.7907	0.608
Mof_C 	C 	0.4959	0.46626	0.9387	-0.201
Mof_C 	C 	0.8991	0.25914	0.3923	-0.094
Mof_H 	H 	0.9489	0.2588	0.3906	0.106
Mof_C 	C 	0.2325	0.28428	0.5451	0.038
Mof_H 	H 	0.2208	0.3073	0.5757	-0.031
Mof_C 	C 	0.314	0.27795	0.5626	-0.159
Mof_C 	C 	0.5651	0.4941	0.9827	-0.021
Mof_H 	H 	0.6094	0.4901	0.9712	0.015
Mof_C 	C 	0.7594	0.23207	0.3328	-0.281
Mof_C 	C 	0.8343	0.23189	0.3314	0.115
Mof_H 	H 	0.8407	0.2133	0.2893	-0.076
Mof_C 	C 	0.3824	0.30846	0.6287	0.502
Mof_C 	C 	0.0803	0.46595	0.8715	0.093
Mof_H 	H 	0.0383	0.4445	0.8437	-0.062
Mof_C 	C 	0.9633	0.31626	0.5211	0.52
Mof_C 	C 	0.1281	0.56759	0.0305	0.443
Mof_C 	C 	0.4922	0.42986	0.8725	0.561
Mof_Na	Na	0.29578	0.38602	0.72518	3.235
Mof_Cd	Cd	0.59561	0.86937	0.63057	0.265
Mof_O 	O 	0.59089	0.90361	0.7496	-0.726
Mof_O 	O 	0.5609	0.06956	0.0327	-0.332
Mof_O 	O 	0.45888	0.83803	0.5841	-0.681
Mof_O 	O 	0.20589	0.67296	0.2215	-0.774
Mof_O 	O 	0.867	0.83606	0.6769	-0.719
Mof_O 	O 	0.0561	0.92266	0.8656	-0.491
Mof_O 	O 	0.7137	0.92987	0.7782	-0.768
Mof_O 	O 	0.6863	0.09499	0.0733	-0.72
Mof_O 	O 	0.1201	0.70477	0.2639	-0.684
Mof_O 	O 	0.9519	0.80646	0.6334	-0.298
Mof_O 	O 	0.5259	0.81821	0.5095	-0.322
Mof_C 	C 	0.7096	0.9968	0.8989	0.082
Mof_H 	H 	0.7555	0.9964	0.8895	-0.016
Mof_O 	O 	0.9272	0.90818	0.8274	-0.84
Mof_C 	C 	0.8303	0.74327	0.5169	-0.033
Mof_H 	H 	0.8844	0.7386	0.5284	0.07
Mof_C 	C 	0.2516	0.76006	0.3953	0.078
Mof_H 	H 	0.2017	0.7608	0.3967	-0.031
Mof_C 	C 	0.704	0.02972	0.9566	-0.072
Mof_H 	H 	0.7461	0.0511	0.9856	0.028
Mof_C 	C 	0.3172	0.78716	0.4563	-0.077
Mof_H 	H 	0.3111	0.8059	0.4984	0.012
Mof_C 	C 	0.1893	0.70128	0.2681	0.597
Mof_C 	C 	0.3917	0.78662	0.4551	-0.085
Mof_C 	C 	0.575	0.9988	0.9281	-0.099
Mof_H 	H 	0.5292	0.9994	0.9376	0.075
Mof_C 	C 	0.9309	0.97249	0.9571	-0.191
Mof_H 	H 	0.8843	0.9539	0.9286	0.035
Mof_C 	C 	0.6478	0.96458	0.8554	-0.27
Mof_C 	C 	0.6364	0.03072	0.9708	-0.083
Mof_C 	C 	0.6524	0.93011	0.7907	0.63
Mof_C 	C 	0.9959	0.96626	0.9387	0.032
Mof_C 	C 	0.3991	0.75914	0.3923	-0.107
Mof_H 	H 	0.4489	0.7588	0.3906	0.078
Mof_C 	C 	0.7325	0.78428	0.5451	0.042
Mof_H 	H 	0.7208	0.8073	0.5757	-0.031
Mof_C 	C 	0.814	0.77795	0.5626	-0.148
Mof_C 	C 	0.0651	0.9941	0.9827	-0.318
Mof_H 	H 	0.1094	0.9901	0.9712	0.104
Mof_C 	C 	0.2594	0.73207	0.3328	-0.28
Mof_C 	C 	0.3343	0.73189	0.3314	0.108
Mof_H 	H 	0.3407	0.7133	0.2893	-0.081
Mof_C 	C 	0.8824	0.80846	0.6287	0.498
Mof_C 	C 	0.5803	0.96595	0.8715	0.117
Mof_H 	H 	0.5383	0.9445	0.8437	-0.049
Mof_C 	C 	0.4633	0.81626	0.5211	0.425
Mof_C 	C 	0.6281	0.06759	0.0305	0.438
Mof_C 	C 	0.9922	0.92986	0.8725	0.595
Mof_Na	Na	0.79578	0.88602	0.72518	3.279
Mof_Cd	Cd	0.5	0.63254	0.25	0.396
Mof_Cd	Cd	-1.46755e-17	0.13254	0.25	0.309
Mof_Cd	Cd	0.5	0.36746	0.75	0.396
Mof_Cd	Cd	5.87021e-17	0.86746	0.75	0.308
Mof_Na	Na	-1.46755e-17	0.65814	0.25	2.76
Mof_Na	Na	0.5	0.15814	0.25	3.096
Mof_Na	Na	3.70958e-33	0.34186	0.75	2.757
Mof_Na	Na	0.5	0.84186	0.75	3.095
_end
