data_functionalizedCrystal
_audit_creation_method	'EQeq! by Chris Wilmer'
_symmetry_space_group_name_H-M	'P1'
_symmetry_Int_Tables_number	1
_symmetry_cell_setting	triclinic
loop_
_symmetry_equiv_pos_as_xyz
  x,y,z
_cell_length_a	10.0903
_cell_length_b	10.0903
_cell_length_c	21.2568
_cell_angle_alpha	90
_cell_angle_beta	90
_cell_angle_gamma	120
loop_
_atom_site_label
_atom_site_type_symbol
_atom_site_fract_x
_atom_site_fract_y
_atom_site_fract_z
_atom_site_charge
Mof_Cd	Cd	0.91181	0.08818	0.75	0.326
Mof_Cd	Cd	0.17637	0.08818	0.41667	0.326
Mof_Cd	Cd	0.91181	0.82362	0.08333	0.325
Mof_Cd	Cd	0.08818	0.91181	0.25	0.325
Mof_Cd	Cd	0.82363	0.91182	0.91667	0.325
Mof_Cd	Cd	0.08818	0.17637	0.58333	0.325
Mof_H 	H 	0.21032	0.39891	0.80602	0.03
Mof_H 	H 	0.44173	0.5108	0.64326	0.029
Mof_H 	H 	0.18859	0.78968	0.47269	0.03
Mof_H 	H 	0.06907	0.55827	0.30993	0.029
Mof_H 	H 	0.60109	0.81141	0.13935	0.03
Mof_H 	H 	0.4892	0.93093	0.97659	0.029
Mof_H 	H 	0.78968	0.60109	0.30602	0.03
Mof_H 	H 	0.55827	0.4892	0.14326	0.029
Mof_H 	H 	0.81141	0.21032	0.97269	0.03
Mof_H 	H 	0.93093	0.44173	0.80993	0.029
Mof_H 	H 	0.39891	0.18859	0.63935	0.03
Mof_H 	H 	0.5108	0.06907	0.47659	0.029
Mof_H 	H 	0.81141	0.60109	0.86065	0.03
Mof_H 	H 	0.93093	0.4892	0.02341	0.029
Mof_H 	H 	0.39891	0.21032	0.19398	0.03
Mof_H 	H 	0.5108	0.44173	0.35674	0.029
Mof_H 	H 	0.78968	0.18859	0.52731	0.03
Mof_H 	H 	0.55827	0.06907	0.69007	0.029
Mof_H 	H 	0.18859	0.39891	0.36065	0.03
Mof_H 	H 	0.06907	0.5108	0.52341	0.029
Mof_H 	H 	0.60109	0.78968	0.69398	0.03
Mof_H 	H 	0.4892	0.55827	0.85674	0.029
Mof_H 	H 	0.21032	0.81141	0.02731	0.03
Mof_H 	H 	0.44173	0.93093	0.19007	0.029
Mof_C 	C 	0.36993	0.501	0.73506	-0.01
Mof_C 	C 	0.23701	0.39735	0.76328	0.004
Mof_C 	C 	0.36408	0.45879	0.67391	0.008
Mof_C 	C 	0.13107	0.63007	0.40173	-0.01
Mof_C 	C 	0.16034	0.76299	0.42995	0.004
Mof_C 	C 	0.09471	0.63592	0.34058	0.008
Mof_C 	C 	0.499	0.86893	0.06839	-0.01
Mof_C 	C 	0.60265	0.83966	0.09661	0.004
Mof_C 	C 	0.54121	0.90529	0.00724	0.008
Mof_C 	C 	0.63007	0.499	0.23506	-0.01
Mof_C 	C 	0.76299	0.60265	0.26328	0.004
Mof_C 	C 	0.63592	0.54121	0.17391	0.008
Mof_C 	C 	0.86893	0.36993	0.90173	-0.01
Mof_C 	C 	0.83966	0.23701	0.92995	0.004
Mof_C 	C 	0.90529	0.36408	0.84058	0.008
Mof_C 	C 	0.501	0.13107	0.56839	-0.01
Mof_C 	C 	0.39735	0.16034	0.59661	0.004
Mof_C 	C 	0.45879	0.09471	0.50724	0.008
Mof_C 	C 	0.86893	0.499	0.93161	-0.01
Mof_C 	C 	0.83966	0.60265	0.90339	0.004
Mof_C 	C 	0.90529	0.54121	0.99276	0.008
Mof_C 	C 	0.501	0.36993	0.26494	-0.01
Mof_C 	C 	0.39735	0.23701	0.23672	0.004
Mof_C 	C 	0.45879	0.36408	0.32609	0.008
Mof_C 	C 	0.63007	0.13107	0.59827	-0.01
Mof_C 	C 	0.76299	0.16034	0.57005	0.004
Mof_C 	C 	0.63592	0.09471	0.65942	0.008
Mof_C 	C 	0.13107	0.501	0.43161	-0.01
Mof_C 	C 	0.16034	0.39735	0.40339	0.004
Mof_C 	C 	0.09471	0.45879	0.49276	0.008
Mof_C 	C 	0.499	0.63007	0.76494	-0.01
Mof_C 	C 	0.60265	0.76299	0.73672	0.004
Mof_C 	C 	0.54121	0.63592	0.82609	0.008
Mof_C 	C 	0.36993	0.86893	0.09827	-0.01
Mof_C 	C 	0.23701	0.83966	0.07005	0.004
Mof_C 	C 	0.36408	0.90529	0.15942	0.008
Mof_N 	N 	0.14901	0.2911	0.71956	-0.113
Mof_N 	N 	0.22754	0.32907	0.66433	-0.11
Mof_N 	N 	0.14209	0.85099	0.38623	-0.113
Mof_N 	N 	0.10153	0.77246	0.331	-0.111
Mof_N 	N 	0.7089	0.85791	0.05289	-0.113
Mof_N 	N 	0.67093	0.89847	0.99766	-0.111
Mof_N 	N 	0.85099	0.7089	0.21956	-0.113
Mof_N 	N 	0.77246	0.67093	0.16433	-0.11
Mof_N 	N 	0.85791	0.14901	0.88623	-0.113
Mof_N 	N 	0.89847	0.22754	0.831	-0.111
Mof_N 	N 	0.2911	0.14209	0.55289	-0.113
Mof_N 	N 	0.32907	0.10153	0.49766	-0.111
Mof_N 	N 	0.85791	0.7089	0.94711	-0.113
Mof_N 	N 	0.89847	0.67093	0.00234	-0.111
Mof_N 	N 	0.2911	0.14901	0.28044	-0.113
Mof_N 	N 	0.32907	0.22754	0.33567	-0.11
Mof_N 	N 	0.85099	0.14209	0.61377	-0.113
Mof_N 	N 	0.77246	0.10153	0.669	-0.111
Mof_N 	N 	0.14209	0.2911	0.44711	-0.113
Mof_N 	N 	0.10153	0.32907	0.50234	-0.111
Mof_N 	N 	0.7089	0.85099	0.78044	-0.113
Mof_N 	N 	0.67093	0.77246	0.83567	-0.11
Mof_N 	N 	0.14901	0.85791	0.11377	-0.113
Mof_N 	N 	0.22754	0.89847	0.169	-0.111
_end
