data_functionalizedCrystal
_audit_creation_method	'EQeq! by Chris Wilmer'
_symmetry_space_group_name_H-M	'P1'
_symmetry_Int_Tables_number	1
_symmetry_cell_setting	triclinic
loop_
_symmetry_equiv_pos_as_xyz
  x,y,z
_cell_length_a	6.8209
_cell_length_b	15.1646
_cell_length_c	15.1646
_cell_angle_alpha	62.2068
_cell_angle_beta	81.3772
_cell_angle_gamma	98.6228
loop_
_atom_site_label
_atom_site_type_symbol
_atom_site_fract_x
_atom_site_fract_y
_atom_site_fract_z
_atom_site_charge
Mof_Fe	Fe	0.8951	0.6865	0.5866	0.826
Mof_Fe	Fe	0.4817	0.5866	0.7269	0.826
Mof_Fe	Fe	0.2086	0.7269	0.6865	0.825
Mof_Fe	Fe	0.1049	0.3135	0.4134	0.825
Mof_Fe	Fe	0.5183	0.4134	0.2731	0.825
Mof_Fe	Fe	0.7914	0.2731	0.3135	0.825
Mof_H 	H 	0.6233	0.0103	0.5474	0.066
Mof_H 	H 	0.1707	0.5474	0.4423	0.066
Mof_H 	H 	0.613	0.4423	0.0103	0.066
Mof_H 	H 	0.3767	0.9897	0.4526	0.066
Mof_H 	H 	0.8293	0.4526	0.5577	0.066
Mof_H 	H 	0.387	0.5577	0.9897	0.066
Mof_C 	C 	0.6585	0.822	0.6153	0.308
Mof_C 	C 	0.8402	0.9125	0.539	-0.14
Mof_C 	C 	0.0463	0.8991	0.5289	0.216
Mof_C 	C 	0.8058	0.0005	0.5361	-0.061
Mof_C 	C 	0.2738	0.6153	0.5627	0.308
Mof_C 	C 	0.3792	0.539	0.5485	-0.14
Mof_C 	C 	0.5752	0.5289	0.572	0.216
Mof_C 	C 	0.3419	0.5361	0.4634	-0.061
Mof_C 	C 	0.8365	0.5627	0.822	0.308
Mof_C 	C 	0.9277	0.5485	0.9125	-0.138
Mof_C 	C 	0.1472	0.572	0.8991	0.215
Mof_C 	C 	0.8053	0.4634	0.0005	-0.062
Mof_C 	C 	0.3415	0.178	0.3847	0.308
Mof_C 	C 	0.1598	0.0875	0.461	-0.14
Mof_C 	C 	0.9537	0.1009	0.4711	0.216
Mof_C 	C 	0.1942	0.9995	0.4639	-0.061
Mof_C 	C 	0.7262	0.3847	0.4373	0.308
Mof_C 	C 	0.6208	0.461	0.4515	-0.14
Mof_C 	C 	0.4248	0.4711	0.428	0.216
Mof_C 	C 	0.6581	0.4639	0.5366	-0.061
Mof_C 	C 	0.1635	0.4373	0.178	0.308
Mof_C 	C 	0.0723	0.4515	0.0875	-0.138
Mof_C 	C 	0.8528	0.428	0.1009	0.215
Mof_C 	C 	0.1947	0.5366	0.9995	-0.062
Mof_O 	O 	0.6699	0.7309	0.6436	-0.46
Mof_O 	O 	0.4763	0.8612	0.6077	-0.314
Mof_O 	O 	0.079	0.8098	0.5686	-0.441
Mof_O 	O 	0.3135	0.6436	0.6255	-0.46
Mof_O 	O 	0.084	0.6077	0.5311	-0.314
Mof_O 	O 	0.6476	0.5686	0.6216	-0.441
Mof_O 	O 	0.939	0.6255	0.7309	-0.459
Mof_O 	O 	0.6151	0.5311	0.8612	-0.314
Mof_O 	O 	0.2692	0.6216	0.8098	-0.44
Mof_O 	O 	0.3301	0.2691	0.3564	-0.46
Mof_O 	O 	0.5237	0.1388	0.3923	-0.314
Mof_O 	O 	0.921	0.1902	0.4314	-0.441
Mof_O 	O 	0.6865	0.3564	0.3745	-0.46
Mof_O 	O 	0.916	0.3923	0.4689	-0.314
Mof_O 	O 	0.3524	0.4314	0.3784	-0.441
Mof_O 	O 	0.061	0.3745	0.2691	-0.459
Mof_O 	O 	0.3849	0.4689	0.1388	-0.314
Mof_O 	O 	0.7308	0.3784	0.1902	-0.44
_end
