# CIF file generated by openbabel 3.1.0, see https://openbabel.org
data_I
_chemical_name_common 'image0'
_cell_length_a 16.377
_cell_length_b 12.209
_cell_length_c 10.2681
_cell_angle_alpha 90
_cell_angle_beta 127.226
_cell_angle_gamma 90
_space_group_name_H-M_alt 'P 1'
_space_group_name_Hall 'P 1'
loop_
    _symmetry_equiv_pos_as_xyz
    x,y,z
loop_
    _atom_site_label
    _atom_site_type_symbol
    _atom_site_fract_x
    _atom_site_fract_y
    _atom_site_fract_z
    _atom_site_occupancy
    N1       N        0.42140    0.38070    0.66860    1.000
    C1       C        0.47780    0.32470    0.63720    1.000
    C2       C        0.32990    0.32260    0.58950    1.000
    N2       N        0.43320    0.23470    0.54500    1.000
    H1       H        0.54490    0.34710    0.67730    1.000
    C3       C        0.33690    0.23160    0.51150    1.000
    C4       C        0.24260    0.34320    0.58040    1.000
    H2       H        0.23790    0.40400    0.63340    1.000
    H3       H        0.41040    0.04100    0.69490    1.000
    H4       H        0.46640    0.92440    0.74670    1.000
    H5       H        0.53300    0.03450    0.80820    1.000
    H6       H        0.54470    0.74030    0.97340    1.000
    H7       H        0.43000    0.74030    0.91820    1.000
    H8       H        0.52520    0.74030    0.10840    1.000
    N3       N        0.92140    0.88070    0.66860    1.000
    C5       C        0.97780    0.82470    0.63720    1.000
    C6       C        0.82990    0.82260    0.58950    1.000
    N4       N        0.93320    0.73470    0.54500    1.000
    H9       H        0.04490    0.84710    0.67730    1.000
    C7       C        0.83690    0.73160    0.51150    1.000
    C8       C        0.74260    0.84320    0.58040    1.000
    H10      H        0.73790    0.90400    0.63340    1.000
    H11      H        0.91040    0.54100    0.69490    1.000
    H12      H        0.96640    0.42440    0.74670    1.000
    H13      H        0.03300    0.53450    0.80820    1.000
    H14      H        0.04470    0.24030    0.97340    1.000
    H15      H        0.93000    0.24030    0.91820    1.000
    H16      H        0.02520    0.24030    0.10840    1.000
    N5       N        0.57860    0.38070    0.33140    1.000
    C9       C        0.52220    0.32470    0.36280    1.000
    C10      C        0.67010    0.32260    0.41050    1.000
    N6       N        0.56680    0.23470    0.45500    1.000
    H17      H        0.45510    0.34710    0.32270    1.000
    C11      C        0.66310    0.23160    0.48850    1.000
    C12      C        0.75740    0.34320    0.41960    1.000
    H18      H        0.76210    0.40400    0.36660    1.000
    H19      H        0.58960    0.04100    0.30510    1.000
    H20      H        0.53360    0.92440    0.25330    1.000
    H21      H        0.46700    0.03450    0.19180    1.000
    H22      H        0.45530    0.74030    0.02660    1.000
    H23      H        0.57000    0.74030    0.08180    1.000
    H24      H        0.47480    0.74030    0.89160    1.000
    N7       N        0.07860    0.88070    0.33140    1.000
    C13      C        0.02220    0.82470    0.36280    1.000
    C14      C        0.17010    0.82260    0.41050    1.000
    N8       N        0.06680    0.73470    0.45500    1.000
    H25      H        0.95510    0.84710    0.32270    1.000
    C15      C        0.16310    0.73160    0.48850    1.000
    C16      C        0.25740    0.84320    0.41960    1.000
    H26      H        0.26210    0.90400    0.36660    1.000
    H27      H        0.08960    0.54100    0.30510    1.000
    H28      H        0.03360    0.42440    0.25330    1.000
    H29      H        0.96700    0.53450    0.19180    1.000
    H30      H        0.95530    0.24030    0.02660    1.000
    H31      H        0.07000    0.24030    0.08180    1.000
    H32      H        0.97480    0.24030    0.89160    1.000
    N9       N        0.57860    0.61930    0.33140    1.000
    C17      C        0.52220    0.67530    0.36280    1.000
    C18      C        0.67010    0.67740    0.41050    1.000
    N10      N        0.56680    0.76530    0.45500    1.000
    H33      H        0.45510    0.65290    0.32270    1.000
    C19      C        0.66310    0.76840    0.48850    1.000
    C20      C        0.75740    0.65680    0.41960    1.000
    H34      H        0.76210    0.59600    0.36660    1.000
    H35      H        0.58960    0.95900    0.30510    1.000
    H36      H        0.53360    0.07560    0.25330    1.000
    H37      H        0.46700    0.96550    0.19180    1.000
    H38      H        0.45530    0.25970    0.02660    1.000
    H39      H        0.57000    0.25970    0.08180    1.000
    H40      H        0.47480    0.25970    0.89160    1.000
    N11      N        0.07860    0.11930    0.33140    1.000
    C21      C        0.02220    0.17530    0.36280    1.000
    C22      C        0.17010    0.17740    0.41050    1.000
    N12      N        0.06680    0.26530    0.45500    1.000
    H41      H        0.95510    0.15290    0.32270    1.000
    C23      C        0.16310    0.26840    0.48850    1.000
    C24      C        0.25740    0.15680    0.41960    1.000
    H42      H        0.26210    0.09600    0.36660    1.000
    H43      H        0.08960    0.45900    0.30510    1.000
    H44      H        0.03360    0.57560    0.25330    1.000
    H45      H        0.96700    0.46550    0.19180    1.000
    H46      H        0.95530    0.75970    0.02660    1.000
    H47      H        0.07000    0.75970    0.08180    1.000
    H48      H        0.97480    0.75970    0.89160    1.000
    N13      N        0.42140    0.61930    0.66860    1.000
    C25      C        0.47780    0.67530    0.63720    1.000
    C26      C        0.32990    0.67740    0.58950    1.000
    N14      N        0.43320    0.76530    0.54500    1.000
    H49      H        0.54490    0.65290    0.67730    1.000
    C27      C        0.33690    0.76840    0.51150    1.000
    C28      C        0.24260    0.65680    0.58040    1.000
    H50      H        0.23790    0.59600    0.63340    1.000
    H51      H        0.41040    0.95900    0.69490    1.000
    H52      H        0.46640    0.07560    0.74670    1.000
    H53      H        0.53300    0.96550    0.80820    1.000
    H54      H        0.54470    0.25970    0.97340    1.000
    H55      H        0.43000    0.25970    0.91820    1.000
    H56      H        0.52520    0.25970    0.10840    1.000
    N15      N        0.92140    0.11930    0.66860    1.000
    C29      C        0.97780    0.17530    0.63720    1.000
    C30      C        0.82990    0.17740    0.58950    1.000
    N16      N        0.93320    0.26530    0.54500    1.000
    H57      H        0.04490    0.15290    0.67730    1.000
    C31      C        0.83690    0.26840    0.51150    1.000
    C32      C        0.74260    0.15680    0.58040    1.000
    H58      H        0.73790    0.09600    0.63340    1.000
    H59      H        0.91040    0.45900    0.69490    1.000
    H60      H        0.96640    0.57560    0.74670    1.000
    H61      H        0.03300    0.46550    0.80820    1.000
    H62      H        0.04470    0.75970    0.97340    1.000
    H63      H        0.93000    0.75970    0.91820    1.000
    H64      H        0.02520    0.75970    0.10840    1.000
    Cu1      Cu       0.46137    0.50000    0.82284    1.000
    Cu2      Cu       0.96137    0.00000    0.82284    1.000
    Cu3      Cu       0.53863    0.50000    0.17716    1.000
    Cu4      Cu       0.03863    0.00000    0.17716    1.000
    O1       O        0.50000    0.59660    0.00000    1.000
    C33      C        0.50000    0.71360    0.00000    1.000
    O2       O        0.00000    0.09660    0.00000    1.000
    C34      C        0.00000    0.21360    0.00000    1.000
    O3       O        0.50000    0.40340    0.00000    1.000
    C35      C        0.50000    0.28640    0.00000    1.000
    O4       O        0.00000    0.90340    0.00000    1.000
    C36      C        0.00000    0.78640    0.00000    1.000
    Cu5      Cu       0.50000    0.12436    0.50000    1.000
    Cu6      Cu       0.00000    0.62436    0.50000    1.000
    Cu7      Cu       0.50000    0.87564    0.50000    1.000
    Cu8      Cu       0.00000    0.37564    0.50000    1.000
    O5       O        0.46570    0.00000    0.57460    1.000
    C37      C        0.46920    0.00000    0.71740    1.000
    O6       O        0.96570    0.50000    0.57460    1.000
    C38      C        0.96920    0.50000    0.71740    1.000
    O7       O        0.53430    0.00000    0.42540    1.000
    C39      C        0.53080    0.00000    0.28260    1.000
    O8       O        0.03430    0.50000    0.42540    1.000
    C40      C        0.03080    0.50000    0.28260    1.000
