data_functionalizedCrystal
_audit_creation_method	'EQeq! by Chris Wilmer'
_symmetry_space_group_name_H-M	'P1'
_symmetry_Int_Tables_number	1
_symmetry_cell_setting	triclinic
loop_
_symmetry_equiv_pos_as_xyz
  x,y,z
_cell_length_a	14.9927
_cell_length_b	17.2321
_cell_length_c	24.798
_cell_angle_alpha	90
_cell_angle_beta	90
_cell_angle_gamma	90
loop_
_atom_site_label
_atom_site_type_symbol
_atom_site_fract_x
_atom_site_fract_y
_atom_site_fract_z
_atom_site_charge
Mof_O 	O 	0.8571	0.2167	0.44174	-0.397
Mof_O 	O 	0.3092	0.0327	0.06131	-0.452
Mof_O 	O 	0.2465	0.1485	0.05876	-0.463
Mof_C 	C 	0.0756	0.0231	0.20663	0.155
Mof_C 	C 	0.9761	0.0668	0.28504	0.083
Mof_C 	C 	0.1932	0.0622	0.1229	-0.161
Mof_C 	C 	0.1487	0.9773	0.1956	-0.204
Mof_H 	H 	0.1592	0.9334	0.2165	0.103
Mof_C 	C 	0.1235	0.1087	0.135	0.114
Mof_H 	H 	0.1157	0.1548	0.1161	0.001
Mof_C 	C 	0.2069	0.9953	0.1539	0.086
Mof_H 	H 	0.255	0.963	0.1466	0.01
Mof_C 	C 	0.0633	0.0888	0.175	-0.19
Mof_H 	H 	0.0137	0.1201	0.1809	0.104
Mof_O 	O 	0.9726	0.2884	0.4159	-0.255
Mof_C 	C 	0.8981	0.0599	0.3163	-0.147
Mof_H 	H 	0.8579	0.0199	0.3096	0.09
Mof_C 	C 	0.8814	0.1132	0.3572	0.075
Mof_H 	H 	0.8301	0.1086	0.3781	0.022
Mof_C 	C 	0.2561	0.0832	0.0775	0.441
Mof_C 	C 	0.9406	0.1728	0.367	-0.153
Mof_C 	C 	0.0318	0.1276	0.2948	-0.146
Mof_H 	H 	0.0826	0.134	0.2737	0.089
Mof_C 	C 	0.0138	0.1794	0.3352	0.105
Mof_H 	H 	0.053	0.2204	0.341	0.019
Mof_C 	C 	0.9199	0.2294	0.4123	0.365
Mof_O 	O 	0.1429	0.7833	0.44174	-0.395
Mof_O 	O 	0.6908	0.9673	0.06131	-0.47
Mof_O 	O 	0.7535	0.8515	0.05876	-0.47
Mof_C 	C 	0.9244	0.9769	0.20663	0.07
Mof_C 	C 	0.0239	0.9332	0.28504	0.121
Mof_C 	C 	0.8068	0.9378	0.1229	-0.195
Mof_C 	C 	0.8513	0.0227	0.1956	-0.146
Mof_H 	H 	0.8408	0.0666	0.2165	0.082
Mof_C 	C 	0.8765	0.8913	0.135	0.101
Mof_H 	H 	0.8843	0.8452	0.1161	-0.002
Mof_C 	C 	0.7931	0.0047	0.1539	0.107
Mof_H 	H 	0.745	0.037	0.1466	0.011
Mof_C 	C 	0.9367	0.9112	0.175	-0.168
Mof_H 	H 	0.9863	0.8799	0.1809	0.081
Mof_O 	O 	0.0274	0.7116	0.4159	-0.239
Mof_C 	C 	0.1019	0.9401	0.3163	-0.152
Mof_H 	H 	0.1421	0.9801	0.3096	0.083
Mof_C 	C 	0.1186	0.8868	0.3572	0.062
Mof_H 	H 	0.1699	0.8914	0.3781	0.024
Mof_C 	C 	0.7439	0.9168	0.0775	0.447
Mof_C 	C 	0.0594	0.8272	0.367	-0.106
Mof_C 	C 	0.9682	0.8724	0.2948	-0.184
Mof_H 	H 	0.9174	0.866	0.2737	0.093
Mof_C 	C 	0.9862	0.8206	0.3352	0.055
Mof_H 	H 	0.947	0.7796	0.341	0.022
Mof_C 	C 	0.0801	0.7706	0.4123	0.352
Mof_O 	O 	0.6429	0.7167	0.05826	-0.419
Mof_O 	O 	0.1908	0.5327	0.43869	-0.446
Mof_O 	O 	0.2535	0.6485	0.44124	-0.453
Mof_C 	C 	0.4244	0.5231	0.29337	0.156
Mof_C 	C 	0.5239	0.5668	0.21496	0.151
Mof_C 	C 	0.3068	0.5622	0.3771	-0.185
Mof_C 	C 	0.3513	0.4773	0.3044	-0.204
Mof_H 	H 	0.3408	0.4334	0.2835	0.105
Mof_C 	C 	0.3765	0.6087	0.365	0.127
Mof_H 	H 	0.3843	0.6548	0.3839	-0
Mof_C 	C 	0.2931	0.4953	0.3461	0.117
Mof_H 	H 	0.245	0.463	0.3534	0.009
Mof_C 	C 	0.4367	0.5888	0.325	-0.206
Mof_H 	H 	0.4863	0.6201	0.3191	0.105
Mof_O 	O 	0.5274	0.7884	0.0841	-0.261
Mof_C 	C 	0.6019	0.5599	0.1837	-0.19
Mof_H 	H 	0.6421	0.5199	0.1904	0.096
Mof_C 	C 	0.6186	0.6132	0.1428	0.097
Mof_H 	H 	0.6699	0.6086	0.1219	0.004
Mof_C 	C 	0.2439	0.5832	0.4225	0.449
Mof_C 	C 	0.5594	0.6728	0.133	-0.161
Mof_C 	C 	0.4682	0.6276	0.2052	-0.208
Mof_H 	H 	0.4174	0.634	0.2263	0.105
Mof_C 	C 	0.4862	0.6794	0.1648	0.113
Mof_H 	H 	0.447	0.7204	0.159	0.005
Mof_C 	C 	0.5801	0.7294	0.0877	0.368
Mof_O 	O 	0.3571	0.2833	0.05826	-0.417
Mof_O 	O 	0.8092	0.4673	0.43869	-0.452
Mof_O 	O 	0.7465	0.3515	0.44124	-0.452
Mof_C 	C 	0.5756	0.4769	0.29337	0.157
Mof_C 	C 	0.4761	0.4332	0.21496	0.15
Mof_C 	C 	0.6932	0.4378	0.3771	-0.188
Mof_C 	C 	0.6487	0.5227	0.3044	-0.206
Mof_H 	H 	0.6592	0.5666	0.2835	0.103
Mof_C 	C 	0.6235	0.3913	0.365	0.128
Mof_H 	H 	0.6157	0.3452	0.3839	0.001
Mof_C 	C 	0.7069	0.5047	0.3461	0.117
Mof_H 	H 	0.755	0.537	0.3534	0.004
Mof_C 	C 	0.5633	0.4112	0.325	-0.207
Mof_H 	H 	0.5137	0.3799	0.3191	0.107
Mof_O 	O 	0.4726	0.2116	0.0841	-0.257
Mof_C 	C 	0.3981	0.4401	0.1837	-0.188
Mof_H 	H 	0.3579	0.4801	0.1904	0.097
Mof_C 	C 	0.3814	0.3868	0.1428	0.096
Mof_H 	H 	0.3301	0.3914	0.1219	0.007
Mof_C 	C 	0.7561	0.4168	0.4225	0.449
Mof_C 	C 	0.4406	0.3272	0.133	-0.158
Mof_C 	C 	0.5318	0.3724	0.2052	-0.206
Mof_H 	H 	0.5826	0.366	0.2263	0.104
Mof_C 	C 	0.5138	0.3206	0.1648	0.111
Mof_H 	H 	0.553	0.2796	0.159	0.007
Mof_C 	C 	0.4199	0.2706	0.0877	0.367
Mof_O 	O 	0.1429	0.7833	0.55826	-0.395
Mof_O 	O 	0.6908	0.9673	0.93869	-0.418
Mof_O 	O 	0.7535	0.8515	0.94124	-0.416
Mof_C 	C 	0.9244	0.9769	0.79337	0.062
Mof_C 	C 	0.0239	0.9332	0.71496	0.118
Mof_C 	C 	0.8068	0.9378	0.8771	-0.167
Mof_C 	C 	0.8513	0.0227	0.8044	-0.13
Mof_H 	H 	0.8408	0.0666	0.7835	0.081
Mof_C 	C 	0.8765	0.8913	0.865	0.088
Mof_H 	H 	0.8843	0.8452	0.8839	0.02
Mof_C 	C 	0.7931	0.0047	0.8461	0.095
Mof_H 	H 	0.745	0.037	0.8534	0.025
Mof_C 	C 	0.9367	0.9112	0.825	-0.15
Mof_H 	H 	0.9863	0.8799	0.8191	0.082
Mof_O 	O 	0.0274	0.7116	0.5841	-0.238
Mof_C 	C 	0.1019	0.9401	0.6837	-0.149
Mof_H 	H 	0.1421	0.9801	0.6904	0.082
Mof_C 	C 	0.1186	0.8868	0.6428	0.06
Mof_H 	H 	0.1699	0.8914	0.6219	0.025
Mof_C 	C 	0.7439	0.9168	0.9225	0.436
Mof_C 	C 	0.0594	0.8272	0.633	-0.103
Mof_C 	C 	0.9682	0.8724	0.7052	-0.18
Mof_H 	H 	0.9174	0.866	0.7263	0.093
Mof_C 	C 	0.9862	0.8206	0.6648	0.053
Mof_H 	H 	0.947	0.7796	0.659	0.024
Mof_C 	C 	0.0801	0.7706	0.5877	0.352
Mof_O 	O 	0.8571	0.2167	0.55826	-0.398
Mof_O 	O 	0.3092	0.0327	0.93869	-0.401
Mof_O 	O 	0.2465	0.1485	0.94124	-0.41
Mof_C 	C 	0.0756	0.0231	0.79337	0.146
Mof_C 	C 	0.9761	0.0668	0.71496	0.079
Mof_C 	C 	0.1932	0.0622	0.8771	-0.134
Mof_C 	C 	0.1487	0.9773	0.8044	-0.189
Mof_H 	H 	0.1592	0.9334	0.7835	0.101
Mof_C 	C 	0.1235	0.1087	0.865	0.1
Mof_H 	H 	0.1157	0.1548	0.8839	0.023
Mof_C 	C 	0.2069	0.9953	0.8461	0.075
Mof_H 	H 	0.255	0.963	0.8534	0.023
Mof_C 	C 	0.0633	0.0888	0.825	-0.172
Mof_H 	H 	0.0137	0.1201	0.8191	0.106
Mof_O 	O 	0.9726	0.2884	0.5841	-0.254
Mof_C 	C 	0.8981	0.0599	0.6837	-0.144
Mof_H 	H 	0.8579	0.0199	0.6904	0.089
Mof_C 	C 	0.8814	0.1132	0.6428	0.073
Mof_H 	H 	0.8301	0.1086	0.6219	0.023
Mof_C 	C 	0.2561	0.0832	0.9225	0.43
Mof_C 	C 	0.9406	0.1728	0.633	-0.151
Mof_C 	C 	0.0318	0.1276	0.7052	-0.142
Mof_H 	H 	0.0826	0.134	0.7263	0.088
Mof_C 	C 	0.0138	0.1794	0.6648	0.103
Mof_H 	H 	0.053	0.2204	0.659	0.021
Mof_C 	C 	0.9199	0.2294	0.5877	0.364
Mof_O 	O 	0.3571	0.2833	0.94174	-0.359
Mof_O 	O 	0.8092	0.4673	0.56131	-0.451
Mof_O 	O 	0.7465	0.3515	0.55876	-0.452
Mof_C 	C 	0.5756	0.4769	0.70663	0.154
Mof_C 	C 	0.4761	0.4332	0.78504	0.142
Mof_C 	C 	0.6932	0.4378	0.6229	-0.186
Mof_C 	C 	0.6487	0.5227	0.6956	-0.202
Mof_H 	H 	0.6592	0.5666	0.7165	0.103
Mof_C 	C 	0.6235	0.3913	0.635	0.127
Mof_H 	H 	0.6157	0.3452	0.6161	0.002
Mof_C 	C 	0.7069	0.5047	0.6539	0.116
Mof_H 	H 	0.755	0.537	0.6466	0.006
Mof_C 	C 	0.5633	0.4112	0.675	-0.204
Mof_H 	H 	0.5137	0.3799	0.6809	0.107
Mof_O 	O 	0.4726	0.2116	0.9159	-0.219
Mof_C 	C 	0.3981	0.4401	0.8163	-0.17
Mof_H 	H 	0.3579	0.4801	0.8096	0.099
Mof_C 	C 	0.3814	0.3868	0.8572	0.084
Mof_H 	H 	0.3301	0.3914	0.8781	0.029
Mof_C 	C 	0.7561	0.4168	0.5775	0.449
Mof_C 	C 	0.4406	0.3272	0.867	-0.13
Mof_C 	C 	0.5318	0.3724	0.7948	-0.188
Mof_H 	H 	0.5826	0.366	0.7737	0.102
Mof_C 	C 	0.5138	0.3206	0.8352	0.098
Mof_H 	H 	0.553	0.2796	0.841	0.021
Mof_C 	C 	0.4199	0.2706	0.9123	0.357
Mof_O 	O 	0.6429	0.7167	0.94174	-0.361
Mof_O 	O 	0.1908	0.5327	0.56131	-0.445
Mof_O 	O 	0.2535	0.6485	0.55876	-0.452
Mof_C 	C 	0.4244	0.5231	0.70663	0.154
Mof_C 	C 	0.5239	0.5668	0.78504	0.143
Mof_C 	C 	0.3068	0.5622	0.6229	-0.183
Mof_C 	C 	0.3513	0.4773	0.6956	-0.2
Mof_H 	H 	0.3408	0.4334	0.7165	0.105
Mof_C 	C 	0.3765	0.6087	0.635	0.126
Mof_H 	H 	0.3843	0.6548	0.6161	0.001
Mof_C 	C 	0.2931	0.4953	0.6539	0.116
Mof_H 	H 	0.245	0.463	0.6466	0.011
Mof_C 	C 	0.4367	0.5888	0.675	-0.203
Mof_H 	H 	0.4863	0.6201	0.6809	0.104
Mof_O 	O 	0.5274	0.7884	0.9159	-0.223
Mof_C 	C 	0.6019	0.5599	0.8163	-0.172
Mof_H 	H 	0.6421	0.5199	0.8096	0.098
Mof_C 	C 	0.6186	0.6132	0.8572	0.085
Mof_H 	H 	0.6699	0.6086	0.8781	0.026
Mof_C 	C 	0.2439	0.5832	0.5775	0.449
Mof_C 	C 	0.5594	0.6728	0.867	-0.133
Mof_C 	C 	0.4682	0.6276	0.7948	-0.191
Mof_H 	H 	0.4174	0.634	0.7737	0.103
Mof_C 	C 	0.4862	0.6794	0.8352	0.099
Mof_H 	H 	0.447	0.7204	0.841	0.019
Mof_C 	C 	0.5801	0.7294	0.9123	0.358
Mof_Ni	Ni	0.30544	0.21086	-0	1.095
Mof_Ni	Ni	0.39507	0.02422	-0	1.08
Mof_O 	O 	0.4207	0.1406	-0	-0.407
Mof_Ni	Ni	0.69456	0.78914	-0	1.094
Mof_Ni	Ni	0.60493	0.97578	-0	1.071
Mof_O 	O 	0.5793	0.8594	-0	-0.411
Mof_Ni	Ni	0.19456	0.71086	0.5	1.123
Mof_Ni	Ni	0.10493	0.52422	0.5	1.106
Mof_O 	O 	0.0793	0.6406	0.5	-0.367
Mof_Ni	Ni	0.80544	0.28914	0.5	1.124
Mof_Ni	Ni	0.89507	0.47578	0.5	1.099
Mof_O 	O 	0.9207	0.3594	0.5	-0.374
Mof_C 	C 	5.46513e-33	0	0.2459	-0.093
Mof_C 	C 	0.5	0.5	0.2541	-0.178
Mof_C 	C 	4.67657e-33	0	0.7541	-0.086
Mof_C 	C 	0.5	0.5	0.7459	-0.171
Mof_O 	O 	0.5	0	0.0562	-0.37
Mof_O 	O 	1.06326e-32	0.5	0.4438	-0.359
Mof_O 	O 	0.5	1.57607e-32	0.9438	-0.313
Mof_O 	O 	3.44929e-33	0.5	0.5562	-0.357
_end
