data_functionalizedCrystal
_audit_creation_method	'EQeq! by Chris Wilmer'
_symmetry_space_group_name_H-M	'P1'
_symmetry_Int_Tables_number	1
_symmetry_cell_setting	triclinic
loop_
_symmetry_equiv_pos_as_xyz
  x,y,z
_cell_length_a	13.122
_cell_length_b	20.2881
_cell_length_c	20.2881
_cell_angle_alpha	83.9969
_cell_angle_beta	71.1318
_cell_angle_gamma	71.1319
loop_
_atom_site_label
_atom_site_type_symbol
_atom_site_fract_x
_atom_site_fract_y
_atom_site_fract_z
_atom_site_charge
Mof_Zn	Zn	0.43497	0.16287	0.11317	1.225
Mof_Zn	Zn	0.45186	0.11317	0.33713	1.225
Mof_Zn	Zn	0.46903	0.52908	0.80244	1.22
Mof_Zn	Zn	0.72853	0.80244	0.97092	1.22
Mof_Zn	Zn	0.56503	0.83713	0.88683	1.225
Mof_Zn	Zn	0.21101	0.33713	0.38683	1.225
Mof_Zn	Zn	0.99811	0.30244	0.47092	1.217
Mof_Zn	Zn	0.54814	0.88683	0.66287	1.225
Mof_Zn	Zn	0.00189	0.69756	0.52908	1.223
Mof_Zn	Zn	0.30055	0.97092	0.69756	1.22
Mof_Zn	Zn	0.40216	0.38683	0.16287	1.225
Mof_Zn	Zn	0.78899	0.66287	0.61317	1.224
Mof_Zn	Zn	0.27147	0.19756	0.02908	1.219
Mof_Zn	Zn	0.59784	0.61317	0.83713	1.224
Mof_Zn	Zn	0.69945	0.02908	0.30244	1.219
Mof_Zn	Zn	0.53097	0.47092	0.19756	1.219
Mof_H 	H 	0.4418	0.7535	0.4023	0.276
Mof_H 	H 	0.7014	0.0128	0.8298	0.422
Mof_H 	H 	0.5126	0.6341	0.6405	0.161
Mof_H 	H 	0.1598	0.4624	0.2386	0.077
Mof_H 	H 	0.2772	0.8144	0.9904	0.078
Mof_H 	H 	0.8245	0.545	0.935	0.057
Mof_H 	H 	0.6735	0.0165	0.1477	0.059
Mof_H 	H 	0.6598	0.5254	0.0556	0.037
Mof_H 	H 	0.3689	0.7901	0.8609	0.149
Mof_H 	H 	0.8402	0.5376	0.7614	0.074
Mof_H 	H 	0.4938	0.273	0.6744	0.272
Mof_H 	H 	0.3586	0.8917	0.4903	0.449
Mof_H 	H 	0.8976	0.4083	0.6145	0.05
Mof_H 	H 	0.4495	0.343	0.8848	0.061
Mof_H 	H 	0.6789	0.5679	0.1869	0.119
Mof_H 	H 	0.1955	0.045	0.435	0.06
Mof_H 	H 	0.6016	0.2386	0.0376	0.074
Mof_H 	H 	0.7532	0.3131	0.5679	0.12
Mof_H 	H 	0.9953	0.7289	0.1537	0.259
Mof_H 	H 	0.956	0.5128	0.3298	0.43
Mof_H 	H 	0.4204	0.0917	0.8855	0.05
Mof_H 	H 	0.1953	0.9023	0.2465	0.279
Mof_H 	H 	0.2811	0.4254	0.9274	0.05
Mof_H 	H 	0.0358	0.3166	0.712	0.141
Mof_H 	H 	0.1788	0.1477	0.4835	0.061
Mof_H 	H 	0.149	0.8463	0.2289	0.284
Mof_H 	H 	0.6261	0.7757	0.1631	0.082
Mof_H 	H 	0.7925	0.3848	0.657	0.062
Mof_H 	H 	0.1024	0.5917	0.3855	0.054
Mof_H 	H 	0.5199	0.7099	0.6391	0.148
Mof_H 	H 	0.2298	0.1391	0.2901	0.149
Mof_H 	H 	0.5062	0.727	0.3256	0.274
Mof_H 	H 	0.2138	0.4787	0.3783	0.058
Mof_H 	H 	0.5582	0.2465	0.5977	0.275
Mof_H 	H 	0.2468	0.6869	0.4321	0.119
Mof_H 	H 	0.2592	0.0254	0.5556	0.038
Mof_H 	H 	0.3984	0.7614	0.9624	0.075
Mof_H 	H 	0.9084	0.5096	0.8144	0.074
Mof_H 	H 	0.1531	0.3595	0.1341	0.163
Mof_H 	H 	0.7142	0.3298	0.9872	0.432
Mof_H 	H 	0.3346	0.3443	0.6047	0.131
Mof_H 	H 	0.2935	0.5726	0.4254	0.048
Mof_H 	H 	0.3341	0.2697	0.9037	0.066
Mof_H 	H 	0.8489	0.5097	0.3917	0.441
Mof_H 	H 	0.4292	0.9787	0.8783	0.056
Mof_H 	H 	0.8661	0.9254	0.4274	0.047
Mof_H 	H 	0.0663	0.0679	0.6869	0.122
Mof_H 	H 	0.3739	0.2243	0.8369	0.081
Mof_H 	H 	0.3075	0.1217	0.4787	0.057
Mof_H 	H 	0.31	0.3523	0.0165	0.06
Mof_H 	H 	0.2846	0.0556	0.9746	0.038
Mof_H 	H 	0.8045	0.955	0.565	0.057
Mof_H 	H 	0.6657	0.8848	0.157	0.061
Mof_H 	H 	0.0976	0.7465	0.0977	0.262
Mof_H 	H 	0.1342	0.1869	0.9321	0.12
Mof_H 	H 	0.6659	0.7303	0.0963	0.066
Mof_H 	H 	0.0047	0.2711	0.8463	0.306
Mof_H 	H 	0.4018	0.6631	0.2243	0.08
Mof_H 	H 	0.2696	0.4876	0.0628	0.033
Mof_H 	H 	0.7189	0.5746	0.0726	0.048
Mof_H 	H 	0.044	0.4872	0.6702	0.452
Mof_H 	H 	0.8533	0.8595	0.6341	0.159
Mof_H 	H 	0.2406	0.6083	0.0097	0.447
Mof_H 	H 	0.1857	0.2319	0.8709	0.123
Mof_H 	H 	0.1852	0.5556	0.4746	0.037
Mof_H 	H 	0.7622	0.9037	0.2303	0.066
Mof_H 	H 	0.0075	0.2303	0.5963	0.088
Mof_H 	H 	0.8227	0.843	0.3848	0.062
Mof_H 	H 	0.3524	0.212	0.6834	0.13
Mof_H 	H 	0.0588	0.773	0.1744	0.261
Mof_H 	H 	0.582	0.6856	0.5096	0.076
Mof_H 	H 	0.159	0.3609	0.2099	0.15
Mof_H 	H 	0.1682	0.3256	0.773	0.279
Mof_H 	H 	0.7594	0.3917	0.9903	0.44
Mof_H 	H 	0.8318	0.6744	0.227	0.268
Mof_H 	H 	0.69	0.6477	0.9835	0.061
Mof_H 	H 	0.7885	0.2681	0.6291	0.124
Mof_H 	H 	0.6311	0.2099	0.1391	0.147
Mof_H 	H 	0.7892	0.8369	0.2757	0.081
Mof_H 	H 	0.6941	0.8855	0.4083	0.052
Mof_H 	H 	0.2405	0.935	0.955	0.061
Mof_H 	H 	0.2164	0.8443	0.1047	0.129
Mof_H 	H 	0.7595	0.065	0.045	0.059
Mof_H 	H 	0.0916	0.4904	0.1856	0.079
Mof_H 	H 	0.6038	0.4037	0.7303	0.067
Mof_H 	H 	0.2075	0.6152	0.343	0.062
Mof_H 	H 	0.8143	0.7681	0.1291	0.124
Mof_H 	H 	0.5796	0.9083	0.1145	0.051
Mof_H 	H 	0.6623	0.5165	0.6477	0.06
Mof_H 	H 	0.1339	0.0746	0.5726	0.051
Mof_H 	H 	0.3778	0.2614	0.4624	0.076
Mof_H 	H 	0.7242	0.6537	0.2711	0.276
Mof_H 	H 	0.1741	0.033	0.1764	0.432
Mof_H 	H 	0.6392	0.9624	0.7386	0.075
Mof_H 	H 	0.3695	0.435	0.455	0.058
Mof_H 	H 	0.5921	0.6217	0.9787	0.058
Mof_H 	H 	0.8469	0.6405	0.8659	0.159
Mof_H 	H 	0.3402	0.4746	0.9444	0.038
Mof_H 	H 	0.1559	0.4023	0.7465	0.282
Mof_H 	H 	0.8259	0.967	0.8236	0.428
Mof_H 	H 	0.68	0.9876	0.5628	0.031
Mof_H 	H 	0.9337	0.9321	0.3131	0.115
Mof_H 	H 	0.9351	0.2757	0.6631	0.091
Mof_H 	H 	0.7228	0.1856	0.0096	0.075
Mof_H 	H 	0.7915	0.9274	0.0746	0.048
Mof_H 	H 	0.5824	0.6291	0.2319	0.124
Mof_H 	H 	0.9434	0.8709	0.2681	0.12
Mof_H 	H 	0.8835	0.467	0.3236	0.436
Mof_H 	H 	0.3779	0.7711	0.3463	0.28
Mof_H 	H 	0.6222	0.7386	0.5376	0.074
Mof_H 	H 	0.5644	0.1834	0.788	0.129
Mof_H 	H 	0.3059	0.1145	0.5917	0.052
Mof_H 	H 	0.7065	0.4274	0.5746	0.048
Mof_H 	H 	0.3211	0.4321	0.8131	0.12
Mof_H 	H 	0.7668	0.1744	0.727	0.268
Mof_H 	H 	0.3211	0.8953	0.3443	0.128
Mof_H 	H 	0.7324	0.9904	0.6856	0.076
Mof_H 	H 	0.5708	0.0213	0.1217	0.057
Mof_H 	H 	0.1165	0.533	0.6764	0.453
Mof_H 	H 	0.2986	0.9872	0.1702	0.422
Mof_H 	H 	0.6414	0.1083	0.5097	0.448
Mof_H 	H 	0.8148	0.4444	0.5254	0.036
Mof_H 	H 	0.2503	0.9903	0.1083	0.43
Mof_H 	H 	0.6221	0.2289	0.6537	0.28
Mof_H 	H 	0.8658	0.8131	0.0679	0.118
Mof_H 	H 	0.6495	0.1764	0.467	0.443
Mof_H 	H 	0.6789	0.1047	0.6557	0.127
Mof_H 	H 	0.7304	0.5124	0.9372	0.031
Mof_H 	H 	0.6305	0.565	0.545	0.058
Mof_H 	H 	0.841	0.6391	0.7901	0.146
Mof_H 	H 	0.1755	0.455	0.065	0.06
Mof_H 	H 	0.3505	0.8236	0.533	0.445
Mof_H 	H 	0.7702	0.8609	0.7099	0.147
Mof_H 	H 	0.0566	0.1291	0.7319	0.126
Mof_H 	H 	0.4801	0.2901	0.3609	0.148
Mof_H 	H 	0.9642	0.6834	0.288	0.122
Mof_H 	H 	0.5312	0.1702	0.5128	0.44
Mof_H 	H 	0.7154	0.9444	0.0254	0.037
Mof_H 	H 	0.8047	0.0977	0.7535	0.269
Mof_H 	H 	0.6654	0.6557	0.3953	0.125
Mof_H 	H 	0.9925	0.7697	0.4037	0.049
Mof_H 	H 	0.4874	0.3659	0.3595	0.16
Mof_H 	H 	0.418	0.3144	0.4904	0.078
Mof_H 	H 	0.7408	0.9746	0.4444	0.036
Mof_H 	H 	0.0649	0.7243	0.3369	0.073
Mof_H 	H 	0.4879	0.6145	0.0917	0.052
Mof_H 	H 	0.8212	0.8523	0.5165	0.06
Mof_H 	H 	0.7478	0.288	0.8166	0.135
Mof_H 	H 	0.7836	0.1557	0.8953	0.123
Mof_H 	H 	0.4356	0.8166	0.212	0.132
Mof_H 	H 	0.3962	0.5963	0.2697	0.065
Mof_H 	H 	0.3608	0.0376	0.2614	0.076
Mof_H 	H 	0.2332	0.8256	0.273	0.276
Mof_H 	H 	0.2108	0.1631	0.7243	0.081
Mof_H 	H 	0.2115	0.7319	0.3709	0.124
Mof_H 	H 	0.9393	0.3953	0.8443	0.128
Mof_H 	H 	0.7572	0.5628	0.5124	0.031
Mof_H 	H 	0.2858	0.6702	0.0128	0.438
Mof_H 	H 	0.8441	0.5977	0.2535	0.27
Mof_H 	H 	0.2071	0.6764	0.967	0.445
Mof_H 	H 	0.9412	0.227	0.8256	0.287
Mof_H 	H 	0.5121	0.3855	0.9083	0.051
Mof_H 	H 	0.7929	0.3236	0.033	0.436
Mof_H 	H 	0.7497	0.0097	0.8917	0.428
Mof_H 	H 	0.5982	0.3369	0.7757	0.082
Mof_H 	H 	0.2676	0.0096	0.3144	0.078
Mof_H 	H 	0.7862	0.5213	0.6217	0.057
Mof_H 	H 	0.3377	0.4835	0.3523	0.06
Mof_H 	H 	0.4688	0.8298	0.4872	0.441
Mof_H 	H 	0.1773	0.157	0.6152	0.062
Mof_H 	H 	0.3343	0.1152	0.843	0.06
Mof_H 	H 	0.6476	0.788	0.3166	0.131
Mof_H 	H 	0.9024	0.2535	0.9023	0.291
Mof_H 	H 	0.2758	0.3463	0.7289	0.286
Mof_H 	H 	0.1511	0.4903	0.6083	0.457
Mof_H 	H 	0.7128	0.1341	0.1405	0.16
Mof_H 	H 	0.3265	0.9835	0.8523	0.058
Mof_H 	H 	0.4176	0.3709	0.7681	0.124
Mof_H 	H 	0.3324	0.9372	0.9876	0.035
Mof_H 	H 	0.6676	0.0628	0.0124	0.034
Mof_H 	H 	0.2085	0.0726	0.9254	0.051
Mof_H 	H 	0.2522	0.712	0.1834	0.127
Mof_H 	H 	0.1467	0.1405	0.3659	0.164
Mof_H 	H 	0.0607	0.6047	0.1557	0.128
Mof_H 	H 	0.2872	0.8659	0.8595	0.162
Mof_H 	H 	0.5505	0.657	0.1152	0.062
Mof_H 	H 	0.4079	0.3783	0.0213	0.057
Mof_H 	H 	0.2428	0.4372	0.4876	0.032
Mof_H 	H 	0.851	0.1537	0.7711	0.272
Mof_H 	H 	0.6925	0.8783	0.5213	0.058
Mof_H 	H 	0.32	0.0124	0.4372	0.033
Mof_H 	H 	0.2378	0.0963	0.7697	0.066
Mof_C 	C 	0.3359	0.0214	0.3088	-0.184
Mof_C 	C 	0.2399	0.6697	0.1815	-0.314
Mof_C 	C 	0.7502	0.9836	0.8548	-1.329
Mof_C 	C 	0.9129	0.9643	0.2189	0.357
Mof_C 	C 	0.7446	0.6813	0.4563	0.066
Mof_C 	C 	0.6223	0.8912	0.3034	0.079
Mof_C 	C 	0.6311	0.7775	0.1141	-0.193
Mof_C 	C 	0.0743	0.3034	0.6088	0.107
Mof_C 	C 	0.3442	0.4263	0.9419	-0.086
Mof_C 	C 	0.6517	0.0139	0.1069	-0.115
Mof_C 	C 	0.3981	0.4188	0.782	-0.359
Mof_C 	C 	0.0168	0.5771	0.6151	0.819
Mof_C 	C 	0.2861	0.0581	0.9263	-0.09
Mof_C 	C 	0.2548	0.1141	0.7225	-0.193
Mof_C 	C 	0.6178	0.1813	0.9563	0.067
Mof_C 	C 	0.7601	0.3303	0.8185	-0.342
Mof_C 	C 	0.1562	0.3072	0.5444	0.041
Mof_C 	C 	0.7498	0.5554	0.93	-0.078
Mof_C 	C 	0.5873	0.6475	0.7093	0.432
Mof_C 	C 	0.5786	0.1815	0.8303	-0.322
Mof_C 	C 	0.7697	0.8897	0.3903	-0.101
Mof_C 	C 	0.7338	0.3548	0.0164	-1.36
Mof_C 	C 	0.2502	0.4446	0.07	-0.081
Mof_C 	C 	0.1831	0.718	0.4188	-0.357
Mof_C 	C 	0.1318	0.7811	0.4643	0.371
Mof_C 	C 	0.5741	0.0437	0.6813	0.07
Mof_C 	C 	0.9773	0.2775	0.6141	-0.239
Mof_C 	C 	0.8682	0.2189	0.5357	0.371
Mof_C 	C 	0.2648	0.0554	0.43	-0.08
Mof_C 	C 	0.4441	0.8525	0.7907	0.433
Mof_C 	C 	0.4865	0.1966	0.8912	0.076
Mof_C 	C 	0.1801	0.218	0.9188	-0.357
Mof_C 	C 	0.7876	0.9263	0.4419	-0.08
Mof_C 	C 	0.3109	0.836	0.1702	0.363
Mof_C 	C 	0.6656	0.6069	0.9861	-0.121
Mof_C 	C 	0.3202	0.93	0.9446	-0.084
Mof_C 	C 	0.2124	0.0737	0.5581	-0.084
Mof_C 	C 	0.709	0.9229	0.8849	0.781
Mof_C 	C 	0.7991	0.4563	0.8187	0.077
Mof_C 	C 	0.8752	0.3941	0.8347	-0.324
Mof_C 	C 	0.3822	0.8187	0.0437	0.071
Mof_C 	C 	0.5078	0.1928	0.9556	0.052
Mof_C 	C 	0.3406	0.1097	0.8897	-0.095
Mof_C 	C 	0.2414	0.1069	0.4861	-0.119
Mof_C 	C 	0.6362	0.1609	0.1417	-0.395
Mof_C 	C 	0.0989	0.0812	0.718	-0.36
Mof_C 	C 	0.7652	0.7907	0.6475	0.432
Mof_C 	C 	0.4089	0.1697	0.6815	-0.326
Mof_C 	C 	0.604	0.1059	0.6653	-0.309
Mof_C 	C 	0.4259	0.9563	0.3187	0.071
Mof_C 	C 	0.6019	0.5812	0.218	-0.359
Mof_C 	C 	0.8531	0.3298	0.836	0.38
Mof_C 	C 	0.5612	0.6609	0.6417	-0.396
Mof_C 	C 	0.5497	0.6103	0.1097	-0.1
Mof_C 	C 	0.1248	0.6059	0.1653	-0.299
Mof_C 	C 	0.396	0.8941	0.3347	-0.31
Mof_C 	C 	0.9114	0.4836	0.3548	-1.357
Mof_C 	C 	0.2725	0.4861	0.3931	-0.122
Mof_C 	C 	0.6891	0.164	0.8298	0.352
Mof_C 	C 	0.9011	0.9188	0.282	-0.351
Mof_C 	C 	0.4922	0.8072	0.0444	0.05
Mof_C 	C 	0.4503	0.3897	0.8903	-0.098
Mof_C 	C 	0.4811	0.8298	0.336	0.359
Mof_C 	C 	0.6948	0.57	0.5554	-0.078
Mof_C 	C 	0.2303	0.1103	0.6097	-0.098
Mof_C 	C 	0.7275	0.5139	0.6069	-0.121
Mof_C 	C 	0.8438	0.6928	0.4556	0.062
Mof_C 	C 	0.3681	0.6151	0.9229	0.795
Mof_C 	C 	0.16	0.6097	0.3897	-0.1
Mof_C 	C 	0.6641	0.9786	0.6912	-0.183
Mof_C 	C 	0.7352	0.9446	0.57	-0.078
Mof_C 	C 	0.1661	0.4786	0.1912	-0.185
Mof_C 	C 	0.7452	0.8859	0.2775	-0.192
Mof_C 	C 	0.3573	0.8088	0.9786	-0.184
Mof_C 	C 	0.6319	0.3849	0.0771	0.79
Mof_C 	C 	0.291	0.0771	0.1151	0.782
Mof_C 	C 	0.2009	0.5437	0.1813	0.069
Mof_C 	C 	0.8339	0.5214	0.8088	-0.187
Mof_C 	C 	0.5911	0.8303	0.3185	-0.327
Mof_C 	C 	0.6427	0.1912	0.0214	-0.18
Mof_C 	C 	0.0886	0.5164	0.6452	-1.407
Mof_C 	C 	0.8199	0.782	0.0812	-0.358
Mof_C 	C 	0.803	0.6458	0.2646	-0.874
Mof_C 	C 	0.7307	0.6653	0.3941	-0.302
Mof_C 	C 	0.3052	0.43	0.4446	-0.078
Mof_C 	C 	0.6447	0.6912	0.5214	-0.182
Mof_C 	C 	0.3483	0.9861	0.8931	-0.112
Mof_C 	C 	0.4488	0.7646	0.3542	-0.889
Mof_C 	C 	0.3169	0.6088	0.1966	0.073
Mof_C 	C 	0.5135	0.8034	0.1088	0.08
Mof_C 	C 	0.605	0.1452	0.4836	-1.381
Mof_C 	C 	0.3777	0.1088	0.6966	0.078
Mof_C 	C 	0.7099	0.1653	0.8941	-0.304
Mof_C 	C 	0.2662	0.6452	0.9836	-1.375
Mof_C 	C 	0.6594	0.8903	0.1103	-0.097
Mof_C 	C 	0.2134	0.8542	0.2354	-0.896
Mof_C 	C 	0.7705	0.4419	0.5737	-0.082
Mof_C 	C 	0.2029	0.3583	0.1609	-0.398
Mof_C 	C 	0.2994	0.5444	0.1928	0.056
Mof_C 	C 	0.5189	0.1702	0.664	0.358
Mof_C 	C 	0.9257	0.6966	0.3912	0.055
Mof_C 	C 	0.5939	0.1151	0.4229	0.797
Mof_C 	C 	0.4388	0.3391	0.3583	-0.396
Mof_C 	C 	0.7139	0.9419	0.0737	-0.088
Mof_C 	C 	0.4634	0.0444	0.6928	0.052
Mof_C 	C 	0.8169	0.282	0.5812	-0.362
Mof_C 	C 	0.8171	0.664	0.3298	0.347
Mof_C 	C 	0.7971	0.6417	0.8391	-0.395
Mof_C 	C 	0.5366	0.9556	0.3072	0.051
Mof_C 	C 	0.4039	0.4643	0.7189	0.372
Mof_C 	C 	0.3344	0.3931	0.0139	-0.117
Mof_C 	C 	0.2221	0.1417	0.3391	-0.397
Mof_C 	C 	0.9324	0.2646	0.8542	-0.95
Mof_C 	C 	0.197	0.3542	0.7354	-0.907
Mof_C 	C 	0.3689	0.2225	0.8859	-0.191
Mof_C 	C 	0.8772	0.7189	0.0357	0.369
Mof_C 	C 	0.0227	0.7225	0.3859	-0.155
Mof_C 	C 	0.2498	0.0164	0.1452	-1.33
Mof_C 	C 	0.5961	0.5357	0.2811	0.371
Mof_C 	C 	0.7034	0.7093	0.8525	0.432
Mof_C 	C 	0.6558	0.5737	0.0581	-0.082
Mof_C 	C 	0.5512	0.2354	0.6458	-0.887
Mof_C 	C 	0.2554	0.3187	0.5437	0.081
Mof_C 	C 	0.0676	0.7354	0.1458	-0.837
Mof_C 	C 	0.4127	0.3525	0.2907	0.432
Mof_C 	C 	0.2348	0.2093	0.3525	0.433
Mof_C 	C 	0.2295	0.5581	0.4263	-0.081
Mof_C 	C 	0.3553	0.3088	0.4786	-0.19
Mof_C 	C 	0.1228	0.2811	0.9643	0.368
Mof_C 	C 	0.7866	0.1458	0.7646	-0.873
Mof_C 	C 	0.9832	0.4229	0.3849	0.775
Mof_C 	C 	0.2901	0.8347	0.1059	-0.312
Mof_C 	C 	0.5559	0.1475	0.2093	0.432
Mof_C 	C 	0.5914	0.3859	0.7775	-0.196
Mof_C 	C 	0.7586	0.8931	0.5139	-0.122
Mof_C 	C 	0.0904	0.3185	0.6697	-0.346
Mof_C 	C 	0.1829	0.336	0.6702	0.374
Mof_C 	C 	0.84	0.3903	0.6103	-0.1
Mof_C 	C 	0.6798	0.07	0.0554	-0.082
Mof_C 	C 	0.4061	0.8849	0.5771	0.797
Mof_C 	C 	0.3638	0.8391	0.8583	-0.397
Mof_C 	C 	0.1469	0.6702	0.164	0.342
Mof_C 	C 	0.0871	0.0357	0.7811	0.371
Mof_C 	C 	0.9096	0.6815	0.3303	-0.311
Mof_C 	C 	0.6831	0.3912	0.8034	0.085
Mof_C 	C 	0.2693	0.3347	0.6059	-0.321
Mof_C 	C 	0.2966	0.2907	0.1475	0.433
Mof_C 	C 	0.4214	0.8185	0.1697	-0.329
Mof_C 	C 	0.7779	0.8583	0.6609	-0.395
Mof_C 	C 	0.7006	0.4556	0.8072	0.048
Mof_C 	C 	0.4086	0.6141	0.2225	-0.189
Mof_C 	C 	0.395	0.8548	0.5164	-1.383
Mof_N 	N 	0.61262	0.14237	0.07979	-0.141
Mof_N 	N 	0.4742	0.4233	0.8195	-0.143
Mof_N 	N 	0.217	0.0767	0.6805	-0.143
Mof_N 	N 	0.783	0.9233	0.3195	-0.144
Mof_N 	N 	0.2937	0.1805	0.9233	-0.145
Mof_N 	N 	0.7063	0.8195	0.0767	-0.144
Mof_N 	N 	0.33478	0.35763	0.42021	-0.141
Mof_N 	N 	0.75499	0.57979	0.85763	-0.142
Mof_N 	N 	0.5258	0.5767	0.1805	-0.144
Mof_N 	N 	0.30759	0.07979	0.35763	-0.141
Mof_N 	N 	0.1025	0.6805	0.4233	-0.146
Mof_N 	N 	0.8975	0.3195	0.5767	-0.139
Mof_N 	N 	0.38738	0.85763	0.92021	-0.14
Mof_N 	N 	0.69241	0.92021	0.64237	-0.142
Mof_N 	N 	0.24501	0.42021	0.14237	-0.141
Mof_N 	N 	0.66522	0.64237	0.57979	-0.142
Mof_O 	O 	0.4306	0.5205	0.7203	-0.46
Mof_O 	O 	0.5694	0.4795	0.2797	-0.46
Mof_O 	O 	0.4617	0.14352	0.20988	-0.506
Mof_O 	O 	0.0795	0.4193	0.3803	-0.627
Mof_O 	O 	0.4888	0.35769	0.23651	-0.518
Mof_O 	O 	0.6849	0.64352	0.70988	-0.506
Mof_O 	O 	0.8491	0.7203	0.9795	-0.46
Mof_O 	O 	0.583	0.14231	0.26349	-0.519
Mof_O 	O 	0.5383	0.85648	0.79012	-0.506
Mof_O 	O 	0.3836	0.447	0.6694	-0.311
Mof_O 	O 	0.32842	0.20988	0.35648	-0.506
Mof_O 	O 	0.27469	0.23651	0.14231	-0.518
Mof_O 	O 	0.0489	0.7797	0.5205	-0.456
Mof_O 	O 	0.3791	0.0807	0.1197	-0.635
Mof_O 	O 	0.688	0.0847	0.3775	-0.612
Mof_O 	O 	0.15351	0.26349	0.35769	-0.515
Mof_O 	O 	8.27722e-18	0.947	0.1694	-0.301
Mof_O 	O 	0.053	0.3306	0.947	-0.306
Mof_O 	O 	0.6164	0.553	0.3306	-0.31
Mof_O 	O 	0.9205	0.5807	0.6197	-0.654
Mof_O 	O 	0.9345	0.3775	0.4153	-0.609
Mof_O 	O 	0.1694	0.8306	0.447	-0.309
Mof_O 	O 	0.37467	0.4839	0.20356	-0.534
Mof_O 	O 	0.60522	0.70988	0.85648	-0.506
Mof_O 	O 	0.39478	0.29012	0.14352	-0.506
Mof_O 	O 	0.4988	0.8803	0.5807	-0.641
Mof_O 	O 	0.5112	0.64231	0.76349	-0.518
Mof_O 	O 	0.62533	0.5161	0.79644	-0.532
Mof_O 	O 	0.0655	0.6225	0.5847	-0.614
Mof_O 	O 	0.4598	0.6197	0.9193	-0.64
Mof_O 	O 	0.3498	0.5847	0.8775	-0.61
Mof_O 	O 	0.85857	0.70356	0.5161	-0.538
Mof_O 	O 	0.5402	0.3803	0.0807	-0.638
Mof_O 	O 	0.5012	0.1197	0.4193	-0.641
Mof_O 	O 	0.6209	0.9193	0.8803	-0.635
Mof_O 	O 	3.85865e-17	0.053	0.8306	-0.305
Mof_O 	O 	0.947	0.6694	0.053	-0.313
Mof_O 	O 	0.1509	0.2797	0.0205	-0.456
Mof_O 	O 	0.43787	0.9839	0.70356	-0.532
Mof_O 	O 	0.42177	0.20356	0.0161	-0.531
Mof_O 	O 	0.14143	0.29644	0.4839	-0.527
Mof_O 	O 	0.1714	0.9795	0.7797	-0.458
Mof_O 	O 	0.2273	0.1225	0.0847	-0.605
Mof_O 	O 	0.312	0.9153	0.6225	-0.611
Mof_O 	O 	0.67158	0.79012	0.64352	-0.506
Mof_O 	O 	0.7727	0.8775	0.9153	-0.607
Mof_O 	O 	0.3151	0.35648	0.29012	-0.506
Mof_O 	O 	0.8306	0.1694	0.553	-0.313
Mof_O 	O 	0.417	0.85769	0.73651	-0.518
Mof_O 	O 	0.8286	0.0205	0.2203	-0.458
Mof_O 	O 	0.72531	0.76349	0.85769	-0.519
Mof_O 	O 	0.6502	0.4153	0.1225	-0.61
Mof_O 	O 	0.84649	0.73651	0.64231	-0.521
Mof_O 	O 	0.56213	0.0161	0.29644	-0.532
Mof_O 	O 	0.57823	0.79644	0.9839	-0.531
Mof_O 	O 	0.9511	0.2203	0.4795	-0.465
_end
