data_functionalizedCrystal
_audit_creation_method	'EQeq! by Chris Wilmer'
_symmetry_space_group_name_H-M	'P1'
_symmetry_Int_Tables_number	1
_symmetry_cell_setting	triclinic
loop_
_symmetry_equiv_pos_as_xyz
  x,y,z
_cell_length_a	32.301
_cell_length_b	28.825
_cell_length_c	18.692
_cell_angle_alpha	90
_cell_angle_beta	104.24
_cell_angle_gamma	90
loop_
_atom_site_label
_atom_site_type_symbol
_atom_site_fract_x
_atom_site_fract_y
_atom_site_fract_z
_atom_site_charge
Mof_Lu	Lu	0.01456	0.22588	0.54907	2.537
Mof_O 	O 	0.03834	0.2035	0.6646	-0.794
Mof_O 	O 	0.04538	0.2444	0.7667	-0.876
Mof_O 	O 	0.46058	0.1852	0.1391	-0.941
Mof_O 	O 	0.45376	0.2357	0.0474	-0.842
Mof_O 	O 	0.0851	0.7806	0.0328	-0.553
Mof_O 	O 	0.0472	0.8427	0.0201	-0.602
Mof_O 	O 	0.45369	0.79143	0.9117	-0.817
Mof_O 	O 	0.44677	0.8255	0.802	-0.816
Mof_C 	C 	0.24788	0.0407	0.8986	-0.002
Mof_C 	C 	0.21077	0.0645	0.8658	-0.059
Mof_H 	H 	0.1863	0.048	0.8429	0.039
Mof_C 	C 	0.2098	0.1119	0.8666	-0.04
Mof_C 	C 	0.24616	0.1355	0.8995	-0.036
Mof_H 	H 	0.2457	0.1677	0.899	0.036
Mof_C 	C 	0.2838	0.1128	0.9338	-0.053
Mof_C 	C 	0.28369	0.0661	0.932	-0.052
Mof_H 	H 	0.3087	0.0504	0.9541	0.039
Mof_C 	C 	0.16924	0.1375	0.8293	0.159
Mof_C 	C 	0.1564	0.1733	0.865	-0.267
Mof_H 	H 	0.1731	0.182	0.9109	0.11
Mof_C 	C 	0.1188	0.1976	0.8353	0.202
Mof_H 	H 	0.1092	0.2204	0.8626	-0.058
Mof_C 	C 	0.0957	0.1869	0.7628	-0.351
Mof_C 	C 	0.1079	0.1497	0.7259	0.206
Mof_H 	H 	0.0922	0.1412	0.6791	-0.052
Mof_C 	C 	0.145	0.1248	0.7616	-0.256
Mof_H 	H 	0.1532	0.0991	0.7383	0.109
Mof_C 	C 	0.0563	0.2137	0.7304	0.748
Mof_C 	C 	0.32306	0.138	0.9711	0.19
Mof_C 	C 	0.3487	0.1213	0.0379	-0.329
Mof_H 	H 	0.3408	0.0945	0.059	0.133
Mof_C 	C 	0.3857	0.1447	0.0726	0.33
Mof_H 	H 	0.4017	0.1337	0.1178	-0.104
Mof_C 	C 	0.39908	0.182	0.0436	-0.455
Mof_C 	C 	0.3738	0.1999	0.9785	0.272
Mof_H 	H 	0.3819	0.2273	0.9595	-0.093
Mof_C 	C 	0.3361	0.1772	0.9405	-0.306
Mof_H 	H 	0.3203	0.1885	0.8955	0.124
Mof_C 	C 	0.44023	0.2037	0.0791	0.811
Mof_C 	C 	0.24915	0.9897	0.9022	0.044
Mof_C 	C 	0.28524	0.9663	0.8946	-0.104
Mof_H 	H 	0.3079	0.9828	0.8848	0.058
Mof_C 	C 	0.28785	0.9188	0.9016	0.006
Mof_C 	C 	0.25401	0.8956	0.9206	-0.094
Mof_H 	H 	0.2557	0.8636	0.9271	0.054
Mof_C 	C 	0.21781	0.919	0.93	0.024
Mof_C 	C 	0.21516	0.9655	0.9197	-0.112
Mof_H 	H 	0.1909	0.9814	0.9243	0.058
Mof_C 	C 	0.1821	0.8935	0.9536	0.051
Mof_C 	C 	0.1751	0.8489	0.9365	0.133
Mof_H 	H 	0.1924	0.8336	0.9111	-0.03
Mof_C 	C 	0.1415	0.8245	0.9565	-0.237
Mof_H 	H 	0.1369	0.7932	0.9447	0.093
Mof_C 	C 	0.1197	0.8922	0.9993	0.119
Mof_H 	H 	0.0985	0.9088	0.0138	-0.015
Mof_C 	C 	0.154	0.9166	0.985	-0.136
Mof_H 	H 	0.1577	0.9479	0.9965	0.064
Mof_C 	C 	0.1159	0.8477	0.9935	-0.112
Mof_C 	C 	0.0795	0.8206	0.0149	0.36
Mof_C 	C 	0.3263	0.8944	0.8934	0.107
Mof_C 	C 	0.3421	0.8567	0.9382	-0.206
Mof_H 	H 	0.3283	0.8471	0.9738	0.09
Mof_C 	C 	0.3792	0.8325	0.9306	0.167
Mof_H 	H 	0.3901	0.8079	0.9618	-0.035
Mof_C 	C 	0.39883	0.846	0.8766	-0.311
Mof_C 	C 	0.3835	0.8826	0.8301	0.176
Mof_H 	H 	0.3966	0.8911	0.793	-0.048
Mof_C 	C 	0.3477	0.9068	0.8402	-0.214
Mof_H 	H 	0.3378	0.9321	0.8101	0.094
Mof_C 	C 	0.436	0.8177	0.8651	0.707
Mof_C 	C 	0.1904	0.856	0.001	-0.28
Mof_H 	H 	0.2186	0.8486	0.0239	0.118
Mof_C 	C 	0.1582	0.8292	0.0151	0.254
Mof_H 	H 	0.1636	0.8003	0.0378	-0.053
Mof_C 	C 	0.1054	0.8851	0.9421	-0.095
Mof_H 	H 	0.0774	0.894	0.9214	0.036
Mof_C 	C 	0.14	0.9072	0.9251	-0.003
Mof_H 	H 	0.1347	0.9323	0.893	0.012
Mof_Lu	Lu	0.51456	0.72588	0.54907	2.632
Mof_O 	O 	0.53834	0.7035	0.6646	-0.805
Mof_O 	O 	0.54538	0.7444	0.7667	-0.896
Mof_O 	O 	0.96058	0.6852	0.1391	-0.883
Mof_O 	O 	0.95376	0.7357	0.0474	-0.796
Mof_O 	O 	0.5851	0.2806	0.0328	-0.561
Mof_O 	O 	0.5472	0.3427	0.0201	-0.605
Mof_O 	O 	0.95369	0.29143	0.9117	-0.816
Mof_O 	O 	0.94677	0.3255	0.802	-0.778
Mof_C 	C 	0.74788	0.5407	0.8986	0.002
Mof_C 	C 	0.71077	0.5645	0.8658	-0.062
Mof_H 	H 	0.6863	0.548	0.8429	0.042
Mof_C 	C 	0.7098	0.6119	0.8666	-0.037
Mof_C 	C 	0.74616	0.6355	0.8995	-0.042
Mof_H 	H 	0.7457	0.6677	0.899	0.038
Mof_C 	C 	0.7838	0.6128	0.9338	-0.043
Mof_C 	C 	0.78369	0.5661	0.932	-0.058
Mof_H 	H 	0.8087	0.5504	0.9541	0.044
Mof_C 	C 	0.66924	0.6375	0.8293	0.161
Mof_C 	C 	0.6564	0.6733	0.865	-0.269
Mof_H 	H 	0.6731	0.682	0.9109	0.112
Mof_C 	C 	0.6188	0.6976	0.8353	0.209
Mof_H 	H 	0.6092	0.7204	0.8626	-0.058
Mof_C 	C 	0.5957	0.6869	0.7628	-0.356
Mof_C 	C 	0.6079	0.6497	0.7259	0.213
Mof_H 	H 	0.5922	0.6412	0.6791	-0.052
Mof_C 	C 	0.645	0.6248	0.7616	-0.258
Mof_H 	H 	0.6532	0.5991	0.7383	0.111
Mof_C 	C 	0.5563	0.7137	0.7304	0.767
Mof_C 	C 	0.82306	0.638	0.9711	0.173
Mof_C 	C 	0.8487	0.6213	0.0379	-0.304
Mof_H 	H 	0.8408	0.5945	0.059	0.128
Mof_C 	C 	0.8857	0.6447	0.0726	0.304
Mof_H 	H 	0.9017	0.6337	0.1178	-0.089
Mof_C 	C 	0.89908	0.682	0.0436	-0.422
Mof_C 	C 	0.8738	0.6999	0.9785	0.248
Mof_H 	H 	0.8819	0.7273	0.9595	-0.08
Mof_C 	C 	0.8361	0.6772	0.9405	-0.285
Mof_H 	H 	0.8203	0.6885	0.8955	0.119
Mof_C 	C 	0.94023	0.7037	0.0791	0.779
Mof_C 	C 	0.74915	0.4897	0.9022	0.044
Mof_C 	C 	0.78524	0.4663	0.8946	-0.105
Mof_H 	H 	0.8079	0.4828	0.8848	0.06
Mof_C 	C 	0.78785	0.4188	0.9016	0.008
Mof_C 	C 	0.75401	0.3956	0.9206	-0.095
Mof_H 	H 	0.7557	0.3636	0.9271	0.055
Mof_C 	C 	0.71781	0.419	0.93	0.026
Mof_C 	C 	0.71516	0.4655	0.9197	-0.112
Mof_H 	H 	0.6909	0.4814	0.9243	0.06
Mof_C 	C 	0.6821	0.3935	0.9536	0.049
Mof_C 	C 	0.6751	0.3489	0.9365	0.122
Mof_H 	H 	0.6924	0.3336	0.9111	-0.026
Mof_C 	C 	0.6415	0.3245	0.9565	-0.225
Mof_H 	H 	0.6369	0.2932	0.9447	0.091
Mof_C 	C 	0.6197	0.3922	0.9993	0.109
Mof_H 	H 	0.5985	0.4088	0.0138	-0.008
Mof_C 	C 	0.654	0.4166	0.985	-0.132
Mof_H 	H 	0.6577	0.4479	0.9965	0.064
Mof_C 	C 	0.6159	0.3477	0.9935	-0.109
Mof_C 	C 	0.5795	0.3206	0.0149	0.361
Mof_C 	C 	0.8263	0.3944	0.8934	0.106
Mof_C 	C 	0.8421	0.3567	0.9382	-0.202
Mof_H 	H 	0.8283	0.3471	0.9738	0.09
Mof_C 	C 	0.8792	0.3325	0.9306	0.165
Mof_H 	H 	0.8901	0.3079	0.9618	-0.033
Mof_C 	C 	0.89883	0.346	0.8766	-0.304
Mof_C 	C 	0.8835	0.3826	0.8301	0.173
Mof_H 	H 	0.8966	0.3911	0.793	-0.042
Mof_C 	C 	0.8477	0.4068	0.8402	-0.21
Mof_H 	H 	0.8378	0.4321	0.8101	0.094
Mof_C 	C 	0.936	0.3177	0.8651	0.704
Mof_C 	C 	0.6904	0.356	0.001	-0.266
Mof_H 	H 	0.7186	0.3486	0.0239	0.114
Mof_C 	C 	0.6582	0.3292	0.0151	0.24
Mof_H 	H 	0.6636	0.3003	0.0378	-0.048
Mof_C 	C 	0.6054	0.3851	0.9421	-0.09
Mof_H 	H 	0.5774	0.394	0.9214	0.04
Mof_C 	C 	0.64	0.4072	0.9251	-0.003
Mof_H 	H 	0.6347	0.4323	0.893	0.015
Mof_Lu	Lu	0.98544	0.22588	0.95093	2.725
Mof_O 	O 	0.96166	0.2035	0.8354	-0.802
Mof_O 	O 	0.95462	0.2444	0.7333	-0.854
Mof_O 	O 	0.53942	0.1852	0.3609	-0.941
Mof_O 	O 	0.54624	0.2357	0.4526	-0.843
Mof_O 	O 	0.9149	0.7806	0.4672	-0.568
Mof_O 	O 	0.9528	0.8427	0.4799	-0.606
Mof_O 	O 	0.54631	0.79143	0.5883	-0.817
Mof_O 	O 	0.55323	0.8255	0.698	-0.816
Mof_C 	C 	0.75212	0.0407	0.6014	-0.002
Mof_C 	C 	0.78923	0.0645	0.6342	-0.059
Mof_H 	H 	0.8137	0.048	0.6571	0.043
Mof_C 	C 	0.7902	0.1119	0.6334	-0.039
Mof_C 	C 	0.75384	0.1355	0.6005	-0.035
Mof_H 	H 	0.7543	0.1677	0.601	0.035
Mof_C 	C 	0.7162	0.1128	0.5662	-0.053
Mof_C 	C 	0.71631	0.0661	0.568	-0.051
Mof_H 	H 	0.6913	0.0504	0.5459	0.039
Mof_C 	C 	0.83076	0.1375	0.6707	0.162
Mof_C 	C 	0.8436	0.1733	0.635	-0.266
Mof_H 	H 	0.8269	0.182	0.5891	0.113
Mof_C 	C 	0.8812	0.1976	0.6647	0.207
Mof_H 	H 	0.8908	0.2204	0.6374	-0.054
Mof_C 	C 	0.9043	0.1869	0.7372	-0.349
Mof_C 	C 	0.8921	0.1497	0.7741	0.212
Mof_H 	H 	0.9078	0.1412	0.8209	-0.05
Mof_C 	C 	0.855	0.1248	0.7384	-0.256
Mof_H 	H 	0.8468	0.0991	0.7617	0.112
Mof_C 	C 	0.9437	0.2137	0.7696	0.76
Mof_C 	C 	0.67694	0.138	0.5289	0.193
Mof_C 	C 	0.6513	0.1213	0.4621	-0.332
Mof_H 	H 	0.6592	0.0945	0.441	0.135
Mof_C 	C 	0.6143	0.1447	0.4274	0.333
Mof_H 	H 	0.5983	0.1337	0.3822	-0.105
Mof_C 	C 	0.60092	0.182	0.4564	-0.458
Mof_C 	C 	0.6262	0.1999	0.5215	0.275
Mof_H 	H 	0.6181	0.2273	0.5405	-0.094
Mof_C 	C 	0.6639	0.1772	0.5595	-0.309
Mof_H 	H 	0.6797	0.1885	0.6045	0.125
Mof_C 	C 	0.55977	0.2037	0.4209	0.812
Mof_C 	C 	0.75085	0.9897	0.5978	0.046
Mof_C 	C 	0.71476	0.9663	0.6054	-0.105
Mof_H 	H 	0.6921	0.9828	0.6152	0.058
Mof_C 	C 	0.71215	0.9188	0.5984	0.007
Mof_C 	C 	0.74599	0.8956	0.5794	-0.095
Mof_H 	H 	0.7443	0.8636	0.5729	0.055
Mof_C 	C 	0.78219	0.919	0.57	0.027
Mof_C 	C 	0.78484	0.9655	0.5803	-0.113
Mof_H 	H 	0.8091	0.9814	0.5757	0.062
Mof_C 	C 	0.8179	0.8935	0.5464	0.048
Mof_C 	C 	0.8249	0.8489	0.5635	0.128
Mof_H 	H 	0.8076	0.8336	0.5889	-0.026
Mof_C 	C 	0.8585	0.8245	0.5435	-0.225
Mof_H 	H 	0.8631	0.7932	0.5553	0.094
Mof_C 	C 	0.8803	0.8922	0.5007	0.107
Mof_H 	H 	0.9015	0.9088	0.4862	-0.004
Mof_C 	C 	0.846	0.9166	0.515	-0.129
Mof_H 	H 	0.8423	0.9479	0.5035	0.065
Mof_C 	C 	0.8841	0.8477	0.5065	-0.103
Mof_C 	C 	0.9205	0.8206	0.4851	0.359
Mof_C 	C 	0.6737	0.8944	0.6066	0.107
Mof_C 	C 	0.6579	0.8567	0.5618	-0.205
Mof_H 	H 	0.6717	0.8471	0.5262	0.09
Mof_C 	C 	0.6208	0.8325	0.5694	0.167
Mof_H 	H 	0.6099	0.8079	0.5382	-0.035
Mof_C 	C 	0.60117	0.846	0.6234	-0.311
Mof_C 	C 	0.6165	0.8826	0.6699	0.176
Mof_H 	H 	0.6034	0.8911	0.707	-0.048
Mof_C 	C 	0.6523	0.9068	0.6598	-0.214
Mof_H 	H 	0.6622	0.9321	0.6899	0.094
Mof_C 	C 	0.564	0.8177	0.6349	0.707
Mof_C 	C 	0.8096	0.856	0.499	-0.27
Mof_H 	H 	0.7814	0.8486	0.4761	0.115
Mof_C 	C 	0.8418	0.8292	0.4849	0.237
Mof_H 	H 	0.8364	0.8003	0.4622	-0.047
Mof_C 	C 	0.8946	0.8851	0.5579	-0.09
Mof_H 	H 	0.9226	0.894	0.5786	0.046
Mof_C 	C 	0.86	0.9072	0.5749	-0.004
Mof_H 	H 	0.8653	0.9323	0.607	0.019
Mof_Lu	Lu	0.48544	0.72588	0.95093	2.632
Mof_O 	O 	0.46166	0.7035	0.8354	-0.805
Mof_O 	O 	0.45462	0.7444	0.7333	-0.896
Mof_O 	O 	0.03942	0.6852	0.3609	-0.927
Mof_O 	O 	0.04624	0.7357	0.4526	-0.874
Mof_O 	O 	0.4149	0.2806	0.4672	-0.561
Mof_O 	O 	0.4528	0.3427	0.4799	-0.604
Mof_O 	O 	0.04631	0.29143	0.5883	-0.806
Mof_O 	O 	0.05323	0.3255	0.698	-0.795
Mof_C 	C 	0.25212	0.5407	0.6014	-0.004
Mof_C 	C 	0.28923	0.5645	0.6342	-0.057
Mof_H 	H 	0.3137	0.548	0.6571	0.04
Mof_C 	C 	0.2902	0.6119	0.6334	-0.043
Mof_C 	C 	0.25384	0.6355	0.6005	-0.033
Mof_H 	H 	0.2543	0.6677	0.601	0.034
Mof_C 	C 	0.2162	0.6128	0.5662	-0.056
Mof_C 	C 	0.21631	0.5661	0.568	-0.049
Mof_H 	H 	0.1913	0.5504	0.5459	0.037
Mof_C 	C 	0.33076	0.6375	0.6707	0.164
Mof_C 	C 	0.3436	0.6733	0.635	-0.271
Mof_H 	H 	0.3269	0.682	0.5891	0.113
Mof_C 	C 	0.3812	0.6976	0.6647	0.211
Mof_H 	H 	0.3908	0.7204	0.6374	-0.059
Mof_C 	C 	0.4043	0.6869	0.7372	-0.358
Mof_C 	C 	0.3921	0.6497	0.7741	0.214
Mof_H 	H 	0.4078	0.6412	0.8209	-0.053
Mof_C 	C 	0.355	0.6248	0.7384	-0.26
Mof_H 	H 	0.3468	0.5991	0.7617	0.112
Mof_C 	C 	0.4437	0.7137	0.7696	0.767
Mof_C 	C 	0.17694	0.638	0.5289	0.194
Mof_C 	C 	0.1513	0.6213	0.4621	-0.334
Mof_H 	H 	0.1592	0.5945	0.441	0.134
Mof_C 	C 	0.1143	0.6447	0.4274	0.332
Mof_H 	H 	0.0983	0.6337	0.3822	-0.106
Mof_C 	C 	0.10092	0.682	0.4564	-0.462
Mof_C 	C 	0.1262	0.6999	0.5215	0.277
Mof_H 	H 	0.1181	0.7273	0.5405	-0.099
Mof_C 	C 	0.1639	0.6772	0.5595	-0.312
Mof_H 	H 	0.1797	0.6885	0.6045	0.124
Mof_C 	C 	0.05977	0.7037	0.4209	0.809
Mof_C 	C 	0.25085	0.4897	0.5978	0.046
Mof_C 	C 	0.21476	0.4663	0.6054	-0.106
Mof_H 	H 	0.1921	0.4828	0.6152	0.057
Mof_C 	C 	0.21215	0.4188	0.5984	0.007
Mof_C 	C 	0.24599	0.3956	0.5794	-0.095
Mof_H 	H 	0.2443	0.3636	0.5729	0.055
Mof_C 	C 	0.28219	0.419	0.57	0.026
Mof_C 	C 	0.28484	0.4655	0.5803	-0.113
Mof_H 	H 	0.3091	0.4814	0.5757	0.06
Mof_C 	C 	0.3179	0.3935	0.5464	0.05
Mof_C 	C 	0.3249	0.3489	0.5635	0.132
Mof_H 	H 	0.3076	0.3336	0.5889	-0.029
Mof_C 	C 	0.3585	0.3245	0.5435	-0.232
Mof_H 	H 	0.3631	0.2932	0.5553	0.094
Mof_C 	C 	0.3803	0.3922	0.5007	0.113
Mof_H 	H 	0.4015	0.4088	0.4862	-0.01
Mof_C 	C 	0.346	0.4166	0.515	-0.132
Mof_H 	H 	0.3423	0.4479	0.5035	0.064
Mof_C 	C 	0.3841	0.3477	0.5065	-0.107
Mof_C 	C 	0.4205	0.3206	0.4851	0.359
Mof_C 	C 	0.1737	0.3944	0.6066	0.104
Mof_C 	C 	0.1579	0.3567	0.5618	-0.203
Mof_H 	H 	0.1717	0.3471	0.5262	0.088
Mof_C 	C 	0.1208	0.3325	0.5694	0.161
Mof_H 	H 	0.1099	0.3079	0.5382	-0.034
Mof_C 	C 	0.10117	0.346	0.6234	-0.305
Mof_C 	C 	0.1165	0.3826	0.6699	0.169
Mof_H 	H 	0.1034	0.3911	0.707	-0.048
Mof_C 	C 	0.1523	0.4068	0.6598	-0.211
Mof_H 	H 	0.1622	0.4321	0.6899	0.091
Mof_C 	C 	0.064	0.3177	0.6349	0.691
Mof_C 	C 	0.3096	0.356	0.499	-0.277
Mof_H 	H 	0.2814	0.3486	0.4761	0.116
Mof_C 	C 	0.3418	0.3292	0.4849	0.246
Mof_H 	H 	0.3364	0.3003	0.4622	-0.051
Mof_C 	C 	0.3946	0.3851	0.5579	-0.093
Mof_H 	H 	0.4226	0.394	0.5786	0.041
Mof_C 	C 	0.36	0.4072	0.5749	-0.004
Mof_H 	H 	0.3653	0.4323	0.607	0.015
Mof_Lu	Lu	0.98544	0.77412	0.45093	2.732
Mof_O 	O 	0.96166	0.7965	0.3354	-0.802
Mof_O 	O 	0.95462	0.7556	0.2333	-0.853
Mof_O 	O 	0.53942	0.8148	0.8609	-0.942
Mof_O 	O 	0.54624	0.7643	0.9526	-0.844
Mof_O 	O 	0.9149	0.2194	0.9672	-0.567
Mof_O 	O 	0.9528	0.1573	0.9799	-0.605
Mof_O 	O 	0.54631	0.20857	0.0883	-0.817
Mof_O 	O 	0.55323	0.1745	0.198	-0.816
Mof_C 	C 	0.75212	0.9593	0.1014	-0.003
Mof_C 	C 	0.78923	0.9355	0.1342	-0.058
Mof_H 	H 	0.8137	0.952	0.1571	0.042
Mof_C 	C 	0.7902	0.8881	0.1334	-0.04
Mof_C 	C 	0.75384	0.8645	0.1005	-0.034
Mof_H 	H 	0.7543	0.8323	0.101	0.035
Mof_C 	C 	0.7162	0.8872	0.0662	-0.056
Mof_C 	C 	0.71631	0.9339	0.068	-0.049
Mof_H 	H 	0.6913	0.9496	0.0459	0.039
Mof_C 	C 	0.83076	0.8625	0.1707	0.163
Mof_C 	C 	0.8436	0.8267	0.135	-0.266
Mof_H 	H 	0.8269	0.818	0.0891	0.113
Mof_C 	C 	0.8812	0.8024	0.1647	0.208
Mof_H 	H 	0.8908	0.7796	0.1374	-0.054
Mof_C 	C 	0.9043	0.8131	0.2372	-0.349
Mof_C 	C 	0.8921	0.8503	0.2741	0.212
Mof_H 	H 	0.9078	0.8588	0.3209	-0.05
Mof_C 	C 	0.855	0.8752	0.2384	-0.256
Mof_H 	H 	0.8468	0.9009	0.2617	0.112
Mof_C 	C 	0.9437	0.7863	0.2696	0.76
Mof_C 	C 	0.67694	0.862	0.0289	0.198
Mof_C 	C 	0.6513	0.8787	0.9621	-0.338
Mof_H 	H 	0.6592	0.9055	0.941	0.136
Mof_C 	C 	0.6143	0.8553	0.9274	0.337
Mof_H 	H 	0.5983	0.8663	0.8822	-0.107
Mof_C 	C 	0.60092	0.818	0.9564	-0.463
Mof_C 	C 	0.6262	0.8001	0.0215	0.281
Mof_H 	H 	0.6181	0.7727	0.0405	-0.095
Mof_C 	C 	0.6639	0.8228	0.0595	-0.313
Mof_H 	H 	0.6797	0.8115	0.1045	0.126
Mof_C 	C 	0.55977	0.7963	0.9209	0.814
Mof_C 	C 	0.75085	0.0103	0.0978	0.047
Mof_C 	C 	0.71476	0.0337	0.1054	-0.105
Mof_H 	H 	0.6921	0.0172	0.1152	0.059
Mof_C 	C 	0.71215	0.0812	0.0984	0.008
Mof_C 	C 	0.74599	0.1044	0.0794	-0.095
Mof_H 	H 	0.7443	0.1364	0.0729	0.055
Mof_C 	C 	0.78219	0.081	0.07	0.027
Mof_C 	C 	0.78484	0.0345	0.0803	-0.113
Mof_H 	H 	0.8091	0.0186	0.0757	0.062
Mof_C 	C 	0.8179	0.1065	0.0464	0.05
Mof_C 	C 	0.8249	0.1511	0.0635	0.149
Mof_H 	H 	0.8076	0.1664	0.0889	-0.033
Mof_C 	C 	0.8585	0.1755	0.0435	-0.242
Mof_H 	H 	0.8631	0.2068	0.0553	0.101
Mof_C 	C 	0.8803	0.1078	0.0007	0.115
Mof_H 	H 	0.9015	0.0912	0.9862	-0.009
Mof_C 	C 	0.846	0.0834	0.015	-0.129
Mof_H 	H 	0.8423	0.0521	0.0035	0.066
Mof_C 	C 	0.8841	0.1523	0.0065	-0.099
Mof_C 	C 	0.9205	0.1794	0.9851	0.356
Mof_C 	C 	0.6737	0.1056	0.1066	0.107
Mof_C 	C 	0.6579	0.1433	0.0618	-0.205
Mof_H 	H 	0.6717	0.1529	0.0262	0.091
Mof_C 	C 	0.6208	0.1675	0.0694	0.167
Mof_H 	H 	0.6099	0.1921	0.0382	-0.035
Mof_C 	C 	0.60117	0.154	0.1234	-0.311
Mof_C 	C 	0.6165	0.1174	0.1699	0.176
Mof_H 	H 	0.6034	0.1089	0.207	-0.048
Mof_C 	C 	0.6523	0.0932	0.1598	-0.214
Mof_H 	H 	0.6622	0.0679	0.1899	0.094
Mof_C 	C 	0.564	0.1823	0.1349	0.707
Mof_C 	C 	0.8096	0.144	0.999	-0.293
Mof_H 	H 	0.7814	0.1514	0.9761	0.122
Mof_C 	C 	0.8418	0.1708	0.9849	0.252
Mof_H 	H 	0.8364	0.1997	0.9622	-0.053
Mof_C 	C 	0.8946	0.1149	0.0579	-0.094
Mof_H 	H 	0.9226	0.106	0.0786	0.049
Mof_C 	C 	0.86	0.0928	0.0749	-0.005
Mof_H 	H 	0.8653	0.0677	0.107	0.02
Mof_Lu	Lu	0.48544	0.27412	0.45093	2.632
Mof_O 	O 	0.46166	0.2965	0.3354	-0.805
Mof_O 	O 	0.45462	0.2556	0.2333	-0.896
Mof_O 	O 	0.03942	0.3148	0.8609	-0.928
Mof_O 	O 	0.04624	0.2643	0.9526	-0.873
Mof_O 	O 	0.4149	0.7194	0.9672	-0.56
Mof_O 	O 	0.4528	0.6573	0.9799	-0.604
Mof_O 	O 	0.04631	0.70857	0.0883	-0.806
Mof_O 	O 	0.05323	0.6745	0.198	-0.795
Mof_C 	C 	0.25212	0.4593	0.1014	-0.005
Mof_C 	C 	0.28923	0.4355	0.1342	-0.057
Mof_H 	H 	0.3137	0.452	0.1571	0.04
Mof_C 	C 	0.2902	0.3881	0.1334	-0.043
Mof_C 	C 	0.25384	0.3645	0.1005	-0.033
Mof_H 	H 	0.2543	0.3323	0.101	0.034
Mof_C 	C 	0.2162	0.3872	0.0662	-0.057
Mof_C 	C 	0.21631	0.4339	0.068	-0.048
Mof_H 	H 	0.1913	0.4496	0.0459	0.037
Mof_C 	C 	0.33076	0.3625	0.1707	0.165
Mof_C 	C 	0.3436	0.3267	0.135	-0.271
Mof_H 	H 	0.3269	0.318	0.0891	0.113
Mof_C 	C 	0.3812	0.3024	0.1647	0.211
Mof_H 	H 	0.3908	0.2796	0.1374	-0.059
Mof_C 	C 	0.4043	0.3131	0.2372	-0.358
Mof_C 	C 	0.3921	0.3503	0.2741	0.214
Mof_H 	H 	0.4078	0.3588	0.3209	-0.053
Mof_C 	C 	0.355	0.3752	0.2384	-0.261
Mof_H 	H 	0.3468	0.4009	0.2617	0.112
Mof_C 	C 	0.4437	0.2863	0.2696	0.767
Mof_C 	C 	0.17694	0.362	0.0289	0.196
Mof_C 	C 	0.1513	0.3787	0.9621	-0.336
Mof_H 	H 	0.1592	0.4055	0.941	0.135
Mof_C 	C 	0.1143	0.3553	0.9274	0.334
Mof_H 	H 	0.0983	0.3663	0.8822	-0.107
Mof_C 	C 	0.10092	0.318	0.9564	-0.464
Mof_C 	C 	0.1262	0.3001	0.0215	0.28
Mof_H 	H 	0.1181	0.2727	0.0405	-0.099
Mof_C 	C 	0.1639	0.3228	0.0595	-0.314
Mof_H 	H 	0.1797	0.3115	0.1045	0.125
Mof_C 	C 	0.05977	0.2963	0.9209	0.81
Mof_C 	C 	0.25085	0.5103	0.0978	0.046
Mof_C 	C 	0.21476	0.5337	0.1054	-0.106
Mof_H 	H 	0.1921	0.5172	0.1152	0.057
Mof_C 	C 	0.21215	0.5812	0.0984	0.008
Mof_C 	C 	0.24599	0.6044	0.0794	-0.095
Mof_H 	H 	0.2443	0.6364	0.0729	0.055
Mof_C 	C 	0.28219	0.581	0.07	0.026
Mof_C 	C 	0.28484	0.5345	0.0803	-0.113
Mof_H 	H 	0.3091	0.5186	0.0757	0.06
Mof_C 	C 	0.3179	0.6065	0.0464	0.05
Mof_C 	C 	0.3249	0.6511	0.0635	0.138
Mof_H 	H 	0.3076	0.6664	0.0889	-0.031
Mof_C 	C 	0.3585	0.6755	0.0435	-0.236
Mof_H 	H 	0.3631	0.7068	0.0553	0.096
Mof_C 	C 	0.3803	0.6078	0.0007	0.115
Mof_H 	H 	0.4015	0.5912	0.9862	-0.011
Mof_C 	C 	0.346	0.5834	0.015	-0.132
Mof_H 	H 	0.3423	0.5521	0.0035	0.064
Mof_C 	C 	0.3841	0.6523	0.0065	-0.106
Mof_C 	C 	0.4205	0.6794	0.9851	0.359
Mof_C 	C 	0.1737	0.6056	0.1066	0.104
Mof_C 	C 	0.1579	0.6433	0.0618	-0.203
Mof_H 	H 	0.1717	0.6529	0.0262	0.088
Mof_C 	C 	0.1208	0.6675	0.0694	0.16
Mof_H 	H 	0.1099	0.6921	0.0382	-0.034
Mof_C 	C 	0.10117	0.654	0.1234	-0.305
Mof_C 	C 	0.1165	0.6174	0.1699	0.169
Mof_H 	H 	0.1034	0.6089	0.207	-0.048
Mof_C 	C 	0.1523	0.5932	0.1598	-0.211
Mof_H 	H 	0.1622	0.5679	0.1899	0.091
Mof_C 	C 	0.064	0.6823	0.1349	0.69
Mof_C 	C 	0.3096	0.644	0.999	-0.283
Mof_H 	H 	0.2814	0.6514	0.9761	0.118
Mof_C 	C 	0.3418	0.6708	0.9849	0.25
Mof_H 	H 	0.3364	0.6997	0.9622	-0.052
Mof_C 	C 	0.3946	0.6149	0.0579	-0.094
Mof_H 	H 	0.4226	0.606	0.0786	0.042
Mof_C 	C 	0.36	0.5928	0.0749	-0.004
Mof_H 	H 	0.3653	0.5677	0.107	0.016
Mof_Lu	Lu	0.01456	0.77412	0.04907	2.536
Mof_O 	O 	0.03834	0.7965	0.1646	-0.794
Mof_O 	O 	0.04538	0.7556	0.2667	-0.876
Mof_O 	O 	0.46058	0.8148	0.6391	-0.941
Mof_O 	O 	0.45376	0.7643	0.5474	-0.843
Mof_O 	O 	0.0851	0.2194	0.5328	-0.553
Mof_O 	O 	0.0472	0.1573	0.5201	-0.603
Mof_O 	O 	0.45369	0.20857	0.4117	-0.817
Mof_O 	O 	0.44677	0.1745	0.302	-0.816
Mof_C 	C 	0.24788	0.9593	0.3986	-0.003
Mof_C 	C 	0.21077	0.9355	0.3658	-0.059
Mof_H 	H 	0.1863	0.952	0.3429	0.039
Mof_C 	C 	0.2098	0.8881	0.3666	-0.041
Mof_C 	C 	0.24616	0.8645	0.3995	-0.035
Mof_H 	H 	0.2457	0.8323	0.399	0.035
Mof_C 	C 	0.2838	0.8872	0.4338	-0.054
Mof_C 	C 	0.28369	0.9339	0.432	-0.051
Mof_H 	H 	0.3087	0.9496	0.4541	0.039
Mof_C 	C 	0.16924	0.8625	0.3293	0.159
Mof_C 	C 	0.1564	0.8267	0.365	-0.267
Mof_H 	H 	0.1731	0.818	0.4109	0.11
Mof_C 	C 	0.1188	0.8024	0.3353	0.202
Mof_H 	H 	0.1092	0.7796	0.3626	-0.058
Mof_C 	C 	0.0957	0.8131	0.2628	-0.351
Mof_C 	C 	0.1079	0.8503	0.2259	0.206
Mof_H 	H 	0.0922	0.8588	0.1791	-0.052
Mof_C 	C 	0.145	0.8752	0.2616	-0.256
Mof_H 	H 	0.1532	0.9009	0.2383	0.109
Mof_C 	C 	0.0563	0.7863	0.2304	0.747
Mof_C 	C 	0.32306	0.862	0.4711	0.193
Mof_C 	C 	0.3487	0.8787	0.5379	-0.332
Mof_H 	H 	0.3408	0.9055	0.559	0.134
Mof_C 	C 	0.3857	0.8553	0.5726	0.332
Mof_H 	H 	0.4017	0.8663	0.6178	-0.105
Mof_C 	C 	0.39908	0.818	0.5436	-0.458
Mof_C 	C 	0.3738	0.8001	0.4785	0.275
Mof_H 	H 	0.3819	0.7727	0.4595	-0.093
Mof_C 	C 	0.3361	0.8228	0.4405	-0.309
Mof_H 	H 	0.3203	0.8115	0.3955	0.125
Mof_C 	C 	0.44023	0.7963	0.5791	0.812
Mof_C 	C 	0.24915	0.0103	0.4022	0.044
Mof_C 	C 	0.28524	0.0337	0.3946	-0.104
Mof_H 	H 	0.3079	0.0172	0.3848	0.058
Mof_C 	C 	0.28785	0.0812	0.4016	0.006
Mof_C 	C 	0.25401	0.1044	0.4206	-0.094
Mof_H 	H 	0.2557	0.1364	0.4271	0.054
Mof_C 	C 	0.21781	0.081	0.43	0.024
Mof_C 	C 	0.21516	0.0345	0.4197	-0.112
Mof_H 	H 	0.1909	0.0186	0.4243	0.058
Mof_C 	C 	0.1821	0.1065	0.4536	0.052
Mof_C 	C 	0.1751	0.1511	0.4365	0.137
Mof_H 	H 	0.1924	0.1664	0.4111	-0.032
Mof_C 	C 	0.1415	0.1755	0.4565	-0.24
Mof_H 	H 	0.1369	0.2068	0.4447	0.095
Mof_C 	C 	0.1197	0.1078	0.4993	0.12
Mof_H 	H 	0.0985	0.0912	0.5138	-0.016
Mof_C 	C 	0.154	0.0834	0.485	-0.137
Mof_H 	H 	0.1577	0.0521	0.4965	0.064
Mof_C 	C 	0.1159	0.1523	0.4935	-0.112
Mof_C 	C 	0.0795	0.1794	0.5149	0.36
Mof_C 	C 	0.3263	0.1056	0.3934	0.107
Mof_C 	C 	0.3421	0.1433	0.4382	-0.206
Mof_H 	H 	0.3283	0.1529	0.4738	0.09
Mof_C 	C 	0.3792	0.1675	0.4306	0.167
Mof_H 	H 	0.3901	0.1921	0.4618	-0.035
Mof_C 	C 	0.39883	0.154	0.3766	-0.311
Mof_C 	C 	0.3835	0.1174	0.3301	0.176
Mof_H 	H 	0.3966	0.1089	0.293	-0.048
Mof_C 	C 	0.3477	0.0932	0.3402	-0.214
Mof_H 	H 	0.3378	0.0679	0.3101	0.094
Mof_C 	C 	0.436	0.1823	0.3651	0.707
Mof_C 	C 	0.1904	0.144	0.501	-0.285
Mof_H 	H 	0.2186	0.1514	0.5239	0.12
Mof_C 	C 	0.1582	0.1708	0.5151	0.256
Mof_H 	H 	0.1636	0.1997	0.5378	-0.054
Mof_C 	C 	0.1054	0.1149	0.4421	-0.096
Mof_H 	H 	0.0774	0.106	0.4214	0.036
Mof_C 	C 	0.14	0.0928	0.4251	-0.003
Mof_H 	H 	0.1347	0.0677	0.393	0.012
Mof_Lu	Lu	0.51456	0.27412	0.04907	2.633
Mof_O 	O 	0.53834	0.2965	0.1646	-0.805
Mof_O 	O 	0.54538	0.2556	0.2667	-0.896
Mof_O 	O 	0.96058	0.3148	0.6391	-0.886
Mof_O 	O 	0.95376	0.2643	0.5474	-0.798
Mof_O 	O 	0.5851	0.7194	0.5328	-0.561
Mof_O 	O 	0.5472	0.6573	0.5201	-0.605
Mof_O 	O 	0.95369	0.70857	0.4117	-0.816
Mof_O 	O 	0.94677	0.6745	0.302	-0.777
Mof_C 	C 	0.74788	0.4593	0.3986	0
Mof_C 	C 	0.71077	0.4355	0.3658	-0.06
Mof_H 	H 	0.6863	0.452	0.3429	0.041
Mof_C 	C 	0.7098	0.3881	0.3666	-0.038
Mof_C 	C 	0.74616	0.3645	0.3995	-0.039
Mof_H 	H 	0.7457	0.3323	0.399	0.037
Mof_C 	C 	0.7838	0.3872	0.4338	-0.047
Mof_C 	C 	0.78369	0.4339	0.432	-0.055
Mof_H 	H 	0.8087	0.4496	0.4541	0.043
Mof_C 	C 	0.66924	0.3625	0.3293	0.163
Mof_C 	C 	0.6564	0.3267	0.365	-0.27
Mof_H 	H 	0.6731	0.318	0.4109	0.113
Mof_C 	C 	0.6188	0.3024	0.3353	0.21
Mof_H 	H 	0.6092	0.2796	0.3626	-0.058
Mof_C 	C 	0.5957	0.3131	0.2628	-0.357
Mof_C 	C 	0.6079	0.3503	0.2259	0.213
Mof_H 	H 	0.5922	0.3588	0.1791	-0.053
Mof_C 	C 	0.645	0.3752	0.2616	-0.259
Mof_H 	H 	0.6532	0.4009	0.2383	0.112
Mof_C 	C 	0.5563	0.2863	0.2304	0.767
Mof_C 	C 	0.82306	0.362	0.4711	0.183
Mof_C 	C 	0.8487	0.3787	0.5379	-0.315
Mof_H 	H 	0.8408	0.4055	0.559	0.131
Mof_C 	C 	0.8857	0.3553	0.5726	0.313
Mof_H 	H 	0.9017	0.3663	0.6178	-0.093
Mof_C 	C 	0.89908	0.318	0.5436	-0.432
Mof_C 	C 	0.8738	0.3001	0.4785	0.26
Mof_H 	H 	0.8819	0.2727	0.4595	-0.083
Mof_C 	C 	0.8361	0.3228	0.4405	-0.294
Mof_H 	H 	0.8203	0.3115	0.3955	0.122
Mof_C 	C 	0.94023	0.2963	0.5791	0.783
Mof_C 	C 	0.74915	0.5103	0.4022	0.045
Mof_C 	C 	0.78524	0.5337	0.3946	-0.105
Mof_H 	H 	0.8079	0.5172	0.3848	0.061
Mof_C 	C 	0.78785	0.5812	0.4016	0.008
Mof_C 	C 	0.75401	0.6044	0.4206	-0.095
Mof_H 	H 	0.7557	0.6364	0.4271	0.055
Mof_C 	C 	0.71781	0.581	0.43	0.026
Mof_C 	C 	0.71516	0.5345	0.4197	-0.112
Mof_H 	H 	0.6909	0.5186	0.4243	0.06
Mof_C 	C 	0.6821	0.6065	0.4536	0.05
Mof_C 	C 	0.6751	0.6511	0.4365	0.134
Mof_H 	H 	0.6924	0.6664	0.4111	-0.029
Mof_C 	C 	0.6415	0.6755	0.4565	-0.234
Mof_H 	H 	0.6369	0.7068	0.4447	0.095
Mof_C 	C 	0.6197	0.6078	0.4993	0.115
Mof_H 	H 	0.5985	0.5912	0.5138	-0.011
Mof_C 	C 	0.654	0.5834	0.485	-0.134
Mof_H 	H 	0.6577	0.5521	0.4965	0.065
Mof_C 	C 	0.6159	0.6523	0.4935	-0.108
Mof_C 	C 	0.5795	0.6794	0.5149	0.359
Mof_C 	C 	0.8263	0.6056	0.3934	0.106
Mof_C 	C 	0.8421	0.6433	0.4382	-0.202
Mof_H 	H 	0.8283	0.6529	0.4738	0.091
Mof_C 	C 	0.8792	0.6675	0.4306	0.165
Mof_H 	H 	0.8901	0.6921	0.4618	-0.033
Mof_C 	C 	0.89883	0.654	0.3766	-0.304
Mof_C 	C 	0.8835	0.6174	0.3301	0.173
Mof_H 	H 	0.8966	0.6089	0.293	-0.041
Mof_C 	C 	0.8477	0.5932	0.3402	-0.209
Mof_H 	H 	0.8378	0.5679	0.3101	0.095
Mof_C 	C 	0.936	0.6823	0.3651	0.704
Mof_C 	C 	0.6904	0.644	0.501	-0.279
Mof_H 	H 	0.7186	0.6514	0.5239	0.118
Mof_C 	C 	0.6582	0.6708	0.5151	0.248
Mof_H 	H 	0.6636	0.6997	0.5378	-0.051
Mof_C 	C 	0.6054	0.6149	0.4421	-0.094
Mof_H 	H 	0.5774	0.606	0.4214	0.042
Mof_C 	C 	0.64	0.5928	0.4251	-0.003
Mof_H 	H 	0.6347	0.5677	0.393	0.015
Mof_Lu	Lu	2.02757e-33	0.30355	0.75	3.524
Mof_Lu	Lu	0.5	0.80355	0.75	3.713
Mof_Lu	Lu	6.73942e-18	0.69645	0.25	3.519
Mof_Lu	Lu	0.5	0.19645	0.25	3.713
_end
