data_functionalizedCrystal
_audit_creation_method	'EQeq! by Chris Wilmer'
_symmetry_space_group_name_H-M	'P1'
_symmetry_Int_Tables_number	1
_symmetry_cell_setting	triclinic
loop_
_symmetry_equiv_pos_as_xyz
  x,y,z
_cell_length_a	11.098
_cell_length_b	11.194
_cell_length_c	16.587
_cell_angle_alpha	99.085
_cell_angle_beta	109.296
_cell_angle_gamma	91.098
loop_
_atom_site_label
_atom_site_type_symbol
_atom_site_fract_x
_atom_site_fract_y
_atom_site_fract_z
_atom_site_charge
Mof_Co	Co	0.17774	0.86659	0.25096	1.195
Mof_Co	Co	0.20119	0.70816	0.04874	1.138
Mof_Co	Co	0.92064	0.76726	0.03597	1.182
Mof_Co	Co	0.24146	0.08115	0.45632	1.184
Mof_Co	Co	0.17249	0.80943	0.46057	1.136
Mof_Co	Co	0.82226	0.13341	0.74904	1.196
Mof_Co	Co	0.79881	0.29184	0.95126	1.139
Mof_Co	Co	0.07936	0.23274	0.96403	1.183
Mof_Co	Co	0.75854	0.91885	0.54368	1.185
Mof_Co	Co	0.82751	0.19057	0.53943	1.136
Mof_H 	H 	0.5686	0.0551	0.3584	0.025
Mof_H 	H 	0.4961	0.027	0.2047	0.089
Mof_H 	H 	0.6351	0.9724	0.1373	0.038
Mof_H 	H 	0.8908	0.6608	0.3661	0.033
Mof_H 	H 	0.8032	0.6193	0.2183	0.081
Mof_H 	H 	0.5937	0.6711	0.154	0.034
Mof_H 	H 	0.9773	0.1741	0.1421	0.03
Mof_H 	H 	0.0037	0.2171	0.2895	0.082
Mof_H 	H 	0.067	0.4154	0.365	0.033
Mof_H 	H 	0.3652	0.5005	0.1512	0.032
Mof_H 	H 	0.4316	0.5229	0.3027	0.094
Mof_H 	H 	0.3821	0.3604	0.3607	0.036
Mof_H 	H 	0.3269	0.8955	0.4046	0.269
Mof_H 	H 	0.1226	0.898	0.0957	0.264
Mof_H 	H 	0.4314	0.9449	0.6416	0.025
Mof_H 	H 	0.5039	0.973	0.7953	0.089
Mof_H 	H 	0.3649	0.0276	0.8627	0.038
Mof_H 	H 	0.1092	0.3392	0.6339	0.033
Mof_H 	H 	0.1968	0.3807	0.7817	0.081
Mof_H 	H 	0.4063	0.3289	0.846	0.034
Mof_H 	H 	0.0227	0.8259	0.8579	0.03
Mof_H 	H 	0.9963	0.7829	0.7105	0.082
Mof_H 	H 	0.933	0.5846	0.635	0.033
Mof_H 	H 	0.6348	0.4995	0.8488	0.032
Mof_H 	H 	0.5684	0.4771	0.6973	0.094
Mof_H 	H 	0.6179	0.6396	0.6393	0.036
Mof_H 	H 	0.6731	0.1045	0.5954	0.269
Mof_H 	H 	0.8774	0.102	0.9043	0.264
Mof_C 	C 	0.6227	0.0325	0.3271	0.018
Mof_C 	C 	0.5802	0.0157	0.2365	-0.091
Mof_C 	C 	0.6645	0.983	0.1976	0.032
Mof_C 	C 	0.7889	0.9634	0.2362	-0.082
Mof_C 	C 	0.8365	0.987	0.3247	-0.014
Mof_C 	C 	0.9675	0.9736	0.3799	0.37
Mof_C 	C 	0.8791	0.913	0.1908	0.362
Mof_C 	C 	0.8059	0.6763	0.3401	0.057
Mof_C 	C 	0.7559	0.6532	0.252	-0.106
Mof_C 	C 	0.6296	0.6827	0.2141	0.043
Mof_C 	C 	0.5577	0.7282	0.2633	-0.1
Mof_C 	C 	0.6124	0.7416	0.3534	0.013
Mof_C 	C 	0.5455	0.7772	0.4187	0.278
Mof_C 	C 	0.4216	0.7556	0.2206	0.385
Mof_C 	C 	0.9947	0.2536	0.172	0.022
Mof_C 	C 	0.014	0.2788	0.2603	-0.097
Mof_C 	C 	0.0494	0.3993	0.3053	0.047
Mof_C 	C 	0.0579	0.4885	0.2651	-0.106
Mof_C 	C 	0.0347	0.4622	0.1713	0.003
Mof_C 	C 	0.0413	0.5553	0.1156	0.364
Mof_C 	C 	0.1023	0.6171	0.3052	0.396
Mof_C 	C 	0.3558	0.435	0.1774	0.065
Mof_C 	C 	0.3912	0.4506	0.2672	-0.114
Mof_C 	C 	0.3627	0.3513	0.3009	0.05
Mof_C 	C 	0.3081	0.2421	0.252	-0.102
Mof_C 	C 	0.2826	0.2262	0.1598	0.004
Mof_C 	C 	0.2398	0.1163	0.0949	0.289
Mof_C 	C 	0.2751	0.1415	0.2897	0.38
Mof_C 	C 	0.3773	0.9675	0.6729	0.018
Mof_C 	C 	0.4198	0.9843	0.7635	-0.091
Mof_C 	C 	0.3355	0.017	0.8024	0.032
Mof_C 	C 	0.2111	0.0366	0.7638	-0.082
Mof_C 	C 	0.1635	0.013	0.6753	-0.014
Mof_C 	C 	0.0325	0.0264	0.6201	0.37
Mof_C 	C 	0.1209	0.087	0.8092	0.362
Mof_C 	C 	0.1941	0.3237	0.6599	0.057
Mof_C 	C 	0.2441	0.3468	0.748	-0.106
Mof_C 	C 	0.3704	0.3173	0.7859	0.043
Mof_C 	C 	0.4423	0.2718	0.7367	-0.1
Mof_C 	C 	0.3876	0.2584	0.6466	0.013
Mof_C 	C 	0.4545	0.2228	0.5813	0.278
Mof_C 	C 	0.5784	0.2444	0.7794	0.385
Mof_C 	C 	0.0053	0.7464	0.828	0.022
Mof_C 	C 	0.986	0.7212	0.7397	-0.097
Mof_C 	C 	0.9506	0.6007	0.6947	0.047
Mof_C 	C 	0.9421	0.5115	0.7349	-0.106
Mof_C 	C 	0.9653	0.5378	0.8287	0.003
Mof_C 	C 	0.9587	0.4447	0.8844	0.364
Mof_C 	C 	0.8977	0.3829	0.6948	0.396
Mof_C 	C 	0.6442	0.565	0.8226	0.065
Mof_C 	C 	0.6088	0.5494	0.7328	-0.114
Mof_C 	C 	0.6373	0.6487	0.6991	0.05
Mof_C 	C 	0.6919	0.7579	0.748	-0.102
Mof_C 	C 	0.7174	0.7738	0.8402	0.004
Mof_C 	C 	0.7602	0.8837	0.9051	0.289
Mof_C 	C 	0.7249	0.8585	0.7103	0.38
Mof_N 	N 	0.7476	0.0139	0.3669	-0.045
Mof_N 	N 	0.7378	0.7216	0.3934	-0.059
Mof_N 	N 	0.0017	0.3452	0.1307	-0.05
Mof_N 	N 	0.3069	0.3238	0.1271	-0.062
Mof_N 	N 	0.2524	0.9861	0.6331	-0.045
Mof_N 	N 	0.2622	0.2784	0.6066	-0.059
Mof_N 	N 	0.9983	0.6548	0.8693	-0.05
Mof_N 	N 	0.6931	0.6762	0.8729	-0.062
Mof_O 	O 	0.7923	0.0273	0.4535	-0.402
Mof_O 	O 	0.0401	0.069	0.4017	-0.407
Mof_O 	O 	0.996	0.8724	0.3997	-0.418
Mof_O 	O 	0.9985	0.931	0.235	-0.415
Mof_O 	O 	0.8319	0.8556	0.1141	-0.412
Mof_O 	O 	0.7858	0.7439	0.4772	-0.241
Mof_O 	O 	0.4737	0.6938	0.4251	-0.26
Mof_O 	O 	0.5651	0.8875	0.4587	-0.383
Mof_O 	O 	0.3632	0.808	0.2656	-0.421
Mof_O 	O 	0.3779	0.7212	0.1371	-0.449
Mof_O 	O 	0.9735	0.3207	0.044	-0.412
Mof_O 	O 	0.1414	0.5674	0.1025	-0.415
Mof_O 	O 	0.9396	0.6117	0.0916	-0.408
Mof_O 	O 	0.1172	0.6911	0.2595	-0.431
Mof_O 	O 	0.1207	0.6413	0.3857	-0.447
Mof_O 	O 	0.2719	0.3178	0.0415	-0.232
Mof_O 	O 	0.1214	0.1019	0.0479	-0.38
Mof_O 	O 	0.3231	0.0465	0.0863	-0.259
Mof_O 	O 	0.2434	0.0392	0.2419	-0.411
Mof_O 	O 	0.2754	0.1664	0.3678	-0.424
Mof_O 	O 	0.248	0.9085	0.3897	-0.752
Mof_O 	O 	0.1107	0.8307	0.1106	-0.748
Mof_O 	O 	0.2077	0.9727	0.5465	-0.402
Mof_O 	O 	0.9599	0.931	0.5983	-0.407
Mof_O 	O 	0.004	0.1276	0.6003	-0.418
Mof_O 	O 	0.0015	0.069	0.765	-0.415
Mof_O 	O 	0.1681	0.1444	0.8859	-0.412
Mof_O 	O 	0.2142	0.2561	0.5228	-0.241
Mof_O 	O 	0.5263	0.3062	0.5749	-0.26
Mof_O 	O 	0.4349	0.1125	0.5413	-0.383
Mof_O 	O 	0.6368	0.192	0.7344	-0.421
Mof_O 	O 	0.6221	0.2788	0.8629	-0.449
Mof_O 	O 	0.0265	0.6793	0.956	-0.412
Mof_O 	O 	0.8586	0.4326	0.8975	-0.415
Mof_O 	O 	0.0604	0.3883	0.9084	-0.408
Mof_O 	O 	0.8828	0.3089	0.7405	-0.431
Mof_O 	O 	0.8793	0.3587	0.6143	-0.447
Mof_O 	O 	0.7281	0.6822	0.9585	-0.232
Mof_O 	O 	0.8786	0.8981	0.9521	-0.38
Mof_O 	O 	0.6769	0.9535	0.9137	-0.259
Mof_O 	O 	0.7566	0.9608	0.7581	-0.411
Mof_O 	O 	0.7246	0.8336	0.6322	-0.424
Mof_O 	O 	0.752	0.0915	0.6103	-0.752
Mof_O 	O 	0.8893	0.1693	0.8894	-0.748
_end
