data_functionalizedCrystal
_audit_creation_method	'EQeq! by Chris Wilmer'
_symmetry_space_group_name_H-M	'P1'
_symmetry_Int_Tables_number	1
_symmetry_cell_setting	triclinic
loop_
_symmetry_equiv_pos_as_xyz
  x,y,z
_cell_length_a	33.6473
_cell_length_b	33.6473
_cell_length_c	33.6473
_cell_angle_alpha	90
_cell_angle_beta	90
_cell_angle_gamma	90
loop_
_atom_site_label
_atom_site_type_symbol
_atom_site_fract_x
_atom_site_fract_y
_atom_site_fract_z
_atom_site_charge
Mof_C 	C 	0.4082	0.0947	0.4972	0.461
Mof_C 	C 	0.3781	0.1255	0.4865	-0.089
Mof_C 	C 	0.3894	0.1638	0.4729	-0.078
Mof_H 	H 	0.4167	0.1702	0.4699	0.073
Mof_C 	C 	0.3613	0.1913	0.4642	0.11
Mof_C 	C 	0.3202	0.1826	0.4693	-0.032
Mof_C 	C 	0.3105	0.145	0.484	-0.069
Mof_H 	H 	0.2834	0.1395	0.4899	0.047
Mof_C 	C 	0.3383	0.1153	0.4905	0.001
Mof_H 	H 	0.3304	0.0891	0.4974	0.038
Mof_C 	C 	0.2913	0.2119	0.4627	-0.031
Mof_C 	C 	0.2649	0.2362	0.4607	-0.031
Mof_O 	O 	0.3677	0.2285	0.4492	-0.201
Mof_C 	C 	0.4076	0.2427	0.4443	-0.086
Mof_H 	H 	0.4214	0.227	0.4236	0.055
Mof_H 	H 	0.4225	0.24	0.4695	0.057
Mof_C 	C 	0.4057	0.2852	0.4322	0.166
Mof_C 	C 	0.3821	0.3099	0.4631	-0.247
Mof_H 	H 	0.3542	0.3005	0.4632	0.11
Mof_H 	H 	0.382	0.338	0.4545	0.095
Mof_C 	C 	0.3711	0.2686	0.5361	-0.453
Mof_H 	H 	0.3837	0.2427	0.5317	0.168
Mof_H 	H 	0.3445	0.2686	0.5244	0.174
Mof_H 	H 	0.3691	0.2736	0.5648	0.179
Mof_C 	C 	0.4488	0.2996	0.4277	-0.242
Mof_H 	H 	0.4618	0.2833	0.4069	0.095
Mof_H 	H 	0.4629	0.2943	0.453	0.095
Mof_C 	C 	0.4647	0.3734	0.4646	-0.394
Mof_H 	H 	0.488	0.361	0.4769	0.13
Mof_H 	H 	0.4414	0.3692	0.4816	0.132
Mof_H 	H 	0.4694	0.4019	0.4615	0.125
Mof_C 	C 	0.3824	0.2926	0.3937	-0.221
Mof_H 	H 	0.3809	0.3216	0.3892	0.086
Mof_H 	H 	0.3549	0.2827	0.3974	0.095
Mof_C 	C 	0.37	0.2258	0.345	0.459
Mof_H 	H 	0.3777	0.2098	0.3214	-0.744
Mof_H 	H 	0.3721	0.2095	0.3686	-0.152
Mof_H 	H 	0.3427	0.235	0.3413	-0.106
Mof_C 	C 	0.5956	0.09	0.4926	0.497
Mof_C 	C 	0.627	0.1205	0.4828	-0.046
Mof_C 	C 	0.6163	0.1613	0.4862	-0.087
Mof_H 	H 	0.5897	0.1682	0.4929	-0.055
Mof_C 	C 	0.6435	0.1901	0.4802	-0.001
Mof_C 	C 	0.6816	0.1802	0.4646	0.01
Mof_C 	C 	0.6912	0.1402	0.4602	-0.014
Mof_H 	H 	0.7163	0.1333	0.4493	0.034
Mof_C 	C 	0.6653	0.1098	0.4712	0.012
Mof_H 	H 	0.6735	0.0828	0.4709	0.032
Mof_C 	C 	0.7105	0.2096	0.4575	0.05
Mof_C 	C 	0.7359	0.2352	0.4554	0.006
Mof_O 	O 	0.6359	0.2298	0.4837	-0.199
Mof_C 	C 	0.6043	0.242	0.5092	-0.269
Mof_H 	H 	0.6079	0.231	0.5362	1.116
Mof_H 	H 	0.5784	0.233	0.4986	-1.131
Mof_C 	C 	0.6066	0.2891	0.5099	0.334
Mof_C 	C 	0.6428	0.3017	0.5267	-0.399
Mof_H 	H 	0.6433	0.3311	0.526	0.145
Mof_H 	H 	0.6645	0.2923	0.5092	0.162
Mof_S 	S 	0.6541	0.2868	0.575	0.098
Mof_C 	C 	0.7018	0.3141	0.5727	-0.45
Mof_H 	H 	0.716	0.3109	0.5979	0.169
Mof_H 	H 	0.718	0.3034	0.551	0.163
Mof_H 	H 	0.6966	0.3423	0.5679	0.168
Mof_C 	C 	0.5752	0.3007	0.5376	-0.351
Mof_H 	H 	0.5795	0.2865	0.563	0.165
Mof_H 	H 	0.5494	0.2917	0.5267	0.168
Mof_C 	C 	0.5217	0.3617	0.5693	-0.428
Mof_H 	H 	0.5189	0.3901	0.5753	0.137
Mof_H 	H 	0.5013	0.3538	0.5501	0.141
Mof_H 	H 	0.5185	0.3463	0.5938	0.165
Mof_C 	C 	0.6005	0.3043	0.4677	-0.361
Mof_H 	H 	0.6236	0.2956	0.4516	0.151
Mof_H 	H 	0.6009	0.3337	0.4685	0.137
Mof_C 	C 	0.5735	0.2453	0.4144	-0.46
Mof_H 	H 	0.6017	0.2412	0.4202	0.153
Mof_H 	H 	0.57	0.2497	0.3858	0.173
Mof_H 	H 	0.5584	0.2217	0.4225	0.145
Mof_O 	O 	0.4455	0.1078	0.4976	-0.635
Mof_O 	O 	0.3966	0.0599	0.501	-0.665
Mof_O 	O 	0.56	0.1036	0.4959	-0.641
Mof_O 	O 	0.6063	0.0545	0.4951	-0.67
Mof_S 	S 	0.4011	0.3074	0.5131	0.088
Mof_S 	S 	0.4558	0.35074	0.4153	0.053
Mof_S 	S 	0.4035	0.269	0.3488	-0.013
Mof_S 	S 	0.5716	0.3523	0.548	0.07
Mof_S 	S 	0.5553	0.2888	0.4419	0.09
Mof_Zr	Zr	0.50169	0.07346	0.4982	3.251
Mof_O 	O 	0.532	0.0295	0.4699	-2.57
Mof_Hg	Hg	0.65763	0.38376	0.38919	0.221
Mof_Cl	Cl	0.6973	0.3507	0.4398	-0.367
Mof_Cl	Cl	0.6187	0.3492	0.3435	-0.355
Mof_C 	C 	0.393	0.23	0.311	-0.61
Mof_H 	H 	0.4149	0.2291	0.2922	0.201
Mof_H 	H 	0.3898	0.2047	0.3244	0.824
Mof_H 	H 	0.3683	0.2371	0.2972	0.264
Mof_C 	C 	0.6253	0.1227	0.49	-0.035
Mof_C 	C 	0.6161	0.1631	0.4976	0.042
Mof_H 	H 	0.5899	0.1709	0.5048	0.115
Mof_C 	C 	0.6455	0.1901	0.4943	0.065
Mof_C 	C 	0.6843	0.1774	0.4835	-0.005
Mof_C 	C 	0.6923	0.1376	0.4762	-0.051
Mof_H 	H 	0.7185	0.1298	0.469	0.052
Mof_C 	C 	0.6627	0.109	0.4794	-0.004
Mof_H 	H 	0.6678	0.0816	0.4745	0.019
Mof_C 	C 	0.7147	0.2061	0.4802	-0.043
Mof_C 	C 	0.7372	0.2341	0.4787	-0
Mof_O 	O 	0.6435	0.23	0.5001	-0.085
Mof_H 	H 	0.5958	0.2315	0.5353	-0.934
Mof_H 	H 	0.5855	0.2327	0.4885	1.31
Mof_O 	O 	0.5409	0.0377	0.4557	1.796
Mof_H 	H 	0.5581	0.0538	0.4375	-0.558
Mof_C 	C 	0.0918	0.4053	0.4972	0.46
Mof_C 	C 	0.1219	0.3745	0.4865	-0.09
Mof_C 	C 	0.1106	0.3362	0.4729	-0.078
Mof_H 	H 	0.0833	0.3298	0.4699	0.073
Mof_C 	C 	0.1387	0.3087	0.4642	0.11
Mof_C 	C 	0.1798	0.3174	0.4693	-0.032
Mof_C 	C 	0.1895	0.355	0.484	-0.069
Mof_H 	H 	0.2166	0.3605	0.4899	0.047
Mof_C 	C 	0.1617	0.3847	0.4905	0.001
Mof_H 	H 	0.1696	0.4109	0.4974	0.038
Mof_C 	C 	0.2087	0.2881	0.4627	-0.031
Mof_C 	C 	0.2351	0.2638	0.4607	-0.031
Mof_O 	O 	0.1323	0.2715	0.4492	-0.201
Mof_C 	C 	0.0924	0.2573	0.4443	-0.086
Mof_H 	H 	0.0786	0.273	0.4236	0.055
Mof_H 	H 	0.0775	0.26	0.4695	0.057
Mof_C 	C 	0.0943	0.2148	0.4322	0.166
Mof_C 	C 	0.1179	0.1901	0.4631	-0.247
Mof_H 	H 	0.1458	0.1995	0.4632	0.11
Mof_H 	H 	0.118	0.162	0.4545	0.095
Mof_C 	C 	0.1289	0.2314	0.5361	-0.453
Mof_H 	H 	0.1163	0.2573	0.5317	0.168
Mof_H 	H 	0.1555	0.2314	0.5244	0.174
Mof_H 	H 	0.1309	0.2264	0.5648	0.179
Mof_C 	C 	0.0512	0.2004	0.4277	-0.242
Mof_H 	H 	0.0382	0.2167	0.4069	0.096
Mof_H 	H 	0.0371	0.2057	0.453	0.095
Mof_C 	C 	0.0353	0.1266	0.4646	-0.394
Mof_H 	H 	0.012	0.139	0.4769	0.13
Mof_H 	H 	0.0586	0.1308	0.4816	0.132
Mof_H 	H 	0.0306	0.0981	0.4615	0.126
Mof_C 	C 	0.1176	0.2074	0.3937	-0.221
Mof_H 	H 	0.1191	0.1784	0.3892	0.086
Mof_H 	H 	0.1451	0.2173	0.3974	0.095
Mof_C 	C 	0.13	0.2742	0.345	0.459
Mof_H 	H 	0.1223	0.2902	0.3214	-0.744
Mof_H 	H 	0.1279	0.2905	0.3686	-0.152
Mof_H 	H 	0.1573	0.265	0.3413	-0.106
Mof_C 	C 	0.9044	0.41	0.4926	0.497
Mof_C 	C 	0.873	0.3795	0.4828	-0.046
Mof_C 	C 	0.8837	0.3387	0.4862	-0.087
Mof_H 	H 	0.9103	0.3318	0.4929	-0.055
Mof_C 	C 	0.8565	0.3099	0.4802	-0.001
Mof_C 	C 	0.8184	0.3198	0.4646	0.01
Mof_C 	C 	0.8088	0.3598	0.4602	-0.014
Mof_H 	H 	0.7837	0.3667	0.4493	0.034
Mof_C 	C 	0.8347	0.3902	0.4712	0.012
Mof_H 	H 	0.8265	0.4172	0.4709	0.032
Mof_C 	C 	0.7895	0.2904	0.4575	0.049
Mof_C 	C 	0.7641	0.2648	0.4554	0.006
Mof_O 	O 	0.8641	0.2702	0.4837	-0.199
Mof_C 	C 	0.8957	0.258	0.5092	-0.269
Mof_H 	H 	0.8921	0.269	0.5362	1.116
Mof_H 	H 	0.9216	0.267	0.4986	-1.13
Mof_C 	C 	0.8934	0.2109	0.5099	0.334
Mof_C 	C 	0.8572	0.1983	0.5267	-0.399
Mof_H 	H 	0.8567	0.1689	0.526	0.145
Mof_H 	H 	0.8355	0.2077	0.5092	0.162
Mof_S 	S 	0.8459	0.2132	0.575	0.098
Mof_C 	C 	0.7982	0.1859	0.5727	-0.45
Mof_H 	H 	0.784	0.1891	0.5979	0.169
Mof_H 	H 	0.782	0.1966	0.551	0.163
Mof_H 	H 	0.8034	0.1577	0.5679	0.168
Mof_C 	C 	0.9248	0.1993	0.5376	-0.351
Mof_H 	H 	0.9205	0.2135	0.563	0.165
Mof_H 	H 	0.9506	0.2083	0.5267	0.168
Mof_C 	C 	0.9783	0.1383	0.5693	-0.428
Mof_H 	H 	0.9811	0.1099	0.5753	0.137
Mof_H 	H 	0.9987	0.1462	0.5501	0.141
Mof_H 	H 	0.9815	0.1537	0.5938	0.165
Mof_C 	C 	0.8995	0.1957	0.4677	-0.361
Mof_H 	H 	0.8764	0.2044	0.4516	0.151
Mof_H 	H 	0.8991	0.1663	0.4685	0.137
Mof_C 	C 	0.9265	0.2547	0.4144	-0.46
Mof_H 	H 	0.8983	0.2588	0.4202	0.153
Mof_H 	H 	0.93	0.2503	0.3858	0.173
Mof_H 	H 	0.9416	0.2783	0.4225	0.145
Mof_O 	O 	0.0545	0.3922	0.4976	-0.635
Mof_O 	O 	0.1034	0.4401	0.501	-0.665
Mof_O 	O 	0.94	0.3964	0.4959	-0.641
Mof_O 	O 	0.8937	0.4455	0.4951	-0.67
Mof_S 	S 	0.0989	0.1926	0.5131	0.088
Mof_S 	S 	0.0442	0.14926	0.4153	0.053
Mof_S 	S 	0.0965	0.231	0.3488	-0.013
Mof_S 	S 	0.9284	0.1477	0.548	0.07
Mof_S 	S 	0.9447	0.2112	0.4419	0.091
Mof_Zr	Zr	0.99831	0.42654	0.4982	3.251
Mof_O 	O 	0.968	0.4705	0.4699	-2.571
Mof_Hg	Hg	0.84237	0.11624	0.38919	0.221
Mof_Cl	Cl	0.8027	0.1493	0.4398	-0.367
Mof_Cl	Cl	0.8813	0.1508	0.3435	-0.355
Mof_C 	C 	0.107	0.27	0.311	-0.61
Mof_H 	H 	0.0851	0.2709	0.2922	0.201
Mof_H 	H 	0.1102	0.2953	0.3244	0.824
Mof_H 	H 	0.1317	0.2629	0.2972	0.264
Mof_C 	C 	0.8747	0.3773	0.49	-0.035
Mof_C 	C 	0.8839	0.3369	0.4976	0.042
Mof_H 	H 	0.9101	0.3291	0.5048	0.116
Mof_C 	C 	0.8545	0.3099	0.4943	0.065
Mof_C 	C 	0.8157	0.3226	0.4835	-0.006
Mof_C 	C 	0.8077	0.3624	0.4762	-0.051
Mof_H 	H 	0.7815	0.3702	0.469	0.052
Mof_C 	C 	0.8373	0.391	0.4794	-0.004
Mof_H 	H 	0.8322	0.4184	0.4745	0.019
Mof_C 	C 	0.7853	0.2939	0.4802	-0.043
Mof_C 	C 	0.7628	0.2659	0.4787	-0
Mof_O 	O 	0.8565	0.27	0.5001	-0.085
Mof_H 	H 	0.9042	0.2685	0.5353	-0.934
Mof_H 	H 	0.9145	0.2673	0.4885	1.309
Mof_O 	O 	0.9591	0.4623	0.4557	1.797
Mof_H 	H 	0.9419	0.4462	0.4375	-0.559
Mof_C 	C 	0.0918	0.0947	0.0028	0.461
Mof_C 	C 	0.1219	0.1255	0.0135	-0.09
Mof_C 	C 	0.1106	0.1638	0.0271	-0.078
Mof_H 	H 	0.0833	0.1702	0.0301	0.073
Mof_C 	C 	0.1387	0.1913	0.0358	0.11
Mof_C 	C 	0.1798	0.1826	0.0307	-0.032
Mof_C 	C 	0.1895	0.145	0.016	-0.069
Mof_H 	H 	0.2166	0.1395	0.0101	0.047
Mof_C 	C 	0.1617	0.1153	0.0095	0.001
Mof_H 	H 	0.1696	0.0891	0.0026	0.038
Mof_C 	C 	0.2087	0.2119	0.0373	-0.031
Mof_C 	C 	0.2351	0.2362	0.0393	-0.031
Mof_O 	O 	0.1323	0.2285	0.0508	-0.201
Mof_C 	C 	0.0924	0.2427	0.0557	-0.086
Mof_H 	H 	0.0786	0.227	0.0764	0.055
Mof_H 	H 	0.0775	0.24	0.0305	0.057
Mof_C 	C 	0.0943	0.2852	0.0678	0.166
Mof_C 	C 	0.1179	0.3099	0.0369	-0.247
Mof_H 	H 	0.1458	0.3005	0.0368	0.11
Mof_H 	H 	0.118	0.338	0.0455	0.095
Mof_C 	C 	0.1289	0.2686	0.9639	-0.453
Mof_H 	H 	0.1163	0.2427	0.9683	0.168
Mof_H 	H 	0.1555	0.2686	0.9756	0.174
Mof_H 	H 	0.1309	0.2736	0.9352	0.179
Mof_C 	C 	0.0512	0.2996	0.0723	-0.242
Mof_H 	H 	0.0382	0.2833	0.0931	0.096
Mof_H 	H 	0.0371	0.2943	0.047	0.095
Mof_C 	C 	0.0353	0.3734	0.0354	-0.394
Mof_H 	H 	0.012	0.361	0.0231	0.13
Mof_H 	H 	0.0586	0.3692	0.0184	0.133
Mof_H 	H 	0.0306	0.4019	0.0385	0.126
Mof_C 	C 	0.1176	0.2926	0.1063	-0.221
Mof_H 	H 	0.1191	0.3216	0.1108	0.086
Mof_H 	H 	0.1451	0.2827	0.1026	0.095
Mof_C 	C 	0.13	0.2258	0.155	0.459
Mof_H 	H 	0.1223	0.2098	0.1786	-0.744
Mof_H 	H 	0.1279	0.2095	0.1314	-0.152
Mof_H 	H 	0.1573	0.235	0.1587	-0.106
Mof_C 	C 	0.9044	0.09	0.0074	0.497
Mof_C 	C 	0.873	0.1205	0.0172	-0.045
Mof_C 	C 	0.8837	0.1613	0.0138	-0.084
Mof_H 	H 	0.9103	0.1682	0.0071	-0.046
Mof_C 	C 	0.8565	0.1901	0.0198	-0.001
Mof_C 	C 	0.8184	0.1802	0.0354	0.008
Mof_C 	C 	0.8088	0.1402	0.0398	-0.014
Mof_H 	H 	0.7837	0.1333	0.0507	0.034
Mof_C 	C 	0.8347	0.1098	0.0288	0.012
Mof_H 	H 	0.8265	0.0828	0.0291	0.032
Mof_C 	C 	0.7895	0.2096	0.0425	0.049
Mof_C 	C 	0.7641	0.2352	0.0446	0.008
Mof_O 	O 	0.8641	0.2298	0.0163	-0.2
Mof_C 	C 	0.8957	0.242	0.9908	-0.268
Mof_H 	H 	0.8921	0.231	0.9638	1.111
Mof_H 	H 	0.9216	0.233	0.0014	-1.125
Mof_C 	C 	0.8934	0.2891	0.9901	0.334
Mof_C 	C 	0.8572	0.3017	0.9733	-0.399
Mof_H 	H 	0.8567	0.3311	0.974	0.145
Mof_H 	H 	0.8355	0.2923	0.9908	0.162
Mof_S 	S 	0.8459	0.2868	0.925	0.098
Mof_C 	C 	0.7982	0.3141	0.9273	-0.45
Mof_H 	H 	0.784	0.3109	0.9021	0.169
Mof_H 	H 	0.782	0.3034	0.949	0.163
Mof_H 	H 	0.8034	0.3423	0.9321	0.168
Mof_C 	C 	0.9248	0.3007	0.9624	-0.352
Mof_H 	H 	0.9205	0.2865	0.937	0.165
Mof_H 	H 	0.9506	0.2917	0.9733	0.168
Mof_C 	C 	0.9783	0.3617	0.9307	-0.428
Mof_H 	H 	0.9811	0.3901	0.9247	0.138
Mof_H 	H 	0.9987	0.3538	0.9499	0.141
Mof_H 	H 	0.9815	0.3463	0.9062	0.165
Mof_C 	C 	0.8995	0.3043	0.0323	-0.361
Mof_H 	H 	0.8764	0.2956	0.0484	0.151
Mof_H 	H 	0.8991	0.3337	0.0315	0.137
Mof_C 	C 	0.9265	0.2453	0.0856	-0.46
Mof_H 	H 	0.8983	0.2412	0.0798	0.153
Mof_H 	H 	0.93	0.2497	0.1142	0.172
Mof_H 	H 	0.9416	0.2217	0.0775	0.145
Mof_O 	O 	0.0545	0.1078	0.0024	-0.634
Mof_O 	O 	0.1034	0.0599	0.999	-0.666
Mof_O 	O 	0.94	0.1036	0.0041	-0.641
Mof_O 	O 	0.8937	0.0545	0.0049	-0.669
Mof_S 	S 	0.0989	0.3074	0.9869	0.088
Mof_S 	S 	0.0442	0.35074	0.0847	0.054
Mof_S 	S 	0.0965	0.269	0.1512	-0.013
Mof_S 	S 	0.9284	0.3523	0.952	0.071
Mof_S 	S 	0.9447	0.2888	0.0581	0.091
Mof_Zr	Zr	0.99831	0.07346	0.0018	3.251
Mof_O 	O 	0.968	0.0295	0.0301	-2.57
Mof_Hg	Hg	0.84237	0.38376	0.11081	0.221
Mof_Cl	Cl	0.8027	0.3507	0.0602	-0.367
Mof_Cl	Cl	0.8813	0.3492	0.1565	-0.355
Mof_C 	C 	0.107	0.23	0.189	-0.61
Mof_H 	H 	0.0851	0.2291	0.2078	0.201
Mof_H 	H 	0.1102	0.2047	0.1756	0.824
Mof_H 	H 	0.1317	0.2371	0.2028	0.264
Mof_C 	C 	0.8747	0.1227	0.01	-0.036
Mof_C 	C 	0.8839	0.1631	0.0024	0.038
Mof_H 	H 	0.9101	0.1709	0.9952	0.108
Mof_C 	C 	0.8545	0.1901	0.0057	0.065
Mof_C 	C 	0.8157	0.1774	0.0165	-0.003
Mof_C 	C 	0.8077	0.1376	0.0238	-0.051
Mof_H 	H 	0.7815	0.1298	0.031	0.052
Mof_C 	C 	0.8373	0.109	0.0206	-0.004
Mof_H 	H 	0.8322	0.0816	0.0255	0.019
Mof_C 	C 	0.7853	0.2061	0.0198	-0.042
Mof_C 	C 	0.7628	0.2341	0.0213	-0.002
Mof_O 	O 	0.8565	0.23	0.9999	-0.083
Mof_H 	H 	0.9042	0.2315	0.9647	-0.93
Mof_H 	H 	0.9145	0.2327	0.0115	1.304
Mof_O 	O 	0.9591	0.0377	0.0443	1.795
Mof_H 	H 	0.9419	0.0538	0.0625	-0.558
Mof_C 	C 	0.4082	0.4053	0.0028	0.46
Mof_C 	C 	0.3781	0.3745	0.0135	-0.089
Mof_C 	C 	0.3894	0.3362	0.0271	-0.078
Mof_H 	H 	0.4167	0.3298	0.0301	0.073
Mof_C 	C 	0.3613	0.3087	0.0358	0.11
Mof_C 	C 	0.3202	0.3174	0.0307	-0.032
Mof_C 	C 	0.3105	0.355	0.016	-0.069
Mof_H 	H 	0.2834	0.3605	0.0101	0.047
Mof_C 	C 	0.3383	0.3847	0.0095	0.001
Mof_H 	H 	0.3304	0.4109	0.0026	0.038
Mof_C 	C 	0.2913	0.2881	0.0373	-0.031
Mof_C 	C 	0.2649	0.2638	0.0393	-0.031
Mof_O 	O 	0.3677	0.2715	0.0508	-0.201
Mof_C 	C 	0.4076	0.2573	0.0557	-0.086
Mof_H 	H 	0.4214	0.273	0.0764	0.055
Mof_H 	H 	0.4225	0.26	0.0305	0.057
Mof_C 	C 	0.4057	0.2148	0.0678	0.166
Mof_C 	C 	0.3821	0.1901	0.0369	-0.247
Mof_H 	H 	0.3542	0.1995	0.0368	0.11
Mof_H 	H 	0.382	0.162	0.0455	0.095
Mof_C 	C 	0.3711	0.2314	0.9639	-0.453
Mof_H 	H 	0.3837	0.2573	0.9683	0.168
Mof_H 	H 	0.3445	0.2314	0.9756	0.174
Mof_H 	H 	0.3691	0.2264	0.9352	0.179
Mof_C 	C 	0.4488	0.2004	0.0723	-0.242
Mof_H 	H 	0.4618	0.2167	0.0931	0.095
Mof_H 	H 	0.4629	0.2057	0.047	0.095
Mof_C 	C 	0.4647	0.1266	0.0354	-0.394
Mof_H 	H 	0.488	0.139	0.0231	0.13
Mof_H 	H 	0.4414	0.1308	0.0184	0.133
Mof_H 	H 	0.4694	0.0981	0.0385	0.125
Mof_C 	C 	0.3824	0.2074	0.1063	-0.221
Mof_H 	H 	0.3809	0.1784	0.1108	0.086
Mof_H 	H 	0.3549	0.2173	0.1026	0.095
Mof_C 	C 	0.37	0.2742	0.155	0.459
Mof_H 	H 	0.3777	0.2902	0.1786	-0.744
Mof_H 	H 	0.3721	0.2905	0.1314	-0.152
Mof_H 	H 	0.3427	0.265	0.1587	-0.106
Mof_C 	C 	0.5956	0.41	0.0074	0.497
Mof_C 	C 	0.627	0.3795	0.0172	-0.045
Mof_C 	C 	0.6163	0.3387	0.0138	-0.085
Mof_H 	H 	0.5897	0.3318	0.0071	-0.05
Mof_C 	C 	0.6435	0.3099	0.0198	0
Mof_C 	C 	0.6816	0.3198	0.0354	0.01
Mof_C 	C 	0.6912	0.3598	0.0398	-0.013
Mof_H 	H 	0.7163	0.3667	0.0507	0.034
Mof_C 	C 	0.6653	0.3902	0.0288	0.012
Mof_H 	H 	0.6735	0.4172	0.0291	0.032
Mof_C 	C 	0.7105	0.2904	0.0425	0.048
Mof_C 	C 	0.7359	0.2648	0.0446	0.006
Mof_O 	O 	0.6359	0.2702	0.0163	-0.2
Mof_C 	C 	0.6043	0.258	0.9908	-0.268
Mof_H 	H 	0.6079	0.269	0.9638	1.112
Mof_H 	H 	0.5784	0.267	0.0014	-1.127
Mof_C 	C 	0.6066	0.2109	0.9901	0.334
Mof_C 	C 	0.6428	0.1983	0.9733	-0.399
Mof_H 	H 	0.6433	0.1689	0.974	0.145
Mof_H 	H 	0.6645	0.2077	0.9908	0.162
Mof_S 	S 	0.6541	0.2132	0.925	0.098
Mof_C 	C 	0.7018	0.1859	0.9273	-0.45
Mof_H 	H 	0.716	0.1891	0.9021	0.169
Mof_H 	H 	0.718	0.1966	0.949	0.163
Mof_H 	H 	0.6966	0.1577	0.9321	0.168
Mof_C 	C 	0.5752	0.1993	0.9624	-0.351
Mof_H 	H 	0.5795	0.2135	0.937	0.165
Mof_H 	H 	0.5494	0.2083	0.9733	0.168
Mof_C 	C 	0.5217	0.1383	0.9307	-0.428
Mof_H 	H 	0.5189	0.1099	0.9247	0.137
Mof_H 	H 	0.5013	0.1462	0.9499	0.141
Mof_H 	H 	0.5185	0.1537	0.9062	0.165
Mof_C 	C 	0.6005	0.1957	0.0323	-0.361
Mof_H 	H 	0.6236	0.2044	0.0484	0.151
Mof_H 	H 	0.6009	0.1663	0.0315	0.137
Mof_C 	C 	0.5735	0.2547	0.0856	-0.46
Mof_H 	H 	0.6017	0.2588	0.0798	0.153
Mof_H 	H 	0.57	0.2503	0.1142	0.172
Mof_H 	H 	0.5584	0.2783	0.0775	0.145
Mof_O 	O 	0.4455	0.3922	0.0024	-0.635
Mof_O 	O 	0.3966	0.4401	0.999	-0.665
Mof_O 	O 	0.56	0.3964	0.0041	-0.641
Mof_O 	O 	0.6063	0.4455	0.0049	-0.67
Mof_S 	S 	0.4011	0.1926	0.9869	0.088
Mof_S 	S 	0.4558	0.14926	0.0847	0.053
Mof_S 	S 	0.4035	0.231	0.1512	-0.013
Mof_S 	S 	0.5716	0.1477	0.952	0.07
Mof_S 	S 	0.5553	0.2112	0.0581	0.091
Mof_Zr	Zr	0.50169	0.42654	0.0018	3.251
Mof_O 	O 	0.532	0.4705	0.0301	-2.569
Mof_Hg	Hg	0.65763	0.11624	0.11081	0.221
Mof_Cl	Cl	0.6973	0.1493	0.0602	-0.366
Mof_Cl	Cl	0.6187	0.1508	0.1565	-0.355
Mof_C 	C 	0.393	0.27	0.189	-0.61
Mof_H 	H 	0.4149	0.2709	0.2078	0.201
Mof_H 	H 	0.3898	0.2953	0.1756	0.824
Mof_H 	H 	0.3683	0.2629	0.2028	0.264
Mof_C 	C 	0.6253	0.3773	0.01	-0.036
Mof_C 	C 	0.6161	0.3369	0.0024	0.039
Mof_H 	H 	0.5899	0.3291	0.9952	0.111
Mof_C 	C 	0.6455	0.3099	0.0057	0.064
Mof_C 	C 	0.6843	0.3226	0.0165	-0.006
Mof_C 	C 	0.6923	0.3624	0.0238	-0.052
Mof_H 	H 	0.7185	0.3702	0.031	0.052
Mof_C 	C 	0.6627	0.391	0.0206	-0.004
Mof_H 	H 	0.6678	0.4184	0.0255	0.019
Mof_C 	C 	0.7147	0.2939	0.0198	-0.042
Mof_C 	C 	0.7372	0.2659	0.0213	-0
Mof_O 	O 	0.6435	0.27	0.9999	-0.083
Mof_H 	H 	0.5958	0.2685	0.9647	-0.931
Mof_H 	H 	0.5855	0.2673	0.0115	1.305
Mof_O 	O 	0.5409	0.4623	0.0443	1.795
Mof_H 	H 	0.5581	0.4462	0.0625	-0.558
Mof_C 	C 	0.4972	0.4082	0.0947	0.46
Mof_C 	C 	0.4865	0.3781	0.1255	-0.09
Mof_C 	C 	0.4729	0.3894	0.1638	-0.078
Mof_H 	H 	0.4699	0.4167	0.1702	0.073
Mof_C 	C 	0.4642	0.3613	0.1913	0.11
Mof_C 	C 	0.4693	0.3202	0.1826	-0.032
Mof_C 	C 	0.484	0.3105	0.145	-0.069
Mof_H 	H 	0.4899	0.2834	0.1395	0.047
Mof_C 	C 	0.4905	0.3383	0.1153	0.001
Mof_H 	H 	0.4974	0.3304	0.0891	0.038
Mof_C 	C 	0.4627	0.2913	0.2119	-0.031
Mof_C 	C 	0.4607	0.2649	0.2362	-0.031
Mof_O 	O 	0.4492	0.3677	0.2285	-0.201
Mof_C 	C 	0.4443	0.4076	0.2427	-0.086
Mof_H 	H 	0.4236	0.4214	0.227	0.055
Mof_H 	H 	0.4695	0.4225	0.24	0.057
Mof_C 	C 	0.4322	0.4057	0.2852	0.166
Mof_C 	C 	0.4631	0.3821	0.3099	-0.247
Mof_H 	H 	0.4632	0.3542	0.3005	0.11
Mof_H 	H 	0.4545	0.382	0.338	0.095
Mof_C 	C 	0.5361	0.3711	0.2686	-0.453
Mof_H 	H 	0.5317	0.3837	0.2427	0.168
Mof_H 	H 	0.5244	0.3445	0.2686	0.174
Mof_H 	H 	0.5648	0.3691	0.2736	0.179
Mof_C 	C 	0.4277	0.4488	0.2996	-0.242
Mof_H 	H 	0.4069	0.4618	0.2833	0.095
Mof_H 	H 	0.453	0.4629	0.2943	0.095
Mof_C 	C 	0.4646	0.4647	0.3734	-0.394
Mof_H 	H 	0.4769	0.488	0.361	0.13
Mof_H 	H 	0.4816	0.4414	0.3692	0.132
Mof_H 	H 	0.4615	0.4694	0.4019	0.125
Mof_C 	C 	0.3937	0.3824	0.2926	-0.221
Mof_H 	H 	0.3892	0.3809	0.3216	0.086
Mof_H 	H 	0.3974	0.3549	0.2827	0.095
Mof_C 	C 	0.345	0.37	0.2258	0.459
Mof_H 	H 	0.3214	0.3777	0.2098	-0.744
Mof_H 	H 	0.3686	0.3721	0.2095	-0.152
Mof_H 	H 	0.3413	0.3427	0.235	-0.106
Mof_C 	C 	0.4926	0.5956	0.09	0.497
Mof_C 	C 	0.4828	0.627	0.1205	-0.046
Mof_C 	C 	0.4862	0.6163	0.1613	-0.087
Mof_H 	H 	0.4929	0.5897	0.1682	-0.055
Mof_C 	C 	0.4802	0.6435	0.1901	-0.001
Mof_C 	C 	0.4646	0.6816	0.1802	0.01
Mof_C 	C 	0.4602	0.6912	0.1402	-0.014
Mof_H 	H 	0.4493	0.7163	0.1333	0.034
Mof_C 	C 	0.4712	0.6653	0.1098	0.012
Mof_H 	H 	0.4709	0.6735	0.0828	0.032
Mof_C 	C 	0.4575	0.7105	0.2096	0.05
Mof_C 	C 	0.4554	0.7359	0.2352	0.006
Mof_O 	O 	0.4837	0.6359	0.2298	-0.199
Mof_C 	C 	0.5092	0.6043	0.242	-0.269
Mof_H 	H 	0.5362	0.6079	0.231	1.116
Mof_H 	H 	0.4986	0.5784	0.233	-1.131
Mof_C 	C 	0.5099	0.6066	0.2891	0.334
Mof_C 	C 	0.5267	0.6428	0.3017	-0.399
Mof_H 	H 	0.526	0.6433	0.3311	0.145
Mof_H 	H 	0.5092	0.6645	0.2923	0.162
Mof_S 	S 	0.575	0.6541	0.2868	0.098
Mof_C 	C 	0.5727	0.7018	0.3141	-0.45
Mof_H 	H 	0.5979	0.716	0.3109	0.169
Mof_H 	H 	0.551	0.718	0.3034	0.163
Mof_H 	H 	0.5679	0.6966	0.3423	0.168
Mof_C 	C 	0.5376	0.5752	0.3007	-0.351
Mof_H 	H 	0.563	0.5795	0.2865	0.165
Mof_H 	H 	0.5267	0.5494	0.2917	0.168
Mof_C 	C 	0.5693	0.5217	0.3617	-0.428
Mof_H 	H 	0.5753	0.5189	0.3901	0.137
Mof_H 	H 	0.5501	0.5013	0.3538	0.141
Mof_H 	H 	0.5938	0.5185	0.3463	0.165
Mof_C 	C 	0.4677	0.6005	0.3043	-0.361
Mof_H 	H 	0.4516	0.6236	0.2956	0.151
Mof_H 	H 	0.4685	0.6009	0.3337	0.137
Mof_C 	C 	0.4144	0.5735	0.2453	-0.46
Mof_H 	H 	0.4202	0.6017	0.2412	0.153
Mof_H 	H 	0.3858	0.57	0.2497	0.173
Mof_H 	H 	0.4225	0.5584	0.2217	0.145
Mof_O 	O 	0.4976	0.4455	0.1078	-0.635
Mof_O 	O 	0.501	0.3966	0.0599	-0.665
Mof_O 	O 	0.4959	0.56	0.1036	-0.641
Mof_O 	O 	0.4951	0.6063	0.0545	-0.67
Mof_S 	S 	0.5131	0.4011	0.3074	0.088
Mof_S 	S 	0.4153	0.4558	0.35074	0.053
Mof_S 	S 	0.3488	0.4035	0.269	-0.013
Mof_S 	S 	0.548	0.5716	0.3523	0.07
Mof_S 	S 	0.4419	0.5553	0.2888	0.09
Mof_Zr	Zr	0.4982	0.50169	0.07346	3.251
Mof_O 	O 	0.4699	0.532	0.0295	-2.57
Mof_Hg	Hg	0.38919	0.65763	0.38376	0.221
Mof_Cl	Cl	0.4398	0.6973	0.3507	-0.367
Mof_Cl	Cl	0.3435	0.6187	0.3492	-0.355
Mof_C 	C 	0.311	0.393	0.23	-0.61
Mof_H 	H 	0.2922	0.4149	0.2291	0.201
Mof_H 	H 	0.3244	0.3898	0.2047	0.824
Mof_H 	H 	0.2972	0.3683	0.2371	0.264
Mof_C 	C 	0.49	0.6253	0.1227	-0.035
Mof_C 	C 	0.4976	0.6161	0.1631	0.042
Mof_H 	H 	0.5048	0.5899	0.1709	0.115
Mof_C 	C 	0.4943	0.6455	0.1901	0.065
Mof_C 	C 	0.4835	0.6843	0.1774	-0.005
Mof_C 	C 	0.4762	0.6923	0.1376	-0.051
Mof_H 	H 	0.469	0.7185	0.1298	0.052
Mof_C 	C 	0.4794	0.6627	0.109	-0.004
Mof_H 	H 	0.4745	0.6678	0.0816	0.019
Mof_C 	C 	0.4802	0.7147	0.2061	-0.043
Mof_C 	C 	0.4787	0.7372	0.2341	-0
Mof_O 	O 	0.5001	0.6435	0.23	-0.085
Mof_H 	H 	0.5353	0.5958	0.2315	-0.934
Mof_H 	H 	0.4885	0.5855	0.2327	1.31
Mof_O 	O 	0.4557	0.5409	0.0377	1.796
Mof_H 	H 	0.4375	0.5581	0.0538	-0.558
Mof_C 	C 	0.4972	0.0918	0.4053	0.46
Mof_C 	C 	0.4865	0.1219	0.3745	-0.09
Mof_C 	C 	0.4729	0.1106	0.3362	-0.078
Mof_H 	H 	0.4699	0.0833	0.3298	0.073
Mof_C 	C 	0.4642	0.1387	0.3087	0.11
Mof_C 	C 	0.4693	0.1798	0.3174	-0.032
Mof_C 	C 	0.484	0.1895	0.355	-0.069
Mof_H 	H 	0.4899	0.2166	0.3605	0.047
Mof_C 	C 	0.4905	0.1617	0.3847	0.001
Mof_H 	H 	0.4974	0.1696	0.4109	0.038
Mof_C 	C 	0.4627	0.2087	0.2881	-0.031
Mof_C 	C 	0.4607	0.2351	0.2638	-0.031
Mof_O 	O 	0.4492	0.1323	0.2715	-0.201
Mof_C 	C 	0.4443	0.0924	0.2573	-0.086
Mof_H 	H 	0.4236	0.0786	0.273	0.055
Mof_H 	H 	0.4695	0.0775	0.26	0.057
Mof_C 	C 	0.4322	0.0943	0.2148	0.166
Mof_C 	C 	0.4631	0.1179	0.1901	-0.247
Mof_H 	H 	0.4632	0.1458	0.1995	0.11
Mof_H 	H 	0.4545	0.118	0.162	0.095
Mof_C 	C 	0.5361	0.1289	0.2314	-0.453
Mof_H 	H 	0.5317	0.1163	0.2573	0.168
Mof_H 	H 	0.5244	0.1555	0.2314	0.174
Mof_H 	H 	0.5648	0.1309	0.2264	0.179
Mof_C 	C 	0.4277	0.0512	0.2004	-0.242
Mof_H 	H 	0.4069	0.0382	0.2167	0.096
Mof_H 	H 	0.453	0.0371	0.2057	0.095
Mof_C 	C 	0.4646	0.0353	0.1266	-0.394
Mof_H 	H 	0.4769	0.012	0.139	0.13
Mof_H 	H 	0.4816	0.0586	0.1308	0.132
Mof_H 	H 	0.4615	0.0306	0.0981	0.126
Mof_C 	C 	0.3937	0.1176	0.2074	-0.221
Mof_H 	H 	0.3892	0.1191	0.1784	0.086
Mof_H 	H 	0.3974	0.1451	0.2173	0.095
Mof_C 	C 	0.345	0.13	0.2742	0.459
Mof_H 	H 	0.3214	0.1223	0.2902	-0.744
Mof_H 	H 	0.3686	0.1279	0.2905	-0.152
Mof_H 	H 	0.3413	0.1573	0.265	-0.106
Mof_C 	C 	0.4926	0.9044	0.41	0.497
Mof_C 	C 	0.4828	0.873	0.3795	-0.046
Mof_C 	C 	0.4862	0.8837	0.3387	-0.087
Mof_H 	H 	0.4929	0.9103	0.3318	-0.055
Mof_C 	C 	0.4802	0.8565	0.3099	-0.001
Mof_C 	C 	0.4646	0.8184	0.3198	0.01
Mof_C 	C 	0.4602	0.8088	0.3598	-0.014
Mof_H 	H 	0.4493	0.7837	0.3667	0.034
Mof_C 	C 	0.4712	0.8347	0.3902	0.012
Mof_H 	H 	0.4709	0.8265	0.4172	0.032
Mof_C 	C 	0.4575	0.7895	0.2904	0.049
Mof_C 	C 	0.4554	0.7641	0.2648	0.006
Mof_O 	O 	0.4837	0.8641	0.2702	-0.199
Mof_C 	C 	0.5092	0.8957	0.258	-0.269
Mof_H 	H 	0.5362	0.8921	0.269	1.116
Mof_H 	H 	0.4986	0.9216	0.267	-1.13
Mof_C 	C 	0.5099	0.8934	0.2109	0.334
Mof_C 	C 	0.5267	0.8572	0.1983	-0.399
Mof_H 	H 	0.526	0.8567	0.1689	0.145
Mof_H 	H 	0.5092	0.8355	0.2077	0.162
Mof_S 	S 	0.575	0.8459	0.2132	0.098
Mof_C 	C 	0.5727	0.7982	0.1859	-0.45
Mof_H 	H 	0.5979	0.784	0.1891	0.169
Mof_H 	H 	0.551	0.782	0.1966	0.163
Mof_H 	H 	0.5679	0.8034	0.1577	0.168
Mof_C 	C 	0.5376	0.9248	0.1993	-0.351
Mof_H 	H 	0.563	0.9205	0.2135	0.165
Mof_H 	H 	0.5267	0.9506	0.2083	0.168
Mof_C 	C 	0.5693	0.9783	0.1383	-0.428
Mof_H 	H 	0.5753	0.9811	0.1099	0.137
Mof_H 	H 	0.5501	0.9987	0.1462	0.141
Mof_H 	H 	0.5938	0.9815	0.1537	0.165
Mof_C 	C 	0.4677	0.8995	0.1957	-0.361
Mof_H 	H 	0.4516	0.8764	0.2044	0.151
Mof_H 	H 	0.4685	0.8991	0.1663	0.137
Mof_C 	C 	0.4144	0.9265	0.2547	-0.46
Mof_H 	H 	0.4202	0.8983	0.2588	0.153
Mof_H 	H 	0.3858	0.93	0.2503	0.173
Mof_H 	H 	0.4225	0.9416	0.2783	0.145
Mof_O 	O 	0.4976	0.0545	0.3922	-0.635
Mof_O 	O 	0.501	0.1034	0.4401	-0.665
Mof_O 	O 	0.4959	0.94	0.3964	-0.641
Mof_O 	O 	0.4951	0.8937	0.4455	-0.67
Mof_S 	S 	0.5131	0.0989	0.1926	0.088
Mof_S 	S 	0.4153	0.0442	0.14926	0.053
Mof_S 	S 	0.3488	0.0965	0.231	-0.013
Mof_S 	S 	0.548	0.9284	0.1477	0.07
Mof_S 	S 	0.4419	0.9447	0.2112	0.091
Mof_Zr	Zr	0.4982	0.99831	0.42654	3.251
Mof_O 	O 	0.4699	0.968	0.4705	-2.571
Mof_Hg	Hg	0.38919	0.84237	0.11624	0.221
Mof_Cl	Cl	0.4398	0.8027	0.1493	-0.367
Mof_Cl	Cl	0.3435	0.8813	0.1508	-0.355
Mof_C 	C 	0.311	0.107	0.27	-0.61
Mof_H 	H 	0.2922	0.0851	0.2709	0.201
Mof_H 	H 	0.3244	0.1102	0.2953	0.824
Mof_H 	H 	0.2972	0.1317	0.2629	0.264
Mof_C 	C 	0.49	0.8747	0.3773	-0.035
Mof_C 	C 	0.4976	0.8839	0.3369	0.042
Mof_H 	H 	0.5048	0.9101	0.3291	0.116
Mof_C 	C 	0.4943	0.8545	0.3099	0.065
Mof_C 	C 	0.4835	0.8157	0.3226	-0.006
Mof_C 	C 	0.4762	0.8077	0.3624	-0.051
Mof_H 	H 	0.469	0.7815	0.3702	0.052
Mof_C 	C 	0.4794	0.8373	0.391	-0.004
Mof_H 	H 	0.4745	0.8322	0.4184	0.019
Mof_C 	C 	0.4802	0.7853	0.2939	-0.043
Mof_C 	C 	0.4787	0.7628	0.2659	-0
Mof_O 	O 	0.5001	0.8565	0.27	-0.085
Mof_H 	H 	0.5353	0.9042	0.2685	-0.934
Mof_H 	H 	0.4885	0.9145	0.2673	1.309
Mof_O 	O 	0.4557	0.9591	0.4623	1.797
Mof_H 	H 	0.4375	0.9419	0.4462	-0.559
Mof_C 	C 	0.0028	0.0918	0.0947	0.461
Mof_C 	C 	0.0135	0.1219	0.1255	-0.09
Mof_C 	C 	0.0271	0.1106	0.1638	-0.078
Mof_H 	H 	0.0301	0.0833	0.1702	0.073
Mof_C 	C 	0.0358	0.1387	0.1913	0.11
Mof_C 	C 	0.0307	0.1798	0.1826	-0.032
Mof_C 	C 	0.016	0.1895	0.145	-0.069
Mof_H 	H 	0.0101	0.2166	0.1395	0.047
Mof_C 	C 	0.0095	0.1617	0.1153	0.001
Mof_H 	H 	0.0026	0.1696	0.0891	0.038
Mof_C 	C 	0.0373	0.2087	0.2119	-0.031
Mof_C 	C 	0.0393	0.2351	0.2362	-0.031
Mof_O 	O 	0.0508	0.1323	0.2285	-0.201
Mof_C 	C 	0.0557	0.0924	0.2427	-0.086
Mof_H 	H 	0.0764	0.0786	0.227	0.055
Mof_H 	H 	0.0305	0.0775	0.24	0.057
Mof_C 	C 	0.0678	0.0943	0.2852	0.166
Mof_C 	C 	0.0369	0.1179	0.3099	-0.247
Mof_H 	H 	0.0368	0.1458	0.3005	0.11
Mof_H 	H 	0.0455	0.118	0.338	0.095
Mof_C 	C 	0.9639	0.1289	0.2686	-0.453
Mof_H 	H 	0.9683	0.1163	0.2427	0.168
Mof_H 	H 	0.9756	0.1555	0.2686	0.174
Mof_H 	H 	0.9352	0.1309	0.2736	0.179
Mof_C 	C 	0.0723	0.0512	0.2996	-0.242
Mof_H 	H 	0.0931	0.0382	0.2833	0.096
Mof_H 	H 	0.047	0.0371	0.2943	0.095
Mof_C 	C 	0.0354	0.0353	0.3734	-0.394
Mof_H 	H 	0.0231	0.012	0.361	0.13
Mof_H 	H 	0.0184	0.0586	0.3692	0.133
Mof_H 	H 	0.0385	0.0306	0.4019	0.126
Mof_C 	C 	0.1063	0.1176	0.2926	-0.221
Mof_H 	H 	0.1108	0.1191	0.3216	0.086
Mof_H 	H 	0.1026	0.1451	0.2827	0.095
Mof_C 	C 	0.155	0.13	0.2258	0.459
Mof_H 	H 	0.1786	0.1223	0.2098	-0.744
Mof_H 	H 	0.1314	0.1279	0.2095	-0.152
Mof_H 	H 	0.1587	0.1573	0.235	-0.106
Mof_C 	C 	0.0074	0.9044	0.09	0.497
Mof_C 	C 	0.0172	0.873	0.1205	-0.045
Mof_C 	C 	0.0138	0.8837	0.1613	-0.084
Mof_H 	H 	0.0071	0.9103	0.1682	-0.046
Mof_C 	C 	0.0198	0.8565	0.1901	-0.001
Mof_C 	C 	0.0354	0.8184	0.1802	0.008
Mof_C 	C 	0.0398	0.8088	0.1402	-0.014
Mof_H 	H 	0.0507	0.7837	0.1333	0.034
Mof_C 	C 	0.0288	0.8347	0.1098	0.012
Mof_H 	H 	0.0291	0.8265	0.0828	0.032
Mof_C 	C 	0.0425	0.7895	0.2096	0.049
Mof_C 	C 	0.0446	0.7641	0.2352	0.008
Mof_O 	O 	0.0163	0.8641	0.2298	-0.2
Mof_C 	C 	0.9908	0.8957	0.242	-0.268
Mof_H 	H 	0.9638	0.8921	0.231	1.111
Mof_H 	H 	0.0014	0.9216	0.233	-1.125
Mof_C 	C 	0.9901	0.8934	0.2891	0.334
Mof_C 	C 	0.9733	0.8572	0.3017	-0.399
Mof_H 	H 	0.974	0.8567	0.3311	0.145
Mof_H 	H 	0.9908	0.8355	0.2923	0.162
Mof_S 	S 	0.925	0.8459	0.2868	0.098
Mof_C 	C 	0.9273	0.7982	0.3141	-0.45
Mof_H 	H 	0.9021	0.784	0.3109	0.169
Mof_H 	H 	0.949	0.782	0.3034	0.163
Mof_H 	H 	0.9321	0.8034	0.3423	0.168
Mof_C 	C 	0.9624	0.9248	0.3007	-0.352
Mof_H 	H 	0.937	0.9205	0.2865	0.165
Mof_H 	H 	0.9733	0.9506	0.2917	0.168
Mof_C 	C 	0.9307	0.9783	0.3617	-0.428
Mof_H 	H 	0.9247	0.9811	0.3901	0.138
Mof_H 	H 	0.9499	0.9987	0.3538	0.141
Mof_H 	H 	0.9062	0.9815	0.3463	0.165
Mof_C 	C 	0.0323	0.8995	0.3043	-0.361
Mof_H 	H 	0.0484	0.8764	0.2956	0.151
Mof_H 	H 	0.0315	0.8991	0.3337	0.137
Mof_C 	C 	0.0856	0.9265	0.2453	-0.46
Mof_H 	H 	0.0798	0.8983	0.2412	0.153
Mof_H 	H 	0.1142	0.93	0.2497	0.172
Mof_H 	H 	0.0775	0.9416	0.2217	0.145
Mof_O 	O 	0.0024	0.0545	0.1078	-0.634
Mof_O 	O 	0.999	0.1034	0.0599	-0.666
Mof_O 	O 	0.0041	0.94	0.1036	-0.641
Mof_O 	O 	0.0049	0.8937	0.0545	-0.669
Mof_S 	S 	0.9869	0.0989	0.3074	0.088
Mof_S 	S 	0.0847	0.0442	0.35074	0.054
Mof_S 	S 	0.1512	0.0965	0.269	-0.013
Mof_S 	S 	0.952	0.9284	0.3523	0.071
Mof_S 	S 	0.0581	0.9447	0.2888	0.091
Mof_Zr	Zr	0.0018	0.99831	0.07346	3.251
Mof_O 	O 	0.0301	0.968	0.0295	-2.57
Mof_Hg	Hg	0.11081	0.84237	0.38376	0.221
Mof_Cl	Cl	0.0602	0.8027	0.3507	-0.367
Mof_Cl	Cl	0.1565	0.8813	0.3492	-0.355
Mof_C 	C 	0.189	0.107	0.23	-0.61
Mof_H 	H 	0.2078	0.0851	0.2291	0.201
Mof_H 	H 	0.1756	0.1102	0.2047	0.824
Mof_H 	H 	0.2028	0.1317	0.2371	0.264
Mof_C 	C 	0.01	0.8747	0.1227	-0.036
Mof_C 	C 	0.0024	0.8839	0.1631	0.038
Mof_H 	H 	0.9952	0.9101	0.1709	0.108
Mof_C 	C 	0.0057	0.8545	0.1901	0.065
Mof_C 	C 	0.0165	0.8157	0.1774	-0.003
Mof_C 	C 	0.0238	0.8077	0.1376	-0.051
Mof_H 	H 	0.031	0.7815	0.1298	0.052
Mof_C 	C 	0.0206	0.8373	0.109	-0.004
Mof_H 	H 	0.0255	0.8322	0.0816	0.019
Mof_C 	C 	0.0198	0.7853	0.2061	-0.042
Mof_C 	C 	0.0213	0.7628	0.2341	-0.002
Mof_O 	O 	0.9999	0.8565	0.23	-0.083
Mof_H 	H 	0.9647	0.9042	0.2315	-0.93
Mof_H 	H 	0.0115	0.9145	0.2327	1.304
Mof_O 	O 	0.0443	0.9591	0.0377	1.795
Mof_H 	H 	0.0625	0.9419	0.0538	-0.558
Mof_C 	C 	0.0028	0.4082	0.4053	0.46
Mof_C 	C 	0.0135	0.3781	0.3745	-0.089
Mof_C 	C 	0.0271	0.3894	0.3362	-0.078
Mof_H 	H 	0.0301	0.4167	0.3298	0.073
Mof_C 	C 	0.0358	0.3613	0.3087	0.11
Mof_C 	C 	0.0307	0.3202	0.3174	-0.032
Mof_C 	C 	0.016	0.3105	0.355	-0.069
Mof_H 	H 	0.0101	0.2834	0.3605	0.047
Mof_C 	C 	0.0095	0.3383	0.3847	0.001
Mof_H 	H 	0.0026	0.3304	0.4109	0.038
Mof_C 	C 	0.0373	0.2913	0.2881	-0.031
Mof_C 	C 	0.0393	0.2649	0.2638	-0.031
Mof_O 	O 	0.0508	0.3677	0.2715	-0.201
Mof_C 	C 	0.0557	0.4076	0.2573	-0.086
Mof_H 	H 	0.0764	0.4214	0.273	0.055
Mof_H 	H 	0.0305	0.4225	0.26	0.057
Mof_C 	C 	0.0678	0.4057	0.2148	0.166
Mof_C 	C 	0.0369	0.3821	0.1901	-0.247
Mof_H 	H 	0.0368	0.3542	0.1995	0.11
Mof_H 	H 	0.0455	0.382	0.162	0.095
Mof_C 	C 	0.9639	0.3711	0.2314	-0.453
Mof_H 	H 	0.9683	0.3837	0.2573	0.168
Mof_H 	H 	0.9756	0.3445	0.2314	0.174
Mof_H 	H 	0.9352	0.3691	0.2264	0.179
Mof_C 	C 	0.0723	0.4488	0.2004	-0.242
Mof_H 	H 	0.0931	0.4618	0.2167	0.095
Mof_H 	H 	0.047	0.4629	0.2057	0.095
Mof_C 	C 	0.0354	0.4647	0.1266	-0.394
Mof_H 	H 	0.0231	0.488	0.139	0.13
Mof_H 	H 	0.0184	0.4414	0.1308	0.133
Mof_H 	H 	0.0385	0.4694	0.0981	0.125
Mof_C 	C 	0.1063	0.3824	0.2074	-0.221
Mof_H 	H 	0.1108	0.3809	0.1784	0.086
Mof_H 	H 	0.1026	0.3549	0.2173	0.095
Mof_C 	C 	0.155	0.37	0.2742	0.459
Mof_H 	H 	0.1786	0.3777	0.2902	-0.744
Mof_H 	H 	0.1314	0.3721	0.2905	-0.152
Mof_H 	H 	0.1587	0.3427	0.265	-0.106
Mof_C 	C 	0.0074	0.5956	0.41	0.497
Mof_C 	C 	0.0172	0.627	0.3795	-0.045
Mof_C 	C 	0.0138	0.6163	0.3387	-0.085
Mof_H 	H 	0.0071	0.5897	0.3318	-0.05
Mof_C 	C 	0.0198	0.6435	0.3099	0
Mof_C 	C 	0.0354	0.6816	0.3198	0.01
Mof_C 	C 	0.0398	0.6912	0.3598	-0.013
Mof_H 	H 	0.0507	0.7163	0.3667	0.034
Mof_C 	C 	0.0288	0.6653	0.3902	0.012
Mof_H 	H 	0.0291	0.6735	0.4172	0.032
Mof_C 	C 	0.0425	0.7105	0.2904	0.048
Mof_C 	C 	0.0446	0.7359	0.2648	0.006
Mof_O 	O 	0.0163	0.6359	0.2702	-0.2
Mof_C 	C 	0.9908	0.6043	0.258	-0.268
Mof_H 	H 	0.9638	0.6079	0.269	1.112
Mof_H 	H 	0.0014	0.5784	0.267	-1.127
Mof_C 	C 	0.9901	0.6066	0.2109	0.334
Mof_C 	C 	0.9733	0.6428	0.1983	-0.399
Mof_H 	H 	0.974	0.6433	0.1689	0.145
Mof_H 	H 	0.9908	0.6645	0.2077	0.162
Mof_S 	S 	0.925	0.6541	0.2132	0.098
Mof_C 	C 	0.9273	0.7018	0.1859	-0.45
Mof_H 	H 	0.9021	0.716	0.1891	0.169
Mof_H 	H 	0.949	0.718	0.1966	0.163
Mof_H 	H 	0.9321	0.6966	0.1577	0.168
Mof_C 	C 	0.9624	0.5752	0.1993	-0.351
Mof_H 	H 	0.937	0.5795	0.2135	0.165
Mof_H 	H 	0.9733	0.5494	0.2083	0.168
Mof_C 	C 	0.9307	0.5217	0.1383	-0.428
Mof_H 	H 	0.9247	0.5189	0.1099	0.137
Mof_H 	H 	0.9499	0.5013	0.1462	0.141
Mof_H 	H 	0.9062	0.5185	0.1537	0.165
Mof_C 	C 	0.0323	0.6005	0.1957	-0.361
Mof_H 	H 	0.0484	0.6236	0.2044	0.151
Mof_H 	H 	0.0315	0.6009	0.1663	0.137
Mof_C 	C 	0.0856	0.5735	0.2547	-0.46
Mof_H 	H 	0.0798	0.6017	0.2588	0.153
Mof_H 	H 	0.1142	0.57	0.2503	0.172
Mof_H 	H 	0.0775	0.5584	0.2783	0.145
Mof_O 	O 	0.0024	0.4455	0.3922	-0.635
Mof_O 	O 	0.999	0.3966	0.4401	-0.665
Mof_O 	O 	0.0041	0.56	0.3964	-0.641
Mof_O 	O 	0.0049	0.6063	0.4455	-0.67
Mof_S 	S 	0.9869	0.4011	0.1926	0.088
Mof_S 	S 	0.0847	0.4558	0.14926	0.053
Mof_S 	S 	0.1512	0.4035	0.231	-0.013
Mof_S 	S 	0.952	0.5716	0.1477	0.07
Mof_S 	S 	0.0581	0.5553	0.2112	0.091
Mof_Zr	Zr	0.0018	0.50169	0.42654	3.251
Mof_O 	O 	0.0301	0.532	0.4705	-2.569
Mof_Hg	Hg	0.11081	0.65763	0.11624	0.221
Mof_Cl	Cl	0.0602	0.6973	0.1493	-0.366
Mof_Cl	Cl	0.1565	0.6187	0.1508	-0.355
Mof_C 	C 	0.189	0.393	0.27	-0.61
Mof_H 	H 	0.2078	0.4149	0.2709	0.201
Mof_H 	H 	0.1756	0.3898	0.2953	0.824
Mof_H 	H 	0.2028	0.3683	0.2629	0.264
Mof_C 	C 	0.01	0.6253	0.3773	-0.036
Mof_C 	C 	0.0024	0.6161	0.3369	0.039
Mof_H 	H 	0.9952	0.5899	0.3291	0.111
Mof_C 	C 	0.0057	0.6455	0.3099	0.064
Mof_C 	C 	0.0165	0.6843	0.3226	-0.006
Mof_C 	C 	0.0238	0.6923	0.3624	-0.052
Mof_H 	H 	0.031	0.7185	0.3702	0.052
Mof_C 	C 	0.0206	0.6627	0.391	-0.004
Mof_H 	H 	0.0255	0.6678	0.4184	0.019
Mof_C 	C 	0.0198	0.7147	0.2939	-0.042
Mof_C 	C 	0.0213	0.7372	0.2659	-0
Mof_O 	O 	0.9999	0.6435	0.27	-0.083
Mof_H 	H 	0.9647	0.5958	0.2685	-0.931
Mof_H 	H 	0.0115	0.5855	0.2673	1.305
Mof_O 	O 	0.0443	0.5409	0.4623	1.795
Mof_H 	H 	0.0625	0.5581	0.4462	-0.558
Mof_C 	C 	0.0947	0.4972	0.4082	0.46
Mof_C 	C 	0.1255	0.4865	0.3781	-0.09
Mof_C 	C 	0.1638	0.4729	0.3894	-0.078
Mof_H 	H 	0.1702	0.4699	0.4167	0.073
Mof_C 	C 	0.1913	0.4642	0.3613	0.11
Mof_C 	C 	0.1826	0.4693	0.3202	-0.032
Mof_C 	C 	0.145	0.484	0.3105	-0.069
Mof_H 	H 	0.1395	0.4899	0.2834	0.047
Mof_C 	C 	0.1153	0.4905	0.3383	0.001
Mof_H 	H 	0.0891	0.4974	0.3304	0.038
Mof_C 	C 	0.2119	0.4627	0.2913	-0.031
Mof_C 	C 	0.2362	0.4607	0.2649	-0.031
Mof_O 	O 	0.2285	0.4492	0.3677	-0.201
Mof_C 	C 	0.2427	0.4443	0.4076	-0.086
Mof_H 	H 	0.227	0.4236	0.4214	0.055
Mof_H 	H 	0.24	0.4695	0.4225	0.057
Mof_C 	C 	0.2852	0.4322	0.4057	0.166
Mof_C 	C 	0.3099	0.4631	0.3821	-0.247
Mof_H 	H 	0.3005	0.4632	0.3542	0.11
Mof_H 	H 	0.338	0.4545	0.382	0.095
Mof_C 	C 	0.2686	0.5361	0.3711	-0.453
Mof_H 	H 	0.2427	0.5317	0.3837	0.168
Mof_H 	H 	0.2686	0.5244	0.3445	0.174
Mof_H 	H 	0.2736	0.5648	0.3691	0.179
Mof_C 	C 	0.2996	0.4277	0.4488	-0.242
Mof_H 	H 	0.2833	0.4069	0.4618	0.095
Mof_H 	H 	0.2943	0.453	0.4629	0.095
Mof_C 	C 	0.3734	0.4646	0.4647	-0.394
Mof_H 	H 	0.361	0.4769	0.488	0.13
Mof_H 	H 	0.3692	0.4816	0.4414	0.132
Mof_H 	H 	0.4019	0.4615	0.4694	0.125
Mof_C 	C 	0.2926	0.3937	0.3824	-0.221
Mof_H 	H 	0.3216	0.3892	0.3809	0.086
Mof_H 	H 	0.2827	0.3974	0.3549	0.095
Mof_C 	C 	0.2258	0.345	0.37	0.459
Mof_H 	H 	0.2098	0.3214	0.3777	-0.744
Mof_H 	H 	0.2095	0.3686	0.3721	-0.152
Mof_H 	H 	0.235	0.3413	0.3427	-0.106
Mof_C 	C 	0.09	0.4926	0.5956	0.497
Mof_C 	C 	0.1205	0.4828	0.627	-0.046
Mof_C 	C 	0.1613	0.4862	0.6163	-0.087
Mof_H 	H 	0.1682	0.4929	0.5897	-0.055
Mof_C 	C 	0.1901	0.4802	0.6435	-0.001
Mof_C 	C 	0.1802	0.4646	0.6816	0.01
Mof_C 	C 	0.1402	0.4602	0.6912	-0.014
Mof_H 	H 	0.1333	0.4493	0.7163	0.034
Mof_C 	C 	0.1098	0.4712	0.6653	0.012
Mof_H 	H 	0.0828	0.4709	0.6735	0.032
Mof_C 	C 	0.2096	0.4575	0.7105	0.05
Mof_C 	C 	0.2352	0.4554	0.7359	0.006
Mof_O 	O 	0.2298	0.4837	0.6359	-0.199
Mof_C 	C 	0.242	0.5092	0.6043	-0.269
Mof_H 	H 	0.231	0.5362	0.6079	1.116
Mof_H 	H 	0.233	0.4986	0.5784	-1.131
Mof_C 	C 	0.2891	0.5099	0.6066	0.334
Mof_C 	C 	0.3017	0.5267	0.6428	-0.399
Mof_H 	H 	0.3311	0.526	0.6433	0.145
Mof_H 	H 	0.2923	0.5092	0.6645	0.162
Mof_S 	S 	0.2868	0.575	0.6541	0.098
Mof_C 	C 	0.3141	0.5727	0.7018	-0.45
Mof_H 	H 	0.3109	0.5979	0.716	0.169
Mof_H 	H 	0.3034	0.551	0.718	0.163
Mof_H 	H 	0.3423	0.5679	0.6966	0.168
Mof_C 	C 	0.3007	0.5376	0.5752	-0.351
Mof_H 	H 	0.2865	0.563	0.5795	0.165
Mof_H 	H 	0.2917	0.5267	0.5494	0.168
Mof_C 	C 	0.3617	0.5693	0.5217	-0.428
Mof_H 	H 	0.3901	0.5753	0.5189	0.137
Mof_H 	H 	0.3538	0.5501	0.5013	0.141
Mof_H 	H 	0.3463	0.5938	0.5185	0.165
Mof_C 	C 	0.3043	0.4677	0.6005	-0.361
Mof_H 	H 	0.2956	0.4516	0.6236	0.151
Mof_H 	H 	0.3337	0.4685	0.6009	0.137
Mof_C 	C 	0.2453	0.4144	0.5735	-0.46
Mof_H 	H 	0.2412	0.4202	0.6017	0.153
Mof_H 	H 	0.2497	0.3858	0.57	0.173
Mof_H 	H 	0.2217	0.4225	0.5584	0.145
Mof_O 	O 	0.1078	0.4976	0.4455	-0.635
Mof_O 	O 	0.0599	0.501	0.3966	-0.665
Mof_O 	O 	0.1036	0.4959	0.56	-0.641
Mof_O 	O 	0.0545	0.4951	0.6063	-0.67
Mof_S 	S 	0.3074	0.5131	0.4011	0.088
Mof_S 	S 	0.35074	0.4153	0.4558	0.053
Mof_S 	S 	0.269	0.3488	0.4035	-0.013
Mof_S 	S 	0.3523	0.548	0.5716	0.07
Mof_S 	S 	0.2888	0.4419	0.5553	0.09
Mof_Zr	Zr	0.07346	0.4982	0.50169	3.251
Mof_O 	O 	0.0295	0.4699	0.532	-2.57
Mof_Hg	Hg	0.38376	0.38919	0.65763	0.221
Mof_Cl	Cl	0.3507	0.4398	0.6973	-0.367
Mof_Cl	Cl	0.3492	0.3435	0.6187	-0.355
Mof_C 	C 	0.23	0.311	0.393	-0.61
Mof_H 	H 	0.2291	0.2922	0.4149	0.201
Mof_H 	H 	0.2047	0.3244	0.3898	0.824
Mof_H 	H 	0.2371	0.2972	0.3683	0.264
Mof_C 	C 	0.1227	0.49	0.6253	-0.035
Mof_C 	C 	0.1631	0.4976	0.6161	0.042
Mof_H 	H 	0.1709	0.5048	0.5899	0.115
Mof_C 	C 	0.1901	0.4943	0.6455	0.065
Mof_C 	C 	0.1774	0.4835	0.6843	-0.005
Mof_C 	C 	0.1376	0.4762	0.6923	-0.051
Mof_H 	H 	0.1298	0.469	0.7185	0.052
Mof_C 	C 	0.109	0.4794	0.6627	-0.004
Mof_H 	H 	0.0816	0.4745	0.6678	0.019
Mof_C 	C 	0.2061	0.4802	0.7147	-0.043
Mof_C 	C 	0.2341	0.4787	0.7372	-0
Mof_O 	O 	0.23	0.5001	0.6435	-0.085
Mof_H 	H 	0.2315	0.5353	0.5958	-0.934
Mof_H 	H 	0.2327	0.4885	0.5855	1.31
Mof_O 	O 	0.0377	0.4557	0.5409	1.796
Mof_H 	H 	0.0538	0.4375	0.5581	-0.558
Mof_C 	C 	0.4053	0.4972	0.0918	0.46
Mof_C 	C 	0.3745	0.4865	0.1219	-0.09
Mof_C 	C 	0.3362	0.4729	0.1106	-0.078
Mof_H 	H 	0.3298	0.4699	0.0833	0.073
Mof_C 	C 	0.3087	0.4642	0.1387	0.11
Mof_C 	C 	0.3174	0.4693	0.1798	-0.032
Mof_C 	C 	0.355	0.484	0.1895	-0.069
Mof_H 	H 	0.3605	0.4899	0.2166	0.047
Mof_C 	C 	0.3847	0.4905	0.1617	0.001
Mof_H 	H 	0.4109	0.4974	0.1696	0.038
Mof_C 	C 	0.2881	0.4627	0.2087	-0.031
Mof_C 	C 	0.2638	0.4607	0.2351	-0.031
Mof_O 	O 	0.2715	0.4492	0.1323	-0.201
Mof_C 	C 	0.2573	0.4443	0.0924	-0.086
Mof_H 	H 	0.273	0.4236	0.0786	0.055
Mof_H 	H 	0.26	0.4695	0.0775	0.057
Mof_C 	C 	0.2148	0.4322	0.0943	0.166
Mof_C 	C 	0.1901	0.4631	0.1179	-0.247
Mof_H 	H 	0.1995	0.4632	0.1458	0.11
Mof_H 	H 	0.162	0.4545	0.118	0.095
Mof_C 	C 	0.2314	0.5361	0.1289	-0.453
Mof_H 	H 	0.2573	0.5317	0.1163	0.168
Mof_H 	H 	0.2314	0.5244	0.1555	0.174
Mof_H 	H 	0.2264	0.5648	0.1309	0.179
Mof_C 	C 	0.2004	0.4277	0.0512	-0.242
Mof_H 	H 	0.2167	0.4069	0.0382	0.096
Mof_H 	H 	0.2057	0.453	0.0371	0.095
Mof_C 	C 	0.1266	0.4646	0.0353	-0.394
Mof_H 	H 	0.139	0.4769	0.012	0.13
Mof_H 	H 	0.1308	0.4816	0.0586	0.132
Mof_H 	H 	0.0981	0.4615	0.0306	0.126
Mof_C 	C 	0.2074	0.3937	0.1176	-0.221
Mof_H 	H 	0.1784	0.3892	0.1191	0.086
Mof_H 	H 	0.2173	0.3974	0.1451	0.095
Mof_C 	C 	0.2742	0.345	0.13	0.459
Mof_H 	H 	0.2902	0.3214	0.1223	-0.744
Mof_H 	H 	0.2905	0.3686	0.1279	-0.152
Mof_H 	H 	0.265	0.3413	0.1573	-0.106
Mof_C 	C 	0.41	0.4926	0.9044	0.497
Mof_C 	C 	0.3795	0.4828	0.873	-0.046
Mof_C 	C 	0.3387	0.4862	0.8837	-0.087
Mof_H 	H 	0.3318	0.4929	0.9103	-0.055
Mof_C 	C 	0.3099	0.4802	0.8565	-0.001
Mof_C 	C 	0.3198	0.4646	0.8184	0.01
Mof_C 	C 	0.3598	0.4602	0.8088	-0.014
Mof_H 	H 	0.3667	0.4493	0.7837	0.034
Mof_C 	C 	0.3902	0.4712	0.8347	0.012
Mof_H 	H 	0.4172	0.4709	0.8265	0.032
Mof_C 	C 	0.2904	0.4575	0.7895	0.049
Mof_C 	C 	0.2648	0.4554	0.7641	0.006
Mof_O 	O 	0.2702	0.4837	0.8641	-0.199
Mof_C 	C 	0.258	0.5092	0.8957	-0.269
Mof_H 	H 	0.269	0.5362	0.8921	1.116
Mof_H 	H 	0.267	0.4986	0.9216	-1.13
Mof_C 	C 	0.2109	0.5099	0.8934	0.334
Mof_C 	C 	0.1983	0.5267	0.8572	-0.399
Mof_H 	H 	0.1689	0.526	0.8567	0.145
Mof_H 	H 	0.2077	0.5092	0.8355	0.162
Mof_S 	S 	0.2132	0.575	0.8459	0.098
Mof_C 	C 	0.1859	0.5727	0.7982	-0.45
Mof_H 	H 	0.1891	0.5979	0.784	0.169
Mof_H 	H 	0.1966	0.551	0.782	0.163
Mof_H 	H 	0.1577	0.5679	0.8034	0.168
Mof_C 	C 	0.1993	0.5376	0.9248	-0.351
Mof_H 	H 	0.2135	0.563	0.9205	0.165
Mof_H 	H 	0.2083	0.5267	0.9506	0.168
Mof_C 	C 	0.1383	0.5693	0.9783	-0.428
Mof_H 	H 	0.1099	0.5753	0.9811	0.137
Mof_H 	H 	0.1462	0.5501	0.9987	0.141
Mof_H 	H 	0.1537	0.5938	0.9815	0.165
Mof_C 	C 	0.1957	0.4677	0.8995	-0.361
Mof_H 	H 	0.2044	0.4516	0.8764	0.151
Mof_H 	H 	0.1663	0.4685	0.8991	0.137
Mof_C 	C 	0.2547	0.4144	0.9265	-0.46
Mof_H 	H 	0.2588	0.4202	0.8983	0.153
Mof_H 	H 	0.2503	0.3858	0.93	0.173
Mof_H 	H 	0.2783	0.4225	0.9416	0.145
Mof_O 	O 	0.3922	0.4976	0.0545	-0.635
Mof_O 	O 	0.4401	0.501	0.1034	-0.665
Mof_O 	O 	0.3964	0.4959	0.94	-0.641
Mof_O 	O 	0.4455	0.4951	0.8937	-0.67
Mof_S 	S 	0.1926	0.5131	0.0989	0.088
Mof_S 	S 	0.14926	0.4153	0.0442	0.053
Mof_S 	S 	0.231	0.3488	0.0965	-0.013
Mof_S 	S 	0.1477	0.548	0.9284	0.07
Mof_S 	S 	0.2112	0.4419	0.9447	0.091
Mof_Zr	Zr	0.42654	0.4982	0.99831	3.251
Mof_O 	O 	0.4705	0.4699	0.968	-2.571
Mof_Hg	Hg	0.11624	0.38919	0.84237	0.221
Mof_Cl	Cl	0.1493	0.4398	0.8027	-0.367
Mof_Cl	Cl	0.1508	0.3435	0.8813	-0.355
Mof_C 	C 	0.27	0.311	0.107	-0.61
Mof_H 	H 	0.2709	0.2922	0.0851	0.201
Mof_H 	H 	0.2953	0.3244	0.1102	0.824
Mof_H 	H 	0.2629	0.2972	0.1317	0.264
Mof_C 	C 	0.3773	0.49	0.8747	-0.035
Mof_C 	C 	0.3369	0.4976	0.8839	0.042
Mof_H 	H 	0.3291	0.5048	0.9101	0.116
Mof_C 	C 	0.3099	0.4943	0.8545	0.065
Mof_C 	C 	0.3226	0.4835	0.8157	-0.006
Mof_C 	C 	0.3624	0.4762	0.8077	-0.051
Mof_H 	H 	0.3702	0.469	0.7815	0.052
Mof_C 	C 	0.391	0.4794	0.8373	-0.004
Mof_H 	H 	0.4184	0.4745	0.8322	0.019
Mof_C 	C 	0.2939	0.4802	0.7853	-0.043
Mof_C 	C 	0.2659	0.4787	0.7628	-0
Mof_O 	O 	0.27	0.5001	0.8565	-0.085
Mof_H 	H 	0.2685	0.5353	0.9042	-0.934
Mof_H 	H 	0.2673	0.4885	0.9145	1.309
Mof_O 	O 	0.4623	0.4557	0.9591	1.797
Mof_H 	H 	0.4462	0.4375	0.9419	-0.559
Mof_C 	C 	0.0947	0.0028	0.0918	0.461
Mof_C 	C 	0.1255	0.0135	0.1219	-0.09
Mof_C 	C 	0.1638	0.0271	0.1106	-0.078
Mof_H 	H 	0.1702	0.0301	0.0833	0.073
Mof_C 	C 	0.1913	0.0358	0.1387	0.11
Mof_C 	C 	0.1826	0.0307	0.1798	-0.032
Mof_C 	C 	0.145	0.016	0.1895	-0.069
Mof_H 	H 	0.1395	0.0101	0.2166	0.047
Mof_C 	C 	0.1153	0.0095	0.1617	0.001
Mof_H 	H 	0.0891	0.0026	0.1696	0.038
Mof_C 	C 	0.2119	0.0373	0.2087	-0.031
Mof_C 	C 	0.2362	0.0393	0.2351	-0.031
Mof_O 	O 	0.2285	0.0508	0.1323	-0.201
Mof_C 	C 	0.2427	0.0557	0.0924	-0.086
Mof_H 	H 	0.227	0.0764	0.0786	0.055
Mof_H 	H 	0.24	0.0305	0.0775	0.057
Mof_C 	C 	0.2852	0.0678	0.0943	0.166
Mof_C 	C 	0.3099	0.0369	0.1179	-0.247
Mof_H 	H 	0.3005	0.0368	0.1458	0.11
Mof_H 	H 	0.338	0.0455	0.118	0.095
Mof_C 	C 	0.2686	0.9639	0.1289	-0.453
Mof_H 	H 	0.2427	0.9683	0.1163	0.168
Mof_H 	H 	0.2686	0.9756	0.1555	0.174
Mof_H 	H 	0.2736	0.9352	0.1309	0.179
Mof_C 	C 	0.2996	0.0723	0.0512	-0.242
Mof_H 	H 	0.2833	0.0931	0.0382	0.096
Mof_H 	H 	0.2943	0.047	0.0371	0.095
Mof_C 	C 	0.3734	0.0354	0.0353	-0.394
Mof_H 	H 	0.361	0.0231	0.012	0.13
Mof_H 	H 	0.3692	0.0184	0.0586	0.133
Mof_H 	H 	0.4019	0.0385	0.0306	0.126
Mof_C 	C 	0.2926	0.1063	0.1176	-0.221
Mof_H 	H 	0.3216	0.1108	0.1191	0.086
Mof_H 	H 	0.2827	0.1026	0.1451	0.095
Mof_C 	C 	0.2258	0.155	0.13	0.459
Mof_H 	H 	0.2098	0.1786	0.1223	-0.744
Mof_H 	H 	0.2095	0.1314	0.1279	-0.152
Mof_H 	H 	0.235	0.1587	0.1573	-0.106
Mof_C 	C 	0.09	0.0074	0.9044	0.497
Mof_C 	C 	0.1205	0.0172	0.873	-0.045
Mof_C 	C 	0.1613	0.0138	0.8837	-0.084
Mof_H 	H 	0.1682	0.0071	0.9103	-0.046
Mof_C 	C 	0.1901	0.0198	0.8565	-0.001
Mof_C 	C 	0.1802	0.0354	0.8184	0.008
Mof_C 	C 	0.1402	0.0398	0.8088	-0.014
Mof_H 	H 	0.1333	0.0507	0.7837	0.034
Mof_C 	C 	0.1098	0.0288	0.8347	0.012
Mof_H 	H 	0.0828	0.0291	0.8265	0.032
Mof_C 	C 	0.2096	0.0425	0.7895	0.049
Mof_C 	C 	0.2352	0.0446	0.7641	0.008
Mof_O 	O 	0.2298	0.0163	0.8641	-0.2
Mof_C 	C 	0.242	0.9908	0.8957	-0.268
Mof_H 	H 	0.231	0.9638	0.8921	1.111
Mof_H 	H 	0.233	0.0014	0.9216	-1.125
Mof_C 	C 	0.2891	0.9901	0.8934	0.334
Mof_C 	C 	0.3017	0.9733	0.8572	-0.399
Mof_H 	H 	0.3311	0.974	0.8567	0.145
Mof_H 	H 	0.2923	0.9908	0.8355	0.162
Mof_S 	S 	0.2868	0.925	0.8459	0.098
Mof_C 	C 	0.3141	0.9273	0.7982	-0.45
Mof_H 	H 	0.3109	0.9021	0.784	0.169
Mof_H 	H 	0.3034	0.949	0.782	0.163
Mof_H 	H 	0.3423	0.9321	0.8034	0.168
Mof_C 	C 	0.3007	0.9624	0.9248	-0.352
Mof_H 	H 	0.2865	0.937	0.9205	0.165
Mof_H 	H 	0.2917	0.9733	0.9506	0.168
Mof_C 	C 	0.3617	0.9307	0.9783	-0.428
Mof_H 	H 	0.3901	0.9247	0.9811	0.138
Mof_H 	H 	0.3538	0.9499	0.9987	0.141
Mof_H 	H 	0.3463	0.9062	0.9815	0.165
Mof_C 	C 	0.3043	0.0323	0.8995	-0.361
Mof_H 	H 	0.2956	0.0484	0.8764	0.151
Mof_H 	H 	0.3337	0.0315	0.8991	0.137
Mof_C 	C 	0.2453	0.0856	0.9265	-0.46
Mof_H 	H 	0.2412	0.0798	0.8983	0.153
Mof_H 	H 	0.2497	0.1142	0.93	0.172
Mof_H 	H 	0.2217	0.0775	0.9416	0.145
Mof_O 	O 	0.1078	0.0024	0.0545	-0.634
Mof_O 	O 	0.0599	0.999	0.1034	-0.666
Mof_O 	O 	0.1036	0.0041	0.94	-0.641
Mof_O 	O 	0.0545	0.0049	0.8937	-0.669
Mof_S 	S 	0.3074	0.9869	0.0989	0.088
Mof_S 	S 	0.35074	0.0847	0.0442	0.054
Mof_S 	S 	0.269	0.1512	0.0965	-0.013
Mof_S 	S 	0.3523	0.952	0.9284	0.071
Mof_S 	S 	0.2888	0.0581	0.9447	0.091
Mof_Zr	Zr	0.07346	0.0018	0.99831	3.251
Mof_O 	O 	0.0295	0.0301	0.968	-2.57
Mof_Hg	Hg	0.38376	0.11081	0.84237	0.221
Mof_Cl	Cl	0.3507	0.0602	0.8027	-0.367
Mof_Cl	Cl	0.3492	0.1565	0.8813	-0.355
Mof_C 	C 	0.23	0.189	0.107	-0.61
Mof_H 	H 	0.2291	0.2078	0.0851	0.201
Mof_H 	H 	0.2047	0.1756	0.1102	0.824
Mof_H 	H 	0.2371	0.2028	0.1317	0.264
Mof_C 	C 	0.1227	0.01	0.8747	-0.036
Mof_C 	C 	0.1631	0.0024	0.8839	0.038
Mof_H 	H 	0.1709	0.9952	0.9101	0.108
Mof_C 	C 	0.1901	0.0057	0.8545	0.065
Mof_C 	C 	0.1774	0.0165	0.8157	-0.003
Mof_C 	C 	0.1376	0.0238	0.8077	-0.051
Mof_H 	H 	0.1298	0.031	0.7815	0.052
Mof_C 	C 	0.109	0.0206	0.8373	-0.004
Mof_H 	H 	0.0816	0.0255	0.8322	0.019
Mof_C 	C 	0.2061	0.0198	0.7853	-0.042
Mof_C 	C 	0.2341	0.0213	0.7628	-0.002
Mof_O 	O 	0.23	0.9999	0.8565	-0.083
Mof_H 	H 	0.2315	0.9647	0.9042	-0.93
Mof_H 	H 	0.2327	0.0115	0.9145	1.304
Mof_O 	O 	0.0377	0.0443	0.9591	1.795
Mof_H 	H 	0.0538	0.0625	0.9419	-0.558
Mof_C 	C 	0.4053	0.0028	0.4082	0.46
Mof_C 	C 	0.3745	0.0135	0.3781	-0.089
Mof_C 	C 	0.3362	0.0271	0.3894	-0.078
Mof_H 	H 	0.3298	0.0301	0.4167	0.073
Mof_C 	C 	0.3087	0.0358	0.3613	0.11
Mof_C 	C 	0.3174	0.0307	0.3202	-0.032
Mof_C 	C 	0.355	0.016	0.3105	-0.069
Mof_H 	H 	0.3605	0.0101	0.2834	0.047
Mof_C 	C 	0.3847	0.0095	0.3383	0.001
Mof_H 	H 	0.4109	0.0026	0.3304	0.038
Mof_C 	C 	0.2881	0.0373	0.2913	-0.031
Mof_C 	C 	0.2638	0.0393	0.2649	-0.031
Mof_O 	O 	0.2715	0.0508	0.3677	-0.201
Mof_C 	C 	0.2573	0.0557	0.4076	-0.086
Mof_H 	H 	0.273	0.0764	0.4214	0.055
Mof_H 	H 	0.26	0.0305	0.4225	0.057
Mof_C 	C 	0.2148	0.0678	0.4057	0.166
Mof_C 	C 	0.1901	0.0369	0.3821	-0.247
Mof_H 	H 	0.1995	0.0368	0.3542	0.11
Mof_H 	H 	0.162	0.0455	0.382	0.095
Mof_C 	C 	0.2314	0.9639	0.3711	-0.453
Mof_H 	H 	0.2573	0.9683	0.3837	0.168
Mof_H 	H 	0.2314	0.9756	0.3445	0.174
Mof_H 	H 	0.2264	0.9352	0.3691	0.179
Mof_C 	C 	0.2004	0.0723	0.4488	-0.242
Mof_H 	H 	0.2167	0.0931	0.4618	0.095
Mof_H 	H 	0.2057	0.047	0.4629	0.095
Mof_C 	C 	0.1266	0.0354	0.4647	-0.394
Mof_H 	H 	0.139	0.0231	0.488	0.13
Mof_H 	H 	0.1308	0.0184	0.4414	0.133
Mof_H 	H 	0.0981	0.0385	0.4694	0.125
Mof_C 	C 	0.2074	0.1063	0.3824	-0.221
Mof_H 	H 	0.1784	0.1108	0.3809	0.086
Mof_H 	H 	0.2173	0.1026	0.3549	0.095
Mof_C 	C 	0.2742	0.155	0.37	0.459
Mof_H 	H 	0.2902	0.1786	0.3777	-0.744
Mof_H 	H 	0.2905	0.1314	0.3721	-0.152
Mof_H 	H 	0.265	0.1587	0.3427	-0.106
Mof_C 	C 	0.41	0.0074	0.5956	0.497
Mof_C 	C 	0.3795	0.0172	0.627	-0.045
Mof_C 	C 	0.3387	0.0138	0.6163	-0.085
Mof_H 	H 	0.3318	0.0071	0.5897	-0.05
Mof_C 	C 	0.3099	0.0198	0.6435	0
Mof_C 	C 	0.3198	0.0354	0.6816	0.01
Mof_C 	C 	0.3598	0.0398	0.6912	-0.013
Mof_H 	H 	0.3667	0.0507	0.7163	0.034
Mof_C 	C 	0.3902	0.0288	0.6653	0.012
Mof_H 	H 	0.4172	0.0291	0.6735	0.032
Mof_C 	C 	0.2904	0.0425	0.7105	0.048
Mof_C 	C 	0.2648	0.0446	0.7359	0.006
Mof_O 	O 	0.2702	0.0163	0.6359	-0.2
Mof_C 	C 	0.258	0.9908	0.6043	-0.268
Mof_H 	H 	0.269	0.9638	0.6079	1.112
Mof_H 	H 	0.267	0.0014	0.5784	-1.127
Mof_C 	C 	0.2109	0.9901	0.6066	0.334
Mof_C 	C 	0.1983	0.9733	0.6428	-0.399
Mof_H 	H 	0.1689	0.974	0.6433	0.145
Mof_H 	H 	0.2077	0.9908	0.6645	0.162
Mof_S 	S 	0.2132	0.925	0.6541	0.098
Mof_C 	C 	0.1859	0.9273	0.7018	-0.45
Mof_H 	H 	0.1891	0.9021	0.716	0.169
Mof_H 	H 	0.1966	0.949	0.718	0.163
Mof_H 	H 	0.1577	0.9321	0.6966	0.168
Mof_C 	C 	0.1993	0.9624	0.5752	-0.351
Mof_H 	H 	0.2135	0.937	0.5795	0.165
Mof_H 	H 	0.2083	0.9733	0.5494	0.168
Mof_C 	C 	0.1383	0.9307	0.5217	-0.428
Mof_H 	H 	0.1099	0.9247	0.5189	0.137
Mof_H 	H 	0.1462	0.9499	0.5013	0.141
Mof_H 	H 	0.1537	0.9062	0.5185	0.165
Mof_C 	C 	0.1957	0.0323	0.6005	-0.361
Mof_H 	H 	0.2044	0.0484	0.6236	0.151
Mof_H 	H 	0.1663	0.0315	0.6009	0.137
Mof_C 	C 	0.2547	0.0856	0.5735	-0.46
Mof_H 	H 	0.2588	0.0798	0.6017	0.153
Mof_H 	H 	0.2503	0.1142	0.57	0.172
Mof_H 	H 	0.2783	0.0775	0.5584	0.145
Mof_O 	O 	0.3922	0.0024	0.4455	-0.635
Mof_O 	O 	0.4401	0.999	0.3966	-0.665
Mof_O 	O 	0.3964	0.0041	0.56	-0.641
Mof_O 	O 	0.4455	0.0049	0.6063	-0.67
Mof_S 	S 	0.1926	0.9869	0.4011	0.088
Mof_S 	S 	0.14926	0.0847	0.4558	0.053
Mof_S 	S 	0.231	0.1512	0.4035	-0.013
Mof_S 	S 	0.1477	0.952	0.5716	0.07
Mof_S 	S 	0.2112	0.0581	0.5553	0.091
Mof_Zr	Zr	0.42654	0.0018	0.50169	3.251
Mof_O 	O 	0.4705	0.0301	0.532	-2.569
Mof_Hg	Hg	0.11624	0.11081	0.65763	0.221
Mof_Cl	Cl	0.1493	0.0602	0.6973	-0.366
Mof_Cl	Cl	0.1508	0.1565	0.6187	-0.355
Mof_C 	C 	0.27	0.189	0.393	-0.61
Mof_H 	H 	0.2709	0.2078	0.4149	0.201
Mof_H 	H 	0.2953	0.1756	0.3898	0.824
Mof_H 	H 	0.2629	0.2028	0.3683	0.264
Mof_C 	C 	0.3773	0.01	0.6253	-0.036
Mof_C 	C 	0.3369	0.0024	0.6161	0.039
Mof_H 	H 	0.3291	0.9952	0.5899	0.111
Mof_C 	C 	0.3099	0.0057	0.6455	0.064
Mof_C 	C 	0.3226	0.0165	0.6843	-0.006
Mof_C 	C 	0.3624	0.0238	0.6923	-0.052
Mof_H 	H 	0.3702	0.031	0.7185	0.052
Mof_C 	C 	0.391	0.0206	0.6627	-0.004
Mof_H 	H 	0.4184	0.0255	0.6678	0.019
Mof_C 	C 	0.2939	0.0198	0.7147	-0.042
Mof_C 	C 	0.2659	0.0213	0.7372	-0
Mof_O 	O 	0.27	0.9999	0.6435	-0.083
Mof_H 	H 	0.2685	0.9647	0.5958	-0.931
Mof_H 	H 	0.2673	0.0115	0.5855	1.305
Mof_O 	O 	0.4623	0.0443	0.5409	1.795
Mof_H 	H 	0.4462	0.0625	0.5581	-0.558
Mof_C 	C 	0.5918	0.9053	0.5028	0.46
Mof_C 	C 	0.6219	0.8745	0.5135	-0.09
Mof_C 	C 	0.6106	0.8362	0.5271	-0.078
Mof_H 	H 	0.5833	0.8298	0.5301	0.073
Mof_C 	C 	0.6387	0.8087	0.5358	0.11
Mof_C 	C 	0.6798	0.8174	0.5307	-0.032
Mof_C 	C 	0.6895	0.855	0.516	-0.069
Mof_H 	H 	0.7166	0.8605	0.5101	0.047
Mof_C 	C 	0.6617	0.8847	0.5095	0.001
Mof_H 	H 	0.6696	0.9109	0.5026	0.038
Mof_C 	C 	0.7087	0.7881	0.5373	-0.031
Mof_C 	C 	0.7351	0.7638	0.5393	-0.031
Mof_O 	O 	0.6323	0.7715	0.5508	-0.201
Mof_C 	C 	0.5924	0.7573	0.5557	-0.086
Mof_H 	H 	0.5786	0.773	0.5764	0.055
Mof_H 	H 	0.5775	0.76	0.5305	0.057
Mof_C 	C 	0.5943	0.7148	0.5678	0.166
Mof_C 	C 	0.6179	0.6901	0.5369	-0.247
Mof_H 	H 	0.6458	0.6995	0.5368	0.11
Mof_H 	H 	0.618	0.662	0.5455	0.095
Mof_C 	C 	0.6289	0.7314	0.4639	-0.453
Mof_H 	H 	0.6163	0.7573	0.4683	0.168
Mof_H 	H 	0.6555	0.7314	0.4756	0.174
Mof_H 	H 	0.6309	0.7264	0.4352	0.179
Mof_C 	C 	0.5512	0.7004	0.5723	-0.242
Mof_H 	H 	0.5382	0.7167	0.5931	0.095
Mof_H 	H 	0.5371	0.7057	0.547	0.095
Mof_C 	C 	0.5353	0.6266	0.5354	-0.394
Mof_H 	H 	0.512	0.639	0.5231	0.13
Mof_H 	H 	0.5586	0.6308	0.5184	0.132
Mof_H 	H 	0.5306	0.5981	0.5385	0.125
Mof_C 	C 	0.6176	0.7074	0.6063	-0.221
Mof_H 	H 	0.6191	0.6784	0.6108	0.086
Mof_H 	H 	0.6451	0.7173	0.6026	0.095
Mof_C 	C 	0.63	0.7742	0.655	0.459
Mof_H 	H 	0.6223	0.7902	0.6786	-0.744
Mof_H 	H 	0.6279	0.7905	0.6314	-0.152
Mof_H 	H 	0.6573	0.765	0.6587	-0.106
Mof_C 	C 	0.4044	0.91	0.5074	0.497
Mof_C 	C 	0.373	0.8795	0.5172	-0.046
Mof_C 	C 	0.3837	0.8387	0.5138	-0.087
Mof_H 	H 	0.4103	0.8318	0.5071	-0.055
Mof_C 	C 	0.3565	0.8099	0.5198	-0.001
Mof_C 	C 	0.3184	0.8198	0.5354	0.01
Mof_C 	C 	0.3088	0.8598	0.5398	-0.014
Mof_H 	H 	0.2837	0.8667	0.5507	0.034
Mof_C 	C 	0.3347	0.8902	0.5288	0.012
Mof_H 	H 	0.3265	0.9172	0.5291	0.032
Mof_C 	C 	0.2895	0.7904	0.5425	0.05
Mof_C 	C 	0.2641	0.7648	0.5446	0.006
Mof_O 	O 	0.3641	0.7702	0.5163	-0.199
Mof_C 	C 	0.3957	0.758	0.4908	-0.269
Mof_H 	H 	0.3921	0.769	0.4638	1.116
Mof_H 	H 	0.4216	0.767	0.5014	-1.131
Mof_C 	C 	0.3934	0.7109	0.4901	0.334
Mof_C 	C 	0.3572	0.6983	0.4733	-0.399
Mof_H 	H 	0.3567	0.6689	0.474	0.145
Mof_H 	H 	0.3355	0.7077	0.4908	0.162
Mof_S 	S 	0.3459	0.7132	0.425	0.098
Mof_C 	C 	0.2982	0.6859	0.4273	-0.45
Mof_H 	H 	0.284	0.6891	0.4021	0.169
Mof_H 	H 	0.282	0.6966	0.449	0.163
Mof_H 	H 	0.3034	0.6577	0.4321	0.168
Mof_C 	C 	0.4248	0.6993	0.4624	-0.351
Mof_H 	H 	0.4205	0.7135	0.437	0.165
Mof_H 	H 	0.4506	0.7083	0.4733	0.168
Mof_C 	C 	0.4783	0.6383	0.4307	-0.428
Mof_H 	H 	0.4811	0.6099	0.4247	0.137
Mof_H 	H 	0.4987	0.6462	0.4499	0.141
Mof_H 	H 	0.4815	0.6537	0.4062	0.165
Mof_C 	C 	0.3995	0.6957	0.5323	-0.361
Mof_H 	H 	0.3764	0.7044	0.5484	0.151
Mof_H 	H 	0.3991	0.6663	0.5315	0.137
Mof_C 	C 	0.4265	0.7547	0.5856	-0.46
Mof_H 	H 	0.3983	0.7588	0.5798	0.153
Mof_H 	H 	0.43	0.7503	0.6142	0.173
Mof_H 	H 	0.4416	0.7783	0.5775	0.145
Mof_O 	O 	0.5545	0.8922	0.5024	-0.635
Mof_O 	O 	0.6034	0.9401	0.499	-0.665
Mof_O 	O 	0.44	0.8964	0.5041	-0.641
Mof_O 	O 	0.3937	0.9455	0.5049	-0.67
Mof_S 	S 	0.5989	0.6926	0.4869	0.088
Mof_S 	S 	0.5442	0.64926	0.5847	0.053
Mof_S 	S 	0.5965	0.731	0.6512	-0.013
Mof_S 	S 	0.4284	0.6477	0.452	0.07
Mof_S 	S 	0.4447	0.7112	0.5581	0.09
Mof_Zr	Zr	0.49831	0.92654	0.5018	3.251
Mof_O 	O 	0.468	0.9705	0.5301	-2.57
Mof_Hg	Hg	0.34237	0.61624	0.61081	0.221
Mof_Cl	Cl	0.3027	0.6493	0.5602	-0.367
Mof_Cl	Cl	0.3813	0.6508	0.6565	-0.355
Mof_C 	C 	0.607	0.77	0.689	-0.61
Mof_H 	H 	0.5851	0.7709	0.7078	0.201
Mof_H 	H 	0.6102	0.7953	0.6756	0.824
Mof_H 	H 	0.6317	0.7629	0.7028	0.264
Mof_C 	C 	0.3747	0.8773	0.51	-0.035
Mof_C 	C 	0.3839	0.8369	0.5024	0.042
Mof_H 	H 	0.4101	0.8291	0.4952	0.115
Mof_C 	C 	0.3545	0.8099	0.5057	0.065
Mof_C 	C 	0.3157	0.8226	0.5165	-0.005
Mof_C 	C 	0.3077	0.8624	0.5238	-0.051
Mof_H 	H 	0.2815	0.8702	0.531	0.052
Mof_C 	C 	0.3373	0.891	0.5206	-0.004
Mof_H 	H 	0.3322	0.9184	0.5255	0.019
Mof_C 	C 	0.2853	0.7939	0.5198	-0.043
Mof_C 	C 	0.2628	0.7659	0.5213	-0
Mof_O 	O 	0.3565	0.77	0.4999	-0.085
Mof_H 	H 	0.4042	0.7685	0.4647	-0.934
Mof_H 	H 	0.4145	0.7673	0.5115	1.31
Mof_O 	O 	0.4591	0.9623	0.5443	1.796
Mof_H 	H 	0.4419	0.9462	0.5625	-0.558
Mof_C 	C 	0.9082	0.5947	0.5028	0.46
Mof_C 	C 	0.8781	0.6255	0.5135	-0.09
Mof_C 	C 	0.8894	0.6638	0.5271	-0.078
Mof_H 	H 	0.9167	0.6702	0.5301	0.073
Mof_C 	C 	0.8613	0.6913	0.5358	0.11
Mof_C 	C 	0.8202	0.6826	0.5307	-0.032
Mof_C 	C 	0.8105	0.645	0.516	-0.069
Mof_H 	H 	0.7834	0.6395	0.5101	0.047
Mof_C 	C 	0.8383	0.6153	0.5095	0.001
Mof_H 	H 	0.8304	0.5891	0.5026	0.038
Mof_C 	C 	0.7913	0.7119	0.5373	-0.031
Mof_C 	C 	0.7649	0.7362	0.5393	-0.031
Mof_O 	O 	0.8677	0.7285	0.5508	-0.201
Mof_C 	C 	0.9076	0.7427	0.5557	-0.086
Mof_H 	H 	0.9214	0.727	0.5764	0.055
Mof_H 	H 	0.9225	0.74	0.5305	0.057
Mof_C 	C 	0.9057	0.7852	0.5678	0.166
Mof_C 	C 	0.8821	0.8099	0.5369	-0.247
Mof_H 	H 	0.8542	0.8005	0.5368	0.11
Mof_H 	H 	0.882	0.838	0.5455	0.095
Mof_C 	C 	0.8711	0.7686	0.4639	-0.453
Mof_H 	H 	0.8837	0.7427	0.4683	0.168
Mof_H 	H 	0.8445	0.7686	0.4756	0.174
Mof_H 	H 	0.8691	0.7736	0.4352	0.179
Mof_C 	C 	0.9488	0.7996	0.5723	-0.242
Mof_H 	H 	0.9618	0.7833	0.5931	0.096
Mof_H 	H 	0.9629	0.7943	0.547	0.095
Mof_C 	C 	0.9647	0.8734	0.5354	-0.394
Mof_H 	H 	0.988	0.861	0.5231	0.13
Mof_H 	H 	0.9414	0.8692	0.5184	0.132
Mof_H 	H 	0.9694	0.9019	0.5385	0.126
Mof_C 	C 	0.8824	0.7926	0.6063	-0.221
Mof_H 	H 	0.8809	0.8216	0.6108	0.086
Mof_H 	H 	0.8549	0.7827	0.6026	0.095
Mof_C 	C 	0.87	0.7258	0.655	0.459
Mof_H 	H 	0.8777	0.7098	0.6786	-0.744
Mof_H 	H 	0.8721	0.7095	0.6314	-0.152
Mof_H 	H 	0.8427	0.735	0.6587	-0.106
Mof_C 	C 	0.0956	0.59	0.5074	0.497
Mof_C 	C 	0.127	0.6205	0.5172	-0.046
Mof_C 	C 	0.1163	0.6613	0.5138	-0.087
Mof_H 	H 	0.0897	0.6682	0.5071	-0.055
Mof_C 	C 	0.1435	0.6901	0.5198	-0.001
Mof_C 	C 	0.1816	0.6802	0.5354	0.01
Mof_C 	C 	0.1912	0.6402	0.5398	-0.014
Mof_H 	H 	0.2163	0.6333	0.5507	0.034
Mof_C 	C 	0.1653	0.6098	0.5288	0.012
Mof_H 	H 	0.1735	0.5828	0.5291	0.032
Mof_C 	C 	0.2105	0.7096	0.5425	0.049
Mof_C 	C 	0.2359	0.7352	0.5446	0.006
Mof_O 	O 	0.1359	0.7298	0.5163	-0.199
Mof_C 	C 	0.1043	0.742	0.4908	-0.269
Mof_H 	H 	0.1079	0.731	0.4638	1.116
Mof_H 	H 	0.0784	0.733	0.5014	-1.13
Mof_C 	C 	0.1066	0.7891	0.4901	0.334
Mof_C 	C 	0.1428	0.8017	0.4733	-0.399
Mof_H 	H 	0.1433	0.8311	0.474	0.145
Mof_H 	H 	0.1645	0.7923	0.4908	0.162
Mof_S 	S 	0.1541	0.7868	0.425	0.098
Mof_C 	C 	0.2018	0.8141	0.4273	-0.45
Mof_H 	H 	0.216	0.8109	0.4021	0.169
Mof_H 	H 	0.218	0.8034	0.449	0.163
Mof_H 	H 	0.1966	0.8423	0.4321	0.168
Mof_C 	C 	0.0752	0.8007	0.4624	-0.351
Mof_H 	H 	0.0795	0.7865	0.437	0.165
Mof_H 	H 	0.0494	0.7917	0.4733	0.168
Mof_C 	C 	0.0217	0.8617	0.4307	-0.428
Mof_H 	H 	0.0189	0.8901	0.4247	0.137
Mof_H 	H 	0.0013	0.8538	0.4499	0.141
Mof_H 	H 	0.0185	0.8463	0.4062	0.165
Mof_C 	C 	0.1005	0.8043	0.5323	-0.361
Mof_H 	H 	0.1236	0.7956	0.5484	0.151
Mof_H 	H 	0.1009	0.8337	0.5315	0.137
Mof_C 	C 	0.0735	0.7453	0.5856	-0.46
Mof_H 	H 	0.1017	0.7412	0.5798	0.153
Mof_H 	H 	0.07	0.7497	0.6142	0.173
Mof_H 	H 	0.0584	0.7217	0.5775	0.145
Mof_O 	O 	0.9455	0.6078	0.5024	-0.635
Mof_O 	O 	0.8966	0.5599	0.499	-0.665
Mof_O 	O 	0.06	0.6036	0.5041	-0.641
Mof_O 	O 	0.1063	0.5545	0.5049	-0.67
Mof_S 	S 	0.9011	0.8074	0.4869	0.088
Mof_S 	S 	0.9558	0.85074	0.5847	0.053
Mof_S 	S 	0.9035	0.769	0.6512	-0.013
Mof_S 	S 	0.0716	0.8523	0.452	0.07
Mof_S 	S 	0.0553	0.7888	0.5581	0.091
Mof_Zr	Zr	0.00169	0.57346	0.5018	3.251
Mof_O 	O 	0.032	0.5295	0.5301	-2.571
Mof_Hg	Hg	0.15763	0.88376	0.61081	0.221
Mof_Cl	Cl	0.1973	0.8507	0.5602	-0.367
Mof_Cl	Cl	0.1187	0.8492	0.6565	-0.355
Mof_C 	C 	0.893	0.73	0.689	-0.61
Mof_H 	H 	0.9149	0.7291	0.7078	0.201
Mof_H 	H 	0.8898	0.7047	0.6756	0.824
Mof_H 	H 	0.8683	0.7371	0.7028	0.264
Mof_C 	C 	0.1253	0.6227	0.51	-0.035
Mof_C 	C 	0.1161	0.6631	0.5024	0.042
Mof_H 	H 	0.0899	0.6709	0.4952	0.116
Mof_C 	C 	0.1455	0.6901	0.5057	0.065
Mof_C 	C 	0.1843	0.6774	0.5165	-0.006
Mof_C 	C 	0.1923	0.6376	0.5238	-0.051
Mof_H 	H 	0.2185	0.6298	0.531	0.052
Mof_C 	C 	0.1627	0.609	0.5206	-0.004
Mof_H 	H 	0.1678	0.5816	0.5255	0.019
Mof_C 	C 	0.2147	0.7061	0.5198	-0.043
Mof_C 	C 	0.2372	0.7341	0.5213	-0
Mof_O 	O 	0.1435	0.73	0.4999	-0.085
Mof_H 	H 	0.0958	0.7315	0.4647	-0.934
Mof_H 	H 	0.0855	0.7327	0.5115	1.309
Mof_O 	O 	0.0409	0.5377	0.5443	1.797
Mof_H 	H 	0.0581	0.5538	0.5625	-0.559
Mof_C 	C 	0.9082	0.9053	0.9972	0.461
Mof_C 	C 	0.8781	0.8745	0.9865	-0.09
Mof_C 	C 	0.8894	0.8362	0.9729	-0.078
Mof_H 	H 	0.9167	0.8298	0.9699	0.073
Mof_C 	C 	0.8613	0.8087	0.9642	0.11
Mof_C 	C 	0.8202	0.8174	0.9693	-0.032
Mof_C 	C 	0.8105	0.855	0.984	-0.069
Mof_H 	H 	0.7834	0.8605	0.9899	0.047
Mof_C 	C 	0.8383	0.8847	0.9905	0.001
Mof_H 	H 	0.8304	0.9109	0.9974	0.038
Mof_C 	C 	0.7913	0.7881	0.9627	-0.031
Mof_C 	C 	0.7649	0.7638	0.9607	-0.031
Mof_O 	O 	0.8677	0.7715	0.9492	-0.201
Mof_C 	C 	0.9076	0.7573	0.9443	-0.086
Mof_H 	H 	0.9214	0.773	0.9236	0.055
Mof_H 	H 	0.9225	0.76	0.9695	0.057
Mof_C 	C 	0.9057	0.7148	0.9322	0.166
Mof_C 	C 	0.8821	0.6901	0.9631	-0.247
Mof_H 	H 	0.8542	0.6995	0.9632	0.11
Mof_H 	H 	0.882	0.662	0.9545	0.095
Mof_C 	C 	0.8711	0.7314	0.0361	-0.453
Mof_H 	H 	0.8837	0.7573	0.0317	0.168
Mof_H 	H 	0.8445	0.7314	0.0244	0.174
Mof_H 	H 	0.8691	0.7264	0.0648	0.179
Mof_C 	C 	0.9488	0.7004	0.9277	-0.242
Mof_H 	H 	0.9618	0.7167	0.9069	0.096
Mof_H 	H 	0.9629	0.7057	0.953	0.095
Mof_C 	C 	0.9647	0.6266	0.9646	-0.394
Mof_H 	H 	0.988	0.639	0.9769	0.13
Mof_H 	H 	0.9414	0.6308	0.9816	0.133
Mof_H 	H 	0.9694	0.5981	0.9615	0.126
Mof_C 	C 	0.8824	0.7074	0.8937	-0.221
Mof_H 	H 	0.8809	0.6784	0.8892	0.086
Mof_H 	H 	0.8549	0.7173	0.8974	0.095
Mof_C 	C 	0.87	0.7742	0.845	0.459
Mof_H 	H 	0.8777	0.7902	0.8214	-0.744
Mof_H 	H 	0.8721	0.7905	0.8686	-0.152
Mof_H 	H 	0.8427	0.765	0.8413	-0.106
Mof_C 	C 	0.0956	0.91	0.9926	0.497
Mof_C 	C 	0.127	0.8795	0.9828	-0.045
Mof_C 	C 	0.1163	0.8387	0.9862	-0.084
Mof_H 	H 	0.0897	0.8318	0.9929	-0.046
Mof_C 	C 	0.1435	0.8099	0.9802	-0.001
Mof_C 	C 	0.1816	0.8198	0.9646	0.008
Mof_C 	C 	0.1912	0.8598	0.9602	-0.014
Mof_H 	H 	0.2163	0.8667	0.9493	0.034
Mof_C 	C 	0.1653	0.8902	0.9712	0.012
Mof_H 	H 	0.1735	0.9172	0.9709	0.032
Mof_C 	C 	0.2105	0.7904	0.9575	0.049
Mof_C 	C 	0.2359	0.7648	0.9554	0.008
Mof_O 	O 	0.1359	0.7702	0.9837	-0.2
Mof_C 	C 	0.1043	0.758	0.0092	-0.268
Mof_H 	H 	0.1079	0.769	0.0362	1.111
Mof_H 	H 	0.0784	0.767	0.9986	-1.125
Mof_C 	C 	0.1066	0.7109	0.0099	0.334
Mof_C 	C 	0.1428	0.6983	0.0267	-0.399
Mof_H 	H 	0.1433	0.6689	0.026	0.145
Mof_H 	H 	0.1645	0.7077	0.0092	0.162
Mof_S 	S 	0.1541	0.7132	0.075	0.098
Mof_C 	C 	0.2018	0.6859	0.0727	-0.45
Mof_H 	H 	0.216	0.6891	0.0979	0.169
Mof_H 	H 	0.218	0.6966	0.051	0.163
Mof_H 	H 	0.1966	0.6577	0.0679	0.168
Mof_C 	C 	0.0752	0.6993	0.0376	-0.352
Mof_H 	H 	0.0795	0.7135	0.063	0.165
Mof_H 	H 	0.0494	0.7083	0.0267	0.168
Mof_C 	C 	0.0217	0.6383	0.0693	-0.428
Mof_H 	H 	0.0189	0.6099	0.0753	0.138
Mof_H 	H 	0.0013	0.6462	0.0501	0.141
Mof_H 	H 	0.0185	0.6537	0.0938	0.165
Mof_C 	C 	0.1005	0.6957	0.9677	-0.361
Mof_H 	H 	0.1236	0.7044	0.9516	0.151
Mof_H 	H 	0.1009	0.6663	0.9685	0.137
Mof_C 	C 	0.0735	0.7547	0.9144	-0.46
Mof_H 	H 	0.1017	0.7588	0.9202	0.153
Mof_H 	H 	0.07	0.7503	0.8858	0.172
Mof_H 	H 	0.0584	0.7783	0.9225	0.145
Mof_O 	O 	0.9455	0.8922	0.9976	-0.634
Mof_O 	O 	0.8966	0.9401	0.001	-0.666
Mof_O 	O 	0.06	0.8964	0.9959	-0.641
Mof_O 	O 	0.1063	0.9455	0.9951	-0.669
Mof_S 	S 	0.9011	0.6926	0.0131	0.088
Mof_S 	S 	0.9558	0.64926	0.9153	0.054
Mof_S 	S 	0.9035	0.731	0.8488	-0.013
Mof_S 	S 	0.0716	0.6477	0.048	0.071
Mof_S 	S 	0.0553	0.7112	0.9419	0.091
Mof_Zr	Zr	0.00169	0.92654	0.9982	3.251
Mof_O 	O 	0.032	0.9705	0.9699	-2.57
Mof_Hg	Hg	0.15763	0.61624	0.88919	0.221
Mof_Cl	Cl	0.1973	0.6493	0.9398	-0.367
Mof_Cl	Cl	0.1187	0.6508	0.8435	-0.355
Mof_C 	C 	0.893	0.77	0.811	-0.61
Mof_H 	H 	0.9149	0.7709	0.7922	0.201
Mof_H 	H 	0.8898	0.7953	0.8244	0.824
Mof_H 	H 	0.8683	0.7629	0.7972	0.264
Mof_C 	C 	0.1253	0.8773	0.99	-0.036
Mof_C 	C 	0.1161	0.8369	0.9976	0.038
Mof_H 	H 	0.0899	0.8291	0.0048	0.108
Mof_C 	C 	0.1455	0.8099	0.9943	0.065
Mof_C 	C 	0.1843	0.8226	0.9835	-0.003
Mof_C 	C 	0.1923	0.8624	0.9762	-0.051
Mof_H 	H 	0.2185	0.8702	0.969	0.052
Mof_C 	C 	0.1627	0.891	0.9794	-0.004
Mof_H 	H 	0.1678	0.9184	0.9745	0.019
Mof_C 	C 	0.2147	0.7939	0.9802	-0.042
Mof_C 	C 	0.2372	0.7659	0.9787	-0.002
Mof_O 	O 	0.1435	0.77	0.0001	-0.083
Mof_H 	H 	0.0958	0.7685	0.0353	-0.93
Mof_H 	H 	0.0855	0.7673	0.9885	1.304
Mof_O 	O 	0.0409	0.9623	0.9557	1.795
Mof_H 	H 	0.0581	0.9462	0.9375	-0.558
Mof_C 	C 	0.5918	0.5947	0.9972	0.46
Mof_C 	C 	0.6219	0.6255	0.9865	-0.089
Mof_C 	C 	0.6106	0.6638	0.9729	-0.078
Mof_H 	H 	0.5833	0.6702	0.9699	0.073
Mof_C 	C 	0.6387	0.6913	0.9642	0.11
Mof_C 	C 	0.6798	0.6826	0.9693	-0.032
Mof_C 	C 	0.6895	0.645	0.984	-0.069
Mof_H 	H 	0.7166	0.6395	0.9899	0.047
Mof_C 	C 	0.6617	0.6153	0.9905	0.001
Mof_H 	H 	0.6696	0.5891	0.9974	0.038
Mof_C 	C 	0.7087	0.7119	0.9627	-0.031
Mof_C 	C 	0.7351	0.7362	0.9607	-0.031
Mof_O 	O 	0.6323	0.7285	0.9492	-0.201
Mof_C 	C 	0.5924	0.7427	0.9443	-0.086
Mof_H 	H 	0.5786	0.727	0.9236	0.055
Mof_H 	H 	0.5775	0.74	0.9695	0.057
Mof_C 	C 	0.5943	0.7852	0.9322	0.166
Mof_C 	C 	0.6179	0.8099	0.9631	-0.247
Mof_H 	H 	0.6458	0.8005	0.9632	0.11
Mof_H 	H 	0.618	0.838	0.9545	0.095
Mof_C 	C 	0.6289	0.7686	0.0361	-0.453
Mof_H 	H 	0.6163	0.7427	0.0317	0.168
Mof_H 	H 	0.6555	0.7686	0.0244	0.174
Mof_H 	H 	0.6309	0.7736	0.0648	0.179
Mof_C 	C 	0.5512	0.7996	0.9277	-0.242
Mof_H 	H 	0.5382	0.7833	0.9069	0.095
Mof_H 	H 	0.5371	0.7943	0.953	0.095
Mof_C 	C 	0.5353	0.8734	0.9646	-0.394
Mof_H 	H 	0.512	0.861	0.9769	0.13
Mof_H 	H 	0.5586	0.8692	0.9816	0.133
Mof_H 	H 	0.5306	0.9019	0.9615	0.125
Mof_C 	C 	0.6176	0.7926	0.8937	-0.221
Mof_H 	H 	0.6191	0.8216	0.8892	0.086
Mof_H 	H 	0.6451	0.7827	0.8974	0.095
Mof_C 	C 	0.63	0.7258	0.845	0.459
Mof_H 	H 	0.6223	0.7098	0.8214	-0.744
Mof_H 	H 	0.6279	0.7095	0.8686	-0.152
Mof_H 	H 	0.6573	0.735	0.8413	-0.106
Mof_C 	C 	0.4044	0.59	0.9926	0.497
Mof_C 	C 	0.373	0.6205	0.9828	-0.045
Mof_C 	C 	0.3837	0.6613	0.9862	-0.085
Mof_H 	H 	0.4103	0.6682	0.9929	-0.05
Mof_C 	C 	0.3565	0.6901	0.9802	0
Mof_C 	C 	0.3184	0.6802	0.9646	0.01
Mof_C 	C 	0.3088	0.6402	0.9602	-0.013
Mof_H 	H 	0.2837	0.6333	0.9493	0.034
Mof_C 	C 	0.3347	0.6098	0.9712	0.012
Mof_H 	H 	0.3265	0.5828	0.9709	0.032
Mof_C 	C 	0.2895	0.7096	0.9575	0.048
Mof_C 	C 	0.2641	0.7352	0.9554	0.006
Mof_O 	O 	0.3641	0.7298	0.9837	-0.2
Mof_C 	C 	0.3957	0.742	0.0092	-0.268
Mof_H 	H 	0.3921	0.731	0.0362	1.112
Mof_H 	H 	0.4216	0.733	0.9986	-1.127
Mof_C 	C 	0.3934	0.7891	0.0099	0.334
Mof_C 	C 	0.3572	0.8017	0.0267	-0.399
Mof_H 	H 	0.3567	0.8311	0.026	0.145
Mof_H 	H 	0.3355	0.7923	0.0092	0.162
Mof_S 	S 	0.3459	0.7868	0.075	0.098
Mof_C 	C 	0.2982	0.8141	0.0727	-0.45
Mof_H 	H 	0.284	0.8109	0.0979	0.169
Mof_H 	H 	0.282	0.8034	0.051	0.163
Mof_H 	H 	0.3034	0.8423	0.0679	0.168
Mof_C 	C 	0.4248	0.8007	0.0376	-0.351
Mof_H 	H 	0.4205	0.7865	0.063	0.165
Mof_H 	H 	0.4506	0.7917	0.0267	0.168
Mof_C 	C 	0.4783	0.8617	0.0693	-0.428
Mof_H 	H 	0.4811	0.8901	0.0753	0.137
Mof_H 	H 	0.4987	0.8538	0.0501	0.141
Mof_H 	H 	0.4815	0.8463	0.0938	0.165
Mof_C 	C 	0.3995	0.8043	0.9677	-0.361
Mof_H 	H 	0.3764	0.7956	0.9516	0.151
Mof_H 	H 	0.3991	0.8337	0.9685	0.137
Mof_C 	C 	0.4265	0.7453	0.9144	-0.46
Mof_H 	H 	0.3983	0.7412	0.9202	0.153
Mof_H 	H 	0.43	0.7497	0.8858	0.172
Mof_H 	H 	0.4416	0.7217	0.9225	0.145
Mof_O 	O 	0.5545	0.6078	0.9976	-0.635
Mof_O 	O 	0.6034	0.5599	0.001	-0.665
Mof_O 	O 	0.44	0.6036	0.9959	-0.641
Mof_O 	O 	0.3937	0.5545	0.9951	-0.67
Mof_S 	S 	0.5989	0.8074	0.0131	0.088
Mof_S 	S 	0.5442	0.85074	0.9153	0.053
Mof_S 	S 	0.5965	0.769	0.8488	-0.013
Mof_S 	S 	0.4284	0.8523	0.048	0.07
Mof_S 	S 	0.4447	0.7888	0.9419	0.091
Mof_Zr	Zr	0.49831	0.57346	0.9982	3.251
Mof_O 	O 	0.468	0.5295	0.9699	-2.569
Mof_Hg	Hg	0.34237	0.88376	0.88919	0.221
Mof_Cl	Cl	0.3027	0.8507	0.9398	-0.366
Mof_Cl	Cl	0.3813	0.8492	0.8435	-0.355
Mof_C 	C 	0.607	0.73	0.811	-0.61
Mof_H 	H 	0.5851	0.7291	0.7922	0.201
Mof_H 	H 	0.6102	0.7047	0.8244	0.824
Mof_H 	H 	0.6317	0.7371	0.7972	0.264
Mof_C 	C 	0.3747	0.6227	0.99	-0.036
Mof_C 	C 	0.3839	0.6631	0.9976	0.039
Mof_H 	H 	0.4101	0.6709	0.0048	0.111
Mof_C 	C 	0.3545	0.6901	0.9943	0.064
Mof_C 	C 	0.3157	0.6774	0.9835	-0.006
Mof_C 	C 	0.3077	0.6376	0.9762	-0.052
Mof_H 	H 	0.2815	0.6298	0.969	0.052
Mof_C 	C 	0.3373	0.609	0.9794	-0.004
Mof_H 	H 	0.3322	0.5816	0.9745	0.019
Mof_C 	C 	0.2853	0.7061	0.9802	-0.042
Mof_C 	C 	0.2628	0.7341	0.9787	-0
Mof_O 	O 	0.3565	0.73	0.0001	-0.083
Mof_H 	H 	0.4042	0.7315	0.0353	-0.931
Mof_H 	H 	0.4145	0.7327	0.9885	1.305
Mof_O 	O 	0.4591	0.5377	0.9557	1.795
Mof_H 	H 	0.4419	0.5538	0.9375	-0.558
Mof_C 	C 	0.5028	0.5918	0.9053	0.46
Mof_C 	C 	0.5135	0.6219	0.8745	-0.09
Mof_C 	C 	0.5271	0.6106	0.8362	-0.078
Mof_H 	H 	0.5301	0.5833	0.8298	0.073
Mof_C 	C 	0.5358	0.6387	0.8087	0.11
Mof_C 	C 	0.5307	0.6798	0.8174	-0.032
Mof_C 	C 	0.516	0.6895	0.855	-0.069
Mof_H 	H 	0.5101	0.7166	0.8605	0.047
Mof_C 	C 	0.5095	0.6617	0.8847	0.001
Mof_H 	H 	0.5026	0.6696	0.9109	0.038
Mof_C 	C 	0.5373	0.7087	0.7881	-0.031
Mof_C 	C 	0.5393	0.7351	0.7638	-0.031
Mof_O 	O 	0.5508	0.6323	0.7715	-0.201
Mof_C 	C 	0.5557	0.5924	0.7573	-0.086
Mof_H 	H 	0.5764	0.5786	0.773	0.055
Mof_H 	H 	0.5305	0.5775	0.76	0.057
Mof_C 	C 	0.5678	0.5943	0.7148	0.166
Mof_C 	C 	0.5369	0.6179	0.6901	-0.247
Mof_H 	H 	0.5368	0.6458	0.6995	0.11
Mof_H 	H 	0.5455	0.618	0.662	0.095
Mof_C 	C 	0.4639	0.6289	0.7314	-0.453
Mof_H 	H 	0.4683	0.6163	0.7573	0.168
Mof_H 	H 	0.4756	0.6555	0.7314	0.174
Mof_H 	H 	0.4352	0.6309	0.7264	0.179
Mof_C 	C 	0.5723	0.5512	0.7004	-0.242
Mof_H 	H 	0.5931	0.5382	0.7167	0.095
Mof_H 	H 	0.547	0.5371	0.7057	0.095
Mof_C 	C 	0.5354	0.5353	0.6266	-0.394
Mof_H 	H 	0.5231	0.512	0.639	0.13
Mof_H 	H 	0.5184	0.5586	0.6308	0.132
Mof_H 	H 	0.5385	0.5306	0.5981	0.125
Mof_C 	C 	0.6063	0.6176	0.7074	-0.221
Mof_H 	H 	0.6108	0.6191	0.6784	0.086
Mof_H 	H 	0.6026	0.6451	0.7173	0.095
Mof_C 	C 	0.655	0.63	0.7742	0.459
Mof_H 	H 	0.6786	0.6223	0.7902	-0.744
Mof_H 	H 	0.6314	0.6279	0.7905	-0.152
Mof_H 	H 	0.6587	0.6573	0.765	-0.106
Mof_C 	C 	0.5074	0.4044	0.91	0.497
Mof_C 	C 	0.5172	0.373	0.8795	-0.046
Mof_C 	C 	0.5138	0.3837	0.8387	-0.087
Mof_H 	H 	0.5071	0.4103	0.8318	-0.055
Mof_C 	C 	0.5198	0.3565	0.8099	-0.001
Mof_C 	C 	0.5354	0.3184	0.8198	0.01
Mof_C 	C 	0.5398	0.3088	0.8598	-0.014
Mof_H 	H 	0.5507	0.2837	0.8667	0.034
Mof_C 	C 	0.5288	0.3347	0.8902	0.012
Mof_H 	H 	0.5291	0.3265	0.9172	0.032
Mof_C 	C 	0.5425	0.2895	0.7904	0.05
Mof_C 	C 	0.5446	0.2641	0.7648	0.006
Mof_O 	O 	0.5163	0.3641	0.7702	-0.199
Mof_C 	C 	0.4908	0.3957	0.758	-0.269
Mof_H 	H 	0.4638	0.3921	0.769	1.116
Mof_H 	H 	0.5014	0.4216	0.767	-1.131
Mof_C 	C 	0.4901	0.3934	0.7109	0.334
Mof_C 	C 	0.4733	0.3572	0.6983	-0.399
Mof_H 	H 	0.474	0.3567	0.6689	0.145
Mof_H 	H 	0.4908	0.3355	0.7077	0.162
Mof_S 	S 	0.425	0.3459	0.7132	0.098
Mof_C 	C 	0.4273	0.2982	0.6859	-0.45
Mof_H 	H 	0.4021	0.284	0.6891	0.169
Mof_H 	H 	0.449	0.282	0.6966	0.163
Mof_H 	H 	0.4321	0.3034	0.6577	0.168
Mof_C 	C 	0.4624	0.4248	0.6993	-0.351
Mof_H 	H 	0.437	0.4205	0.7135	0.165
Mof_H 	H 	0.4733	0.4506	0.7083	0.168
Mof_C 	C 	0.4307	0.4783	0.6383	-0.428
Mof_H 	H 	0.4247	0.4811	0.6099	0.137
Mof_H 	H 	0.4499	0.4987	0.6462	0.141
Mof_H 	H 	0.4062	0.4815	0.6537	0.165
Mof_C 	C 	0.5323	0.3995	0.6957	-0.361
Mof_H 	H 	0.5484	0.3764	0.7044	0.151
Mof_H 	H 	0.5315	0.3991	0.6663	0.137
Mof_C 	C 	0.5856	0.4265	0.7547	-0.46
Mof_H 	H 	0.5798	0.3983	0.7588	0.153
Mof_H 	H 	0.6142	0.43	0.7503	0.173
Mof_H 	H 	0.5775	0.4416	0.7783	0.145
Mof_O 	O 	0.5024	0.5545	0.8922	-0.635
Mof_O 	O 	0.499	0.6034	0.9401	-0.665
Mof_O 	O 	0.5041	0.44	0.8964	-0.641
Mof_O 	O 	0.5049	0.3937	0.9455	-0.67
Mof_S 	S 	0.4869	0.5989	0.6926	0.088
Mof_S 	S 	0.5847	0.5442	0.64926	0.053
Mof_S 	S 	0.6512	0.5965	0.731	-0.013
Mof_S 	S 	0.452	0.4284	0.6477	0.07
Mof_S 	S 	0.5581	0.4447	0.7112	0.09
Mof_Zr	Zr	0.5018	0.49831	0.92654	3.251
Mof_O 	O 	0.5301	0.468	0.9705	-2.57
Mof_Hg	Hg	0.61081	0.34237	0.61624	0.221
Mof_Cl	Cl	0.5602	0.3027	0.6493	-0.367
Mof_Cl	Cl	0.6565	0.3813	0.6508	-0.355
Mof_C 	C 	0.689	0.607	0.77	-0.61
Mof_H 	H 	0.7078	0.5851	0.7709	0.201
Mof_H 	H 	0.6756	0.6102	0.7953	0.824
Mof_H 	H 	0.7028	0.6317	0.7629	0.264
Mof_C 	C 	0.51	0.3747	0.8773	-0.035
Mof_C 	C 	0.5024	0.3839	0.8369	0.042
Mof_H 	H 	0.4952	0.4101	0.8291	0.115
Mof_C 	C 	0.5057	0.3545	0.8099	0.065
Mof_C 	C 	0.5165	0.3157	0.8226	-0.005
Mof_C 	C 	0.5238	0.3077	0.8624	-0.051
Mof_H 	H 	0.531	0.2815	0.8702	0.052
Mof_C 	C 	0.5206	0.3373	0.891	-0.004
Mof_H 	H 	0.5255	0.3322	0.9184	0.019
Mof_C 	C 	0.5198	0.2853	0.7939	-0.043
Mof_C 	C 	0.5213	0.2628	0.7659	-0
Mof_O 	O 	0.4999	0.3565	0.77	-0.085
Mof_H 	H 	0.4647	0.4042	0.7685	-0.934
Mof_H 	H 	0.5115	0.4145	0.7673	1.31
Mof_O 	O 	0.5443	0.4591	0.9623	1.796
Mof_H 	H 	0.5625	0.4419	0.9462	-0.558
Mof_C 	C 	0.5028	0.9082	0.5947	0.46
Mof_C 	C 	0.5135	0.8781	0.6255	-0.09
Mof_C 	C 	0.5271	0.8894	0.6638	-0.078
Mof_H 	H 	0.5301	0.9167	0.6702	0.073
Mof_C 	C 	0.5358	0.8613	0.6913	0.11
Mof_C 	C 	0.5307	0.8202	0.6826	-0.032
Mof_C 	C 	0.516	0.8105	0.645	-0.069
Mof_H 	H 	0.5101	0.7834	0.6395	0.047
Mof_C 	C 	0.5095	0.8383	0.6153	0.001
Mof_H 	H 	0.5026	0.8304	0.5891	0.038
Mof_C 	C 	0.5373	0.7913	0.7119	-0.031
Mof_C 	C 	0.5393	0.7649	0.7362	-0.031
Mof_O 	O 	0.5508	0.8677	0.7285	-0.201
Mof_C 	C 	0.5557	0.9076	0.7427	-0.086
Mof_H 	H 	0.5764	0.9214	0.727	0.055
Mof_H 	H 	0.5305	0.9225	0.74	0.057
Mof_C 	C 	0.5678	0.9057	0.7852	0.166
Mof_C 	C 	0.5369	0.8821	0.8099	-0.247
Mof_H 	H 	0.5368	0.8542	0.8005	0.11
Mof_H 	H 	0.5455	0.882	0.838	0.095
Mof_C 	C 	0.4639	0.8711	0.7686	-0.453
Mof_H 	H 	0.4683	0.8837	0.7427	0.168
Mof_H 	H 	0.4756	0.8445	0.7686	0.174
Mof_H 	H 	0.4352	0.8691	0.7736	0.179
Mof_C 	C 	0.5723	0.9488	0.7996	-0.242
Mof_H 	H 	0.5931	0.9618	0.7833	0.096
Mof_H 	H 	0.547	0.9629	0.7943	0.095
Mof_C 	C 	0.5354	0.9647	0.8734	-0.394
Mof_H 	H 	0.5231	0.988	0.861	0.13
Mof_H 	H 	0.5184	0.9414	0.8692	0.132
Mof_H 	H 	0.5385	0.9694	0.9019	0.126
Mof_C 	C 	0.6063	0.8824	0.7926	-0.221
Mof_H 	H 	0.6108	0.8809	0.8216	0.086
Mof_H 	H 	0.6026	0.8549	0.7827	0.095
Mof_C 	C 	0.655	0.87	0.7258	0.459
Mof_H 	H 	0.6786	0.8777	0.7098	-0.744
Mof_H 	H 	0.6314	0.8721	0.7095	-0.152
Mof_H 	H 	0.6587	0.8427	0.735	-0.106
Mof_C 	C 	0.5074	0.0956	0.59	0.497
Mof_C 	C 	0.5172	0.127	0.6205	-0.046
Mof_C 	C 	0.5138	0.1163	0.6613	-0.087
Mof_H 	H 	0.5071	0.0897	0.6682	-0.055
Mof_C 	C 	0.5198	0.1435	0.6901	-0.001
Mof_C 	C 	0.5354	0.1816	0.6802	0.01
Mof_C 	C 	0.5398	0.1912	0.6402	-0.014
Mof_H 	H 	0.5507	0.2163	0.6333	0.034
Mof_C 	C 	0.5288	0.1653	0.6098	0.012
Mof_H 	H 	0.5291	0.1735	0.5828	0.032
Mof_C 	C 	0.5425	0.2105	0.7096	0.049
Mof_C 	C 	0.5446	0.2359	0.7352	0.006
Mof_O 	O 	0.5163	0.1359	0.7298	-0.199
Mof_C 	C 	0.4908	0.1043	0.742	-0.269
Mof_H 	H 	0.4638	0.1079	0.731	1.116
Mof_H 	H 	0.5014	0.0784	0.733	-1.13
Mof_C 	C 	0.4901	0.1066	0.7891	0.334
Mof_C 	C 	0.4733	0.1428	0.8017	-0.399
Mof_H 	H 	0.474	0.1433	0.8311	0.145
Mof_H 	H 	0.4908	0.1645	0.7923	0.162
Mof_S 	S 	0.425	0.1541	0.7868	0.098
Mof_C 	C 	0.4273	0.2018	0.8141	-0.45
Mof_H 	H 	0.4021	0.216	0.8109	0.169
Mof_H 	H 	0.449	0.218	0.8034	0.163
Mof_H 	H 	0.4321	0.1966	0.8423	0.168
Mof_C 	C 	0.4624	0.0752	0.8007	-0.351
Mof_H 	H 	0.437	0.0795	0.7865	0.165
Mof_H 	H 	0.4733	0.0494	0.7917	0.168
Mof_C 	C 	0.4307	0.0217	0.8617	-0.428
Mof_H 	H 	0.4247	0.0189	0.8901	0.137
Mof_H 	H 	0.4499	0.0013	0.8538	0.141
Mof_H 	H 	0.4062	0.0185	0.8463	0.165
Mof_C 	C 	0.5323	0.1005	0.8043	-0.361
Mof_H 	H 	0.5484	0.1236	0.7956	0.151
Mof_H 	H 	0.5315	0.1009	0.8337	0.137
Mof_C 	C 	0.5856	0.0735	0.7453	-0.46
Mof_H 	H 	0.5798	0.1017	0.7412	0.153
Mof_H 	H 	0.6142	0.07	0.7497	0.173
Mof_H 	H 	0.5775	0.0584	0.7217	0.145
Mof_O 	O 	0.5024	0.9455	0.6078	-0.635
Mof_O 	O 	0.499	0.8966	0.5599	-0.665
Mof_O 	O 	0.5041	0.06	0.6036	-0.641
Mof_O 	O 	0.5049	0.1063	0.5545	-0.67
Mof_S 	S 	0.4869	0.9011	0.8074	0.088
Mof_S 	S 	0.5847	0.9558	0.85074	0.053
Mof_S 	S 	0.6512	0.9035	0.769	-0.013
Mof_S 	S 	0.452	0.0716	0.8523	0.07
Mof_S 	S 	0.5581	0.0553	0.7888	0.091
Mof_Zr	Zr	0.5018	0.00169	0.57346	3.251
Mof_O 	O 	0.5301	0.032	0.5295	-2.571
Mof_Hg	Hg	0.61081	0.15763	0.88376	0.221
Mof_Cl	Cl	0.5602	0.1973	0.8507	-0.367
Mof_Cl	Cl	0.6565	0.1187	0.8492	-0.355
Mof_C 	C 	0.689	0.893	0.73	-0.61
Mof_H 	H 	0.7078	0.9149	0.7291	0.201
Mof_H 	H 	0.6756	0.8898	0.7047	0.824
Mof_H 	H 	0.7028	0.8683	0.7371	0.264
Mof_C 	C 	0.51	0.1253	0.6227	-0.035
Mof_C 	C 	0.5024	0.1161	0.6631	0.042
Mof_H 	H 	0.4952	0.0899	0.6709	0.116
Mof_C 	C 	0.5057	0.1455	0.6901	0.065
Mof_C 	C 	0.5165	0.1843	0.6774	-0.006
Mof_C 	C 	0.5238	0.1923	0.6376	-0.051
Mof_H 	H 	0.531	0.2185	0.6298	0.052
Mof_C 	C 	0.5206	0.1627	0.609	-0.004
Mof_H 	H 	0.5255	0.1678	0.5816	0.019
Mof_C 	C 	0.5198	0.2147	0.7061	-0.043
Mof_C 	C 	0.5213	0.2372	0.7341	-0
Mof_O 	O 	0.4999	0.1435	0.73	-0.085
Mof_H 	H 	0.4647	0.0958	0.7315	-0.934
Mof_H 	H 	0.5115	0.0855	0.7327	1.309
Mof_O 	O 	0.5443	0.0409	0.5377	1.797
Mof_H 	H 	0.5625	0.0581	0.5538	-0.559
Mof_C 	C 	0.9972	0.9082	0.9053	0.461
Mof_C 	C 	0.9865	0.8781	0.8745	-0.09
Mof_C 	C 	0.9729	0.8894	0.8362	-0.078
Mof_H 	H 	0.9699	0.9167	0.8298	0.073
Mof_C 	C 	0.9642	0.8613	0.8087	0.11
Mof_C 	C 	0.9693	0.8202	0.8174	-0.032
Mof_C 	C 	0.984	0.8105	0.855	-0.069
Mof_H 	H 	0.9899	0.7834	0.8605	0.047
Mof_C 	C 	0.9905	0.8383	0.8847	0.001
Mof_H 	H 	0.9974	0.8304	0.9109	0.038
Mof_C 	C 	0.9627	0.7913	0.7881	-0.031
Mof_C 	C 	0.9607	0.7649	0.7638	-0.031
Mof_O 	O 	0.9492	0.8677	0.7715	-0.201
Mof_C 	C 	0.9443	0.9076	0.7573	-0.086
Mof_H 	H 	0.9236	0.9214	0.773	0.055
Mof_H 	H 	0.9695	0.9225	0.76	0.057
Mof_C 	C 	0.9322	0.9057	0.7148	0.166
Mof_C 	C 	0.9631	0.8821	0.6901	-0.247
Mof_H 	H 	0.9632	0.8542	0.6995	0.11
Mof_H 	H 	0.9545	0.882	0.662	0.095
Mof_C 	C 	0.0361	0.8711	0.7314	-0.453
Mof_H 	H 	0.0317	0.8837	0.7573	0.168
Mof_H 	H 	0.0244	0.8445	0.7314	0.174
Mof_H 	H 	0.0648	0.8691	0.7264	0.179
Mof_C 	C 	0.9277	0.9488	0.7004	-0.242
Mof_H 	H 	0.9069	0.9618	0.7167	0.096
Mof_H 	H 	0.953	0.9629	0.7057	0.095
Mof_C 	C 	0.9646	0.9647	0.6266	-0.394
Mof_H 	H 	0.9769	0.988	0.639	0.13
Mof_H 	H 	0.9816	0.9414	0.6308	0.133
Mof_H 	H 	0.9615	0.9694	0.5981	0.126
Mof_C 	C 	0.8937	0.8824	0.7074	-0.221
Mof_H 	H 	0.8892	0.8809	0.6784	0.086
Mof_H 	H 	0.8974	0.8549	0.7173	0.095
Mof_C 	C 	0.845	0.87	0.7742	0.459
Mof_H 	H 	0.8214	0.8777	0.7902	-0.744
Mof_H 	H 	0.8686	0.8721	0.7905	-0.152
Mof_H 	H 	0.8413	0.8427	0.765	-0.106
Mof_C 	C 	0.9926	0.0956	0.91	0.497
Mof_C 	C 	0.9828	0.127	0.8795	-0.045
Mof_C 	C 	0.9862	0.1163	0.8387	-0.084
Mof_H 	H 	0.9929	0.0897	0.8318	-0.046
Mof_C 	C 	0.9802	0.1435	0.8099	-0.001
Mof_C 	C 	0.9646	0.1816	0.8198	0.008
Mof_C 	C 	0.9602	0.1912	0.8598	-0.014
Mof_H 	H 	0.9493	0.2163	0.8667	0.034
Mof_C 	C 	0.9712	0.1653	0.8902	0.012
Mof_H 	H 	0.9709	0.1735	0.9172	0.032
Mof_C 	C 	0.9575	0.2105	0.7904	0.049
Mof_C 	C 	0.9554	0.2359	0.7648	0.008
Mof_O 	O 	0.9837	0.1359	0.7702	-0.2
Mof_C 	C 	0.0092	0.1043	0.758	-0.268
Mof_H 	H 	0.0362	0.1079	0.769	1.111
Mof_H 	H 	0.9986	0.0784	0.767	-1.125
Mof_C 	C 	0.0099	0.1066	0.7109	0.334
Mof_C 	C 	0.0267	0.1428	0.6983	-0.399
Mof_H 	H 	0.026	0.1433	0.6689	0.145
Mof_H 	H 	0.0092	0.1645	0.7077	0.162
Mof_S 	S 	0.075	0.1541	0.7132	0.098
Mof_C 	C 	0.0727	0.2018	0.6859	-0.45
Mof_H 	H 	0.0979	0.216	0.6891	0.169
Mof_H 	H 	0.051	0.218	0.6966	0.163
Mof_H 	H 	0.0679	0.1966	0.6577	0.168
Mof_C 	C 	0.0376	0.0752	0.6993	-0.352
Mof_H 	H 	0.063	0.0795	0.7135	0.165
Mof_H 	H 	0.0267	0.0494	0.7083	0.168
Mof_C 	C 	0.0693	0.0217	0.6383	-0.428
Mof_H 	H 	0.0753	0.0189	0.6099	0.138
Mof_H 	H 	0.0501	0.0013	0.6462	0.141
Mof_H 	H 	0.0938	0.0185	0.6537	0.165
Mof_C 	C 	0.9677	0.1005	0.6957	-0.361
Mof_H 	H 	0.9516	0.1236	0.7044	0.151
Mof_H 	H 	0.9685	0.1009	0.6663	0.137
Mof_C 	C 	0.9144	0.0735	0.7547	-0.46
Mof_H 	H 	0.9202	0.1017	0.7588	0.153
Mof_H 	H 	0.8858	0.07	0.7503	0.172
Mof_H 	H 	0.9225	0.0584	0.7783	0.145
Mof_O 	O 	0.9976	0.9455	0.8922	-0.634
Mof_O 	O 	0.001	0.8966	0.9401	-0.666
Mof_O 	O 	0.9959	0.06	0.8964	-0.641
Mof_O 	O 	0.9951	0.1063	0.9455	-0.669
Mof_S 	S 	0.0131	0.9011	0.6926	0.088
Mof_S 	S 	0.9153	0.9558	0.64926	0.054
Mof_S 	S 	0.8488	0.9035	0.731	-0.013
Mof_S 	S 	0.048	0.0716	0.6477	0.071
Mof_S 	S 	0.9419	0.0553	0.7112	0.091
Mof_Zr	Zr	0.9982	0.00169	0.92654	3.251
Mof_O 	O 	0.9699	0.032	0.9705	-2.57
Mof_Hg	Hg	0.88919	0.15763	0.61624	0.221
Mof_Cl	Cl	0.9398	0.1973	0.6493	-0.367
Mof_Cl	Cl	0.8435	0.1187	0.6508	-0.355
Mof_C 	C 	0.811	0.893	0.77	-0.61
Mof_H 	H 	0.7922	0.9149	0.7709	0.201
Mof_H 	H 	0.8244	0.8898	0.7953	0.824
Mof_H 	H 	0.7972	0.8683	0.7629	0.264
Mof_C 	C 	0.99	0.1253	0.8773	-0.036
Mof_C 	C 	0.9976	0.1161	0.8369	0.038
Mof_H 	H 	0.0048	0.0899	0.8291	0.108
Mof_C 	C 	0.9943	0.1455	0.8099	0.065
Mof_C 	C 	0.9835	0.1843	0.8226	-0.003
Mof_C 	C 	0.9762	0.1923	0.8624	-0.051
Mof_H 	H 	0.969	0.2185	0.8702	0.052
Mof_C 	C 	0.9794	0.1627	0.891	-0.004
Mof_H 	H 	0.9745	0.1678	0.9184	0.019
Mof_C 	C 	0.9802	0.2147	0.7939	-0.042
Mof_C 	C 	0.9787	0.2372	0.7659	-0.002
Mof_O 	O 	0.0001	0.1435	0.77	-0.083
Mof_H 	H 	0.0353	0.0958	0.7685	-0.93
Mof_H 	H 	0.9885	0.0855	0.7673	1.304
Mof_O 	O 	0.9557	0.0409	0.9623	1.795
Mof_H 	H 	0.9375	0.0581	0.9462	-0.558
Mof_C 	C 	0.9972	0.5918	0.5947	0.46
Mof_C 	C 	0.9865	0.6219	0.6255	-0.089
Mof_C 	C 	0.9729	0.6106	0.6638	-0.078
Mof_H 	H 	0.9699	0.5833	0.6702	0.073
Mof_C 	C 	0.9642	0.6387	0.6913	0.11
Mof_C 	C 	0.9693	0.6798	0.6826	-0.032
Mof_C 	C 	0.984	0.6895	0.645	-0.069
Mof_H 	H 	0.9899	0.7166	0.6395	0.047
Mof_C 	C 	0.9905	0.6617	0.6153	0.001
Mof_H 	H 	0.9974	0.6696	0.5891	0.038
Mof_C 	C 	0.9627	0.7087	0.7119	-0.031
Mof_C 	C 	0.9607	0.7351	0.7362	-0.031
Mof_O 	O 	0.9492	0.6323	0.7285	-0.201
Mof_C 	C 	0.9443	0.5924	0.7427	-0.086
Mof_H 	H 	0.9236	0.5786	0.727	0.055
Mof_H 	H 	0.9695	0.5775	0.74	0.057
Mof_C 	C 	0.9322	0.5943	0.7852	0.166
Mof_C 	C 	0.9631	0.6179	0.8099	-0.247
Mof_H 	H 	0.9632	0.6458	0.8005	0.11
Mof_H 	H 	0.9545	0.618	0.838	0.095
Mof_C 	C 	0.0361	0.6289	0.7686	-0.453
Mof_H 	H 	0.0317	0.6163	0.7427	0.168
Mof_H 	H 	0.0244	0.6555	0.7686	0.174
Mof_H 	H 	0.0648	0.6309	0.7736	0.179
Mof_C 	C 	0.9277	0.5512	0.7996	-0.242
Mof_H 	H 	0.9069	0.5382	0.7833	0.095
Mof_H 	H 	0.953	0.5371	0.7943	0.095
Mof_C 	C 	0.9646	0.5353	0.8734	-0.394
Mof_H 	H 	0.9769	0.512	0.861	0.13
Mof_H 	H 	0.9816	0.5586	0.8692	0.133
Mof_H 	H 	0.9615	0.5306	0.9019	0.125
Mof_C 	C 	0.8937	0.6176	0.7926	-0.221
Mof_H 	H 	0.8892	0.6191	0.8216	0.086
Mof_H 	H 	0.8974	0.6451	0.7827	0.095
Mof_C 	C 	0.845	0.63	0.7258	0.459
Mof_H 	H 	0.8214	0.6223	0.7098	-0.744
Mof_H 	H 	0.8686	0.6279	0.7095	-0.152
Mof_H 	H 	0.8413	0.6573	0.735	-0.106
Mof_C 	C 	0.9926	0.4044	0.59	0.497
Mof_C 	C 	0.9828	0.373	0.6205	-0.045
Mof_C 	C 	0.9862	0.3837	0.6613	-0.085
Mof_H 	H 	0.9929	0.4103	0.6682	-0.05
Mof_C 	C 	0.9802	0.3565	0.6901	0
Mof_C 	C 	0.9646	0.3184	0.6802	0.01
Mof_C 	C 	0.9602	0.3088	0.6402	-0.013
Mof_H 	H 	0.9493	0.2837	0.6333	0.034
Mof_C 	C 	0.9712	0.3347	0.6098	0.012
Mof_H 	H 	0.9709	0.3265	0.5828	0.032
Mof_C 	C 	0.9575	0.2895	0.7096	0.048
Mof_C 	C 	0.9554	0.2641	0.7352	0.006
Mof_O 	O 	0.9837	0.3641	0.7298	-0.2
Mof_C 	C 	0.0092	0.3957	0.742	-0.268
Mof_H 	H 	0.0362	0.3921	0.731	1.112
Mof_H 	H 	0.9986	0.4216	0.733	-1.127
Mof_C 	C 	0.0099	0.3934	0.7891	0.334
Mof_C 	C 	0.0267	0.3572	0.8017	-0.399
Mof_H 	H 	0.026	0.3567	0.8311	0.145
Mof_H 	H 	0.0092	0.3355	0.7923	0.162
Mof_S 	S 	0.075	0.3459	0.7868	0.098
Mof_C 	C 	0.0727	0.2982	0.8141	-0.45
Mof_H 	H 	0.0979	0.284	0.8109	0.169
Mof_H 	H 	0.051	0.282	0.8034	0.163
Mof_H 	H 	0.0679	0.3034	0.8423	0.168
Mof_C 	C 	0.0376	0.4248	0.8007	-0.351
Mof_H 	H 	0.063	0.4205	0.7865	0.165
Mof_H 	H 	0.0267	0.4506	0.7917	0.168
Mof_C 	C 	0.0693	0.4783	0.8617	-0.428
Mof_H 	H 	0.0753	0.4811	0.8901	0.137
Mof_H 	H 	0.0501	0.4987	0.8538	0.141
Mof_H 	H 	0.0938	0.4815	0.8463	0.165
Mof_C 	C 	0.9677	0.3995	0.8043	-0.361
Mof_H 	H 	0.9516	0.3764	0.7956	0.151
Mof_H 	H 	0.9685	0.3991	0.8337	0.137
Mof_C 	C 	0.9144	0.4265	0.7453	-0.46
Mof_H 	H 	0.9202	0.3983	0.7412	0.153
Mof_H 	H 	0.8858	0.43	0.7497	0.172
Mof_H 	H 	0.9225	0.4416	0.7217	0.145
Mof_O 	O 	0.9976	0.5545	0.6078	-0.635
Mof_O 	O 	0.001	0.6034	0.5599	-0.665
Mof_O 	O 	0.9959	0.44	0.6036	-0.641
Mof_O 	O 	0.9951	0.3937	0.5545	-0.67
Mof_S 	S 	0.0131	0.5989	0.8074	0.088
Mof_S 	S 	0.9153	0.5442	0.85074	0.053
Mof_S 	S 	0.8488	0.5965	0.769	-0.013
Mof_S 	S 	0.048	0.4284	0.8523	0.07
Mof_S 	S 	0.9419	0.4447	0.7888	0.091
Mof_Zr	Zr	0.9982	0.49831	0.57346	3.251
Mof_O 	O 	0.9699	0.468	0.5295	-2.569
Mof_Hg	Hg	0.88919	0.34237	0.88376	0.221
Mof_Cl	Cl	0.9398	0.3027	0.8507	-0.366
Mof_Cl	Cl	0.8435	0.3813	0.8492	-0.355
Mof_C 	C 	0.811	0.607	0.73	-0.61
Mof_H 	H 	0.7922	0.5851	0.7291	0.201
Mof_H 	H 	0.8244	0.6102	0.7047	0.824
Mof_H 	H 	0.7972	0.6317	0.7371	0.264
Mof_C 	C 	0.99	0.3747	0.6227	-0.036
Mof_C 	C 	0.9976	0.3839	0.6631	0.039
Mof_H 	H 	0.0048	0.4101	0.6709	0.111
Mof_C 	C 	0.9943	0.3545	0.6901	0.064
Mof_C 	C 	0.9835	0.3157	0.6774	-0.006
Mof_C 	C 	0.9762	0.3077	0.6376	-0.052
Mof_H 	H 	0.969	0.2815	0.6298	0.052
Mof_C 	C 	0.9794	0.3373	0.609	-0.004
Mof_H 	H 	0.9745	0.3322	0.5816	0.019
Mof_C 	C 	0.9802	0.2853	0.7061	-0.042
Mof_C 	C 	0.9787	0.2628	0.7341	-0
Mof_O 	O 	0.0001	0.3565	0.73	-0.083
Mof_H 	H 	0.0353	0.4042	0.7315	-0.931
Mof_H 	H 	0.9885	0.4145	0.7327	1.305
Mof_O 	O 	0.9557	0.4591	0.5377	1.795
Mof_H 	H 	0.9375	0.4419	0.5538	-0.558
Mof_C 	C 	0.9053	0.5028	0.5918	0.46
Mof_C 	C 	0.8745	0.5135	0.6219	-0.09
Mof_C 	C 	0.8362	0.5271	0.6106	-0.078
Mof_H 	H 	0.8298	0.5301	0.5833	0.073
Mof_C 	C 	0.8087	0.5358	0.6387	0.11
Mof_C 	C 	0.8174	0.5307	0.6798	-0.032
Mof_C 	C 	0.855	0.516	0.6895	-0.069
Mof_H 	H 	0.8605	0.5101	0.7166	0.047
Mof_C 	C 	0.8847	0.5095	0.6617	0.001
Mof_H 	H 	0.9109	0.5026	0.6696	0.038
Mof_C 	C 	0.7881	0.5373	0.7087	-0.031
Mof_C 	C 	0.7638	0.5393	0.7351	-0.031
Mof_O 	O 	0.7715	0.5508	0.6323	-0.201
Mof_C 	C 	0.7573	0.5557	0.5924	-0.086
Mof_H 	H 	0.773	0.5764	0.5786	0.055
Mof_H 	H 	0.76	0.5305	0.5775	0.057
Mof_C 	C 	0.7148	0.5678	0.5943	0.166
Mof_C 	C 	0.6901	0.5369	0.6179	-0.247
Mof_H 	H 	0.6995	0.5368	0.6458	0.11
Mof_H 	H 	0.662	0.5455	0.618	0.095
Mof_C 	C 	0.7314	0.4639	0.6289	-0.453
Mof_H 	H 	0.7573	0.4683	0.6163	0.168
Mof_H 	H 	0.7314	0.4756	0.6555	0.174
Mof_H 	H 	0.7264	0.4352	0.6309	0.179
Mof_C 	C 	0.7004	0.5723	0.5512	-0.242
Mof_H 	H 	0.7167	0.5931	0.5382	0.095
Mof_H 	H 	0.7057	0.547	0.5371	0.095
Mof_C 	C 	0.6266	0.5354	0.5353	-0.394
Mof_H 	H 	0.639	0.5231	0.512	0.13
Mof_H 	H 	0.6308	0.5184	0.5586	0.132
Mof_H 	H 	0.5981	0.5385	0.5306	0.125
Mof_C 	C 	0.7074	0.6063	0.6176	-0.221
Mof_H 	H 	0.6784	0.6108	0.6191	0.086
Mof_H 	H 	0.7173	0.6026	0.6451	0.095
Mof_C 	C 	0.7742	0.655	0.63	0.459
Mof_H 	H 	0.7902	0.6786	0.6223	-0.744
Mof_H 	H 	0.7905	0.6314	0.6279	-0.152
Mof_H 	H 	0.765	0.6587	0.6573	-0.106
Mof_C 	C 	0.91	0.5074	0.4044	0.497
Mof_C 	C 	0.8795	0.5172	0.373	-0.046
Mof_C 	C 	0.8387	0.5138	0.3837	-0.087
Mof_H 	H 	0.8318	0.5071	0.4103	-0.055
Mof_C 	C 	0.8099	0.5198	0.3565	-0.001
Mof_C 	C 	0.8198	0.5354	0.3184	0.01
Mof_C 	C 	0.8598	0.5398	0.3088	-0.014
Mof_H 	H 	0.8667	0.5507	0.2837	0.034
Mof_C 	C 	0.8902	0.5288	0.3347	0.012
Mof_H 	H 	0.9172	0.5291	0.3265	0.032
Mof_C 	C 	0.7904	0.5425	0.2895	0.05
Mof_C 	C 	0.7648	0.5446	0.2641	0.006
Mof_O 	O 	0.7702	0.5163	0.3641	-0.199
Mof_C 	C 	0.758	0.4908	0.3957	-0.269
Mof_H 	H 	0.769	0.4638	0.3921	1.116
Mof_H 	H 	0.767	0.5014	0.4216	-1.131
Mof_C 	C 	0.7109	0.4901	0.3934	0.334
Mof_C 	C 	0.6983	0.4733	0.3572	-0.399
Mof_H 	H 	0.6689	0.474	0.3567	0.145
Mof_H 	H 	0.7077	0.4908	0.3355	0.162
Mof_S 	S 	0.7132	0.425	0.3459	0.098
Mof_C 	C 	0.6859	0.4273	0.2982	-0.45
Mof_H 	H 	0.6891	0.4021	0.284	0.169
Mof_H 	H 	0.6966	0.449	0.282	0.163
Mof_H 	H 	0.6577	0.4321	0.3034	0.168
Mof_C 	C 	0.6993	0.4624	0.4248	-0.351
Mof_H 	H 	0.7135	0.437	0.4205	0.165
Mof_H 	H 	0.7083	0.4733	0.4506	0.168
Mof_C 	C 	0.6383	0.4307	0.4783	-0.428
Mof_H 	H 	0.6099	0.4247	0.4811	0.137
Mof_H 	H 	0.6462	0.4499	0.4987	0.141
Mof_H 	H 	0.6537	0.4062	0.4815	0.165
Mof_C 	C 	0.6957	0.5323	0.3995	-0.361
Mof_H 	H 	0.7044	0.5484	0.3764	0.151
Mof_H 	H 	0.6663	0.5315	0.3991	0.137
Mof_C 	C 	0.7547	0.5856	0.4265	-0.46
Mof_H 	H 	0.7588	0.5798	0.3983	0.153
Mof_H 	H 	0.7503	0.6142	0.43	0.173
Mof_H 	H 	0.7783	0.5775	0.4416	0.145
Mof_O 	O 	0.8922	0.5024	0.5545	-0.635
Mof_O 	O 	0.9401	0.499	0.6034	-0.665
Mof_O 	O 	0.8964	0.5041	0.44	-0.641
Mof_O 	O 	0.9455	0.5049	0.3937	-0.67
Mof_S 	S 	0.6926	0.4869	0.5989	0.088
Mof_S 	S 	0.64926	0.5847	0.5442	0.053
Mof_S 	S 	0.731	0.6512	0.5965	-0.013
Mof_S 	S 	0.6477	0.452	0.4284	0.07
Mof_S 	S 	0.7112	0.5581	0.4447	0.09
Mof_Zr	Zr	0.92654	0.5018	0.49831	3.251
Mof_O 	O 	0.9705	0.5301	0.468	-2.57
Mof_Hg	Hg	0.61624	0.61081	0.34237	0.221
Mof_Cl	Cl	0.6493	0.5602	0.3027	-0.367
Mof_Cl	Cl	0.6508	0.6565	0.3813	-0.355
Mof_C 	C 	0.77	0.689	0.607	-0.61
Mof_H 	H 	0.7709	0.7078	0.5851	0.201
Mof_H 	H 	0.7953	0.6756	0.6102	0.824
Mof_H 	H 	0.7629	0.7028	0.6317	0.264
Mof_C 	C 	0.8773	0.51	0.3747	-0.035
Mof_C 	C 	0.8369	0.5024	0.3839	0.042
Mof_H 	H 	0.8291	0.4952	0.4101	0.115
Mof_C 	C 	0.8099	0.5057	0.3545	0.065
Mof_C 	C 	0.8226	0.5165	0.3157	-0.005
Mof_C 	C 	0.8624	0.5238	0.3077	-0.051
Mof_H 	H 	0.8702	0.531	0.2815	0.052
Mof_C 	C 	0.891	0.5206	0.3373	-0.004
Mof_H 	H 	0.9184	0.5255	0.3322	0.019
Mof_C 	C 	0.7939	0.5198	0.2853	-0.043
Mof_C 	C 	0.7659	0.5213	0.2628	-0
Mof_O 	O 	0.77	0.4999	0.3565	-0.085
Mof_H 	H 	0.7685	0.4647	0.4042	-0.934
Mof_H 	H 	0.7673	0.5115	0.4145	1.31
Mof_O 	O 	0.9623	0.5443	0.4591	1.796
Mof_H 	H 	0.9462	0.5625	0.4419	-0.558
Mof_C 	C 	0.5947	0.5028	0.9082	0.46
Mof_C 	C 	0.6255	0.5135	0.8781	-0.09
Mof_C 	C 	0.6638	0.5271	0.8894	-0.078
Mof_H 	H 	0.6702	0.5301	0.9167	0.073
Mof_C 	C 	0.6913	0.5358	0.8613	0.11
Mof_C 	C 	0.6826	0.5307	0.8202	-0.032
Mof_C 	C 	0.645	0.516	0.8105	-0.069
Mof_H 	H 	0.6395	0.5101	0.7834	0.047
Mof_C 	C 	0.6153	0.5095	0.8383	0.001
Mof_H 	H 	0.5891	0.5026	0.8304	0.038
Mof_C 	C 	0.7119	0.5373	0.7913	-0.031
Mof_C 	C 	0.7362	0.5393	0.7649	-0.031
Mof_O 	O 	0.7285	0.5508	0.8677	-0.201
Mof_C 	C 	0.7427	0.5557	0.9076	-0.086
Mof_H 	H 	0.727	0.5764	0.9214	0.055
Mof_H 	H 	0.74	0.5305	0.9225	0.057
Mof_C 	C 	0.7852	0.5678	0.9057	0.166
Mof_C 	C 	0.8099	0.5369	0.8821	-0.247
Mof_H 	H 	0.8005	0.5368	0.8542	0.11
Mof_H 	H 	0.838	0.5455	0.882	0.095
Mof_C 	C 	0.7686	0.4639	0.8711	-0.453
Mof_H 	H 	0.7427	0.4683	0.8837	0.168
Mof_H 	H 	0.7686	0.4756	0.8445	0.174
Mof_H 	H 	0.7736	0.4352	0.8691	0.179
Mof_C 	C 	0.7996	0.5723	0.9488	-0.242
Mof_H 	H 	0.7833	0.5931	0.9618	0.096
Mof_H 	H 	0.7943	0.547	0.9629	0.095
Mof_C 	C 	0.8734	0.5354	0.9647	-0.394
Mof_H 	H 	0.861	0.5231	0.988	0.13
Mof_H 	H 	0.8692	0.5184	0.9414	0.132
Mof_H 	H 	0.9019	0.5385	0.9694	0.126
Mof_C 	C 	0.7926	0.6063	0.8824	-0.221
Mof_H 	H 	0.8216	0.6108	0.8809	0.086
Mof_H 	H 	0.7827	0.6026	0.8549	0.095
Mof_C 	C 	0.7258	0.655	0.87	0.459
Mof_H 	H 	0.7098	0.6786	0.8777	-0.744
Mof_H 	H 	0.7095	0.6314	0.8721	-0.152
Mof_H 	H 	0.735	0.6587	0.8427	-0.106
Mof_C 	C 	0.59	0.5074	0.0956	0.497
Mof_C 	C 	0.6205	0.5172	0.127	-0.046
Mof_C 	C 	0.6613	0.5138	0.1163	-0.087
Mof_H 	H 	0.6682	0.5071	0.0897	-0.055
Mof_C 	C 	0.6901	0.5198	0.1435	-0.001
Mof_C 	C 	0.6802	0.5354	0.1816	0.01
Mof_C 	C 	0.6402	0.5398	0.1912	-0.014
Mof_H 	H 	0.6333	0.5507	0.2163	0.034
Mof_C 	C 	0.6098	0.5288	0.1653	0.012
Mof_H 	H 	0.5828	0.5291	0.1735	0.032
Mof_C 	C 	0.7096	0.5425	0.2105	0.049
Mof_C 	C 	0.7352	0.5446	0.2359	0.006
Mof_O 	O 	0.7298	0.5163	0.1359	-0.199
Mof_C 	C 	0.742	0.4908	0.1043	-0.269
Mof_H 	H 	0.731	0.4638	0.1079	1.116
Mof_H 	H 	0.733	0.5014	0.0784	-1.13
Mof_C 	C 	0.7891	0.4901	0.1066	0.334
Mof_C 	C 	0.8017	0.4733	0.1428	-0.399
Mof_H 	H 	0.8311	0.474	0.1433	0.145
Mof_H 	H 	0.7923	0.4908	0.1645	0.162
Mof_S 	S 	0.7868	0.425	0.1541	0.098
Mof_C 	C 	0.8141	0.4273	0.2018	-0.45
Mof_H 	H 	0.8109	0.4021	0.216	0.169
Mof_H 	H 	0.8034	0.449	0.218	0.163
Mof_H 	H 	0.8423	0.4321	0.1966	0.168
Mof_C 	C 	0.8007	0.4624	0.0752	-0.351
Mof_H 	H 	0.7865	0.437	0.0795	0.165
Mof_H 	H 	0.7917	0.4733	0.0494	0.168
Mof_C 	C 	0.8617	0.4307	0.0217	-0.428
Mof_H 	H 	0.8901	0.4247	0.0189	0.137
Mof_H 	H 	0.8538	0.4499	0.0013	0.141
Mof_H 	H 	0.8463	0.4062	0.0185	0.165
Mof_C 	C 	0.8043	0.5323	0.1005	-0.361
Mof_H 	H 	0.7956	0.5484	0.1236	0.151
Mof_H 	H 	0.8337	0.5315	0.1009	0.137
Mof_C 	C 	0.7453	0.5856	0.0735	-0.46
Mof_H 	H 	0.7412	0.5798	0.1017	0.153
Mof_H 	H 	0.7497	0.6142	0.07	0.173
Mof_H 	H 	0.7217	0.5775	0.0584	0.145
Mof_O 	O 	0.6078	0.5024	0.9455	-0.635
Mof_O 	O 	0.5599	0.499	0.8966	-0.665
Mof_O 	O 	0.6036	0.5041	0.06	-0.641
Mof_O 	O 	0.5545	0.5049	0.1063	-0.67
Mof_S 	S 	0.8074	0.4869	0.9011	0.088
Mof_S 	S 	0.85074	0.5847	0.9558	0.053
Mof_S 	S 	0.769	0.6512	0.9035	-0.013
Mof_S 	S 	0.8523	0.452	0.0716	0.07
Mof_S 	S 	0.7888	0.5581	0.0553	0.091
Mof_Zr	Zr	0.57346	0.5018	0.00169	3.251
Mof_O 	O 	0.5295	0.5301	0.032	-2.571
Mof_Hg	Hg	0.88376	0.61081	0.15763	0.221
Mof_Cl	Cl	0.8507	0.5602	0.1973	-0.367
Mof_Cl	Cl	0.8492	0.6565	0.1187	-0.355
Mof_C 	C 	0.73	0.689	0.893	-0.61
Mof_H 	H 	0.7291	0.7078	0.9149	0.201
Mof_H 	H 	0.7047	0.6756	0.8898	0.824
Mof_H 	H 	0.7371	0.7028	0.8683	0.264
Mof_C 	C 	0.6227	0.51	0.1253	-0.035
Mof_C 	C 	0.6631	0.5024	0.1161	0.042
Mof_H 	H 	0.6709	0.4952	0.0899	0.116
Mof_C 	C 	0.6901	0.5057	0.1455	0.065
Mof_C 	C 	0.6774	0.5165	0.1843	-0.006
Mof_C 	C 	0.6376	0.5238	0.1923	-0.051
Mof_H 	H 	0.6298	0.531	0.2185	0.052
Mof_C 	C 	0.609	0.5206	0.1627	-0.004
Mof_H 	H 	0.5816	0.5255	0.1678	0.019
Mof_C 	C 	0.7061	0.5198	0.2147	-0.043
Mof_C 	C 	0.7341	0.5213	0.2372	-0
Mof_O 	O 	0.73	0.4999	0.1435	-0.085
Mof_H 	H 	0.7315	0.4647	0.0958	-0.934
Mof_H 	H 	0.7327	0.5115	0.0855	1.309
Mof_O 	O 	0.5377	0.5443	0.0409	1.797
Mof_H 	H 	0.5538	0.5625	0.0581	-0.559
Mof_C 	C 	0.9053	0.9972	0.9082	0.461
Mof_C 	C 	0.8745	0.9865	0.8781	-0.09
Mof_C 	C 	0.8362	0.9729	0.8894	-0.078
Mof_H 	H 	0.8298	0.9699	0.9167	0.073
Mof_C 	C 	0.8087	0.9642	0.8613	0.11
Mof_C 	C 	0.8174	0.9693	0.8202	-0.032
Mof_C 	C 	0.855	0.984	0.8105	-0.069
Mof_H 	H 	0.8605	0.9899	0.7834	0.047
Mof_C 	C 	0.8847	0.9905	0.8383	0.001
Mof_H 	H 	0.9109	0.9974	0.8304	0.038
Mof_C 	C 	0.7881	0.9627	0.7913	-0.031
Mof_C 	C 	0.7638	0.9607	0.7649	-0.031
Mof_O 	O 	0.7715	0.9492	0.8677	-0.201
Mof_C 	C 	0.7573	0.9443	0.9076	-0.086
Mof_H 	H 	0.773	0.9236	0.9214	0.055
Mof_H 	H 	0.76	0.9695	0.9225	0.057
Mof_C 	C 	0.7148	0.9322	0.9057	0.166
Mof_C 	C 	0.6901	0.9631	0.8821	-0.247
Mof_H 	H 	0.6995	0.9632	0.8542	0.11
Mof_H 	H 	0.662	0.9545	0.882	0.095
Mof_C 	C 	0.7314	0.0361	0.8711	-0.453
Mof_H 	H 	0.7573	0.0317	0.8837	0.168
Mof_H 	H 	0.7314	0.0244	0.8445	0.174
Mof_H 	H 	0.7264	0.0648	0.8691	0.179
Mof_C 	C 	0.7004	0.9277	0.9488	-0.242
Mof_H 	H 	0.7167	0.9069	0.9618	0.096
Mof_H 	H 	0.7057	0.953	0.9629	0.095
Mof_C 	C 	0.6266	0.9646	0.9647	-0.394
Mof_H 	H 	0.639	0.9769	0.988	0.13
Mof_H 	H 	0.6308	0.9816	0.9414	0.133
Mof_H 	H 	0.5981	0.9615	0.9694	0.126
Mof_C 	C 	0.7074	0.8937	0.8824	-0.221
Mof_H 	H 	0.6784	0.8892	0.8809	0.086
Mof_H 	H 	0.7173	0.8974	0.8549	0.095
Mof_C 	C 	0.7742	0.845	0.87	0.459
Mof_H 	H 	0.7902	0.8214	0.8777	-0.744
Mof_H 	H 	0.7905	0.8686	0.8721	-0.152
Mof_H 	H 	0.765	0.8413	0.8427	-0.106
Mof_C 	C 	0.91	0.9926	0.0956	0.497
Mof_C 	C 	0.8795	0.9828	0.127	-0.045
Mof_C 	C 	0.8387	0.9862	0.1163	-0.084
Mof_H 	H 	0.8318	0.9929	0.0897	-0.046
Mof_C 	C 	0.8099	0.9802	0.1435	-0.001
Mof_C 	C 	0.8198	0.9646	0.1816	0.008
Mof_C 	C 	0.8598	0.9602	0.1912	-0.014
Mof_H 	H 	0.8667	0.9493	0.2163	0.034
Mof_C 	C 	0.8902	0.9712	0.1653	0.012
Mof_H 	H 	0.9172	0.9709	0.1735	0.032
Mof_C 	C 	0.7904	0.9575	0.2105	0.049
Mof_C 	C 	0.7648	0.9554	0.2359	0.008
Mof_O 	O 	0.7702	0.9837	0.1359	-0.2
Mof_C 	C 	0.758	0.0092	0.1043	-0.268
Mof_H 	H 	0.769	0.0362	0.1079	1.111
Mof_H 	H 	0.767	0.9986	0.0784	-1.125
Mof_C 	C 	0.7109	0.0099	0.1066	0.334
Mof_C 	C 	0.6983	0.0267	0.1428	-0.399
Mof_H 	H 	0.6689	0.026	0.1433	0.145
Mof_H 	H 	0.7077	0.0092	0.1645	0.162
Mof_S 	S 	0.7132	0.075	0.1541	0.098
Mof_C 	C 	0.6859	0.0727	0.2018	-0.45
Mof_H 	H 	0.6891	0.0979	0.216	0.169
Mof_H 	H 	0.6966	0.051	0.218	0.163
Mof_H 	H 	0.6577	0.0679	0.1966	0.168
Mof_C 	C 	0.6993	0.0376	0.0752	-0.352
Mof_H 	H 	0.7135	0.063	0.0795	0.165
Mof_H 	H 	0.7083	0.0267	0.0494	0.168
Mof_C 	C 	0.6383	0.0693	0.0217	-0.428
Mof_H 	H 	0.6099	0.0753	0.0189	0.138
Mof_H 	H 	0.6462	0.0501	0.0013	0.141
Mof_H 	H 	0.6537	0.0938	0.0185	0.165
Mof_C 	C 	0.6957	0.9677	0.1005	-0.361
Mof_H 	H 	0.7044	0.9516	0.1236	0.151
Mof_H 	H 	0.6663	0.9685	0.1009	0.137
Mof_C 	C 	0.7547	0.9144	0.0735	-0.46
Mof_H 	H 	0.7588	0.9202	0.1017	0.153
Mof_H 	H 	0.7503	0.8858	0.07	0.172
Mof_H 	H 	0.7783	0.9225	0.0584	0.145
Mof_O 	O 	0.8922	0.9976	0.9455	-0.634
Mof_O 	O 	0.9401	0.001	0.8966	-0.666
Mof_O 	O 	0.8964	0.9959	0.06	-0.641
Mof_O 	O 	0.9455	0.9951	0.1063	-0.669
Mof_S 	S 	0.6926	0.0131	0.9011	0.088
Mof_S 	S 	0.64926	0.9153	0.9558	0.054
Mof_S 	S 	0.731	0.8488	0.9035	-0.013
Mof_S 	S 	0.6477	0.048	0.0716	0.071
Mof_S 	S 	0.7112	0.9419	0.0553	0.091
Mof_Zr	Zr	0.92654	0.9982	0.00169	3.251
Mof_O 	O 	0.9705	0.9699	0.032	-2.57
Mof_Hg	Hg	0.61624	0.88919	0.15763	0.221
Mof_Cl	Cl	0.6493	0.9398	0.1973	-0.367
Mof_Cl	Cl	0.6508	0.8435	0.1187	-0.355
Mof_C 	C 	0.77	0.811	0.893	-0.61
Mof_H 	H 	0.7709	0.7922	0.9149	0.201
Mof_H 	H 	0.7953	0.8244	0.8898	0.824
Mof_H 	H 	0.7629	0.7972	0.8683	0.264
Mof_C 	C 	0.8773	0.99	0.1253	-0.036
Mof_C 	C 	0.8369	0.9976	0.1161	0.038
Mof_H 	H 	0.8291	0.0048	0.0899	0.108
Mof_C 	C 	0.8099	0.9943	0.1455	0.065
Mof_C 	C 	0.8226	0.9835	0.1843	-0.003
Mof_C 	C 	0.8624	0.9762	0.1923	-0.051
Mof_H 	H 	0.8702	0.969	0.2185	0.052
Mof_C 	C 	0.891	0.9794	0.1627	-0.004
Mof_H 	H 	0.9184	0.9745	0.1678	0.019
Mof_C 	C 	0.7939	0.9802	0.2147	-0.042
Mof_C 	C 	0.7659	0.9787	0.2372	-0.002
Mof_O 	O 	0.77	0.0001	0.1435	-0.083
Mof_H 	H 	0.7685	0.0353	0.0958	-0.93
Mof_H 	H 	0.7673	0.9885	0.0855	1.304
Mof_O 	O 	0.9623	0.9557	0.0409	1.795
Mof_H 	H 	0.9462	0.9375	0.0581	-0.558
Mof_C 	C 	0.5947	0.9972	0.5918	0.46
Mof_C 	C 	0.6255	0.9865	0.6219	-0.089
Mof_C 	C 	0.6638	0.9729	0.6106	-0.078
Mof_H 	H 	0.6702	0.9699	0.5833	0.073
Mof_C 	C 	0.6913	0.9642	0.6387	0.11
Mof_C 	C 	0.6826	0.9693	0.6798	-0.032
Mof_C 	C 	0.645	0.984	0.6895	-0.069
Mof_H 	H 	0.6395	0.9899	0.7166	0.047
Mof_C 	C 	0.6153	0.9905	0.6617	0.001
Mof_H 	H 	0.5891	0.9974	0.6696	0.038
Mof_C 	C 	0.7119	0.9627	0.7087	-0.031
Mof_C 	C 	0.7362	0.9607	0.7351	-0.031
Mof_O 	O 	0.7285	0.9492	0.6323	-0.201
Mof_C 	C 	0.7427	0.9443	0.5924	-0.086
Mof_H 	H 	0.727	0.9236	0.5786	0.055
Mof_H 	H 	0.74	0.9695	0.5775	0.057
Mof_C 	C 	0.7852	0.9322	0.5943	0.166
Mof_C 	C 	0.8099	0.9631	0.6179	-0.247
Mof_H 	H 	0.8005	0.9632	0.6458	0.11
Mof_H 	H 	0.838	0.9545	0.618	0.095
Mof_C 	C 	0.7686	0.0361	0.6289	-0.453
Mof_H 	H 	0.7427	0.0317	0.6163	0.168
Mof_H 	H 	0.7686	0.0244	0.6555	0.174
Mof_H 	H 	0.7736	0.0648	0.6309	0.179
Mof_C 	C 	0.7996	0.9277	0.5512	-0.242
Mof_H 	H 	0.7833	0.9069	0.5382	0.095
Mof_H 	H 	0.7943	0.953	0.5371	0.095
Mof_C 	C 	0.8734	0.9646	0.5353	-0.394
Mof_H 	H 	0.861	0.9769	0.512	0.13
Mof_H 	H 	0.8692	0.9816	0.5586	0.133
Mof_H 	H 	0.9019	0.9615	0.5306	0.125
Mof_C 	C 	0.7926	0.8937	0.6176	-0.221
Mof_H 	H 	0.8216	0.8892	0.6191	0.086
Mof_H 	H 	0.7827	0.8974	0.6451	0.095
Mof_C 	C 	0.7258	0.845	0.63	0.459
Mof_H 	H 	0.7098	0.8214	0.6223	-0.744
Mof_H 	H 	0.7095	0.8686	0.6279	-0.152
Mof_H 	H 	0.735	0.8413	0.6573	-0.106
Mof_C 	C 	0.59	0.9926	0.4044	0.497
Mof_C 	C 	0.6205	0.9828	0.373	-0.045
Mof_C 	C 	0.6613	0.9862	0.3837	-0.085
Mof_H 	H 	0.6682	0.9929	0.4103	-0.05
Mof_C 	C 	0.6901	0.9802	0.3565	0
Mof_C 	C 	0.6802	0.9646	0.3184	0.01
Mof_C 	C 	0.6402	0.9602	0.3088	-0.013
Mof_H 	H 	0.6333	0.9493	0.2837	0.034
Mof_C 	C 	0.6098	0.9712	0.3347	0.012
Mof_H 	H 	0.5828	0.9709	0.3265	0.032
Mof_C 	C 	0.7096	0.9575	0.2895	0.048
Mof_C 	C 	0.7352	0.9554	0.2641	0.006
Mof_O 	O 	0.7298	0.9837	0.3641	-0.2
Mof_C 	C 	0.742	0.0092	0.3957	-0.268
Mof_H 	H 	0.731	0.0362	0.3921	1.112
Mof_H 	H 	0.733	0.9986	0.4216	-1.127
Mof_C 	C 	0.7891	0.0099	0.3934	0.334
Mof_C 	C 	0.8017	0.0267	0.3572	-0.399
Mof_H 	H 	0.8311	0.026	0.3567	0.145
Mof_H 	H 	0.7923	0.0092	0.3355	0.162
Mof_S 	S 	0.7868	0.075	0.3459	0.098
Mof_C 	C 	0.8141	0.0727	0.2982	-0.45
Mof_H 	H 	0.8109	0.0979	0.284	0.169
Mof_H 	H 	0.8034	0.051	0.282	0.163
Mof_H 	H 	0.8423	0.0679	0.3034	0.168
Mof_C 	C 	0.8007	0.0376	0.4248	-0.351
Mof_H 	H 	0.7865	0.063	0.4205	0.165
Mof_H 	H 	0.7917	0.0267	0.4506	0.168
Mof_C 	C 	0.8617	0.0693	0.4783	-0.428
Mof_H 	H 	0.8901	0.0753	0.4811	0.137
Mof_H 	H 	0.8538	0.0501	0.4987	0.141
Mof_H 	H 	0.8463	0.0938	0.4815	0.165
Mof_C 	C 	0.8043	0.9677	0.3995	-0.361
Mof_H 	H 	0.7956	0.9516	0.3764	0.151
Mof_H 	H 	0.8337	0.9685	0.3991	0.137
Mof_C 	C 	0.7453	0.9144	0.4265	-0.46
Mof_H 	H 	0.7412	0.9202	0.3983	0.153
Mof_H 	H 	0.7497	0.8858	0.43	0.172
Mof_H 	H 	0.7217	0.9225	0.4416	0.145
Mof_O 	O 	0.6078	0.9976	0.5545	-0.635
Mof_O 	O 	0.5599	0.001	0.6034	-0.665
Mof_O 	O 	0.6036	0.9959	0.44	-0.641
Mof_O 	O 	0.5545	0.9951	0.3937	-0.67
Mof_S 	S 	0.8074	0.0131	0.5989	0.088
Mof_S 	S 	0.85074	0.9153	0.5442	0.053
Mof_S 	S 	0.769	0.8488	0.5965	-0.013
Mof_S 	S 	0.8523	0.048	0.4284	0.07
Mof_S 	S 	0.7888	0.9419	0.4447	0.091
Mof_Zr	Zr	0.57346	0.9982	0.49831	3.251
Mof_O 	O 	0.5295	0.9699	0.468	-2.569
Mof_Hg	Hg	0.88376	0.88919	0.34237	0.221
Mof_Cl	Cl	0.8507	0.9398	0.3027	-0.366
Mof_Cl	Cl	0.8492	0.8435	0.3813	-0.355
Mof_C 	C 	0.73	0.811	0.607	-0.61
Mof_H 	H 	0.7291	0.7922	0.5851	0.201
Mof_H 	H 	0.7047	0.8244	0.6102	0.824
Mof_H 	H 	0.7371	0.7972	0.6317	0.264
Mof_C 	C 	0.6227	0.99	0.3747	-0.036
Mof_C 	C 	0.6631	0.9976	0.3839	0.039
Mof_H 	H 	0.6709	0.0048	0.4101	0.111
Mof_C 	C 	0.6901	0.9943	0.3545	0.064
Mof_C 	C 	0.6774	0.9835	0.3157	-0.006
Mof_C 	C 	0.6376	0.9762	0.3077	-0.052
Mof_H 	H 	0.6298	0.969	0.2815	0.052
Mof_C 	C 	0.609	0.9794	0.3373	-0.004
Mof_H 	H 	0.5816	0.9745	0.3322	0.019
Mof_C 	C 	0.7061	0.9802	0.2853	-0.042
Mof_C 	C 	0.7341	0.9787	0.2628	-0
Mof_O 	O 	0.73	0.0001	0.3565	-0.083
Mof_H 	H 	0.7315	0.0353	0.4042	-0.931
Mof_H 	H 	0.7327	0.9885	0.4145	1.305
Mof_O 	O 	0.5377	0.9557	0.4591	1.795
Mof_H 	H 	0.5538	0.9375	0.4419	-0.558
Mof_O 	O 	0.459	0.041	0.459	-0.852
Mof_H 	H 	0.4419	0.0581	0.4419	0.186
Mof_O 	O 	0.4683	0.0317	0.4683	-0.161
Mof_O 	O 	0.041	0.459	0.459	-0.852
Mof_H 	H 	0.0581	0.4419	0.4419	0.186
Mof_O 	O 	0.0317	0.4683	0.4683	-0.161
Mof_O 	O 	0.041	0.041	0.041	-0.851
Mof_H 	H 	0.0581	0.0581	0.0581	0.186
Mof_O 	O 	0.0317	0.0317	0.0317	-0.161
Mof_O 	O 	0.459	0.459	0.041	-0.852
Mof_H 	H 	0.4419	0.4419	0.0581	0.186
Mof_O 	O 	0.4683	0.4683	0.0317	-0.161
Mof_O 	O 	0.541	0.959	0.541	-0.852
Mof_H 	H 	0.5581	0.9419	0.5581	0.186
Mof_O 	O 	0.5317	0.9683	0.5317	-0.161
Mof_O 	O 	0.959	0.541	0.541	-0.852
Mof_H 	H 	0.9419	0.5581	0.5581	0.186
Mof_O 	O 	0.9683	0.5317	0.5317	-0.161
Mof_O 	O 	0.959	0.959	0.959	-0.851
Mof_H 	H 	0.9419	0.9419	0.9419	0.186
Mof_O 	O 	0.9683	0.9683	0.9683	-0.161
Mof_O 	O 	0.541	0.541	0.959	-0.852
Mof_H 	H 	0.5581	0.5581	0.9419	0.186
Mof_O 	O 	0.5317	0.5317	0.9683	-0.161
_end
