data_functionalizedCrystal
_audit_creation_method	'EQeq! by Chris Wilmer'
_symmetry_space_group_name_H-M	'P1'
_symmetry_Int_Tables_number	1
_symmetry_cell_setting	triclinic
loop_
_symmetry_equiv_pos_as_xyz
  x,y,z
_cell_length_a	9.6689
_cell_length_b	16.716
_cell_length_c	21.277
_cell_angle_alpha	104.23
_cell_angle_beta	100.42
_cell_angle_gamma	96.86
loop_
_atom_site_label
_atom_site_type_symbol
_atom_site_fract_x
_atom_site_fract_y
_atom_site_fract_z
_atom_site_charge
Mof_Eu	Eu	0.27613	0.51536	0.99816	2.352
Mof_I 	I 	0.763	0.9903	0.50023	-0.718
Mof_I 	I 	0.98948	0.77964	0.47165	-0.611
Mof_I 	I 	0.0894	0.97873	0.67434	-0.606
Mof_I 	I 	0.69772	0.79038	0.61407	-0.594
Mof_Cu	Cu	0.01404	0.94278	0.54053	0.701
Mof_Cu	Cu	0.75541	0.82741	0.50277	0.732
Mof_Cu	Cu	0.82078	0.94673	0.62266	0.731
Mof_Cu	Cu	0.96271	0.81831	0.59992	0.725
Mof_O 	O 	0.1704	0.5444	0.0918	-0.596
Mof_O 	O 	0.94	0.4853	0.072	-0.623
Mof_O 	O 	0.5452	0.3754	0.9283	-0.578
Mof_O 	O 	0.3264	0.408	0.9128	-0.594
Mof_O 	O 	0.3592	0.583	0.9217	-0.557
Mof_O 	O 	0.5767	0.5501	0.9388	-0.633
Mof_N 	N 	0.5778	0.7617	0.4347	-0.253
Mof_N 	N 	0.7079	0.0282	0.6681	-0.247
Mof_N 	N 	0.0981	0.7547	0.6422	-0.26
Mof_C 	C 	0.4526	0.7837	0.4371	0.124
Mof_H 	H 	0.4486	0.8311	0.47	-0.02
Mof_C 	C 	0.3276	0.7416	0.3942	-0.201
Mof_H 	H 	0.2427	0.761	0.3985	0.118
Mof_C 	C 	0.3263	0.6715	0.3453	0.135
Mof_C 	C 	0.4575	0.6481	0.3398	-0.182
Mof_H 	H 	0.4637	0.6019	0.3063	0.097
Mof_C 	C 	0.5791	0.6947	0.3852	0.1
Mof_H 	H 	0.6664	0.6784	0.3811	-0.016
Mof_C 	C 	0.1936	0.6221	0.2971	-0.073
Mof_C 	C 	0.1875	0.5966	0.2281	0.044
Mof_H 	H 	0.2675	0.6103	0.2118	0.018
Mof_C 	C 	0.0624	0.5511	0.1846	-0.183
Mof_C 	C 	0.9412	0.5306	0.2084	0.069
Mof_H 	H 	0.8581	0.4994	0.179	0.006
Mof_C 	C 	0.9452	0.5566	0.275	-0.117
Mof_H 	H 	0.8644	0.5438	0.291	0.072
Mof_C 	C 	0.0709	0.6023	0.3189	0.007
Mof_H 	H 	0.0721	0.6199	0.364	0.042
Mof_C 	C 	0.0579	0.5255	0.1106	0.503
Mof_C 	C 	0.7644	0.1035	0.7109	0.089
Mof_H 	H 	0.8632	0.1186	0.7236	-0.016
Mof_C 	C 	0.681	0.1596	0.7369	-0.166
Mof_H 	H 	0.724	0.2105	0.7674	0.086
Mof_C 	C 	0.5314	0.1396	0.7171	0.12
Mof_C 	C 	0.4763	0.0599	0.6713	-0.175
Mof_H 	H 	0.3781	0.0433	0.6558	0.107
Mof_C 	C 	0.5647	0.008	0.6501	0.104
Mof_H 	H 	0.5247	0.9553	0.6215	-0.02
Mof_C 	C 	0.4348	0.1976	0.7423	-0.082
Mof_C 	C 	0.4756	0.2564	0.8025	0.071
Mof_H 	H 	0.5684	0.2644	0.8272	0.007
Mof_C 	C 	0.3782	0.3048	0.8273	-0.198
Mof_C 	C 	0.2436	0.2963	0.7876	0.102
Mof_H 	H 	0.1794	0.3292	0.8032	-0.003
Mof_C 	C 	0.2039	0.2406	0.7263	-0.151
Mof_H 	H 	0.1138	0.2363	0.7	0.085
Mof_C 	C 	0.2974	0.1907	0.7034	0.047
Mof_H 	H 	0.2696	0.152	0.6618	0.002
Mof_C 	C 	0.4196	0.3675	0.8949	0.531
Mof_C 	C 	0.2388	0.7713	0.6435	0.111
Mof_H 	H 	0.2684	0.8099	0.6216	-0.024
Mof_C 	C 	0.341	0.7356	0.6745	-0.193
Mof_H 	H 	0.4358	0.7479	0.6718	0.117
Mof_C 	C 	0.3011	0.6801	0.7106	0.137
Mof_C 	C 	0.1582	0.6619	0.7084	-0.203
Mof_H 	H 	0.1243	0.6233	0.7293	0.101
Mof_C 	C 	0.0655	0.7014	0.6749	0.124
Mof_H 	H 	0.9697	0.6889	0.6758	-0.029
Mof_C 	C 	0.4121	0.6434	0.7455	-0.076
Mof_C 	C 	0.3949	0.626	0.8065	0.046
Mof_H 	H 	0.3147	0.6376	0.8231	0.021
Mof_C 	C 	0.4963	0.5921	0.8408	-0.173
Mof_C 	C 	0.6218	0.5771	0.8176	0.07
Mof_H 	H 	0.6928	0.5571	0.8421	-0.002
Mof_C 	C 	0.6373	0.5921	0.7593	-0.122
Mof_H 	H 	0.7183	0.581	0.7433	0.073
Mof_C 	C 	0.5323	0.6241	0.723	0.015
Mof_H 	H 	0.5442	0.6326	0.6826	0.035
Mof_C 	C 	0.4779	0.5744	0.9067	0.521
Mof_Eu	Eu	0.72387	0.48464	0.00184	2.351
Mof_I 	I 	0.237	0.0097	0.49977	-0.719
Mof_I 	I 	0.01052	0.22036	0.52835	-0.612
Mof_I 	I 	0.9106	0.02127	0.32566	-0.607
Mof_I 	I 	0.30228	0.20962	0.38593	-0.595
Mof_Cu	Cu	0.98596	0.05722	0.45947	0.7
Mof_Cu	Cu	0.24459	0.17259	0.49723	0.732
Mof_Cu	Cu	0.17922	0.05327	0.37734	0.731
Mof_Cu	Cu	0.03729	0.18169	0.40008	0.725
Mof_O 	O 	0.8296	0.4556	0.9082	-0.596
Mof_O 	O 	0.06	0.5147	0.928	-0.623
Mof_O 	O 	0.4548	0.6246	0.0717	-0.578
Mof_O 	O 	0.6736	0.592	0.0872	-0.594
Mof_O 	O 	0.6408	0.417	0.0783	-0.557
Mof_O 	O 	0.4233	0.4499	0.0612	-0.633
Mof_N 	N 	0.4222	0.2383	0.5653	-0.253
Mof_N 	N 	0.2921	0.9718	0.3319	-0.247
Mof_N 	N 	0.9019	0.2453	0.3578	-0.26
Mof_C 	C 	0.5474	0.2163	0.5629	0.124
Mof_H 	H 	0.5514	0.1689	0.53	-0.02
Mof_C 	C 	0.6724	0.2584	0.6058	-0.201
Mof_H 	H 	0.7573	0.239	0.6015	0.118
Mof_C 	C 	0.6737	0.3285	0.6547	0.135
Mof_C 	C 	0.5425	0.3519	0.6602	-0.182
Mof_H 	H 	0.5363	0.3981	0.6937	0.097
Mof_C 	C 	0.4209	0.3053	0.6148	0.1
Mof_H 	H 	0.3336	0.3216	0.6189	-0.016
Mof_C 	C 	0.8064	0.3779	0.7029	-0.073
Mof_C 	C 	0.8125	0.4034	0.7719	0.044
Mof_H 	H 	0.7325	0.3897	0.7882	0.018
Mof_C 	C 	0.9376	0.4489	0.8154	-0.183
Mof_C 	C 	0.0588	0.4694	0.7916	0.069
Mof_H 	H 	0.1419	0.5006	0.821	0.006
Mof_C 	C 	0.0548	0.4434	0.725	-0.117
Mof_H 	H 	0.1356	0.4562	0.709	0.072
Mof_C 	C 	0.9291	0.3977	0.6811	0.007
Mof_H 	H 	0.9279	0.3801	0.636	0.042
Mof_C 	C 	0.9421	0.4745	0.8894	0.503
Mof_C 	C 	0.2356	0.8965	0.2891	0.089
Mof_H 	H 	0.1368	0.8814	0.2764	-0.016
Mof_C 	C 	0.319	0.8404	0.2631	-0.166
Mof_H 	H 	0.276	0.7895	0.2326	0.086
Mof_C 	C 	0.4686	0.8604	0.2829	0.12
Mof_C 	C 	0.5237	0.9401	0.3287	-0.175
Mof_H 	H 	0.6219	0.9567	0.3442	0.107
Mof_C 	C 	0.4353	0.992	0.3499	0.104
Mof_H 	H 	0.4753	0.0447	0.3785	-0.02
Mof_C 	C 	0.5652	0.8024	0.2577	-0.082
Mof_C 	C 	0.5244	0.7436	0.1975	0.071
Mof_H 	H 	0.4316	0.7356	0.1728	0.007
Mof_C 	C 	0.6218	0.6952	0.1727	-0.198
Mof_C 	C 	0.7564	0.7037	0.2124	0.102
Mof_H 	H 	0.8206	0.6708	0.1968	-0.003
Mof_C 	C 	0.7961	0.7594	0.2737	-0.151
Mof_H 	H 	0.8862	0.7637	0.3	0.085
Mof_C 	C 	0.7026	0.8093	0.2966	0.047
Mof_H 	H 	0.7304	0.848	0.3382	0.002
Mof_C 	C 	0.5804	0.6325	0.1051	0.531
Mof_C 	C 	0.7612	0.2287	0.3565	0.111
Mof_H 	H 	0.7316	0.1901	0.3784	-0.024
Mof_C 	C 	0.659	0.2644	0.3255	-0.193
Mof_H 	H 	0.5642	0.2521	0.3282	0.117
Mof_C 	C 	0.6989	0.3199	0.2894	0.137
Mof_C 	C 	0.8418	0.3381	0.2916	-0.203
Mof_H 	H 	0.8757	0.3767	0.2707	0.101
Mof_C 	C 	0.9345	0.2986	0.3251	0.124
Mof_H 	H 	0.0303	0.3111	0.3242	-0.029
Mof_C 	C 	0.5879	0.3566	0.2545	-0.076
Mof_C 	C 	0.6051	0.374	0.1935	0.046
Mof_H 	H 	0.6853	0.3624	0.1769	0.021
Mof_C 	C 	0.5037	0.4079	0.1592	-0.173
Mof_C 	C 	0.3782	0.4229	0.1824	0.07
Mof_H 	H 	0.3072	0.4429	0.1579	-0.002
Mof_C 	C 	0.3627	0.4079	0.2407	-0.122
Mof_H 	H 	0.2817	0.419	0.2567	0.073
Mof_C 	C 	0.4677	0.3759	0.277	0.015
Mof_H 	H 	0.4558	0.3674	0.3174	0.035
Mof_C 	C 	0.5221	0.4256	0.0933	0.521
_end
