data_functionalizedCrystal
_audit_creation_method	'EQeq! by Chris Wilmer'
_symmetry_space_group_name_H-M	'P1'
_symmetry_Int_Tables_number	1
_symmetry_cell_setting	triclinic
loop_
_symmetry_equiv_pos_as_xyz
  x,y,z
_cell_length_a	25.0986
_cell_length_b	4.8666
_cell_length_c	24.0359
_cell_angle_alpha	90
_cell_angle_beta	117.2
_cell_angle_gamma	90
loop_
_atom_site_label
_atom_site_type_symbol
_atom_site_fract_x
_atom_site_fract_y
_atom_site_fract_z
_atom_site_charge
Mof_Be	Be	0.18285	0.6706	0.24933	0.784
Mof_Be	Be	0.0599	0.6532	0.3405	0.839
Mof_Be	Be	0.2606	0.5175	0.57071	0.784
Mof_P 	P 	0.23747	0.16266	0.31487	0.631
Mof_P 	P 	0.06565	0.48725	0.22332	0.66
Mof_P 	P 	0.17659	0.47397	0.43645	0.634
Mof_O 	O 	0.21413	0.4628	0.31077	-0.346
Mof_O 	O 	0.26461	0.0728	0.38292	-0.364
Mof_O 	O 	0.28541	0.1472	0.29415	-0.387
Mof_O 	O 	0.18351	0.9832	0.27404	-0.396
Mof_O 	O 	0.11258	0.5945	0.20528	-0.357
Mof_O 	O 	0.06975	0.167	0.2261	-0.475
Mof_H 	H 	0.105	0.1201	0.2409	0.324
Mof_O 	O 	0.00344	0.5359	0.17115	-0.384
Mof_O 	O 	0.07611	0.599	0.28534	-0.42
Mof_O 	O 	0.11057	0.535	0.40523	-0.346
Mof_O 	O 	0.20338	0.5586	0.50384	-0.371
Mof_O 	O 	0.20911	0.6572	0.40555	-0.31
Mof_O 	O 	0.1866	0.1765	0.42668	-0.379
Mof_O 	O 	0.05807	0.9875	0.35356	-0.441
Mof_H 	H 	0.0239	0.0455	0.3328	0.307
Mof_Be	Be	0.68285	0.1706	0.24933	0.79
Mof_Be	Be	0.5599	0.1532	0.3405	0.835
Mof_Be	Be	0.7606	0.0175	0.57071	0.796
Mof_P 	P 	0.73747	0.66266	0.31487	0.632
Mof_P 	P 	0.56565	0.98725	0.22332	0.621
Mof_P 	P 	0.67659	0.97397	0.43645	0.604
Mof_O 	O 	0.71413	0.9628	0.31077	-0.355
Mof_O 	O 	0.76461	0.5728	0.38292	-0.358
Mof_O 	O 	0.78541	0.6472	0.29415	-0.387
Mof_O 	O 	0.68351	0.4832	0.27404	-0.4
Mof_O 	O 	0.61258	0.0945	0.20528	-0.345
Mof_O 	O 	0.56975	0.667	0.2261	-0.47
Mof_H 	H 	0.605	0.6201	0.2409	0.323
Mof_O 	O 	0.50344	0.0359	0.17115	-0.367
Mof_O 	O 	0.57611	0.099	0.28534	-0.403
Mof_O 	O 	0.61057	0.035	0.40523	-0.331
Mof_O 	O 	0.70338	0.0586	0.50384	-0.362
Mof_O 	O 	0.70911	0.1572	0.40555	-0.298
Mof_O 	O 	0.6866	0.6765	0.42668	-0.37
Mof_O 	O 	0.55807	0.4875	0.35356	-0.458
Mof_H 	H 	0.5239	0.5455	0.3328	0.317
Mof_Be	Be	0.81715	0.6706	0.25067	0.784
Mof_Be	Be	0.9401	0.6532	0.1595	0.838
Mof_Be	Be	0.7394	0.5175	0.92929	0.784
Mof_P 	P 	0.76253	0.16266	0.18513	0.631
Mof_P 	P 	0.93435	0.48725	0.27668	0.66
Mof_P 	P 	0.82341	0.47397	0.06355	0.633
Mof_O 	O 	0.78587	0.4628	0.18923	-0.346
Mof_O 	O 	0.73539	0.0728	0.11708	-0.363
Mof_O 	O 	0.71459	0.1472	0.20585	-0.387
Mof_O 	O 	0.81649	0.9832	0.22596	-0.396
Mof_O 	O 	0.88742	0.5945	0.29472	-0.357
Mof_O 	O 	0.93025	0.167	0.2739	-0.475
Mof_H 	H 	0.895	0.1201	0.2591	0.324
Mof_O 	O 	0.99656	0.5359	0.32885	-0.384
Mof_O 	O 	0.92389	0.599	0.21466	-0.421
Mof_O 	O 	0.88943	0.535	0.09477	-0.346
Mof_O 	O 	0.79662	0.5586	0.99616	-0.371
Mof_O 	O 	0.79089	0.6572	0.09445	-0.31
Mof_O 	O 	0.8134	0.1765	0.07332	-0.379
Mof_O 	O 	0.94193	0.9875	0.14644	-0.442
Mof_H 	H 	0.9761	0.0455	0.1672	0.307
Mof_Be	Be	0.31715	0.1706	0.25067	0.791
Mof_Be	Be	0.4401	0.1532	0.1595	0.835
Mof_Be	Be	0.2394	0.0175	0.92929	0.795
Mof_P 	P 	0.26253	0.66266	0.18513	0.632
Mof_P 	P 	0.43435	0.98725	0.27668	0.622
Mof_P 	P 	0.32341	0.97397	0.06355	0.604
Mof_O 	O 	0.28587	0.9628	0.18923	-0.355
Mof_O 	O 	0.23539	0.5728	0.11708	-0.358
Mof_O 	O 	0.21459	0.6472	0.20585	-0.387
Mof_O 	O 	0.31649	0.4832	0.22596	-0.4
Mof_O 	O 	0.38742	0.0945	0.29472	-0.345
Mof_O 	O 	0.43025	0.667	0.2739	-0.47
Mof_H 	H 	0.395	0.6201	0.2591	0.323
Mof_O 	O 	0.49656	0.0359	0.32885	-0.367
Mof_O 	O 	0.42389	0.099	0.21466	-0.403
Mof_O 	O 	0.38943	0.035	0.09477	-0.331
Mof_O 	O 	0.29662	0.0586	0.99616	-0.362
Mof_O 	O 	0.29089	0.1572	0.09445	-0.297
Mof_O 	O 	0.3134	0.6765	0.07332	-0.37
Mof_O 	O 	0.44193	0.4875	0.14644	-0.458
Mof_H 	H 	0.4761	0.5455	0.1672	0.316
Mof_Be	Be	0.81715	0.3294	0.75067	0.784
Mof_Be	Be	0.9401	0.3468	0.6595	0.839
Mof_Be	Be	0.7394	0.4825	0.42929	0.784
Mof_P 	P 	0.76253	0.83734	0.68513	0.631
Mof_P 	P 	0.93435	0.51275	0.77668	0.66
Mof_P 	P 	0.82341	0.52603	0.56355	0.634
Mof_O 	O 	0.78587	0.5372	0.68923	-0.346
Mof_O 	O 	0.73539	0.9272	0.61708	-0.364
Mof_O 	O 	0.71459	0.8528	0.70585	-0.387
Mof_O 	O 	0.81649	0.0168	0.72596	-0.396
Mof_O 	O 	0.88742	0.4055	0.79472	-0.357
Mof_O 	O 	0.93025	0.833	0.7739	-0.475
Mof_H 	H 	0.895	0.8799	0.7591	0.324
Mof_O 	O 	0.99656	0.4641	0.82885	-0.384
Mof_O 	O 	0.92389	0.401	0.71466	-0.42
Mof_O 	O 	0.88943	0.465	0.59477	-0.346
Mof_O 	O 	0.79662	0.4414	0.49616	-0.371
Mof_O 	O 	0.79089	0.3428	0.59445	-0.31
Mof_O 	O 	0.8134	0.8235	0.57332	-0.379
Mof_O 	O 	0.94193	0.0125	0.64644	-0.441
Mof_H 	H 	0.9761	0.9545	0.6672	0.307
Mof_Be	Be	0.31715	0.8294	0.75067	0.79
Mof_Be	Be	0.4401	0.8468	0.6595	0.835
Mof_Be	Be	0.2394	0.9825	0.42929	0.796
Mof_P 	P 	0.26253	0.33734	0.68513	0.632
Mof_P 	P 	0.43435	0.01275	0.77668	0.621
Mof_P 	P 	0.32341	0.02603	0.56355	0.604
Mof_O 	O 	0.28587	0.0372	0.68923	-0.355
Mof_O 	O 	0.23539	0.4272	0.61708	-0.358
Mof_O 	O 	0.21459	0.3528	0.70585	-0.387
Mof_O 	O 	0.31649	0.5168	0.72596	-0.4
Mof_O 	O 	0.38742	0.9055	0.79472	-0.345
Mof_O 	O 	0.43025	0.333	0.7739	-0.47
Mof_H 	H 	0.395	0.3799	0.7591	0.323
Mof_O 	O 	0.49656	0.9641	0.82885	-0.367
Mof_O 	O 	0.42389	0.901	0.71466	-0.403
Mof_O 	O 	0.38943	0.965	0.59477	-0.331
Mof_O 	O 	0.29662	0.9414	0.49616	-0.362
Mof_O 	O 	0.29089	0.8428	0.59445	-0.298
Mof_O 	O 	0.3134	0.3235	0.57332	-0.37
Mof_O 	O 	0.44193	0.5125	0.64644	-0.458
Mof_H 	H 	0.4761	0.4545	0.6672	0.317
Mof_Be	Be	0.18285	0.3294	0.74933	0.784
Mof_Be	Be	0.0599	0.3468	0.8405	0.838
Mof_Be	Be	0.2606	0.4825	0.07071	0.784
Mof_P 	P 	0.23747	0.83734	0.81487	0.631
Mof_P 	P 	0.06565	0.51275	0.72332	0.66
Mof_P 	P 	0.17659	0.52603	0.93645	0.633
Mof_O 	O 	0.21413	0.5372	0.81077	-0.346
Mof_O 	O 	0.26461	0.9272	0.88292	-0.363
Mof_O 	O 	0.28541	0.8528	0.79415	-0.387
Mof_O 	O 	0.18351	0.0168	0.77404	-0.396
Mof_O 	O 	0.11258	0.4055	0.70528	-0.357
Mof_O 	O 	0.06975	0.833	0.7261	-0.475
Mof_H 	H 	0.105	0.8799	0.7409	0.324
Mof_O 	O 	0.00344	0.4641	0.67115	-0.384
Mof_O 	O 	0.07611	0.401	0.78534	-0.421
Mof_O 	O 	0.11057	0.465	0.90523	-0.346
Mof_O 	O 	0.20338	0.4414	0.00384	-0.371
Mof_O 	O 	0.20911	0.3428	0.90555	-0.31
Mof_O 	O 	0.1866	0.8235	0.92668	-0.379
Mof_O 	O 	0.05807	0.0125	0.85356	-0.442
Mof_H 	H 	0.0239	0.9545	0.8328	0.307
Mof_Be	Be	0.68285	0.8294	0.74933	0.791
Mof_Be	Be	0.5599	0.8468	0.8405	0.835
Mof_Be	Be	0.7606	0.9825	0.07071	0.795
Mof_P 	P 	0.73747	0.33734	0.81487	0.632
Mof_P 	P 	0.56565	0.01275	0.72332	0.622
Mof_P 	P 	0.67659	0.02603	0.93645	0.604
Mof_O 	O 	0.71413	0.0372	0.81077	-0.355
Mof_O 	O 	0.76461	0.4272	0.88292	-0.358
Mof_O 	O 	0.78541	0.3528	0.79415	-0.387
Mof_O 	O 	0.68351	0.5168	0.77404	-0.4
Mof_O 	O 	0.61258	0.9055	0.70528	-0.345
Mof_O 	O 	0.56975	0.333	0.7261	-0.47
Mof_H 	H 	0.605	0.3799	0.7409	0.323
Mof_O 	O 	0.50344	0.9641	0.67115	-0.367
Mof_O 	O 	0.57611	0.901	0.78534	-0.403
Mof_O 	O 	0.61057	0.965	0.90523	-0.331
Mof_O 	O 	0.70338	0.9414	0.00384	-0.362
Mof_O 	O 	0.70911	0.8428	0.90555	-0.297
Mof_O 	O 	0.6866	0.3235	0.92668	-0.37
Mof_O 	O 	0.55807	0.5125	0.85356	-0.458
Mof_H 	H 	0.5239	0.4545	0.8328	0.316
_end
