# CIF file generated by openbabel 3.1.0, see https://openbabel.org
data_I
_chemical_name_common 'image0'
_cell_length_a 15.7891
_cell_length_b 8.4306
_cell_length_c 16.1358
_cell_angle_alpha 90
_cell_angle_beta 112.357
_cell_angle_gamma 90
_space_group_name_H-M_alt 'P 1'
_space_group_name_Hall 'P 1'
loop_
    _symmetry_equiv_pos_as_xyz
    x,y,z
loop_
    _atom_site_label
    _atom_site_type_symbol
    _atom_site_fract_x
    _atom_site_fract_y
    _atom_site_fract_z
    _atom_site_occupancy
    Zn1      Zn       0.63644    0.63754    0.52447    1.000
    P1       P        0.52040    0.37261    0.40048    1.000
    O1       O        0.60770    0.42200    0.47620    1.000
    O2       O        0.45570    0.28660    0.43250    1.000
    O3       O        0.47480    0.51100    0.34060    1.000
    H1       H        0.54800    0.26200    0.35300    1.000
    P2       P        0.65252    0.86260    0.36492    1.000
    H2       H        0.61400    0.00100    0.34400    1.000
    O4       O        0.74930    0.90020    0.37610    1.000
    O5       O        0.63970    0.80880    0.44810    1.000
    O6       O        0.61020    0.75290    0.28630    1.000
    Zn2      Zn       0.13644    0.13754    0.52447    1.000
    P3       P        0.02040    0.87261    0.40048    1.000
    O7       O        0.10770    0.92200    0.47620    1.000
    O8       O        0.95570    0.78660    0.43250    1.000
    O9       O        0.97480    0.01100    0.34060    1.000
    H3       H        0.04800    0.76200    0.35300    1.000
    P4       P        0.15252    0.36260    0.36492    1.000
    H4       H        0.11400    0.50100    0.34400    1.000
    O10      O        0.24930    0.40020    0.37610    1.000
    O11      O        0.13970    0.30880    0.44810    1.000
    O12      O        0.11020    0.25290    0.28630    1.000
    Zn3      Zn       0.36356    0.63754    0.97553    1.000
    P5       P        0.47960    0.37261    0.09952    1.000
    O13      O        0.39230    0.42200    0.02380    1.000
    O14      O        0.54430    0.28660    0.06750    1.000
    O15      O        0.52520    0.51100    0.15940    1.000
    H5       H        0.45200    0.26200    0.14700    1.000
    P6       P        0.34748    0.86260    0.13508    1.000
    H6       H        0.38600    0.00100    0.15600    1.000
    O16      O        0.25070    0.90020    0.12390    1.000
    O17      O        0.36030    0.80880    0.05190    1.000
    O18      O        0.38980    0.75290    0.21370    1.000
    Zn4      Zn       0.86356    0.13754    0.97553    1.000
    P7       P        0.97960    0.87261    0.09952    1.000
    O19      O        0.89230    0.92200    0.02380    1.000
    O20      O        0.04430    0.78660    0.06750    1.000
    O21      O        0.02520    0.01100    0.15940    1.000
    H7       H        0.95200    0.76200    0.14700    1.000
    P8       P        0.84748    0.36260    0.13508    1.000
    H8       H        0.88600    0.50100    0.15600    1.000
    O22      O        0.75070    0.40020    0.12390    1.000
    O23      O        0.86030    0.30880    0.05190    1.000
    O24      O        0.88980    0.25290    0.21370    1.000
    Zn5      Zn       0.36356    0.36246    0.47553    1.000
    P9       P        0.47960    0.62739    0.59952    1.000
    O25      O        0.39230    0.57800    0.52380    1.000
    O26      O        0.54430    0.71340    0.56750    1.000
    O27      O        0.52520    0.48900    0.65940    1.000
    H9       H        0.45200    0.73800    0.64700    1.000
    P10      P        0.34748    0.13740    0.63508    1.000
    H10      H        0.38600    0.99900    0.65600    1.000
    O28      O        0.25070    0.09980    0.62390    1.000
    O29      O        0.36030    0.19120    0.55190    1.000
    O30      O        0.38980    0.24710    0.71370    1.000
    Zn6      Zn       0.86356    0.86246    0.47553    1.000
    P11      P        0.97960    0.12739    0.59952    1.000
    O31      O        0.89230    0.07800    0.52380    1.000
    O32      O        0.04430    0.21340    0.56750    1.000
    O33      O        0.02520    0.98900    0.65940    1.000
    H11      H        0.95200    0.23800    0.64700    1.000
    P12      P        0.84748    0.63740    0.63508    1.000
    H12      H        0.88600    0.49900    0.65600    1.000
    O34      O        0.75070    0.59980    0.62390    1.000
    O35      O        0.86030    0.69120    0.55190    1.000
    O36      O        0.88980    0.74710    0.71370    1.000
    Zn7      Zn       0.63644    0.36246    0.02447    1.000
    P13      P        0.52040    0.62739    0.90048    1.000
    O37      O        0.60770    0.57800    0.97620    1.000
    O38      O        0.45570    0.71340    0.93250    1.000
    O39      O        0.47480    0.48900    0.84060    1.000
    H13      H        0.54800    0.73800    0.85300    1.000
    P14      P        0.65252    0.13740    0.86492    1.000
    H14      H        0.61400    0.99900    0.84400    1.000
    O40      O        0.74930    0.09980    0.87610    1.000
    O41      O        0.63970    0.19120    0.94810    1.000
    O42      O        0.61020    0.24710    0.78630    1.000
    Zn8      Zn       0.13644    0.86246    0.02447    1.000
    P15      P        0.02040    0.12739    0.90048    1.000
    O43      O        0.10770    0.07800    0.97620    1.000
    O44      O        0.95570    0.21340    0.93250    1.000
    O45      O        0.97480    0.98900    0.84060    1.000
    H15      H        0.04800    0.23800    0.85300    1.000
    P16      P        0.15252    0.63740    0.86492    1.000
    H16      H        0.11400    0.49900    0.84400    1.000
    O46      O        0.24930    0.59980    0.87610    1.000
    O47      O        0.13970    0.69120    0.94810    1.000
    O48      O        0.11020    0.74710    0.78630    1.000
    Zn9      Zn       0.50000    0.62722    0.25000    1.000
    Zn10     Zn       0.00000    0.12722    0.25000    1.000
    Zn11     Zn       0.50000    0.37278    0.75000    1.000
    Zn12     Zn       0.00000    0.87278    0.75000    1.000
