# CIF file generated by openbabel 3.1.0, see https://openbabel.org
data_I
_chemical_name_common 'image0'
_cell_length_a 19.685
_cell_length_b 14.332
_cell_length_c 16.93
_cell_angle_alpha 90
_cell_angle_beta 121.205
_cell_angle_gamma 90
_space_group_name_H-M_alt 'P 1'
_space_group_name_Hall 'P 1'
loop_
    _symmetry_equiv_pos_as_xyz
    x,y,z
loop_
    _atom_site_label
    _atom_site_type_symbol
    _atom_site_fract_x
    _atom_site_fract_y
    _atom_site_fract_z
    _atom_site_occupancy
    Zn1      Zn       0.24322    0.43239    0.36807    1.000
    N1       N        0.24330    0.49470    0.25610    1.000
    N2       N        0.03530    0.45560    0.37280    1.000
    N3       N        0.14440    0.41840    0.37610    1.000
    N4       N        0.47240    0.48560    0.58910    1.000
    N5       N        0.35700    0.43290    0.47930    1.000
    O1       O        0.23940    0.57950    0.39260    1.000
    O2       O        0.23610    0.71920    0.33570    1.000
    O3       O        0.35650    0.76440    0.28580    1.000
    O4       O        0.24130    0.79600    0.15500    1.000
    C1       C        0.24200    0.63520    0.33640    1.000
    C2       C        0.29030    0.74120    0.21730    1.000
    C3       C        0.25080    0.58490    0.26290    1.000
    C4       C        0.26880    0.63910    0.20310    1.000
    C5       C        0.26690    0.59030    0.13160    1.000
    H1       H        0.27410    0.62190    0.08850    1.000
    C6       C        0.25450    0.49600    0.12340    1.000
    H2       H        0.25360    0.46460    0.07470    1.000
    C7       C        0.24360    0.44700    0.18490    1.000
    H3       H        0.23650    0.38270    0.17930    1.000
    C8       C        0.10050    0.48770    0.37750    1.000
    H4       H        0.11370    0.55050    0.38140    1.000
    C9       C        0.10490    0.33920    0.37150    1.000
    H5       H        0.12160    0.27900    0.36920    1.000
    C10      C        0.03800    0.36050    0.37070    1.000
    H6       H        0.00110    0.31890    0.36910    1.000
    C11      C        0.97390    0.51380    0.37300    1.000
    H7       H        0.92330    0.50110    0.31720    1.000
    H8       H        0.98660    0.57890    0.37140    1.000
    C12      C        0.96540    0.49830    0.45510    1.000
    H9       H        0.92840    0.54450    0.45280    1.000
    H10      H        0.94090    0.43760    0.44800    1.000
    C13      C        0.39680    0.50700    0.52630    1.000
    H11      H        0.37530    0.56660    0.51710    1.000
    C14      C        0.40970    0.36230    0.51450    1.000
    H12      H        0.39890    0.30110    0.49330    1.000
    C15      C        0.48030    0.39260    0.58470    1.000
    H13      H        0.52520    0.35680    0.62230    1.000
    C16      C        0.53030    0.55080    0.65730    1.000
    H14      H        0.51310    0.61430    0.63680    1.000
    H15      H        0.58130    0.54180    0.66250    1.000
    C17      C        0.53940    0.53650    0.75150    1.000
    H16      H        0.57280    0.58570    0.79280    1.000
    H17      H        0.56610    0.47750    0.77690    1.000
    Zn2      Zn       0.74322    0.93239    0.36807    1.000
    N6       N        0.74330    0.99470    0.25610    1.000
    N7       N        0.53530    0.95560    0.37280    1.000
    N8       N        0.64440    0.91840    0.37610    1.000
    N9       N        0.97240    0.98560    0.58910    1.000
    N10      N        0.85700    0.93290    0.47930    1.000
    O5       O        0.73940    0.07950    0.39260    1.000
    O6       O        0.73610    0.21920    0.33570    1.000
    O7       O        0.85650    0.26440    0.28580    1.000
    O8       O        0.74130    0.29600    0.15500    1.000
    C18      C        0.74200    0.13520    0.33640    1.000
    C19      C        0.79030    0.24120    0.21730    1.000
    C20      C        0.75080    0.08490    0.26290    1.000
    C21      C        0.76880    0.13910    0.20310    1.000
    C22      C        0.76690    0.09030    0.13160    1.000
    H18      H        0.77410    0.12190    0.08850    1.000
    C23      C        0.75450    0.99600    0.12340    1.000
    H19      H        0.75360    0.96460    0.07470    1.000
    C24      C        0.74360    0.94700    0.18490    1.000
    H20      H        0.73650    0.88270    0.17930    1.000
    C25      C        0.60050    0.98770    0.37750    1.000
    H21      H        0.61370    0.05050    0.38140    1.000
    C26      C        0.60490    0.83920    0.37150    1.000
    H22      H        0.62160    0.77900    0.36920    1.000
    C27      C        0.53800    0.86050    0.37070    1.000
    H23      H        0.50110    0.81890    0.36910    1.000
    C28      C        0.47390    0.01380    0.37300    1.000
    H24      H        0.42330    0.00110    0.31720    1.000
    H25      H        0.48660    0.07890    0.37140    1.000
    C29      C        0.46540    0.99830    0.45510    1.000
    H26      H        0.42840    0.04450    0.45280    1.000
    H27      H        0.44090    0.93760    0.44800    1.000
    C30      C        0.89680    0.00700    0.52630    1.000
    H28      H        0.87530    0.06660    0.51710    1.000
    C31      C        0.90970    0.86230    0.51450    1.000
    H29      H        0.89890    0.80110    0.49330    1.000
    C32      C        0.98030    0.89260    0.58470    1.000
    H30      H        0.02520    0.85680    0.62230    1.000
    C33      C        0.03030    0.05080    0.65730    1.000
    H31      H        0.01310    0.11430    0.63680    1.000
    H32      H        0.08130    0.04180    0.66250    1.000
    C34      C        0.03940    0.03650    0.75150    1.000
    H33      H        0.07280    0.08570    0.79280    1.000
    H34      H        0.06610    0.97750    0.77690    1.000
    Zn3      Zn       0.75678    0.43239    0.13193    1.000
    N11      N        0.75670    0.49470    0.24390    1.000
    N12      N        0.96470    0.45560    0.12720    1.000
    N13      N        0.85560    0.41840    0.12390    1.000
    N14      N        0.52760    0.48560    0.91090    1.000
    N15      N        0.64300    0.43290    0.02070    1.000
    O9       O        0.76060    0.57950    0.10740    1.000
    O10      O        0.76390    0.71920    0.16430    1.000
    O11      O        0.64350    0.76440    0.21420    1.000
    O12      O        0.75870    0.79600    0.34500    1.000
    C35      C        0.75800    0.63520    0.16360    1.000
    C36      C        0.70970    0.74120    0.28270    1.000
    C37      C        0.74920    0.58490    0.23710    1.000
    C38      C        0.73120    0.63910    0.29690    1.000
    C39      C        0.73310    0.59030    0.36840    1.000
    H35      H        0.72590    0.62190    0.41150    1.000
    C40      C        0.74550    0.49600    0.37660    1.000
    H36      H        0.74640    0.46460    0.42530    1.000
    C41      C        0.75640    0.44700    0.31510    1.000
    H37      H        0.76350    0.38270    0.32070    1.000
    C42      C        0.89950    0.48770    0.12250    1.000
    H38      H        0.88630    0.55050    0.11860    1.000
    C43      C        0.89510    0.33920    0.12850    1.000
    H39      H        0.87840    0.27900    0.13080    1.000
    C44      C        0.96200    0.36050    0.12930    1.000
    H40      H        0.99890    0.31890    0.13090    1.000
    C45      C        0.02610    0.51380    0.12700    1.000
    H41      H        0.07670    0.50110    0.18280    1.000
    H42      H        0.01340    0.57890    0.12860    1.000
    C46      C        0.03460    0.49830    0.04490    1.000
    H43      H        0.07160    0.54450    0.04720    1.000
    H44      H        0.05910    0.43760    0.05200    1.000
    C47      C        0.60320    0.50700    0.97370    1.000
    H45      H        0.62470    0.56660    0.98290    1.000
    C48      C        0.59030    0.36230    0.98550    1.000
    H46      H        0.60110    0.30110    0.00670    1.000
    C49      C        0.51970    0.39260    0.91530    1.000
    H47      H        0.47480    0.35680    0.87770    1.000
    C50      C        0.46970    0.55080    0.84270    1.000
    H48      H        0.48690    0.61430    0.86320    1.000
    H49      H        0.41870    0.54180    0.83750    1.000
    C51      C        0.46060    0.53650    0.74850    1.000
    H50      H        0.42720    0.58570    0.70720    1.000
    H51      H        0.43390    0.47750    0.72310    1.000
    Zn4      Zn       0.25678    0.93239    0.13193    1.000
    N16      N        0.25670    0.99470    0.24390    1.000
    N17      N        0.46470    0.95560    0.12720    1.000
    N18      N        0.35560    0.91840    0.12390    1.000
    N19      N        0.02760    0.98560    0.91090    1.000
    N20      N        0.14300    0.93290    0.02070    1.000
    O13      O        0.26060    0.07950    0.10740    1.000
    O14      O        0.26390    0.21920    0.16430    1.000
    O15      O        0.14350    0.26440    0.21420    1.000
    O16      O        0.25870    0.29600    0.34500    1.000
    C52      C        0.25800    0.13520    0.16360    1.000
    C53      C        0.20970    0.24120    0.28270    1.000
    C54      C        0.24920    0.08490    0.23710    1.000
    C55      C        0.23120    0.13910    0.29690    1.000
    C56      C        0.23310    0.09030    0.36840    1.000
    H52      H        0.22590    0.12190    0.41150    1.000
    C57      C        0.24550    0.99600    0.37660    1.000
    H53      H        0.24640    0.96460    0.42530    1.000
    C58      C        0.25640    0.94700    0.31510    1.000
    H54      H        0.26350    0.88270    0.32070    1.000
    C59      C        0.39950    0.98770    0.12250    1.000
    H55      H        0.38630    0.05050    0.11860    1.000
    C60      C        0.39510    0.83920    0.12850    1.000
    H56      H        0.37840    0.77900    0.13080    1.000
    C61      C        0.46200    0.86050    0.12930    1.000
    H57      H        0.49890    0.81890    0.13090    1.000
    C62      C        0.52610    0.01380    0.12700    1.000
    H58      H        0.57670    0.00110    0.18280    1.000
    H59      H        0.51340    0.07890    0.12860    1.000
    C63      C        0.53460    0.99830    0.04490    1.000
    H60      H        0.57160    0.04450    0.04720    1.000
    H61      H        0.55910    0.93760    0.05200    1.000
    C64      C        0.10320    0.00700    0.97370    1.000
    H62      H        0.12470    0.06660    0.98290    1.000
    C65      C        0.09030    0.86230    0.98550    1.000
    H63      H        0.10110    0.80110    0.00670    1.000
    C66      C        0.01970    0.89260    0.91530    1.000
    H64      H        0.97480    0.85680    0.87770    1.000
    C67      C        0.96970    0.05080    0.84270    1.000
    H65      H        0.98690    0.11430    0.86320    1.000
    H66      H        0.91870    0.04180    0.83750    1.000
    C68      C        0.96060    0.03650    0.74850    1.000
    H67      H        0.92720    0.08570    0.70720    1.000
    H68      H        0.93390    0.97750    0.72310    1.000
    Zn5      Zn       0.75678    0.56761    0.63193    1.000
    N21      N        0.75670    0.50530    0.74390    1.000
    N22      N        0.96470    0.54440    0.62720    1.000
    N23      N        0.85560    0.58160    0.62390    1.000
    N24      N        0.52760    0.51440    0.41090    1.000
    N25      N        0.64300    0.56710    0.52070    1.000
    O17      O        0.76060    0.42050    0.60740    1.000
    O18      O        0.76390    0.28080    0.66430    1.000
    O19      O        0.64350    0.23560    0.71420    1.000
    O20      O        0.75870    0.20400    0.84500    1.000
    C69      C        0.75800    0.36480    0.66360    1.000
    C70      C        0.70970    0.25880    0.78270    1.000
    C71      C        0.74920    0.41510    0.73710    1.000
    C72      C        0.73120    0.36090    0.79690    1.000
    C73      C        0.73310    0.40970    0.86840    1.000
    H69      H        0.72590    0.37810    0.91150    1.000
    C74      C        0.74550    0.50400    0.87660    1.000
    H70      H        0.74640    0.53540    0.92530    1.000
    C75      C        0.75640    0.55300    0.81510    1.000
    H71      H        0.76350    0.61730    0.82070    1.000
    C76      C        0.89950    0.51230    0.62250    1.000
    H72      H        0.88630    0.44950    0.61860    1.000
    C77      C        0.89510    0.66080    0.62850    1.000
    H73      H        0.87840    0.72100    0.63080    1.000
    C78      C        0.96200    0.63950    0.62930    1.000
    H74      H        0.99890    0.68110    0.63090    1.000
    C79      C        0.02610    0.48620    0.62700    1.000
    H75      H        0.07670    0.49890    0.68280    1.000
    H76      H        0.01340    0.42110    0.62860    1.000
    C80      C        0.03460    0.50170    0.54490    1.000
    H77      H        0.07160    0.45550    0.54720    1.000
    H78      H        0.05910    0.56240    0.55200    1.000
    C81      C        0.60320    0.49300    0.47370    1.000
    H79      H        0.62470    0.43340    0.48290    1.000
    C82      C        0.59030    0.63770    0.48550    1.000
    H80      H        0.60110    0.69890    0.50670    1.000
    C83      C        0.51970    0.60740    0.41530    1.000
    H81      H        0.47480    0.64320    0.37770    1.000
    C84      C        0.46970    0.44920    0.34270    1.000
    H82      H        0.48690    0.38570    0.36320    1.000
    H83      H        0.41870    0.45820    0.33750    1.000
    C85      C        0.46060    0.46350    0.24850    1.000
    H84      H        0.42720    0.41430    0.20720    1.000
    H85      H        0.43390    0.52250    0.22310    1.000
    Zn6      Zn       0.25678    0.06761    0.63193    1.000
    N26      N        0.25670    0.00530    0.74390    1.000
    N27      N        0.46470    0.04440    0.62720    1.000
    N28      N        0.35560    0.08160    0.62390    1.000
    N29      N        0.02760    0.01440    0.41090    1.000
    N30      N        0.14300    0.06710    0.52070    1.000
    O21      O        0.26060    0.92050    0.60740    1.000
    O22      O        0.26390    0.78080    0.66430    1.000
    O23      O        0.14350    0.73560    0.71420    1.000
    O24      O        0.25870    0.70400    0.84500    1.000
    C86      C        0.25800    0.86480    0.66360    1.000
    C87      C        0.20970    0.75880    0.78270    1.000
    C88      C        0.24920    0.91510    0.73710    1.000
    C89      C        0.23120    0.86090    0.79690    1.000
    C90      C        0.23310    0.90970    0.86840    1.000
    H86      H        0.22590    0.87810    0.91150    1.000
    C91      C        0.24550    0.00400    0.87660    1.000
    H87      H        0.24640    0.03540    0.92530    1.000
    C92      C        0.25640    0.05300    0.81510    1.000
    H88      H        0.26350    0.11730    0.82070    1.000
    C93      C        0.39950    0.01230    0.62250    1.000
    H89      H        0.38630    0.94950    0.61860    1.000
    C94      C        0.39510    0.16080    0.62850    1.000
    H90      H        0.37840    0.22100    0.63080    1.000
    C95      C        0.46200    0.13950    0.62930    1.000
    H91      H        0.49890    0.18110    0.63090    1.000
    C96      C        0.52610    0.98620    0.62700    1.000
    H92      H        0.57670    0.99890    0.68280    1.000
    H93      H        0.51340    0.92110    0.62860    1.000
    C97      C        0.53460    0.00170    0.54490    1.000
    H94      H        0.57160    0.95550    0.54720    1.000
    H95      H        0.55910    0.06240    0.55200    1.000
    C98      C        0.10320    0.99300    0.47370    1.000
    H96      H        0.12470    0.93340    0.48290    1.000
    C99      C        0.09030    0.13770    0.48550    1.000
    H97      H        0.10110    0.19890    0.50670    1.000
    C100     C        0.01970    0.10740    0.41530    1.000
    H98      H        0.97480    0.14320    0.37770    1.000
    C101     C        0.96970    0.94920    0.34270    1.000
    H99      H        0.98690    0.88570    0.36320    1.000
    H100     H        0.91870    0.95820    0.33750    1.000
    C102     C        0.96060    0.96350    0.24850    1.000
    H101     H        0.92720    0.91430    0.20720    1.000
    H102     H        0.93390    0.02250    0.22310    1.000
    Zn7      Zn       0.24322    0.56761    0.86807    1.000
    N31      N        0.24330    0.50530    0.75610    1.000
    N32      N        0.03530    0.54440    0.87280    1.000
    N33      N        0.14440    0.58160    0.87610    1.000
    N34      N        0.47240    0.51440    0.08910    1.000
    N35      N        0.35700    0.56710    0.97930    1.000
    O25      O        0.23940    0.42050    0.89260    1.000
    O26      O        0.23610    0.28080    0.83570    1.000
    O27      O        0.35650    0.23560    0.78580    1.000
    O28      O        0.24130    0.20400    0.65500    1.000
    C103     C        0.24200    0.36480    0.83640    1.000
    C104     C        0.29030    0.25880    0.71730    1.000
    C105     C        0.25080    0.41510    0.76290    1.000
    C106     C        0.26880    0.36090    0.70310    1.000
    C107     C        0.26690    0.40970    0.63160    1.000
    H103     H        0.27410    0.37810    0.58850    1.000
    C108     C        0.25450    0.50400    0.62340    1.000
    H104     H        0.25360    0.53540    0.57470    1.000
    C109     C        0.24360    0.55300    0.68490    1.000
    H105     H        0.23650    0.61730    0.67930    1.000
    C110     C        0.10050    0.51230    0.87750    1.000
    H106     H        0.11370    0.44950    0.88140    1.000
    C111     C        0.10490    0.66080    0.87150    1.000
    H107     H        0.12160    0.72100    0.86920    1.000
    C112     C        0.03800    0.63950    0.87070    1.000
    H108     H        0.00110    0.68110    0.86910    1.000
    C113     C        0.97390    0.48620    0.87300    1.000
    H109     H        0.92330    0.49890    0.81720    1.000
    H110     H        0.98660    0.42110    0.87140    1.000
    C114     C        0.96540    0.50170    0.95510    1.000
    H111     H        0.92840    0.45550    0.95280    1.000
    H112     H        0.94090    0.56240    0.94800    1.000
    C115     C        0.39680    0.49300    0.02630    1.000
    H113     H        0.37530    0.43340    0.01710    1.000
    C116     C        0.40970    0.63770    0.01450    1.000
    H114     H        0.39890    0.69890    0.99330    1.000
    C117     C        0.48030    0.60740    0.08470    1.000
    H115     H        0.52520    0.64320    0.12230    1.000
    C118     C        0.53030    0.44920    0.15730    1.000
    H116     H        0.51310    0.38570    0.13680    1.000
    H117     H        0.58130    0.45820    0.16250    1.000
    C119     C        0.53940    0.46350    0.25150    1.000
    H118     H        0.57280    0.41430    0.29280    1.000
    H119     H        0.56610    0.52250    0.27690    1.000
    Zn8      Zn       0.74322    0.06761    0.86807    1.000
    N36      N        0.74330    0.00530    0.75610    1.000
    N37      N        0.53530    0.04440    0.87280    1.000
    N38      N        0.64440    0.08160    0.87610    1.000
    N39      N        0.97240    0.01440    0.08910    1.000
    N40      N        0.85700    0.06710    0.97930    1.000
    O29      O        0.73940    0.92050    0.89260    1.000
    O30      O        0.73610    0.78080    0.83570    1.000
    O31      O        0.85650    0.73560    0.78580    1.000
    O32      O        0.74130    0.70400    0.65500    1.000
    C120     C        0.74200    0.86480    0.83640    1.000
    C121     C        0.79030    0.75880    0.71730    1.000
    C122     C        0.75080    0.91510    0.76290    1.000
    C123     C        0.76880    0.86090    0.70310    1.000
    C124     C        0.76690    0.90970    0.63160    1.000
    H120     H        0.77410    0.87810    0.58850    1.000
    C125     C        0.75450    0.00400    0.62340    1.000
    H121     H        0.75360    0.03540    0.57470    1.000
    C126     C        0.74360    0.05300    0.68490    1.000
    H122     H        0.73650    0.11730    0.67930    1.000
    C127     C        0.60050    0.01230    0.87750    1.000
    H123     H        0.61370    0.94950    0.88140    1.000
    C128     C        0.60490    0.16080    0.87150    1.000
    H124     H        0.62160    0.22100    0.86920    1.000
    C129     C        0.53800    0.13950    0.87070    1.000
    H125     H        0.50110    0.18110    0.86910    1.000
    C130     C        0.47390    0.98620    0.87300    1.000
    H126     H        0.42330    0.99890    0.81720    1.000
    H127     H        0.48660    0.92110    0.87140    1.000
    C131     C        0.46540    0.00170    0.95510    1.000
    H128     H        0.42840    0.95550    0.95280    1.000
    H129     H        0.44090    0.06240    0.94800    1.000
    C132     C        0.89680    0.99300    0.02630    1.000
    H130     H        0.87530    0.93340    0.01710    1.000
    C133     C        0.90970    0.13770    0.01450    1.000
    H131     H        0.89890    0.19890    0.99330    1.000
    C134     C        0.98030    0.10740    0.08470    1.000
    H132     H        0.02520    0.14320    0.12230    1.000
    C135     C        0.03030    0.94920    0.15730    1.000
    H133     H        0.01310    0.88570    0.13680    1.000
    H134     H        0.08130    0.95820    0.16250    1.000
    C136     C        0.03940    0.96350    0.25150    1.000
    H135     H        0.07280    0.91430    0.29280    1.000
    H136     H        0.06610    0.02250    0.27690    1.000
