# CIF file generated by openbabel 3.1.0, see https://openbabel.org
data_I
_chemical_name_common 'image0'
_cell_length_a 17.41
_cell_length_b 6.7444
_cell_length_c 12.1646
_cell_angle_alpha 90
_cell_angle_beta 90
_cell_angle_gamma 90
_space_group_name_H-M_alt 'P 1'
_space_group_name_Hall 'P 1'
loop_
    _symmetry_equiv_pos_as_xyz
    x,y,z
loop_
    _atom_site_label
    _atom_site_type_symbol
    _atom_site_fract_x
    _atom_site_fract_y
    _atom_site_fract_z
    _atom_site_occupancy
    O1       O        0.07387    0.91692    0.88610    1.000
    O2       O        0.41090    0.91680    0.58881    1.000
    C1       C        0.27375    0.92810    0.70170    1.000
    H1       H        0.29650    0.04760    0.68180    1.000
    C2       C        0.20571    0.92800    0.76060    1.000
    H2       H        0.18280    0.04750    0.78020    1.000
    O3       O        0.42613    0.08308    0.38610    1.000
    O4       O        0.08910    0.08320    0.08881    1.000
    C3       C        0.22625    0.07190    0.20170    1.000
    H3       H        0.20350    0.95240    0.18180    1.000
    C4       C        0.29429    0.07200    0.26060    1.000
    H4       H        0.31720    0.95250    0.28020    1.000
    O5       O        0.92613    0.41692    0.11390    1.000
    O6       O        0.58910    0.41680    0.41119    1.000
    C5       C        0.72625    0.42810    0.29830    1.000
    H5       H        0.70350    0.54760    0.31820    1.000
    C6       C        0.79429    0.42800    0.23940    1.000
    H6       H        0.81720    0.54750    0.21980    1.000
    O7       O        0.57387    0.58308    0.61390    1.000
    O8       O        0.91090    0.58320    0.91119    1.000
    C7       C        0.77375    0.57190    0.79830    1.000
    H7       H        0.79650    0.45240    0.81820    1.000
    C8       C        0.70571    0.57200    0.73940    1.000
    H8       H        0.68280    0.45250    0.71980    1.000
    O9       O        0.92613    0.08308    0.11390    1.000
    O10      O        0.58910    0.08320    0.41119    1.000
    C9       C        0.72625    0.07190    0.29830    1.000
    H9       H        0.70350    0.95240    0.31820    1.000
    C10      C        0.79429    0.07200    0.23940    1.000
    H10      H        0.81720    0.95250    0.21980    1.000
    O11      O        0.57387    0.91692    0.61390    1.000
    O12      O        0.91090    0.91680    0.91119    1.000
    C11      C        0.77375    0.92810    0.79830    1.000
    H11      H        0.79650    0.04760    0.81820    1.000
    C12      C        0.70571    0.92800    0.73940    1.000
    H12      H        0.68280    0.04750    0.71980    1.000
    O13      O        0.07387    0.58308    0.88610    1.000
    O14      O        0.41090    0.58320    0.58881    1.000
    C13      C        0.27375    0.57190    0.70170    1.000
    H13      H        0.29650    0.45240    0.68180    1.000
    C14      C        0.20571    0.57200    0.76060    1.000
    H14      H        0.18280    0.45250    0.78020    1.000
    O15      O        0.42613    0.41692    0.38610    1.000
    O16      O        0.08910    0.41680    0.08881    1.000
    C15      C        0.22625    0.42810    0.20170    1.000
    H15      H        0.20350    0.54760    0.18180    1.000
    C16      C        0.29429    0.42800    0.26060    1.000
    H16      H        0.31720    0.54750    0.28020    1.000
    Ga1      Ga       0.00000    0.00000    0.00000    1.000
    Ga2      Ga       0.50000    0.00000    0.50000    1.000
    Ga3      Ga       0.00000    0.50000    0.00000    1.000
    Ga4      Ga       0.50000    0.50000    0.50000    1.000
    O17      O        0.00563    0.75000    0.07130    1.000
    H17      H        0.01800    0.75000    0.11400    1.000
    C17      C        0.38288    0.75000    0.61120    1.000
    C18      C        0.30796    0.75000    0.67240    1.000
    C19      C        0.17169    0.75000    0.79030    1.000
    C20      C        0.10046    0.75000    0.86000    1.000
    O18      O        0.49437    0.25000    0.57130    1.000
    H18      H        0.48200    0.25000    0.61400    1.000
    C21      C        0.11712    0.25000    0.11120    1.000
    C22      C        0.19204    0.25000    0.17240    1.000
    C23      C        0.32831    0.25000    0.29030    1.000
    C24      C        0.39954    0.25000    0.36000    1.000
    O19      O        0.99437    0.25000    0.92870    1.000
    H19      H        0.98200    0.25000    0.88600    1.000
    C25      C        0.61712    0.25000    0.38880    1.000
    C26      C        0.69204    0.25000    0.32760    1.000
    C27      C        0.82831    0.25000    0.20970    1.000
    C28      C        0.89954    0.25000    0.14000    1.000
    O20      O        0.50563    0.75000    0.42870    1.000
    H20      H        0.51800    0.75000    0.38600    1.000
    C29      C        0.88288    0.75000    0.88880    1.000
    C30      C        0.80796    0.75000    0.82760    1.000
    C31      C        0.67169    0.75000    0.70970    1.000
    C32      C        0.60046    0.75000    0.64000    1.000
