data_functionalizedCrystal
_audit_creation_method	'EQeq! by Chris Wilmer'
_symmetry_space_group_name_H-M	'P1'
_symmetry_Int_Tables_number	1
_symmetry_cell_setting	triclinic
loop_
_symmetry_equiv_pos_as_xyz
  x,y,z
_cell_length_a	6.796
_cell_length_b	10.214
_cell_length_c	18.41
_cell_angle_alpha	90
_cell_angle_beta	90
_cell_angle_gamma	90
loop_
_atom_site_label
_atom_site_type_symbol
_atom_site_fract_x
_atom_site_fract_y
_atom_site_fract_z
_atom_site_charge
Mof_V 	V 	0.8007	0.2677	0.25	1.84
Mof_V 	V 	0.6993	0.7677	0.75	1.84
Mof_V 	V 	0.1993	0.7323	0.75	1.84
Mof_V 	V 	0.3007	0.2323	0.25	1.84
Mof_H 	H 	0.2974	0.024	0.4421	0.054
Mof_H 	H 	0.7141	0.0599	0.4416	0.055
Mof_H 	H 	0.2026	0.524	0.5579	0.055
Mof_H 	H 	0.7859	0.5599	0.5584	0.057
Mof_H 	H 	0.7026	0.976	0.9421	0.055
Mof_H 	H 	0.2859	0.9401	0.9416	0.056
Mof_H 	H 	0.7974	0.476	0.0579	0.055
Mof_H 	H 	0.2141	0.4401	0.0584	0.057
Mof_H 	H 	0.7026	0.976	0.5579	0.055
Mof_H 	H 	0.2859	0.9401	0.5584	0.056
Mof_H 	H 	0.7974	0.476	0.4421	0.055
Mof_H 	H 	0.2141	0.4401	0.4416	0.057
Mof_H 	H 	0.2974	0.024	0.0579	0.055
Mof_H 	H 	0.7141	0.0599	0.0584	0.056
Mof_H 	H 	0.2026	0.524	0.9421	0.055
Mof_H 	H 	0.7859	0.5599	0.9416	0.057
Mof_C 	C 	0.0138	0.1084	0.3563	0.424
Mof_C 	C 	0.0072	0.0477	0.4303	-0.087
Mof_C 	C 	0.177	0.0139	0.4654	-0.009
Mof_C 	C 	0.83	0.0352	0.465	-0.007
Mof_C 	C 	0.4862	0.6084	0.6437	0.423
Mof_C 	C 	0.4928	0.5477	0.5697	-0.086
Mof_C 	C 	0.323	0.5139	0.5346	-0.008
Mof_C 	C 	0.67	0.5352	0.535	-0.009
Mof_C 	C 	0.9862	0.8916	0.8563	0.424
Mof_C 	C 	0.9928	0.9523	0.9303	-0.086
Mof_C 	C 	0.823	0.9861	0.9654	-0.009
Mof_C 	C 	0.17	0.9648	0.965	-0.008
Mof_C 	C 	0.5138	0.3916	0.1437	0.423
Mof_C 	C 	0.5072	0.4523	0.0697	-0.086
Mof_C 	C 	0.677	0.4861	0.0346	-0.008
Mof_C 	C 	0.33	0.4648	0.035	-0.009
Mof_C 	C 	0.9862	0.8916	0.6437	0.424
Mof_C 	C 	0.9928	0.9523	0.5697	-0.087
Mof_C 	C 	0.823	0.9861	0.5346	-0.009
Mof_C 	C 	0.17	0.9648	0.535	-0.007
Mof_C 	C 	0.5138	0.3916	0.3563	0.423
Mof_C 	C 	0.5072	0.4523	0.4303	-0.086
Mof_C 	C 	0.677	0.4861	0.4654	-0.008
Mof_C 	C 	0.33	0.4648	0.465	-0.009
Mof_C 	C 	0.0138	0.1084	0.1437	0.424
Mof_C 	C 	0.0072	0.0477	0.0697	-0.086
Mof_C 	C 	0.177	0.0139	0.0346	-0.009
Mof_C 	C 	0.83	0.0352	0.035	-0.008
Mof_C 	C 	0.4862	0.6084	0.8563	0.423
Mof_C 	C 	0.4928	0.5477	0.9303	-0.086
Mof_C 	C 	0.323	0.5139	0.9654	-0.008
Mof_C 	C 	0.67	0.5352	0.965	-0.009
Mof_O 	O 	0.8517	0.1397	0.3275	-0.5
Mof_O 	O 	0.1807	0.1242	0.3283	-0.507
Mof_O 	O 	0.6483	0.6397	0.6725	-0.5
Mof_O 	O 	0.3193	0.6242	0.6717	-0.507
Mof_O 	O 	0.1483	0.8603	0.8275	-0.5
Mof_O 	O 	0.8193	0.8758	0.8283	-0.507
Mof_O 	O 	0.3517	0.3603	0.1725	-0.5
Mof_O 	O 	0.6807	0.3758	0.1717	-0.507
Mof_O 	O 	0.1483	0.8603	0.6725	-0.5
Mof_O 	O 	0.8193	0.8758	0.6717	-0.507
Mof_O 	O 	0.3517	0.3603	0.3275	-0.5
Mof_O 	O 	0.6807	0.3758	0.3283	-0.507
Mof_O 	O 	0.8517	0.1397	0.1725	-0.5
Mof_O 	O 	0.1807	0.1242	0.1717	-0.507
Mof_O 	O 	0.6483	0.6397	0.8275	-0.5
Mof_O 	O 	0.3193	0.6242	0.8283	-0.507
Mof_O 	O 	0.016	0.3284	0.25	-0.689
Mof_O 	O 	0.484	0.8284	0.75	-0.69
Mof_O 	O 	0.984	0.6716	0.75	-0.689
Mof_O 	O 	0.516	0.1716	0.25	-0.69
_end
