data_functionalizedCrystal
_audit_creation_method	'EQeq! by Chris Wilmer'
_symmetry_space_group_name_H-M	'P1'
_symmetry_Int_Tables_number	1
_symmetry_cell_setting	triclinic
loop_
_symmetry_equiv_pos_as_xyz
  x,y,z
_cell_length_a	15.1394
_cell_length_b	16.567
_cell_length_c	17.868
_cell_angle_alpha	95.399
_cell_angle_beta	97.074
_cell_angle_gamma	102.332
loop_
_atom_site_label
_atom_site_type_symbol
_atom_site_fract_x
_atom_site_fract_y
_atom_site_fract_z
_atom_site_charge
Mof_Cd	Cd	0.31397	0.01764	0.36623	0.491
Mof_Cd	Cd	0.86837	0.63416	0.07436	0.504
Mof_C 	C 	0.5739	0.6868	0.1418	0.207
Mof_H 	H 	0.5777	0.6348	0.1557	-0.025
Mof_C 	C 	0.5138	0.3854	0.6152	0.296
Mof_C 	C 	0.7689	0.4773	0.7724	0.205
Mof_H 	H 	0.8262	0.4687	0.7654	-0.019
Mof_C 	C 	0.4949	0.7204	0.1529	-0.357
Mof_H 	H 	0.4462	0.6888	0.1721	0.162
Mof_C 	C 	0.6941	0.4571	0.7132	-0.312
Mof_H 	H 	0.7004	0.4297	0.667	0.157
Mof_C 	C 	0.5931	0.5013	0.7947	-0.355
Mof_H 	H 	0.5345	0.5039	0.8035	0.173
Mof_C 	C 	0.6132	0.4769	0.7223	0.321
Mof_C 	C 	0.4721	0.3881	0.541	-0.247
Mof_H 	H 	0.4674	0.4389	0.5248	0.139
Mof_C 	C 	0.5325	0.3111	0.6324	-0.278
Mof_H 	H 	0.5692	0.31	0.6778	0.136
Mof_C 	C 	0.492	0.7974	0.1356	0.409
Mof_C 	C 	0.6617	0.5195	0.8472	0.236
Mof_H 	H 	0.6526	0.5412	0.8948	-0.022
Mof_C 	C 	0.3002	0.7308	0.0796	-0.388
Mof_H 	H 	0.3393	0.7111	0.05	0.172
Mof_C 	C 	0.5589	0.8397	0.1043	-0.4
Mof_H 	H 	0.5563	0.8926	0.092	0.191
Mof_C 	C 	0.6422	0.7328	0.1106	-0.241
Mof_C 	C 	0.7524	0.5093	0.8388	-0.234
Mof_C 	C 	0.0796	0.5476	0.7185	0.18
Mof_H 	H 	0.0928	0.4993	0.6964	-0.01
Mof_C 	C 	0.8199	0.5305	0.9076	0.383
Mof_C 	C 	0.4375	0.314	0.4911	0.14
Mof_H 	H 	0.4057	0.3156	0.4435	0.01
Mof_C 	C 	0.0642	0.608	0.6744	-0.311
Mof_H 	H 	0.0652	0.5998	0.6223	0.15
Mof_C 	C 	0.21	0.6983	0.0653	0.262
Mof_H 	H 	0.1869	0.6537	0.0273	-0.041
Mof_C 	C 	0.0722	0.8018	0.5574	-0.326
Mof_H 	H 	0.01	0.7941	0.5404	0.165
Mof_C 	C 	0.0932	0.4915	0.8418	0.344
Mof_C 	C 	0.335	0.7947	0.1396	0.391
Mof_C 	C 	0.4978	0.2373	0.5833	0.152
Mof_H 	H 	0.5064	0.1869	0.5982	0.005
Mof_C 	C 	0.1867	0.7946	0.1658	0.256
Mof_H 	H 	0.1472	0.8161	0.1937	-0.023
Mof_C 	C 	0.7267	0.7003	0.0965	0.397
Mof_C 	C 	0.4505	0.2394	0.5123	-0.176
Mof_C 	C 	0.1517	0.7301	0.1059	-0.261
Mof_C 	C 	0.0754	0.5579	0.7956	-0.196
Mof_C 	C 	0.0474	0.6808	0.7073	0.328
Mof_C 	C 	0.0542	0.6976	0.0858	0.351
Mof_C 	C 	0.2766	0.8248	0.1825	-0.375
Mof_H 	H 	0.3	0.8663	0.2232	0.2
Mof_C 	C 	0.0437	0.6917	0.7854	-0.298
Mof_H 	H 	0.0328	0.7409	0.808	0.159
Mof_C 	C 	0.0999	0.7747	0.6222	0.333
Mof_C 	C 	0.6322	0.8079	0.0896	0.252
Mof_H 	H 	0.6762	0.8382	0.0647	-0.029
Mof_C 	C 	0.0562	0.6301	0.8285	0.178
Mof_H 	H 	0.0517	0.6366	0.8801	-0
Mof_C 	C 	0.1356	0.8413	0.5155	0.185
Mof_H 	H 	0.116	0.8604	0.4705	-0.009
Mof_C 	C 	0.6501	0.0451	0.1799	-0.306
Mof_H 	H 	0.6599	0.0748	0.1389	0.149
Mof_C 	C 	0.193	0.7853	0.6489	-0.313
Mof_H 	H 	0.2116	0.7658	0.694	0.15
Mof_C 	C 	0.9922	0.049	0.2984	0.229
Mof_H 	H 	0.0177	0.0841	0.3431	-0.028
Mof_C 	C 	0.6977	0.9559	0.2689	-0.297
Mof_H 	H 	0.7389	0.9252	0.2865	0.151
Mof_C 	C 	0.5738	0.0462	0.2155	0.167
Mof_H 	H 	0.5328	0.0772	0.1982	-0.006
Mof_C 	C 	0.2568	0.8249	0.6077	0.182
Mof_H 	H 	0.3188	0.8329	0.6253	-0.011
Mof_C 	C 	0.4068	0.1597	0.4621	0.364
Mof_C 	C 	0.2982	0.8969	0.4963	0.36
Mof_C 	C 	0.7115	0.9993	0.2059	0.322
Mof_C 	C 	0.2289	0.8525	0.5406	-0.201
Mof_C 	C 	0.0057	0.9485	0.1979	0.19
Mof_H 	H 	0.0403	0.9161	0.1747	-0.006
Mof_C 	C 	0.8665	0.9936	0.1999	0.348
Mof_C 	C 	0.6225	0.9593	0.3043	0.184
Mof_H 	H 	0.6149	0.9327	0.3474	-0.007
Mof_C 	C 	0.9162	0.9443	0.1649	-0.3
Mof_H 	H 	0.8906	0.909	0.1204	0.172
Mof_C 	C 	0.9026	0.0459	0.2664	-0.342
Mof_H 	H 	0.868	0.0784	0.2893	0.165
Mof_C 	C 	0.5578	0.0017	0.277	-0.194
Mof_C 	C 	0.0437	0.0001	0.2644	-0.227
Mof_C 	C 	0.474	0.0001	0.3118	0.337
Mof_C 	C 	0.1393	0.0037	0.301	0.353
Mof_O 	O 	0.555	0.4633	0.6489	-0.303
Mof_O 	O 	0.7333	0.6322	0.1209	-0.281
Mof_O 	O 	0.1023	0.4236	0.8098	-0.261
Mof_O 	O 	0.4241	0.8339	0.1576	-0.36
Mof_O 	O 	0.8032	0.58	0.9597	-0.279
Mof_O 	O 	0.9997	0.7279	0.1248	-0.258
Mof_O 	O 	0.0331	0.7422	0.665	-0.326
Mof_O 	O 	0.0196	0.6411	0.0303	-0.305
Mof_O 	O 	0.3678	0.1645	0.3971	-0.266
Mof_O 	O 	0.1019	0.5053	0.914	-0.285
Mof_O 	O 	0.1706	0.0524	0.3606	-0.269
Mof_O 	O 	0.7797	0.7378	0.0631	-0.305
Mof_O 	O 	0.2669	0.9188	0.4337	-0.283
Mof_O 	O 	0.8902	0.5022	0.907	-0.287
Mof_O 	O 	0.4065	0.0934	0.4871	-0.312
Mof_O 	O 	0.4613	0.9626	0.3696	-0.282
Mof_O 	O 	0.1866	0.962	0.2694	-0.269
Mof_O 	O 	0.4134	0.0337	0.281	-0.272
Mof_O 	O 	0.7802	0.992	0.1632	-0.321
Mof_O 	O 	0.3813	0.9083	0.5229	-0.288
Mof_Cd	Cd	0.68603	0.98236	0.63377	0.508
Mof_Cd	Cd	0.13163	0.36584	0.92564	0.516
Mof_C 	C 	0.4261	0.3132	0.8582	0.207
Mof_H 	H 	0.4223	0.3652	0.8443	-0.021
Mof_C 	C 	0.4862	0.6146	0.3848	0.297
Mof_C 	C 	0.2311	0.5227	0.2276	0.212
Mof_H 	H 	0.1738	0.5313	0.2346	-0.024
Mof_C 	C 	0.5051	0.2796	0.8471	-0.354
Mof_H 	H 	0.5538	0.3112	0.8279	0.162
Mof_C 	C 	0.3059	0.5429	0.2868	-0.318
Mof_H 	H 	0.2996	0.5703	0.333	0.158
Mof_C 	C 	0.4069	0.4987	0.2053	-0.363
Mof_H 	H 	0.4655	0.4961	0.1965	0.173
Mof_C 	C 	0.3868	0.5231	0.2777	0.324
Mof_C 	C 	0.5279	0.6119	0.459	-0.246
Mof_H 	H 	0.5326	0.5611	0.4752	0.139
Mof_C 	C 	0.4675	0.6889	0.3676	-0.277
Mof_H 	H 	0.4308	0.69	0.3222	0.136
Mof_C 	C 	0.508	0.2026	0.8644	0.408
Mof_C 	C 	0.3383	0.4805	0.1528	0.243
Mof_H 	H 	0.3474	0.4588	0.1052	-0.031
Mof_C 	C 	0.6998	0.2692	0.9204	-0.389
Mof_H 	H 	0.6607	0.2889	0.95	0.179
Mof_C 	C 	0.4411	0.1603	0.8957	-0.395
Mof_H 	H 	0.4437	0.1074	0.908	0.191
Mof_C 	C 	0.3578	0.2672	0.8894	-0.236
Mof_C 	C 	0.2476	0.4907	0.1612	-0.245
Mof_C 	C 	0.9204	0.4524	0.2815	0.184
Mof_H 	H 	0.9072	0.5007	0.3036	-0.009
Mof_C 	C 	0.1801	0.4695	0.0924	0.388
Mof_C 	C 	0.5625	0.686	0.5089	0.138
Mof_H 	H 	0.5943	0.6844	0.5565	0.012
Mof_C 	C 	0.9358	0.392	0.3256	-0.312
Mof_H 	H 	0.9348	0.4002	0.3777	0.154
Mof_C 	C 	0.79	0.3017	0.9347	0.268
Mof_H 	H 	0.8131	0.3463	0.9727	-0.034
Mof_C 	C 	0.9278	0.1982	0.4426	-0.326
Mof_H 	H 	0.99	0.2059	0.4596	0.171
Mof_C 	C 	0.9068	0.5085	0.1582	0.348
Mof_C 	C 	0.665	0.2053	0.8604	0.395
Mof_C 	C 	0.5022	0.7627	0.4167	0.15
Mof_H 	H 	0.4936	0.8131	0.4018	0.006
Mof_C 	C 	0.8133	0.2054	0.8342	0.262
Mof_H 	H 	0.8528	0.1839	0.8063	-0.023
Mof_C 	C 	0.2733	0.2997	0.9035	0.397
Mof_C 	C 	0.5495	0.7606	0.4877	-0.173
Mof_C 	C 	0.8483	0.2699	0.8941	-0.264
Mof_C 	C 	0.9246	0.4421	0.2044	-0.199
Mof_C 	C 	0.9526	0.3192	0.2927	0.331
Mof_C 	C 	0.9458	0.3024	0.9142	0.373
Mof_C 	C 	0.7234	0.1752	0.8175	-0.378
Mof_H 	H 	0.7	0.1337	0.7768	0.198
Mof_C 	C 	0.9563	0.3083	0.2146	-0.301
Mof_H 	H 	0.9672	0.2591	0.192	0.158
Mof_C 	C 	0.9001	0.2253	0.3778	0.334
Mof_C 	C 	0.3678	0.1921	0.9104	0.25
Mof_H 	H 	0.3238	0.1618	0.9353	-0.025
Mof_C 	C 	0.9438	0.3699	0.1715	0.182
Mof_H 	H 	0.9483	0.3634	0.1199	-0.007
Mof_C 	C 	0.8644	0.1587	0.4845	0.187
Mof_H 	H 	0.884	0.1396	0.5295	-0.009
Mof_C 	C 	0.3499	0.9549	0.8201	-0.241
Mof_H 	H 	0.3401	0.9252	0.8611	0.136
Mof_C 	C 	0.807	0.2147	0.3511	-0.316
Mof_H 	H 	0.7884	0.2342	0.306	0.149
Mof_C 	C 	0.0078	0.951	0.7016	0.093
Mof_H 	H 	0.9823	0.9159	0.6569	0.035
Mof_C 	C 	0.3023	0.0441	0.7311	-0.248
Mof_H 	H 	0.2611	0.0748	0.7135	0.131
Mof_C 	C 	0.4262	0.9538	0.7845	0.124
Mof_H 	H 	0.4672	0.9228	0.8018	0.014
Mof_C 	C 	0.7432	0.1751	0.3923	0.182
Mof_H 	H 	0.6812	0.1671	0.3747	-0.013
Mof_C 	C 	0.5932	0.8403	0.5379	0.362
Mof_C 	C 	0.7018	0.1031	0.5037	0.361
Mof_C 	C 	0.2885	0.0007	0.7941	0.265
Mof_C 	C 	0.7711	0.1475	0.4594	-0.204
Mof_C 	C 	0.9943	0.0515	0.8021	0.132
Mof_H 	H 	0.9597	0.0839	0.8253	0.018
Mof_C 	C 	0.1335	0.0064	0.8001	0.277
Mof_C 	C 	0.3775	0.0407	0.6957	0.121
Mof_H 	H 	0.3851	0.0673	0.6526	0.011
Mof_C 	C 	0.0838	0.0557	0.8351	-0.259
Mof_H 	H 	0.1094	0.091	0.8796	0.156
Mof_C 	C 	0.0974	0.9541	0.7336	-0.232
Mof_H 	H 	0.132	0.9216	0.7107	0.13
Mof_C 	C 	0.4422	0.9983	0.723	-0.145
Mof_C 	C 	0.9563	0.9999	0.7356	-0.13
Mof_C 	C 	0.526	0.9999	0.6882	0.341
Mof_C 	C 	0.8607	0.9963	0.699	0.345
Mof_O 	O 	0.445	0.5367	0.3511	-0.305
Mof_O 	O 	0.2667	0.3678	0.8791	-0.276
Mof_O 	O 	0.8977	0.5764	0.1902	-0.258
Mof_O 	O 	0.5759	0.1661	0.8424	-0.361
Mof_O 	O 	0.1968	0.42	0.0403	-0.304
Mof_O 	O 	0.0003	0.2721	0.8752	-0.278
Mof_O 	O 	0.9669	0.2578	0.335	-0.323
Mof_O 	O 	0.9804	0.3589	0.9697	-0.287
Mof_O 	O 	0.6322	0.8355	0.6029	-0.263
Mof_O 	O 	0.8981	0.4947	0.086	-0.295
Mof_O 	O 	0.8294	0.9476	0.6394	-0.26
Mof_O 	O 	0.2203	0.2622	0.9369	-0.299
Mof_O 	O 	0.7331	0.0812	0.5663	-0.29
Mof_O 	O 	0.1098	0.4978	0.093	-0.304
Mof_O 	O 	0.5935	0.9066	0.5129	-0.307
Mof_O 	O 	0.5387	0.0374	0.6304	-0.297
Mof_O 	O 	0.8134	0.038	0.7306	-0.278
Mof_O 	O 	0.5866	0.9663	0.719	-0.266
Mof_O 	O 	0.2198	0.008	0.8368	-0.295
Mof_O 	O 	0.6187	0.0917	0.4771	-0.293
Mof_Cd	Cd	0.5	1.31851e-17	0.5	0.51
Mof_Cd	Cd	1.31851e-17	0.5	-0	0.494
_end
