data_functionalizedCrystal
_audit_creation_method	'EQeq! by Chris Wilmer'
_symmetry_space_group_name_H-M	'P1'
_symmetry_Int_Tables_number	1
_symmetry_cell_setting	triclinic
loop_
_symmetry_equiv_pos_as_xyz
  x,y,z
_cell_length_a	13.5105
_cell_length_b	13.5105
_cell_length_c	8.0463
_cell_angle_alpha	90
_cell_angle_beta	90
_cell_angle_gamma	120
loop_
_atom_site_label
_atom_site_type_symbol
_atom_site_fract_x
_atom_site_fract_y
_atom_site_fract_z
_atom_site_charge
Mof_Mn	Mn	0.30249	0.33811	0.95433	0.708
Mof_O 	O 	0.22935	0.18085	0.0935	-0.302
Mof_C 	C 	0.53506	0.32246	0.9512	-0.205
Mof_C 	C 	0.3541	0.5599	0.7237	-0.148
Mof_O 	O 	0.24407	0.0572	0.2541	-0.333
Mof_C 	C 	0.2669	0.1574	0.2199	0.344
Mof_N 	N 	0.3466	0.208	0.5002	-0.274
Mof_H 	H 	0.2861	0.1978	0.5606	0.141
Mof_H 	H 	0.411	0.256	0.5554	0.102
Mof_C 	C 	0.3455	0.2542	0.3361	-0.106
Mof_H 	H 	0.423	0.2864	0.2912	0.054
Mof_N 	N 	0.3668	0.42757	0.198	-0.284
Mof_H 	H 	0.4435	0.4604	0.1998	0.117
Mof_H 	H 	0.3496	0.4837	0.2056	0.11
Mof_C 	C 	0.3197	0.3524	0.3445	-0.015
Mof_H 	H 	0.2377	0.3215	0.3492	0.043
Mof_H 	H 	0.3529	0.3966	0.4449	0.026
Mof_N 	N 	0.4559	0.3208	0.8939	-0.138
Mof_N 	N 	0.3684	0.5	0.81	-0.157
Mof_Mn	Mn	0.66189	0.96438	0.95433	0.713
Mof_O 	O 	0.81915	0.0485	0.0935	-0.308
Mof_C 	C 	0.67754	0.2126	0.9512	-0.205
Mof_C 	C 	0.4401	0.7942	0.7237	-0.148
Mof_O 	O 	0.9428	0.18687	0.2541	-0.336
Mof_C 	C 	0.8426	0.1095	0.2199	0.347
Mof_N 	N 	0.792	0.1386	0.5002	-0.273
Mof_H 	H 	0.8022	0.0883	0.5606	0.139
Mof_H 	H 	0.744	0.155	0.5554	0.101
Mof_C 	C 	0.7458	0.0913	0.3361	-0.114
Mof_H 	H 	0.7136	0.1366	0.2912	0.056
Mof_N 	N 	0.57243	0.93923	0.198	-0.285
Mof_H 	H 	0.5396	0.9831	0.1998	0.119
Mof_H 	H 	0.5163	0.8659	0.2056	0.111
Mof_C 	C 	0.6476	0.9673	0.3445	-0.006
Mof_H 	H 	0.6785	0.9162	0.3492	0.041
Mof_H 	H 	0.6034	0.9563	0.4449	0.024
Mof_N 	N 	0.6792	0.1351	0.8939	-0.139
Mof_N 	N 	0.5	0.8684	0.81	-0.157
Mof_Mn	Mn	0.03562	0.69751	0.95433	0.711
Mof_O 	O 	0.9515	0.77065	0.0935	-0.304
Mof_C 	C 	0.7874	0.46494	0.9512	-0.205
Mof_C 	C 	0.2058	0.6459	0.7237	-0.147
Mof_O 	O 	0.81313	0.75593	0.2541	-0.332
Mof_C 	C 	0.8905	0.7331	0.2199	0.346
Mof_N 	N 	0.8614	0.6534	0.5002	-0.273
Mof_H 	H 	0.9117	0.7139	0.5606	0.14
Mof_H 	H 	0.845	0.589	0.5554	0.101
Mof_C 	C 	0.9087	0.6545	0.3361	-0.113
Mof_H 	H 	0.8634	0.577	0.2912	0.055
Mof_N 	N 	0.06077	0.6332	0.198	-0.285
Mof_H 	H 	0.0169	0.5565	0.1998	0.119
Mof_H 	H 	0.1341	0.6504	0.2056	0.111
Mof_C 	C 	0.0327	0.6803	0.3445	-0.007
Mof_H 	H 	0.0838	0.7623	0.3492	0.041
Mof_H 	H 	0.0437	0.6471	0.4449	0.024
Mof_N 	N 	0.8649	0.5441	0.8939	-0.139
Mof_N 	N 	0.1316	0.6316	0.81	-0.157
Mof_Mn	Mn	0.69751	0.66189	0.45433	0.792
Mof_O 	O 	0.77065	0.81915	0.5935	-0.343
Mof_C 	C 	0.46494	0.67754	0.4512	-0.143
Mof_C 	C 	0.6459	0.4401	0.2237	-0.138
Mof_O 	O 	0.75593	0.9428	0.7541	-0.347
Mof_C 	C 	0.7331	0.8426	0.7199	0.356
Mof_N 	N 	0.6534	0.792	0.0002	-0.237
Mof_H 	H 	0.7139	0.8022	0.0606	0.151
Mof_H 	H 	0.589	0.744	0.0554	0.114
Mof_C 	C 	0.6545	0.7458	0.8361	-0.164
Mof_H 	H 	0.577	0.7136	0.7912	0.059
Mof_N 	N 	0.6332	0.57243	0.698	-0.298
Mof_H 	H 	0.5565	0.5396	0.6998	0.105
Mof_H 	H 	0.6504	0.5163	0.7056	0.102
Mof_C 	C 	0.6803	0.6476	0.8445	0.014
Mof_H 	H 	0.7623	0.6785	0.8492	0.021
Mof_H 	H 	0.6471	0.6034	0.9449	-0.002
Mof_N 	N 	0.5441	0.6792	0.3939	-0.146
Mof_N 	N 	0.6316	0.5	0.31	-0.149
Mof_Mn	Mn	0.33811	0.03562	0.45433	0.786
Mof_O 	O 	0.18085	0.9515	0.5935	-0.339
Mof_C 	C 	0.32246	0.7874	0.4512	-0.143
Mof_C 	C 	0.5599	0.2058	0.2237	-0.139
Mof_O 	O 	0.0572	0.81313	0.7541	-0.346
Mof_C 	C 	0.1574	0.8905	0.7199	0.355
Mof_N 	N 	0.208	0.8614	0.0002	-0.237
Mof_H 	H 	0.1978	0.9117	0.0606	0.154
Mof_H 	H 	0.256	0.845	0.0554	0.115
Mof_C 	C 	0.2542	0.9087	0.8361	-0.161
Mof_H 	H 	0.2864	0.8634	0.7912	0.059
Mof_N 	N 	0.42757	0.06077	0.698	-0.297
Mof_H 	H 	0.4604	0.0169	0.6998	0.103
Mof_H 	H 	0.4837	0.1341	0.7056	0.102
Mof_C 	C 	0.3524	0.0327	0.8445	0.009
Mof_H 	H 	0.3215	0.0838	0.8492	0.022
Mof_H 	H 	0.3966	0.0437	0.9449	-0.001
Mof_N 	N 	0.3208	0.8649	0.3939	-0.144
Mof_N 	N 	0.5	0.1316	0.31	-0.15
Mof_Mn	Mn	0.96438	0.30249	0.45433	0.785
Mof_O 	O 	0.0485	0.22935	0.5935	-0.34
Mof_C 	C 	0.2126	0.53506	0.4512	-0.143
Mof_C 	C 	0.7942	0.3541	0.2237	-0.139
Mof_O 	O 	0.18687	0.24407	0.7541	-0.348
Mof_C 	C 	0.1095	0.2669	0.7199	0.355
Mof_N 	N 	0.1386	0.3466	0.0002	-0.238
Mof_H 	H 	0.0883	0.2861	0.0606	0.153
Mof_H 	H 	0.155	0.411	0.0554	0.115
Mof_C 	C 	0.0913	0.3455	0.8361	-0.16
Mof_H 	H 	0.1366	0.423	0.7912	0.058
Mof_N 	N 	0.93923	0.3668	0.698	-0.297
Mof_H 	H 	0.9831	0.4435	0.6998	0.103
Mof_H 	H 	0.8659	0.3496	0.7056	0.102
Mof_C 	C 	0.9673	0.3197	0.8445	0.008
Mof_H 	H 	0.9162	0.2377	0.8492	0.023
Mof_H 	H 	0.9563	0.3529	0.9449	-0
Mof_N 	N 	0.1351	0.4559	0.3939	-0.144
Mof_N 	N 	0.8684	0.3684	0.31	-0.15
Mof_Mn	Mn	0.33333	0.66667	0.57877	0.794
Mof_Mn	Mn	0.66667	0.33333	0.07877	0.919
_end
