data_functionalizedCrystal
_audit_creation_method	'EQeq! by Chris Wilmer'
_symmetry_space_group_name_H-M	'P1'
_symmetry_Int_Tables_number	1
_symmetry_cell_setting	triclinic
loop_
_symmetry_equiv_pos_as_xyz
  x,y,z
_cell_length_a	9.732
_cell_length_b	10.596
_cell_length_c	12.592
_cell_angle_alpha	111.37
_cell_angle_beta	106.05
_cell_angle_gamma	96.36
loop_
_atom_site_label
_atom_site_type_symbol
_atom_site_fract_x
_atom_site_fract_y
_atom_site_fract_z
_atom_site_charge
Mof_Cu	Cu	0.64387	0.99288	0.59566	0.909
Mof_Cu	Cu	0.93302	0.10931	0.58779	0.924
Mof_Cu	Cu	0.75785	0.79397	0.41454	0.924
Mof_Cu	Cu	0.34029	0.8934	0.60589	0.936
Mof_Cu	Cu	0.35613	0.00712	0.40434	0.908
Mof_Cu	Cu	0.06698	0.89069	0.41221	0.923
Mof_Cu	Cu	0.24215	0.20603	0.58546	0.924
Mof_Cu	Cu	0.65971	0.1066	0.39411	0.936
Mof_H 	H 	0.64	0.487	0.0433	0.109
Mof_H 	H 	0.5974	0.6006	0.9973	0.097
Mof_H 	H 	0.1241	0.4419	0.4983	0.113
Mof_H 	H 	0.9946	0.4179	0.3808	0.106
Mof_H 	H 	0.3658	0.0096	0.0171	0.101
Mof_H 	H 	0.4801	0.1349	0.0298	0.1
Mof_H 	H 	0.3794	0.5601	0.4972	0.107
Mof_H 	H 	0.5086	0.5894	0.6159	0.116
Mof_H 	H 	0.8489	0.891	0.6293	0.245
Mof_H 	H 	0.1655	0.0477	0.6753	0.243
Mof_H 	H 	0.7012	0.1973	0.5982	0.481
Mof_H 	H 	0.4846	0.1271	0.6688	0.356
Mof_H 	H 	0.36	0.513	0.9567	0.109
Mof_H 	H 	0.4026	0.3994	0.0027	0.097
Mof_H 	H 	0.8759	0.5581	0.5017	0.113
Mof_H 	H 	0.0054	0.5821	0.6192	0.106
Mof_H 	H 	0.6342	0.9904	0.9829	0.101
Mof_H 	H 	0.5199	0.8651	0.9702	0.1
Mof_H 	H 	0.6206	0.4399	0.5028	0.107
Mof_H 	H 	0.4914	0.4106	0.3841	0.116
Mof_H 	H 	0.1511	0.109	0.3707	0.245
Mof_H 	H 	0.8345	0.9523	0.3247	0.243
Mof_H 	H 	0.2988	0.8027	0.4018	0.481
Mof_H 	H 	0.5154	0.8729	0.3312	0.356
Mof_C 	C 	0.5841	0.6419	0.1651	0.361
Mof_C 	C 	0.5696	0.5444	0.0373	-0.215
Mof_C 	C 	0.9354	0.3099	0.4743	0.394
Mof_C 	C 	0.0192	0.4333	0.4653	-0.242
Mof_C 	C 	0.3656	0.0032	0.8533	0.373
Mof_C 	C 	0.4403	0.0349	0.986	-0.213
Mof_C 	C 	0.5655	0.6883	0.5177	0.393
Mof_C 	C 	0.4842	0.5681	0.5302	-0.246
Mof_C 	C 	0.4159	0.3581	0.8349	0.361
Mof_C 	C 	0.4304	0.4556	0.9627	-0.215
Mof_C 	C 	0.0646	0.6901	0.5257	0.394
Mof_C 	C 	0.9808	0.5667	0.5347	-0.242
Mof_C 	C 	0.6344	0.9968	0.1467	0.373
Mof_C 	C 	0.5597	0.9651	0.014	-0.213
Mof_C 	C 	0.4345	0.3117	0.4823	0.393
Mof_C 	C 	0.5158	0.4319	0.4698	-0.246
Mof_O 	O 	0.7035	0.6581	0.2469	-0.402
Mof_O 	O 	0.4822	0.6995	0.1815	-0.344
Mof_O 	O 	0.0052	0.2628	0.5453	-0.47
Mof_O 	O 	0.8007	0.2661	0.4111	-0.417
Mof_O 	O 	0.2474	0.037	0.8248	-0.339
Mof_O 	O 	0.4272	0.9426	0.7795	-0.407
Mof_O 	O 	0.6434	0.6638	0.4516	-0.434
Mof_O 	O 	0.5464	0.8066	0.5753	-0.499
Mof_O 	O 	0.8252	0.9358	0.584	-0.707
Mof_O 	O 	0.1254	0.0688	0.6133	-0.663
Mof_O 	O 	0.7402	0.1508	0.5695	-0.979
Mof_O 	O 	0.4684	0.0545	0.6153	-0.81
Mof_O 	O 	0.2965	0.3419	0.7531	-0.402
Mof_O 	O 	0.5178	0.3005	0.8185	-0.344
Mof_O 	O 	0.9948	0.7372	0.4547	-0.47
Mof_O 	O 	0.1993	0.7339	0.5889	-0.417
Mof_O 	O 	0.7526	0.963	0.1752	-0.339
Mof_O 	O 	0.5728	0.0574	0.2205	-0.407
Mof_O 	O 	0.3566	0.3362	0.5484	-0.434
Mof_O 	O 	0.4536	0.1934	0.4247	-0.499
Mof_O 	O 	0.1748	0.0642	0.416	-0.707
Mof_O 	O 	0.8746	0.9312	0.3867	-0.663
Mof_O 	O 	0.2598	0.8492	0.4305	-0.979
Mof_O 	O 	0.5316	0.9455	0.3847	-0.81
_end
