data_functionalizedCrystal
_audit_creation_method	'EQeq! by Chris Wilmer'
_symmetry_space_group_name_H-M	'P1'
_symmetry_Int_Tables_number	1
_symmetry_cell_setting	triclinic
loop_
_symmetry_equiv_pos_as_xyz
  x,y,z
_cell_length_a	22.2055
_cell_length_b	22.2055
_cell_length_c	33.1729
_cell_angle_alpha	90
_cell_angle_beta	90
_cell_angle_gamma	120
loop_
_atom_site_label
_atom_site_type_symbol
_atom_site_fract_x
_atom_site_fract_y
_atom_site_fract_z
_atom_site_charge
Mof_O 	O 	0.4531	0.7762	0.63026	-0.442
Mof_C 	C 	0.5758	0.5782	0.358	1.324
Mof_H 	H 	0.5445	0.5303	0.363	-0.419
Mof_C 	C 	0.6334	0.6004	0.3334	-1.061
Mof_C 	C 	0.6004	0.7483	0.3908	0.64
Mof_C 	C 	0.6153	0.6991	0.3694	-0.942
Mof_C 	C 	0.5726	0.7333	0.4296	0.095
Mof_H 	H 	0.567	0.6931	0.4432	-0.056
Mof_C 	C 	0.6791	0.6691	0.3245	0.582
Mof_H 	H 	0.716	0.6809	0.306	-0.033
Mof_C 	C 	0.6712	0.7214	0.3426	0.515
Mof_H 	H 	0.702	0.7692	0.3371	-0.071
Mof_C 	C 	0.5664	0.6299	0.3748	-0.982
Mof_H 	H 	0.5259	0.6176	0.3902	0.296
Mof_C 	C 	0.5149	0.7044	0.5106	0.143
Mof_H 	H 	0.5203	0.6699	0.4967	-0.038
Mof_C 	C 	0.4928	0.6932	0.55	0.109
Mof_H 	H 	0.4849	0.6521	0.5634	-0.089
Mof_O 	O 	0.5914	0.4811	0.3186	-0.3
Mof_C 	C 	0.6363	0.5413	0.3132	0.813
Mof_O 	O 	0.69	0.5546	0.2955	-0.436
Mof_C 	C 	0.5215	0.8129	0.5561	-0.122
Mof_H 	H 	0.5116	0.8455	0.5686	0.132
Mof_C 	C 	0.5521	0.8284	0.5183	-0.209
Mof_H 	H 	0.5636	0.8716	0.5062	0.085
Mof_O 	O 	0.6417	0.508	0.3035	-0.554
Mof_C 	C 	0.6865	0.5677	0.3082	0.238
Mof_O 	O 	0.748	0.5884	0.2982	-0.265
Mof_C 	C 	0.6762	0.6175	0.3338	0.862
Mof_C 	C 	0.6209	0.5913	0.3599	-0.83
Mof_H 	H 	0.5925	0.5425	0.3635	0.155
Mof_C 	C 	0.6072	0.6365	0.3808	0.499
Mof_H 	H 	0.5677	0.6179	0.398	0.113
Mof_C 	C 	0.7073	0.7335	0.3525	-0.775
Mof_H 	H 	0.7384	0.7821	0.3501	0.293
Mof_C 	C 	0.7198	0.6881	0.3312	-0.822
Mof_H 	H 	0.7595	0.7057	0.3142	0.288
Mof_C 	C 	0.6493	0.7092	0.3777	0.909
Mof_C 	C 	0.6348	0.7623	0.3977	-0.515
Mof_C 	C 	0.6082	0.7493	0.4366	-0.243
Mof_H 	H 	0.5989	0.7077	0.4499	0.119
Mof_O 	O 	0.2238	0.6769	0.63026	-0.443
Mof_C 	C 	0.4218	0.9976	0.358	1.312
Mof_H 	H 	0.4697	0.0142	0.363	-0.417
Mof_C 	C 	0.3996	0.033	0.3334	-1.037
Mof_C 	C 	0.2517	0.8521	0.3908	0.64
Mof_C 	C 	0.3009	0.9162	0.3694	-0.944
Mof_C 	C 	0.2667	0.8393	0.4296	0.095
Mof_H 	H 	0.3069	0.8739	0.4432	-0.057
Mof_C 	C 	0.3309	0.01	0.3245	0.581
Mof_H 	H 	0.3191	0.0351	0.306	-0.035
Mof_C 	C 	0.2786	0.9498	0.3426	0.499
Mof_H 	H 	0.2308	0.9328	0.3371	-0.068
Mof_C 	C 	0.3701	0.9365	0.3748	-0.978
Mof_H 	H 	0.3824	0.9083	0.3902	0.294
Mof_C 	C 	0.2956	0.8105	0.5106	0.142
Mof_H 	H 	0.3301	0.8504	0.4967	-0.039
Mof_C 	C 	0.3068	0.7996	0.55	0.108
Mof_H 	H 	0.3479	0.8328	0.5634	-0.09
Mof_O 	O 	0.5189	0.1103	0.3186	-0.301
Mof_C 	C 	0.4587	0.095	0.3132	0.812
Mof_O 	O 	0.4454	0.1354	0.2955	-0.427
Mof_C 	C 	0.1871	0.7086	0.5561	-0.123
Mof_H 	H 	0.1545	0.6661	0.5686	0.131
Mof_C 	C 	0.1716	0.7237	0.5183	-0.21
Mof_H 	H 	0.1284	0.692	0.5062	0.084
Mof_O 	O 	0.492	0.1337	0.3035	-0.557
Mof_C 	C 	0.4323	0.1188	0.3082	0.229
Mof_O 	O 	0.4116	0.1596	0.2982	-0.266
Mof_C 	C 	0.3825	0.0587	0.3338	0.846
Mof_C 	C 	0.4087	0.0296	0.3599	-0.838
Mof_H 	H 	0.4575	0.05	0.3635	0.158
Mof_C 	C 	0.3635	0.9707	0.3808	0.502
Mof_H 	H 	0.3821	0.9498	0.398	0.111
Mof_C 	C 	0.2665	0.9738	0.3525	-0.763
Mof_H 	H 	0.2179	0.9563	0.3501	0.288
Mof_C 	C 	0.3119	0.0317	0.3312	-0.816
Mof_H 	H 	0.2943	0.0538	0.3142	0.286
Mof_C 	C 	0.2908	0.9401	0.3777	0.911
Mof_C 	C 	0.2377	0.8725	0.3977	-0.516
Mof_C 	C 	0.2507	0.8589	0.4366	-0.244
Mof_H 	H 	0.2923	0.8912	0.4499	0.12
Mof_O 	O 	0.3231	0.5469	0.63026	-0.443
Mof_C 	C 	0.0024	0.4242	0.358	1.311
Mof_H 	H 	0.9858	0.4555	0.363	-0.417
Mof_C 	C 	0.967	0.3666	0.3334	-1.036
Mof_C 	C 	0.1479	0.3996	0.3908	0.64
Mof_C 	C 	0.0838	0.3847	0.3694	-0.944
Mof_C 	C 	0.1607	0.4274	0.4296	0.095
Mof_H 	H 	0.1261	0.433	0.4432	-0.057
Mof_C 	C 	0.99	0.3209	0.3245	0.581
Mof_H 	H 	0.9649	0.284	0.306	-0.035
Mof_C 	C 	0.0502	0.3288	0.3426	0.498
Mof_H 	H 	0.0672	0.298	0.3371	-0.068
Mof_C 	C 	0.0635	0.4336	0.3748	-0.977
Mof_H 	H 	0.0917	0.4741	0.3902	0.294
Mof_C 	C 	0.1895	0.4851	0.5106	0.142
Mof_H 	H 	0.1496	0.4797	0.4967	-0.039
Mof_C 	C 	0.2004	0.5072	0.55	0.108
Mof_H 	H 	0.1672	0.5151	0.5634	-0.09
Mof_O 	O 	0.8897	0.4086	0.3186	-0.301
Mof_C 	C 	0.905	0.3637	0.3132	0.812
Mof_O 	O 	0.8646	0.31	0.2955	-0.427
Mof_C 	C 	0.2914	0.4785	0.5561	-0.123
Mof_H 	H 	0.3339	0.4884	0.5686	0.131
Mof_C 	C 	0.2763	0.4479	0.5183	-0.21
Mof_H 	H 	0.308	0.4364	0.5062	0.083
Mof_O 	O 	0.8663	0.3583	0.3035	-0.557
Mof_C 	C 	0.8812	0.3135	0.3082	0.228
Mof_O 	O 	0.8404	0.252	0.2982	-0.265
Mof_C 	C 	0.9413	0.3238	0.3338	0.844
Mof_C 	C 	0.9704	0.3791	0.3599	-0.838
Mof_H 	H 	0.95	0.4075	0.3635	0.158
Mof_C 	C 	0.0293	0.3928	0.3808	0.502
Mof_H 	H 	0.0502	0.4323	0.398	0.111
Mof_C 	C 	0.0262	0.2927	0.3525	-0.763
Mof_H 	H 	0.0437	0.2616	0.3501	0.288
Mof_C 	C 	0.9683	0.2802	0.3312	-0.815
Mof_H 	H 	0.9462	0.2405	0.3142	0.286
Mof_C 	C 	0.0599	0.3507	0.3777	0.911
Mof_C 	C 	0.1275	0.3652	0.3977	-0.517
Mof_C 	C 	0.1411	0.3918	0.4366	-0.244
Mof_H 	H 	0.1088	0.4011	0.4499	0.12
Mof_O 	O 	0.5469	0.2238	0.13026	-0.443
Mof_C 	C 	0.4242	0.4218	0.858	1.323
Mof_H 	H 	0.4555	0.4697	0.863	-0.42
Mof_C 	C 	0.3666	0.3996	0.8334	-1.063
Mof_C 	C 	0.3996	0.2517	0.8908	0.639
Mof_C 	C 	0.3847	0.3009	0.8694	-0.943
Mof_C 	C 	0.4274	0.2667	0.9296	0.092
Mof_H 	H 	0.433	0.3069	0.9432	-0.056
Mof_C 	C 	0.3209	0.3309	0.8245	0.581
Mof_H 	H 	0.284	0.3191	0.806	-0.034
Mof_C 	C 	0.3288	0.2786	0.8426	0.515
Mof_H 	H 	0.298	0.2308	0.8371	-0.073
Mof_C 	C 	0.4336	0.3701	0.8748	-0.983
Mof_H 	H 	0.4741	0.3824	0.8902	0.295
Mof_C 	C 	0.4851	0.2956	0.0106	0.148
Mof_H 	H 	0.4797	0.3301	0.9967	-0.043
Mof_C 	C 	0.5072	0.3068	0.05	0.109
Mof_H 	H 	0.5151	0.3479	0.0634	-0.092
Mof_O 	O 	0.4086	0.5189	0.8186	-0.301
Mof_C 	C 	0.3637	0.4587	0.8132	0.812
Mof_O 	O 	0.31	0.4454	0.7955	-0.437
Mof_C 	C 	0.4785	0.1871	0.0561	-0.121
Mof_H 	H 	0.4884	0.1545	0.0686	0.13
Mof_C 	C 	0.4479	0.1716	0.0183	-0.203
Mof_H 	H 	0.4364	0.1284	0.0062	0.083
Mof_O 	O 	0.3583	0.492	0.8035	-0.555
Mof_C 	C 	0.3135	0.4323	0.8082	0.238
Mof_O 	O 	0.252	0.4116	0.7982	-0.265
Mof_C 	C 	0.3238	0.3825	0.8338	0.863
Mof_C 	C 	0.3791	0.4087	0.8599	-0.83
Mof_H 	H 	0.4075	0.4575	0.8635	0.155
Mof_C 	C 	0.3928	0.3635	0.8808	0.499
Mof_H 	H 	0.4323	0.3821	0.898	0.113
Mof_C 	C 	0.2927	0.2665	0.8525	-0.775
Mof_H 	H 	0.2616	0.2179	0.8501	0.294
Mof_C 	C 	0.2802	0.3119	0.8312	-0.823
Mof_H 	H 	0.2405	0.2943	0.8142	0.288
Mof_C 	C 	0.3507	0.2908	0.8777	0.909
Mof_C 	C 	0.3652	0.2377	0.8977	-0.515
Mof_C 	C 	0.3918	0.2507	0.9366	-0.242
Mof_H 	H 	0.4011	0.2923	0.9499	0.118
Mof_O 	O 	0.7762	0.3231	0.13026	-0.443
Mof_C 	C 	0.5782	0.0024	0.858	1.301
Mof_H 	H 	0.5303	0.9858	0.863	-0.414
Mof_C 	C 	0.6004	0.967	0.8334	-1.011
Mof_C 	C 	0.7483	0.1479	0.8908	0.643
Mof_C 	C 	0.6991	0.0838	0.8694	-0.945
Mof_C 	C 	0.7333	0.1607	0.9296	0.093
Mof_H 	H 	0.6931	0.1261	0.9432	-0.056
Mof_C 	C 	0.6691	0.99	0.8245	0.58
Mof_H 	H 	0.6809	0.9649	0.806	-0.035
Mof_C 	C 	0.7214	0.0502	0.8426	0.482
Mof_H 	H 	0.7692	0.0672	0.8371	-0.064
Mof_C 	C 	0.6299	0.0635	0.8748	-0.972
Mof_H 	H 	0.6176	0.0917	0.8902	0.292
Mof_C 	C 	0.7044	0.1895	0.0106	0.146
Mof_H 	H 	0.6699	0.1496	0.9967	-0.044
Mof_C 	C 	0.6932	0.2004	0.05	0.107
Mof_H 	H 	0.6521	0.1672	0.0634	-0.091
Mof_O 	O 	0.4811	0.8897	0.8186	-0.301
Mof_C 	C 	0.5413	0.905	0.8132	0.812
Mof_O 	O 	0.5546	0.8646	0.7955	-0.417
Mof_C 	C 	0.8129	0.2914	0.0561	-0.125
Mof_H 	H 	0.8455	0.3339	0.0686	0.133
Mof_C 	C 	0.8284	0.2763	0.0183	-0.207
Mof_H 	H 	0.8716	0.308	0.0062	0.085
Mof_O 	O 	0.508	0.8663	0.8035	-0.558
Mof_C 	C 	0.5677	0.8812	0.8082	0.219
Mof_O 	O 	0.5884	0.8404	0.7982	-0.266
Mof_C 	C 	0.6175	0.9413	0.8338	0.828
Mof_C 	C 	0.5913	0.9704	0.8599	-0.847
Mof_H 	H 	0.5425	0.95	0.8635	0.162
Mof_C 	C 	0.6365	0.0293	0.8808	0.504
Mof_H 	H 	0.6179	0.0502	0.898	0.108
Mof_C 	C 	0.7335	0.0262	0.8525	-0.75
Mof_H 	H 	0.7821	0.0437	0.8501	0.282
Mof_C 	C 	0.6881	0.9683	0.8312	-0.81
Mof_H 	H 	0.7057	0.9462	0.8142	0.285
Mof_C 	C 	0.7092	0.0599	0.8777	0.914
Mof_C 	C 	0.7623	0.1275	0.8977	-0.52
Mof_C 	C 	0.7493	0.1411	0.9366	-0.244
Mof_H 	H 	0.7077	0.1088	0.9499	0.119
Mof_O 	O 	0.6769	0.4531	0.13026	-0.443
Mof_C 	C 	0.9976	0.5758	0.858	1.301
Mof_H 	H 	0.0142	0.5445	0.863	-0.414
Mof_C 	C 	0.033	0.6334	0.8334	-1.01
Mof_C 	C 	0.8521	0.6004	0.8908	0.644
Mof_C 	C 	0.9162	0.6153	0.8694	-0.945
Mof_C 	C 	0.8393	0.5726	0.9296	0.095
Mof_H 	H 	0.8739	0.567	0.9432	-0.057
Mof_C 	C 	0.01	0.6791	0.8245	0.58
Mof_H 	H 	0.0351	0.716	0.806	-0.035
Mof_C 	C 	0.9498	0.6712	0.8426	0.481
Mof_H 	H 	0.9328	0.702	0.8371	-0.063
Mof_C 	C 	0.9365	0.5664	0.8748	-0.972
Mof_H 	H 	0.9083	0.5259	0.8902	0.292
Mof_C 	C 	0.8105	0.5149	0.0106	0.139
Mof_H 	H 	0.8504	0.5203	0.9967	-0.04
Mof_C 	C 	0.7996	0.4928	0.05	0.105
Mof_H 	H 	0.8328	0.4849	0.0634	-0.089
Mof_O 	O 	0.1103	0.5914	0.8186	-0.301
Mof_C 	C 	0.095	0.6363	0.8132	0.812
Mof_O 	O 	0.1354	0.69	0.7955	-0.417
Mof_C 	C 	0.7086	0.5215	0.0561	-0.125
Mof_H 	H 	0.6661	0.5116	0.0686	0.133
Mof_C 	C 	0.7237	0.5521	0.0183	-0.213
Mof_H 	H 	0.692	0.5636	0.0062	0.085
Mof_O 	O 	0.1337	0.6417	0.8035	-0.558
Mof_C 	C 	0.1188	0.6865	0.8082	0.219
Mof_O 	O 	0.1596	0.748	0.7982	-0.265
Mof_C 	C 	0.0587	0.6762	0.8338	0.828
Mof_C 	C 	0.0296	0.6209	0.8599	-0.848
Mof_H 	H 	0.05	0.5925	0.8635	0.162
Mof_C 	C 	0.9707	0.6072	0.8808	0.504
Mof_H 	H 	0.9498	0.5677	0.898	0.108
Mof_C 	C 	0.9738	0.7073	0.8525	-0.749
Mof_H 	H 	0.9563	0.7384	0.8501	0.282
Mof_C 	C 	0.0317	0.7198	0.8312	-0.809
Mof_H 	H 	0.0538	0.7595	0.8142	0.285
Mof_C 	C 	0.9401	0.6493	0.8777	0.914
Mof_C 	C 	0.8725	0.6348	0.8977	-0.52
Mof_C 	C 	0.8589	0.6082	0.9366	-0.245
Mof_H 	H 	0.8912	0.5989	0.9499	0.12
Mof_O 	O 	0.7762	0.4531	0.36974	-0.443
Mof_C 	C 	0.5782	0.5758	0.642	1.323
Mof_H 	H 	0.5303	0.5445	0.637	-0.42
Mof_C 	C 	0.6004	0.6334	0.6666	-1.062
Mof_C 	C 	0.7483	0.6004	0.6092	0.639
Mof_C 	C 	0.6991	0.6153	0.6306	-0.943
Mof_C 	C 	0.7333	0.5726	0.5704	0.094
Mof_H 	H 	0.6931	0.567	0.5568	-0.057
Mof_C 	C 	0.6691	0.6791	0.6755	0.581
Mof_H 	H 	0.6809	0.716	0.694	-0.034
Mof_C 	C 	0.7214	0.6712	0.6574	0.514
Mof_H 	H 	0.7692	0.702	0.6629	-0.072
Mof_C 	C 	0.6299	0.5664	0.6252	-0.983
Mof_H 	H 	0.6176	0.5259	0.6098	0.295
Mof_C 	C 	0.7044	0.5149	0.4894	0.142
Mof_H 	H 	0.6699	0.5203	0.5033	-0.039
Mof_C 	C 	0.6932	0.4928	0.45	0.108
Mof_H 	H 	0.6521	0.4849	0.4366	-0.09
Mof_O 	O 	0.4811	0.5914	0.6814	-0.301
Mof_C 	C 	0.5413	0.6363	0.6868	0.812
Mof_O 	O 	0.5546	0.69	0.7045	-0.437
Mof_C 	C 	0.8129	0.5215	0.4439	-0.123
Mof_H 	H 	0.8455	0.5116	0.4314	0.131
Mof_C 	C 	0.8284	0.5521	0.4817	-0.21
Mof_H 	H 	0.8716	0.5636	0.4938	0.084
Mof_O 	O 	0.508	0.6417	0.6965	-0.555
Mof_C 	C 	0.5677	0.6865	0.6918	0.238
Mof_O 	O 	0.5884	0.748	0.7018	-0.265
Mof_C 	C 	0.6175	0.6762	0.6662	0.862
Mof_C 	C 	0.5913	0.6209	0.6401	-0.83
Mof_H 	H 	0.5425	0.5925	0.6365	0.155
Mof_C 	C 	0.6365	0.6072	0.6192	0.499
Mof_H 	H 	0.6179	0.5677	0.602	0.113
Mof_C 	C 	0.7335	0.7073	0.6475	-0.775
Mof_H 	H 	0.7821	0.7384	0.6499	0.293
Mof_C 	C 	0.6881	0.7198	0.6688	-0.822
Mof_H 	H 	0.7057	0.7595	0.6858	0.288
Mof_C 	C 	0.7092	0.6493	0.6223	0.909
Mof_C 	C 	0.7623	0.6348	0.6023	-0.515
Mof_C 	C 	0.7493	0.6082	0.5634	-0.243
Mof_H 	H 	0.7077	0.5989	0.5501	0.119
Mof_O 	O 	0.6769	0.2238	0.36974	-0.443
Mof_C 	C 	0.9976	0.4218	0.642	1.312
Mof_H 	H 	0.0142	0.4697	0.637	-0.417
Mof_C 	C 	0.033	0.3996	0.6666	-1.037
Mof_C 	C 	0.8521	0.2517	0.6092	0.64
Mof_C 	C 	0.9162	0.3009	0.6306	-0.944
Mof_C 	C 	0.8393	0.2667	0.5704	0.095
Mof_H 	H 	0.8739	0.3069	0.5568	-0.057
Mof_C 	C 	0.01	0.3309	0.6755	0.581
Mof_H 	H 	0.0351	0.3191	0.694	-0.035
Mof_C 	C 	0.9498	0.2786	0.6574	0.499
Mof_H 	H 	0.9328	0.2308	0.6629	-0.068
Mof_C 	C 	0.9365	0.3701	0.6252	-0.978
Mof_H 	H 	0.9083	0.3824	0.6098	0.294
Mof_C 	C 	0.8105	0.2956	0.4894	0.142
Mof_H 	H 	0.8504	0.3301	0.5033	-0.039
Mof_C 	C 	0.7996	0.3068	0.45	0.108
Mof_H 	H 	0.8328	0.3479	0.4366	-0.09
Mof_O 	O 	0.1103	0.5189	0.6814	-0.301
Mof_C 	C 	0.095	0.4587	0.6868	0.812
Mof_O 	O 	0.1354	0.4454	0.7045	-0.427
Mof_C 	C 	0.7086	0.1871	0.4439	-0.123
Mof_H 	H 	0.6661	0.1545	0.4314	0.131
Mof_C 	C 	0.7237	0.1716	0.4817	-0.21
Mof_H 	H 	0.692	0.1284	0.4938	0.084
Mof_O 	O 	0.1337	0.492	0.6965	-0.557
Mof_C 	C 	0.1188	0.4323	0.6918	0.229
Mof_O 	O 	0.1596	0.4116	0.7018	-0.266
Mof_C 	C 	0.0587	0.3825	0.6662	0.846
Mof_C 	C 	0.0296	0.4087	0.6401	-0.838
Mof_H 	H 	0.05	0.4575	0.6365	0.158
Mof_C 	C 	0.9707	0.3635	0.6192	0.502
Mof_H 	H 	0.9498	0.3821	0.602	0.111
Mof_C 	C 	0.9738	0.2665	0.6475	-0.763
Mof_H 	H 	0.9563	0.2179	0.6499	0.288
Mof_C 	C 	0.0317	0.3119	0.6688	-0.816
Mof_H 	H 	0.0538	0.2943	0.6858	0.286
Mof_C 	C 	0.9401	0.2908	0.6223	0.911
Mof_C 	C 	0.8725	0.2377	0.6023	-0.516
Mof_C 	C 	0.8589	0.2507	0.5634	-0.244
Mof_H 	H 	0.8912	0.2923	0.5501	0.12
Mof_O 	O 	0.5469	0.3231	0.36974	-0.443
Mof_C 	C 	0.4242	0.0024	0.642	1.311
Mof_H 	H 	0.4555	0.9858	0.637	-0.417
Mof_C 	C 	0.3666	0.967	0.6666	-1.036
Mof_C 	C 	0.3996	0.1479	0.6092	0.64
Mof_C 	C 	0.3847	0.0838	0.6306	-0.944
Mof_C 	C 	0.4274	0.1607	0.5704	0.095
Mof_H 	H 	0.433	0.1261	0.5568	-0.057
Mof_C 	C 	0.3209	0.99	0.6755	0.581
Mof_H 	H 	0.284	0.9649	0.694	-0.035
Mof_C 	C 	0.3288	0.0502	0.6574	0.498
Mof_H 	H 	0.298	0.0672	0.6629	-0.068
Mof_C 	C 	0.4336	0.0635	0.6252	-0.977
Mof_H 	H 	0.4741	0.0917	0.6098	0.294
Mof_C 	C 	0.4851	0.1895	0.4894	0.142
Mof_H 	H 	0.4797	0.1496	0.5033	-0.039
Mof_C 	C 	0.5072	0.2004	0.45	0.108
Mof_H 	H 	0.5151	0.1672	0.4366	-0.09
Mof_O 	O 	0.4086	0.8897	0.6814	-0.301
Mof_C 	C 	0.3637	0.905	0.6868	0.812
Mof_O 	O 	0.31	0.8646	0.7045	-0.427
Mof_C 	C 	0.4785	0.2914	0.4439	-0.123
Mof_H 	H 	0.4884	0.3339	0.4314	0.131
Mof_C 	C 	0.4479	0.2763	0.4817	-0.21
Mof_H 	H 	0.4364	0.308	0.4938	0.083
Mof_O 	O 	0.3583	0.8663	0.6965	-0.557
Mof_C 	C 	0.3135	0.8812	0.6918	0.228
Mof_O 	O 	0.252	0.8404	0.7018	-0.265
Mof_C 	C 	0.3238	0.9413	0.6662	0.844
Mof_C 	C 	0.3791	0.9704	0.6401	-0.838
Mof_H 	H 	0.4075	0.95	0.6365	0.158
Mof_C 	C 	0.3928	0.0293	0.6192	0.502
Mof_H 	H 	0.4323	0.0502	0.602	0.111
Mof_C 	C 	0.2927	0.0262	0.6475	-0.763
Mof_H 	H 	0.2616	0.0437	0.6499	0.288
Mof_C 	C 	0.2802	0.9683	0.6688	-0.815
Mof_H 	H 	0.2405	0.9462	0.6858	0.286
Mof_C 	C 	0.3507	0.0599	0.6223	0.911
Mof_C 	C 	0.3652	0.1275	0.6023	-0.517
Mof_C 	C 	0.3918	0.1411	0.5634	-0.244
Mof_H 	H 	0.4011	0.1088	0.5501	0.12
Mof_O 	O 	0.2238	0.5469	0.86974	-0.443
Mof_C 	C 	0.4218	0.4242	0.142	1.323
Mof_H 	H 	0.4697	0.4555	0.137	-0.42
Mof_C 	C 	0.3996	0.3666	0.1666	-1.063
Mof_C 	C 	0.2517	0.3996	0.1092	0.639
Mof_C 	C 	0.3009	0.3847	0.1306	-0.943
Mof_C 	C 	0.2667	0.4274	0.0704	0.092
Mof_H 	H 	0.3069	0.433	0.0568	-0.056
Mof_C 	C 	0.3309	0.3209	0.1755	0.581
Mof_H 	H 	0.3191	0.284	0.194	-0.034
Mof_C 	C 	0.2786	0.3288	0.1574	0.515
Mof_H 	H 	0.2308	0.298	0.1629	-0.073
Mof_C 	C 	0.3701	0.4336	0.1252	-0.983
Mof_H 	H 	0.3824	0.4741	0.1098	0.295
Mof_C 	C 	0.2956	0.4851	0.9894	0.148
Mof_H 	H 	0.3301	0.4797	0.0033	-0.043
Mof_C 	C 	0.3068	0.5072	0.95	0.109
Mof_H 	H 	0.3479	0.5151	0.9366	-0.092
Mof_O 	O 	0.5189	0.4086	0.1814	-0.301
Mof_C 	C 	0.4587	0.3637	0.1868	0.812
Mof_O 	O 	0.4454	0.31	0.2045	-0.437
Mof_C 	C 	0.1871	0.4785	0.9439	-0.121
Mof_H 	H 	0.1545	0.4884	0.9314	0.13
Mof_C 	C 	0.1716	0.4479	0.9817	-0.203
Mof_H 	H 	0.1284	0.4364	0.9938	0.083
Mof_O 	O 	0.492	0.3583	0.1965	-0.555
Mof_C 	C 	0.4323	0.3135	0.1918	0.238
Mof_O 	O 	0.4116	0.252	0.2018	-0.265
Mof_C 	C 	0.3825	0.3238	0.1662	0.863
Mof_C 	C 	0.4087	0.3791	0.1401	-0.83
Mof_H 	H 	0.4575	0.4075	0.1365	0.155
Mof_C 	C 	0.3635	0.3928	0.1192	0.499
Mof_H 	H 	0.3821	0.4323	0.102	0.113
Mof_C 	C 	0.2665	0.2927	0.1475	-0.775
Mof_H 	H 	0.2179	0.2616	0.1499	0.294
Mof_C 	C 	0.3119	0.2802	0.1688	-0.823
Mof_H 	H 	0.2943	0.2405	0.1858	0.288
Mof_C 	C 	0.2908	0.3507	0.1223	0.909
Mof_C 	C 	0.2377	0.3652	0.1023	-0.515
Mof_C 	C 	0.2507	0.3918	0.0634	-0.242
Mof_H 	H 	0.2923	0.4011	0.0501	0.118
Mof_O 	O 	0.3231	0.7762	0.86974	-0.443
Mof_C 	C 	0.0024	0.5782	0.142	1.301
Mof_H 	H 	0.9858	0.5303	0.137	-0.414
Mof_C 	C 	0.967	0.6004	0.1666	-1.011
Mof_C 	C 	0.1479	0.7483	0.1092	0.643
Mof_C 	C 	0.0838	0.6991	0.1306	-0.945
Mof_C 	C 	0.1607	0.7333	0.0704	0.093
Mof_H 	H 	0.1261	0.6931	0.0568	-0.056
Mof_C 	C 	0.99	0.6691	0.1755	0.58
Mof_H 	H 	0.9649	0.6809	0.194	-0.035
Mof_C 	C 	0.0502	0.7214	0.1574	0.482
Mof_H 	H 	0.0672	0.7692	0.1629	-0.064
Mof_C 	C 	0.0635	0.6299	0.1252	-0.972
Mof_H 	H 	0.0917	0.6176	0.1098	0.292
Mof_C 	C 	0.1895	0.7044	0.9894	0.146
Mof_H 	H 	0.1496	0.6699	0.0033	-0.044
Mof_C 	C 	0.2004	0.6932	0.95	0.107
Mof_H 	H 	0.1672	0.6521	0.9366	-0.091
Mof_O 	O 	0.8897	0.4811	0.1814	-0.301
Mof_C 	C 	0.905	0.5413	0.1868	0.812
Mof_O 	O 	0.8646	0.5546	0.2045	-0.417
Mof_C 	C 	0.2914	0.8129	0.9439	-0.125
Mof_H 	H 	0.3339	0.8455	0.9314	0.133
Mof_C 	C 	0.2763	0.8284	0.9817	-0.207
Mof_H 	H 	0.308	0.8716	0.9938	0.085
Mof_O 	O 	0.8663	0.508	0.1965	-0.558
Mof_C 	C 	0.8812	0.5677	0.1918	0.219
Mof_O 	O 	0.8404	0.5884	0.2018	-0.266
Mof_C 	C 	0.9413	0.6175	0.1662	0.828
Mof_C 	C 	0.9704	0.5913	0.1401	-0.847
Mof_H 	H 	0.95	0.5425	0.1365	0.162
Mof_C 	C 	0.0293	0.6365	0.1192	0.504
Mof_H 	H 	0.0502	0.6179	0.102	0.108
Mof_C 	C 	0.0262	0.7335	0.1475	-0.75
Mof_H 	H 	0.0437	0.7821	0.1499	0.282
Mof_C 	C 	0.9683	0.6881	0.1688	-0.81
Mof_H 	H 	0.9462	0.7057	0.1858	0.285
Mof_C 	C 	0.0599	0.7092	0.1223	0.914
Mof_C 	C 	0.1275	0.7623	0.1023	-0.52
Mof_C 	C 	0.1411	0.7493	0.0634	-0.244
Mof_H 	H 	0.1088	0.7077	0.0501	0.119
Mof_O 	O 	0.4531	0.6769	0.86974	-0.443
Mof_C 	C 	0.5758	0.9976	0.142	1.301
Mof_H 	H 	0.5445	0.0142	0.137	-0.414
Mof_C 	C 	0.6334	0.033	0.1666	-1.01
Mof_C 	C 	0.6004	0.8521	0.1092	0.644
Mof_C 	C 	0.6153	0.9162	0.1306	-0.945
Mof_C 	C 	0.5726	0.8393	0.0704	0.095
Mof_H 	H 	0.567	0.8739	0.0568	-0.057
Mof_C 	C 	0.6791	0.01	0.1755	0.58
Mof_H 	H 	0.716	0.0351	0.194	-0.035
Mof_C 	C 	0.6712	0.9498	0.1574	0.481
Mof_H 	H 	0.702	0.9328	0.1629	-0.063
Mof_C 	C 	0.5664	0.9365	0.1252	-0.972
Mof_H 	H 	0.5259	0.9083	0.1098	0.292
Mof_C 	C 	0.5149	0.8105	0.9894	0.139
Mof_H 	H 	0.5203	0.8504	0.0033	-0.04
Mof_C 	C 	0.4928	0.7996	0.95	0.105
Mof_H 	H 	0.4849	0.8328	0.9366	-0.089
Mof_O 	O 	0.5914	0.1103	0.1814	-0.301
Mof_C 	C 	0.6363	0.095	0.1868	0.812
Mof_O 	O 	0.69	0.1354	0.2045	-0.417
Mof_C 	C 	0.5215	0.7086	0.9439	-0.125
Mof_H 	H 	0.5116	0.6661	0.9314	0.133
Mof_C 	C 	0.5521	0.7237	0.9817	-0.213
Mof_H 	H 	0.5636	0.692	0.9938	0.085
Mof_O 	O 	0.6417	0.1337	0.1965	-0.558
Mof_C 	C 	0.6865	0.1188	0.1918	0.219
Mof_O 	O 	0.748	0.1596	0.2018	-0.265
Mof_C 	C 	0.6762	0.0587	0.1662	0.828
Mof_C 	C 	0.6209	0.0296	0.1401	-0.848
Mof_H 	H 	0.5925	0.05	0.1365	0.162
Mof_C 	C 	0.6072	0.9707	0.1192	0.504
Mof_H 	H 	0.5677	0.9498	0.102	0.108
Mof_C 	C 	0.7073	0.9738	0.1475	-0.749
Mof_H 	H 	0.7384	0.9563	0.1499	0.282
Mof_C 	C 	0.7198	0.0317	0.1688	-0.809
Mof_H 	H 	0.7595	0.0538	0.1858	0.285
Mof_C 	C 	0.6493	0.9401	0.1223	0.914
Mof_C 	C 	0.6348	0.8725	0.1023	-0.52
Mof_C 	C 	0.6082	0.8589	0.0634	-0.245
Mof_H 	H 	0.5989	0.8912	0.0501	0.12
Mof_O 	O 	0.5469	0.2238	0.36974	-0.443
Mof_C 	C 	0.4242	0.4218	0.642	1.323
Mof_H 	H 	0.4555	0.4697	0.637	-0.42
Mof_C 	C 	0.3666	0.3996	0.6666	-1.062
Mof_C 	C 	0.3996	0.2517	0.6092	0.639
Mof_C 	C 	0.3847	0.3009	0.6306	-0.943
Mof_C 	C 	0.4274	0.2667	0.5704	0.094
Mof_H 	H 	0.433	0.3069	0.5568	-0.057
Mof_C 	C 	0.3209	0.3309	0.6755	0.581
Mof_H 	H 	0.284	0.3191	0.694	-0.034
Mof_C 	C 	0.3288	0.2786	0.6574	0.514
Mof_H 	H 	0.298	0.2308	0.6629	-0.072
Mof_C 	C 	0.4336	0.3701	0.6252	-0.983
Mof_H 	H 	0.4741	0.3824	0.6098	0.295
Mof_C 	C 	0.4851	0.2956	0.4894	0.142
Mof_H 	H 	0.4797	0.3301	0.5033	-0.039
Mof_C 	C 	0.5072	0.3068	0.45	0.108
Mof_H 	H 	0.5151	0.3479	0.4366	-0.09
Mof_O 	O 	0.4086	0.5189	0.6814	-0.301
Mof_C 	C 	0.3637	0.4587	0.6868	0.812
Mof_O 	O 	0.31	0.4454	0.7045	-0.437
Mof_C 	C 	0.4785	0.1871	0.4439	-0.123
Mof_H 	H 	0.4884	0.1545	0.4314	0.131
Mof_C 	C 	0.4479	0.1716	0.4817	-0.21
Mof_H 	H 	0.4364	0.1284	0.4938	0.084
Mof_O 	O 	0.3583	0.492	0.6965	-0.555
Mof_C 	C 	0.3135	0.4323	0.6918	0.238
Mof_O 	O 	0.252	0.4116	0.7018	-0.265
Mof_C 	C 	0.3238	0.3825	0.6662	0.862
Mof_C 	C 	0.3791	0.4087	0.6401	-0.83
Mof_H 	H 	0.4075	0.4575	0.6365	0.155
Mof_C 	C 	0.3928	0.3635	0.6192	0.499
Mof_H 	H 	0.4323	0.3821	0.602	0.113
Mof_C 	C 	0.2927	0.2665	0.6475	-0.775
Mof_H 	H 	0.2616	0.2179	0.6499	0.293
Mof_C 	C 	0.2802	0.3119	0.6688	-0.822
Mof_H 	H 	0.2405	0.2943	0.6858	0.288
Mof_C 	C 	0.3507	0.2908	0.6223	0.909
Mof_C 	C 	0.3652	0.2377	0.6023	-0.515
Mof_C 	C 	0.3918	0.2507	0.5634	-0.243
Mof_H 	H 	0.4011	0.2923	0.5501	0.119
Mof_O 	O 	0.7762	0.3231	0.36974	-0.443
Mof_C 	C 	0.5782	0.0024	0.642	1.312
Mof_H 	H 	0.5303	0.9858	0.637	-0.417
Mof_C 	C 	0.6004	0.967	0.6666	-1.037
Mof_C 	C 	0.7483	0.1479	0.6092	0.64
Mof_C 	C 	0.6991	0.0838	0.6306	-0.944
Mof_C 	C 	0.7333	0.1607	0.5704	0.095
Mof_H 	H 	0.6931	0.1261	0.5568	-0.057
Mof_C 	C 	0.6691	0.99	0.6755	0.581
Mof_H 	H 	0.6809	0.9649	0.694	-0.035
Mof_C 	C 	0.7214	0.0502	0.6574	0.499
Mof_H 	H 	0.7692	0.0672	0.6629	-0.068
Mof_C 	C 	0.6299	0.0635	0.6252	-0.978
Mof_H 	H 	0.6176	0.0917	0.6098	0.294
Mof_C 	C 	0.7044	0.1895	0.4894	0.142
Mof_H 	H 	0.6699	0.1496	0.5033	-0.039
Mof_C 	C 	0.6932	0.2004	0.45	0.108
Mof_H 	H 	0.6521	0.1672	0.4366	-0.09
Mof_O 	O 	0.4811	0.8897	0.6814	-0.301
Mof_C 	C 	0.5413	0.905	0.6868	0.812
Mof_O 	O 	0.5546	0.8646	0.7045	-0.427
Mof_C 	C 	0.8129	0.2914	0.4439	-0.123
Mof_H 	H 	0.8455	0.3339	0.4314	0.131
Mof_C 	C 	0.8284	0.2763	0.4817	-0.21
Mof_H 	H 	0.8716	0.308	0.4938	0.084
Mof_O 	O 	0.508	0.8663	0.6965	-0.557
Mof_C 	C 	0.5677	0.8812	0.6918	0.229
Mof_O 	O 	0.5884	0.8404	0.7018	-0.266
Mof_C 	C 	0.6175	0.9413	0.6662	0.846
Mof_C 	C 	0.5913	0.9704	0.6401	-0.838
Mof_H 	H 	0.5425	0.95	0.6365	0.158
Mof_C 	C 	0.6365	0.0293	0.6192	0.502
Mof_H 	H 	0.6179	0.0502	0.602	0.111
Mof_C 	C 	0.7335	0.0262	0.6475	-0.763
Mof_H 	H 	0.7821	0.0437	0.6499	0.288
Mof_C 	C 	0.6881	0.9683	0.6688	-0.816
Mof_H 	H 	0.7057	0.9462	0.6858	0.286
Mof_C 	C 	0.7092	0.0599	0.6223	0.911
Mof_C 	C 	0.7623	0.1275	0.6023	-0.516
Mof_C 	C 	0.7493	0.1411	0.5634	-0.244
Mof_H 	H 	0.7077	0.1088	0.5501	0.12
Mof_O 	O 	0.6769	0.4531	0.36974	-0.443
Mof_C 	C 	0.9976	0.5758	0.642	1.311
Mof_H 	H 	0.0142	0.5445	0.637	-0.417
Mof_C 	C 	0.033	0.6334	0.6666	-1.036
Mof_C 	C 	0.8521	0.6004	0.6092	0.64
Mof_C 	C 	0.9162	0.6153	0.6306	-0.944
Mof_C 	C 	0.8393	0.5726	0.5704	0.095
Mof_H 	H 	0.8739	0.567	0.5568	-0.057
Mof_C 	C 	0.01	0.6791	0.6755	0.581
Mof_H 	H 	0.0351	0.716	0.694	-0.035
Mof_C 	C 	0.9498	0.6712	0.6574	0.498
Mof_H 	H 	0.9328	0.702	0.6629	-0.068
Mof_C 	C 	0.9365	0.5664	0.6252	-0.977
Mof_H 	H 	0.9083	0.5259	0.6098	0.294
Mof_C 	C 	0.8105	0.5149	0.4894	0.142
Mof_H 	H 	0.8504	0.5203	0.5033	-0.039
Mof_C 	C 	0.7996	0.4928	0.45	0.108
Mof_H 	H 	0.8328	0.4849	0.4366	-0.09
Mof_O 	O 	0.1103	0.5914	0.6814	-0.301
Mof_C 	C 	0.095	0.6363	0.6868	0.812
Mof_O 	O 	0.1354	0.69	0.7045	-0.427
Mof_C 	C 	0.7086	0.5215	0.4439	-0.123
Mof_H 	H 	0.6661	0.5116	0.4314	0.131
Mof_C 	C 	0.7237	0.5521	0.4817	-0.21
Mof_H 	H 	0.692	0.5636	0.4938	0.083
Mof_O 	O 	0.1337	0.6417	0.6965	-0.557
Mof_C 	C 	0.1188	0.6865	0.6918	0.228
Mof_O 	O 	0.1596	0.748	0.7018	-0.265
Mof_C 	C 	0.0587	0.6762	0.6662	0.844
Mof_C 	C 	0.0296	0.6209	0.6401	-0.838
Mof_H 	H 	0.05	0.5925	0.6365	0.158
Mof_C 	C 	0.9707	0.6072	0.6192	0.502
Mof_H 	H 	0.9498	0.5677	0.602	0.111
Mof_C 	C 	0.9738	0.7073	0.6475	-0.763
Mof_H 	H 	0.9563	0.7384	0.6499	0.288
Mof_C 	C 	0.0317	0.7198	0.6688	-0.815
Mof_H 	H 	0.0538	0.7595	0.6858	0.286
Mof_C 	C 	0.9401	0.6493	0.6223	0.911
Mof_C 	C 	0.8725	0.6348	0.6023	-0.517
Mof_C 	C 	0.8589	0.6082	0.5634	-0.244
Mof_H 	H 	0.8912	0.5989	0.5501	0.12
Mof_O 	O 	0.4531	0.7762	0.86974	-0.443
Mof_C 	C 	0.5758	0.5782	0.142	1.323
Mof_H 	H 	0.5445	0.5303	0.137	-0.42
Mof_C 	C 	0.6334	0.6004	0.1666	-1.063
Mof_C 	C 	0.6004	0.7483	0.1092	0.639
Mof_C 	C 	0.6153	0.6991	0.1306	-0.943
Mof_C 	C 	0.5726	0.7333	0.0704	0.092
Mof_H 	H 	0.567	0.6931	0.0568	-0.056
Mof_C 	C 	0.6791	0.6691	0.1755	0.581
Mof_H 	H 	0.716	0.6809	0.194	-0.034
Mof_C 	C 	0.6712	0.7214	0.1574	0.515
Mof_H 	H 	0.702	0.7692	0.1629	-0.073
Mof_C 	C 	0.5664	0.6299	0.1252	-0.983
Mof_H 	H 	0.5259	0.6176	0.1098	0.295
Mof_C 	C 	0.5149	0.7044	0.9894	0.148
Mof_H 	H 	0.5203	0.6699	0.0033	-0.043
Mof_C 	C 	0.4928	0.6932	0.95	0.109
Mof_H 	H 	0.4849	0.6521	0.9366	-0.092
Mof_O 	O 	0.5914	0.4811	0.1814	-0.301
Mof_C 	C 	0.6363	0.5413	0.1868	0.812
Mof_O 	O 	0.69	0.5546	0.2045	-0.437
Mof_C 	C 	0.5215	0.8129	0.9439	-0.121
Mof_H 	H 	0.5116	0.8455	0.9314	0.13
Mof_C 	C 	0.5521	0.8284	0.9817	-0.203
Mof_H 	H 	0.5636	0.8716	0.9938	0.083
Mof_O 	O 	0.6417	0.508	0.1965	-0.555
Mof_C 	C 	0.6865	0.5677	0.1918	0.238
Mof_O 	O 	0.748	0.5884	0.2018	-0.265
Mof_C 	C 	0.6762	0.6175	0.1662	0.863
Mof_C 	C 	0.6209	0.5913	0.1401	-0.83
Mof_H 	H 	0.5925	0.5425	0.1365	0.155
Mof_C 	C 	0.6072	0.6365	0.1192	0.499
Mof_H 	H 	0.5677	0.6179	0.102	0.113
Mof_C 	C 	0.7073	0.7335	0.1475	-0.775
Mof_H 	H 	0.7384	0.7821	0.1499	0.294
Mof_C 	C 	0.7198	0.6881	0.1688	-0.823
Mof_H 	H 	0.7595	0.7057	0.1858	0.288
Mof_C 	C 	0.6493	0.7092	0.1223	0.909
Mof_C 	C 	0.6348	0.7623	0.1023	-0.515
Mof_C 	C 	0.6082	0.7493	0.0634	-0.242
Mof_H 	H 	0.5989	0.7077	0.0501	0.118
Mof_O 	O 	0.2238	0.6769	0.86974	-0.443
Mof_C 	C 	0.4218	0.9976	0.142	1.301
Mof_H 	H 	0.4697	0.0142	0.137	-0.414
Mof_C 	C 	0.3996	0.033	0.1666	-1.011
Mof_C 	C 	0.2517	0.8521	0.1092	0.643
Mof_C 	C 	0.3009	0.9162	0.1306	-0.945
Mof_C 	C 	0.2667	0.8393	0.0704	0.093
Mof_H 	H 	0.3069	0.8739	0.0568	-0.056
Mof_C 	C 	0.3309	0.01	0.1755	0.58
Mof_H 	H 	0.3191	0.0351	0.194	-0.035
Mof_C 	C 	0.2786	0.9498	0.1574	0.482
Mof_H 	H 	0.2308	0.9328	0.1629	-0.064
Mof_C 	C 	0.3701	0.9365	0.1252	-0.972
Mof_H 	H 	0.3824	0.9083	0.1098	0.292
Mof_C 	C 	0.2956	0.8105	0.9894	0.146
Mof_H 	H 	0.3301	0.8504	0.0033	-0.044
Mof_C 	C 	0.3068	0.7996	0.95	0.107
Mof_H 	H 	0.3479	0.8328	0.9366	-0.091
Mof_O 	O 	0.5189	0.1103	0.1814	-0.301
Mof_C 	C 	0.4587	0.095	0.1868	0.812
Mof_O 	O 	0.4454	0.1354	0.2045	-0.417
Mof_C 	C 	0.1871	0.7086	0.9439	-0.125
Mof_H 	H 	0.1545	0.6661	0.9314	0.133
Mof_C 	C 	0.1716	0.7237	0.9817	-0.207
Mof_H 	H 	0.1284	0.692	0.9938	0.085
Mof_O 	O 	0.492	0.1337	0.1965	-0.558
Mof_C 	C 	0.4323	0.1188	0.1918	0.219
Mof_O 	O 	0.4116	0.1596	0.2018	-0.266
Mof_C 	C 	0.3825	0.0587	0.1662	0.828
Mof_C 	C 	0.4087	0.0296	0.1401	-0.847
Mof_H 	H 	0.4575	0.05	0.1365	0.162
Mof_C 	C 	0.3635	0.9707	0.1192	0.504
Mof_H 	H 	0.3821	0.9498	0.102	0.108
Mof_C 	C 	0.2665	0.9738	0.1475	-0.75
Mof_H 	H 	0.2179	0.9563	0.1499	0.282
Mof_C 	C 	0.3119	0.0317	0.1688	-0.81
Mof_H 	H 	0.2943	0.0538	0.1858	0.285
Mof_C 	C 	0.2908	0.9401	0.1223	0.914
Mof_C 	C 	0.2377	0.8725	0.1023	-0.52
Mof_C 	C 	0.2507	0.8589	0.0634	-0.244
Mof_H 	H 	0.2923	0.8912	0.0501	0.119
Mof_O 	O 	0.3231	0.5469	0.86974	-0.443
Mof_C 	C 	0.0024	0.4242	0.142	1.301
Mof_H 	H 	0.9858	0.4555	0.137	-0.414
Mof_C 	C 	0.967	0.3666	0.1666	-1.01
Mof_C 	C 	0.1479	0.3996	0.1092	0.644
Mof_C 	C 	0.0838	0.3847	0.1306	-0.945
Mof_C 	C 	0.1607	0.4274	0.0704	0.095
Mof_H 	H 	0.1261	0.433	0.0568	-0.057
Mof_C 	C 	0.99	0.3209	0.1755	0.58
Mof_H 	H 	0.9649	0.284	0.194	-0.035
Mof_C 	C 	0.0502	0.3288	0.1574	0.481
Mof_H 	H 	0.0672	0.298	0.1629	-0.063
Mof_C 	C 	0.0635	0.4336	0.1252	-0.972
Mof_H 	H 	0.0917	0.4741	0.1098	0.292
Mof_C 	C 	0.1895	0.4851	0.9894	0.139
Mof_H 	H 	0.1496	0.4797	0.0033	-0.04
Mof_C 	C 	0.2004	0.5072	0.95	0.105
Mof_H 	H 	0.1672	0.5151	0.9366	-0.089
Mof_O 	O 	0.8897	0.4086	0.1814	-0.301
Mof_C 	C 	0.905	0.3637	0.1868	0.812
Mof_O 	O 	0.8646	0.31	0.2045	-0.417
Mof_C 	C 	0.2914	0.4785	0.9439	-0.125
Mof_H 	H 	0.3339	0.4884	0.9314	0.133
Mof_C 	C 	0.2763	0.4479	0.9817	-0.213
Mof_H 	H 	0.308	0.4364	0.9938	0.085
Mof_O 	O 	0.8663	0.3583	0.1965	-0.558
Mof_C 	C 	0.8812	0.3135	0.1918	0.219
Mof_O 	O 	0.8404	0.252	0.2018	-0.265
Mof_C 	C 	0.9413	0.3238	0.1662	0.828
Mof_C 	C 	0.9704	0.3791	0.1401	-0.848
Mof_H 	H 	0.95	0.4075	0.1365	0.162
Mof_C 	C 	0.0293	0.3928	0.1192	0.504
Mof_H 	H 	0.0502	0.4323	0.102	0.108
Mof_C 	C 	0.0262	0.2927	0.1475	-0.749
Mof_H 	H 	0.0437	0.2616	0.1499	0.282
Mof_C 	C 	0.9683	0.2802	0.1688	-0.809
Mof_H 	H 	0.9462	0.2405	0.1858	0.285
Mof_C 	C 	0.0599	0.3507	0.1223	0.914
Mof_C 	C 	0.1275	0.3652	0.1023	-0.52
Mof_C 	C 	0.1411	0.3918	0.0634	-0.245
Mof_H 	H 	0.1088	0.4011	0.0501	0.12
Mof_O 	O 	0.2238	0.5469	0.63026	-0.443
Mof_C 	C 	0.4218	0.4242	0.358	1.323
Mof_H 	H 	0.4697	0.4555	0.363	-0.42
Mof_C 	C 	0.3996	0.3666	0.3334	-1.062
Mof_C 	C 	0.2517	0.3996	0.3908	0.639
Mof_C 	C 	0.3009	0.3847	0.3694	-0.943
Mof_C 	C 	0.2667	0.4274	0.4296	0.094
Mof_H 	H 	0.3069	0.433	0.4432	-0.057
Mof_C 	C 	0.3309	0.3209	0.3245	0.581
Mof_H 	H 	0.3191	0.284	0.306	-0.034
Mof_C 	C 	0.2786	0.3288	0.3426	0.514
Mof_H 	H 	0.2308	0.298	0.3371	-0.072
Mof_C 	C 	0.3701	0.4336	0.3748	-0.983
Mof_H 	H 	0.3824	0.4741	0.3902	0.295
Mof_C 	C 	0.2956	0.4851	0.5106	0.142
Mof_H 	H 	0.3301	0.4797	0.4967	-0.039
Mof_C 	C 	0.3068	0.5072	0.55	0.108
Mof_H 	H 	0.3479	0.5151	0.5634	-0.09
Mof_O 	O 	0.5189	0.4086	0.3186	-0.301
Mof_C 	C 	0.4587	0.3637	0.3132	0.812
Mof_O 	O 	0.4454	0.31	0.2955	-0.437
Mof_C 	C 	0.1871	0.4785	0.5561	-0.123
Mof_H 	H 	0.1545	0.4884	0.5686	0.131
Mof_C 	C 	0.1716	0.4479	0.5183	-0.21
Mof_H 	H 	0.1284	0.4364	0.5062	0.084
Mof_O 	O 	0.492	0.3583	0.3035	-0.555
Mof_C 	C 	0.4323	0.3135	0.3082	0.238
Mof_O 	O 	0.4116	0.252	0.2982	-0.265
Mof_C 	C 	0.3825	0.3238	0.3338	0.862
Mof_C 	C 	0.4087	0.3791	0.3599	-0.83
Mof_H 	H 	0.4575	0.4075	0.3635	0.155
Mof_C 	C 	0.3635	0.3928	0.3808	0.499
Mof_H 	H 	0.3821	0.4323	0.398	0.113
Mof_C 	C 	0.2665	0.2927	0.3525	-0.775
Mof_H 	H 	0.2179	0.2616	0.3501	0.293
Mof_C 	C 	0.3119	0.2802	0.3312	-0.822
Mof_H 	H 	0.2943	0.2405	0.3142	0.288
Mof_C 	C 	0.2908	0.3507	0.3777	0.909
Mof_C 	C 	0.2377	0.3652	0.3977	-0.515
Mof_C 	C 	0.2507	0.3918	0.4366	-0.243
Mof_H 	H 	0.2923	0.4011	0.4499	0.119
Mof_O 	O 	0.3231	0.7762	0.63026	-0.443
Mof_C 	C 	0.0024	0.5782	0.358	1.312
Mof_H 	H 	0.9858	0.5303	0.363	-0.417
Mof_C 	C 	0.967	0.6004	0.3334	-1.037
Mof_C 	C 	0.1479	0.7483	0.3908	0.64
Mof_C 	C 	0.0838	0.6991	0.3694	-0.944
Mof_C 	C 	0.1607	0.7333	0.4296	0.095
Mof_H 	H 	0.1261	0.6931	0.4432	-0.057
Mof_C 	C 	0.99	0.6691	0.3245	0.581
Mof_H 	H 	0.9649	0.6809	0.306	-0.035
Mof_C 	C 	0.0502	0.7214	0.3426	0.499
Mof_H 	H 	0.0672	0.7692	0.3371	-0.068
Mof_C 	C 	0.0635	0.6299	0.3748	-0.978
Mof_H 	H 	0.0917	0.6176	0.3902	0.294
Mof_C 	C 	0.1895	0.7044	0.5106	0.142
Mof_H 	H 	0.1496	0.6699	0.4967	-0.039
Mof_C 	C 	0.2004	0.6932	0.55	0.108
Mof_H 	H 	0.1672	0.6521	0.5634	-0.09
Mof_O 	O 	0.8897	0.4811	0.3186	-0.301
Mof_C 	C 	0.905	0.5413	0.3132	0.812
Mof_O 	O 	0.8646	0.5546	0.2955	-0.427
Mof_C 	C 	0.2914	0.8129	0.5561	-0.123
Mof_H 	H 	0.3339	0.8455	0.5686	0.131
Mof_C 	C 	0.2763	0.8284	0.5183	-0.21
Mof_H 	H 	0.308	0.8716	0.5062	0.084
Mof_O 	O 	0.8663	0.508	0.3035	-0.557
Mof_C 	C 	0.8812	0.5677	0.3082	0.229
Mof_O 	O 	0.8404	0.5884	0.2982	-0.266
Mof_C 	C 	0.9413	0.6175	0.3338	0.846
Mof_C 	C 	0.9704	0.5913	0.3599	-0.838
Mof_H 	H 	0.95	0.5425	0.3635	0.158
Mof_C 	C 	0.0293	0.6365	0.3808	0.502
Mof_H 	H 	0.0502	0.6179	0.398	0.111
Mof_C 	C 	0.0262	0.7335	0.3525	-0.763
Mof_H 	H 	0.0437	0.7821	0.3501	0.288
Mof_C 	C 	0.9683	0.6881	0.3312	-0.816
Mof_H 	H 	0.9462	0.7057	0.3142	0.286
Mof_C 	C 	0.0599	0.7092	0.3777	0.911
Mof_C 	C 	0.1275	0.7623	0.3977	-0.516
Mof_C 	C 	0.1411	0.7493	0.4366	-0.244
Mof_H 	H 	0.1088	0.7077	0.4499	0.12
Mof_O 	O 	0.4531	0.6769	0.63026	-0.443
Mof_C 	C 	0.5758	0.9976	0.358	1.311
Mof_H 	H 	0.5445	0.0142	0.363	-0.417
Mof_C 	C 	0.6334	0.033	0.3334	-1.036
Mof_C 	C 	0.6004	0.8521	0.3908	0.64
Mof_C 	C 	0.6153	0.9162	0.3694	-0.944
Mof_C 	C 	0.5726	0.8393	0.4296	0.095
Mof_H 	H 	0.567	0.8739	0.4432	-0.057
Mof_C 	C 	0.6791	0.01	0.3245	0.581
Mof_H 	H 	0.716	0.0351	0.306	-0.035
Mof_C 	C 	0.6712	0.9498	0.3426	0.498
Mof_H 	H 	0.702	0.9328	0.3371	-0.068
Mof_C 	C 	0.5664	0.9365	0.3748	-0.977
Mof_H 	H 	0.5259	0.9083	0.3902	0.294
Mof_C 	C 	0.5149	0.8105	0.5106	0.142
Mof_H 	H 	0.5203	0.8504	0.4967	-0.039
Mof_C 	C 	0.4928	0.7996	0.55	0.108
Mof_H 	H 	0.4849	0.8328	0.5634	-0.09
Mof_O 	O 	0.5914	0.1103	0.3186	-0.301
Mof_C 	C 	0.6363	0.095	0.3132	0.812
Mof_O 	O 	0.69	0.1354	0.2955	-0.427
Mof_C 	C 	0.5215	0.7086	0.5561	-0.123
Mof_H 	H 	0.5116	0.6661	0.5686	0.131
Mof_C 	C 	0.5521	0.7237	0.5183	-0.21
Mof_H 	H 	0.5636	0.692	0.5062	0.083
Mof_O 	O 	0.6417	0.1337	0.3035	-0.557
Mof_C 	C 	0.6865	0.1188	0.3082	0.228
Mof_O 	O 	0.748	0.1596	0.2982	-0.265
Mof_C 	C 	0.6762	0.0587	0.3338	0.844
Mof_C 	C 	0.6209	0.0296	0.3599	-0.838
Mof_H 	H 	0.5925	0.05	0.3635	0.158
Mof_C 	C 	0.6072	0.9707	0.3808	0.502
Mof_H 	H 	0.5677	0.9498	0.398	0.111
Mof_C 	C 	0.7073	0.9738	0.3525	-0.763
Mof_H 	H 	0.7384	0.9563	0.3501	0.288
Mof_C 	C 	0.7198	0.0317	0.3312	-0.815
Mof_H 	H 	0.7595	0.0538	0.3142	0.286
Mof_C 	C 	0.6493	0.9401	0.3777	0.911
Mof_C 	C 	0.6348	0.8725	0.3977	-0.517
Mof_C 	C 	0.6082	0.8589	0.4366	-0.244
Mof_H 	H 	0.5989	0.8912	0.4499	0.12
Mof_O 	O 	0.7762	0.4531	0.13026	-0.443
Mof_C 	C 	0.5782	0.5758	0.858	1.323
Mof_H 	H 	0.5303	0.5445	0.863	-0.42
Mof_C 	C 	0.6004	0.6334	0.8334	-1.063
Mof_C 	C 	0.7483	0.6004	0.8908	0.639
Mof_C 	C 	0.6991	0.6153	0.8694	-0.943
Mof_C 	C 	0.7333	0.5726	0.9296	0.092
Mof_H 	H 	0.6931	0.567	0.9432	-0.056
Mof_C 	C 	0.6691	0.6791	0.8245	0.581
Mof_H 	H 	0.6809	0.716	0.806	-0.034
Mof_C 	C 	0.7214	0.6712	0.8426	0.515
Mof_H 	H 	0.7692	0.702	0.8371	-0.073
Mof_C 	C 	0.6299	0.5664	0.8748	-0.983
Mof_H 	H 	0.6176	0.5259	0.8902	0.295
Mof_C 	C 	0.7044	0.5149	0.0106	0.148
Mof_H 	H 	0.6699	0.5203	0.9967	-0.043
Mof_C 	C 	0.6932	0.4928	0.05	0.109
Mof_H 	H 	0.6521	0.4849	0.0634	-0.092
Mof_O 	O 	0.4811	0.5914	0.8186	-0.301
Mof_C 	C 	0.5413	0.6363	0.8132	0.812
Mof_O 	O 	0.5546	0.69	0.7955	-0.437
Mof_C 	C 	0.8129	0.5215	0.0561	-0.121
Mof_H 	H 	0.8455	0.5116	0.0686	0.13
Mof_C 	C 	0.8284	0.5521	0.0183	-0.203
Mof_H 	H 	0.8716	0.5636	0.0062	0.083
Mof_O 	O 	0.508	0.6417	0.8035	-0.555
Mof_C 	C 	0.5677	0.6865	0.8082	0.238
Mof_O 	O 	0.5884	0.748	0.7982	-0.265
Mof_C 	C 	0.6175	0.6762	0.8338	0.863
Mof_C 	C 	0.5913	0.6209	0.8599	-0.83
Mof_H 	H 	0.5425	0.5925	0.8635	0.155
Mof_C 	C 	0.6365	0.6072	0.8808	0.499
Mof_H 	H 	0.6179	0.5677	0.898	0.113
Mof_C 	C 	0.7335	0.7073	0.8525	-0.775
Mof_H 	H 	0.7821	0.7384	0.8501	0.294
Mof_C 	C 	0.6881	0.7198	0.8312	-0.823
Mof_H 	H 	0.7057	0.7595	0.8142	0.288
Mof_C 	C 	0.7092	0.6493	0.8777	0.909
Mof_C 	C 	0.7623	0.6348	0.8977	-0.515
Mof_C 	C 	0.7493	0.6082	0.9366	-0.242
Mof_H 	H 	0.7077	0.5989	0.9499	0.118
Mof_O 	O 	0.6769	0.2238	0.13026	-0.443
Mof_C 	C 	0.9976	0.4218	0.858	1.301
Mof_H 	H 	0.0142	0.4697	0.863	-0.414
Mof_C 	C 	0.033	0.3996	0.8334	-1.011
Mof_C 	C 	0.8521	0.2517	0.8908	0.643
Mof_C 	C 	0.9162	0.3009	0.8694	-0.945
Mof_C 	C 	0.8393	0.2667	0.9296	0.093
Mof_H 	H 	0.8739	0.3069	0.9432	-0.056
Mof_C 	C 	0.01	0.3309	0.8245	0.58
Mof_H 	H 	0.0351	0.3191	0.806	-0.035
Mof_C 	C 	0.9498	0.2786	0.8426	0.482
Mof_H 	H 	0.9328	0.2308	0.8371	-0.064
Mof_C 	C 	0.9365	0.3701	0.8748	-0.972
Mof_H 	H 	0.9083	0.3824	0.8902	0.292
Mof_C 	C 	0.8105	0.2956	0.0106	0.146
Mof_H 	H 	0.8504	0.3301	0.9967	-0.044
Mof_C 	C 	0.7996	0.3068	0.05	0.107
Mof_H 	H 	0.8328	0.3479	0.0634	-0.091
Mof_O 	O 	0.1103	0.5189	0.8186	-0.301
Mof_C 	C 	0.095	0.4587	0.8132	0.812
Mof_O 	O 	0.1354	0.4454	0.7955	-0.417
Mof_C 	C 	0.7086	0.1871	0.0561	-0.125
Mof_H 	H 	0.6661	0.1545	0.0686	0.133
Mof_C 	C 	0.7237	0.1716	0.0183	-0.207
Mof_H 	H 	0.692	0.1284	0.0062	0.085
Mof_O 	O 	0.1337	0.492	0.8035	-0.558
Mof_C 	C 	0.1188	0.4323	0.8082	0.219
Mof_O 	O 	0.1596	0.4116	0.7982	-0.266
Mof_C 	C 	0.0587	0.3825	0.8338	0.828
Mof_C 	C 	0.0296	0.4087	0.8599	-0.847
Mof_H 	H 	0.05	0.4575	0.8635	0.162
Mof_C 	C 	0.9707	0.3635	0.8808	0.504
Mof_H 	H 	0.9498	0.3821	0.898	0.108
Mof_C 	C 	0.9738	0.2665	0.8525	-0.75
Mof_H 	H 	0.9563	0.2179	0.8501	0.282
Mof_C 	C 	0.0317	0.3119	0.8312	-0.81
Mof_H 	H 	0.0538	0.2943	0.8142	0.285
Mof_C 	C 	0.9401	0.2908	0.8777	0.914
Mof_C 	C 	0.8725	0.2377	0.8977	-0.52
Mof_C 	C 	0.8589	0.2507	0.9366	-0.244
Mof_H 	H 	0.8912	0.2923	0.9499	0.119
Mof_O 	O 	0.5469	0.3231	0.13026	-0.443
Mof_C 	C 	0.4242	0.0024	0.858	1.301
Mof_H 	H 	0.4555	0.9858	0.863	-0.414
Mof_C 	C 	0.3666	0.967	0.8334	-1.01
Mof_C 	C 	0.3996	0.1479	0.8908	0.644
Mof_C 	C 	0.3847	0.0838	0.8694	-0.945
Mof_C 	C 	0.4274	0.1607	0.9296	0.095
Mof_H 	H 	0.433	0.1261	0.9432	-0.057
Mof_C 	C 	0.3209	0.99	0.8245	0.58
Mof_H 	H 	0.284	0.9649	0.806	-0.035
Mof_C 	C 	0.3288	0.0502	0.8426	0.481
Mof_H 	H 	0.298	0.0672	0.8371	-0.063
Mof_C 	C 	0.4336	0.0635	0.8748	-0.972
Mof_H 	H 	0.4741	0.0917	0.8902	0.292
Mof_C 	C 	0.4851	0.1895	0.0106	0.139
Mof_H 	H 	0.4797	0.1496	0.9967	-0.04
Mof_C 	C 	0.5072	0.2004	0.05	0.105
Mof_H 	H 	0.5151	0.1672	0.0634	-0.089
Mof_O 	O 	0.4086	0.8897	0.8186	-0.301
Mof_C 	C 	0.3637	0.905	0.8132	0.812
Mof_O 	O 	0.31	0.8646	0.7955	-0.417
Mof_C 	C 	0.4785	0.2914	0.0561	-0.125
Mof_H 	H 	0.4884	0.3339	0.0686	0.133
Mof_C 	C 	0.4479	0.2763	0.0183	-0.213
Mof_H 	H 	0.4364	0.308	0.0062	0.085
Mof_O 	O 	0.3583	0.8663	0.8035	-0.558
Mof_C 	C 	0.3135	0.8812	0.8082	0.219
Mof_O 	O 	0.252	0.8404	0.7982	-0.265
Mof_C 	C 	0.3238	0.9413	0.8338	0.828
Mof_C 	C 	0.3791	0.9704	0.8599	-0.848
Mof_H 	H 	0.4075	0.95	0.8635	0.162
Mof_C 	C 	0.3928	0.0293	0.8808	0.504
Mof_H 	H 	0.4323	0.0502	0.898	0.108
Mof_C 	C 	0.2927	0.0262	0.8525	-0.749
Mof_H 	H 	0.2616	0.0437	0.8501	0.282
Mof_C 	C 	0.2802	0.9683	0.8312	-0.809
Mof_H 	H 	0.2405	0.9462	0.8142	0.285
Mof_C 	C 	0.3507	0.0599	0.8777	0.914
Mof_C 	C 	0.3652	0.1275	0.8977	-0.52
Mof_C 	C 	0.3918	0.1411	0.9366	-0.245
Mof_H 	H 	0.4011	0.1088	0.9499	0.12
Mof_Y 	Y 	0.60919	0.39081	0.31539	2.064
Mof_Y 	Y 	0.60919	0.21838	0.31539	2.064
Mof_Y 	Y 	0.78162	0.39081	0.31539	2.064
Mof_Y 	Y 	0.39081	0.60919	0.81539	2.064
Mof_Y 	Y 	0.39081	0.78162	0.81539	2.064
Mof_Y 	Y 	0.21838	0.60919	0.81539	2.064
Mof_Y 	Y 	0.39081	0.60919	0.68461	2.064
Mof_Y 	Y 	0.21838	0.60919	0.68461	2.064
Mof_Y 	Y 	0.39081	0.78162	0.68461	2.064
Mof_Y 	Y 	0.60919	0.39081	0.18461	2.064
Mof_Y 	Y 	0.78162	0.39081	0.18461	2.064
Mof_Y 	Y 	0.60919	0.21838	0.18461	2.064
Mof_O 	O 	0.59994	0.40006	0.25	-0.543
Mof_O 	O 	0.59994	0.19988	0.25	-0.544
Mof_O 	O 	0.80012	0.40006	0.25	-0.544
Mof_O 	O 	0.40006	0.59994	0.75	-0.543
Mof_O 	O 	0.40006	0.80012	0.75	-0.544
Mof_O 	O 	0.19988	0.59994	0.75	-0.544
Mof_O 	O 	0.72255	0.4451	0.29076	-0.61
Mof_O 	O 	0.5549	0.27745	0.29076	-0.61
Mof_O 	O 	0.72255	0.27745	0.29076	-0.609
Mof_O 	O 	0.27745	0.5549	0.79076	-0.61
Mof_O 	O 	0.4451	0.72255	0.79076	-0.61
Mof_O 	O 	0.27745	0.72255	0.79076	-0.61
Mof_O 	O 	0.4451	0.72255	0.70924	-0.61
Mof_O 	O 	0.27745	0.5549	0.70924	-0.61
Mof_O 	O 	0.27745	0.72255	0.70924	-0.609
Mof_O 	O 	0.5549	0.27745	0.20924	-0.61
Mof_O 	O 	0.72255	0.4451	0.20924	-0.61
Mof_O 	O 	0.72255	0.27745	0.20924	-0.61
Mof_C 	C 	0.4821	0.74105	0.5699	0.075
Mof_C 	C 	0.4577	0.72885	0.6126	0.222
Mof_C 	C 	0.6191	0.80955	0.3709	0.473
Mof_H 	H 	0.6428	0.8214	0.3458	-0.349
Mof_C 	C 	0.5532	0.7766	0.4486	-0.41
Mof_C 	C 	0.5293	0.76465	0.491	-0.033
Mof_C 	C 	0.595	0.7975	0.4561	0.44
Mof_C 	C 	0.5664	0.7832	0.4978	0.056
Mof_C 	C 	0.6493	0.82465	0.3792	-0.617
Mof_H 	H 	0.6696	0.8348	0.3531	0.423
Mof_C 	C 	0.5046	0.7523	0.5764	-0.147
Mof_C 	C 	0.4728	0.7364	0.6169	0.15
Mof_C 	C 	0.25895	0.74105	0.5699	0.076
Mof_C 	C 	0.27115	0.72885	0.6126	0.223
Mof_C 	C 	0.19045	0.80955	0.3709	0.474
Mof_H 	H 	0.1786	0.8214	0.3458	-0.349
Mof_C 	C 	0.2234	0.7766	0.4486	-0.41
Mof_C 	C 	0.23535	0.76465	0.491	-0.033
Mof_C 	C 	0.2025	0.7975	0.4561	0.441
Mof_C 	C 	0.2168	0.7832	0.4978	0.056
Mof_C 	C 	0.17535	0.82465	0.3792	-0.617
Mof_H 	H 	0.1652	0.8348	0.3531	0.423
Mof_C 	C 	0.2477	0.7523	0.5764	-0.147
Mof_C 	C 	0.2636	0.7364	0.6169	0.149
Mof_C 	C 	0.25895	0.5179	0.5699	0.075
Mof_C 	C 	0.27115	0.5423	0.6126	0.222
Mof_C 	C 	0.19045	0.3809	0.3709	0.473
Mof_H 	H 	0.1786	0.3572	0.3458	-0.349
Mof_C 	C 	0.2234	0.4468	0.4486	-0.41
Mof_C 	C 	0.23535	0.4707	0.491	-0.033
Mof_C 	C 	0.2025	0.405	0.4561	0.44
Mof_C 	C 	0.2168	0.4336	0.4978	0.056
Mof_C 	C 	0.17535	0.3507	0.3792	-0.617
Mof_H 	H 	0.1652	0.3304	0.3531	0.423
Mof_C 	C 	0.2477	0.4954	0.5764	-0.147
Mof_C 	C 	0.2636	0.5272	0.6169	0.15
Mof_C 	C 	0.5179	0.25895	0.0699	0.076
Mof_C 	C 	0.5423	0.27115	0.1126	0.223
Mof_C 	C 	0.3809	0.19045	0.8709	0.475
Mof_H 	H 	0.3572	0.1786	0.8458	-0.35
Mof_C 	C 	0.4468	0.2234	0.9486	-0.412
Mof_C 	C 	0.4707	0.23535	0.991	-0.03
Mof_C 	C 	0.405	0.2025	0.9561	0.443
Mof_C 	C 	0.4336	0.2168	0.9978	0.05
Mof_C 	C 	0.3507	0.17535	0.8792	-0.618
Mof_H 	H 	0.3304	0.1652	0.8531	0.424
Mof_C 	C 	0.4954	0.2477	0.0764	-0.147
Mof_C 	C 	0.5272	0.2636	0.1169	0.149
Mof_C 	C 	0.74105	0.25895	0.0699	0.078
Mof_C 	C 	0.72885	0.27115	0.1126	0.223
Mof_C 	C 	0.80955	0.19045	0.8709	0.477
Mof_H 	H 	0.8214	0.1786	0.8458	-0.351
Mof_C 	C 	0.7766	0.2234	0.9486	-0.413
Mof_C 	C 	0.76465	0.23535	0.991	-0.029
Mof_C 	C 	0.7975	0.2025	0.9561	0.446
Mof_C 	C 	0.7832	0.2168	0.9978	0.045
Mof_C 	C 	0.82465	0.17535	0.8792	-0.62
Mof_H 	H 	0.8348	0.1652	0.8531	0.425
Mof_C 	C 	0.7523	0.2477	0.0764	-0.147
Mof_C 	C 	0.7364	0.2636	0.1169	0.149
Mof_C 	C 	0.74105	0.4821	0.0699	0.076
Mof_C 	C 	0.72885	0.4577	0.1126	0.223
Mof_C 	C 	0.80955	0.6191	0.8709	0.475
Mof_H 	H 	0.8214	0.6428	0.8458	-0.35
Mof_C 	C 	0.7766	0.5532	0.9486	-0.412
Mof_C 	C 	0.76465	0.5293	0.991	-0.03
Mof_C 	C 	0.7975	0.595	0.9561	0.443
Mof_C 	C 	0.7832	0.5664	0.9978	0.05
Mof_C 	C 	0.82465	0.6493	0.8792	-0.618
Mof_H 	H 	0.8348	0.6696	0.8531	0.424
Mof_C 	C 	0.7523	0.5046	0.0764	-0.147
Mof_C 	C 	0.7364	0.4728	0.1169	0.149
Mof_C 	C 	0.74105	0.4821	0.4301	0.075
Mof_C 	C 	0.72885	0.4577	0.3874	0.222
Mof_C 	C 	0.80955	0.6191	0.6291	0.473
Mof_H 	H 	0.8214	0.6428	0.6542	-0.349
Mof_C 	C 	0.7766	0.5532	0.5514	-0.41
Mof_C 	C 	0.76465	0.5293	0.509	-0.033
Mof_C 	C 	0.7975	0.595	0.5439	0.44
Mof_C 	C 	0.7832	0.5664	0.5022	0.056
Mof_C 	C 	0.82465	0.6493	0.6208	-0.617
Mof_H 	H 	0.8348	0.6696	0.6469	0.423
Mof_C 	C 	0.7523	0.5046	0.4236	-0.147
Mof_C 	C 	0.7364	0.4728	0.3831	0.15
Mof_C 	C 	0.74105	0.25895	0.4301	0.076
Mof_C 	C 	0.72885	0.27115	0.3874	0.223
Mof_C 	C 	0.80955	0.19045	0.6291	0.474
Mof_H 	H 	0.8214	0.1786	0.6542	-0.349
Mof_C 	C 	0.7766	0.2234	0.5514	-0.41
Mof_C 	C 	0.76465	0.23535	0.509	-0.033
Mof_C 	C 	0.7975	0.2025	0.5439	0.441
Mof_C 	C 	0.7832	0.2168	0.5022	0.056
Mof_C 	C 	0.82465	0.17535	0.6208	-0.617
Mof_H 	H 	0.8348	0.1652	0.6469	0.423
Mof_C 	C 	0.7523	0.2477	0.4236	-0.147
Mof_C 	C 	0.7364	0.2636	0.3831	0.149
Mof_C 	C 	0.5179	0.25895	0.4301	0.075
Mof_C 	C 	0.5423	0.27115	0.3874	0.222
Mof_C 	C 	0.3809	0.19045	0.6291	0.473
Mof_H 	H 	0.3572	0.1786	0.6542	-0.349
Mof_C 	C 	0.4468	0.2234	0.5514	-0.41
Mof_C 	C 	0.4707	0.23535	0.509	-0.033
Mof_C 	C 	0.405	0.2025	0.5439	0.44
Mof_C 	C 	0.4336	0.2168	0.5022	0.056
Mof_C 	C 	0.3507	0.17535	0.6208	-0.617
Mof_H 	H 	0.3304	0.1652	0.6469	0.423
Mof_C 	C 	0.4954	0.2477	0.4236	-0.147
Mof_C 	C 	0.5272	0.2636	0.3831	0.15
Mof_C 	C 	0.25895	0.5179	0.9301	0.076
Mof_C 	C 	0.27115	0.5423	0.8874	0.223
Mof_C 	C 	0.19045	0.3809	0.1291	0.475
Mof_H 	H 	0.1786	0.3572	0.1542	-0.35
Mof_C 	C 	0.2234	0.4468	0.0514	-0.412
Mof_C 	C 	0.23535	0.4707	0.009	-0.03
Mof_C 	C 	0.2025	0.405	0.0439	0.443
Mof_C 	C 	0.2168	0.4336	0.0022	0.05
Mof_C 	C 	0.17535	0.3507	0.1208	-0.618
Mof_H 	H 	0.1652	0.3304	0.1469	0.424
Mof_C 	C 	0.2477	0.4954	0.9236	-0.147
Mof_C 	C 	0.2636	0.5272	0.8831	0.149
Mof_C 	C 	0.25895	0.74105	0.9301	0.078
Mof_C 	C 	0.27115	0.72885	0.8874	0.223
Mof_C 	C 	0.19045	0.80955	0.1291	0.477
Mof_H 	H 	0.1786	0.8214	0.1542	-0.351
Mof_C 	C 	0.2234	0.7766	0.0514	-0.413
Mof_C 	C 	0.23535	0.76465	0.009	-0.029
Mof_C 	C 	0.2025	0.7975	0.0439	0.446
Mof_C 	C 	0.2168	0.7832	0.0022	0.045
Mof_C 	C 	0.17535	0.82465	0.1208	-0.62
Mof_H 	H 	0.1652	0.8348	0.1469	0.425
Mof_C 	C 	0.2477	0.7523	0.9236	-0.147
Mof_C 	C 	0.2636	0.7364	0.8831	0.149
Mof_C 	C 	0.4821	0.74105	0.9301	0.076
Mof_C 	C 	0.4577	0.72885	0.8874	0.223
Mof_C 	C 	0.6191	0.80955	0.1291	0.475
Mof_H 	H 	0.6428	0.8214	0.1542	-0.35
Mof_C 	C 	0.5532	0.7766	0.0514	-0.412
Mof_C 	C 	0.5293	0.76465	0.009	-0.03
Mof_C 	C 	0.595	0.7975	0.0439	0.443
Mof_C 	C 	0.5664	0.7832	0.0022	0.05
Mof_C 	C 	0.6493	0.82465	0.1208	-0.618
Mof_H 	H 	0.6696	0.8348	0.1469	0.424
Mof_C 	C 	0.5046	0.7523	0.9236	-0.147
Mof_C 	C 	0.4728	0.7364	0.8831	0.149
Mof_O 	O 	0.66667	0.33333	0.3294	-0.721
Mof_O 	O 	0.33333	0.66667	0.8294	-0.721
Mof_O 	O 	0.33333	0.66667	0.6706	-0.721
Mof_O 	O 	0.66667	0.33333	0.1706	-0.721
Mof_Y 	Y 	0.7591	0.53721	0.25	0.814
Mof_Y 	Y 	0.46279	0.22189	0.25	0.818
Mof_Y 	Y 	0.77811	0.2409	0.25	0.815
Mof_Y 	Y 	0.2409	0.46279	0.75	0.814
Mof_Y 	Y 	0.53721	0.77811	0.75	0.818
Mof_Y 	Y 	0.22189	0.7591	0.75	0.815
Mof_Y 	Y 	0.53721	0.7591	0.75	0.814
Mof_Y 	Y 	0.22189	0.46279	0.75	0.818
Mof_Y 	Y 	0.2409	0.77811	0.75	0.815
Mof_Y 	Y 	0.46279	0.2409	0.25	0.814
Mof_Y 	Y 	0.77811	0.53721	0.25	0.818
Mof_Y 	Y 	0.7591	0.22189	0.25	0.815
_end
