data_functionalizedCrystal
_audit_creation_method	'EQeq! by Chris Wilmer'
_symmetry_space_group_name_H-M	'P1'
_symmetry_Int_Tables_number	1
_symmetry_cell_setting	triclinic
loop_
_symmetry_equiv_pos_as_xyz
  x,y,z
_cell_length_a	8.9751
_cell_length_b	24.4278
_cell_length_c	12.0085
_cell_angle_alpha	90
_cell_angle_beta	107.797
_cell_angle_gamma	90
loop_
_atom_site_label
_atom_site_type_symbol
_atom_site_fract_x
_atom_site_fract_y
_atom_site_fract_z
_atom_site_charge
Mof_O 	O 	0.358	0.2499	0.4024	-0.351
Mof_O 	O 	0.3343	0.3054	0.5882	-0.369
Mof_N 	N 	0.6272	0.37247	0.6215	-0.245
Mof_C 	C 	0.7205	0.4085	0.5993	0.051
Mof_H 	H 	0.7199	0.4126	0.5205	0.006
Mof_C 	C 	0.8187	0.4405	0.6815	-0.093
Mof_H 	H 	0.8951	0.4625	0.6627	0.077
Mof_C 	C 	0.8048	0.44078	0.8005	0.11
Mof_C 	C 	0.7285	0.4023	0.8148	-0.116
Mof_H 	H 	0.7378	0.3937	0.8938	0.089
Mof_C 	C 	0.6281	0.3686	0.7306	0.076
Mof_H 	H 	0.5614	0.3433	0.7521	0.009
Mof_C 	C 	0.7828	0.3742	0.6628	0.032
Mof_H 	H 	0.8436	0.3515	0.6293	0.029
Mof_C 	C 	0.8596	0.4104	0.7576	-0.08
Mof_H 	H 	0.9704	0.4078	0.7865	0.091
Mof_C 	C 	0.6268	0.4429	0.7586	-0.06
Mof_H 	H 	0.5705	0.4665	0.7941	0.061
Mof_C 	C 	0.5528	0.41	0.6692	0.002
Mof_H 	H 	0.4424	0.4131	0.6376	0.02
Mof_C 	C 	0.8584	0.4747	0.9154	-0
Mof_C 	C 	0.9414	0.4755	0.8825	0.085
Mof_C 	C 	0.2569	0.23452	0.4456	0.223
Mof_O 	O 	0.858	0.7499	0.4024	-0.318
Mof_O 	O 	0.8343	0.8054	0.5882	-0.339
Mof_N 	N 	0.1272	0.87247	0.6215	-0.24
Mof_C 	C 	0.2205	0.9085	0.5993	-0.089
Mof_H 	H 	0.2199	0.9126	0.5205	0.043
Mof_C 	C 	0.3187	0.9405	0.6815	0.044
Mof_H 	H 	0.3951	0.9625	0.6627	0.015
Mof_C 	C 	0.3048	0.94078	0.8005	0.193
Mof_C 	C 	0.2285	0.9023	0.8148	-0.143
Mof_H 	H 	0.2378	0.8937	0.8938	0.081
Mof_C 	C 	0.1281	0.8686	0.7306	0.125
Mof_H 	H 	0.0614	0.8433	0.7521	-0.025
Mof_C 	C 	0.2828	0.8742	0.6628	0.166
Mof_H 	H 	0.3436	0.8515	0.6293	-0.025
Mof_C 	C 	0.3596	0.9104	0.7576	-0.279
Mof_H 	H 	0.4704	0.9078	0.7865	0.136
Mof_C 	C 	0.1268	0.9429	0.7586	-0.042
Mof_H 	H 	0.0705	0.9665	0.7941	0.034
Mof_C 	C 	0.0528	0.91	0.6692	-0.121
Mof_H 	H 	0.9424	0.9131	0.6376	0.103
Mof_C 	C 	0.3584	0.9747	0.9154	0.005
Mof_C 	C 	0.4414	0.9755	0.8825	-0.031
Mof_C 	C 	0.7569	0.73452	0.4456	0.224
Mof_O 	O 	0.642	0.2499	0.5976	-0.342
Mof_O 	O 	0.6657	0.3054	0.4118	-0.357
Mof_N 	N 	0.3728	0.37247	0.3785	-0.245
Mof_C 	C 	0.2795	0.4085	0.4007	0.043
Mof_H 	H 	0.2801	0.4126	0.4795	-0
Mof_C 	C 	0.1813	0.4405	0.3185	-0.084
Mof_H 	H 	0.1049	0.4625	0.3373	0.053
Mof_C 	C 	0.1952	0.44078	0.1995	0.121
Mof_C 	C 	0.2715	0.4023	0.1852	-0.121
Mof_H 	H 	0.2622	0.3937	0.1062	0.083
Mof_C 	C 	0.3719	0.3686	0.2694	0.072
Mof_H 	H 	0.4386	0.3433	0.2479	0.013
Mof_C 	C 	0.2172	0.3742	0.3372	0.037
Mof_H 	H 	0.1564	0.3515	0.3707	0.008
Mof_C 	C 	0.1404	0.4104	0.2424	-0.09
Mof_H 	H 	0.0296	0.4078	0.2135	0.062
Mof_C 	C 	0.3732	0.4429	0.2414	-0.065
Mof_H 	H 	0.4295	0.4665	0.2059	0.067
Mof_C 	C 	0.4472	0.41	0.3308	0.008
Mof_H 	H 	0.5576	0.4131	0.3624	0.024
Mof_C 	C 	0.1416	0.4747	0.0846	0.044
Mof_C 	C 	0.0586	0.4755	0.1175	-0.019
Mof_C 	C 	0.7431	0.23452	0.5544	0.225
Mof_O 	O 	0.142	0.7499	0.5976	-0.366
Mof_O 	O 	0.1657	0.8054	0.4118	-0.379
Mof_N 	N 	0.8728	0.87247	0.3785	-0.246
Mof_C 	C 	0.7795	0.9085	0.4007	0.189
Mof_H 	H 	0.7801	0.9126	0.4795	-0.041
Mof_C 	C 	0.6813	0.9405	0.3185	-0.234
Mof_H 	H 	0.6049	0.9625	0.3373	0.109
Mof_C 	C 	0.6952	0.94078	0.1995	0.073
Mof_C 	C 	0.7715	0.9023	0.1852	-0.122
Mof_H 	H 	0.7622	0.8937	0.1062	0.092
Mof_C 	C 	0.8719	0.8686	0.2694	0.042
Mof_H 	H 	0.9386	0.8433	0.2479	0.043
Mof_C 	C 	0.7172	0.8742	0.3372	-0.096
Mof_H 	H 	0.6564	0.8515	0.3707	0.062
Mof_C 	C 	0.6404	0.9104	0.2424	0.102
Mof_H 	H 	0.5296	0.9078	0.2135	0.012
Mof_C 	C 	0.8732	0.9429	0.2414	-0.086
Mof_H 	H 	0.9295	0.9665	0.2059	0.08
Mof_C 	C 	0.9472	0.91	0.3308	0.122
Mof_H 	H 	0.0576	0.9131	0.3624	-0.059
Mof_C 	C 	0.6416	0.9747	0.0846	0.029
Mof_C 	C 	0.5586	0.9755	0.1175	-0.02
Mof_C 	C 	0.2431	0.73452	0.5544	0.224
Mof_O 	O 	0.642	0.7501	0.5976	-0.343
Mof_O 	O 	0.6657	0.6946	0.4118	-0.357
Mof_N 	N 	0.3728	0.62753	0.3785	-0.245
Mof_C 	C 	0.2795	0.5915	0.4007	0.043
Mof_H 	H 	0.2801	0.5874	0.4795	-0
Mof_C 	C 	0.1813	0.5595	0.3185	-0.084
Mof_H 	H 	0.1049	0.5375	0.3373	0.053
Mof_C 	C 	0.1952	0.55922	0.1995	0.121
Mof_C 	C 	0.2715	0.5977	0.1852	-0.121
Mof_H 	H 	0.2622	0.6063	0.1062	0.083
Mof_C 	C 	0.3719	0.6314	0.2694	0.072
Mof_H 	H 	0.4386	0.6567	0.2479	0.013
Mof_C 	C 	0.2172	0.6258	0.3372	0.037
Mof_H 	H 	0.1564	0.6485	0.3707	0.008
Mof_C 	C 	0.1404	0.5896	0.2424	-0.09
Mof_H 	H 	0.0296	0.5922	0.2135	0.062
Mof_C 	C 	0.3732	0.5571	0.2414	-0.065
Mof_H 	H 	0.4295	0.5335	0.2059	0.067
Mof_C 	C 	0.4472	0.59	0.3308	0.008
Mof_H 	H 	0.5576	0.5869	0.3624	0.024
Mof_C 	C 	0.1416	0.5253	0.0846	0.044
Mof_C 	C 	0.0586	0.5245	0.1175	-0.019
Mof_C 	C 	0.7431	0.76548	0.5544	0.225
Mof_O 	O 	0.142	0.2501	0.5976	-0.366
Mof_O 	O 	0.1657	0.1946	0.4118	-0.379
Mof_N 	N 	0.8728	0.12753	0.3785	-0.244
Mof_C 	C 	0.7795	0.0915	0.4007	0.192
Mof_H 	H 	0.7801	0.0874	0.4795	-0.039
Mof_C 	C 	0.6813	0.0595	0.3185	-0.228
Mof_H 	H 	0.6049	0.0375	0.3373	0.116
Mof_C 	C 	0.6952	0.05922	0.1995	0.052
Mof_C 	C 	0.7715	0.0977	0.1852	-0.108
Mof_H 	H 	0.7622	0.1063	0.1062	0.09
Mof_C 	C 	0.8719	0.1314	0.2694	0.033
Mof_H 	H 	0.9386	0.1567	0.2479	0.046
Mof_C 	C 	0.7172	0.1258	0.3372	-0.102
Mof_H 	H 	0.6564	0.1485	0.3707	0.064
Mof_C 	C 	0.6404	0.0896	0.2424	0.11
Mof_H 	H 	0.5296	0.0922	0.2135	0.009
Mof_C 	C 	0.8732	0.0571	0.2414	-0.08
Mof_H 	H 	0.9295	0.0335	0.2059	0.09
Mof_C 	C 	0.9472	0.09	0.3308	0.125
Mof_H 	H 	0.0576	0.0869	0.3624	-0.056
Mof_C 	C 	0.6416	0.0253	0.0846	0.011
Mof_C 	C 	0.5586	0.0245	0.1175	0.07
Mof_C 	C 	0.2431	0.26548	0.5544	0.224
Mof_O 	O 	0.358	0.7501	0.4024	-0.35
Mof_O 	O 	0.3343	0.6946	0.5882	-0.368
Mof_N 	N 	0.6272	0.62753	0.6215	-0.244
Mof_C 	C 	0.7205	0.5915	0.5993	0.052
Mof_H 	H 	0.7199	0.5874	0.5205	0.007
Mof_C 	C 	0.8187	0.5595	0.6815	-0.092
Mof_H 	H 	0.8951	0.5375	0.6627	0.078
Mof_C 	C 	0.8048	0.55922	0.8005	0.111
Mof_C 	C 	0.7285	0.5977	0.8148	-0.116
Mof_H 	H 	0.7378	0.6063	0.8938	0.09
Mof_C 	C 	0.6281	0.6314	0.7306	0.077
Mof_H 	H 	0.5614	0.6567	0.7521	0.01
Mof_C 	C 	0.7828	0.6258	0.6628	0.033
Mof_H 	H 	0.8436	0.6485	0.6293	0.03
Mof_C 	C 	0.8596	0.5896	0.7576	-0.08
Mof_H 	H 	0.9704	0.5922	0.7865	0.091
Mof_C 	C 	0.6268	0.5571	0.7586	-0.06
Mof_H 	H 	0.5705	0.5335	0.7941	0.061
Mof_C 	C 	0.5528	0.59	0.6692	0.002
Mof_H 	H 	0.4424	0.5869	0.6376	0.02
Mof_C 	C 	0.8584	0.5253	0.9154	-0
Mof_C 	C 	0.9414	0.5245	0.8825	0.085
Mof_C 	C 	0.2569	0.76548	0.4456	0.223
Mof_O 	O 	0.858	0.2501	0.4024	-0.318
Mof_O 	O 	0.8343	0.1946	0.5882	-0.339
Mof_N 	N 	0.1272	0.12753	0.6215	-0.238
Mof_C 	C 	0.2205	0.0915	0.5993	-0.086
Mof_H 	H 	0.2199	0.0874	0.5205	0.046
Mof_C 	C 	0.3187	0.0595	0.6815	0.05
Mof_H 	H 	0.3951	0.0375	0.6627	0.023
Mof_C 	C 	0.3048	0.05922	0.8005	0.172
Mof_C 	C 	0.2285	0.0977	0.8148	-0.129
Mof_H 	H 	0.2378	0.1063	0.8938	0.079
Mof_C 	C 	0.1281	0.1314	0.7306	0.117
Mof_H 	H 	0.0614	0.1567	0.7521	-0.022
Mof_C 	C 	0.2828	0.1258	0.6628	0.16
Mof_H 	H 	0.3436	0.1485	0.6293	-0.022
Mof_C 	C 	0.3596	0.0896	0.7576	-0.272
Mof_H 	H 	0.4704	0.0922	0.7865	0.133
Mof_C 	C 	0.1268	0.0571	0.7586	-0.035
Mof_H 	H 	0.0705	0.0335	0.7941	0.044
Mof_C 	C 	0.0528	0.09	0.6692	-0.118
Mof_H 	H 	0.9424	0.0869	0.6376	0.105
Mof_C 	C 	0.3584	0.0253	0.9154	-0.012
Mof_C 	C 	0.4414	0.0245	0.8825	0.058
Mof_C 	C 	0.7569	0.26548	0.4456	0.224
Mof_Co	Co	0.5	0.31437	0.5	1.164
Mof_Co	Co	3.27496e-33	0.81437	0.5	1.137
Mof_Co	Co	0.5	0.68563	0.5	1.164
Mof_Co	Co	-4.53518e-17	0.18563	0.5	1.137
Mof_C 	C 	-0	0.4403	-0	-0.047
Mof_C 	C 	0.5	0.9403	-0	0.021
Mof_C 	C 	-2.01402e-32	0.5597	-0	-0.047
Mof_C 	C 	0.5	0.0597	-0	0.001
Mof_O 	O 	0.7411	0.5	0.9681	-0.139
Mof_O 	O 	0.0669	0.5	0.8461	-0.233
Mof_O 	O 	0.2411	0	0.9681	-0.152
Mof_O 	O 	0.5669	0	0.8461	-0.151
Mof_O 	O 	0.2589	0.5	0.0319	-0.16
Mof_O 	O 	0.9331	0.5	0.1539	-0.089
Mof_O 	O 	0.7589	0	0.0319	-0.129
Mof_O 	O 	0.4331	0	0.1539	-0.154
_end
