# CIF file generated by openbabel 3.1.0, see https://openbabel.org
data_I
_chemical_name_common 'image0'
_cell_length_a 10.941
_cell_length_b 33.973
_cell_length_c 14.014
_cell_angle_alpha 90
_cell_angle_beta 98.89
_cell_angle_gamma 90
_space_group_name_H-M_alt 'P 1'
_space_group_name_Hall 'P 1'
loop_
    _symmetry_equiv_pos_as_xyz
    x,y,z
loop_
    _atom_site_label
    _atom_site_type_symbol
    _atom_site_fract_x
    _atom_site_fract_y
    _atom_site_fract_z
    _atom_site_occupancy
    Cl1      Cl       0.67800    0.45000    0.28600    1.000
    O1       O        0.35900    0.41480    0.69300    1.000
    O2       O        0.28600    0.35580    0.66300    1.000
    O3       O        0.58600    0.37100    0.60500    1.000
    O4       O        0.55500    0.31040    0.64700    1.000
    O5       O        0.78300    0.46900    0.22800    1.000
    O6       O        0.74000    0.43400    0.37700    1.000
    O7       O        0.62400    0.48600    0.31300    1.000
    O8       O        0.62000    0.41900    0.22200    1.000
    C1       C        0.27400    0.39280    0.66400    1.000
    C2       C        0.14500    0.41040    0.63300    1.000
    C3       C        0.04800    0.38900    0.59600    1.000
    H1       H        0.05960    0.36190    0.58120    1.000
    C4       C        0.92900    0.40400    0.57900    1.000
    H2       H        0.85930    0.38810    0.55860    1.000
    C5       C        0.91500    0.44400    0.59100    1.000
    C6       C        0.00900    0.46600    0.62700    1.000
    H3       H        0.99810    0.49350    0.63690    1.000
    C7       C        0.12600    0.44830    0.65100    1.000
    H4       H        0.19340    0.46380    0.68100    1.000
    N1       N        0.70500    0.28450    0.22600    1.000
    C8       C        0.69900    0.45100    0.61300    1.000
    H5       H        0.71200    0.43030    0.65850    1.000
    C9       C        0.58200    0.46600    0.59100    1.000
    H6       H        0.51410    0.45440    0.61530    1.000
    C10      C        0.56500    0.49800    0.53200    1.000
    C11      C        0.66700    0.51600    0.50500    1.000
    H7       H        0.65970    0.53990    0.47200    1.000
    C12      C        0.78000    0.49800    0.52700    1.000
    H8       H        0.85030    0.50930    0.50640    1.000
    N2       N        0.78800    0.44500    0.52000    1.000
    C13      C        0.70600    0.44100    0.58400    1.000
    C14      C        0.59000    0.46200    0.56100    1.000
    C15      C        0.55800    0.47900    0.48100    1.000
    C16      C        0.63700    0.47400    0.41100    1.000
    C17      C        0.75100    0.45800    0.43400    1.000
    C18      C        0.58600    0.33530    0.59100    1.000
    C19      C        0.62300    0.32160    0.49500    1.000
    C20      C        0.65300    0.34830    0.43000    1.000
    H9       H        0.65490    0.37550    0.44570    1.000
    C21      C        0.67900    0.33630    0.34100    1.000
    H10      H        0.69840    0.35520    0.29510    1.000
    C22      C        0.67800    0.29810    0.31900    1.000
    C23      C        0.64800    0.26930    0.38400    1.000
    H11      H        0.64700    0.24210    0.36810    1.000
    C24      C        0.62000    0.28170    0.47300    1.000
    H12      H        0.59900    0.26300    0.51860    1.000
    C25      C        0.77800    0.25300    0.22000    1.000
    H13      H        0.81710    0.24030    0.27770    1.000
    C26      C        0.79500    0.23880    0.13300    1.000
    H14      H        0.84380    0.21600    0.13000    1.000
    C27      C        0.74200    0.25690    0.04800    1.000
    C28      C        0.68500    0.29300    0.05800    1.000
    H15      H        0.65950    0.30920    0.00320    1.000
    C29      C        0.66500    0.30500    0.14800    1.000
    H16      H        0.62160    0.32860    0.15380    1.000
    N3       N        0.79300    0.46410    0.57600    1.000
    Cl2      Cl       0.17800    0.95000    0.28600    1.000
    O9       O        0.85900    0.91480    0.69300    1.000
    O10      O        0.78600    0.85580    0.66300    1.000
    O11      O        0.08600    0.87100    0.60500    1.000
    O12      O        0.05500    0.81040    0.64700    1.000
    O13      O        0.28300    0.96900    0.22800    1.000
    O14      O        0.24000    0.93400    0.37700    1.000
    O15      O        0.12400    0.98600    0.31300    1.000
    O16      O        0.12000    0.91900    0.22200    1.000
    C30      C        0.77400    0.89280    0.66400    1.000
    C31      C        0.64500    0.91040    0.63300    1.000
    C32      C        0.54800    0.88900    0.59600    1.000
    H17      H        0.55960    0.86190    0.58120    1.000
    C33      C        0.42900    0.90400    0.57900    1.000
    H18      H        0.35930    0.88810    0.55860    1.000
    C34      C        0.41500    0.94400    0.59100    1.000
    C35      C        0.50900    0.96600    0.62700    1.000
    H19      H        0.49810    0.99350    0.63690    1.000
    C36      C        0.62600    0.94830    0.65100    1.000
    H20      H        0.69340    0.96380    0.68100    1.000
    N4       N        0.20500    0.78450    0.22600    1.000
    C37      C        0.19900    0.95100    0.61300    1.000
    H21      H        0.21200    0.93030    0.65850    1.000
    C38      C        0.08200    0.96600    0.59100    1.000
    H22      H        0.01410    0.95440    0.61530    1.000
    C39      C        0.06500    0.99800    0.53200    1.000
    C40      C        0.16700    0.01600    0.50500    1.000
    H23      H        0.15970    0.03990    0.47200    1.000
    C41      C        0.28000    0.99800    0.52700    1.000
    H24      H        0.35030    0.00930    0.50640    1.000
    N5       N        0.28800    0.94500    0.52000    1.000
    C42      C        0.20600    0.94100    0.58400    1.000
    C43      C        0.09000    0.96200    0.56100    1.000
    C44      C        0.05800    0.97900    0.48100    1.000
    C45      C        0.13700    0.97400    0.41100    1.000
    C46      C        0.25100    0.95800    0.43400    1.000
    C47      C        0.08600    0.83530    0.59100    1.000
    C48      C        0.12300    0.82160    0.49500    1.000
    C49      C        0.15300    0.84830    0.43000    1.000
    H25      H        0.15490    0.87550    0.44570    1.000
    C50      C        0.17900    0.83630    0.34100    1.000
    H26      H        0.19840    0.85520    0.29510    1.000
    C51      C        0.17800    0.79810    0.31900    1.000
    C52      C        0.14800    0.76930    0.38400    1.000
    H27      H        0.14700    0.74210    0.36810    1.000
    C53      C        0.12000    0.78170    0.47300    1.000
    H28      H        0.09900    0.76300    0.51860    1.000
    C54      C        0.27800    0.75300    0.22000    1.000
    H29      H        0.31710    0.74030    0.27770    1.000
    C55      C        0.29500    0.73880    0.13300    1.000
    H30      H        0.34380    0.71600    0.13000    1.000
    C56      C        0.24200    0.75690    0.04800    1.000
    C57      C        0.18500    0.79300    0.05800    1.000
    H31      H        0.15950    0.80920    0.00320    1.000
    C58      C        0.16500    0.80500    0.14800    1.000
    H32      H        0.12160    0.82860    0.15380    1.000
    N6       N        0.29300    0.96410    0.57600    1.000
    Cl3      Cl       0.32200    0.45000    0.21400    1.000
    O17      O        0.64100    0.41480    0.80700    1.000
    O18      O        0.71400    0.35580    0.83700    1.000
    O19      O        0.41400    0.37100    0.89500    1.000
    O20      O        0.44500    0.31040    0.85300    1.000
    O21      O        0.21700    0.46900    0.27200    1.000
    O22      O        0.26000    0.43400    0.12300    1.000
    O23      O        0.37600    0.48600    0.18700    1.000
    O24      O        0.38000    0.41900    0.27800    1.000
    C59      C        0.72600    0.39280    0.83600    1.000
    C60      C        0.85500    0.41040    0.86700    1.000
    C61      C        0.95200    0.38900    0.90400    1.000
    H33      H        0.94040    0.36190    0.91880    1.000
    C62      C        0.07100    0.40400    0.92100    1.000
    H34      H        0.14070    0.38810    0.94140    1.000
    C63      C        0.08500    0.44400    0.90900    1.000
    C64      C        0.99100    0.46600    0.87300    1.000
    H35      H        0.00190    0.49350    0.86310    1.000
    C65      C        0.87400    0.44830    0.84900    1.000
    H36      H        0.80660    0.46380    0.81900    1.000
    N7       N        0.29500    0.28450    0.27400    1.000
    C66      C        0.30100    0.45100    0.88700    1.000
    H37      H        0.28800    0.43030    0.84150    1.000
    C67      C        0.41800    0.46600    0.90900    1.000
    H38      H        0.48590    0.45440    0.88470    1.000
    C68      C        0.43500    0.49800    0.96800    1.000
    C69      C        0.33300    0.51600    0.99500    1.000
    H39      H        0.34030    0.53990    0.02800    1.000
    C70      C        0.22000    0.49800    0.97300    1.000
    H40      H        0.14970    0.50930    0.99360    1.000
    N8       N        0.21200    0.44500    0.98000    1.000
    C71      C        0.29400    0.44100    0.91600    1.000
    C72      C        0.41000    0.46200    0.93900    1.000
    C73      C        0.44200    0.47900    0.01900    1.000
    C74      C        0.36300    0.47400    0.08900    1.000
    C75      C        0.24900    0.45800    0.06600    1.000
    C76      C        0.41400    0.33530    0.90900    1.000
    C77      C        0.37700    0.32160    0.00500    1.000
    C78      C        0.34700    0.34830    0.07000    1.000
    H41      H        0.34510    0.37550    0.05430    1.000
    C79      C        0.32100    0.33630    0.15900    1.000
    H42      H        0.30160    0.35520    0.20490    1.000
    C80      C        0.32200    0.29810    0.18100    1.000
    C81      C        0.35200    0.26930    0.11600    1.000
    H43      H        0.35300    0.24210    0.13190    1.000
    C82      C        0.38000    0.28170    0.02700    1.000
    H44      H        0.40100    0.26300    0.98140    1.000
    C83      C        0.22200    0.25300    0.28000    1.000
    H45      H        0.18290    0.24030    0.22230    1.000
    C84      C        0.20500    0.23880    0.36700    1.000
    H46      H        0.15620    0.21600    0.37000    1.000
    C85      C        0.25800    0.25690    0.45200    1.000
    C86      C        0.31500    0.29300    0.44200    1.000
    H47      H        0.34050    0.30920    0.49680    1.000
    C87      C        0.33500    0.30500    0.35200    1.000
    H48      H        0.37840    0.32860    0.34620    1.000
    N9       N        0.20700    0.46410    0.92400    1.000
    Cl4      Cl       0.82200    0.95000    0.21400    1.000
    O25      O        0.14100    0.91480    0.80700    1.000
    O26      O        0.21400    0.85580    0.83700    1.000
    O27      O        0.91400    0.87100    0.89500    1.000
    O28      O        0.94500    0.81040    0.85300    1.000
    O29      O        0.71700    0.96900    0.27200    1.000
    O30      O        0.76000    0.93400    0.12300    1.000
    O31      O        0.87600    0.98600    0.18700    1.000
    O32      O        0.88000    0.91900    0.27800    1.000
    C88      C        0.22600    0.89280    0.83600    1.000
    C89      C        0.35500    0.91040    0.86700    1.000
    C90      C        0.45200    0.88900    0.90400    1.000
    H49      H        0.44040    0.86190    0.91880    1.000
    C91      C        0.57100    0.90400    0.92100    1.000
    H50      H        0.64070    0.88810    0.94140    1.000
    C92      C        0.58500    0.94400    0.90900    1.000
    C93      C        0.49100    0.96600    0.87300    1.000
    H51      H        0.50190    0.99350    0.86310    1.000
    C94      C        0.37400    0.94830    0.84900    1.000
    H52      H        0.30660    0.96380    0.81900    1.000
    N10      N        0.79500    0.78450    0.27400    1.000
    C95      C        0.80100    0.95100    0.88700    1.000
    H53      H        0.78800    0.93030    0.84150    1.000
    C96      C        0.91800    0.96600    0.90900    1.000
    H54      H        0.98590    0.95440    0.88470    1.000
    C97      C        0.93500    0.99800    0.96800    1.000
    C98      C        0.83300    0.01600    0.99500    1.000
    H55      H        0.84030    0.03990    0.02800    1.000
    C99      C        0.72000    0.99800    0.97300    1.000
    H56      H        0.64970    0.00930    0.99360    1.000
    N11      N        0.71200    0.94500    0.98000    1.000
    C100     C        0.79400    0.94100    0.91600    1.000
    C101     C        0.91000    0.96200    0.93900    1.000
    C102     C        0.94200    0.97900    0.01900    1.000
    C103     C        0.86300    0.97400    0.08900    1.000
    C104     C        0.74900    0.95800    0.06600    1.000
    C105     C        0.91400    0.83530    0.90900    1.000
    C106     C        0.87700    0.82160    0.00500    1.000
    C107     C        0.84700    0.84830    0.07000    1.000
    H57      H        0.84510    0.87550    0.05430    1.000
    C108     C        0.82100    0.83630    0.15900    1.000
    H58      H        0.80160    0.85520    0.20490    1.000
    C109     C        0.82200    0.79810    0.18100    1.000
    C110     C        0.85200    0.76930    0.11600    1.000
    H59      H        0.85300    0.74210    0.13190    1.000
    C111     C        0.88000    0.78170    0.02700    1.000
    H60      H        0.90100    0.76300    0.98140    1.000
    C112     C        0.72200    0.75300    0.28000    1.000
    H61      H        0.68290    0.74030    0.22230    1.000
    C113     C        0.70500    0.73880    0.36700    1.000
    H62      H        0.65620    0.71600    0.37000    1.000
    C114     C        0.75800    0.75690    0.45200    1.000
    C115     C        0.81500    0.79300    0.44200    1.000
    H63      H        0.84050    0.80920    0.49680    1.000
    C116     C        0.83500    0.80500    0.35200    1.000
    H64      H        0.87840    0.82860    0.34620    1.000
    N12      N        0.70700    0.96410    0.92400    1.000
    Cl5      Cl       0.32200    0.55000    0.71400    1.000
    O33      O        0.64100    0.58520    0.30700    1.000
    O34      O        0.71400    0.64420    0.33700    1.000
    O35      O        0.41400    0.62900    0.39500    1.000
    O36      O        0.44500    0.68960    0.35300    1.000
    O37      O        0.21700    0.53100    0.77200    1.000
    O38      O        0.26000    0.56600    0.62300    1.000
    O39      O        0.37600    0.51400    0.68700    1.000
    O40      O        0.38000    0.58100    0.77800    1.000
    C117     C        0.72600    0.60720    0.33600    1.000
    C118     C        0.85500    0.58960    0.36700    1.000
    C119     C        0.95200    0.61100    0.40400    1.000
    H65      H        0.94040    0.63810    0.41880    1.000
    C120     C        0.07100    0.59600    0.42100    1.000
    H66      H        0.14070    0.61190    0.44140    1.000
    C121     C        0.08500    0.55600    0.40900    1.000
    C122     C        0.99100    0.53400    0.37300    1.000
    H67      H        0.00190    0.50650    0.36310    1.000
    C123     C        0.87400    0.55170    0.34900    1.000
    H68      H        0.80660    0.53620    0.31900    1.000
    N13      N        0.29500    0.71550    0.77400    1.000
    C124     C        0.30100    0.54900    0.38700    1.000
    H69      H        0.28800    0.56970    0.34150    1.000
    C125     C        0.41800    0.53400    0.40900    1.000
    H70      H        0.48590    0.54560    0.38470    1.000
    C126     C        0.43500    0.50200    0.46800    1.000
    C127     C        0.33300    0.48400    0.49500    1.000
    H71      H        0.34030    0.46010    0.52800    1.000
    C128     C        0.22000    0.50200    0.47300    1.000
    H72      H        0.14970    0.49070    0.49360    1.000
    N14      N        0.21200    0.55500    0.48000    1.000
    C129     C        0.29400    0.55900    0.41600    1.000
    C130     C        0.41000    0.53800    0.43900    1.000
    C131     C        0.44200    0.52100    0.51900    1.000
    C132     C        0.36300    0.52600    0.58900    1.000
    C133     C        0.24900    0.54200    0.56600    1.000
    C134     C        0.41400    0.66470    0.40900    1.000
    C135     C        0.37700    0.67840    0.50500    1.000
    C136     C        0.34700    0.65170    0.57000    1.000
    H73      H        0.34510    0.62450    0.55430    1.000
    C137     C        0.32100    0.66370    0.65900    1.000
    H74      H        0.30160    0.64480    0.70490    1.000
    C138     C        0.32200    0.70190    0.68100    1.000
    C139     C        0.35200    0.73070    0.61600    1.000
    H75      H        0.35300    0.75790    0.63190    1.000
    C140     C        0.38000    0.71830    0.52700    1.000
    H76      H        0.40100    0.73700    0.48140    1.000
    C141     C        0.22200    0.74700    0.78000    1.000
    H77      H        0.18290    0.75970    0.72230    1.000
    C142     C        0.20500    0.76120    0.86700    1.000
    H78      H        0.15620    0.78400    0.87000    1.000
    C143     C        0.25800    0.74310    0.95200    1.000
    C144     C        0.31500    0.70700    0.94200    1.000
    H79      H        0.34050    0.69080    0.99680    1.000
    C145     C        0.33500    0.69500    0.85200    1.000
    H80      H        0.37840    0.67140    0.84620    1.000
    N15      N        0.20700    0.53590    0.42400    1.000
    Cl6      Cl       0.82200    0.05000    0.71400    1.000
    O41      O        0.14100    0.08520    0.30700    1.000
    O42      O        0.21400    0.14420    0.33700    1.000
    O43      O        0.91400    0.12900    0.39500    1.000
    O44      O        0.94500    0.18960    0.35300    1.000
    O45      O        0.71700    0.03100    0.77200    1.000
    O46      O        0.76000    0.06600    0.62300    1.000
    O47      O        0.87600    0.01400    0.68700    1.000
    O48      O        0.88000    0.08100    0.77800    1.000
    C146     C        0.22600    0.10720    0.33600    1.000
    C147     C        0.35500    0.08960    0.36700    1.000
    C148     C        0.45200    0.11100    0.40400    1.000
    H81      H        0.44040    0.13810    0.41880    1.000
    C149     C        0.57100    0.09600    0.42100    1.000
    H82      H        0.64070    0.11190    0.44140    1.000
    C150     C        0.58500    0.05600    0.40900    1.000
    C151     C        0.49100    0.03400    0.37300    1.000
    H83      H        0.50190    0.00650    0.36310    1.000
    C152     C        0.37400    0.05170    0.34900    1.000
    H84      H        0.30660    0.03620    0.31900    1.000
    N16      N        0.79500    0.21550    0.77400    1.000
    C153     C        0.80100    0.04900    0.38700    1.000
    H85      H        0.78800    0.06970    0.34150    1.000
    C154     C        0.91800    0.03400    0.40900    1.000
    H86      H        0.98590    0.04560    0.38470    1.000
    C155     C        0.93500    0.00200    0.46800    1.000
    C156     C        0.83300    0.98400    0.49500    1.000
    H87      H        0.84030    0.96010    0.52800    1.000
    C157     C        0.72000    0.00200    0.47300    1.000
    H88      H        0.64970    0.99070    0.49360    1.000
    N17      N        0.71200    0.05500    0.48000    1.000
    C158     C        0.79400    0.05900    0.41600    1.000
    C159     C        0.91000    0.03800    0.43900    1.000
    C160     C        0.94200    0.02100    0.51900    1.000
    C161     C        0.86300    0.02600    0.58900    1.000
    C162     C        0.74900    0.04200    0.56600    1.000
    C163     C        0.91400    0.16470    0.40900    1.000
    C164     C        0.87700    0.17840    0.50500    1.000
    C165     C        0.84700    0.15170    0.57000    1.000
    H89      H        0.84510    0.12450    0.55430    1.000
    C166     C        0.82100    0.16370    0.65900    1.000
    H90      H        0.80160    0.14480    0.70490    1.000
    C167     C        0.82200    0.20190    0.68100    1.000
    C168     C        0.85200    0.23070    0.61600    1.000
    H91      H        0.85300    0.25790    0.63190    1.000
    C169     C        0.88000    0.21830    0.52700    1.000
    H92      H        0.90100    0.23700    0.48140    1.000
    C170     C        0.72200    0.24700    0.78000    1.000
    H93      H        0.68290    0.25970    0.72230    1.000
    C171     C        0.70500    0.26120    0.86700    1.000
    H94      H        0.65620    0.28400    0.87000    1.000
    C172     C        0.75800    0.24310    0.95200    1.000
    C173     C        0.81500    0.20700    0.94200    1.000
    H95      H        0.84050    0.19080    0.99680    1.000
    C174     C        0.83500    0.19500    0.85200    1.000
    H96      H        0.87840    0.17140    0.84620    1.000
    N18      N        0.70700    0.03590    0.42400    1.000
    Cl7      Cl       0.67800    0.55000    0.78600    1.000
    O49      O        0.35900    0.58520    0.19300    1.000
    O50      O        0.28600    0.64420    0.16300    1.000
    O51      O        0.58600    0.62900    0.10500    1.000
    O52      O        0.55500    0.68960    0.14700    1.000
    O53      O        0.78300    0.53100    0.72800    1.000
    O54      O        0.74000    0.56600    0.87700    1.000
    O55      O        0.62400    0.51400    0.81300    1.000
    O56      O        0.62000    0.58100    0.72200    1.000
    C175     C        0.27400    0.60720    0.16400    1.000
    C176     C        0.14500    0.58960    0.13300    1.000
    C177     C        0.04800    0.61100    0.09600    1.000
    H97      H        0.05960    0.63810    0.08120    1.000
    C178     C        0.92900    0.59600    0.07900    1.000
    H98      H        0.85930    0.61190    0.05860    1.000
    C179     C        0.91500    0.55600    0.09100    1.000
    C180     C        0.00900    0.53400    0.12700    1.000
    H99      H        0.99810    0.50650    0.13690    1.000
    C181     C        0.12600    0.55170    0.15100    1.000
    H100     H        0.19340    0.53620    0.18100    1.000
    N19      N        0.70500    0.71550    0.72600    1.000
    C182     C        0.69900    0.54900    0.11300    1.000
    H101     H        0.71200    0.56970    0.15850    1.000
    C183     C        0.58200    0.53400    0.09100    1.000
    H102     H        0.51410    0.54560    0.11530    1.000
    C184     C        0.56500    0.50200    0.03200    1.000
    C185     C        0.66700    0.48400    0.00500    1.000
    H103     H        0.65970    0.46010    0.97200    1.000
    C186     C        0.78000    0.50200    0.02700    1.000
    H104     H        0.85030    0.49070    0.00640    1.000
    N20      N        0.78800    0.55500    0.02000    1.000
    C187     C        0.70600    0.55900    0.08400    1.000
    C188     C        0.59000    0.53800    0.06100    1.000
    C189     C        0.55800    0.52100    0.98100    1.000
    C190     C        0.63700    0.52600    0.91100    1.000
    C191     C        0.75100    0.54200    0.93400    1.000
    C192     C        0.58600    0.66470    0.09100    1.000
    C193     C        0.62300    0.67840    0.99500    1.000
    C194     C        0.65300    0.65170    0.93000    1.000
    H105     H        0.65490    0.62450    0.94570    1.000
    C195     C        0.67900    0.66370    0.84100    1.000
    H106     H        0.69840    0.64480    0.79510    1.000
    C196     C        0.67800    0.70190    0.81900    1.000
    C197     C        0.64800    0.73070    0.88400    1.000
    H107     H        0.64700    0.75790    0.86810    1.000
    C198     C        0.62000    0.71830    0.97300    1.000
    H108     H        0.59900    0.73700    0.01860    1.000
    C199     C        0.77800    0.74700    0.72000    1.000
    H109     H        0.81710    0.75970    0.77770    1.000
    C200     C        0.79500    0.76120    0.63300    1.000
    H110     H        0.84380    0.78400    0.63000    1.000
    C201     C        0.74200    0.74310    0.54800    1.000
    C202     C        0.68500    0.70700    0.55800    1.000
    H111     H        0.65950    0.69080    0.50320    1.000
    C203     C        0.66500    0.69500    0.64800    1.000
    H112     H        0.62160    0.67140    0.65380    1.000
    N21      N        0.79300    0.53590    0.07600    1.000
    Cl8      Cl       0.17800    0.05000    0.78600    1.000
    O57      O        0.85900    0.08520    0.19300    1.000
    O58      O        0.78600    0.14420    0.16300    1.000
    O59      O        0.08600    0.12900    0.10500    1.000
    O60      O        0.05500    0.18960    0.14700    1.000
    O61      O        0.28300    0.03100    0.72800    1.000
    O62      O        0.24000    0.06600    0.87700    1.000
    O63      O        0.12400    0.01400    0.81300    1.000
    O64      O        0.12000    0.08100    0.72200    1.000
    C204     C        0.77400    0.10720    0.16400    1.000
    C205     C        0.64500    0.08960    0.13300    1.000
    C206     C        0.54800    0.11100    0.09600    1.000
    H113     H        0.55960    0.13810    0.08120    1.000
    C207     C        0.42900    0.09600    0.07900    1.000
    H114     H        0.35930    0.11190    0.05860    1.000
    C208     C        0.41500    0.05600    0.09100    1.000
    C209     C        0.50900    0.03400    0.12700    1.000
    H115     H        0.49810    0.00650    0.13690    1.000
    C210     C        0.62600    0.05170    0.15100    1.000
    H116     H        0.69340    0.03620    0.18100    1.000
    N22      N        0.20500    0.21550    0.72600    1.000
    C211     C        0.19900    0.04900    0.11300    1.000
    H117     H        0.21200    0.06970    0.15850    1.000
    C212     C        0.08200    0.03400    0.09100    1.000
    H118     H        0.01410    0.04560    0.11530    1.000
    C213     C        0.06500    0.00200    0.03200    1.000
    C214     C        0.16700    0.98400    0.00500    1.000
    H119     H        0.15970    0.96010    0.97200    1.000
    C215     C        0.28000    0.00200    0.02700    1.000
    H120     H        0.35030    0.99070    0.00640    1.000
    N23      N        0.28800    0.05500    0.02000    1.000
    C216     C        0.20600    0.05900    0.08400    1.000
    C217     C        0.09000    0.03800    0.06100    1.000
    C218     C        0.05800    0.02100    0.98100    1.000
    C219     C        0.13700    0.02600    0.91100    1.000
    C220     C        0.25100    0.04200    0.93400    1.000
    C221     C        0.08600    0.16470    0.09100    1.000
    C222     C        0.12300    0.17840    0.99500    1.000
    C223     C        0.15300    0.15170    0.93000    1.000
    H121     H        0.15490    0.12450    0.94570    1.000
    C224     C        0.17900    0.16370    0.84100    1.000
    H122     H        0.19840    0.14480    0.79510    1.000
    C225     C        0.17800    0.20190    0.81900    1.000
    C226     C        0.14800    0.23070    0.88400    1.000
    H123     H        0.14700    0.25790    0.86810    1.000
    C227     C        0.12000    0.21830    0.97300    1.000
    H124     H        0.09900    0.23700    0.01860    1.000
    C228     C        0.27800    0.24700    0.72000    1.000
    H125     H        0.31710    0.25970    0.77770    1.000
    C229     C        0.29500    0.26120    0.63300    1.000
    H126     H        0.34380    0.28400    0.63000    1.000
    C230     C        0.24200    0.24310    0.54800    1.000
    C231     C        0.18500    0.20700    0.55800    1.000
    H127     H        0.15950    0.19080    0.50320    1.000
    C232     C        0.16500    0.19500    0.64800    1.000
    H128     H        0.12160    0.17140    0.65380    1.000
    N24      N        0.29300    0.03590    0.07600    1.000
    Cd1      Cd       0.50000    0.36359    0.75000    1.000
    Cd2      Cd       0.00000    0.86359    0.75000    1.000
    Cd3      Cd       0.50000    0.63641    0.25000    1.000
    Cd4      Cd       0.00000    0.13641    0.25000    1.000
