# CIF file generated by openbabel 3.1.0, see https://openbabel.org
data_I
_chemical_name_common 'image0'
_cell_length_a 14.328
_cell_length_b 14.328
_cell_length_c 10.0966
_cell_angle_alpha 90
_cell_angle_beta 90
_cell_angle_gamma 120
_space_group_name_H-M_alt 'P 1'
_space_group_name_Hall 'P 1'
loop_
    _symmetry_equiv_pos_as_xyz
    x,y,z
loop_
    _atom_site_label
    _atom_site_type_symbol
    _atom_site_fract_x
    _atom_site_fract_y
    _atom_site_fract_z
    _atom_site_occupancy
    Eu1      Eu       0.58407    0.14347    0.61308    1.000
    S1       S        0.33717    0.14357    0.57498    1.000
    S2       S        0.52440    0.00489    0.36328    1.000
    O1       O        0.57412    0.12260    0.36710    1.000
    O2       O        0.41705    0.95305    0.30030    1.000
    O3       O        0.51624    0.96889    0.50150    1.000
    O4       O        0.58764    0.97063    0.28120    1.000
    O5       O        0.24741    0.09469    0.47920    1.000
    O6       O        0.40360    0.25905    0.54530    1.000
    O7       O        0.40363    0.09230    0.55650    1.000
    O8       O        0.29497    0.12490    0.70960    1.000
    O9       O        0.72241    0.44457    0.76640    1.000
    Eu2      Eu       0.85653    0.44060    0.61308    1.000
    S3       S        0.85643    0.19360    0.57498    1.000
    S4       S        0.99511    0.51951    0.36328    1.000
    O10      O        0.87740    0.45152    0.36710    1.000
    O11      O        0.04695    0.46400    0.30030    1.000
    O12      O        0.03111    0.54735    0.50150    1.000
    O13      O        0.02937    0.61701    0.28120    1.000
    O14      O        0.90531    0.15272    0.47920    1.000
    O15      O        0.74095    0.14455    0.54530    1.000
    O16      O        0.90770    0.31133    0.55650    1.000
    O17      O        0.87510    0.17007    0.70960    1.000
    O18      O        0.55543    0.27784    0.76640    1.000
    Eu3      Eu       0.55940    0.41593    0.61308    1.000
    S5       S        0.80640    0.66283    0.57498    1.000
    S6       S        0.48049    0.47560    0.36328    1.000
    O19      O        0.54848    0.42588    0.36710    1.000
    O20      O        0.53600    0.58295    0.30030    1.000
    O21      O        0.45265    0.48376    0.50150    1.000
    O22      O        0.38299    0.41236    0.28120    1.000
    O23      O        0.84728    0.75259    0.47920    1.000
    O24      O        0.85545    0.59640    0.54530    1.000
    O25      O        0.68867    0.59637    0.55650    1.000
    O26      O        0.82993    0.70503    0.70960    1.000
    O27      O        0.72216    0.27759    0.76640    1.000
    Eu4      Eu       0.14347    0.58407    0.11308    1.000
    S7       S        0.14357    0.33717    0.07498    1.000
    S8       S        0.00489    0.52440    0.86328    1.000
    O28      O        0.12260    0.57412    0.86710    1.000
    O29      O        0.95305    0.41705    0.80030    1.000
    O30      O        0.96889    0.51624    0.00150    1.000
    O31      O        0.97063    0.58764    0.78120    1.000
    O32      O        0.09469    0.24741    0.97920    1.000
    O33      O        0.25905    0.40360    0.04530    1.000
    O34      O        0.09230    0.40363    0.05650    1.000
    O35      O        0.12490    0.29497    0.20960    1.000
    O36      O        0.44457    0.72241    0.26640    1.000
    Eu5      Eu       0.44060    0.85653    0.11308    1.000
    S9       S        0.19360    0.85643    0.07498    1.000
    S10      S        0.51951    0.99511    0.86328    1.000
    O37      O        0.45152    0.87740    0.86710    1.000
    O38      O        0.46400    0.04695    0.80030    1.000
    O39      O        0.54735    0.03111    0.00150    1.000
    O40      O        0.61701    0.02937    0.78120    1.000
    O41      O        0.15272    0.90531    0.97920    1.000
    O42      O        0.14455    0.74095    0.04530    1.000
    O43      O        0.31133    0.90770    0.05650    1.000
    O44      O        0.17007    0.87510    0.20960    1.000
    O45      O        0.27784    0.55543    0.26640    1.000
    Eu6      Eu       0.41593    0.55940    0.11308    1.000
    S11      S        0.66283    0.80640    0.07498    1.000
    S12      S        0.47560    0.48049    0.86328    1.000
    O46      O        0.42588    0.54848    0.86710    1.000
    O47      O        0.58295    0.53600    0.80030    1.000
    O48      O        0.48376    0.45265    0.00150    1.000
    O49      O        0.41236    0.38299    0.78120    1.000
    O50      O        0.75259    0.84728    0.97920    1.000
    O51      O        0.59640    0.85545    0.04530    1.000
    O52      O        0.59637    0.68867    0.05650    1.000
    O53      O        0.70503    0.82993    0.20960    1.000
    O54      O        0.27759    0.72216    0.26640    1.000
    S13      S        0.66667    0.33333    0.82408    1.000
    O55      O        0.66667    0.33333    0.96570    1.000
    O56      O        0.66667    0.33333    0.52840    1.000
    S14      S        0.33333    0.66667    0.32408    1.000
    O57      O        0.33333    0.66667    0.46570    1.000
    O58      O        0.33333    0.66667    0.02840    1.000
