data_functionalizedCrystal
_audit_creation_method	'EQeq! by Chris Wilmer'
_symmetry_space_group_name_H-M	'P1'
_symmetry_Int_Tables_number	1
_symmetry_cell_setting	triclinic
loop_
_symmetry_equiv_pos_as_xyz
  x,y,z
_cell_length_a	9.5182
_cell_length_b	24.246
_cell_length_c	24.685
_cell_angle_alpha	90.96
_cell_angle_beta	90
_cell_angle_gamma	90
loop_
_atom_site_label
_atom_site_type_symbol
_atom_site_fract_x
_atom_site_fract_y
_atom_site_fract_z
_atom_site_charge
Mof_Co	Co	0.95856	0.26579	0.68027	1.102
Mof_Co	Co	0.32458	0.16074	0.51706	1.105
Mof_Co	Co	0.26885	0.9696	0.3615	1.103
Mof_Co	Co	0.73736	0.48596	0.72162	1.102
Mof_Co	Co	0.46594	0.28475	0.31646	1.107
Mof_Co	Co	0.45856	0.23421	0.81973	1.102
Mof_Co	Co	0.82458	0.33926	0.98294	1.103
Mof_Co	Co	0.76885	0.5304	0.1385	1.103
Mof_Co	Co	0.23736	0.01404	0.77838	1.102
Mof_Co	Co	0.96594	0.21525	0.18354	1.107
Mof_Co	Co	0.04144	0.73421	0.31973	1.101
Mof_Co	Co	0.67542	0.83926	0.48294	1.104
Mof_Co	Co	0.73115	0.0304	0.6385	1.103
Mof_Co	Co	0.26264	0.51404	0.27838	1.102
Mof_Co	Co	0.53406	0.71525	0.68354	1.107
Mof_Co	Co	0.54144	0.76579	0.18027	1.102
Mof_Co	Co	0.17542	0.66074	0.01706	1.103
Mof_Co	Co	0.23115	0.4696	0.8615	1.103
Mof_Co	Co	0.76264	0.98596	0.22162	1.102
Mof_Co	Co	0.03406	0.78475	0.81646	1.107
Mof_H 	H 	0.9292	0.3871	0.7184	-0.064
Mof_H 	H 	0.6699	0.2791	0.7333	-0.055
Mof_H 	H 	0.9265	0.1595	0.7603	-0.003
Mof_H 	H 	0.7203	0.1464	0.8174	-0.001
Mof_H 	H 	0.2136	0.2209	0.6199	-0.058
Mof_H 	H 	0.8315	0.2098	0.5681	0.003
Mof_H 	H 	0.9871	0.1707	0.4994	-0.007
Mof_H 	H 	0.3538	0.0866	0.4104	-0.059
Mof_H 	H 	0.1618	0.0507	0.5417	-0.004
Mof_H 	H 	0.1422	0.972	0.4812	-0.003
Mof_H 	H 	0.5261	0.0717	0.5512	-0.053
Mof_H 	H 	0.481	0.2115	0.6293	-0
Mof_H 	H 	0.6585	0.1583	0.6758	0.002
Mof_H 	H 	0.4379	0.5045	0.7694	-0.063
Mof_H 	H 	0.7086	0.3994	0.8191	-0.006
Mof_H 	H 	0.5023	0.3906	0.8749	0.001
Mof_H 	H 	0.9421	0.4559	0.8144	-0.061
Mof_H 	H 	0.3005	0.2151	0.4007	-0.066
Mof_H 	H 	0.639	0.6074	0.742	-0.07
Mof_H 	H 	0.6719	0.2118	0.2442	-0.063
Mof_H 	H 	0.686	0.3103	0.6173	0
Mof_H 	H 	0.5982	0.4044	0.6282	0.003
Mof_H 	H 	0.008	0.5625	0.7012	0.003
Mof_H 	H 	0.2156	0.5557	0.7583	0.001
Mof_H 	H 	0.5929	0.237	0.5065	0.004
Mof_H 	H 	0.6479	0.2889	0.4262	0.001
Mof_H 	H 	0.7297	0.5405	0.6053	-0.001
Mof_H 	H 	0.6535	0.6365	0.5908	0.003
Mof_H 	H 	0.8919	0.3376	0.2134	-0
Mof_H 	H 	0.7012	0.3653	0.2739	0
Mof_H 	H 	0.4292	0.1129	0.7816	-0.064
Mof_H 	H 	0.1699	0.2209	0.7667	-0.054
Mof_H 	H 	0.4265	0.3405	0.7397	-0.002
Mof_H 	H 	0.2203	0.3536	0.6826	-0.001
Mof_H 	H 	0.7136	0.2791	0.8801	-0.058
Mof_H 	H 	0.3315	0.2902	0.9319	-0
Mof_H 	H 	0.4871	0.3293	0.0006	-0.001
Mof_H 	H 	0.8538	0.4134	0.0896	-0.059
Mof_H 	H 	0.6618	0.4493	0.9583	-0.004
Mof_H 	H 	0.6422	0.528	0.0188	-0.002
Mof_H 	H 	0.0261	0.4283	0.9488	-0.053
Mof_H 	H 	0.981	0.2885	0.8707	-0.005
Mof_H 	H 	0.1585	0.3417	0.8242	0.004
Mof_H 	H 	0.9379	0.9955	0.7306	-0.059
Mof_H 	H 	0.2086	0.1006	0.6809	-0.006
Mof_H 	H 	0.0023	0.1094	0.6251	0
Mof_H 	H 	0.4421	0.0441	0.6856	-0.06
Mof_H 	H 	0.8005	0.2849	0.0993	-0.066
Mof_H 	H 	0.139	0.8926	0.758	-0.07
Mof_H 	H 	0.1719	0.2882	0.2558	-0.063
Mof_H 	H 	0.186	0.1897	0.8827	0.001
Mof_H 	H 	0.0982	0.0956	0.8718	0.004
Mof_H 	H 	0.508	0.9375	0.7988	0.004
Mof_H 	H 	0.7156	0.9443	0.7417	0.001
Mof_H 	H 	0.0929	0.263	0.9935	0.004
Mof_H 	H 	0.1479	0.2111	0.0738	0.001
Mof_H 	H 	0.2297	0.9595	0.8947	-0
Mof_H 	H 	0.1535	0.8635	0.9092	0.003
Mof_H 	H 	0.3919	0.1624	0.2866	-0
Mof_H 	H 	0.2012	0.1347	0.2261	0
Mof_H 	H 	0.0708	0.6129	0.2816	-0.064
Mof_H 	H 	0.3301	0.7209	0.2667	-0.055
Mof_H 	H 	0.0735	0.8405	0.2397	-0.003
Mof_H 	H 	0.2797	0.8536	0.1826	-0.001
Mof_H 	H 	0.7864	0.7791	0.3801	-0.058
Mof_H 	H 	0.1685	0.7902	0.4319	0.003
Mof_H 	H 	0.0129	0.8293	0.5006	-0.007
Mof_H 	H 	0.6462	0.9134	0.5896	-0.059
Mof_H 	H 	0.8382	0.9493	0.4583	-0.004
Mof_H 	H 	0.8578	0.028	0.5188	-0.003
Mof_H 	H 	0.4739	0.9283	0.4488	-0.053
Mof_H 	H 	0.519	0.7885	0.3707	-0
Mof_H 	H 	0.3415	0.8417	0.3242	0.002
Mof_H 	H 	0.5621	0.4955	0.2306	-0.063
Mof_H 	H 	0.2914	0.6006	0.1809	-0.006
Mof_H 	H 	0.4977	0.6094	0.1251	0.001
Mof_H 	H 	0.0579	0.5441	0.1856	-0.061
Mof_H 	H 	0.6995	0.7849	0.5993	-0.066
Mof_H 	H 	0.361	0.3926	0.258	-0.07
Mof_H 	H 	0.3281	0.7882	0.7558	-0.063
Mof_H 	H 	0.314	0.6897	0.3827	0
Mof_H 	H 	0.4018	0.5956	0.3718	0.003
Mof_H 	H 	0.992	0.4375	0.2988	0.003
Mof_H 	H 	0.7844	0.4443	0.2417	0.001
Mof_H 	H 	0.4071	0.763	0.4935	0.004
Mof_H 	H 	0.3521	0.7111	0.5738	0.001
Mof_H 	H 	0.2703	0.4595	0.3947	-0.001
Mof_H 	H 	0.3465	0.3635	0.4092	0.003
Mof_H 	H 	0.1081	0.6624	0.7866	-0
Mof_H 	H 	0.2988	0.6347	0.7261	0
Mof_H 	H 	0.5708	0.8871	0.2184	-0.064
Mof_H 	H 	0.8301	0.7791	0.2333	-0.054
Mof_H 	H 	0.5735	0.6595	0.2603	-0.002
Mof_H 	H 	0.7797	0.6464	0.3174	-0.001
Mof_H 	H 	0.2864	0.7209	0.1199	-0.058
Mof_H 	H 	0.6685	0.7098	0.0681	-0
Mof_H 	H 	0.5129	0.6707	0.9994	-0.001
Mof_H 	H 	0.1462	0.5866	0.9104	-0.059
Mof_H 	H 	0.3382	0.5507	0.0417	-0.004
Mof_H 	H 	0.3578	0.472	0.9812	-0.002
Mof_H 	H 	0.9739	0.5717	0.0512	-0.053
Mof_H 	H 	0.019	0.7115	0.1293	-0.005
Mof_H 	H 	0.8415	0.6583	0.1758	0.004
Mof_H 	H 	0.0621	0.0045	0.2694	-0.059
Mof_H 	H 	0.7914	0.8994	0.3191	-0.006
Mof_H 	H 	0.9977	0.8906	0.3749	0
Mof_H 	H 	0.5579	0.9559	0.3144	-0.06
Mof_H 	H 	0.1995	0.7151	0.9007	-0.066
Mof_H 	H 	0.861	0.1074	0.242	-0.07
Mof_H 	H 	0.8281	0.7118	0.7442	-0.063
Mof_H 	H 	0.814	0.8103	0.1173	0.001
Mof_H 	H 	0.9018	0.9044	0.1282	0.004
Mof_H 	H 	0.492	0.0625	0.2012	0.004
Mof_H 	H 	0.2844	0.0557	0.2583	0.001
Mof_H 	H 	0.9071	0.737	0.0065	0.004
Mof_H 	H 	0.8521	0.7889	0.9262	0.001
Mof_H 	H 	0.7703	0.0405	0.1053	-0
Mof_H 	H 	0.8465	0.1365	0.0908	0.003
Mof_H 	H 	0.6081	0.8376	0.7134	-0
Mof_H 	H 	0.7988	0.8653	0.7739	0
Mof_C 	C 	0.8654	0.3815	0.6903	0.097
Mof_C 	C 	0.7093	0.2473	0.7475	0.091
Mof_C 	C 	0.849	0.1828	0.7617	-0.005
Mof_C 	C 	0.7342	0.1752	0.7936	-0.015
Mof_C 	C 	0.1367	0.2135	0.5977	0.093
Mof_C 	C 	0.9289	0.2079	0.5706	-0.014
Mof_C 	C 	0.0156	0.186	0.5325	-0.001
Mof_C 	C 	0.3025	0.0677	0.4362	0.102
Mof_C 	C 	0.1996	0.0486	0.507	-0.006
Mof_C 	C 	0.1878	0.0049	0.4735	-0.009
Mof_C 	C 	0.5371	0.1003	0.5764	0.079
Mof_C 	C 	0.5116	0.1765	0.6188	-0.008
Mof_C 	C 	0.6107	0.1471	0.6446	-0.018
Mof_C 	C 	0.4813	0.477	0.7892	0.101
Mof_C 	C 	0.6273	0.4203	0.8158	-0.008
Mof_C 	C 	0.5134	0.4153	0.8469	-0.019
Mof_C 	C 	0.9828	0.4847	0.7957	0.102
Mof_C 	C 	0.3891	0.2225	0.415	0.113
Mof_C 	C 	0.6314	0.6001	0.705	0.116
Mof_C 	C 	0.7122	0.2464	0.2495	0.117
Mof_C 	C 	0.7306	0.3388	0.6363	-0.012
Mof_C 	C 	0.6807	0.3906	0.6429	-0.02
Mof_C 	C 	0.017	0.5417	0.7323	-0.023
Mof_C 	C 	0.1312	0.5376	0.7645	-0.005
Mof_C 	C 	0.543	0.2359	0.4741	-0.02
Mof_C 	C 	0.5743	0.2639	0.429	-0.014
Mof_C 	C 	0.6888	0.5638	0.6312	-0.017
Mof_C 	C 	0.6468	0.6174	0.6231	-0.021
Mof_C 	C 	0.8304	0.3138	0.2307	-0.018
Mof_C 	C 	0.7215	0.3291	0.2635	-0.013
Mof_C 	C 	0.3654	0.1185	0.8097	0.097
Mof_C 	C 	0.2093	0.2527	0.7525	0.091
Mof_C 	C 	0.349	0.3172	0.7383	-0.004
Mof_C 	C 	0.2342	0.3248	0.7064	-0.015
Mof_C 	C 	0.6367	0.2865	0.9023	0.093
Mof_C 	C 	0.4289	0.2921	0.9294	-0.003
Mof_C 	C 	0.5156	0.314	0.9675	-0.013
Mof_C 	C 	0.8025	0.4323	0.0638	0.102
Mof_C 	C 	0.6996	0.4514	0.993	-0.007
Mof_C 	C 	0.6878	0.4951	0.0265	-0.01
Mof_C 	C 	0.0371	0.3997	0.9236	0.081
Mof_C 	C 	0.0116	0.3235	0.8812	0.001
Mof_C 	C 	0.1107	0.3529	0.8554	-0.022
Mof_C 	C 	0.9813	0.023	0.7108	0.095
Mof_C 	C 	0.1273	0.0797	0.6842	-0.008
Mof_C 	C 	0.0134	0.0847	0.6531	-0.016
Mof_C 	C 	0.4828	0.0153	0.7043	0.101
Mof_C 	C 	0.8891	0.2775	0.085	0.113
Mof_C 	C 	0.1314	0.8999	0.795	0.116
Mof_C 	C 	0.2122	0.2536	0.2505	0.117
Mof_C 	C 	0.2306	0.1612	0.8637	-0.012
Mof_C 	C 	0.1807	0.1094	0.8571	-0.02
Mof_C 	C 	0.517	0.9583	0.7677	-0.024
Mof_C 	C 	0.6312	0.9624	0.7355	-0.004
Mof_C 	C 	0.043	0.2641	0.0259	-0.018
Mof_C 	C 	0.0743	0.2361	0.071	-0.014
Mof_C 	C 	0.1888	0.9362	0.8688	-0.017
Mof_C 	C 	0.1468	0.8826	0.8769	-0.021
Mof_C 	C 	0.3304	0.1862	0.2693	-0.018
Mof_C 	C 	0.2215	0.1709	0.2365	-0.013
Mof_C 	C 	0.1346	0.6185	0.3097	0.097
Mof_C 	C 	0.2907	0.7527	0.2525	0.091
Mof_C 	C 	0.151	0.8172	0.2383	-0.005
Mof_C 	C 	0.2658	0.8248	0.2064	-0.015
Mof_C 	C 	0.8633	0.7865	0.4023	0.093
Mof_C 	C 	0.0711	0.7921	0.4294	-0.014
Mof_C 	C 	0.9844	0.814	0.4675	-0.001
Mof_C 	C 	0.6975	0.9323	0.5638	0.102
Mof_C 	C 	0.8004	0.9514	0.493	-0.006
Mof_C 	C 	0.8122	0.9951	0.5265	-0.009
Mof_C 	C 	0.4629	0.8997	0.4236	0.079
Mof_C 	C 	0.4884	0.8235	0.3812	-0.008
Mof_C 	C 	0.3893	0.8529	0.3554	-0.018
Mof_C 	C 	0.5187	0.523	0.2108	0.101
Mof_C 	C 	0.3727	0.5797	0.1842	-0.008
Mof_C 	C 	0.4866	0.5847	0.1531	-0.019
Mof_C 	C 	0.0172	0.5153	0.2043	0.102
Mof_C 	C 	0.6109	0.7775	0.585	0.113
Mof_C 	C 	0.3686	0.3999	0.295	0.116
Mof_C 	C 	0.2878	0.7536	0.7505	0.117
Mof_C 	C 	0.2694	0.6612	0.3637	-0.012
Mof_C 	C 	0.3193	0.6094	0.3571	-0.02
Mof_C 	C 	0.983	0.4583	0.2677	-0.023
Mof_C 	C 	0.8688	0.4624	0.2355	-0.005
Mof_C 	C 	0.457	0.7641	0.5259	-0.02
Mof_C 	C 	0.4257	0.7361	0.571	-0.014
Mof_C 	C 	0.3112	0.4362	0.3688	-0.017
Mof_C 	C 	0.3532	0.3826	0.3769	-0.021
Mof_C 	C 	0.1696	0.6862	0.7693	-0.018
Mof_C 	C 	0.2785	0.6709	0.7365	-0.013
Mof_C 	C 	0.6346	0.8815	0.1903	0.097
Mof_C 	C 	0.7907	0.7473	0.2475	0.091
Mof_C 	C 	0.651	0.6828	0.2617	-0.004
Mof_C 	C 	0.7658	0.6752	0.2936	-0.015
Mof_C 	C 	0.3633	0.7135	0.0977	0.093
Mof_C 	C 	0.5711	0.7079	0.0706	-0.003
Mof_C 	C 	0.4844	0.686	0.0325	-0.013
Mof_C 	C 	0.1975	0.5677	0.9362	0.102
Mof_C 	C 	0.3004	0.5486	0.007	-0.007
Mof_C 	C 	0.3122	0.5049	0.9735	-0.01
Mof_C 	C 	0.9629	0.6003	0.0764	0.081
Mof_C 	C 	0.9884	0.6765	0.1188	0.001
Mof_C 	C 	0.8893	0.6471	0.1446	-0.022
Mof_C 	C 	0.0187	0.977	0.2892	0.095
Mof_C 	C 	0.8727	0.9203	0.3158	-0.008
Mof_C 	C 	0.9866	0.9153	0.3469	-0.016
Mof_C 	C 	0.5172	0.9847	0.2957	0.101
Mof_C 	C 	0.1109	0.7225	0.915	0.113
Mof_C 	C 	0.8686	0.1001	0.205	0.116
Mof_C 	C 	0.7878	0.7464	0.7495	0.117
Mof_C 	C 	0.7694	0.8388	0.1363	-0.012
Mof_C 	C 	0.8193	0.8906	0.1429	-0.02
Mof_C 	C 	0.483	0.0417	0.2323	-0.024
Mof_C 	C 	0.3688	0.0376	0.2645	-0.004
Mof_C 	C 	0.957	0.7359	0.9741	-0.018
Mof_C 	C 	0.9257	0.7639	0.929	-0.014
Mof_C 	C 	0.8112	0.0638	0.1312	-0.017
Mof_C 	C 	0.8532	0.1174	0.1231	-0.021
Mof_C 	C 	0.6696	0.8138	0.7307	-0.018
Mof_C 	C 	0.7785	0.8291	0.7635	-0.013
Mof_N 	N 	0.8595	0.3349	0.66253	-0.279
Mof_N 	N 	0.7754	0.42006	0.676	-0.279
Mof_N 	N 	0.8345	0.22913	0.73249	-0.283
Mof_N 	N 	0.6434	0.2173	0.78434	-0.274
Mof_N 	N 	0.0064	0.22629	0.61247	-0.28
Mof_N 	N 	0.1503	0.18978	0.5498	-0.285
Mof_N 	N 	0.2737	0.08899	0.4838	-0.284
Mof_N 	N 	0.2533	0.0169	0.42693	-0.283
Mof_N 	N 	0.6292	0.09801	0.61733	-0.272
Mof_N 	N 	0.4171	0.4523	0.83037	-0.283
Mof_N 	N 	0.6077	0.46032	0.77863	-0.284
Mof_N 	N 	0.9166	0.5086	0.7556	-0.28
Mof_N 	N 	0.1082	0.50315	0.80806	-0.287
Mof_N 	N 	0.4239	0.20525	0.46361	-0.287
Mof_N 	N 	0.4818	0.2504	0.3871	-0.287
Mof_N 	N 	0.5928	0.63812	0.6717	-0.285
Mof_N 	N 	0.6596	0.5506	0.68426	-0.284
Mof_N 	N 	0.4622	0.14691	0.57442	-0.277
Mof_N 	N 	0.6464	0.2843	0.2791	-0.29
Mof_N 	N 	0.8337	0.2576	0.2277	-0.291
Mof_N 	N 	0.3595	0.1651	0.83747	-0.278
Mof_N 	N 	0.2754	0.07994	0.824	-0.279
Mof_N 	N 	0.3345	0.27087	0.76751	-0.282
Mof_N 	N 	0.1434	0.2827	0.71566	-0.273
Mof_N 	N 	0.5064	0.27371	0.88753	-0.284
Mof_N 	N 	0.6503	0.31022	0.9502	-0.283
Mof_N 	N 	0.7737	0.41101	0.0162	-0.283
Mof_N 	N 	0.7533	0.4831	0.07307	-0.284
Mof_N 	N 	0.1292	0.40199	0.88267	-0.272
Mof_N 	N 	0.9171	0.0477	0.66963	-0.283
Mof_N 	N 	0.1077	0.03968	0.72137	-0.282
Mof_N 	N 	0.4166	0.9914	0.7444	-0.279
Mof_N 	N 	0.6082	0.99685	0.69194	-0.287
Mof_N 	N 	0.9239	0.29475	0.03639	-0.287
Mof_N 	N 	0.9818	0.2496	0.1129	-0.288
Mof_N 	N 	0.0928	0.86188	0.8283	-0.285
Mof_N 	N 	0.1596	0.9494	0.81574	-0.284
Mof_N 	N 	0.9622	0.35309	0.92558	-0.28
Mof_N 	N 	0.1464	0.2157	0.2209	-0.289
Mof_N 	N 	0.3337	0.2424	0.2723	-0.291
Mof_N 	N 	0.1405	0.6651	0.33747	-0.279
Mof_N 	N 	0.2246	0.57994	0.324	-0.279
Mof_N 	N 	0.1655	0.77087	0.26751	-0.283
Mof_N 	N 	0.3566	0.7827	0.21566	-0.274
Mof_N 	N 	0.9936	0.77371	0.38753	-0.28
Mof_N 	N 	0.8497	0.81022	0.4502	-0.285
Mof_N 	N 	0.7263	0.91101	0.5162	-0.284
Mof_N 	N 	0.7467	0.9831	0.57307	-0.283
Mof_N 	N 	0.3708	0.90199	0.38267	-0.272
Mof_N 	N 	0.5829	0.5477	0.16963	-0.283
Mof_N 	N 	0.3923	0.53968	0.22137	-0.284
Mof_N 	N 	0.0834	0.4914	0.2444	-0.28
Mof_N 	N 	0.8918	0.49685	0.19194	-0.287
Mof_N 	N 	0.5761	0.79475	0.53639	-0.287
Mof_N 	N 	0.5182	0.7496	0.6129	-0.287
Mof_N 	N 	0.4072	0.36188	0.3283	-0.285
Mof_N 	N 	0.3404	0.4494	0.31574	-0.284
Mof_N 	N 	0.5378	0.85309	0.42558	-0.277
Mof_N 	N 	0.3536	0.7157	0.7209	-0.29
Mof_N 	N 	0.1663	0.7424	0.7723	-0.291
Mof_N 	N 	0.6405	0.8349	0.16253	-0.278
Mof_N 	N 	0.7246	0.92006	0.176	-0.279
Mof_N 	N 	0.6655	0.72913	0.23249	-0.282
Mof_N 	N 	0.8566	0.7173	0.28434	-0.273
Mof_N 	N 	0.4936	0.72629	0.11247	-0.284
Mof_N 	N 	0.3497	0.68978	0.0498	-0.283
Mof_N 	N 	0.2263	0.58899	0.9838	-0.283
Mof_N 	N 	0.2467	0.5169	0.92693	-0.284
Mof_N 	N 	0.8708	0.59801	0.11733	-0.272
Mof_N 	N 	0.0829	0.9523	0.33037	-0.283
Mof_N 	N 	0.8923	0.96032	0.27863	-0.282
Mof_N 	N 	0.5834	0.0086	0.2556	-0.279
Mof_N 	N 	0.3918	0.00315	0.30806	-0.287
Mof_N 	N 	0.0761	0.70525	0.96361	-0.287
Mof_N 	N 	0.0182	0.7504	0.8871	-0.288
Mof_N 	N 	0.9072	0.13812	0.1717	-0.285
Mof_N 	N 	0.8404	0.0506	0.18426	-0.284
Mof_N 	N 	0.0378	0.64691	0.07442	-0.28
Mof_N 	N 	0.8536	0.7843	0.7791	-0.289
Mof_N 	N 	0.6663	0.7576	0.7277	-0.291
_end
