# CIF file generated by openbabel 3.1.0, see https://openbabel.org
data_I
_chemical_name_common 'image0'
_cell_length_a 14.32
_cell_length_b 8.7789
_cell_length_c 27.653
_cell_angle_alpha 90
_cell_angle_beta 90.3054
_cell_angle_gamma 90
_space_group_name_H-M_alt 'P 1'
_space_group_name_Hall 'P 1'
loop_
    _symmetry_equiv_pos_as_xyz
    x,y,z
loop_
    _atom_site_label
    _atom_site_type_symbol
    _atom_site_fract_x
    _atom_site_fract_y
    _atom_site_fract_z
    _atom_site_occupancy
    C1       C        0.46896    0.35448    0.43669    1.000
    C2       C        0.38633    0.38500    0.46145    1.000
    H1       H        0.33650    0.43400    0.44480    1.000
    C3       C        0.37501    0.34551    0.50985    1.000
    C4       C        0.44734    0.26924    0.53370    1.000
    H2       H        0.44010    0.24060    0.56660    1.000
    C5       C        0.53048    0.23445    0.50967    1.000
    C6       C        0.54070    0.27843    0.46139    1.000
    H3       H        0.59730    0.25630    0.44510    1.000
    C7       C        0.49671    0.55610    0.23706    1.000
    C8       C        0.49301    0.50706    0.28947    1.000
    C9       C        0.43724    0.58516    0.32238    1.000
    H4       H        0.40330    0.67250    0.31220    1.000
    C10      C        0.43111    0.53593    0.36990    1.000
    H5       H        0.39370    0.59140    0.39210    1.000
    C11      C        0.47900    0.40584    0.38593    1.000
    C12      C        0.53680    0.33096    0.35295    1.000
    H6       H        0.57160    0.24440    0.36310    1.000
    C13      C        0.54380    0.38189    0.30550    1.000
    H7       H        0.58390    0.33030    0.28370    1.000
    C14      C        0.04429    0.60724    0.59725    1.000
    C15      C        0.13065    0.53707    0.57589    1.000
    C16      C        0.12532    0.46806    0.53046    1.000
    H8       H        0.06750    0.46720    0.51340    1.000
    C17      C        0.20331    0.40068    0.50987    1.000
    H9       H        0.19850    0.35540    0.47880    1.000
    C18      C        0.28902    0.39879    0.53457    1.000
    C19      C        0.29330    0.46322    0.58076    1.000
    H10      H        0.35010    0.45880    0.59860    1.000
    C20      C        0.21559    0.53391    0.60101    1.000
    H11      H        0.22040    0.58010    0.63200    1.000
    C21      C        0.83885    0.92709    0.60603    1.000
    C22      C        0.75793    0.00492    0.58122    1.000
    C23      C        0.66585    0.96536    0.59152    1.000
    H12      H        0.65330    0.88660    0.61410    1.000
    C24      C        0.59211    0.04085    0.56877    1.000
    H13      H        0.52970    0.01380    0.57640    1.000
    C25      C        0.60877    0.15576    0.53496    1.000
    C26      C        0.70173    0.19588    0.52514    1.000
    H14      H        0.71450    0.27470    0.50260    1.000
    C27      C        0.77498    0.12146    0.54811    1.000
    H15      H        0.83750    0.15020    0.54120    1.000
    O1       O        0.44770    0.67428    0.22725    1.000
    O2       O        0.54327    0.48226    0.20809    1.000
    O3       O        0.96847    0.59222    0.57642    1.000
    O4       O        0.05439    0.67992    0.63764    1.000
    O5       O        0.81924    0.81395    0.63337    1.000
    O6       O        0.91883    0.97679    0.59958    1.000
    Zn1      Zn       0.43119    0.77056    0.16406    1.000
    C28      C        0.96896    0.14552    0.93669    1.000
    C29      C        0.88633    0.11500    0.96145    1.000
    H16      H        0.83650    0.06600    0.94480    1.000
    C30      C        0.87501    0.15449    0.00985    1.000
    C31      C        0.94734    0.23076    0.03370    1.000
    H17      H        0.94010    0.25940    0.06660    1.000
    C32      C        0.03048    0.26555    0.00967    1.000
    C33      C        0.04070    0.22157    0.96139    1.000
    H18      H        0.09730    0.24370    0.94510    1.000
    C34      C        0.99671    0.94390    0.73706    1.000
    C35      C        0.99301    0.99294    0.78947    1.000
    C36      C        0.93724    0.91484    0.82238    1.000
    H19      H        0.90330    0.82750    0.81220    1.000
    C37      C        0.93111    0.96407    0.86990    1.000
    H20      H        0.89370    0.90860    0.89210    1.000
    C38      C        0.97900    0.09416    0.88593    1.000
    C39      C        0.03680    0.16904    0.85295    1.000
    H21      H        0.07160    0.25560    0.86310    1.000
    C40      C        0.04380    0.11811    0.80550    1.000
    H22      H        0.08390    0.16970    0.78370    1.000
    C41      C        0.54429    0.89276    0.09725    1.000
    C42      C        0.63065    0.96293    0.07589    1.000
    C43      C        0.62532    0.03194    0.03046    1.000
    H23      H        0.56750    0.03280    0.01340    1.000
    C44      C        0.70331    0.09932    0.00987    1.000
    H24      H        0.69850    0.14460    0.97880    1.000
    C45      C        0.78902    0.10121    0.03457    1.000
    C46      C        0.79330    0.03678    0.08076    1.000
    H25      H        0.85010    0.04120    0.09860    1.000
    C47      C        0.71559    0.96609    0.10101    1.000
    H26      H        0.72040    0.91990    0.13200    1.000
    C48      C        0.33885    0.57291    0.10603    1.000
    C49      C        0.25793    0.49508    0.08122    1.000
    C50      C        0.16585    0.53464    0.09152    1.000
    H27      H        0.15330    0.61340    0.11410    1.000
    C51      C        0.09211    0.45915    0.06877    1.000
    H28      H        0.02970    0.48620    0.07640    1.000
    C52      C        0.10877    0.34424    0.03496    1.000
    C53      C        0.20173    0.30412    0.02514    1.000
    H29      H        0.21450    0.22530    0.00260    1.000
    C54      C        0.27498    0.37854    0.04811    1.000
    H30      H        0.33750    0.34980    0.04120    1.000
    O7       O        0.94770    0.82572    0.72725    1.000
    O8       O        0.04327    0.01774    0.70809    1.000
    O9       O        0.46847    0.90778    0.07642    1.000
    O10      O        0.55439    0.82008    0.13764    1.000
    O11      O        0.31924    0.68605    0.13337    1.000
    O12      O        0.41883    0.52321    0.09958    1.000
    Zn2      Zn       0.93119    0.72944    0.66406    1.000
    C55      C        0.03104    0.85448    0.06331    1.000
    C56      C        0.11367    0.88500    0.03855    1.000
    H31      H        0.16350    0.93400    0.05520    1.000
    C57      C        0.12499    0.84551    0.99015    1.000
    C58      C        0.05266    0.76924    0.96630    1.000
    H32      H        0.05990    0.74060    0.93340    1.000
    C59      C        0.96952    0.73445    0.99033    1.000
    C60      C        0.95930    0.77843    0.03861    1.000
    H33      H        0.90270    0.75630    0.05490    1.000
    C61      C        0.00329    0.05610    0.26294    1.000
    C62      C        0.00699    0.00706    0.21053    1.000
    C63      C        0.06276    0.08516    0.17762    1.000
    H34      H        0.09670    0.17250    0.18780    1.000
    C64      C        0.06889    0.03593    0.13010    1.000
    H35      H        0.10630    0.09140    0.10790    1.000
    C65      C        0.02100    0.90584    0.11407    1.000
    C66      C        0.96320    0.83096    0.14705    1.000
    H36      H        0.92840    0.74440    0.13690    1.000
    C67      C        0.95620    0.88189    0.19450    1.000
    H37      H        0.91610    0.83030    0.21630    1.000
    C68      C        0.45571    0.10724    0.90275    1.000
    C69      C        0.36935    0.03707    0.92411    1.000
    C70      C        0.37468    0.96806    0.96954    1.000
    H38      H        0.43250    0.96720    0.98660    1.000
    C71      C        0.29669    0.90068    0.99013    1.000
    H39      H        0.30150    0.85540    0.02120    1.000
    C72      C        0.21098    0.89879    0.96543    1.000
    C73      C        0.20670    0.96322    0.91924    1.000
    H40      H        0.14990    0.95880    0.90140    1.000
    C74      C        0.28441    0.03391    0.89899    1.000
    H41      H        0.27960    0.08010    0.86800    1.000
    C75      C        0.66115    0.42709    0.89397    1.000
    C76      C        0.74207    0.50492    0.91878    1.000
    C77      C        0.83415    0.46536    0.90848    1.000
    H42      H        0.84670    0.38660    0.88590    1.000
    C78      C        0.90789    0.54085    0.93123    1.000
    H43      H        0.97030    0.51380    0.92360    1.000
    C79      C        0.89123    0.65576    0.96504    1.000
    C80      C        0.79827    0.69588    0.97486    1.000
    H44      H        0.78550    0.77470    0.99740    1.000
    C81      C        0.72502    0.62146    0.95189    1.000
    H45      H        0.66250    0.65020    0.95880    1.000
    O13      O        0.05230    0.17428    0.27275    1.000
    O14      O        0.95673    0.98226    0.29191    1.000
    O15      O        0.53153    0.09222    0.92358    1.000
    O16      O        0.44561    0.17992    0.86236    1.000
    O17      O        0.68076    0.31395    0.86663    1.000
    O18      O        0.58117    0.47679    0.90042    1.000
    Zn3      Zn       0.06881    0.27056    0.33594    1.000
    C82      C        0.53104    0.64552    0.56331    1.000
    C83      C        0.61367    0.61500    0.53855    1.000
    H46      H        0.66350    0.56600    0.55520    1.000
    C84      C        0.62499    0.65449    0.49015    1.000
    C85      C        0.55266    0.73076    0.46630    1.000
    H47      H        0.55990    0.75940    0.43340    1.000
    C86      C        0.46952    0.76555    0.49033    1.000
    C87      C        0.45930    0.72157    0.53861    1.000
    H48      H        0.40270    0.74370    0.55490    1.000
    C88      C        0.50329    0.44390    0.76294    1.000
    C89      C        0.50699    0.49294    0.71053    1.000
    C90      C        0.56276    0.41484    0.67762    1.000
    H49      H        0.59670    0.32750    0.68780    1.000
    C91      C        0.56889    0.46407    0.63010    1.000
    H50      H        0.60630    0.40860    0.60790    1.000
    C92      C        0.52100    0.59416    0.61407    1.000
    C93      C        0.46320    0.66904    0.64705    1.000
    H51      H        0.42840    0.75560    0.63690    1.000
    C94      C        0.45620    0.61811    0.69450    1.000
    H52      H        0.41610    0.66970    0.71630    1.000
    C95      C        0.95571    0.39276    0.40275    1.000
    C96      C        0.86935    0.46293    0.42411    1.000
    C97      C        0.87468    0.53194    0.46954    1.000
    H53      H        0.93250    0.53280    0.48660    1.000
    C98      C        0.79669    0.59932    0.49013    1.000
    H54      H        0.80150    0.64460    0.52120    1.000
    C99      C        0.71098    0.60121    0.46543    1.000
    C100     C        0.70670    0.53678    0.41924    1.000
    H55      H        0.64990    0.54120    0.40140    1.000
    C101     C        0.78441    0.46609    0.39899    1.000
    H56      H        0.77960    0.41990    0.36800    1.000
    C102     C        0.16115    0.07291    0.39397    1.000
    C103     C        0.24207    0.99508    0.41878    1.000
    C104     C        0.33415    0.03464    0.40848    1.000
    H57      H        0.34670    0.11340    0.38590    1.000
    C105     C        0.40789    0.95915    0.43123    1.000
    H58      H        0.47030    0.98620    0.42360    1.000
    C106     C        0.39123    0.84424    0.46504    1.000
    C107     C        0.29827    0.80412    0.47486    1.000
    H59      H        0.28550    0.72530    0.49740    1.000
    C108     C        0.22502    0.87854    0.45189    1.000
    H60      H        0.16250    0.84980    0.45880    1.000
    O19      O        0.55230    0.32572    0.77275    1.000
    O20      O        0.45673    0.51774    0.79191    1.000
    O21      O        0.03153    0.40778    0.42358    1.000
    O22      O        0.94561    0.32008    0.36236    1.000
    O23      O        0.18076    0.18605    0.36663    1.000
    O24      O        0.08117    0.02321    0.40042    1.000
    Zn4      Zn       0.56881    0.22944    0.83594    1.000
