# CIF file generated by openbabel 3.1.0, see https://openbabel.org
data_I
_chemical_name_common 'EVOTIT_clean'
_cell_length_a 31.2768
_cell_length_b 31.2768
_cell_length_c 31.2768
_cell_angle_alpha 116.484
_cell_angle_beta 116.484
_cell_angle_gamma 116.484
_space_group_name_H-M_alt 'P 1'
_space_group_name_Hall 'P 1'
loop_
    _symmetry_equiv_pos_as_xyz
    x,y,z
loop_
    _atom_site_label
    _atom_site_type_symbol
    _atom_site_fract_x
    _atom_site_fract_y
    _atom_site_fract_z
    _atom_site_occupancy
    Zn1      Zn       0.49284    0.16650    0.49133    1.000
    Zn2      Zn       0.26281    0.91234    0.20272    1.000
    H3       H        0.17300    0.74970    0.09400    1.000
    H4       H        0.17400    0.67640    0.09670    1.000
    H5       H        0.36820    0.94710    0.32870    1.000
    H6       H        0.37230    0.87990    0.33900    1.000
    H7       H        0.59860    0.32630    0.46190    1.000
    H8       H        0.68850    0.28690    0.58390    1.000
    H9       H        0.45320    0.18050    0.33760    1.000
    H10      H        0.41290    0.91540    0.48130    1.000
    H11      H        0.36210    0.16750    0.53710    1.000
    H12      H        0.46190    0.21000    0.56910    1.000
    H13      H        0.22060    0.02450    0.31280    1.000
    H14      H        0.32310    0.06150    0.34670    1.000
    C15      C        0.65174    0.33966    0.62940    1.000
    C16      C        0.21387    0.77620    0.14453    1.000
    C17      C        0.27622    0.77218    0.22030    1.000
    C18      C        0.42304    0.08687    0.34589    1.000
    C19      C        0.42133    0.08350    0.29607    1.000
    C20      C        0.65063    0.32654    0.57703    1.000
    C21      C        0.28267    0.09881    0.42332    1.000
    C22      C        0.21433    0.73195    0.14542    1.000
    C23      C        0.32693    0.89092    0.28095    1.000
    C24      C        0.33081    0.85138    0.28721    1.000
    C25      C        0.49520    0.08790    0.50130    1.000
    C26      C        0.63760    0.29080    0.46770    1.000
    C27      C        0.61860    0.31900    0.48700    1.000
    C28      C        0.62740    0.33810    0.54190    1.000
    C29      C        0.67170    0.29710    0.56110    1.000
    C30      C        0.62530    0.27370    0.40350    1.000
    C31      C        0.66560    0.28410    0.50850    1.000
    C32      C        0.42520    0.12950    0.29510    1.000
    C33      C        0.41260    0.03350    0.24770    1.000
    C34      C        0.50560    0.04840    0.50370    1.000
    C35      C        0.45940    0.00580    0.49770    1.000
    C36      C        0.44960    0.94970    0.49010    1.000
    C37      C        0.35390    0.14810    0.49690    1.000
    C38      C        0.41130    0.16970    0.51450    1.000
    C39      C        0.27130    0.06430    0.36720    1.000
    C40      C        0.33230    0.08590    0.38750    1.000
    N41      N        0.26813    0.85361    0.21116    1.000
    N42      N        0.40518    0.14098    0.46384    1.000
    O43      O        0.68160    0.24350    0.49020    1.000
    O44      O        0.41760    0.00660    0.50540    1.000
    O45      O        0.36976    0.02322    0.31612    1.000
    O46      O        0.71468    0.40857    0.70335    1.000
    O47      O        0.59250    0.28211    0.60099    1.000
    O48      O        0.47967    0.15628    0.41845    1.000
    O49      O        0.47368    0.10662    0.51190    1.000
    O50      O        0.59568    0.27535    0.37417    1.000
    O51      O        0.64520    0.25570    0.39380    1.000
    O52      O        0.40907    0.98993    0.25280    1.000
    O53      O        0.52247    0.11700    0.49293    1.000
    O54      O        0.59380    0.35510    0.55010    1.000
    C55      C        0.45829    0.69471    0.47427    1.000
    H56      H        0.44292    0.67198    0.42298    1.000
    C57      C        0.51283    0.71729    0.51984    1.000
    H58      H        0.47261    0.74603    0.50501    1.000
    O59      O        0.51149    0.67918    0.48711    1.000
    H60      H        0.51127    0.71246    0.55329    1.000
    H61      H        0.57026    0.78280    0.56468    1.000
    C62      C        0.55800    0.71445    0.49817    1.000
    H63      H        0.52969    0.67728    0.43837    1.000
    H64      H        0.60833    0.73002    0.53828    1.000
    H65      H        0.58372    0.77226    0.52921    1.000
    C66      C        0.36169    0.81274    0.53511    1.000
    H67      H        0.34778    0.79713    0.48647    1.000
    H68      H        0.42554    0.85125    0.58746    1.000
    C69      C        0.35620    0.84760    0.55739    1.000
    H70      H        0.36703    0.86048    0.60376    1.000
    O71      O        0.29328    0.81034    0.50447    1.000
    H72      H        0.40280    0.90683    0.58621    1.000
    C73      C        0.29572    0.85114    0.51670    1.000
    H74      H        0.31236    0.88489    0.56948    1.000
    H75      H        0.23436    0.81428    0.46106    1.000
    H76      H        0.34293    0.89614    0.53213    1.000
    C77      C        0.55223    0.43605    0.01716    1.000
    H78      H        0.52262    0.39165    0.95691    1.000
    C79      C        0.58523    0.43659    0.05399    1.000
    H80      H        0.59694    0.49887    0.05142    1.000
    H81      H        0.54558    0.37215    0.01369    1.000
    H82      H        0.59943    0.46635    0.10526    1.000
    O83      O        0.64367    0.47180    0.07985    1.000
    C84      C        0.68113    0.53377    0.11697    1.000
    H85      H        0.70991    0.57063    0.17697    1.000
    H86      H        0.64169    0.53121    0.08383    1.000
    H87      H        0.73026    0.56312    0.12821    1.000
    Zn88     Zn       0.49133    0.49284    0.16650    1.000
    Zn89     Zn       0.20272    0.26281    0.91234    1.000
    H90      H        0.09400    0.17300    0.74970    1.000
    H91      H        0.09670    0.17400    0.67640    1.000
    H92      H        0.32870    0.36820    0.94710    1.000
    H93      H        0.33900    0.37230    0.87990    1.000
    H94      H        0.46190    0.59860    0.32630    1.000
    H95      H        0.58390    0.68850    0.28690    1.000
    H96      H        0.33760    0.45320    0.18050    1.000
    H97      H        0.48130    0.41290    0.91540    1.000
    H98      H        0.53710    0.36210    0.16750    1.000
    H99      H        0.56910    0.46190    0.21000    1.000
    H100     H        0.31280    0.22060    0.02450    1.000
    H101     H        0.34670    0.32310    0.06150    1.000
    C102     C        0.62940    0.65174    0.33966    1.000
    C103     C        0.14453    0.21387    0.77620    1.000
    C104     C        0.22030    0.27622    0.77218    1.000
    C105     C        0.34589    0.42304    0.08687    1.000
    C106     C        0.29607    0.42133    0.08350    1.000
    C107     C        0.57703    0.65063    0.32654    1.000
    C108     C        0.42332    0.28267    0.09881    1.000
    C109     C        0.14542    0.21433    0.73195    1.000
    C110     C        0.28095    0.32693    0.89092    1.000
    C111     C        0.28721    0.33081    0.85138    1.000
    C112     C        0.50130    0.49520    0.08790    1.000
    C113     C        0.46770    0.63760    0.29080    1.000
    C114     C        0.48700    0.61860    0.31900    1.000
    C115     C        0.54190    0.62740    0.33810    1.000
    C116     C        0.56110    0.67170    0.29710    1.000
    C117     C        0.40350    0.62530    0.27370    1.000
    C118     C        0.50850    0.66560    0.28410    1.000
    C119     C        0.29510    0.42520    0.12950    1.000
    C120     C        0.24770    0.41260    0.03350    1.000
    C121     C        0.50370    0.50560    0.04840    1.000
    C122     C        0.49770    0.45940    0.00580    1.000
    C123     C        0.49010    0.44960    0.94970    1.000
    C124     C        0.49690    0.35390    0.14810    1.000
    C125     C        0.51450    0.41130    0.16970    1.000
    C126     C        0.36720    0.27130    0.06430    1.000
    C127     C        0.38750    0.33230    0.08590    1.000
    N128     N        0.21116    0.26813    0.85361    1.000
    N129     N        0.46384    0.40518    0.14098    1.000
    O130     O        0.49020    0.68160    0.24350    1.000
    O131     O        0.50540    0.41760    0.00660    1.000
    O132     O        0.31612    0.36976    0.02322    1.000
    O133     O        0.70335    0.71468    0.40857    1.000
    O134     O        0.60099    0.59250    0.28211    1.000
    O135     O        0.41845    0.47967    0.15628    1.000
    O136     O        0.51190    0.47368    0.10662    1.000
    O137     O        0.37417    0.59568    0.27535    1.000
    O138     O        0.39380    0.64520    0.25570    1.000
    O139     O        0.25280    0.40907    0.98993    1.000
    O140     O        0.49293    0.52247    0.11700    1.000
    O141     O        0.55010    0.59380    0.35510    1.000
    C142     C        0.47427    0.45829    0.69471    1.000
    H143     H        0.42298    0.44292    0.67198    1.000
    C144     C        0.51984    0.51283    0.71729    1.000
    H145     H        0.50501    0.47261    0.74603    1.000
    O146     O        0.48711    0.51149    0.67918    1.000
    H147     H        0.55329    0.51127    0.71246    1.000
    H148     H        0.56468    0.57026    0.78280    1.000
    C149     C        0.49817    0.55800    0.71445    1.000
    H150     H        0.43837    0.52969    0.67728    1.000
    H151     H        0.53828    0.60833    0.73002    1.000
    H152     H        0.52921    0.58372    0.77226    1.000
    C153     C        0.53511    0.36169    0.81274    1.000
    H154     H        0.48647    0.34778    0.79713    1.000
    H155     H        0.58746    0.42554    0.85125    1.000
    C156     C        0.55739    0.35620    0.84760    1.000
    H157     H        0.60376    0.36703    0.86048    1.000
    O158     O        0.50447    0.29328    0.81034    1.000
    H159     H        0.58621    0.40280    0.90683    1.000
    C160     C        0.51670    0.29572    0.85114    1.000
    H161     H        0.56948    0.31236    0.88489    1.000
    H162     H        0.46106    0.23436    0.81428    1.000
    H163     H        0.53213    0.34293    0.89614    1.000
    C164     C        0.01716    0.55223    0.43605    1.000
    H165     H        0.95691    0.52262    0.39165    1.000
    C166     C        0.05399    0.58523    0.43659    1.000
    H167     H        0.05142    0.59694    0.49887    1.000
    H168     H        0.01369    0.54558    0.37215    1.000
    H169     H        0.10526    0.59943    0.46635    1.000
    O170     O        0.07985    0.64367    0.47180    1.000
    C171     C        0.11697    0.68113    0.53377    1.000
    H172     H        0.17697    0.70991    0.57063    1.000
    H173     H        0.08383    0.64169    0.53121    1.000
    H174     H        0.12821    0.73026    0.56312    1.000
    Zn175    Zn       0.16650    0.49133    0.49284    1.000
    Zn176    Zn       0.91234    0.20272    0.26281    1.000
    H177     H        0.74970    0.09400    0.17300    1.000
    H178     H        0.67640    0.09670    0.17400    1.000
    H179     H        0.94710    0.32870    0.36820    1.000
    H180     H        0.87990    0.33900    0.37230    1.000
    H181     H        0.32630    0.46190    0.59860    1.000
    H182     H        0.28690    0.58390    0.68850    1.000
    H183     H        0.18050    0.33760    0.45320    1.000
    H184     H        0.91540    0.48130    0.41290    1.000
    H185     H        0.16750    0.53710    0.36210    1.000
    H186     H        0.21000    0.56910    0.46190    1.000
    H187     H        0.02450    0.31280    0.22060    1.000
    H188     H        0.06150    0.34670    0.32310    1.000
    C189     C        0.33966    0.62940    0.65174    1.000
    C190     C        0.77620    0.14453    0.21387    1.000
    C191     C        0.77218    0.22030    0.27622    1.000
    C192     C        0.08687    0.34589    0.42304    1.000
    C193     C        0.08350    0.29607    0.42133    1.000
    C194     C        0.32654    0.57703    0.65063    1.000
    C195     C        0.09881    0.42332    0.28267    1.000
    C196     C        0.73195    0.14542    0.21433    1.000
    C197     C        0.89092    0.28095    0.32693    1.000
    C198     C        0.85138    0.28721    0.33081    1.000
    C199     C        0.08790    0.50130    0.49520    1.000
    C200     C        0.29080    0.46770    0.63760    1.000
    C201     C        0.31900    0.48700    0.61860    1.000
    C202     C        0.33810    0.54190    0.62740    1.000
    C203     C        0.29710    0.56110    0.67170    1.000
    C204     C        0.27370    0.40350    0.62530    1.000
    C205     C        0.28410    0.50850    0.66560    1.000
    C206     C        0.12950    0.29510    0.42520    1.000
    C207     C        0.03350    0.24770    0.41260    1.000
    C208     C        0.04840    0.50370    0.50560    1.000
    C209     C        0.00580    0.49770    0.45940    1.000
    C210     C        0.94970    0.49010    0.44960    1.000
    C211     C        0.14810    0.49690    0.35390    1.000
    C212     C        0.16970    0.51450    0.41130    1.000
    C213     C        0.06430    0.36720    0.27130    1.000
    C214     C        0.08590    0.38750    0.33230    1.000
    N215     N        0.85361    0.21116    0.26813    1.000
    N216     N        0.14098    0.46384    0.40518    1.000
    O217     O        0.24350    0.49020    0.68160    1.000
    O218     O        0.00660    0.50540    0.41760    1.000
    O219     O        0.02322    0.31612    0.36976    1.000
    O220     O        0.40857    0.70335    0.71468    1.000
    O221     O        0.28211    0.60099    0.59250    1.000
    O222     O        0.15628    0.41845    0.47967    1.000
    O223     O        0.10662    0.51190    0.47368    1.000
    O224     O        0.27535    0.37417    0.59568    1.000
    O225     O        0.25570    0.39380    0.64520    1.000
    O226     O        0.98993    0.25280    0.40907    1.000
    O227     O        0.11700    0.49293    0.52247    1.000
    O228     O        0.35510    0.55010    0.59380    1.000
    C229     C        0.69471    0.47427    0.45829    1.000
    H230     H        0.67198    0.42298    0.44292    1.000
    C231     C        0.71729    0.51984    0.51283    1.000
    H232     H        0.74603    0.50501    0.47261    1.000
    O233     O        0.67918    0.48711    0.51149    1.000
    H234     H        0.71246    0.55329    0.51127    1.000
    H235     H        0.78280    0.56468    0.57026    1.000
    C236     C        0.71445    0.49817    0.55800    1.000
    H237     H        0.67728    0.43837    0.52969    1.000
    H238     H        0.73002    0.53828    0.60833    1.000
    H239     H        0.77226    0.52921    0.58372    1.000
    C240     C        0.81274    0.53511    0.36169    1.000
    H241     H        0.79713    0.48647    0.34778    1.000
    H242     H        0.85125    0.58746    0.42554    1.000
    C243     C        0.84760    0.55739    0.35620    1.000
    H244     H        0.86048    0.60376    0.36703    1.000
    O245     O        0.81034    0.50447    0.29328    1.000
    H246     H        0.90683    0.58621    0.40280    1.000
    C247     C        0.85114    0.51670    0.29572    1.000
    H248     H        0.88489    0.56948    0.31236    1.000
    H249     H        0.81428    0.46106    0.23436    1.000
    H250     H        0.89614    0.53213    0.34293    1.000
    C251     C        0.43605    0.01716    0.55223    1.000
    H252     H        0.39165    0.95691    0.52262    1.000
    C253     C        0.43659    0.05399    0.58523    1.000
    H254     H        0.49887    0.05142    0.59694    1.000
    H255     H        0.37215    0.01369    0.54558    1.000
    H256     H        0.46635    0.10526    0.59943    1.000
    O257     O        0.47180    0.07985    0.64367    1.000
    C258     C        0.53377    0.11697    0.68113    1.000
    H259     H        0.57063    0.17697    0.70991    1.000
    H260     H        0.53121    0.08383    0.64169    1.000
    H261     H        0.56312    0.12821    0.73026    1.000
    Zn262    Zn       0.33350    0.00716    0.00867    1.000
    Zn263    Zn       0.58766    0.23719    0.29728    1.000
    H264     H        0.75030    0.32700    0.40600    1.000
    H265     H        0.82360    0.32600    0.40330    1.000
    H266     H        0.55290    0.13180    0.17130    1.000
    H267     H        0.62010    0.12770    0.16100    1.000
    H268     H        0.17370    0.90140    0.03810    1.000
    H269     H        0.21310    0.81150    0.91610    1.000
    O270     O        0.31950    0.04680    0.16240    1.000
    H271     H        0.58460    0.08710    0.01870    1.000
    H272     H        0.33250    0.13790    0.96290    1.000
    H273     H        0.29000    0.03810    0.93090    1.000
    H274     H        0.47550    0.27940    0.18720    1.000
    H275     H        0.43850    0.17690    0.15330    1.000
    C276     C        0.16034    0.84826    0.87060    1.000
    C277     C        0.72380    0.28613    0.35547    1.000
    C278     C        0.72782    0.22378    0.27970    1.000
    C279     C        0.41313    0.07696    0.15411    1.000
    C280     C        0.41650    0.07867    0.20393    1.000
    C281     C        0.17346    0.84937    0.92297    1.000
    C282     C        0.40119    0.21733    0.07668    1.000
    C283     C        0.76805    0.28567    0.35458    1.000
    C284     C        0.60908    0.17307    0.21905    1.000
    C285     C        0.64862    0.16919    0.21279    1.000
    C286     C        0.41210    0.00480    0.99870    1.000
    C287     C        0.20920    0.86240    0.03230    1.000
    C288     C        0.18100    0.88140    0.01300    1.000
    C289     C        0.16190    0.87260    0.95810    1.000
    C290     C        0.20290    0.82830    0.93890    1.000
    C291     C        0.22630    0.87470    0.09650    1.000
    C292     C        0.21590    0.83440    0.99150    1.000
    C293     C        0.37050    0.07480    0.20490    1.000
    C294     C        0.46650    0.08740    0.25230    1.000
    C295     C        0.45160    0.99440    0.99630    1.000
    C296     C        0.49420    0.04060    0.00230    1.000
    C297     C        0.55030    0.05040    0.00990    1.000
    C298     C        0.35190    0.14610    0.00310    1.000
    C299     C        0.33030    0.08870    0.98550    1.000
    C300     C        0.43570    0.22870    0.13280    1.000
    C301     C        0.41410    0.16770    0.11250    1.000
    N302     N        0.64639    0.23187    0.28884    1.000
    N303     N        0.35902    0.09482    0.03616    1.000
    O304     O        0.25650    0.81840    0.00980    1.000
    O305     O        0.49340    0.08240    0.99460    1.000
    O306     O        0.47678    0.13024    0.18388    1.000
    O307     O        0.09143    0.78532    0.79665    1.000
    O308     O        0.21789    0.90750    0.89901    1.000
    O309     O        0.34372    0.02033    0.08155    1.000
    O310     O        0.39338    0.02632    0.98810    1.000
    O311     O        0.22465    0.90432    0.12583    1.000
    O312     O        0.24430    0.85480    0.10620    1.000
    H313     H        0.51007    0.09093    0.24720    1.000
    O314     O        0.38300    0.97753    0.00707    1.000
    O315     O        0.14490    0.90620    0.94990    1.000
    C316     C        0.80529    0.04171    0.02573    1.000
    H317     H        0.82802    0.05708    0.07702    1.000
    C318     C        0.78271    0.98717    0.98016    1.000
    H319     H        0.75397    0.02739    0.99499    1.000
    O320     O        0.82082    0.98851    0.01289    1.000
    H321     H        0.78754    0.98873    0.94671    1.000
    H322     H        0.71720    0.92974    0.93532    1.000
    C323     C        0.78555    0.94200    0.00183    1.000
    H324     H        0.82272    0.97031    0.06163    1.000
    H325     H        0.76998    0.89167    0.96172    1.000
    H326     H        0.72774    0.91628    0.97079    1.000
    C327     C        0.68726    0.13831    0.96489    1.000
    H328     H        0.70287    0.15222    0.01353    1.000
    H329     H        0.64875    0.07446    0.91254    1.000
    C330     C        0.65240    0.14380    0.94261    1.000
    H331     H        0.63952    0.13297    0.89624    1.000
    O332     O        0.68966    0.20672    0.99553    1.000
    H333     H        0.59317    0.09720    0.91379    1.000
    C334     C        0.64886    0.20428    0.98330    1.000
    H335     H        0.61511    0.18764    0.93052    1.000
    H336     H        0.68572    0.26564    0.03894    1.000
    H337     H        0.60386    0.15707    0.96787    1.000
    C338     C        0.06395    0.94777    0.48284    1.000
    H339     H        0.10835    0.97738    0.54309    1.000
    C340     C        0.06341    0.91477    0.44601    1.000
    H341     H        0.00113    0.90306    0.44858    1.000
    H342     H        0.12785    0.95442    0.48631    1.000
    H343     H        0.03365    0.90057    0.39474    1.000
    O344     O        0.02820    0.85633    0.42015    1.000
    C345     C        0.96623    0.81887    0.38303    1.000
    H346     H        0.92937    0.79009    0.32303    1.000
    H347     H        0.93688    0.76974    0.37179    1.000
    Zn348    Zn       0.00716    0.00867    0.33350    1.000
    Zn349    Zn       0.23719    0.29728    0.58766    1.000
    H350     H        0.32700    0.40600    0.75030    1.000
    H351     H        0.32600    0.40330    0.82360    1.000
    H352     H        0.13180    0.17130    0.55290    1.000
    H353     H        0.12770    0.16100    0.62010    1.000
    H354     H        0.90140    0.03810    0.17370    1.000
    H355     H        0.81150    0.91610    0.21310    1.000
    O356     O        0.04680    0.16240    0.31950    1.000
    H357     H        0.08710    0.01870    0.58460    1.000
    H358     H        0.13790    0.96290    0.33250    1.000
    H359     H        0.03810    0.93090    0.29000    1.000
    H360     H        0.27940    0.18720    0.47550    1.000
    H361     H        0.17690    0.15330    0.43850    1.000
    C362     C        0.84826    0.87060    0.16034    1.000
    C363     C        0.28613    0.35547    0.72380    1.000
    C364     C        0.22378    0.27970    0.72782    1.000
    C365     C        0.07696    0.15411    0.41313    1.000
    C366     C        0.07867    0.20393    0.41650    1.000
    C367     C        0.84937    0.92297    0.17346    1.000
    C368     C        0.21733    0.07668    0.40119    1.000
    C369     C        0.28567    0.35458    0.76805    1.000
    C370     C        0.17307    0.21905    0.60908    1.000
    C371     C        0.16919    0.21279    0.64862    1.000
    C372     C        0.00480    0.99870    0.41210    1.000
    C373     C        0.86240    0.03230    0.20920    1.000
    C374     C        0.88140    0.01300    0.18100    1.000
    C375     C        0.87260    0.95810    0.16190    1.000
    C376     C        0.82830    0.93890    0.20290    1.000
    C377     C        0.87470    0.09650    0.22630    1.000
    C378     C        0.83440    0.99150    0.21590    1.000
    C379     C        0.07480    0.20490    0.37050    1.000
    C380     C        0.08740    0.25230    0.46650    1.000
    C381     C        0.99440    0.99630    0.45160    1.000
    C382     C        0.04060    0.00230    0.49420    1.000
    C383     C        0.05040    0.00990    0.55030    1.000
    C384     C        0.14610    0.00310    0.35190    1.000
    C385     C        0.08870    0.98550    0.33030    1.000
    C386     C        0.22870    0.13280    0.43570    1.000
    C387     C        0.16770    0.11250    0.41410    1.000
    N388     N        0.23187    0.28884    0.64639    1.000
    N389     N        0.09482    0.03616    0.35902    1.000
    O390     O        0.81840    0.00980    0.25650    1.000
    O391     O        0.08240    0.99460    0.49340    1.000
    O392     O        0.13024    0.18388    0.47678    1.000
    O393     O        0.78532    0.79665    0.09143    1.000
    O394     O        0.90750    0.89901    0.21789    1.000
    O395     O        0.02033    0.08155    0.34372    1.000
    O396     O        0.02632    0.98810    0.39338    1.000
    O397     O        0.90432    0.12583    0.22465    1.000
    O398     O        0.85480    0.10620    0.24430    1.000
    H399     H        0.09093    0.24720    0.51007    1.000
    O400     O        0.97753    0.00707    0.38300    1.000
    O401     O        0.90620    0.94990    0.14490    1.000
    C402     C        0.04171    0.02573    0.80529    1.000
    H403     H        0.05708    0.07702    0.82802    1.000
    C404     C        0.98717    0.98016    0.78271    1.000
    H405     H        0.02739    0.99499    0.75397    1.000
    O406     O        0.98851    0.01289    0.82082    1.000
    H407     H        0.98873    0.94671    0.78754    1.000
    H408     H        0.92974    0.93532    0.71720    1.000
    C409     C        0.94200    0.00183    0.78555    1.000
    H410     H        0.97031    0.06163    0.82272    1.000
    H411     H        0.89167    0.96172    0.76998    1.000
    H412     H        0.91628    0.97079    0.72774    1.000
    C413     C        0.13831    0.96489    0.68726    1.000
    H414     H        0.15222    0.01353    0.70287    1.000
    H415     H        0.07446    0.91254    0.64875    1.000
    C416     C        0.14380    0.94261    0.65240    1.000
    H417     H        0.13297    0.89624    0.63952    1.000
    O418     O        0.20672    0.99553    0.68966    1.000
    H419     H        0.09720    0.91379    0.59317    1.000
    C420     C        0.20428    0.98330    0.64886    1.000
    H421     H        0.18764    0.93052    0.61511    1.000
    H422     H        0.26564    0.03894    0.68572    1.000
    H423     H        0.15707    0.96787    0.60386    1.000
    C424     C        0.94777    0.48284    0.06395    1.000
    H425     H        0.97738    0.54309    0.10835    1.000
    C426     C        0.91477    0.44601    0.06341    1.000
    H427     H        0.90306    0.44858    0.00113    1.000
    H428     H        0.95442    0.48631    0.12785    1.000
    H429     H        0.90057    0.39474    0.03365    1.000
    O430     O        0.85633    0.42015    0.02820    1.000
    C431     C        0.81887    0.38303    0.96623    1.000
    H432     H        0.79009    0.32303    0.92937    1.000
    H433     H        0.76974    0.37179    0.93688    1.000
    Zn434    Zn       0.00867    0.33350    0.00716    1.000
    Zn435    Zn       0.29728    0.58766    0.23719    1.000
    H436     H        0.40600    0.75030    0.32700    1.000
    H437     H        0.40330    0.82360    0.32600    1.000
    H438     H        0.17130    0.55290    0.13180    1.000
    H439     H        0.16100    0.62010    0.12770    1.000
    H440     H        0.03810    0.17370    0.90140    1.000
    H441     H        0.91610    0.21310    0.81150    1.000
    O442     O        0.16240    0.31950    0.04680    1.000
    H443     H        0.01870    0.58460    0.08710    1.000
    H444     H        0.96290    0.33250    0.13790    1.000
    H445     H        0.93090    0.29000    0.03810    1.000
    H446     H        0.18720    0.47550    0.27940    1.000
    H447     H        0.15330    0.43850    0.17690    1.000
    C448     C        0.87060    0.16034    0.84826    1.000
    C449     C        0.35547    0.72380    0.28613    1.000
    C450     C        0.27970    0.72782    0.22378    1.000
    C451     C        0.15411    0.41313    0.07696    1.000
    C452     C        0.20393    0.41650    0.07867    1.000
    C453     C        0.92297    0.17346    0.84937    1.000
    C454     C        0.07668    0.40119    0.21733    1.000
    C455     C        0.35458    0.76805    0.28567    1.000
    C456     C        0.21905    0.60908    0.17307    1.000
    C457     C        0.21279    0.64862    0.16919    1.000
    C458     C        0.99870    0.41210    0.00480    1.000
    C459     C        0.03230    0.20920    0.86240    1.000
    C460     C        0.01300    0.18100    0.88140    1.000
    C461     C        0.95810    0.16190    0.87260    1.000
    C462     C        0.93890    0.20290    0.82830    1.000
    C463     C        0.09650    0.22630    0.87470    1.000
    C464     C        0.99150    0.21590    0.83440    1.000
    C465     C        0.20490    0.37050    0.07480    1.000
    C466     C        0.25230    0.46650    0.08740    1.000
    C467     C        0.99630    0.45160    0.99440    1.000
    C468     C        0.00230    0.49420    0.04060    1.000
    C469     C        0.00990    0.55030    0.05040    1.000
    C470     C        0.00310    0.35190    0.14610    1.000
    C471     C        0.98550    0.33030    0.08870    1.000
    C472     C        0.13280    0.43570    0.22870    1.000
    C473     C        0.11250    0.41410    0.16770    1.000
    N474     N        0.28884    0.64639    0.23187    1.000
    N475     N        0.03616    0.35902    0.09482    1.000
    O476     O        0.00980    0.25650    0.81840    1.000
    O477     O        0.99460    0.49340    0.08240    1.000
    O478     O        0.18388    0.47678    0.13024    1.000
    O479     O        0.79665    0.09143    0.78532    1.000
    O480     O        0.89901    0.21789    0.90750    1.000
    O481     O        0.08155    0.34372    0.02033    1.000
    O482     O        0.98810    0.39338    0.02632    1.000
    O483     O        0.12583    0.22465    0.90432    1.000
    O484     O        0.10620    0.24430    0.85480    1.000
    H485     H        0.24720    0.51007    0.09093    1.000
    O486     O        0.00707    0.38300    0.97753    1.000
    O487     O        0.94990    0.14490    0.90620    1.000
    C488     C        0.02573    0.80529    0.04171    1.000
    H489     H        0.07702    0.82802    0.05708    1.000
    C490     C        0.98016    0.78271    0.98717    1.000
    H491     H        0.99499    0.75397    0.02739    1.000
    O492     O        0.01289    0.82082    0.98851    1.000
    H493     H        0.94671    0.78754    0.98873    1.000
    H494     H        0.93532    0.71720    0.92974    1.000
    C495     C        0.00183    0.78555    0.94200    1.000
    H496     H        0.06163    0.82272    0.97031    1.000
    H497     H        0.96172    0.76998    0.89167    1.000
    H498     H        0.97079    0.72774    0.91628    1.000
    C499     C        0.96489    0.68726    0.13831    1.000
    H500     H        0.01353    0.70287    0.15222    1.000
    H501     H        0.91254    0.64875    0.07446    1.000
    C502     C        0.94261    0.65240    0.14380    1.000
    H503     H        0.89624    0.63952    0.13297    1.000
    O504     O        0.99553    0.68966    0.20672    1.000
    H505     H        0.91379    0.59317    0.09720    1.000
    C506     C        0.98330    0.64886    0.20428    1.000
    H507     H        0.93052    0.61511    0.18764    1.000
    H508     H        0.03894    0.68572    0.26564    1.000
    H509     H        0.96787    0.60386    0.15707    1.000
    C510     C        0.48284    0.06395    0.94777    1.000
    H511     H        0.54309    0.10835    0.97738    1.000
    C512     C        0.44601    0.06341    0.91477    1.000
    H513     H        0.44858    0.00113    0.90306    1.000
    H514     H        0.48631    0.12785    0.95442    1.000
    H515     H        0.39474    0.03365    0.90057    1.000
    O516     O        0.42015    0.02820    0.85633    1.000
    C517     C        0.38303    0.96623    0.81887    1.000
    H518     H        0.32303    0.92937    0.79009    1.000
    H519     H        0.37179    0.93688    0.76974    1.000
    Zn520    Zn       0.50716    0.83350    0.50867    1.000
    Zn521    Zn       0.73719    0.08766    0.79728    1.000
    H522     H        0.82700    0.25030    0.90600    1.000
    H523     H        0.82600    0.32360    0.90330    1.000
    H524     H        0.63180    0.05290    0.67130    1.000
    H525     H        0.62770    0.12010    0.66100    1.000
    H526     H        0.40140    0.67370    0.53810    1.000
    H527     H        0.31150    0.71310    0.41610    1.000
    H528     H        0.54680    0.81950    0.66240    1.000
    H529     H        0.58710    0.08460    0.51870    1.000
    H530     H        0.63790    0.83250    0.46290    1.000
    H531     H        0.53810    0.79000    0.43090    1.000
    H532     H        0.77940    0.97550    0.68720    1.000
    H533     H        0.67690    0.93850    0.65330    1.000
    C534     C        0.34826    0.66034    0.37060    1.000
    C535     C        0.78613    0.22380    0.85547    1.000
    C536     C        0.72378    0.22782    0.77970    1.000
    C537     C        0.57696    0.91313    0.65411    1.000
    C538     C        0.57867    0.91650    0.70393    1.000
    C539     C        0.34937    0.67346    0.42297    1.000
    C540     C        0.71733    0.90119    0.57668    1.000
    C541     C        0.78567    0.26805    0.85458    1.000
    C542     C        0.67307    0.10908    0.71905    1.000
    C543     C        0.66919    0.14862    0.71279    1.000
    C544     C        0.50480    0.91210    0.49870    1.000
    C545     C        0.36240    0.70920    0.53230    1.000
    C546     C        0.38140    0.68100    0.51300    1.000
    C547     C        0.37260    0.66190    0.45810    1.000
    C548     C        0.32830    0.70290    0.43890    1.000
    C549     C        0.37470    0.72630    0.59650    1.000
    C550     C        0.33440    0.71590    0.49150    1.000
    C551     C        0.57480    0.87050    0.70490    1.000
    C552     C        0.58740    0.96650    0.75230    1.000
    C553     C        0.49440    0.95160    0.49630    1.000
    C554     C        0.54060    0.99420    0.50230    1.000
    C555     C        0.55040    0.05030    0.50990    1.000
    C556     C        0.64610    0.85190    0.50310    1.000
    C557     C        0.58870    0.83030    0.48550    1.000
    C558     C        0.72870    0.93570    0.63280    1.000
    C559     C        0.66770    0.91410    0.61250    1.000
    N560     N        0.73187    0.14639    0.78884    1.000
    N561     N        0.59482    0.85902    0.53616    1.000
    O562     O        0.31840    0.75650    0.50980    1.000
    O563     O        0.58240    0.99340    0.49460    1.000
    O564     O        0.63024    0.97678    0.68388    1.000
    O565     O        0.28532    0.59143    0.29665    1.000
    O566     O        0.40750    0.71789    0.39901    1.000
    O567     O        0.52033    0.84372    0.58155    1.000
    O568     O        0.52632    0.89338    0.48810    1.000
    O569     O        0.40432    0.72465    0.62583    1.000
    O570     O        0.35480    0.74430    0.60620    1.000
    H571     H        0.59093    0.01007    0.74720    1.000
    O572     O        0.47753    0.88300    0.50707    1.000
    O573     O        0.40620    0.64490    0.44990    1.000
    C574     C        0.54171    0.30529    0.52573    1.000
    H575     H        0.55708    0.32802    0.57702    1.000
    C576     C        0.48717    0.28271    0.48016    1.000
    H577     H        0.52739    0.25397    0.49499    1.000
    O578     O        0.48851    0.32082    0.51289    1.000
    H579     H        0.48873    0.28754    0.44671    1.000
    H580     H        0.42974    0.21720    0.43532    1.000
    C581     C        0.44200    0.28555    0.50183    1.000
    H582     H        0.47031    0.32272    0.56163    1.000
    H583     H        0.39167    0.26998    0.46172    1.000
    H584     H        0.41628    0.22774    0.47079    1.000
    C585     C        0.63831    0.18726    0.46489    1.000
    H586     H        0.65222    0.20287    0.51353    1.000
    H587     H        0.57446    0.14875    0.41254    1.000
    C588     C        0.64380    0.15240    0.44261    1.000
    H589     H        0.63297    0.13952    0.39624    1.000
    O590     O        0.70672    0.18966    0.49553    1.000
    H591     H        0.59720    0.09317    0.41379    1.000
    C592     C        0.70428    0.14886    0.48330    1.000
    H593     H        0.68764    0.11511    0.43052    1.000
    H594     H        0.76564    0.18572    0.53894    1.000
    H595     H        0.65707    0.10386    0.46787    1.000
    C596     C        0.44777    0.56395    0.98284    1.000
    H597     H        0.47738    0.60835    0.04309    1.000
    C598     C        0.41477    0.56341    0.94601    1.000
    H599     H        0.40306    0.50113    0.94858    1.000
    H600     H        0.45442    0.62785    0.98631    1.000
    H601     H        0.40057    0.53365    0.89474    1.000
    O602     O        0.35633    0.52820    0.92015    1.000
    C603     C        0.31887    0.46623    0.88303    1.000
    H604     H        0.29009    0.42937    0.82303    1.000
    H605     H        0.35831    0.46879    0.91617    1.000
    H606     H        0.26974    0.43688    0.87179    1.000
    Zn607    Zn       0.50867    0.50716    0.83350    1.000
    Zn608    Zn       0.79728    0.73719    0.08766    1.000
    H609     H        0.90600    0.82700    0.25030    1.000
    H610     H        0.90330    0.82600    0.32360    1.000
    H611     H        0.67130    0.63180    0.05290    1.000
    H612     H        0.66100    0.62770    0.12010    1.000
    H613     H        0.53810    0.40140    0.67370    1.000
    H614     H        0.41610    0.31150    0.71310    1.000
    H615     H        0.66240    0.54680    0.81950    1.000
    H616     H        0.51870    0.58710    0.08460    1.000
    H617     H        0.46290    0.63790    0.83250    1.000
    H618     H        0.43090    0.53810    0.79000    1.000
    H619     H        0.68720    0.77940    0.97550    1.000
    H620     H        0.65330    0.67690    0.93850    1.000
    C621     C        0.37060    0.34826    0.66034    1.000
    C622     C        0.85547    0.78613    0.22380    1.000
    C623     C        0.77970    0.72378    0.22782    1.000
    C624     C        0.65411    0.57696    0.91313    1.000
    C625     C        0.70393    0.57867    0.91650    1.000
    C626     C        0.42297    0.34937    0.67346    1.000
    C627     C        0.57668    0.71733    0.90119    1.000
    C628     C        0.85458    0.78567    0.26805    1.000
    C629     C        0.71905    0.67307    0.10908    1.000
    C630     C        0.71279    0.66919    0.14862    1.000
    C631     C        0.49870    0.50480    0.91210    1.000
    C632     C        0.53230    0.36240    0.70920    1.000
    C633     C        0.51300    0.38140    0.68100    1.000
    C634     C        0.45810    0.37260    0.66190    1.000
    C635     C        0.43890    0.32830    0.70290    1.000
    C636     C        0.59650    0.37470    0.72630    1.000
    C637     C        0.49150    0.33440    0.71590    1.000
    C638     C        0.70490    0.57480    0.87050    1.000
    C639     C        0.75230    0.58740    0.96650    1.000
    C640     C        0.49630    0.49440    0.95160    1.000
    C641     C        0.50230    0.54060    0.99420    1.000
    C642     C        0.50990    0.55040    0.05030    1.000
    C643     C        0.50310    0.64610    0.85190    1.000
    C644     C        0.48550    0.58870    0.83030    1.000
    C645     C        0.63280    0.72870    0.93570    1.000
    C646     C        0.61250    0.66770    0.91410    1.000
    N647     N        0.78884    0.73187    0.14639    1.000
    N648     N        0.53616    0.59482    0.85902    1.000
    O649     O        0.50980    0.31840    0.75650    1.000
    O650     O        0.49460    0.58240    0.99340    1.000
    O651     O        0.68388    0.63024    0.97678    1.000
    O652     O        0.29665    0.28532    0.59143    1.000
    O653     O        0.39901    0.40750    0.71789    1.000
    O654     O        0.58155    0.52033    0.84372    1.000
    O655     O        0.48810    0.52632    0.89338    1.000
    O656     O        0.62583    0.40432    0.72465    1.000
    O657     O        0.60620    0.35480    0.74430    1.000
    H658     H        0.74720    0.59093    0.01007    1.000
    O659     O        0.50707    0.47753    0.88300    1.000
    O660     O        0.44990    0.40620    0.64490    1.000
    C661     C        0.52573    0.54171    0.30529    1.000
    H662     H        0.57702    0.55708    0.32802    1.000
    C663     C        0.48016    0.48717    0.28271    1.000
    H664     H        0.49499    0.52739    0.25397    1.000
    O665     O        0.51289    0.48851    0.32082    1.000
    H666     H        0.44671    0.48873    0.28754    1.000
    H667     H        0.43532    0.42974    0.21720    1.000
    C668     C        0.50183    0.44200    0.28555    1.000
    H669     H        0.56163    0.47031    0.32272    1.000
    H670     H        0.46172    0.39167    0.26998    1.000
    H671     H        0.47079    0.41628    0.22774    1.000
    C672     C        0.46489    0.63831    0.18726    1.000
    H673     H        0.51353    0.65222    0.20287    1.000
    H674     H        0.41254    0.57446    0.14875    1.000
    C675     C        0.44261    0.64380    0.15240    1.000
    H676     H        0.39624    0.63297    0.13952    1.000
    O677     O        0.49553    0.70672    0.18966    1.000
    H678     H        0.41379    0.59720    0.09317    1.000
    C679     C        0.48330    0.70428    0.14886    1.000
    H680     H        0.43052    0.68764    0.11511    1.000
    H681     H        0.53894    0.76564    0.18572    1.000
    H682     H        0.46787    0.65707    0.10386    1.000
    C683     C        0.98284    0.44777    0.56395    1.000
    H684     H        0.04309    0.47738    0.60835    1.000
    C685     C        0.94601    0.41477    0.56341    1.000
    H686     H        0.94858    0.40306    0.50113    1.000
    H687     H        0.98631    0.45442    0.62785    1.000
    H688     H        0.89474    0.40057    0.53365    1.000
    O689     O        0.92015    0.35633    0.52820    1.000
    C690     C        0.88303    0.31887    0.46623    1.000
    H691     H        0.82303    0.29009    0.42937    1.000
    H692     H        0.91617    0.35831    0.46879    1.000
    H693     H        0.87179    0.26974    0.43688    1.000
    Zn694    Zn       0.83350    0.50867    0.50716    1.000
    Zn695    Zn       0.08766    0.79728    0.73719    1.000
    H696     H        0.25030    0.90600    0.82700    1.000
    H697     H        0.32360    0.90330    0.82600    1.000
    H698     H        0.05290    0.67130    0.63180    1.000
    H699     H        0.12010    0.66100    0.62770    1.000
    H700     H        0.67370    0.53810    0.40140    1.000
    H701     H        0.71310    0.41610    0.31150    1.000
    O702     O        0.81950    0.66240    0.54680    1.000
    H703     H        0.08460    0.51870    0.58710    1.000
    H704     H        0.83250    0.46290    0.63790    1.000
    H705     H        0.79000    0.43090    0.53810    1.000
    H706     H        0.97550    0.68720    0.77940    1.000
    H707     H        0.93850    0.65330    0.67690    1.000
    C708     C        0.66034    0.37060    0.34826    1.000
    C709     C        0.22380    0.85547    0.78613    1.000
    C710     C        0.22782    0.77970    0.72378    1.000
    C711     C        0.91313    0.65411    0.57696    1.000
    C712     C        0.91650    0.70393    0.57867    1.000
    C713     C        0.67346    0.42297    0.34937    1.000
    C714     C        0.90119    0.57668    0.71733    1.000
    C715     C        0.26805    0.85458    0.78567    1.000
    C716     C        0.10908    0.71905    0.67307    1.000
    C717     C        0.14862    0.71279    0.66919    1.000
    C718     C        0.91210    0.49870    0.50480    1.000
    C719     C        0.70920    0.53230    0.36240    1.000
    C720     C        0.68100    0.51300    0.38140    1.000
    C721     C        0.66190    0.45810    0.37260    1.000
    C722     C        0.70290    0.43890    0.32830    1.000
    C723     C        0.72630    0.59650    0.37470    1.000
    C724     C        0.71590    0.49150    0.33440    1.000
    C725     C        0.87050    0.70490    0.57480    1.000
    C726     C        0.96650    0.75230    0.58740    1.000
    C727     C        0.95160    0.49630    0.49440    1.000
    C728     C        0.99420    0.50230    0.54060    1.000
    C729     C        0.05030    0.50990    0.55040    1.000
    C730     C        0.85190    0.50310    0.64610    1.000
    C731     C        0.83030    0.48550    0.58870    1.000
    C732     C        0.93570    0.63280    0.72870    1.000
    C733     C        0.91410    0.61250    0.66770    1.000
    N734     N        0.14639    0.78884    0.73187    1.000
    N735     N        0.85902    0.53616    0.59482    1.000
    O736     O        0.75650    0.50980    0.31840    1.000
    O737     O        0.99340    0.49460    0.58240    1.000
    O738     O        0.97678    0.68388    0.63024    1.000
    O739     O        0.59143    0.29665    0.28532    1.000
    O740     O        0.71789    0.39901    0.40750    1.000
    O741     O        0.84372    0.58155    0.52033    1.000
    O742     O        0.89338    0.48810    0.52632    1.000
    O743     O        0.72465    0.62583    0.40432    1.000
    O744     O        0.74430    0.60620    0.35480    1.000
    H745     H        0.01007    0.74720    0.59093    1.000
    O746     O        0.88300    0.50707    0.47753    1.000
    O747     O        0.64490    0.44990    0.40620    1.000
    C748     C        0.30529    0.52573    0.54171    1.000
    H749     H        0.32802    0.57702    0.55708    1.000
    C750     C        0.28271    0.48016    0.48717    1.000
    H751     H        0.25397    0.49499    0.52739    1.000
    O752     O        0.32082    0.51289    0.48851    1.000
    H753     H        0.28754    0.44671    0.48873    1.000
    H754     H        0.21720    0.43532    0.42974    1.000
    C755     C        0.28555    0.50183    0.44200    1.000
    H756     H        0.32272    0.56163    0.47031    1.000
    H757     H        0.26998    0.46172    0.39167    1.000
    H758     H        0.22774    0.47079    0.41628    1.000
    C759     C        0.18726    0.46489    0.63831    1.000
    H760     H        0.20287    0.51353    0.65222    1.000
    H761     H        0.14875    0.41254    0.57446    1.000
    C762     C        0.15240    0.44261    0.64380    1.000
    H763     H        0.13952    0.39624    0.63297    1.000
    O764     O        0.18966    0.49553    0.70672    1.000
    H765     H        0.09317    0.41379    0.59720    1.000
    C766     C        0.14886    0.48330    0.70428    1.000
    H767     H        0.11511    0.43052    0.68764    1.000
    H768     H        0.18572    0.53894    0.76564    1.000
    H769     H        0.10386    0.46787    0.65707    1.000
    C770     C        0.56395    0.98284    0.44777    1.000
    H771     H        0.60835    0.04309    0.47738    1.000
    C772     C        0.56341    0.94601    0.41477    1.000
    H773     H        0.50113    0.94858    0.40306    1.000
    H774     H        0.62785    0.98631    0.45442    1.000
    H775     H        0.53365    0.89474    0.40057    1.000
    O776     O        0.52820    0.92015    0.35633    1.000
    C777     C        0.46623    0.88303    0.31887    1.000
    H778     H        0.42937    0.82303    0.29009    1.000
    H779     H        0.46879    0.91617    0.35831    1.000
    H780     H        0.43688    0.87179    0.26974    1.000
    Zn781    Zn       0.66650    0.99284    0.99133    1.000
    Zn782    Zn       0.41234    0.76281    0.70272    1.000
    H783     H        0.24970    0.67300    0.59400    1.000
    H784     H        0.17640    0.67400    0.59670    1.000
    H785     H        0.44710    0.86820    0.82870    1.000
    H786     H        0.37990    0.87230    0.83900    1.000
    H787     H        0.82630    0.09860    0.96190    1.000
    H788     H        0.78690    0.18850    0.08390    1.000
    O789     O        0.68050    0.95320    0.83760    1.000
    H790     H        0.41540    0.91290    0.98130    1.000
    H791     H        0.66750    0.86210    0.03710    1.000
    H792     H        0.71000    0.96190    0.06910    1.000
    H793     H        0.52450    0.72060    0.81280    1.000
    H794     H        0.56150    0.82310    0.84670    1.000
    C795     C        0.83966    0.15174    0.12940    1.000
    C796     C        0.27620    0.71387    0.64453    1.000
    C797     C        0.27218    0.77622    0.72030    1.000
    C798     C        0.58687    0.92304    0.84589    1.000
    C799     C        0.58350    0.92133    0.79607    1.000
    C800     C        0.82654    0.15063    0.07703    1.000
    C801     C        0.59881    0.78267    0.92332    1.000
    C802     C        0.23195    0.71433    0.64542    1.000
    C803     C        0.39092    0.82693    0.78095    1.000
    C804     C        0.35138    0.83081    0.78721    1.000
    C805     C        0.58790    0.99520    0.00130    1.000
    C806     C        0.79080    0.13760    0.96770    1.000
    C807     C        0.81900    0.11860    0.98700    1.000
    C808     C        0.83810    0.12740    0.04190    1.000
    C809     C        0.79710    0.17170    0.06110    1.000
    C810     C        0.77370    0.12530    0.90350    1.000
    C811     C        0.78410    0.16560    0.00850    1.000
    C812     C        0.62950    0.92520    0.79510    1.000
    C813     C        0.53350    0.91260    0.74770    1.000
    C814     C        0.54840    0.00560    0.00370    1.000
    C815     C        0.50580    0.95940    0.99770    1.000
    C816     C        0.44970    0.94960    0.99010    1.000
    C817     C        0.64810    0.85390    0.99690    1.000
    C818     C        0.66970    0.91130    0.01450    1.000
    C819     C        0.56430    0.77130    0.86720    1.000
    C820     C        0.58590    0.83230    0.88750    1.000
    N821     N        0.35361    0.76813    0.71116    1.000
    N822     N        0.64098    0.90518    0.96384    1.000
    O823     O        0.74350    0.18160    0.99020    1.000
    O824     O        0.50660    0.91760    0.00540    1.000
    O825     O        0.52322    0.86976    0.81612    1.000
    O826     O        0.90857    0.21468    0.20335    1.000
    O827     O        0.78211    0.09250    0.10099    1.000
    O828     O        0.65628    0.97967    0.91845    1.000
    O829     O        0.60662    0.97368    0.01190    1.000
    O830     O        0.77535    0.09568    0.87417    1.000
    O831     O        0.75570    0.14520    0.89380    1.000
    H832     H        0.48993    0.90907    0.75280    1.000
    O833     O        0.61700    0.02247    0.99293    1.000
    O834     O        0.85510    0.09380    0.05010    1.000
    C835     C        0.19471    0.95829    0.97427    1.000
    H836     H        0.17198    0.94292    0.92298    1.000
    C837     C        0.21729    0.01283    0.01984    1.000
    H838     H        0.24603    0.97261    0.00501    1.000
    O839     O        0.17918    0.01149    0.98711    1.000
    H840     H        0.21246    0.01127    0.05329    1.000
    H841     H        0.28280    0.07026    0.06468    1.000
    C842     C        0.21445    0.05800    0.99817    1.000
    H843     H        0.17728    0.02969    0.93837    1.000
    H844     H        0.23002    0.10833    0.03828    1.000
    H845     H        0.27226    0.08372    0.02921    1.000
    C846     C        0.31274    0.86169    0.03511    1.000
    H847     H        0.29713    0.84778    0.98647    1.000
    H848     H        0.35125    0.92554    0.08746    1.000
    C849     C        0.34760    0.85620    0.05739    1.000
    H850     H        0.36048    0.86703    0.10376    1.000
    O851     O        0.31034    0.79328    0.00447    1.000
    H852     H        0.40683    0.90280    0.08621    1.000
    C853     C        0.35114    0.79572    0.01670    1.000
    H854     H        0.38489    0.81236    0.06948    1.000
    H855     H        0.31428    0.73436    0.96106    1.000
    H856     H        0.39614    0.84293    0.03213    1.000
    C857     C        0.93605    0.05223    0.51716    1.000
    H858     H        0.89165    0.02262    0.45691    1.000
    C859     C        0.93659    0.08523    0.55399    1.000
    H860     H        0.99887    0.09694    0.55142    1.000
    H861     H        0.87215    0.04558    0.51369    1.000
    H862     H        0.96635    0.09943    0.60526    1.000
    O863     O        0.97180    0.14367    0.57985    1.000
    C864     C        0.03377    0.18113    0.61697    1.000
    H865     H        0.07063    0.20991    0.67697    1.000
    H866     H        0.06312    0.23026    0.62821    1.000
    Zn867    Zn       0.99284    0.99133    0.66650    1.000
    Zn868    Zn       0.76281    0.70272    0.41234    1.000
    H869     H        0.67300    0.59400    0.24970    1.000
    H870     H        0.67400    0.59670    0.17640    1.000
    H871     H        0.86820    0.82870    0.44710    1.000
    H872     H        0.87230    0.83900    0.37990    1.000
    H873     H        0.09860    0.96190    0.82630    1.000
    H874     H        0.18850    0.08390    0.78690    1.000
    H875     H        0.95320    0.83760    0.68050    1.000
    H876     H        0.91290    0.98130    0.41540    1.000
    H877     H        0.86210    0.03710    0.66750    1.000
    H878     H        0.96190    0.06910    0.71000    1.000
    H879     H        0.72060    0.81280    0.52450    1.000
    H880     H        0.82310    0.84670    0.56150    1.000
    C881     C        0.15174    0.12940    0.83966    1.000
    C882     C        0.71387    0.64453    0.27620    1.000
    C883     C        0.77622    0.72030    0.27218    1.000
    C884     C        0.92304    0.84589    0.58687    1.000
    C885     C        0.92133    0.79607    0.58350    1.000
    C886     C        0.15063    0.07703    0.82654    1.000
    C887     C        0.78267    0.92332    0.59881    1.000
    C888     C        0.71433    0.64542    0.23195    1.000
    C889     C        0.82693    0.78095    0.39092    1.000
    C890     C        0.83081    0.78721    0.35138    1.000
    C891     C        0.99520    0.00130    0.58790    1.000
    C892     C        0.13760    0.96770    0.79080    1.000
    C893     C        0.11860    0.98700    0.81900    1.000
    C894     C        0.12740    0.04190    0.83810    1.000
    C895     C        0.17170    0.06110    0.79710    1.000
    C896     C        0.12530    0.90350    0.77370    1.000
    C897     C        0.16560    0.00850    0.78410    1.000
    C898     C        0.92520    0.79510    0.62950    1.000
    C899     C        0.91260    0.74770    0.53350    1.000
    C900     C        0.00560    0.00370    0.54840    1.000
    C901     C        0.95940    0.99770    0.50580    1.000
    C902     C        0.94960    0.99010    0.44970    1.000
    C903     C        0.85390    0.99690    0.64810    1.000
    C904     C        0.91130    0.01450    0.66970    1.000
    C905     C        0.77130    0.86720    0.56430    1.000
    C906     C        0.83230    0.88750    0.58590    1.000
    N907     N        0.76813    0.71116    0.35361    1.000
    N908     N        0.90518    0.96384    0.64098    1.000
    O909     O        0.18160    0.99020    0.74350    1.000
    O910     O        0.91760    0.00540    0.50660    1.000
    O911     O        0.86976    0.81612    0.52322    1.000
    O912     O        0.21468    0.20335    0.90857    1.000
    O913     O        0.09250    0.10099    0.78211    1.000
    O914     O        0.97967    0.91845    0.65628    1.000
    O915     O        0.97368    0.01190    0.60662    1.000
    O916     O        0.09568    0.87417    0.77535    1.000
    O917     O        0.14520    0.89380    0.75570    1.000
    O918     O        0.90907    0.75280    0.48993    1.000
    O919     O        0.02247    0.99293    0.61700    1.000
    O920     O        0.09380    0.05010    0.85510    1.000
    C921     C        0.95829    0.97427    0.19471    1.000
    H922     H        0.94292    0.92298    0.17198    1.000
    C923     C        0.01283    0.01984    0.21729    1.000
    H924     H        0.97261    0.00501    0.24603    1.000
    O925     O        0.01149    0.98711    0.17918    1.000
    H926     H        0.01127    0.05329    0.21246    1.000
    H927     H        0.07026    0.06468    0.28280    1.000
    C928     C        0.05800    0.99817    0.21445    1.000
    H929     H        0.02969    0.93837    0.17728    1.000
    H930     H        0.10833    0.03828    0.23002    1.000
    H931     H        0.08372    0.02921    0.27226    1.000
    C932     C        0.86169    0.03511    0.31274    1.000
    H933     H        0.84778    0.98647    0.29713    1.000
    H934     H        0.92554    0.08746    0.35125    1.000
    C935     C        0.85620    0.05739    0.34760    1.000
    H936     H        0.86703    0.10376    0.36048    1.000
    O937     O        0.79328    0.00447    0.31034    1.000
    H938     H        0.90280    0.08621    0.40683    1.000
    C939     C        0.79572    0.01670    0.35114    1.000
    H940     H        0.81236    0.06948    0.38489    1.000
    H941     H        0.73436    0.96106    0.31428    1.000
    H942     H        0.84293    0.03213    0.39614    1.000
    C943     C        0.05223    0.51716    0.93605    1.000
    H944     H        0.02262    0.45691    0.89165    1.000
    C945     C        0.08523    0.55399    0.93659    1.000
    H946     H        0.09694    0.55142    0.99887    1.000
    H947     H        0.04558    0.51369    0.87215    1.000
    H948     H        0.09943    0.60526    0.96635    1.000
    O949     O        0.14367    0.57985    0.97180    1.000
    C950     C        0.18113    0.61697    0.03377    1.000
    H951     H        0.20991    0.67697    0.07063    1.000
    H952     H        0.23026    0.62821    0.06312    1.000
    Zn953    Zn       0.99133    0.66650    0.99284    1.000
    Zn954    Zn       0.70272    0.41234    0.76281    1.000
    H955     H        0.59400    0.24970    0.67300    1.000
    H956     H        0.59670    0.17640    0.67400    1.000
    H957     H        0.82870    0.44710    0.86820    1.000
    H958     H        0.83900    0.37990    0.87230    1.000
    H959     H        0.96190    0.82630    0.09860    1.000
    H960     H        0.08390    0.78690    0.18850    1.000
    O961     O        0.83760    0.68050    0.95320    1.000
    H962     H        0.98130    0.41540    0.91290    1.000
    H963     H        0.03710    0.66750    0.86210    1.000
    H964     H        0.06910    0.71000    0.96190    1.000
    H965     H        0.81280    0.52450    0.72060    1.000
    H966     H        0.84670    0.56150    0.82310    1.000
    C967     C        0.12940    0.83966    0.15174    1.000
    C968     C        0.64453    0.27620    0.71387    1.000
    C969     C        0.72030    0.27218    0.77622    1.000
    C970     C        0.84589    0.58687    0.92304    1.000
    C971     C        0.79607    0.58350    0.92133    1.000
    C972     C        0.07703    0.82654    0.15063    1.000
    C973     C        0.92332    0.59881    0.78267    1.000
    C974     C        0.64542    0.23195    0.71433    1.000
    C975     C        0.78095    0.39092    0.82693    1.000
    C976     C        0.78721    0.35138    0.83081    1.000
    C977     C        0.00130    0.58790    0.99520    1.000
    C978     C        0.96770    0.79080    0.13760    1.000
    C979     C        0.98700    0.81900    0.11860    1.000
    C980     C        0.04190    0.83810    0.12740    1.000
    C981     C        0.06110    0.79710    0.17170    1.000
    C982     C        0.90350    0.77370    0.12530    1.000
    C983     C        0.00850    0.78410    0.16560    1.000
    C984     C        0.79510    0.62950    0.92520    1.000
    C985     C        0.74770    0.53350    0.91260    1.000
    C986     C        0.00370    0.54840    0.00560    1.000
    C987     C        0.99770    0.50580    0.95940    1.000
    C988     C        0.99010    0.44970    0.94960    1.000
    C989     C        0.99690    0.64810    0.85390    1.000
    C990     C        0.01450    0.66970    0.91130    1.000
    C991     C        0.86720    0.56430    0.77130    1.000
    C992     C        0.88750    0.58590    0.83230    1.000
    N993     N        0.71116    0.35361    0.76813    1.000
    N994     N        0.96384    0.64098    0.90518    1.000
    O995     O        0.99020    0.74350    0.18160    1.000
    O996     O        0.00540    0.50660    0.91760    1.000
    O997     O        0.81612    0.52322    0.86976    1.000
    O998     O        0.20335    0.90857    0.21468    1.000
    O999     O        0.10099    0.78211    0.09250    1.000
    O1000    O        0.91845    0.65628    0.97967    1.000
    O1001    O        0.01190    0.60662    0.97368    1.000
    O1002    O        0.87417    0.77535    0.09568    1.000
    O1003    O        0.89380    0.75570    0.14520    1.000
    H1004    H        0.75280    0.48993    0.90907    1.000
    O1005    O        0.99293    0.61700    0.02247    1.000
    O1006    O        0.05010    0.85510    0.09380    1.000
    C1007    C        0.97427    0.19471    0.95829    1.000
    H1008    H        0.92298    0.17198    0.94292    1.000
    C1009    C        0.01984    0.21729    0.01283    1.000
    H1010    H        0.00501    0.24603    0.97261    1.000
    O1011    O        0.98711    0.17918    0.01149    1.000
    H1012    H        0.05329    0.21246    0.01127    1.000
    H1013    H        0.06468    0.28280    0.07026    1.000
    C1014    C        0.99817    0.21445    0.05800    1.000
    H1015    H        0.93837    0.17728    0.02969    1.000
    H1016    H        0.03828    0.23002    0.10833    1.000
    H1017    H        0.02921    0.27226    0.08372    1.000
    C1018    C        0.03511    0.31274    0.86169    1.000
    H1019    H        0.98647    0.29713    0.84778    1.000
    H1020    H        0.08746    0.35125    0.92554    1.000
    C1021    C        0.05739    0.34760    0.85620    1.000
    H1022    H        0.10376    0.36048    0.86703    1.000
    O1023    O        0.00447    0.31034    0.79328    1.000
    H1024    H        0.08621    0.40683    0.90280    1.000
    C1025    C        0.01670    0.35114    0.79572    1.000
    H1026    H        0.06948    0.38489    0.81236    1.000
    H1027    H        0.96106    0.31428    0.73436    1.000
    H1028    H        0.03213    0.39614    0.84293    1.000
    C1029    C        0.51716    0.93605    0.05223    1.000
    H1030    H        0.45691    0.89165    0.02262    1.000
    C1031    C        0.55399    0.93659    0.08523    1.000
    H1032    H        0.55142    0.99887    0.09694    1.000
    H1033    H        0.51369    0.87215    0.04558    1.000
    H1034    H        0.60526    0.96635    0.09943    1.000
    O1035    O        0.57985    0.97180    0.14367    1.000
    C1036    C        0.61697    0.03377    0.18113    1.000
    H1037    H        0.67697    0.07063    0.20991    1.000
    H1038    H        0.62821    0.06312    0.23026    1.000
    C1039    C        0.91105    0.79140    0.49531    1.000
    H1040    H        0.93040    0.83250    0.54874    1.000
    H1041    H        0.84878    0.75183    0.43785    1.000
    C1042    C        0.95602    0.82949    0.50487    1.000
    H1043    H        0.92625    0.79222    0.44437    1.000
    O1044    O        0.97640    0.88445    0.53390    1.000
    C1045    C        0.79202    0.67323    0.55266    1.000
    C1046    C        0.79513    0.67466    0.59108    1.000
    H1047    H        0.72645    0.62283    0.49042    1.000
    H1048    H        0.82625    0.73333    0.58251    1.000
    H1049    H        0.84400    0.68786    0.62914    1.000
    H1050    H        0.73461    0.61385    0.55032    1.000
    O1051    O        0.80988    0.72368    0.63222    1.000
    C1052    C        0.86192    0.78040    0.66285    1.000
    H1053    H        0.85278    0.76693    0.61706    1.000
    H1054    H        0.91947    0.80811    0.71167    1.000
    H1055    H        0.86695    0.82439    0.69128    1.000
    C1056    C        0.84536    0.72563    0.98241    1.000
    H1057    H        0.78716    0.69823    0.93588    1.000
    H1058    H        0.88222    0.76157    0.95894    1.000
    H1059    H        0.75313    0.99471    0.83956    1.000
    C1060    C        0.12052    0.30505    0.04330    1.000
    H1061    H        0.12710    0.29586    0.07602    1.000
    H1062    H        0.13544    0.35681    0.07277    1.000
    C1063    C        0.07389    0.17567    0.30597    1.000
    C1064    C        0.02489    0.12339    0.23803    1.000
    H1065    H        0.12097    0.18429    0.33490    1.000
    H1066    H        0.10365    0.23298    0.33110    1.000
    O1067    O        0.05365    0.13304    0.22435    1.000
    C1068    C        0.08769    0.18992    0.24953    1.000
    H1069    H        0.12369    0.23898    0.31275    1.000
    H1070    H        0.04382    0.18020    0.20947    1.000
    H1071    H        0.13052    0.20902    0.25221    1.000
    C1072    C        0.31477    0.08077    0.16496    1.000
    H1073    H        0.32866    0.11654    0.21521    1.000
    C1074    C        0.25115    0.03685    0.10501    1.000
    H1075    H        0.35964    0.12381    0.17729    1.000
    H1076    H        0.24312    0.01377    0.05814    1.000
    O1077    O        0.24097    0.06886    0.11263    1.000
    C1078    C        0.28492    0.12006    0.13239    1.000
    H1079    H        0.26552    0.09629    0.07896    1.000
    H1080    H        0.34703    0.15413    0.18134    1.000
    H1081    H        0.28733    0.16233    0.15718    1.000
    C1082    C        0.27529    0.45600    0.99965    1.000
    H1083    H        0.22208    0.43309    0.95117    1.000
    C1084    C        0.31328    0.47031    0.99633    1.000
    H1085    H        0.27206    0.42121    0.93064    1.000
    H1086    H        0.35770    0.50101    0.96464    1.000
    H1087    H        0.95767    0.28475    0.38726    1.000
    H1088    H        0.98893    0.33174    0.47865    1.000
    C1089    C        0.44218    0.98374    0.25553    1.000
    H1090    H        0.40101    0.92652    0.19202    1.000
    H1091    H        0.46246    0.98029    0.29302    1.000
    H1092    H        0.01073    0.90847    0.10978    1.000
    H1093    H        0.86059    0.74433    0.03261    1.000
    C1094    C        0.89630    0.78067    0.00873    1.000
    H1095    H        0.95499    0.80950    0.05702    1.000
    O1096    O        0.90265    0.82597    0.03656    1.000
    C1097    C        0.95172    0.87921    0.06149    1.000
    H1098    H        0.93695    0.85946    0.01120    1.000
    H1099    H        0.95789    0.92439    0.08907    1.000
    H1100    H        0.31363    0.51279    0.06143    1.000
    H1101    H        0.35330    0.47326    0.02929    1.000
    O1102    O        0.35245    0.53075    0.02574    1.000
    C1103    C        0.39405    0.54776    0.02835    1.000
    H1104    H        0.43246    0.55051    0.06335    1.000
    C1105    C        0.73534    0.01988    0.88980    1.000
    H1106    H        0.75935    0.04620    0.94581    1.000
    H1107    H        0.71982    0.04281    0.87713    1.000
    C1108    C        0.78318    0.03910    0.90008    1.000
    H1109    H        0.81691    0.03998    0.93683    1.000
    O1110    O        0.82732    0.10184    0.93413    1.000
    C1111    C        0.86898    0.11728    0.93706    1.000
    H1112    H        0.83277    0.07003    0.87347    1.000
    H1113    H        0.90562    0.11879    0.97205    1.000
    H1114    H        0.91134    0.17886    0.96868    1.000
    C1115    C        0.49709    0.03806    0.28435    1.000
    O1116    O        0.48544    0.01969    0.23595    1.000
    H1117    H        0.55173    0.06122    0.33084    1.000
    H1118    H        0.50902    0.08759    0.31507    1.000
    C1119    C        0.51327    0.06981    0.25008    1.000
    H1120    H        0.55320    0.12609    0.31327    1.000
    H1121    H        0.55120    0.08238    0.24682    1.000
    H1122    H        0.01037    0.84992    0.54590    1.000
    C1123    C        0.02568    0.92536    0.55019    1.000
    H1124    H        0.00237    0.89322    0.49334    1.000
    H1125    H        0.07746    0.94337    0.59239    1.000
    H1126    H        0.04783    0.98153    0.58158    1.000
    C1127    C        0.01064    0.30586    0.43316    1.000
    C1128    C        0.03633    0.34507    0.49155    1.000
    H1129    H        0.05921    0.34226    0.44541    1.000
    O1130    O        0.05415    0.33146    0.51818    1.000
    H1131    H        0.09159    0.41123    0.53619    1.000
    C1132    C        0.09994    0.34397    0.53027    1.000
    H1133    H        0.07050    0.29666    0.47080    1.000
    H1134    H        0.12641    0.34192    0.56750    1.000
    H1135    H        0.98246    0.12009    0.21001    1.000
    H1136    H        0.20574    0.98402    0.08431    1.000
    C1137    C        0.05601    0.24766    0.97753    1.000
    O1138    O        0.03098    0.19314    0.95638    1.000
    H1139    H        0.05511    0.24432    0.93927    1.000
    C1140    C        0.05870    0.18425    0.94856    1.000
    H1141    H        0.08275    0.17766    0.98137    1.000
    H1142    H        0.11029    0.23842    0.97453    1.000
