data_functionalizedCrystal
_audit_creation_method	'EQeq! by Chris Wilmer'
_symmetry_space_group_name_H-M	'P1'
_symmetry_Int_Tables_number	1
_symmetry_cell_setting	triclinic
loop_
_symmetry_equiv_pos_as_xyz
  x,y,z
_cell_length_a	6.6467
_cell_length_b	15.292
_cell_length_c	15.292
_cell_angle_alpha	62.0622
_cell_angle_beta	81.6694
_cell_angle_gamma	98.3306
loop_
_atom_site_label
_atom_site_type_symbol
_atom_site_fract_x
_atom_site_fract_y
_atom_site_fract_z
_atom_site_charge
Mof_Zn	Zn	0.6159	0.31374	0.42501	1.218
Mof_Zn	Zn	0.04091	0.42501	0.26125	1.217
Mof_Zn	Zn	0.30216	0.26125	0.31374	1.218
Mof_Zn	Zn	0.3841	0.68626	0.57499	1.218
Mof_Zn	Zn	0.95909	0.57499	0.73875	1.217
Mof_Zn	Zn	0.69784	0.73875	0.68626	1.218
Mof_H 	H 	0.28253	0.44568	0.57426	0.063
Mof_H 	H 	0.85679	0.57426	0.98006	0.062
Mof_H 	H 	0.83685	0.98006	0.44568	0.063
Mof_H 	H 	0.71747	0.55432	0.42574	0.063
Mof_H 	H 	0.14321	0.42574	0.01994	0.062
Mof_H 	H 	0.16315	0.01994	0.55432	0.063
Mof_C 	C 	0.23674	0.39297	0.43485	0.439
Mof_C 	C 	0.11595	0.44559	0.46734	-0.211
Mof_C 	C 	0.94131	0.47304	0.42789	0.188
Mof_C 	C 	0.16778	0.46836	0.54438	-0.083
Mof_C 	C 	0.67159	0.43485	0.17218	0.438
Mof_C 	C 	0.58329	0.46734	0.08707	-0.209
Mof_C 	C 	0.3692	0.42789	0.09907	0.187
Mof_C 	C 	0.71216	0.54438	0.98726	-0.083
Mof_C 	C 	0.84377	0.17218	0.39297	0.44
Mof_C 	C 	0.67036	0.08707	0.44559	-0.211
Mof_C 	C 	0.46827	0.09907	0.47304	0.188
Mof_C 	C 	0.69942	0.98726	0.46836	-0.083
Mof_C 	C 	0.76326	0.60703	0.56515	0.439
Mof_C 	C 	0.88405	0.55441	0.53266	-0.211
Mof_C 	C 	0.05869	0.52696	0.57211	0.188
Mof_C 	C 	0.83222	0.53164	0.45562	-0.083
Mof_C 	C 	0.32841	0.56515	0.82782	0.438
Mof_C 	C 	0.41671	0.53266	0.91293	-0.209
Mof_C 	C 	0.6308	0.57211	0.90093	0.187
Mof_C 	C 	0.28784	0.45562	0.01274	-0.083
Mof_C 	C 	0.15623	0.82782	0.60703	0.44
Mof_C 	C 	0.32964	0.91293	0.55441	-0.211
Mof_C 	C 	0.53173	0.90093	0.52696	0.188
Mof_C 	C 	0.30058	0.01274	0.53164	-0.083
Mof_O 	O 	0.37818	0.35935	0.47917	-0.481
Mof_O 	O 	0.17541	0.36047	0.37838	-0.577
Mof_O 	O 	0.87041	0.43768	0.36649	-0.556
Mof_O 	O 	0.85735	0.47917	0.16148	-0.48
Mof_O 	O 	0.55379	0.37838	0.26115	-0.576
Mof_O 	O 	0.2369	0.36649	0.19583	-0.557
Mof_O 	O 	0.01883	0.16148	0.35935	-0.482
Mof_O 	O 	0.81494	0.26115	0.36047	-0.576
Mof_O 	O 	0.43273	0.19583	0.43768	-0.556
Mof_O 	O 	0.62182	0.64065	0.52083	-0.481
Mof_O 	O 	0.82459	0.63953	0.62162	-0.577
Mof_O 	O 	0.12959	0.56232	0.63351	-0.556
Mof_O 	O 	0.14265	0.52083	0.83852	-0.48
Mof_O 	O 	0.44621	0.62162	0.73885	-0.576
Mof_O 	O 	0.7631	0.63351	0.80417	-0.557
Mof_O 	O 	0.98117	0.83852	0.64065	-0.482
Mof_O 	O 	0.18506	0.73885	0.63953	-0.576
Mof_O 	O 	0.56727	0.80417	0.56232	-0.556
_end
