data_functionalizedCrystal
_audit_creation_method	'EQeq! by Chris Wilmer'
_symmetry_space_group_name_H-M	'P1'
_symmetry_Int_Tables_number	1
_symmetry_cell_setting	triclinic
loop_
_symmetry_equiv_pos_as_xyz
  x,y,z
_cell_length_a	18.4673
_cell_length_b	12.7117
_cell_length_c	20.4705
_cell_angle_alpha	90
_cell_angle_beta	108.566
_cell_angle_gamma	90
loop_
_atom_site_label
_atom_site_type_symbol
_atom_site_fract_x
_atom_site_fract_y
_atom_site_fract_z
_atom_site_charge
Mof_In	In	0.26916	0.91849	0.01361	3.139
Mof_In	In	0.12451	0.97908	0.83935	2.773
Mof_In	In	0.28526	0.61234	0.87674	2.727
Mof_In	In	0.21583	0.42041	0.98206	3.181
Mof_In	In	0.37055	0.47616	0.15239	2.73
Mof_In	In	0.20766	0.1131	0.11886	2.735
Mof_In	In	0.42363	0.85061	0.27046	2.349
Mof_In	In	0.57093	0.14684	0.22071	2.326
Mof_P 	P 	0.30358	0.8794	0.86713	0.758
Mof_P 	P 	0.19154	0.37737	0.13105	0.764
Mof_P 	P 	0.05691	0.09066	0.67466	0.761
Mof_P 	P 	0.9399	0.91287	0.81528	0.788
Mof_P 	P 	0.38974	0.04068	0.14832	0.734
Mof_P 	P 	0.1956	0.15496	0.95889	0.74
Mof_P 	P 	0.28785	0.65584	0.03702	0.758
Mof_P 	P 	0.10291	0.54275	0.84437	0.739
Mof_F 	F 	0.16	0.8998	0.93607	-1.035
Mof_F 	F 	0.3284	0.4022	0.05391	-1.035
Mof_F 	F 	0.2767	0.4574	0.9117	-1.052
Mof_F 	F 	0.2094	0.956	0.08391	-1.056
Mof_O 	O 	0.3265	0.6581	0.9808	-0.729
Mof_O 	O 	0.2573	0.4552	0.1576	-0.744
Mof_O 	O 	0.1025	0.4941	0.7756	-0.766
Mof_O 	O 	0.1142	0.454	0.8992	-0.77
Mof_O 	O 	0.1266	0.4091	0.1585	-0.665
Mof_O 	O 	0.8852	0.9457	0.7457	-0.825
Mof_O 	O 	0.3748	0.9518	0.0931	-0.762
Mof_O 	O 	0.4664	0.0926	0.1552	-0.667
Mof_O 	O 	0.2762	0.7684	0.8386	-0.808
Mof_O 	O 	0.0316	0.2068	0.6727	-0.725
Mof_O 	O 	0.0271	0.5979	0.8366	-0.676
Mof_O 	O 	0.2202	0.2662	0.1577	-0.824
Mof_O 	O 	0.3485	0.6274	0.1061	-0.726
Mof_O 	O 	0.1593	0.3785	0.0522	-0.771
Mof_O 	O 	0.1077	0.0627	0.7468	-0.835
Mof_O 	O 	0.3262	0.1237	0.1279	-0.747
Mof_O 	O 	0.3913	0.9939	0.2175	-0.767
Mof_O 	O 	0.985	0.022	0.6504	-0.735
Mof_O 	O 	0.2227	0.5755	0.0195	-0.774
Mof_O 	O 	0.0112	0.9819	0.8377	-0.761
Mof_O 	O 	0.2301	0.264	0.953	-0.729
Mof_O 	O 	0.1667	0.6247	0.8656	-0.748
Mof_O 	O 	0.3723	0.9123	0.8457	-0.664
Mof_O 	O 	0.9653	0.798	0.8126	-0.741
Mof_O 	O 	0.3293	0.8784	0.9459	-0.762
Mof_O 	O 	0.2385	0.9585	0.8369	-0.761
Mof_O 	O 	0.8998	0.9199	0.87	-0.704
Mof_O 	O 	0.2557	0.764	0.0466	-0.725
Mof_O 	O 	0.26	0.0748	0.9762	-0.779
Mof_O 	O 	0.1374	0.1286	0.8878	-0.723
Mof_O 	O 	0.1551	0.155	0.0138	-0.707
Mof_O 	O 	0.102	0.0793	0.6235	-0.698
Mof_In	In	0.23084	0.41849	0.48639	3.147
Mof_In	In	0.37549	0.47908	0.66065	2.771
Mof_In	In	0.21474	0.11234	0.62326	2.728
Mof_In	In	0.28417	0.92041	0.51794	3.182
Mof_In	In	0.12945	0.97616	0.34761	2.72
Mof_In	In	0.29234	0.6131	0.38114	2.727
Mof_In	In	0.07637	0.35061	0.22954	2.351
Mof_In	In	0.92907	0.64684	0.27929	2.325
Mof_P 	P 	0.19642	0.3794	0.63287	0.758
Mof_P 	P 	0.30846	0.87737	0.36895	0.763
Mof_P 	P 	0.44309	0.59066	0.82534	0.76
Mof_P 	P 	0.5601	0.41287	0.68472	0.785
Mof_P 	P 	0.11026	0.54068	0.35168	0.729
Mof_P 	P 	0.3044	0.65496	0.54111	0.743
Mof_P 	P 	0.21215	0.15584	0.46298	0.759
Mof_P 	P 	0.39709	0.04275	0.65563	0.738
Mof_F 	F 	0.34	0.3998	0.56393	-1.037
Mof_F 	F 	0.1716	0.9022	0.44609	-1.035
Mof_F 	F 	0.2233	0.9574	0.5883	-1.053
Mof_F 	F 	0.2906	0.456	0.41609	-1.053
Mof_O 	O 	0.1735	0.1581	0.5192	-0.73
Mof_O 	O 	0.2427	0.9552	0.3424	-0.744
Mof_O 	O 	0.3975	0.9941	0.7244	-0.765
Mof_O 	O 	0.3858	0.954	0.6008	-0.769
Mof_O 	O 	0.3734	0.9091	0.3415	-0.665
Mof_O 	O 	0.6148	0.4457	0.7543	-0.828
Mof_O 	O 	0.1252	0.4518	0.4069	-0.76
Mof_O 	O 	0.0336	0.5926	0.3448	-0.668
Mof_O 	O 	0.2238	0.2684	0.6614	-0.808
Mof_O 	O 	0.4684	0.7068	0.8273	-0.725
Mof_O 	O 	0.4729	0.0979	0.6634	-0.674
Mof_O 	O 	0.2798	0.7662	0.3423	-0.823
Mof_O 	O 	0.1515	0.1274	0.3939	-0.723
Mof_O 	O 	0.3407	0.8785	0.4478	-0.772
Mof_O 	O 	0.3923	0.5627	0.7532	-0.835
Mof_O 	O 	0.1738	0.6237	0.3721	-0.747
Mof_O 	O 	0.1087	0.4939	0.2825	-0.765
Mof_O 	O 	0.515	0.522	0.8496	-0.732
Mof_O 	O 	0.2773	0.0755	0.4805	-0.773
Mof_O 	O 	0.4888	0.4819	0.6623	-0.758
Mof_O 	O 	0.2699	0.764	0.547	-0.729
Mof_O 	O 	0.3333	0.1247	0.6344	-0.748
Mof_O 	O 	0.1277	0.4123	0.6543	-0.664
Mof_O 	O 	0.5347	0.298	0.6874	-0.741
Mof_O 	O 	0.1707	0.3784	0.5541	-0.765
Mof_O 	O 	0.2615	0.4585	0.6631	-0.761
Mof_O 	O 	0.6002	0.4199	0.63	-0.705
Mof_O 	O 	0.2443	0.264	0.4534	-0.726
Mof_O 	O 	0.24	0.5748	0.5238	-0.78
Mof_O 	O 	0.3626	0.6286	0.6122	-0.723
Mof_O 	O 	0.3449	0.655	0.4862	-0.709
Mof_O 	O 	0.398	0.5793	0.8765	-0.698
Mof_In	In	0.73084	0.08151	0.98639	3.138
Mof_In	In	0.87549	0.02092	0.16065	2.772
Mof_In	In	0.71474	0.38766	0.12326	2.727
Mof_In	In	0.78417	0.57959	0.01794	3.181
Mof_In	In	0.62945	0.52384	0.84761	2.73
Mof_In	In	0.79234	0.8869	0.88114	2.735
Mof_In	In	0.57637	0.14939	0.72954	2.349
Mof_In	In	0.42907	0.85316	0.77929	2.326
Mof_P 	P 	0.69642	0.1206	0.13287	0.758
Mof_P 	P 	0.80846	0.62263	0.86895	0.764
Mof_P 	P 	0.94309	0.90934	0.32534	0.761
Mof_P 	P 	0.0601	0.08713	0.18472	0.788
Mof_P 	P 	0.61026	0.95932	0.85168	0.734
Mof_P 	P 	0.8044	0.84504	0.04111	0.74
Mof_P 	P 	0.71215	0.34416	0.96298	0.758
Mof_P 	P 	0.89709	0.45725	0.15563	0.739
Mof_F 	F 	0.84	0.1002	0.06393	-1.035
Mof_F 	F 	0.6716	0.5978	0.94609	-1.035
Mof_F 	F 	0.7233	0.5426	0.0883	-1.052
Mof_F 	F 	0.7906	0.044	0.91609	-1.056
Mof_O 	O 	0.6735	0.3419	0.0192	-0.729
Mof_O 	O 	0.7427	0.5448	0.8424	-0.744
Mof_O 	O 	0.8975	0.5059	0.2244	-0.766
Mof_O 	O 	0.8858	0.546	0.1008	-0.77
Mof_O 	O 	0.8734	0.5909	0.8415	-0.665
Mof_O 	O 	0.1148	0.0543	0.2543	-0.825
Mof_O 	O 	0.6252	0.0482	0.9069	-0.762
Mof_O 	O 	0.5336	0.9074	0.8448	-0.667
Mof_O 	O 	0.7238	0.2316	0.1614	-0.808
Mof_O 	O 	0.9684	0.7932	0.3273	-0.725
Mof_O 	O 	0.9729	0.4021	0.1634	-0.676
Mof_O 	O 	0.7798	0.7338	0.8423	-0.824
Mof_O 	O 	0.6515	0.3726	0.8939	-0.726
Mof_O 	O 	0.8407	0.6215	0.9478	-0.771
Mof_O 	O 	0.8923	0.9373	0.2532	-0.835
Mof_O 	O 	0.6738	0.8763	0.8721	-0.747
Mof_O 	O 	0.6087	0.0061	0.7825	-0.767
Mof_O 	O 	0.015	0.978	0.3496	-0.735
Mof_O 	O 	0.7773	0.4245	0.9805	-0.774
Mof_O 	O 	0.9888	0.0181	0.1623	-0.761
Mof_O 	O 	0.7699	0.736	0.047	-0.729
Mof_O 	O 	0.8333	0.3753	0.1344	-0.748
Mof_O 	O 	0.6277	0.0877	0.1543	-0.664
Mof_O 	O 	0.0347	0.202	0.1874	-0.741
Mof_O 	O 	0.6707	0.1216	0.0541	-0.762
Mof_O 	O 	0.7615	0.0415	0.1631	-0.761
Mof_O 	O 	0.1002	0.0801	0.13	-0.704
Mof_O 	O 	0.7443	0.236	0.9534	-0.725
Mof_O 	O 	0.74	0.9252	0.0238	-0.779
Mof_O 	O 	0.8626	0.8714	0.1122	-0.723
Mof_O 	O 	0.8449	0.845	0.9862	-0.707
Mof_O 	O 	0.898	0.9207	0.3765	-0.698
Mof_In	In	0.76916	0.58151	0.51361	3.147
Mof_In	In	0.62451	0.52092	0.33935	2.771
Mof_In	In	0.78526	0.88766	0.37674	2.728
Mof_In	In	0.71583	0.07959	0.48206	3.182
Mof_In	In	0.87055	0.02384	0.65239	2.72
Mof_In	In	0.70766	0.3869	0.61886	2.727
Mof_In	In	0.92363	0.64939	0.77046	2.351
Mof_In	In	0.07093	0.35316	0.72071	2.325
Mof_P 	P 	0.80358	0.6206	0.36713	0.758
Mof_P 	P 	0.69154	0.12263	0.63105	0.763
Mof_P 	P 	0.55691	0.40934	0.17466	0.76
Mof_P 	P 	0.4399	0.58713	0.31528	0.785
Mof_P 	P 	0.88974	0.45932	0.64832	0.729
Mof_P 	P 	0.6956	0.34504	0.45889	0.743
Mof_P 	P 	0.78785	0.84416	0.53702	0.759
Mof_P 	P 	0.60291	0.95725	0.34437	0.738
Mof_F 	F 	0.66	0.6002	0.43607	-1.037
Mof_F 	F 	0.8284	0.0978	0.55391	-1.035
Mof_F 	F 	0.7767	0.0426	0.4117	-1.053
Mof_F 	F 	0.7094	0.544	0.58391	-1.053
Mof_O 	O 	0.8265	0.8419	0.4808	-0.73
Mof_O 	O 	0.7573	0.0448	0.6576	-0.744
Mof_O 	O 	0.6025	0.0059	0.2756	-0.765
Mof_O 	O 	0.6142	0.046	0.3992	-0.769
Mof_O 	O 	0.6266	0.0909	0.6585	-0.665
Mof_O 	O 	0.3852	0.5543	0.2457	-0.828
Mof_O 	O 	0.8748	0.5482	0.5931	-0.76
Mof_O 	O 	0.9664	0.4074	0.6552	-0.668
Mof_O 	O 	0.7762	0.7316	0.3386	-0.808
Mof_O 	O 	0.5316	0.2932	0.1727	-0.725
Mof_O 	O 	0.5271	0.9021	0.3366	-0.674
Mof_O 	O 	0.7202	0.2338	0.6577	-0.823
Mof_O 	O 	0.8485	0.8726	0.6061	-0.723
Mof_O 	O 	0.6593	0.1215	0.5522	-0.772
Mof_O 	O 	0.6077	0.4373	0.2468	-0.835
Mof_O 	O 	0.8262	0.3763	0.6279	-0.747
Mof_O 	O 	0.8913	0.5061	0.7175	-0.765
Mof_O 	O 	0.485	0.478	0.1504	-0.732
Mof_O 	O 	0.7227	0.9245	0.5195	-0.773
Mof_O 	O 	0.5112	0.5181	0.3377	-0.758
Mof_O 	O 	0.7301	0.236	0.453	-0.729
Mof_O 	O 	0.6667	0.8753	0.3656	-0.748
Mof_O 	O 	0.8723	0.5877	0.3457	-0.664
Mof_O 	O 	0.4653	0.702	0.3126	-0.741
Mof_O 	O 	0.8293	0.6216	0.4459	-0.765
Mof_O 	O 	0.7385	0.5415	0.3369	-0.761
Mof_O 	O 	0.3998	0.5801	0.37	-0.705
Mof_O 	O 	0.7557	0.736	0.5466	-0.726
Mof_O 	O 	0.76	0.4252	0.4762	-0.78
Mof_O 	O 	0.6374	0.3714	0.3878	-0.723
Mof_O 	O 	0.6551	0.345	0.5138	-0.709
Mof_O 	O 	0.602	0.4207	0.1235	-0.698
_end
