data_functionalizedCrystal
_audit_creation_method	'EQeq! by Chris Wilmer'
_symmetry_space_group_name_H-M	'P1'
_symmetry_Int_Tables_number	1
_symmetry_cell_setting	triclinic
loop_
_symmetry_equiv_pos_as_xyz
  x,y,z
_cell_length_a	6.1936
_cell_length_b	24.9797
_cell_length_c	25.3434
_cell_angle_alpha	89.132
_cell_angle_beta	82.9812
_cell_angle_gamma	82.8785
loop_
_atom_site_label
_atom_site_type_symbol
_atom_site_fract_x
_atom_site_fract_y
_atom_site_fract_z
_atom_site_charge
Mof_Zn	Zn	0.43288	0.24694	0.72269	1.19
Mof_Zn	Zn	0.40251	0.75306	0.27731	1.19
Mof_Zn	Zn	0.90557	0.74694	0.77731	1.183
Mof_Zn	Zn	0.42982	0.25306	0.22269	1.189
Mof_Zn	Zn	0.69072	0.5	0.5	1.189
Mof_Zn	Zn	0.94072	0	-0	1.171
Mof_H 	H 	0.2727	0.355	0.765	0.016
Mof_H 	H 	0.0101	0.4276	0.7548	0.087
Mof_H 	H 	0.7644	0.3402	0.648	0.086
Mof_H 	H 	0.0354	0.2696	0.6608	0.006
Mof_H 	H 	0.9891	0.4106	0.5498	-0.001
Mof_H 	H 	0.271	0.4038	0.6032	0.094
Mof_H 	H 	0.1293	0.5644	0.632	0.087
Mof_H 	H 	0.8475	0.5666	0.5794	0.016
Mof_H 	H 	0.5409	0.7116	0.719	0.012
Mof_H 	H 	0.4322	0.6322	0.6902	0.085
Mof_H 	H 	0.9555	0.5502	0.7498	0.074
Mof_H 	H 	0.0449	0.6314	0.7782	0.026
Mof_H 	H 	0.3927	0.645	0.235	0.012
Mof_H 	H 	0.1925	0.5724	0.2452	0.084
Mof_H 	H 	0.7526	0.6598	0.352	0.09
Mof_H 	H 	0.9658	0.7304	0.3392	-0.006
Mof_H 	H 	0.9495	0.5894	0.4502	-0.002
Mof_H 	H 	0.278	0.5962	0.3968	0.097
Mof_H 	H 	0.3257	0.4356	0.368	0.095
Mof_H 	H 	0.9935	0.4334	0.4206	0
Mof_H 	H 	0.9715	0.2884	0.281	0.003
Mof_H 	H 	0.7546	0.3678	0.3098	0.088
Mof_H 	H 	0.2555	0.4498	0.2502	0.084
Mof_H 	H 	0.4545	0.3686	0.2218	-0.001
Mof_H 	H 	0.7877	0.855	0.735	0.009
Mof_H 	H 	0.5149	0.9276	0.7452	0.088
Mof_H 	H 	0.1624	0.8402	0.852	0.089
Mof_H 	H 	0.4462	0.7696	0.8392	0.009
Mof_H 	H 	0.2889	0.9106	0.9502	0.021
Mof_H 	H 	0.6242	0.9038	0.8968	0.093
Mof_H 	H 	0.5113	0.0644	0.868	0.095
Mof_H 	H 	0.1769	0.0666	0.9206	0.02
Mof_H 	H 	0.0099	0.2116	0.781	0.02
Mof_H 	H 	0.8724	0.1322	0.8098	0.066
Mof_H 	H 	0.4553	0.0502	0.7502	0.076
Mof_H 	H 	0.5731	0.1314	0.7218	-0.001
Mof_H 	H 	0.3777	0.145	0.265	0.009
Mof_H 	H 	0.1877	0.0724	0.2548	0.088
Mof_H 	H 	0.8546	0.1598	0.148	0.09
Mof_H 	H 	0.055	0.2304	0.1608	0.002
Mof_H 	H 	0.1497	0.0894	0.0498	0.011
Mof_H 	H 	0.4248	0.0962	0.1032	0.084
Mof_H 	H 	0.4437	0.9356	0.132	0.081
Mof_H 	H 	0.1641	0.9334	0.0794	0.012
Mof_H 	H 	0.0025	0.7884	0.219	0.005
Mof_H 	H 	0.8144	0.8678	0.1902	0.096
Mof_H 	H 	0.2557	0.9498	0.2498	0.098
Mof_H 	H 	0.4263	0.8686	0.2782	-0.002
Mof_C 	C 	0.16947	0.35222	0.74064	0.059
Mof_C 	C 	0.01387	0.39554	0.73472	-0.083
Mof_C 	C 	0.86272	0.39204	0.69932	0.045
Mof_C 	C 	0.86866	0.34416	0.67172	-0.13
Mof_C 	C 	0.03046	0.30236	0.67972	0.083
Mof_C 	C 	0.708	0.44052	0.68988	0.106
Mof_C 	C 	0.62527	0.53062	0.69884	0.109
Mof_C 	C 	0.41819	0.48362	0.6544	0.096
Mof_C 	C 	0.01874	0.44208	0.56684	0.096
Mof_C 	C 	0.18757	0.43774	0.59832	-0.121
Mof_C 	C 	0.23266	0.4838	0.62268	0.04
Mof_C 	C 	0.10311	0.53236	0.61542	-0.085
Mof_C 	C 	0.93654	0.53334	0.58398	0.043
Mof_C 	C 	0.62427	0.6782	0.72566	0.063
Mof_C 	C 	0.55875	0.63122	0.70808	-0.104
Mof_C 	C 	0.68315	0.58254	0.71736	0.042
Mof_C 	C 	0.86694	0.5829	0.74342	-0.089
Mof_C 	C 	0.91945	0.6314	0.7601	0.025
Mof_C 	C 	0.26233	0.64778	0.25936	0.062
Mof_C 	C 	0.14413	0.60446	0.26528	-0.094
Mof_C 	C 	0.95408	0.60796	0.30068	0.053
Mof_C 	C 	0.88454	0.65584	0.32828	-0.14
Mof_C 	C 	0.01254	0.69764	0.32028	0.099
Mof_C 	C 	0.8384	0.55948	0.31012	0.102
Mof_C 	C 	0.85473	0.46938	0.30116	0.105
Mof_C 	C 	0.55621	0.51638	0.3456	0.09
Mof_C 	C 	0.02766	0.55792	0.43316	0.101
Mof_C 	C 	0.22363	0.56226	0.40168	-0.131
Mof_C 	C 	0.33914	0.5162	0.37732	0.053
Mof_C 	C 	0.25089	0.46764	0.38458	-0.12
Mof_C 	C 	0.05386	0.46666	0.41602	0.086
Mof_C 	C 	0.02813	0.3218	0.27434	0.083
Mof_C 	C 	0.89805	0.36878	0.29192	-0.121
Mof_C 	C 	0.98305	0.41746	0.28264	0.05
Mof_C 	C 	0.19326	0.4171	0.25658	-0.105
Mof_C 	C 	0.31095	0.3686	0.2399	0.065
Mof_C 	C 	0.66011	0.85222	0.75936	0.062
Mof_C 	C 	0.49859	0.89554	0.76528	-0.099
Mof_C 	C 	0.31204	0.89204	0.80068	0.054
Mof_C 	C 	0.29038	0.84416	0.82828	-0.117
Mof_C 	C 	0.46018	0.80236	0.82028	0.069
Mof_C 	C 	0.14788	0.94052	0.81012	0.124
Mof_C 	C 	0.07411	0.03062	0.80116	0.107
Mof_C 	C 	0.82259	0.98362	0.8456	0.106
Mof_C 	C 	0.33558	0.94208	0.93316	0.08
Mof_C 	C 	0.53589	0.93774	0.90168	-0.118
Mof_C 	C 	0.60534	0.9838	0.87732	0.065
Mof_C 	C 	0.46853	0.03236	0.88458	-0.129
Mof_C 	C 	0.27052	0.03334	0.91602	0.052
Mof_C 	C 	0.09993	0.1782	0.77434	0.053
Mof_C 	C 	0.01683	0.13122	0.79192	-0.076
Mof_C 	C 	0.15051	0.08254	0.78264	0.039
Mof_C 	C 	0.36036	0.0829	0.75658	-0.102
Mof_C 	C 	0.42955	0.1314	0.7399	0.061
Mof_C 	C 	0.27169	0.14778	0.24064	0.071
Mof_C 	C 	0.15941	0.10446	0.23472	-0.113
Mof_C 	C 	0.00476	0.10796	0.19932	0.081
Mof_C 	C 	0.96282	0.15584	0.17172	-0.151
Mof_C 	C 	0.08282	0.19764	0.17972	0.089
Mof_C 	C 	0.89852	0.05948	0.18988	0.088
Mof_C 	C 	0.90589	0.96938	0.19884	0.109
Mof_C 	C 	0.65181	0.01638	0.1544	0.08
Mof_C 	C 	0.21082	0.05792	0.06684	0.06
Mof_C 	C 	0.37531	0.06226	0.09832	-0.105
Mof_C 	C 	0.46646	0.0162	0.12268	0.013
Mof_C 	C 	0.38547	0.96764	0.11542	-0.075
Mof_C 	C 	0.21988	0.96666	0.08398	0.073
Mof_C 	C 	0.05247	0.8218	0.22566	0.095
Mof_C 	C 	0.93997	0.86878	0.20808	-0.152
Mof_C 	C 	0.01569	0.91746	0.21736	0.084
Mof_C 	C 	0.19984	0.9171	0.24342	-0.126
Mof_C 	C 	0.30085	0.8686	0.2601	0.079
Mof_Br	Br	0.62958	0.22023	0.63915	-0.449
Mof_Br	Br	0.61581	0.27834	0.79024	-0.458
Mof_Br	Br	0.47554	0.58351	0.51503	-0.46
Mof_Br	Br	0.48896	0.77977	0.36085	-0.438
Mof_Br	Br	0.68439	0.72166	0.20976	-0.466
Mof_Br	Br	0.57408	0.41649	0.48497	-0.463
Mof_Br	Br	0.01873	0.72023	0.86085	-0.42
Mof_Br	Br	0.15605	0.77834	0.70976	-0.441
Mof_Br	Br	0.74057	0.08351	0.98497	-0.45
Mof_Br	Br	0.59981	0.27977	0.13915	-0.453
Mof_Br	Br	0.64415	0.22166	0.29024	-0.46
Mof_Br	Br	0.80905	0.91649	0.01503	-0.483
Mof_N 	N 	0.18065	0.30594	0.71316	-0.261
Mof_N 	N 	0.54137	0.43658	0.66168	-0.141
Mof_N 	N 	0.45282	0.53158	0.67198	-0.139
Mof_N 	N 	0.75603	0.48646	0.70948	-0.14
Mof_N 	N 	0.89515	0.489	0.5593	-0.26
Mof_N 	N 	0.79955	0.6787	0.7516	-0.258
Mof_N 	N 	0.19975	0.69406	0.28684	-0.265
Mof_N 	N 	0.63963	0.56342	0.33832	-0.14
Mof_N 	N 	0.65638	0.46842	0.32802	-0.139
Mof_N 	N 	0.95197	0.51354	0.29052	-0.139
Mof_N 	N 	0.94345	0.511	0.4407	-0.269
Mof_N 	N 	0.22985	0.3213	0.2484	-0.264
Mof_N 	N 	0.64381	0.80594	0.78684	-0.263
Mof_N 	N 	0.95305	0.93658	0.83832	-0.153
Mof_N 	N 	0.8748	0.03158	0.82802	-0.158
Mof_N 	N 	0.21551	0.98646	0.79052	-0.127
Mof_N 	N 	0.20445	0.989	0.9407	-0.233
Mof_N 	N 	0.30115	0.1787	0.7484	-0.258
Mof_N 	N 	0.23659	0.19406	0.21316	-0.266
Mof_N 	N 	0.72795	0.06342	0.16168	-0.139
Mof_N 	N 	0.7344	0.96842	0.17198	-0.128
Mof_N 	N 	0.99249	0.01354	0.20948	-0.151
Mof_N 	N 	0.13415	0.011	0.0593	-0.267
Mof_N 	N 	0.22825	0.8213	0.2516	-0.268
_end
