data_functionalizedCrystal
_audit_creation_method	'EQeq! by Chris Wilmer'
_symmetry_space_group_name_H-M	'P1'
_symmetry_Int_Tables_number	1
_symmetry_cell_setting	triclinic
loop_
_symmetry_equiv_pos_as_xyz
  x,y,z
_cell_length_a	11.0607
_cell_length_b	12.8079
_cell_length_c	12.936
_cell_angle_alpha	107.502
_cell_angle_beta	105.81
_cell_angle_gamma	106.097
loop_
_atom_site_label
_atom_site_type_symbol
_atom_site_fract_x
_atom_site_fract_y
_atom_site_fract_z
_atom_site_charge
Mof_B 	B 	0.8559	0.0139	0.9297	0.217
Mof_H 	H 	0.7608	0.0226	0.8817	-0.127
Mof_B 	B 	0.0241	0.1199	0.9668	0.195
Mof_H 	H 	0.0394	0.1987	0.9434	-0.124
Mof_B 	B 	0.8678	0.9582	0.0389	0.218
Mof_H 	H 	0.7808	0.9306	0.0666	-0.111
Mof_B 	B 	0.9627	0.1103	0.0792	0.278
Mof_H 	H 	0.9388	0.1828	0.132	-0.14
Mof_B 	B 	0.865	0.8734	0.9016	0.243
Mof_H 	H 	0.7757	0.7901	0.8352	-0.125
Mof_B 	B 	0.3333	0.4774	0.9548	0.247
Mof_H 	H 	0.2221	0.4609	0.9235	-0.128
Mof_B 	B 	0.438	0.5327	0.8846	0.228
Mof_H 	H 	0.3959	0.5524	0.8069	-0.129
Mof_B 	B 	0.4359	0.5296	0.1052	0.239
Mof_H 	H 	0.3953	0.551	0.1759	-0.128
Mof_B 	B 	0.4625	0.6225	0.0272	0.22
Mof_H 	H 	0.439	0.7042	0.0468	-0.125
Mof_B 	B 	0.3944	0.3808	0.0091	0.246
Mof_H 	H 	0.3242	0.3015	0.0132	-0.133
Mof_B 	B 	0.0643	0.5056	0.636	0.225
Mof_H 	H 	0.1078	0.5083	0.7262	-0.129
Mof_B 	B 	0.1688	0.5297	0.5538	0.236
Mof_H 	H 	0.2803	0.5479	0.5896	-0.123
Mof_B 	B 	0.9343	0.5564	0.5971	0.221
Mof_H 	H 	0.8913	0.5947	0.6612	-0.121
Mof_B 	B 	0.1018	0.636	0.6087	0.246
Mof_H 	H 	0.1684	0.7267	0.6801	-0.125
Mof_B 	B 	0.8974	0.4037	0.5349	0.22
Mof_H 	H 	0.8301	0.3389	0.5576	-0.123
Mof_C 	C 	0.9304	0.9521	0.737	0.456
Mof_C 	C 	0.9667	0.9754	0.8679	-0.563
Mof_C 	C 	0.3093	0.2856	0.7653	0.508
Mof_C 	C 	0.4037	0.3936	0.8829	-0.583
Mof_C 	C 	0.0771	0.2934	0.5185	0.489
Mof_C 	C 	0.0403	0.3933	0.5089	-0.573
Mof_Co	Co	0.02067	0.10043	0.61367	1.144
Mof_Co	Co	0.73423	0.83185	0.48893	1.126
Mof_O 	O 	0.8609	0.965	0.4705	-0.619
Mof_O 	O 	0.8054	0.8909	0.6694	-0.512
Mof_O 	O 	0.0289	0.9987	0.714	-0.475
Mof_O 	O 	0.1857	0.2435	0.7505	-0.501
Mof_O 	O 	0.3649	0.253	0.6971	-0.508
Mof_O 	O 	0.987	0.2119	0.5277	-0.48
Mof_O 	O 	0.1909	0.2975	0.5145	-0.498
Mof_B 	B 	0.1441	0.9861	0.0703	0.218
Mof_H 	H 	0.2392	0.9774	0.1183	-0.126
Mof_B 	B 	0.9759	0.8801	0.0332	0.195
Mof_H 	H 	0.9606	0.8013	0.0566	-0.124
Mof_B 	B 	0.1322	0.0418	0.9611	0.218
Mof_H 	H 	0.2192	0.0694	0.9334	-0.111
Mof_B 	B 	0.0373	0.8897	0.9208	0.278
Mof_H 	H 	0.0612	0.8172	0.868	-0.14
Mof_B 	B 	0.135	0.1266	0.0984	0.243
Mof_H 	H 	0.2243	0.2099	0.1648	-0.125
Mof_B 	B 	0.6667	0.5226	0.0452	0.247
Mof_H 	H 	0.7779	0.5391	0.0765	-0.128
Mof_B 	B 	0.562	0.4673	0.1154	0.228
Mof_H 	H 	0.6041	0.4476	0.1931	-0.129
Mof_B 	B 	0.5641	0.4704	0.8948	0.239
Mof_H 	H 	0.6047	0.449	0.8241	-0.128
Mof_B 	B 	0.5375	0.3775	0.9728	0.22
Mof_H 	H 	0.561	0.2958	0.9532	-0.125
Mof_B 	B 	0.6056	0.6192	0.9909	0.246
Mof_H 	H 	0.6758	0.6985	0.9868	-0.133
Mof_B 	B 	0.9357	0.4944	0.364	0.225
Mof_H 	H 	0.8922	0.4917	0.2738	-0.129
Mof_B 	B 	0.8312	0.4703	0.4462	0.236
Mof_H 	H 	0.7197	0.4521	0.4104	-0.123
Mof_B 	B 	0.0657	0.4436	0.4029	0.221
Mof_H 	H 	0.1087	0.4053	0.3388	-0.121
Mof_B 	B 	0.8982	0.364	0.3913	0.246
Mof_H 	H 	0.8316	0.2733	0.3199	-0.125
Mof_B 	B 	0.1026	0.5963	0.4651	0.22
Mof_H 	H 	0.1699	0.6611	0.4424	-0.123
Mof_C 	C 	0.0696	0.0479	0.263	0.456
Mof_C 	C 	0.0333	0.0246	0.1321	-0.563
Mof_C 	C 	0.6907	0.7144	0.2347	0.508
Mof_C 	C 	0.5963	0.6064	0.1171	-0.583
Mof_C 	C 	0.9229	0.7066	0.4815	0.489
Mof_C 	C 	0.9597	0.6067	0.4911	-0.573
Mof_Co	Co	0.97933	0.89957	0.38633	1.144
Mof_Co	Co	0.26577	0.16815	0.51107	1.126
Mof_O 	O 	0.1391	0.035	0.5295	-0.619
Mof_O 	O 	0.1946	0.1091	0.3306	-0.512
Mof_O 	O 	0.9711	0.0013	0.286	-0.475
Mof_O 	O 	0.8143	0.7565	0.2495	-0.501
Mof_O 	O 	0.6351	0.747	0.3029	-0.508
Mof_O 	O 	0.013	0.7881	0.4723	-0.48
Mof_O 	O 	0.8091	0.7025	0.4855	-0.498
_end
