data_functionalizedCrystal
_audit_creation_method	'EQeq! by Chris Wilmer'
_symmetry_space_group_name_H-M	'P1'
_symmetry_Int_Tables_number	1
_symmetry_cell_setting	triclinic
loop_
_symmetry_equiv_pos_as_xyz
  x,y,z
_cell_length_a	11.6119
_cell_length_b	8.6116
_cell_length_c	8.8761
_cell_angle_alpha	90
_cell_angle_beta	90
_cell_angle_gamma	90
loop_
_atom_site_label
_atom_site_type_symbol
_atom_site_fract_x
_atom_site_fract_y
_atom_site_fract_z
_atom_site_charge
Mof_N 	N 	0.7198	0.5847	0.3395	-0.18
Mof_N 	N 	0.6256	0.493	0.3424	-0.138
Mof_N 	N 	0.6306	0.3889	0.2367	-0.071
Mof_N 	N 	0.7296	0.4105	0.1619	-0.192
Mof_C 	C 	0.7822	0.5307	0.2257	0.107
Mof_H 	H 	0.8527	0.5712	0.195	0.034
Mof_N 	N 	0.2802	0.4153	0.3395	-0.19
Mof_N 	N 	0.3744	0.507	0.3424	-0.14
Mof_N 	N 	0.3694	0.6111	0.2367	-0.069
Mof_N 	N 	0.2704	0.5895	0.1619	-0.197
Mof_C 	C 	0.2178	0.4693	0.2257	0.104
Mof_H 	H 	0.1473	0.4288	0.195	0.001
Mof_N 	N 	0.7802	0.0847	0.1605	-0.206
Mof_N 	N 	0.8744	0.993	0.1576	-0.1
Mof_N 	N 	0.8694	0.8889	0.2633	-0.038
Mof_N 	N 	0.7704	0.9105	0.3381	-0.153
Mof_C 	C 	0.7178	0.0307	0.2743	0.061
Mof_H 	H 	0.6473	0.0712	0.305	0.023
Mof_N 	N 	0.2198	0.9153	0.1605	-0.187
Mof_N 	N 	0.1256	0.007	0.1576	-0.181
Mof_N 	N 	0.1306	0.1111	0.2633	-0.079
Mof_N 	N 	0.2296	0.0895	0.3381	-0.213
Mof_C 	C 	0.2822	0.9693	0.2743	0.158
Mof_H 	H 	0.3527	0.9288	0.305	0.009
Mof_N 	N 	0.2802	0.4153	0.6605	-0.183
Mof_N 	N 	0.3744	0.507	0.6576	-0.132
Mof_N 	N 	0.3694	0.6111	0.7633	-0.04
Mof_N 	N 	0.2704	0.5895	0.8381	-0.141
Mof_C 	C 	0.2178	0.4693	0.7743	0.126
Mof_H 	H 	0.1473	0.4288	0.805	0.043
Mof_N 	N 	0.7198	0.5847	0.6605	-0.175
Mof_N 	N 	0.6256	0.493	0.6576	-0.13
Mof_N 	N 	0.6306	0.3889	0.7633	-0.041
Mof_N 	N 	0.7296	0.4105	0.8381	-0.137
Mof_C 	C 	0.7822	0.5307	0.7743	0.128
Mof_H 	H 	0.8527	0.5712	0.805	0.074
Mof_N 	N 	0.2198	0.9153	0.8395	-0.137
Mof_N 	N 	0.1256	0.007	0.8424	-0.123
Mof_N 	N 	0.1306	0.1111	0.7367	-0.062
Mof_N 	N 	0.2296	0.0895	0.6619	-0.206
Mof_C 	C 	0.2822	0.9693	0.7257	0.172
Mof_H 	H 	0.3527	0.9288	0.695	0.024
Mof_N 	N 	0.7802	0.0847	0.8395	-0.153
Mof_N 	N 	0.8744	0.993	0.8424	-0.051
Mof_N 	N 	0.8694	0.8889	0.7367	-0.022
Mof_N 	N 	0.7704	0.9105	0.6619	-0.15
Mof_C 	C 	0.7178	0.0307	0.7257	0.081
Mof_H 	H 	0.6473	0.0712	0.695	0.038
Mof_Cu	Cu	0.73167	0.75605	0.5	0.895
Mof_Cl	Cl	0.52122	0.80114	0.5	-0.476
Mof_Cu	Cu	0.26833	0.24395	0.5	0.883
Mof_Cl	Cl	0.47878	0.19886	0.5	-0.511
Mof_Cu	Cu	0.76833	0.25605	-0	0.839
Mof_Cl	Cl	0.97878	0.30114	-0	-0.521
Mof_Cu	Cu	0.23167	0.74395	-0	0.843
Mof_Cl	Cl	0.02122	0.69886	-0	-0.624
Mof_Cu	Cu	0.5	0.5	0.5	0.899
Mof_Cu	Cu	-0	0	-0	0.807
_end
