data_functionalizedCrystal
_audit_creation_method	'EQeq! by Chris Wilmer'
_symmetry_space_group_name_H-M	'P1'
_symmetry_Int_Tables_number	1
_symmetry_cell_setting	triclinic
loop_
_symmetry_equiv_pos_as_xyz
  x,y,z
_cell_length_a	13.911
_cell_length_b	12.7722
_cell_length_c	18.634
_cell_angle_alpha	90
_cell_angle_beta	90.359
_cell_angle_gamma	90
loop_
_atom_site_label
_atom_site_type_symbol
_atom_site_fract_x
_atom_site_fract_y
_atom_site_fract_z
_atom_site_charge
Mof_Al	Al	0.1069	0.0388	0.1634	4.036
Mof_Al	Al	0.7695	0.9067	0.0474	4.741
Mof_Al	Al	0.8834	0.2225	0.0606	5.054
Mof_Co	Co	0.1166	0.7775	0.9394	1.241
Mof_P 	P 	0.231	0.9004	0.0589	1.265
Mof_P 	P 	0.1092	0.2336	0.0611	1.385
Mof_P 	P 	0.8811	0.0299	0.1655	1.359
Mof_O 	O 	0.8132	0.9498	0.1308	-1.488
Mof_O 	O 	0.1429	0.1757	0.9952	-1.6
Mof_O 	O 	0.0056	0.2597	0.0513	-1.623
Mof_O 	O 	0.1572	0.8334	0.0217	-0.838
Mof_O 	O 	0.1901	0.9441	0.1265	-1.299
Mof_O 	O 	0.9816	0.9949	0.1552	-1.399
Mof_O 	O 	0.8644	0.1368	0.1318	-1.696
Mof_O 	O 	0.1645	0.3358	0.0691	-1.487
Mof_O 	O 	0.8567	0.037	0.2431	-1.337
Mof_O 	O 	0.3177	0.8359	0.0802	-1.543
Mof_O 	O 	0.1263	0.1706	0.1276	-1.428
Mof_O 	O 	0.2653	0.9869	0.0099	-1.653
Mof_Al	Al	0.6069	0.5388	0.1634	4.249
Mof_Al	Al	0.2695	0.4067	0.0474	4.665
Mof_Al	Al	0.3834	0.7225	0.0606	5.154
Mof_Co	Co	0.6166	0.2775	0.9394	1.249
Mof_P 	P 	0.731	0.4004	0.0589	1.275
Mof_P 	P 	0.6092	0.7336	0.0611	1.422
Mof_P 	P 	0.3811	0.5299	0.1655	1.435
Mof_O 	O 	0.3132	0.4498	0.1308	-1.509
Mof_O 	O 	0.6429	0.6757	0.9952	-1.632
Mof_O 	O 	0.5056	0.7597	0.0513	-1.639
Mof_O 	O 	0.6572	0.3334	0.0217	-0.859
Mof_O 	O 	0.6901	0.4441	0.1265	-1.363
Mof_O 	O 	0.4816	0.4949	0.1552	-1.493
Mof_O 	O 	0.3644	0.6368	0.1318	-1.721
Mof_O 	O 	0.6645	0.8358	0.0691	-1.499
Mof_O 	O 	0.3567	0.537	0.2431	-1.366
Mof_O 	O 	0.8177	0.3359	0.0802	-1.531
Mof_O 	O 	0.6263	0.6706	0.1276	-1.468
Mof_O 	O 	0.7653	0.4869	0.0099	-1.693
Mof_Al	Al	0.8931	0.0388	0.3366	4.157
Mof_Al	Al	0.2305	0.9067	0.4526	5.091
Mof_Al	Al	0.1166	0.2225	0.4394	5.47
Mof_Co	Co	0.8834	0.7775	0.5606	1.219
Mof_P 	P 	0.769	0.9004	0.4411	1.269
Mof_P 	P 	0.8908	0.2336	0.4389	1.505
Mof_P 	P 	0.1189	0.0299	0.3345	1.413
Mof_O 	O 	0.1868	0.9498	0.3692	-1.564
Mof_O 	O 	0.8571	0.1757	0.5048	-1.652
Mof_O 	O 	0.9944	0.2597	0.4487	-1.684
Mof_O 	O 	0.8428	0.8334	0.4783	-0.783
Mof_O 	O 	0.8099	0.9441	0.3735	-1.317
Mof_O 	O 	0.0184	0.9949	0.3448	-1.439
Mof_O 	O 	0.1356	0.1368	0.3682	-1.78
Mof_O 	O 	0.8355	0.3358	0.4309	-1.547
Mof_O 	O 	0.1433	0.037	0.2569	-1.324
Mof_O 	O 	0.6823	0.8359	0.4198	-1.603
Mof_O 	O 	0.8737	0.1706	0.3724	-1.458
Mof_O 	O 	0.7347	0.9869	0.4901	-1.53
Mof_Al	Al	0.3931	0.5388	0.3366	4.302
Mof_Al	Al	0.7305	0.4067	0.4526	5.032
Mof_Al	Al	0.6166	0.7225	0.4394	5.512
Mof_Co	Co	0.3834	0.2775	0.5606	1.216
Mof_P 	P 	0.269	0.4004	0.4411	1.279
Mof_P 	P 	0.3908	0.7336	0.4389	1.521
Mof_P 	P 	0.6189	0.5299	0.3345	1.473
Mof_O 	O 	0.6868	0.4498	0.3692	-1.579
Mof_O 	O 	0.3571	0.6757	0.5048	-1.667
Mof_O 	O 	0.4944	0.7597	0.4487	-1.696
Mof_O 	O 	0.3428	0.3334	0.4783	-0.79
Mof_O 	O 	0.3099	0.4441	0.3735	-1.365
Mof_O 	O 	0.5184	0.4949	0.3448	-1.505
Mof_O 	O 	0.6356	0.6368	0.3682	-1.793
Mof_O 	O 	0.3355	0.8358	0.4309	-1.557
Mof_O 	O 	0.6433	0.537	0.2569	-1.361
Mof_O 	O 	0.1823	0.3359	0.4198	-1.6
Mof_O 	O 	0.3737	0.6706	0.3724	-1.486
Mof_O 	O 	0.2347	0.4869	0.4901	-1.561
Mof_Al	Al	0.8931	0.9612	0.8366	4.275
Mof_Al	Al	0.2305	0.0933	0.9526	5.302
Mof_P 	P 	0.769	0.0996	0.9411	1.245
Mof_P 	P 	0.8908	0.7664	0.9389	1.326
Mof_P 	P 	0.1189	0.9701	0.8345	1.234
Mof_O 	O 	0.1868	0.0502	0.8692	-1.562
Mof_O 	O 	0.8571	0.8243	0.0048	-1.642
Mof_O 	O 	0.9944	0.7403	0.9487	-0.651
Mof_O 	O 	0.8428	0.1666	0.9783	-1.526
Mof_O 	O 	0.8099	0.0559	0.8735	-1.328
Mof_O 	O 	0.0184	0.0051	0.8448	-1.411
Mof_O 	O 	0.1356	0.8632	0.8682	-0.726
Mof_O 	O 	0.8355	0.6642	0.9309	-1.546
Mof_O 	O 	0.1433	0.963	0.7569	-1.298
Mof_O 	O 	0.6823	0.1641	0.9198	-0.602
Mof_O 	O 	0.8737	0.8294	0.8724	-1.375
Mof_O 	O 	0.7347	0.0131	0.9901	-1.447
Mof_Al	Al	0.3931	0.4612	0.8366	4.234
Mof_Al	Al	0.7305	0.5933	0.9526	5.369
Mof_P 	P 	0.269	0.5996	0.9411	1.244
Mof_P 	P 	0.3908	0.2664	0.9389	1.333
Mof_P 	P 	0.6189	0.4701	0.8345	1.223
Mof_O 	O 	0.6868	0.5502	0.8692	-1.568
Mof_O 	O 	0.3571	0.3243	0.0048	-1.648
Mof_O 	O 	0.4944	0.2403	0.9487	-0.651
Mof_O 	O 	0.3428	0.6666	0.9783	-1.558
Mof_O 	O 	0.3099	0.5559	0.8735	-1.316
Mof_O 	O 	0.5184	0.5051	0.8448	-1.39
Mof_O 	O 	0.6356	0.3632	0.8682	-0.721
Mof_O 	O 	0.3355	0.1642	0.9309	-1.533
Mof_O 	O 	0.6433	0.463	0.7569	-1.286
Mof_O 	O 	0.1823	0.6641	0.9198	-0.606
Mof_O 	O 	0.3737	0.3294	0.8724	-1.367
Mof_O 	O 	0.2347	0.5131	0.9901	-1.427
Mof_Al	Al	0.1069	0.9612	0.6634	4.253
Mof_Al	Al	0.7695	0.0933	0.5474	4.965
Mof_P 	P 	0.231	0.0996	0.5589	1.285
Mof_P 	P 	0.1092	0.7664	0.5611	1.254
Mof_P 	P 	0.8811	0.9701	0.6655	1.23
Mof_O 	O 	0.8132	0.0502	0.6308	-1.51
Mof_O 	O 	0.1429	0.8243	0.4952	-1.622
Mof_O 	O 	0.0056	0.7403	0.5513	-0.682
Mof_O 	O 	0.1572	0.1666	0.5217	-1.699
Mof_O 	O 	0.1901	0.0559	0.6265	-1.347
Mof_O 	O 	0.9816	0.0051	0.6552	-1.415
Mof_O 	O 	0.8644	0.8632	0.6318	-0.732
Mof_O 	O 	0.1645	0.6642	0.5691	-1.5
Mof_O 	O 	0.8567	0.963	0.7431	-1.3
Mof_O 	O 	0.3177	0.1641	0.5802	-0.634
Mof_O 	O 	0.1263	0.8294	0.6276	-1.372
Mof_O 	O 	0.2653	0.0131	0.5099	-1.608
Mof_Al	Al	0.6069	0.4612	0.6634	4.188
Mof_Al	Al	0.2695	0.5933	0.5474	5.031
Mof_P 	P 	0.731	0.5996	0.5589	1.28
Mof_P 	P 	0.6092	0.2664	0.5611	1.244
Mof_P 	P 	0.3811	0.4701	0.6655	1.205
Mof_O 	O 	0.3132	0.5502	0.6308	-1.511
Mof_O 	O 	0.6429	0.3243	0.4952	-1.612
Mof_O 	O 	0.5056	0.2403	0.5513	-0.679
Mof_O 	O 	0.6572	0.6666	0.5217	-1.702
Mof_O 	O 	0.6901	0.5559	0.6265	-1.324
Mof_O 	O 	0.4816	0.5051	0.6552	-1.388
Mof_O 	O 	0.3644	0.3632	0.6318	-0.733
Mof_O 	O 	0.6645	0.1642	0.5691	-1.487
Mof_O 	O 	0.3567	0.463	0.7431	-1.293
Mof_O 	O 	0.8177	0.6641	0.5802	-0.63
Mof_O 	O 	0.6263	0.3294	0.6276	-1.359
Mof_O 	O 	0.7653	0.5131	0.5099	-1.58
_end
