# CIF file generated by openbabel 3.1.0, see https://openbabel.org
data_I
_chemical_name_common 'image0'
_cell_length_a 9.8035
_cell_length_b 10.9423
_cell_length_c 19.4289
_cell_angle_alpha 85.596
_cell_angle_beta 75.686
_cell_angle_gamma 63.622
_space_group_name_H-M_alt 'P 1'
_space_group_name_Hall 'P 1'
loop_
    _symmetry_equiv_pos_as_xyz
    x,y,z
loop_
    _atom_site_label
    _atom_site_type_symbol
    _atom_site_fract_x
    _atom_site_fract_y
    _atom_site_fract_z
    _atom_site_occupancy
    Nd1      Nd       0.71004    0.02729    0.50041    1.000
    Nd2      Nd       0.24949    0.48030    0.99082    1.000
    S1       S        0.29900    0.52630    0.46973    1.000
    S2       S        0.33770    0.22280    0.76153    1.000
    S3       S        0.70440    0.98360    0.96794    1.000
    O1       O        0.53300    0.11320    0.61920    1.000
    O2       O        0.49230    0.27920    0.98850    1.000
    O3       O        0.23420    0.34120    0.90390    1.000
    O4       O        0.31450    0.16950    0.44830    1.000
    O5       O        0.98080    0.88400    0.43640    1.000
    O6       O        0.19880    0.81510    0.47590    1.000
    O7       O        0.08880    0.64200    0.91930    1.000
    O8       O        0.48210    0.23060    0.48000    1.000
    O9       O        0.98650    0.37100    0.92690    1.000
    O10      O        0.83680    0.68160    0.94220    1.000
    C1       C        0.10190    0.79330    0.45330    1.000
    C2       C        0.94430    0.71940    0.93250    1.000
    C3       C        0.05790    0.59280    0.41880    1.000
    H1       H        0.96780    0.64390    0.40250    1.000
    C4       C        0.15550    0.26880    0.81720    1.000
    C5       C        0.89710    0.86850    0.93650    1.000
    C6       C        0.40210    0.11200    0.62600    1.000
    C7       C        0.63100    0.25810    0.98410    1.000
    C8       C        0.12900    0.44880    0.41960    1.000
    H2       H        0.09150    0.39410    0.40400    1.000
    C9       C        0.26030    0.39930    0.44630    1.000
    C10      C        0.13630    0.64910    0.44460    1.000
    C11      C        0.36080    0.25460    0.45940    1.000
    C12      C        0.28690    0.16720    0.69630    1.000
    C13      C        0.13530    0.18300    0.71710    1.000
    H3       H        0.08800    0.15710    0.68880    1.000
    C14      C        0.75450    0.11730    0.96170    1.000
    C15      C        0.05890    0.24280    0.78630    1.000
    H4       H        0.95550    0.26220    0.80830    1.000
    C16      C        0.12180    0.33240    0.88820    1.000
    O11      O        0.67220    0.34580    0.99670    1.000
    C17      C        0.99370    0.93200    0.92090    1.000
    H5       H        0.10150    0.88610    0.90260    1.000
    C18      C        0.91260    0.07440    0.93540    1.000
    H6       H        0.96070    0.13240    0.92800    1.000
    O12      O        0.36250    0.06620    0.58240    1.000
    Nd3      Nd       0.28996    0.97271    0.49959    1.000
    Nd4      Nd       0.75051    0.51970    0.00918    1.000
    S4       S        0.70100    0.47370    0.53027    1.000
    S5       S        0.66230    0.77720    0.23847    1.000
    S6       S        0.29560    0.01640    0.03206    1.000
    O13      O        0.46700    0.88680    0.38080    1.000
    O14      O        0.50770    0.72080    0.01150    1.000
    O15      O        0.76580    0.65880    0.09610    1.000
    O16      O        0.68550    0.83050    0.55170    1.000
    O17      O        0.01920    0.11600    0.56360    1.000
    O18      O        0.80120    0.18490    0.52410    1.000
    O19      O        0.91120    0.35800    0.08070    1.000
    O20      O        0.51790    0.76940    0.52000    1.000
    O21      O        0.01350    0.62900    0.07310    1.000
    O22      O        0.16320    0.31840    0.05780    1.000
    C19      C        0.89810    0.20670    0.54670    1.000
    C20      C        0.05570    0.28060    0.06750    1.000
    C21      C        0.94210    0.40720    0.58120    1.000
    H7       H        0.03220    0.35610    0.59750    1.000
    C22      C        0.84450    0.73120    0.18280    1.000
    C23      C        0.10290    0.13150    0.06350    1.000
    C24      C        0.59790    0.88800    0.37400    1.000
    C25      C        0.36900    0.74190    0.01590    1.000
    C26      C        0.87100    0.55120    0.58040    1.000
    H8       H        0.90850    0.60590    0.59600    1.000
    C27      C        0.73970    0.60070    0.55370    1.000
    C28      C        0.86370    0.35090    0.55540    1.000
    C29      C        0.63920    0.74540    0.54060    1.000
    C30      C        0.71310    0.83280    0.30370    1.000
    C31      C        0.86470    0.81700    0.28290    1.000
    H9       H        0.91200    0.84290    0.31120    1.000
    C32      C        0.24550    0.88270    0.03830    1.000
    C33      C        0.94110    0.75720    0.21370    1.000
    H10      H        0.04450    0.73780    0.19170    1.000
    C34      C        0.87820    0.66760    0.11180    1.000
    O23      O        0.32780    0.65420    0.00330    1.000
    C35      C        0.00630    0.06800    0.07910    1.000
    H11      H        0.89850    0.11390    0.09740    1.000
    C36      C        0.08740    0.92560    0.06460    1.000
    H12      H        0.03930    0.86760    0.07200    1.000
    O24      O        0.63750    0.93380    0.41760    1.000
