data_functionalizedCrystal
_audit_creation_method	'EQeq! by Chris Wilmer'
_symmetry_space_group_name_H-M	'P1'
_symmetry_Int_Tables_number	1
_symmetry_cell_setting	triclinic
loop_
_symmetry_equiv_pos_as_xyz
  x,y,z
_cell_length_a	13.063
_cell_length_b	9.9017
_cell_length_c	17.472
_cell_angle_alpha	90
_cell_angle_beta	90
_cell_angle_gamma	90
loop_
_atom_site_label
_atom_site_type_symbol
_atom_site_fract_x
_atom_site_fract_y
_atom_site_fract_z
_atom_site_charge
Mof_O 	O 	0.1501	0.0524	0.9177	-0.389
Mof_O 	O 	0.2262	0.2404	0.8815	-0.322
Mof_N 	N 	0.8619	0.5045	0.2606	-0.23
Mof_N 	N 	0.0127	0.549	0.207	-0.091
Mof_N 	N 	0.9637	0.4513	0.1672	-0.12
Mof_C 	C 	0.9484	0.5773	0.2634	0.109
Mof_H 	H 	0.9619	0.6412	0.3011	0.01
Mof_C 	C 	0.8747	0.4286	0.1991	0.107
Mof_H 	H 	0.8268	0.3671	0.1809	0.007
Mof_C 	C 	0.0118	0.3851	0.1043	0.173
Mof_C 	C 	0.0951	0.4424	0.0699	-0.194
Mof_H 	H 	0.1202	0.5251	0.0868	0.118
Mof_C 	C 	0.9757	0.2637	0.0806	-0.177
Mof_H 	H 	0.9182	0.2261	0.1036	0.101
Mof_C 	C 	0.1412	0.3757	0.0098	0.099
Mof_H 	H 	0.1957	0.4168	0.9847	0.014
Mof_C 	C 	0.0253	0.1955	0.0212	0.083
Mof_H 	H 	0.0014	0.1116	0.0053	0.014
Mof_C 	C 	0.1095	0.252	0.9863	-0.143
Mof_C 	C 	0.1656	0.1783	0.9254	0.33
Mof_O 	O 	0.3499	0.9476	0.9177	-0.349
Mof_O 	O 	0.2738	0.7596	0.8815	-0.313
Mof_N 	N 	0.6381	0.4955	0.2606	-0.231
Mof_N 	N 	0.4873	0.451	0.207	-0.088
Mof_N 	N 	0.5363	0.5487	0.1672	-0.127
Mof_C 	C 	0.5516	0.4227	0.2634	0.104
Mof_H 	H 	0.5381	0.3588	0.3011	0.009
Mof_C 	C 	0.6253	0.5714	0.1991	0.11
Mof_H 	H 	0.6732	0.6329	0.1809	0.008
Mof_C 	C 	0.4882	0.6149	0.1043	0.199
Mof_C 	C 	0.4049	0.5576	0.0699	-0.21
Mof_H 	H 	0.3798	0.4749	0.0868	0.122
Mof_C 	C 	0.5243	0.7363	0.0806	-0.203
Mof_H 	H 	0.5818	0.7739	0.1036	0.123
Mof_C 	C 	0.3588	0.6243	0.0098	0.117
Mof_H 	H 	0.3043	0.5832	0.9847	0.008
Mof_C 	C 	0.4747	0.8045	0.0212	0.11
Mof_H 	H 	0.4986	0.8884	0.0053	0.032
Mof_C 	C 	0.3905	0.748	0.9863	-0.149
Mof_C 	C 	0.3344	0.8217	0.9254	0.332
Mof_O 	O 	0.6501	0.4476	0.4177	-0.38
Mof_O 	O 	0.7262	0.2596	0.3815	-0.332
Mof_N 	N 	0.3619	0.9955	0.7606	-0.198
Mof_N 	N 	0.5127	0.951	0.707	-0.068
Mof_N 	N 	0.4637	0.0487	0.6672	-0.15
Mof_C 	C 	0.4484	0.9227	0.7634	0.113
Mof_H 	H 	0.4619	0.8588	0.8011	0.011
Mof_C 	C 	0.3747	0.0714	0.6991	0.061
Mof_H 	H 	0.3268	0.1329	0.6809	0.017
Mof_C 	C 	0.5118	0.1149	0.6043	0.266
Mof_C 	C 	0.5951	0.0576	0.5699	-0.376
Mof_H 	H 	0.6202	0.9749	0.5868	0.208
Mof_C 	C 	0.4757	0.2363	0.5806	-0.275
Mof_H 	H 	0.4182	0.2739	0.6036	0.139
Mof_C 	C 	0.6412	0.1243	0.5098	0.225
Mof_H 	H 	0.6957	0.0832	0.4847	-0.044
Mof_C 	C 	0.5253	0.3045	0.5212	0.174
Mof_H 	H 	0.5014	0.3884	0.5053	-0.004
Mof_C 	C 	0.6095	0.248	0.4863	-0.223
Mof_C 	C 	0.6656	0.3217	0.4254	0.359
Mof_O 	O 	0.8499	0.5524	0.4177	-0.369
Mof_O 	O 	0.7738	0.7404	0.3815	-0.309
Mof_N 	N 	0.1381	0.0045	0.7606	-0.259
Mof_N 	N 	0.9873	0.049	0.707	-0.103
Mof_N 	N 	0.0363	0.9513	0.6672	-0.109
Mof_C 	C 	0.0516	0.0773	0.7634	0.091
Mof_H 	H 	0.0381	0.1412	0.8011	0.01
Mof_C 	C 	0.1253	0.9286	0.6991	0.159
Mof_H 	H 	0.1732	0.8671	0.6809	-0.003
Mof_C 	C 	0.9882	0.8851	0.6043	0.151
Mof_C 	C 	0.9049	0.9424	0.5699	-0.07
Mof_H 	H 	0.8798	0.0251	0.5868	0.048
Mof_C 	C 	0.0243	0.7637	0.5806	-0.165
Mof_H 	H 	0.0818	0.7261	0.6036	0.103
Mof_C 	C 	0.8588	0.8757	0.5098	0.033
Mof_H 	H 	0.8043	0.9168	0.4847	0.051
Mof_C 	C 	0.9747	0.6955	0.5212	0.07
Mof_H 	H 	0.9986	0.6116	0.5053	0.035
Mof_C 	C 	0.8905	0.752	0.4863	-0.104
Mof_C 	C 	0.8344	0.6783	0.4254	0.316
Mof_Cu	Cu	0.75	0.5	0.33823	0.91
Mof_Cu	Cu	0.25	0	0.83823	0.891
Mof_O 	O 	0.3499	0.5524	0.5823	-0.369
Mof_O 	O 	0.2738	0.7404	0.6185	-0.309
Mof_N 	N 	0.6381	0.0045	0.2394	-0.258
Mof_N 	N 	0.4873	0.049	0.293	-0.107
Mof_N 	N 	0.5363	0.9513	0.3328	-0.105
Mof_C 	C 	0.5516	0.0773	0.2366	0.095
Mof_H 	H 	0.5381	0.1412	0.1989	0.009
Mof_C 	C 	0.6253	0.9286	0.3009	0.157
Mof_H 	H 	0.6732	0.8671	0.3191	-0.002
Mof_C 	C 	0.4882	0.8851	0.3957	0.138
Mof_C 	C 	0.4049	0.9424	0.4301	-0.056
Mof_H 	H 	0.3798	0.0251	0.4132	0.042
Mof_C 	C 	0.5243	0.7637	0.4194	-0.148
Mof_H 	H 	0.5818	0.7261	0.3964	0.098
Mof_C 	C 	0.3588	0.8757	0.4902	0.022
Mof_H 	H 	0.3043	0.9168	0.5153	0.055
Mof_C 	C 	0.4747	0.6955	0.4788	0.056
Mof_H 	H 	0.4986	0.6116	0.4947	0.039
Mof_C 	C 	0.3905	0.752	0.5137	-0.095
Mof_C 	C 	0.3344	0.6783	0.5746	0.313
Mof_O 	O 	0.1501	0.4476	0.5823	-0.379
Mof_O 	O 	0.2262	0.2596	0.6185	-0.331
Mof_N 	N 	0.8619	0.9955	0.2394	-0.199
Mof_N 	N 	0.0127	0.951	0.293	-0.072
Mof_N 	N 	0.9637	0.0487	0.3328	-0.144
Mof_C 	C 	0.9484	0.9227	0.2366	0.116
Mof_H 	H 	0.9619	0.8588	0.1989	0.011
Mof_C 	C 	0.8747	0.0714	0.3009	0.061
Mof_H 	H 	0.8268	0.1329	0.3191	0.018
Mof_C 	C 	0.0118	0.1149	0.3957	0.245
Mof_C 	C 	0.0951	0.0576	0.4301	-0.362
Mof_H 	H 	0.1202	0.9749	0.4132	0.203
Mof_C 	C 	0.9757	0.2363	0.4194	-0.247
Mof_H 	H 	0.9182	0.2739	0.3964	0.13
Mof_C 	C 	0.1412	0.1243	0.4902	0.211
Mof_H 	H 	0.1957	0.0832	0.5153	-0.04
Mof_C 	C 	0.0253	0.3045	0.4788	0.152
Mof_H 	H 	0.0014	0.3884	0.4947	0.002
Mof_C 	C 	0.1095	0.248	0.5137	-0.211
Mof_C 	C 	0.1656	0.3217	0.5746	0.354
Mof_O 	O 	0.8499	0.9476	0.0823	-0.348
Mof_O 	O 	0.7738	0.7596	0.1185	-0.311
Mof_N 	N 	0.1381	0.4955	0.7394	-0.231
Mof_N 	N 	0.9873	0.451	0.793	-0.086
Mof_N 	N 	0.0363	0.5487	0.8328	-0.127
Mof_C 	C 	0.0516	0.4227	0.7366	0.102
Mof_H 	H 	0.0381	0.3588	0.6989	0.009
Mof_C 	C 	0.1253	0.5714	0.8009	0.11
Mof_H 	H 	0.1732	0.6329	0.8191	0.008
Mof_C 	C 	0.9882	0.6149	0.8957	0.196
Mof_C 	C 	0.9049	0.5576	0.9301	-0.201
Mof_H 	H 	0.8798	0.4749	0.9132	0.119
Mof_C 	C 	0.0243	0.7363	0.9194	-0.198
Mof_H 	H 	0.0818	0.7739	0.8964	0.121
Mof_C 	C 	0.8588	0.6243	0.9902	0.102
Mof_H 	H 	0.8043	0.5832	0.0153	0.015
Mof_C 	C 	0.9747	0.8045	0.9788	0.1
Mof_H 	H 	0.9986	0.8884	0.9947	0.034
Mof_C 	C 	0.8905	0.748	0.0137	-0.135
Mof_C 	C 	0.8344	0.8217	0.0746	0.327
Mof_O 	O 	0.6501	0.0524	0.0823	-0.391
Mof_O 	O 	0.7262	0.2404	0.1185	-0.324
Mof_N 	N 	0.3619	0.5045	0.7394	-0.231
Mof_N 	N 	0.5127	0.549	0.793	-0.087
Mof_N 	N 	0.4637	0.4513	0.8328	-0.128
Mof_C 	C 	0.4484	0.5773	0.7366	0.104
Mof_H 	H 	0.4619	0.6412	0.6989	0.011
Mof_C 	C 	0.3747	0.4286	0.8009	0.108
Mof_H 	H 	0.3268	0.3671	0.8191	0.006
Mof_C 	C 	0.5118	0.3851	0.8957	0.201
Mof_C 	C 	0.5951	0.4424	0.9301	-0.217
Mof_H 	H 	0.6202	0.5251	0.9132	0.126
Mof_C 	C 	0.4757	0.2637	0.9194	-0.216
Mof_H 	H 	0.4182	0.2261	0.8964	0.113
Mof_C 	C 	0.6412	0.3757	0.9902	0.12
Mof_H 	H 	0.6957	0.4168	0.0153	0.007
Mof_C 	C 	0.5253	0.1955	0.9788	0.114
Mof_H 	H 	0.5014	0.1116	0.9947	0.005
Mof_C 	C 	0.6095	0.252	0.0137	-0.162
Mof_C 	C 	0.6656	0.1783	0.0746	0.337
Mof_Cu	Cu	0.75	2.79251e-33	0.16177	0.892
Mof_Cu	Cu	0.25	0.5	0.66177	0.91
_end
