data_functionalizedCrystal
_audit_creation_method	'EQeq! by Chris Wilmer'
_symmetry_space_group_name_H-M	'P1'
_symmetry_Int_Tables_number	1
_symmetry_cell_setting	triclinic
loop_
_symmetry_equiv_pos_as_xyz
  x,y,z
_cell_length_a	16.4393
_cell_length_b	16.4393
_cell_length_c	23.777
_cell_angle_alpha	90
_cell_angle_beta	90
_cell_angle_gamma	120
loop_
_atom_site_label
_atom_site_type_symbol
_atom_site_fract_x
_atom_site_fract_y
_atom_site_fract_z
_atom_site_charge
Mof_C 	C 	0.8258	0.8013	0.0374	0.397
Mof_C 	C 	0.7883	0.6967	0.042	-0.104
Mof_C 	C 	0.8324	0.6614	0.0748	0.004
Mof_H 	H 	0.8896	0.7023	0.0916	0.041
Mof_C 	C 	0.7928	0.5663	0.0828	-0.082
Mof_H 	H 	0.8229	0.5439	0.1059	0.064
Mof_C 	C 	0.7066	0.5015	0.0566	-0.001
Mof_C 	C 	0.6662	0.538	0.0213	-0.043
Mof_H 	H 	0.6118	0.4971	0.0018	0.027
Mof_C 	C 	0.7048	0.6349	0.0141	-0.091
Mof_H 	H 	0.6752	0.6581	0.991	0.101
Mof_C 	C 	0.6574	0.4009	0.0704	0.053
Mof_C 	C 	0.5613	0.3497	0.0691	-0.115
Mof_H 	H 	0.5285	0.3795	0.0581	0.063
Mof_C 	C 	0.3563	0.2213	0.0426	-0.164
Mof_H 	H 	0.3889	0.2658	0.0148	0.072
Mof_C 	C 	0.2594	0.1741	0.043	0.093
Mof_H 	H 	0.2271	0.1884	0.0163	-0.01
Mof_O 	O 	0.8914	0.8584	0.0688	-0.659
Mof_O 	O 	0.79	0.8305	0.0016	-0.514
Mof_O 	O 	0.0642	0.0705	0.0451	-0.631
Mof_C 	C 	0.1987	0.0245	0.37073	0.313
Mof_C 	C 	0.3033	0.0916	0.37533	-0.137
Mof_C 	C 	0.3386	0.171	0.40813	0.028
Mof_H 	H 	0.2977	0.1873	0.42493	0.025
Mof_C 	C 	0.4337	0.2265	0.41613	-0.118
Mof_H 	H 	0.4561	0.279	0.43923	0.064
Mof_C 	C 	0.4985	0.2051	0.38993	0.039
Mof_C 	C 	0.462	0.1282	0.35463	-0.12
Mof_H 	H 	0.5029	0.1147	0.33513	0.058
Mof_C 	C 	0.3651	0.0699	0.34743	0.028
Mof_H 	H 	0.3419	0.0171	0.32433	-0.003
Mof_C 	C 	0.5991	0.2565	0.40373	0.028
Mof_C 	C 	0.6503	0.2116	0.40243	-0.097
Mof_H 	H 	0.6205	0.149	0.39143	0.053
Mof_C 	C 	0.7787	0.135	0.37593	-0.167
Mof_H 	H 	0.7342	0.1231	0.34813	0.081
Mof_C 	C 	0.8259	0.0853	0.37633	0.113
Mof_H 	H 	0.8116	0.0387	0.34963	-0.02
Mof_O 	O 	0.1416	0.033	0.40213	-0.66
Mof_O 	O 	0.1695	0.9595	0.33493	-0.443
Mof_O 	O 	0.9295	0.9937	0.37843	-0.494
Mof_C 	C 	0.9755	0.1742	0.70407	0.518
Mof_C 	C 	0.9084	0.2117	0.70867	-0.19
Mof_C 	C 	0.829	0.1676	0.74147	0.079
Mof_H 	H 	0.8127	0.1104	0.75827	-0.001
Mof_C 	C 	0.7735	0.2072	0.74947	-0.145
Mof_H 	H 	0.721	0.1771	0.77257	0.068
Mof_C 	C 	0.7949	0.2934	0.72327	0.064
Mof_C 	C 	0.8718	0.3338	0.68797	-0.139
Mof_H 	H 	0.8853	0.3882	0.66847	0.083
Mof_C 	C 	0.9301	0.2952	0.68077	0.081
Mof_H 	H 	0.9829	0.3248	0.65767	0.034
Mof_C 	C 	0.7435	0.3426	0.73707	0.022
Mof_C 	C 	0.7884	0.4387	0.73577	-0.088
Mof_H 	H 	0.851	0.4715	0.72477	0.069
Mof_C 	C 	0.865	0.6437	0.70927	-0.171
Mof_H 	H 	0.8769	0.6111	0.68147	0.098
Mof_C 	C 	0.9147	0.7406	0.70967	0.138
Mof_H 	H 	0.9613	0.7729	0.68297	0.022
Mof_O 	O 	0.967	0.1086	0.73547	-0.641
Mof_O 	O 	0.0405	0.21	0.66827	-0.608
Mof_O 	O 	0.0063	0.9358	0.71177	-0.645
Mof_C 	C 	0.1742	0.1987	0.5374	0.417
Mof_C 	C 	0.2117	0.3033	0.542	-0.175
Mof_C 	C 	0.1676	0.3386	0.5748	0.055
Mof_H 	H 	0.1104	0.2977	0.5916	0.001
Mof_C 	C 	0.2072	0.4337	0.5828	-0.139
Mof_H 	H 	0.1771	0.4561	0.6059	0.059
Mof_C 	C 	0.2934	0.4985	0.5566	0.052
Mof_C 	C 	0.3338	0.462	0.5213	-0.135
Mof_H 	H 	0.3882	0.5029	0.5018	0.071
Mof_C 	C 	0.2952	0.3651	0.5141	0.058
Mof_H 	H 	0.3248	0.3419	0.491	0.011
Mof_C 	C 	0.3426	0.5991	0.5704	0.02
Mof_C 	C 	0.4387	0.6503	0.5691	-0.09
Mof_H 	H 	0.4715	0.6205	0.5581	0.059
Mof_C 	C 	0.6437	0.7787	0.5426	-0.171
Mof_H 	H 	0.6111	0.7342	0.5148	0.092
Mof_C 	C 	0.7406	0.8259	0.543	0.132
Mof_H 	H 	0.7729	0.8116	0.5163	0.001
Mof_O 	O 	0.1086	0.1416	0.5688	-0.678
Mof_O 	O 	0.21	0.1695	0.5016	-0.515
Mof_O 	O 	0.9358	0.9295	0.5451	-0.524
Mof_C 	C 	0.8013	0.9755	0.87073	0.496
Mof_C 	C 	0.6967	0.9084	0.87533	-0.168
Mof_C 	C 	0.6614	0.829	0.90813	0.071
Mof_H 	H 	0.7023	0.8127	0.92493	0.024
Mof_C 	C 	0.5663	0.7735	0.91613	-0.131
Mof_H 	H 	0.5439	0.721	0.93923	0.08
Mof_C 	C 	0.5015	0.7949	0.88993	0.062
Mof_C 	C 	0.538	0.8718	0.85463	-0.128
Mof_H 	H 	0.4971	0.8853	0.83513	0.08
Mof_C 	C 	0.6349	0.9301	0.84743	0.073
Mof_H 	H 	0.6581	0.9829	0.82433	0.036
Mof_C 	C 	0.4009	0.7435	0.90373	0.028
Mof_C 	C 	0.3497	0.7884	0.90243	-0.091
Mof_H 	H 	0.3795	0.851	0.89143	0.071
Mof_C 	C 	0.2213	0.865	0.87593	-0.153
Mof_H 	H 	0.2658	0.8769	0.84813	0.089
Mof_C 	C 	0.1741	0.9147	0.87633	0.104
Mof_H 	H 	0.1884	0.9613	0.84963	0.028
Mof_O 	O 	0.8584	0.967	0.90213	-0.59
Mof_O 	O 	0.8305	0.0405	0.83493	-0.557
Mof_O 	O 	0.0705	0.0063	0.87843	-0.639
Mof_C 	C 	0.0245	0.8258	0.20407	0.32
Mof_C 	C 	0.0916	0.7883	0.20867	-0.136
Mof_C 	C 	0.171	0.8324	0.24147	0.033
Mof_H 	H 	0.1873	0.8896	0.25827	0.036
Mof_C 	C 	0.2265	0.7928	0.24947	-0.116
Mof_H 	H 	0.279	0.8229	0.27257	0.076
Mof_C 	C 	0.2051	0.7066	0.22327	0.039
Mof_C 	C 	0.1282	0.6662	0.18797	-0.12
Mof_H 	H 	0.1147	0.6118	0.16847	0.054
Mof_C 	C 	0.0699	0.7048	0.18077	0.028
Mof_H 	H 	0.0171	0.6752	0.15767	-0.005
Mof_C 	C 	0.2565	0.6574	0.23707	0.03
Mof_C 	C 	0.2116	0.5613	0.23577	-0.101
Mof_H 	H 	0.149	0.5285	0.22477	0.052
Mof_C 	C 	0.135	0.3563	0.20927	-0.166
Mof_H 	H 	0.1231	0.3889	0.18147	0.073
Mof_C 	C 	0.0853	0.2594	0.20967	0.096
Mof_H 	H 	0.0387	0.2271	0.18297	-0.024
Mof_O 	O 	0.033	0.8914	0.23547	-0.675
Mof_O 	O 	0.9595	0.79	0.16827	-0.47
Mof_O 	O 	0.9937	0.0642	0.21177	-0.574
Mof_C 	C 	0.8013	0.8258	0.29593	0.425
Mof_C 	C 	0.6967	0.7883	0.29133	-0.166
Mof_C 	C 	0.6614	0.8324	0.25853	0.061
Mof_H 	H 	0.7023	0.8896	0.24173	0.024
Mof_C 	C 	0.5663	0.7928	0.25053	-0.13
Mof_H 	H 	0.5439	0.8229	0.22743	0.081
Mof_C 	C 	0.5015	0.7066	0.27673	0.054
Mof_C 	C 	0.538	0.6662	0.31203	-0.129
Mof_H 	H 	0.4971	0.6118	0.33153	0.07
Mof_C 	C 	0.6349	0.7048	0.31923	0.059
Mof_H 	H 	0.6581	0.6752	0.34233	0.014
Mof_C 	C 	0.4009	0.6574	0.26293	0.029
Mof_C 	C 	0.3497	0.5613	0.26423	-0.099
Mof_H 	H 	0.3795	0.5285	0.27523	0.06
Mof_C 	C 	0.2213	0.3563	0.29073	-0.162
Mof_H 	H 	0.2658	0.3889	0.31853	0.082
Mof_C 	C 	0.1741	0.2594	0.29033	0.096
Mof_H 	H 	0.1884	0.2271	0.31703	0.001
Mof_O 	O 	0.8584	0.8914	0.26453	-0.668
Mof_O 	O 	0.8305	0.79	0.33173	-0.507
Mof_O 	O 	0.0705	0.0642	0.28823	-0.632
Mof_C 	C 	0.0245	0.1987	0.9626	0.32
Mof_C 	C 	0.0916	0.3033	0.958	-0.183
Mof_C 	C 	0.171	0.3386	0.9252	0.074
Mof_H 	H 	0.1873	0.2977	0.9084	0.014
Mof_C 	C 	0.2265	0.4337	0.9172	-0.156
Mof_H 	H 	0.279	0.4561	0.8941	0.079
Mof_C 	C 	0.2051	0.4985	0.9434	0.084
Mof_C 	C 	0.1282	0.462	0.9787	-0.192
Mof_H 	H 	0.1147	0.5029	0.9982	0.095
Mof_C 	C 	0.0699	0.3651	0.9859	0.155
Mof_H 	H 	0.0171	0.3419	0.009	-0.079
Mof_C 	C 	0.2565	0.5991	0.9296	0.012
Mof_C 	C 	0.2116	0.6503	0.9309	-0.086
Mof_H 	H 	0.149	0.6205	0.9419	0.051
Mof_C 	C 	0.135	0.7787	0.9574	-0.157
Mof_H 	H 	0.1231	0.7342	0.9852	0.087
Mof_C 	C 	0.0853	0.8259	0.957	0.103
Mof_H 	H 	0.0387	0.8116	0.9837	-0.007
Mof_O 	O 	0.033	0.1416	0.9312	-0.643
Mof_O 	O 	0.9595	0.1695	0.9984	-0.392
Mof_O 	O 	0.9937	0.9295	0.9549	-0.442
Mof_C 	C 	0.1742	0.9755	0.62927	0.507
Mof_C 	C 	0.2117	0.9084	0.62467	-0.188
Mof_C 	C 	0.1676	0.829	0.59187	0.074
Mof_H 	H 	0.1104	0.8127	0.57507	-0.002
Mof_C 	C 	0.2072	0.7735	0.58387	-0.144
Mof_H 	H 	0.1771	0.721	0.56077	0.064
Mof_C 	C 	0.2934	0.7949	0.61007	0.061
Mof_C 	C 	0.3338	0.8718	0.64537	-0.138
Mof_H 	H 	0.3882	0.8853	0.66487	0.081
Mof_C 	C 	0.2952	0.9301	0.65257	0.078
Mof_H 	H 	0.3248	0.9829	0.67567	0.032
Mof_C 	C 	0.3426	0.7435	0.59627	0.021
Mof_C 	C 	0.4387	0.7884	0.59757	-0.09
Mof_H 	H 	0.4715	0.851	0.60857	0.067
Mof_C 	C 	0.6437	0.865	0.62407	-0.169
Mof_H 	H 	0.6111	0.8769	0.65187	0.097
Mof_C 	C 	0.7406	0.9147	0.62367	0.133
Mof_H 	H 	0.7729	0.9613	0.65037	0.021
Mof_O 	O 	0.1086	0.967	0.59787	-0.645
Mof_O 	O 	0.21	0.0405	0.66507	-0.599
Mof_O 	O 	0.9358	0.0063	0.62157	-0.629
Mof_C 	C 	0.1987	0.1742	0.79593	0.417
Mof_C 	C 	0.3033	0.2117	0.79133	-0.173
Mof_C 	C 	0.3386	0.1676	0.75853	0.056
Mof_H 	H 	0.2977	0.1104	0.74173	0.002
Mof_C 	C 	0.4337	0.2072	0.75053	-0.138
Mof_H 	H 	0.4561	0.1771	0.72743	0.061
Mof_C 	C 	0.4985	0.2934	0.77673	0.055
Mof_C 	C 	0.462	0.3338	0.81203	-0.134
Mof_H 	H 	0.5029	0.3882	0.83153	0.076
Mof_C 	C 	0.3651	0.2952	0.81923	0.06
Mof_H 	H 	0.3419	0.3248	0.84233	0.014
Mof_C 	C 	0.5991	0.3426	0.76293	0.022
Mof_C 	C 	0.6503	0.4387	0.76423	-0.089
Mof_H 	H 	0.6205	0.4715	0.77523	0.059
Mof_C 	C 	0.7787	0.6437	0.79073	-0.173
Mof_H 	H 	0.7342	0.6111	0.81853	0.097
Mof_C 	C 	0.8259	0.7406	0.79033	0.137
Mof_H 	H 	0.8116	0.7729	0.81703	0.002
Mof_O 	O 	0.1416	0.1086	0.76453	-0.677
Mof_O 	O 	0.1695	0.21	0.83173	-0.511
Mof_O 	O 	0.9295	0.9358	0.78823	-0.526
Mof_C 	C 	0.9755	0.8013	0.4626	0.513
Mof_C 	C 	0.9084	0.6967	0.458	-0.183
Mof_C 	C 	0.829	0.6614	0.4252	0.077
Mof_H 	H 	0.8127	0.7023	0.4084	0.011
Mof_C 	C 	0.7735	0.5663	0.4172	-0.139
Mof_H 	H 	0.721	0.5439	0.3941	0.075
Mof_C 	C 	0.7949	0.5015	0.4434	0.062
Mof_C 	C 	0.8718	0.538	0.4787	-0.134
Mof_H 	H 	0.8853	0.4971	0.4982	0.081
Mof_C 	C 	0.9301	0.6349	0.4859	0.079
Mof_H 	H 	0.9829	0.6581	0.509	0.035
Mof_C 	C 	0.7435	0.4009	0.4296	0.028
Mof_C 	C 	0.7884	0.3497	0.4309	-0.095
Mof_H 	H 	0.851	0.3795	0.4419	0.07
Mof_C 	C 	0.865	0.2213	0.4574	-0.162
Mof_H 	H 	0.8769	0.2658	0.4852	0.092
Mof_C 	C 	0.9147	0.1741	0.457	0.114
Mof_H 	H 	0.9613	0.1884	0.4837	0.026
Mof_O 	O 	0.967	0.8584	0.4312	-0.62
Mof_O 	O 	0.0405	0.8305	0.4984	-0.574
Mof_O 	O 	0.0063	0.0705	0.4549	-0.661
Mof_C 	C 	0.8258	0.0245	0.12927	0.316
Mof_C 	C 	0.7883	0.0916	0.12467	-0.135
Mof_C 	C 	0.8324	0.171	0.09187	0.031
Mof_H 	H 	0.8896	0.1873	0.07507	0.029
Mof_C 	C 	0.7928	0.2265	0.08387	-0.115
Mof_H 	H 	0.8229	0.279	0.06077	0.07
Mof_C 	C 	0.7066	0.2051	0.11007	0.035
Mof_C 	C 	0.6662	0.1282	0.14537	-0.118
Mof_H 	H 	0.6118	0.1147	0.16487	0.057
Mof_C 	C 	0.7048	0.0699	0.15257	0.027
Mof_H 	H 	0.6752	0.0171	0.17567	-0.002
Mof_C 	C 	0.6574	0.2565	0.09627	0.037
Mof_C 	C 	0.5613	0.2116	0.09757	-0.109
Mof_H 	H 	0.5285	0.149	0.10857	0.053
Mof_C 	C 	0.3563	0.135	0.12407	-0.165
Mof_H 	H 	0.3889	0.1231	0.15187	0.076
Mof_C 	C 	0.2594	0.0853	0.12367	0.095
Mof_H 	H 	0.2271	0.0387	0.15037	-0.023
Mof_O 	O 	0.8914	0.033	0.09787	-0.665
Mof_O 	O 	0.79	0.9595	0.16507	-0.468
Mof_O 	O 	0.0642	0.9937	0.12157	-0.577
Mof_Pr	Pr	0.91567	0	-0	2.278
Mof_Pr	Pr	2.26759e-17	0.91567	0.33333	2.419
Mof_Pr	Pr	0.08433	0.08433	0.66667	2.361
Mof_Pr	Pr	0.08433	1.8145e-32	0.5	2.217
Mof_Pr	Pr	5.08051e-19	0.08433	0.83333	2.207
Mof_Pr	Pr	0.91567	0.91567	0.16667	2.776
Mof_C 	C 	0.7067	0.35335	0.08333	-0.118
Mof_H 	H 	0.772	0.386	0.08333	0.074
Mof_C 	C 	0.5108	0.2554	0.08333	0.026
Mof_C 	C 	0.4055	0.20275	0.08333	0.069
Mof_C 	C 	0.2095	0.10475	0.08333	-0.211
Mof_C 	C 	0.1041	0.05205	0.08333	0.474
Mof_C 	C 	0.64665	0.35335	0.41667	-0.098
Mof_H 	H 	0.614	0.386	0.41667	0.061
Mof_C 	C 	0.7446	0.2554	0.41667	0.021
Mof_C 	C 	0.79725	0.20275	0.41667	0.084
Mof_C 	C 	0.89525	0.10475	0.41667	-0.211
Mof_C 	C 	0.94795	0.05205	0.41667	0.562
Mof_C 	C 	0.64665	0.2933	0.75	-0.09
Mof_H 	H 	0.614	0.228	0.75	0.05
Mof_C 	C 	0.7446	0.4892	0.75	0.018
Mof_C 	C 	0.79725	0.5945	0.75	0.099
Mof_C 	C 	0.89525	0.7905	0.75	-0.226
Mof_C 	C 	0.94795	0.8959	0.75	0.657
Mof_C 	C 	0.2933	0.64665	0.58333	-0.091
Mof_H 	H 	0.228	0.614	0.58333	0.048
Mof_C 	C 	0.4892	0.7446	0.58333	0.018
Mof_C 	C 	0.5945	0.79725	0.58333	0.095
Mof_C 	C 	0.7905	0.89525	0.58333	-0.222
Mof_C 	C 	0.8959	0.94795	0.58333	0.644
Mof_C 	C 	0.35335	0.64665	0.91667	-0.087
Mof_H 	H 	0.386	0.614	0.91667	0.06
Mof_C 	C 	0.2554	0.7446	0.91667	0.021
Mof_C 	C 	0.20275	0.79725	0.91667	0.082
Mof_C 	C 	0.10475	0.89525	0.91667	-0.192
Mof_C 	C 	0.05205	0.94795	0.91667	0.526
Mof_C 	C 	0.35335	0.7067	0.25	-0.103
Mof_H 	H 	0.386	0.772	0.25	0.07
Mof_C 	C 	0.2554	0.5108	0.25	0.019
Mof_C 	C 	0.20275	0.4055	0.25	0.074
Mof_C 	C 	0.10475	0.2095	0.25	-0.207
Mof_C 	C 	0.05205	0.1041	0.25	0.477
_end
