# CIF file generated by openbabel 3.1.0, see https://openbabel.org
data_I
_chemical_name_common 'PUTYAE_charged'
_cell_length_a 12.362
_cell_length_b 12.652
_cell_length_c 12.652
_cell_angle_alpha 90
_cell_angle_beta 90
_cell_angle_gamma 90
_space_group_name_H-M_alt 'P 1'
_space_group_name_Hall 'P 1'
loop_
    _symmetry_equiv_pos_as_xyz
    x,y,z
loop_
    _atom_site_label
    _atom_site_type_symbol
    _atom_site_fract_x
    _atom_site_fract_y
    _atom_site_fract_z
    _atom_site_occupancy
    Ag1      Ag       0.00000    0.12912    0.12912    1.000
    Ag2      Ag       0.50000    0.87088    0.87088    1.000
    Ag3      Ag       0.25000    0.37088    0.62912    1.000
    Ag4      Ag       0.75000    0.62912    0.37088    1.000
    H1       H        0.97110    0.33040    0.95750    1.000
    H2       H        0.17710    0.92020    0.15900    1.000
    H3       H        0.03730    0.40010    0.80390    1.000
    H4       H        0.47110    0.66960    0.04250    1.000
    H5       H        0.67710    0.07980    0.84100    1.000
    H6       H        0.53730    0.59990    0.19610    1.000
    H7       H        0.22110    0.54250    0.83040    1.000
    H8       H        0.42710    0.34100    0.42020    1.000
    H9       H        0.28730    0.69610    0.90010    1.000
    H10      H        0.72110    0.45750    0.16960    1.000
    H11      H        0.92710    0.65900    0.57980    1.000
    H12      H        0.78730    0.30390    0.09990    1.000
    H13      H        0.27890    0.16960    0.45750    1.000
    H14      H        0.07290    0.57980    0.65900    1.000
    H15      H        0.21270    0.09990    0.30390    1.000
    H16      H        0.77890    0.83040    0.54250    1.000
    H17      H        0.57290    0.42020    0.34100    1.000
    H18      H        0.71270    0.90010    0.69610    1.000
    H19      H        0.02890    0.95750    0.33040    1.000
    H20      H        0.82290    0.15900    0.92020    1.000
    H21      H        0.96270    0.80390    0.40010    1.000
    H22      H        0.52890    0.04250    0.66960    1.000
    H23      H        0.32290    0.84100    0.07980    1.000
    H24      H        0.46270    0.19610    0.59990    1.000
    C1       C        0.03030    0.29790    0.92590    1.000
    C2       C        0.15830    0.17040    0.92340    1.000
    C3       C        0.20490    0.07660    0.97090    1.000
    C4       C        0.20590    0.95070    0.09840    1.000
    C5       C        0.07150    0.34180    0.83360    1.000
    C6       C        0.20220    0.21380    0.83350    1.000
    C7       C        0.53030    0.70210    0.07410    1.000
    C8       C        0.65830    0.82960    0.07660    1.000
    C9       C        0.70490    0.92340    0.02910    1.000
    C10      C        0.70590    0.04930    0.90160    1.000
    C11      C        0.57150    0.65820    0.16640    1.000
    C12      C        0.70220    0.78620    0.16650    1.000
    C13      C        0.28030    0.57410    0.79790    1.000
    C14      C        0.40830    0.57660    0.67040    1.000
    C15      C        0.45490    0.52910    0.57660    1.000
    C16      C        0.45590    0.40160    0.45070    1.000
    C17      C        0.32150    0.66640    0.84180    1.000
    C18      C        0.45220    0.66650    0.71380    1.000
    C19      C        0.78030    0.42590    0.20210    1.000
    C20      C        0.90830    0.42340    0.32960    1.000
    C21      C        0.95490    0.47090    0.42340    1.000
    C22      C        0.95590    0.59840    0.54930    1.000
    C23      C        0.82150    0.33360    0.15820    1.000
    C24      C        0.95220    0.33350    0.28620    1.000
    C25      C        0.21970    0.20210    0.42590    1.000
    C26      C        0.09170    0.32960    0.42340    1.000
    C27      C        0.04510    0.42340    0.47090    1.000
    C28      C        0.04410    0.54930    0.59840    1.000
    C29      C        0.17850    0.15820    0.33360    1.000
    C30      C        0.04780    0.28620    0.33350    1.000
    C31      C        0.71970    0.79790    0.57410    1.000
    C32      C        0.59170    0.67040    0.57660    1.000
    C33      C        0.54510    0.57660    0.52910    1.000
    C34      C        0.54410    0.45070    0.40160    1.000
    C35      C        0.67850    0.84180    0.66640    1.000
    C36      C        0.54780    0.71380    0.66650    1.000
    C37      C        0.96970    0.92590    0.29790    1.000
    C38      C        0.84170    0.92340    0.17040    1.000
    C39      C        0.79510    0.97090    0.07660    1.000
    C40      C        0.79410    0.09840    0.95070    1.000
    C41      C        0.92850    0.83360    0.34180    1.000
    C42      C        0.79780    0.83350    0.21380    1.000
    C43      C        0.46970    0.07410    0.70210    1.000
    C44      C        0.34170    0.07660    0.82960    1.000
    C45      C        0.29510    0.02910    0.92340    1.000
    C46      C        0.29410    0.90160    0.04930    1.000
    C47      C        0.42850    0.16640    0.65820    1.000
    C48      C        0.29780    0.16650    0.78620    1.000
    N1       N        0.07020    0.21380    0.97050    1.000
    N2       N        0.16230    0.03830    0.06190    1.000
    N3       N        0.15980    0.30160    0.78640    1.000
    N4       N        0.57020    0.78620    0.02950    1.000
    N5       N        0.66230    0.96170    0.93810    1.000
    N6       N        0.65980    0.69840    0.21360    1.000
    N7       N        0.32020    0.52950    0.71380    1.000
    N8       N        0.41230    0.43810    0.53830    1.000
    N9       N        0.40980    0.71360    0.80160    1.000
    N10      N        0.82020    0.47050    0.28620    1.000
    N11      N        0.91230    0.56190    0.46170    1.000
    N12      N        0.90980    0.28640    0.19840    1.000
    N13      N        0.17980    0.28620    0.47050    1.000
    N14      N        0.08770    0.46170    0.56190    1.000
    N15      N        0.09020    0.19840    0.28640    1.000
    N16      N        0.67980    0.71380    0.52950    1.000
    N17      N        0.58770    0.53830    0.43810    1.000
    N18      N        0.59020    0.80160    0.71360    1.000
    N19      N        0.92980    0.97050    0.21380    1.000
    N20      N        0.83770    0.06190    0.03830    1.000
    N21      N        0.84020    0.78640    0.30160    1.000
    N22      N        0.42980    0.02950    0.78620    1.000
    N23      N        0.33770    0.93810    0.96170    1.000
    N24      N        0.34020    0.21360    0.69840    1.000
    Cl1      Cl       0.00000    0.84580    0.84580    1.000
    O1       O        0.03730    0.73800    0.81300    1.000
    O2       O        0.99600    0.82800    0.95800    1.000
    O3       O        0.96270    0.81300    0.73800    1.000
    O4       O        0.00400    0.95800    0.82800    1.000
    Cl2      Cl       0.50000    0.15420    0.15420    1.000
    O5       O        0.53730    0.26200    0.18700    1.000
    O6       O        0.49600    0.17200    0.04200    1.000
    O7       O        0.46270    0.18700    0.26200    1.000
    O8       O        0.50400    0.04200    0.17200    1.000
    Cl3      Cl       0.25000    0.65420    0.34580    1.000
    O9       O        0.28730    0.68700    0.23800    1.000
    O10      O        0.24600    0.54200    0.32800    1.000
    O11      O        0.21270    0.76200    0.31300    1.000
    O12      O        0.25400    0.67200    0.45800    1.000
    Cl4      Cl       0.75000    0.34580    0.65420    1.000
    O13      O        0.78730    0.31300    0.76200    1.000
    O14      O        0.74600    0.45800    0.67200    1.000
    O15      O        0.71270    0.23800    0.68700    1.000
    O16      O        0.75400    0.32800    0.54200    1.000
