# CIF file generated by openbabel 3.1.0, see https://openbabel.org
data_I
_chemical_name_common 'image0'
_cell_length_a 10.468
_cell_length_b 11.326
_cell_length_c 12.7259
_cell_angle_alpha 100.845
_cell_angle_beta 109.929
_cell_angle_gamma 99.769
_space_group_name_H-M_alt 'P 1'
_space_group_name_Hall 'P 1'
loop_
    _symmetry_equiv_pos_as_xyz
    x,y,z
loop_
    _atom_site_label
    _atom_site_type_symbol
    _atom_site_fract_x
    _atom_site_fract_y
    _atom_site_fract_z
    _atom_site_occupancy
    Nd1      Nd       0.89242    0.95109    0.82393    1.000
    O1       O        0.85010    0.99720    0.99910    1.000
    O2       O        0.87790    0.06780    0.18040    1.000
    O3       O        0.92680    0.77600    0.90500    1.000
    O4       O        0.00360    0.82500    0.09790    1.000
    O5       O        0.65950    0.79140    0.73180    1.000
    O6       O        0.81520    0.76150    0.65720    1.000
    N1       N        0.66570    0.13120    0.22550    1.000
    H1       H        0.62470    0.16310    0.26990    1.000
    H2       H        0.75760    0.14320    0.25310    1.000
    N2       N        0.97690    0.57840    0.79600    1.000
    H3       H        0.98460    0.52820    0.73790    1.000
    H4       H        0.96550    0.65280    0.79140    1.000
    N3       N        0.78200    0.53340    0.53000    1.000
    H5       H        0.84850    0.58690    0.59150    1.000
    H6       H        0.80390    0.48180    0.48190    1.000
    C1       C        0.79900    0.02790    0.07420    1.000
    C2       C        0.64490    0.01440    0.03750    1.000
    C3       C        0.58720    0.06360    0.11460    1.000
    C4       C        0.55690    0.95240    0.92430    1.000
    H7       H        0.59640    0.91980    0.87180    1.000
    C5       C        0.97010    0.75040    0.00040    1.000
    C6       C        0.98340    0.61960    0.99870    1.000
    C7       C        0.98300    0.53890    0.89870    1.000
    C8       C        0.00120    0.42060    0.90300    1.000
    H8       H        0.00290    0.36660    0.83690    1.000
    C9       C        0.69570    0.72720    0.66130    1.000
    C10      C        0.59540    0.60860    0.57920    1.000
    C11      C        0.63830    0.53030    0.50760    1.000
    C12      C        0.45710    0.57930    0.57030    1.000
    N4       N        0.39800    0.65600    0.63300    1.000
    H9       H        0.44980    0.72800    0.68190    1.000
    H10      H        0.30900    0.63140    0.62310    1.000
    Nd2      Nd       0.10758    0.04891    0.17607    1.000
    O7       O        0.14990    0.00280    0.00090    1.000
    O8       O        0.12210    0.93220    0.81960    1.000
    O9       O        0.07320    0.22400    0.09500    1.000
    O10      O        0.99640    0.17500    0.90210    1.000
    O11      O        0.34050    0.20860    0.26820    1.000
    O12      O        0.18480    0.23850    0.34280    1.000
    N5       N        0.33430    0.86880    0.77450    1.000
    H11      H        0.37530    0.83690    0.73010    1.000
    H12      H        0.24240    0.85680    0.74690    1.000
    N6       N        0.02310    0.42160    0.20400    1.000
    H13      H        0.01540    0.47180    0.26210    1.000
    H14      H        0.03450    0.34720    0.20860    1.000
    N7       N        0.21800    0.46660    0.47000    1.000
    H15      H        0.15150    0.41310    0.40850    1.000
    H16      H        0.19610    0.51820    0.51810    1.000
    C13      C        0.20100    0.97210    0.92580    1.000
    C14      C        0.35510    0.98560    0.96250    1.000
    C15      C        0.41280    0.93640    0.88540    1.000
    C16      C        0.44310    0.04760    0.07570    1.000
    H17      H        0.40360    0.08020    0.12820    1.000
    C17      C        0.02990    0.24960    0.99960    1.000
    C18      C        0.01660    0.38040    0.00130    1.000
    C19      C        0.01700    0.46110    0.10130    1.000
    C20      C        0.99880    0.57940    0.09700    1.000
    H18      H        0.99710    0.63340    0.16310    1.000
    C21      C        0.30430    0.27280    0.33870    1.000
    C22      C        0.40460    0.39140    0.42080    1.000
    C23      C        0.36170    0.46970    0.49240    1.000
    C24      C        0.54290    0.42070    0.42970    1.000
    N8       N        0.60200    0.34400    0.36700    1.000
    H19      H        0.55020    0.27200    0.31810    1.000
    H20      H        0.69100    0.36860    0.37690    1.000
