data_functionalizedCrystal
_audit_creation_method	'EQeq! by Chris Wilmer'
_symmetry_space_group_name_H-M	'P1'
_symmetry_Int_Tables_number	1
_symmetry_cell_setting	triclinic
loop_
_symmetry_equiv_pos_as_xyz
  x,y,z
_cell_length_a	10.984
_cell_length_b	16.101
_cell_length_c	19.692
_cell_angle_alpha	74.149
_cell_angle_beta	74.035
_cell_angle_gamma	72.054
loop_
_atom_site_label
_atom_site_type_symbol
_atom_site_fract_x
_atom_site_fract_y
_atom_site_fract_z
_atom_site_charge
Mof_Eu	Eu	0.39854	0.90186	0.239	2.317
Mof_Eu	Eu	0.9438	0.17628	0.22658	2.287
Mof_O 	O 	0.3321	0.7652	0.32	-0.406
Mof_O 	O 	0.3195	0.8741	0.3715	-0.406
Mof_O 	O 	0.1362	0.8383	0.6412	-0.407
Mof_O 	O 	0.0883	0.7103	0.7011	-0.413
Mof_O 	O 	0.9893	0.0237	0.243	-0.613
Mof_O 	O 	0.5961	0.9358	0.2506	-0.444
Mof_O 	O 	0.5964	0.7946	0.2797	-0.424
Mof_O 	O 	0.1334	0.1407	0.2778	-0.52
Mof_O 	O 	0.3266	0.0426	0.2733	-0.558
Mof_O 	O 	0.7279	0.137	0.2517	-0.429
Mof_O 	O 	0.7195	0.2791	0.2266	-0.447
Mof_O 	O 	0.0543	0.2894	0.1394	-0.443
Mof_O 	O 	0.1434	0.1506	0.1269	-0.464
Mof_O 	O 	0.417	0.1311	0.8721	-0.422
Mof_O 	O 	0.5758	0.2011	0.8385	-0.447
Mof_C 	C 	0.2976	0.798	0.3748	0.295
Mof_C 	C 	0.2277	0.7517	0.4446	-0.037
Mof_C 	C 	0.2069	0.7793	0.509	-0.017
Mof_H 	H 	0.2361	0.8277	0.5093	0.071
Mof_C 	C 	0.143	0.7347	0.5723	-0.034
Mof_C 	C 	0.0943	0.6651	0.5703	-0.049
Mof_H 	H 	0.0493	0.636	0.6128	0.064
Mof_C 	C 	0.1113	0.6382	0.5063	0.02
Mof_C 	C 	0.1799	0.6809	0.4436	-0.05
Mof_H 	H 	0.1943	0.6626	0.4005	0.064
Mof_C 	C 	0.1224	0.7622	0.6424	0.298
Mof_C 	C 	0.0552	0.5669	0.5036	0.018
Mof_C 	C 	0.0097	0.5705	0.4445	-0.05
Mof_H 	H 	0.0131	0.6192	0.4062	0.056
Mof_C 	C 	0.0404	0.4949	0.5602	-0.049
Mof_H 	H 	0.0654	0.4911	0.6026	0.056
Mof_C 	C 	0.0592	0.9465	0.244	0.597
Mof_C 	C 	0.9945	0.8741	0.249	-0.19
Mof_C 	C 	0.8595	0.8958	0.2547	0.076
Mof_H 	H 	0.8105	0.9543	0.2546	0.032
Mof_C 	C 	0.7986	0.8297	0.2605	-0.098
Mof_C 	C 	0.8728	0.7425	0.26	0.003
Mof_H 	H 	0.8305	0.6985	0.2655	0.047
Mof_C 	C 	0.0116	0.7184	0.2514	-0.04
Mof_C 	C 	0.0698	0.7859	0.247	0.039
Mof_H 	H 	0.1599	0.7725	0.2426	0.026
Mof_C 	C 	0.6551	0.8548	0.2642	0.335
Mof_C 	C 	0.0879	0.6248	0.2496	0.034
Mof_C 	C 	0.0378	0.5635	0.2353	-0.06
Mof_H 	H 	0.9553	0.5817	0.2243	0.056
Mof_C 	C 	0.1093	0.4755	0.2374	-0.061
Mof_H 	H 	0.0718	0.4359	0.2288	0.063
Mof_C 	C 	0.2331	0.4444	0.2515	0.031
Mof_C 	C 	0.2848	0.507	0.2634	-0.055
Mof_H 	H 	0.3688	0.4887	0.2725	0.056
Mof_C 	C 	0.2168	0.5953	0.262	-0.065
Mof_H 	H 	0.2556	0.6351	0.2693	0.065
Mof_C 	C 	0.3098	0.3493	0.2545	-0.031
Mof_C 	C 	0.4444	0.3269	0.2461	-0.008
Mof_H 	H 	0.4868	0.3716	0.2382	0.047
Mof_C 	C 	0.5181	0.2385	0.2493	-0.094
Mof_C 	C 	0.4565	0.1717	0.2588	0.061
Mof_H 	H 	0.5051	0.1128	0.2617	0.035
Mof_C 	C 	0.3231	0.1924	0.264	-0.163
Mof_C 	C 	0.252	0.2811	0.2631	0.029
Mof_H 	H 	0.1616	0.2948	0.2686	0.032
Mof_C 	C 	0.6638	0.217	0.2414	0.323
Mof_C 	C 	0.2564	0.1192	0.2711	0.525
Mof_C 	C 	0.1437	0.2316	0.1086	0.306
Mof_C 	C 	0.2508	0.2589	0.0491	-0.067
Mof_C 	C 	0.307	0.2125	0.9944	-0.009
Mof_H 	H 	0.277	0.1647	0.9938	0.041
Mof_C 	C 	0.4096	0.2371	0.9395	-0.062
Mof_C 	C 	0.4525	0.3077	0.9414	-0.039
Mof_H 	H 	0.5199	0.3242	0.9046	0.059
Mof_C 	C 	0.3989	0.3551	0.996	-0.001
Mof_C 	C 	0.2948	0.3304	0.0491	-0.034
Mof_H 	H 	0.2543	0.363	0.0852	0.054
Mof_C 	C 	0.4691	0.1875	0.8804	0.291
Mof_C 	C 	0.4614	0.4427	0.0627	-0.057
Mof_H 	H 	0.4368	0.4039	0.1054	0.053
Mof_C 	C 	0.45	0.4296	0.997	0.019
Mof_C 	C 	0.4911	0.4868	0.9352	-0.057
Mof_H 	H 	0.4873	0.4788	0.8909	0.054
Mof_O 	O 	0.1791	0.9262	0.2391	-0.617
Mof_Eu	Eu	0.60146	0.09814	0.761	2.318
Mof_Eu	Eu	0.0562	0.82372	0.77342	2.288
Mof_O 	O 	0.6679	0.2348	0.68	-0.405
Mof_O 	O 	0.6805	0.1259	0.6285	-0.405
Mof_O 	O 	0.8638	0.1617	0.3588	-0.407
Mof_O 	O 	0.9117	0.2897	0.2989	-0.413
Mof_O 	O 	0.0107	0.9763	0.757	-0.613
Mof_O 	O 	0.4039	0.0642	0.7494	-0.444
Mof_O 	O 	0.4036	0.2054	0.7203	-0.424
Mof_O 	O 	0.8666	0.8593	0.7222	-0.52
Mof_O 	O 	0.6734	0.9574	0.7267	-0.558
Mof_O 	O 	0.2721	0.863	0.7483	-0.429
Mof_O 	O 	0.2805	0.7209	0.7734	-0.447
Mof_O 	O 	0.9457	0.7106	0.8606	-0.443
Mof_O 	O 	0.8566	0.8494	0.8731	-0.464
Mof_O 	O 	0.583	0.8689	0.1279	-0.422
Mof_O 	O 	0.4242	0.7989	0.1615	-0.447
Mof_C 	C 	0.7024	0.202	0.6252	0.295
Mof_C 	C 	0.7723	0.2483	0.5554	-0.037
Mof_C 	C 	0.7931	0.2207	0.491	-0.017
Mof_H 	H 	0.7639	0.1723	0.4907	0.071
Mof_C 	C 	0.857	0.2653	0.4277	-0.034
Mof_C 	C 	0.9057	0.3349	0.4297	-0.049
Mof_H 	H 	0.9507	0.364	0.3872	0.064
Mof_C 	C 	0.8887	0.3618	0.4937	0.02
Mof_C 	C 	0.8201	0.3191	0.5564	-0.05
Mof_H 	H 	0.8057	0.3374	0.5995	0.064
Mof_C 	C 	0.8776	0.2378	0.3576	0.298
Mof_C 	C 	0.9448	0.4331	0.4964	0.018
Mof_C 	C 	0.9903	0.4295	0.5555	-0.05
Mof_H 	H 	0.9869	0.3808	0.5938	0.056
Mof_C 	C 	0.9596	0.5051	0.4398	-0.049
Mof_H 	H 	0.9346	0.5089	0.3974	0.056
Mof_C 	C 	0.9408	0.0535	0.756	0.597
Mof_C 	C 	0.0055	0.1259	0.751	-0.19
Mof_C 	C 	0.1405	0.1042	0.7453	0.076
Mof_H 	H 	0.1895	0.0457	0.7454	0.032
Mof_C 	C 	0.2014	0.1703	0.7395	-0.098
Mof_C 	C 	0.1272	0.2575	0.74	0.003
Mof_H 	H 	0.1695	0.3015	0.7345	0.047
Mof_C 	C 	0.9884	0.2816	0.7486	-0.04
Mof_C 	C 	0.9302	0.2141	0.753	0.039
Mof_H 	H 	0.8401	0.2275	0.7574	0.026
Mof_C 	C 	0.3449	0.1452	0.7358	0.335
Mof_C 	C 	0.9121	0.3752	0.7504	0.034
Mof_C 	C 	0.9622	0.4365	0.7647	-0.06
Mof_H 	H 	0.0447	0.4183	0.7757	0.056
Mof_C 	C 	0.8907	0.5245	0.7626	-0.061
Mof_H 	H 	0.9282	0.5641	0.7712	0.063
Mof_C 	C 	0.7669	0.5556	0.7485	0.031
Mof_C 	C 	0.7152	0.493	0.7366	-0.055
Mof_H 	H 	0.6312	0.5113	0.7275	0.056
Mof_C 	C 	0.7832	0.4047	0.738	-0.065
Mof_H 	H 	0.7444	0.3649	0.7307	0.065
Mof_C 	C 	0.6902	0.6507	0.7455	-0.031
Mof_C 	C 	0.5556	0.6731	0.7539	-0.008
Mof_H 	H 	0.5132	0.6284	0.7618	0.047
Mof_C 	C 	0.4819	0.7615	0.7507	-0.094
Mof_C 	C 	0.5435	0.8283	0.7412	0.061
Mof_H 	H 	0.4949	0.8872	0.7383	0.035
Mof_C 	C 	0.6769	0.8076	0.736	-0.163
Mof_C 	C 	0.748	0.7189	0.7369	0.029
Mof_H 	H 	0.8384	0.7052	0.7314	0.032
Mof_C 	C 	0.3362	0.783	0.7586	0.323
Mof_C 	C 	0.7436	0.8808	0.7289	0.525
Mof_C 	C 	0.8563	0.7684	0.8914	0.306
Mof_C 	C 	0.7492	0.7411	0.9509	-0.067
Mof_C 	C 	0.693	0.7875	0.0056	-0.009
Mof_H 	H 	0.723	0.8353	0.0062	0.041
Mof_C 	C 	0.5904	0.7629	0.0605	-0.062
Mof_C 	C 	0.5475	0.6923	0.0586	-0.039
Mof_H 	H 	0.4801	0.6758	0.0954	0.059
Mof_C 	C 	0.6011	0.6449	0.004	-0.001
Mof_C 	C 	0.7052	0.6696	0.9509	-0.034
Mof_H 	H 	0.7457	0.637	0.9148	0.054
Mof_C 	C 	0.5309	0.8125	0.1196	0.291
Mof_C 	C 	0.5386	0.5573	0.9373	-0.057
Mof_H 	H 	0.5632	0.5961	0.8946	0.053
Mof_C 	C 	0.55	0.5704	0.003	0.019
Mof_C 	C 	0.5089	0.5132	0.0648	-0.057
Mof_H 	H 	0.5127	0.5212	0.1091	0.054
Mof_O 	O 	0.8209	0.0738	0.7609	-0.617
_end
