data_functionalizedCrystal
_audit_creation_method	'EQeq! by Chris Wilmer'
_symmetry_space_group_name_H-M	'P1'
_symmetry_Int_Tables_number	1
_symmetry_cell_setting	triclinic
loop_
_symmetry_equiv_pos_as_xyz
  x,y,z
_cell_length_a	16.7444
_cell_length_b	16.7444
_cell_length_c	16.7444
_cell_angle_alpha	90
_cell_angle_beta	90
_cell_angle_gamma	90
loop_
_atom_site_label
_atom_site_type_symbol
_atom_site_fract_x
_atom_site_fract_y
_atom_site_fract_z
_atom_site_charge
Mof_O 	O 	0.0918	0.52261	0.80557	-1.841
Mof_O 	O 	0.5918	0.02261	0.30557	-1.883
Mof_O 	O 	0.9082	0.47739	0.80557	-1.417
Mof_O 	O 	0.4082	0.97739	0.30557	-1.292
Mof_O 	O 	0.9082	0.52261	0.19443	-1.321
Mof_O 	O 	0.4082	0.02261	0.69443	-2.035
Mof_O 	O 	0.0918	0.47739	0.19443	-1.737
Mof_O 	O 	0.5918	0.97739	0.69443	-1.386
Mof_O 	O 	0.80557	0.0918	0.52261	-1.842
Mof_O 	O 	0.30557	0.5918	0.02261	-1.884
Mof_O 	O 	0.80557	0.9082	0.47739	-1.418
Mof_O 	O 	0.30557	0.4082	0.97739	-1.292
Mof_O 	O 	0.19443	0.9082	0.52261	-1.321
Mof_O 	O 	0.69443	0.4082	0.02261	-2.035
Mof_O 	O 	0.19443	0.0918	0.47739	-1.737
Mof_O 	O 	0.69443	0.5918	0.97739	-1.386
Mof_O 	O 	0.52261	0.80557	0.0918	-1.842
Mof_O 	O 	0.02261	0.30557	0.5918	-1.884
Mof_O 	O 	0.47739	0.80557	0.9082	-1.418
Mof_O 	O 	0.97739	0.30557	0.4082	-1.292
Mof_O 	O 	0.52261	0.19443	0.9082	-1.321
Mof_O 	O 	0.02261	0.69443	0.4082	-2.035
Mof_O 	O 	0.47739	0.19443	0.0918	-1.737
Mof_O 	O 	0.97739	0.69443	0.5918	-1.386
Mof_O 	O 	0.52261	0.0918	0.80557	-1.842
Mof_O 	O 	0.02261	0.5918	0.30557	-1.884
Mof_O 	O 	0.47739	0.9082	0.80557	-1.418
Mof_O 	O 	0.97739	0.4082	0.30557	-1.292
Mof_O 	O 	0.52261	0.9082	0.19443	-1.321
Mof_O 	O 	0.02261	0.4082	0.69443	-2.035
Mof_O 	O 	0.47739	0.0918	0.19443	-1.737
Mof_O 	O 	0.97739	0.5918	0.69443	-1.386
Mof_O 	O 	0.0918	0.80557	0.52261	-1.842
Mof_O 	O 	0.5918	0.30557	0.02261	-1.884
Mof_O 	O 	0.9082	0.80557	0.47739	-1.418
Mof_O 	O 	0.4082	0.30557	0.97739	-1.292
Mof_O 	O 	0.9082	0.19443	0.52261	-1.321
Mof_O 	O 	0.4082	0.69443	0.02261	-2.035
Mof_O 	O 	0.0918	0.19443	0.47739	-1.737
Mof_O 	O 	0.5918	0.69443	0.97739	-1.386
Mof_O 	O 	0.80557	0.52261	0.0918	-1.842
Mof_O 	O 	0.30557	0.02261	0.5918	-1.884
Mof_O 	O 	0.80557	0.47739	0.9082	-1.418
Mof_O 	O 	0.30557	0.97739	0.4082	-1.292
Mof_O 	O 	0.19443	0.52261	0.9082	-1.321
Mof_O 	O 	0.69443	0.02261	0.4082	-2.035
Mof_O 	O 	0.19443	0.47739	0.0918	-1.737
Mof_O 	O 	0.69443	0.97739	0.5918	-1.386
Mof_Al	Al	-0	0.5	-0	-3.441
Mof_Al	Al	0.5	0	0.5	1.055
Mof_Al	Al	1.8747e-33	0	0.5	-3.441
Mof_Al	Al	0.5	0.5	-0	1.055
Mof_Al	Al	0.5	0	-0	-3.441
Mof_Al	Al	1.8747e-33	0.5	0.5	1.055
Mof_Na	Na	-2.56497e-33	0.5	0.75	6.757
Mof_Na	Na	-4.43967e-33	0.5	0.25	5.994
Mof_Na	Na	0.75	0	0.5	6.757
Mof_Na	Na	0.25	0	0.5	5.994
Mof_Na	Na	0.5	0.75	-0	6.757
Mof_Na	Na	0.5	0.25	-0	5.994
Mof_Na	Na	0.5	5.37702e-33	0.75	6.757
Mof_Na	Na	0.5	0	0.25	5.994
Mof_Na	Na	-3.50232e-33	0.75	0.5	6.757
Mof_Na	Na	-8.87934e-33	0.25	0.5	5.994
Mof_Na	Na	0.75	0.5	-0	6.757
Mof_Na	Na	0.25	0.5	-0	5.994
Mof_P 	P 	0.12169	0.56872	0.87831	0.803
Mof_O 	O 	0.13925	0.6552	0.86075	-0.331
Mof_O 	O 	0.05728	0.5633	0.94272	0.37
Mof_P 	P 	0.62169	0.06872	0.37831	1.054
Mof_O 	O 	0.63925	0.1552	0.36075	-0.473
Mof_O 	O 	0.55728	0.0633	0.44272	-0.979
Mof_P 	P 	0.87831	0.43128	0.87831	0.824
Mof_O 	O 	0.86075	0.3448	0.86075	-0.149
Mof_O 	O 	0.94272	0.4367	0.94272	0.896
Mof_P 	P 	0.37831	0.93128	0.37831	0.984
Mof_O 	O 	0.36075	0.8448	0.36075	-0.386
Mof_O 	O 	0.44272	0.9367	0.44272	-0.47
Mof_P 	P 	0.87831	0.56872	0.12169	0.803
Mof_O 	O 	0.86075	0.6552	0.13925	-0.331
Mof_O 	O 	0.94272	0.5633	0.05728	0.37
Mof_P 	P 	0.37831	0.06872	0.62169	1.054
Mof_O 	O 	0.36075	0.1552	0.63925	-0.473
Mof_O 	O 	0.44272	0.0633	0.55728	-0.979
Mof_P 	P 	0.12169	0.43128	0.12169	0.785
Mof_O 	O 	0.13925	0.3448	0.13925	-0.694
Mof_O 	O 	0.05728	0.4367	0.05728	-0.209
Mof_P 	P 	0.62169	0.93128	0.62169	1.051
Mof_O 	O 	0.63925	0.8448	0.63925	-0.31
Mof_O 	O 	0.55728	0.9367	0.55728	-0.497
Mof_P 	P 	0.87831	0.12169	0.56872	0.803
Mof_O 	O 	0.86075	0.13925	0.6552	-0.331
Mof_O 	O 	0.94272	0.05728	0.5633	0.37
Mof_P 	P 	0.37831	0.62169	0.06872	1.054
Mof_O 	O 	0.36075	0.63925	0.1552	-0.473
Mof_O 	O 	0.44272	0.55728	0.0633	-0.979
Mof_P 	P 	0.87831	0.87831	0.43128	0.824
Mof_O 	O 	0.86075	0.86075	0.3448	-0.149
Mof_O 	O 	0.94272	0.94272	0.4367	0.896
Mof_P 	P 	0.37831	0.37831	0.93128	0.984
Mof_O 	O 	0.36075	0.36075	0.8448	-0.386
Mof_O 	O 	0.44272	0.44272	0.9367	-0.47
Mof_P 	P 	0.12169	0.87831	0.56872	0.803
Mof_O 	O 	0.13925	0.86075	0.6552	-0.331
Mof_O 	O 	0.05728	0.94272	0.5633	0.37
Mof_P 	P 	0.62169	0.37831	0.06872	1.054
Mof_O 	O 	0.63925	0.36075	0.1552	-0.473
Mof_O 	O 	0.55728	0.44272	0.0633	-0.979
Mof_P 	P 	0.12169	0.12169	0.43128	0.785
Mof_O 	O 	0.13925	0.13925	0.3448	-0.694
Mof_O 	O 	0.05728	0.05728	0.4367	-0.209
Mof_P 	P 	0.62169	0.62169	0.93128	1.051
Mof_O 	O 	0.63925	0.63925	0.8448	-0.31
Mof_O 	O 	0.55728	0.55728	0.9367	-0.497
Mof_P 	P 	0.56872	0.87831	0.12169	0.803
Mof_O 	O 	0.6552	0.86075	0.13925	-0.331
Mof_O 	O 	0.5633	0.94272	0.05728	0.37
Mof_P 	P 	0.06872	0.37831	0.62169	1.054
Mof_O 	O 	0.1552	0.36075	0.63925	-0.473
Mof_O 	O 	0.0633	0.44272	0.55728	-0.979
Mof_P 	P 	0.43128	0.87831	0.87831	0.824
Mof_O 	O 	0.3448	0.86075	0.86075	-0.149
Mof_O 	O 	0.4367	0.94272	0.94272	0.896
Mof_P 	P 	0.93128	0.37831	0.37831	0.984
Mof_O 	O 	0.8448	0.36075	0.36075	-0.386
Mof_O 	O 	0.9367	0.44272	0.44272	-0.47
Mof_P 	P 	0.56872	0.12169	0.87831	0.803
Mof_O 	O 	0.6552	0.13925	0.86075	-0.331
Mof_O 	O 	0.5633	0.05728	0.94272	0.37
Mof_P 	P 	0.06872	0.62169	0.37831	1.054
Mof_O 	O 	0.1552	0.63925	0.36075	-0.473
Mof_O 	O 	0.0633	0.55728	0.44272	-0.979
Mof_P 	P 	0.43128	0.12169	0.12169	0.785
Mof_O 	O 	0.3448	0.13925	0.13925	-0.694
Mof_O 	O 	0.4367	0.05728	0.05728	-0.209
Mof_P 	P 	0.93128	0.62169	0.62169	1.051
Mof_O 	O 	0.8448	0.63925	0.63925	-0.31
Mof_O 	O 	0.9367	0.55728	0.55728	-0.497
_end
