data_functionalizedCrystal
_audit_creation_method	'EQeq! by Chris Wilmer'
_symmetry_space_group_name_H-M	'P1'
_symmetry_Int_Tables_number	1
_symmetry_cell_setting	triclinic
loop_
_symmetry_equiv_pos_as_xyz
  x,y,z
_cell_length_a	28.331
_cell_length_b	28.331
_cell_length_c	28.331
_cell_angle_alpha	90
_cell_angle_beta	90
_cell_angle_gamma	90
loop_
_atom_site_label
_atom_site_type_symbol
_atom_site_fract_x
_atom_site_fract_y
_atom_site_fract_z
_atom_site_charge
Mof_H 	H 	0.5849	0.2597	0.7129	0.326
Mof_H 	H 	0.5974	0.2835	0.7613	0.343
Mof_H 	H 	0.6169	0.2331	0.7494	0.326
Mof_H 	H 	0.4151	0.7403	0.7129	0.336
Mof_H 	H 	0.4026	0.7165	0.7613	0.354
Mof_H 	H 	0.3831	0.7669	0.7494	0.339
Mof_H 	H 	0.4151	0.2597	0.2871	0.301
Mof_H 	H 	0.4026	0.2835	0.2387	0.313
Mof_H 	H 	0.3831	0.2331	0.2506	0.294
Mof_H 	H 	0.5849	0.7403	0.2871	0.327
Mof_H 	H 	0.5974	0.7165	0.2387	0.343
Mof_H 	H 	0.6169	0.7669	0.2506	0.329
Mof_H 	H 	0.7129	0.5849	0.2597	0.327
Mof_H 	H 	0.7613	0.5974	0.2835	0.344
Mof_H 	H 	0.7494	0.6169	0.2331	0.327
Mof_H 	H 	0.7129	0.4151	0.7403	0.336
Mof_H 	H 	0.7613	0.4026	0.7165	0.354
Mof_H 	H 	0.7494	0.3831	0.7669	0.339
Mof_H 	H 	0.2871	0.4151	0.2597	0.301
Mof_H 	H 	0.2387	0.4026	0.2835	0.313
Mof_H 	H 	0.2506	0.3831	0.2331	0.294
Mof_H 	H 	0.2871	0.5849	0.7403	0.327
Mof_H 	H 	0.2387	0.5974	0.7165	0.343
Mof_H 	H 	0.2506	0.6169	0.7669	0.329
Mof_H 	H 	0.2597	0.7129	0.5849	0.327
Mof_H 	H 	0.2835	0.7613	0.5974	0.344
Mof_H 	H 	0.2331	0.7494	0.6169	0.327
Mof_H 	H 	0.7403	0.7129	0.4151	0.336
Mof_H 	H 	0.7165	0.7613	0.4026	0.354
Mof_H 	H 	0.7669	0.7494	0.3831	0.339
Mof_H 	H 	0.2597	0.2871	0.4151	0.301
Mof_H 	H 	0.2835	0.2387	0.4026	0.313
Mof_H 	H 	0.2331	0.2506	0.3831	0.294
Mof_H 	H 	0.7403	0.2871	0.5849	0.327
Mof_H 	H 	0.7165	0.2387	0.5974	0.343
Mof_H 	H 	0.7669	0.2506	0.6169	0.329
Mof_H 	H 	0.2597	0.5849	0.2871	0.31
Mof_H 	H 	0.2835	0.5974	0.2387	0.323
Mof_H 	H 	0.2331	0.6169	0.2506	0.305
Mof_H 	H 	0.7403	0.4151	0.2871	0.318
Mof_H 	H 	0.7165	0.4026	0.2387	0.333
Mof_H 	H 	0.7669	0.3831	0.2506	0.318
Mof_H 	H 	0.2597	0.4151	0.7129	0.318
Mof_H 	H 	0.2835	0.4026	0.7613	0.334
Mof_H 	H 	0.2331	0.3831	0.7494	0.315
Mof_H 	H 	0.7403	0.5849	0.7129	0.345
Mof_H 	H 	0.7165	0.5974	0.7613	0.364
Mof_H 	H 	0.7669	0.6169	0.7494	0.351
Mof_H 	H 	0.5849	0.7129	0.7403	0.345
Mof_H 	H 	0.5974	0.7613	0.7165	0.364
Mof_H 	H 	0.6169	0.7494	0.7669	0.351
Mof_H 	H 	0.4151	0.7129	0.2597	0.318
Mof_H 	H 	0.4026	0.7613	0.2835	0.334
Mof_H 	H 	0.3831	0.7494	0.2331	0.315
Mof_H 	H 	0.4151	0.2871	0.7403	0.318
Mof_H 	H 	0.4026	0.2387	0.7165	0.333
Mof_H 	H 	0.3831	0.2506	0.7669	0.318
Mof_H 	H 	0.5849	0.2871	0.2597	0.31
Mof_H 	H 	0.5974	0.2387	0.2835	0.323
Mof_H 	H 	0.6169	0.2506	0.2331	0.305
Mof_H 	H 	0.7129	0.2597	0.4151	0.318
Mof_H 	H 	0.7613	0.2835	0.4026	0.334
Mof_H 	H 	0.7494	0.2331	0.3831	0.315
Mof_H 	H 	0.7129	0.7403	0.5849	0.345
Mof_H 	H 	0.7613	0.7165	0.5974	0.364
Mof_H 	H 	0.7494	0.7669	0.6169	0.351
Mof_H 	H 	0.2871	0.2597	0.5849	0.31
Mof_H 	H 	0.2387	0.2835	0.5974	0.323
Mof_H 	H 	0.2506	0.2331	0.6169	0.305
Mof_H 	H 	0.2871	0.7403	0.4151	0.318
Mof_H 	H 	0.2387	0.7165	0.4026	0.333
Mof_H 	H 	0.2506	0.7669	0.3831	0.318
Mof_H 	H 	0.4151	0.7403	0.2871	0.318
Mof_H 	H 	0.4026	0.7165	0.2387	0.333
Mof_H 	H 	0.3831	0.7669	0.2506	0.318
Mof_H 	H 	0.5849	0.2597	0.2871	0.31
Mof_H 	H 	0.5974	0.2835	0.2387	0.323
Mof_H 	H 	0.6169	0.2331	0.2506	0.305
Mof_H 	H 	0.5849	0.7403	0.7129	0.345
Mof_H 	H 	0.5974	0.7165	0.7613	0.364
Mof_H 	H 	0.6169	0.7669	0.7494	0.351
Mof_H 	H 	0.4151	0.2597	0.7129	0.318
Mof_H 	H 	0.4026	0.2835	0.7613	0.334
Mof_H 	H 	0.3831	0.2331	0.7494	0.315
Mof_H 	H 	0.2871	0.4151	0.7403	0.318
Mof_H 	H 	0.2387	0.4026	0.7165	0.333
Mof_H 	H 	0.2506	0.3831	0.7669	0.318
Mof_H 	H 	0.2871	0.5849	0.2597	0.31
Mof_H 	H 	0.2387	0.5974	0.2835	0.323
Mof_H 	H 	0.2506	0.6169	0.2331	0.305
Mof_H 	H 	0.7129	0.5849	0.7403	0.345
Mof_H 	H 	0.7613	0.5974	0.7165	0.364
Mof_H 	H 	0.7494	0.6169	0.7669	0.351
Mof_H 	H 	0.7129	0.4151	0.2597	0.318
Mof_H 	H 	0.7613	0.4026	0.2835	0.334
Mof_H 	H 	0.7494	0.3831	0.2331	0.315
Mof_H 	H 	0.7403	0.2871	0.4151	0.318
Mof_H 	H 	0.7165	0.2387	0.4026	0.333
Mof_H 	H 	0.7669	0.2506	0.3831	0.318
Mof_H 	H 	0.2597	0.2871	0.5849	0.31
Mof_H 	H 	0.2835	0.2387	0.5974	0.323
Mof_H 	H 	0.2331	0.2506	0.6169	0.305
Mof_H 	H 	0.7403	0.7129	0.5849	0.345
Mof_H 	H 	0.7165	0.7613	0.5974	0.364
Mof_H 	H 	0.7669	0.7494	0.6169	0.351
Mof_H 	H 	0.2597	0.7129	0.4151	0.318
Mof_H 	H 	0.2835	0.7613	0.4026	0.334
Mof_H 	H 	0.2331	0.7494	0.3831	0.315
Mof_H 	H 	0.7403	0.4151	0.7129	0.336
Mof_H 	H 	0.7165	0.4026	0.7613	0.354
Mof_H 	H 	0.7669	0.3831	0.7494	0.339
Mof_H 	H 	0.2597	0.5849	0.7129	0.327
Mof_H 	H 	0.2835	0.5974	0.7613	0.344
Mof_H 	H 	0.2331	0.6169	0.7494	0.327
Mof_H 	H 	0.7403	0.5849	0.2871	0.327
Mof_H 	H 	0.7165	0.5974	0.2387	0.343
Mof_H 	H 	0.7669	0.6169	0.2506	0.329
Mof_H 	H 	0.2597	0.4151	0.2871	0.301
Mof_H 	H 	0.2835	0.4026	0.2387	0.313
Mof_H 	H 	0.2331	0.3831	0.2506	0.294
Mof_H 	H 	0.4151	0.2871	0.2597	0.301
Mof_H 	H 	0.4026	0.2387	0.2835	0.313
Mof_H 	H 	0.3831	0.2506	0.2331	0.294
Mof_H 	H 	0.5849	0.2871	0.7403	0.327
Mof_H 	H 	0.5974	0.2387	0.7165	0.343
Mof_H 	H 	0.6169	0.2506	0.7669	0.329
Mof_H 	H 	0.5849	0.7129	0.2597	0.327
Mof_H 	H 	0.5974	0.7613	0.2835	0.344
Mof_H 	H 	0.6169	0.7494	0.2331	0.327
Mof_H 	H 	0.4151	0.7129	0.7403	0.336
Mof_H 	H 	0.4026	0.7613	0.7165	0.354
Mof_H 	H 	0.3831	0.7494	0.7669	0.339
Mof_H 	H 	0.2871	0.7403	0.5849	0.327
Mof_H 	H 	0.2387	0.7165	0.5974	0.343
Mof_H 	H 	0.2506	0.7669	0.6169	0.329
Mof_H 	H 	0.2871	0.2597	0.4151	0.301
Mof_H 	H 	0.2387	0.2835	0.4026	0.313
Mof_H 	H 	0.2506	0.2331	0.3831	0.294
Mof_H 	H 	0.7129	0.7403	0.4151	0.336
Mof_H 	H 	0.7613	0.7165	0.4026	0.354
Mof_H 	H 	0.7494	0.7669	0.3831	0.339
Mof_H 	H 	0.7129	0.2597	0.5849	0.327
Mof_H 	H 	0.7613	0.2835	0.5974	0.344
Mof_H 	H 	0.7494	0.2331	0.6169	0.327
Mof_Zr	Zr	0.5	0.087	0.5	3.217
Mof_Zr	Zr	0.5	0.913	0.5	3.217
Mof_Zr	Zr	0.5	0.5	0.087	3.217
Mof_Zr	Zr	0.5	0.5	0.913	3.217
Mof_Zr	Zr	0.087	0.5	0.5	3.217
Mof_Zr	Zr	0.913	0.5	0.5	3.217
Mof_Zr	Zr	0.43748	-4.44043e-33	0.43748	3.159
Mof_Zr	Zr	0.56252	-4.44043e-33	0.43748	3.159
Mof_Zr	Zr	0.56252	-4.44043e-33	0.56252	3.16
Mof_Zr	Zr	0.43748	-4.44043e-33	0.56252	3.159
Mof_Zr	Zr	0.43748	0.43748	-0	3.159
Mof_Zr	Zr	0.43748	0.56252	-0	3.159
Mof_Zr	Zr	0.56252	0.56252	-0	3.16
Mof_Zr	Zr	0.56252	0.43748	-0	3.159
Mof_Zr	Zr	-7.24057e-33	0.43748	0.43748	3.159
Mof_Zr	Zr	-6.77174e-33	0.43748	0.56252	3.159
Mof_Zr	Zr	-2.33131e-33	0.56252	0.56252	3.16
Mof_Zr	Zr	-7.24057e-33	0.56252	0.43748	3.159
Mof_O 	O 	0.54624	0.1267	0.54624	-0.697
Mof_O 	O 	0.58738	0.0712	0.58738	-0.808
Mof_C 	C 	0.5765	0.115	0.5765	0.605
Mof_C 	C 	0.6033	0.1512	0.6033	-0.465
Mof_C 	C 	0.5935	0.1984	0.5935	0.368
Mof_H 	H 	0.5709	0.2058	0.5709	-0.098
Mof_C 	C 	0.6171	0.2351	0.6171	-0.597
Mof_H 	H 	0.6095	0.2661	0.6095	0.208
Mof_C 	C 	0.6508	0.2274	0.6508	0.607
Mof_C 	C 	0.6599	0.1812	0.6599	-0.649
Mof_H 	H 	0.6825	0.1739	0.6825	0.208
Mof_C 	C 	0.6374	0.1445	0.6374	0.419
Mof_H 	H 	0.6456	0.1138	0.6456	-0.167
Mof_C 	C 	0.6734	0.2667	0.6734	-0.902
Mof_O 	O 	0.45376	0.8733	0.54624	-0.693
Mof_O 	O 	0.41262	0.9288	0.58738	-0.761
Mof_C 	C 	0.4235	0.885	0.5765	0.597
Mof_C 	C 	0.3967	0.8488	0.6033	-0.446
Mof_C 	C 	0.4065	0.8016	0.5935	0.36
Mof_H 	H 	0.4291	0.7942	0.5709	-0.094
Mof_C 	C 	0.3829	0.7649	0.6171	-0.589
Mof_H 	H 	0.3905	0.7339	0.6095	0.206
Mof_C 	C 	0.3492	0.7726	0.6508	0.603
Mof_C 	C 	0.3401	0.8188	0.6599	-0.636
Mof_H 	H 	0.3175	0.8261	0.6825	0.213
Mof_C 	C 	0.3626	0.8555	0.6374	0.41
Mof_H 	H 	0.3544	0.8862	0.6456	-0.143
Mof_C 	C 	0.3266	0.7333	0.6734	-0.903
Mof_O 	O 	0.45376	0.1267	0.45376	-0.697
Mof_O 	O 	0.41262	0.0712	0.41262	-0.814
Mof_C 	C 	0.4235	0.115	0.4235	0.599
Mof_C 	C 	0.3967	0.1512	0.3967	-0.452
Mof_C 	C 	0.4065	0.1984	0.4065	0.347
Mof_H 	H 	0.4291	0.2058	0.4291	-0.091
Mof_C 	C 	0.3829	0.2351	0.3829	-0.566
Mof_H 	H 	0.3905	0.2661	0.3905	0.198
Mof_C 	C 	0.3492	0.2274	0.3492	0.566
Mof_C 	C 	0.3401	0.1812	0.3401	-0.617
Mof_H 	H 	0.3175	0.1739	0.3175	0.182
Mof_C 	C 	0.3626	0.1445	0.3626	0.393
Mof_H 	H 	0.3544	0.1138	0.3544	-0.17
Mof_C 	C 	0.3266	0.2667	0.3266	-0.837
Mof_O 	O 	0.54624	0.8733	0.45376	-0.693
Mof_O 	O 	0.58738	0.9288	0.41262	-0.761
Mof_C 	C 	0.5765	0.885	0.4235	0.597
Mof_C 	C 	0.6033	0.8488	0.3967	-0.446
Mof_C 	C 	0.5935	0.8016	0.4065	0.36
Mof_H 	H 	0.5709	0.7942	0.4291	-0.094
Mof_C 	C 	0.6171	0.7649	0.3829	-0.589
Mof_H 	H 	0.6095	0.7339	0.3905	0.206
Mof_C 	C 	0.6508	0.7726	0.3492	0.603
Mof_C 	C 	0.6599	0.8188	0.3401	-0.636
Mof_H 	H 	0.6825	0.8261	0.3175	0.213
Mof_C 	C 	0.6374	0.8555	0.3626	0.41
Mof_H 	H 	0.6456	0.8862	0.3544	-0.143
Mof_C 	C 	0.6734	0.7333	0.3266	-0.903
Mof_O 	O 	0.54624	0.54624	0.1267	-0.697
Mof_O 	O 	0.58738	0.58738	0.0712	-0.808
Mof_C 	C 	0.5765	0.5765	0.115	0.605
Mof_C 	C 	0.6033	0.6033	0.1512	-0.465
Mof_C 	C 	0.5935	0.5935	0.1984	0.368
Mof_H 	H 	0.5709	0.5709	0.2058	-0.098
Mof_C 	C 	0.6171	0.6171	0.2351	-0.597
Mof_H 	H 	0.6095	0.6095	0.2661	0.208
Mof_C 	C 	0.6508	0.6508	0.2274	0.607
Mof_C 	C 	0.6599	0.6599	0.1812	-0.649
Mof_H 	H 	0.6825	0.6825	0.1739	0.208
Mof_C 	C 	0.6374	0.6374	0.1445	0.419
Mof_H 	H 	0.6456	0.6456	0.1138	-0.167
Mof_C 	C 	0.6734	0.6734	0.2667	-0.902
Mof_O 	O 	0.54624	0.45376	0.8733	-0.693
Mof_O 	O 	0.58738	0.41262	0.9288	-0.761
Mof_C 	C 	0.5765	0.4235	0.885	0.597
Mof_C 	C 	0.6033	0.3967	0.8488	-0.446
Mof_C 	C 	0.5935	0.4065	0.8016	0.36
Mof_H 	H 	0.5709	0.4291	0.7942	-0.094
Mof_C 	C 	0.6171	0.3829	0.7649	-0.589
Mof_H 	H 	0.6095	0.3905	0.7339	0.206
Mof_C 	C 	0.6508	0.3492	0.7726	0.603
Mof_C 	C 	0.6599	0.3401	0.8188	-0.636
Mof_H 	H 	0.6825	0.3175	0.8261	0.213
Mof_C 	C 	0.6374	0.3626	0.8555	0.41
Mof_H 	H 	0.6456	0.3544	0.8862	-0.143
Mof_C 	C 	0.6734	0.3266	0.7333	-0.903
Mof_O 	O 	0.45376	0.45376	0.1267	-0.697
Mof_O 	O 	0.41262	0.41262	0.0712	-0.814
Mof_C 	C 	0.4235	0.4235	0.115	0.599
Mof_C 	C 	0.3967	0.3967	0.1512	-0.452
Mof_C 	C 	0.4065	0.4065	0.1984	0.347
Mof_H 	H 	0.4291	0.4291	0.2058	-0.091
Mof_C 	C 	0.3829	0.3829	0.2351	-0.566
Mof_H 	H 	0.3905	0.3905	0.2661	0.198
Mof_C 	C 	0.3492	0.3492	0.2274	0.566
Mof_C 	C 	0.3401	0.3401	0.1812	-0.617
Mof_H 	H 	0.3175	0.3175	0.1739	0.182
Mof_C 	C 	0.3626	0.3626	0.1445	0.393
Mof_H 	H 	0.3544	0.3544	0.1138	-0.17
Mof_C 	C 	0.3266	0.3266	0.2667	-0.837
Mof_O 	O 	0.45376	0.54624	0.8733	-0.693
Mof_O 	O 	0.41262	0.58738	0.9288	-0.761
Mof_C 	C 	0.4235	0.5765	0.885	0.597
Mof_C 	C 	0.3967	0.6033	0.8488	-0.446
Mof_C 	C 	0.4065	0.5935	0.8016	0.36
Mof_H 	H 	0.4291	0.5709	0.7942	-0.094
Mof_C 	C 	0.3829	0.6171	0.7649	-0.589
Mof_H 	H 	0.3905	0.6095	0.7339	0.206
Mof_C 	C 	0.3492	0.6508	0.7726	0.603
Mof_C 	C 	0.3401	0.6599	0.8188	-0.636
Mof_H 	H 	0.3175	0.6825	0.8261	0.213
Mof_C 	C 	0.3626	0.6374	0.8555	0.41
Mof_H 	H 	0.3544	0.6456	0.8862	-0.143
Mof_C 	C 	0.3266	0.6734	0.7333	-0.903
Mof_O 	O 	0.1267	0.54624	0.54624	-0.697
Mof_O 	O 	0.0712	0.58738	0.58738	-0.808
Mof_C 	C 	0.115	0.5765	0.5765	0.605
Mof_C 	C 	0.1512	0.6033	0.6033	-0.465
Mof_C 	C 	0.1984	0.5935	0.5935	0.368
Mof_H 	H 	0.2058	0.5709	0.5709	-0.098
Mof_C 	C 	0.2351	0.6171	0.6171	-0.597
Mof_H 	H 	0.2661	0.6095	0.6095	0.208
Mof_C 	C 	0.2274	0.6508	0.6508	0.607
Mof_C 	C 	0.1812	0.6599	0.6599	-0.649
Mof_H 	H 	0.1739	0.6825	0.6825	0.208
Mof_C 	C 	0.1445	0.6374	0.6374	0.419
Mof_H 	H 	0.1138	0.6456	0.6456	-0.167
Mof_C 	C 	0.2667	0.6734	0.6734	-0.902
Mof_O 	O 	0.8733	0.54624	0.45376	-0.693
Mof_O 	O 	0.9288	0.58738	0.41262	-0.761
Mof_C 	C 	0.885	0.5765	0.4235	0.597
Mof_C 	C 	0.8488	0.6033	0.3967	-0.446
Mof_C 	C 	0.8016	0.5935	0.4065	0.36
Mof_H 	H 	0.7942	0.5709	0.4291	-0.094
Mof_C 	C 	0.7649	0.6171	0.3829	-0.589
Mof_H 	H 	0.7339	0.6095	0.3905	0.206
Mof_C 	C 	0.7726	0.6508	0.3492	0.603
Mof_C 	C 	0.8188	0.6599	0.3401	-0.636
Mof_H 	H 	0.8261	0.6825	0.3175	0.213
Mof_C 	C 	0.8555	0.6374	0.3626	0.41
Mof_H 	H 	0.8862	0.6456	0.3544	-0.143
Mof_C 	C 	0.7333	0.6734	0.3266	-0.903
Mof_O 	O 	0.1267	0.45376	0.45376	-0.697
Mof_O 	O 	0.0712	0.41262	0.41262	-0.814
Mof_C 	C 	0.115	0.4235	0.4235	0.599
Mof_C 	C 	0.1512	0.3967	0.3967	-0.452
Mof_C 	C 	0.1984	0.4065	0.4065	0.347
Mof_H 	H 	0.2058	0.4291	0.4291	-0.091
Mof_C 	C 	0.2351	0.3829	0.3829	-0.566
Mof_H 	H 	0.2661	0.3905	0.3905	0.198
Mof_C 	C 	0.2274	0.3492	0.3492	0.566
Mof_C 	C 	0.1812	0.3401	0.3401	-0.617
Mof_H 	H 	0.1739	0.3175	0.3175	0.182
Mof_C 	C 	0.1445	0.3626	0.3626	0.393
Mof_H 	H 	0.1138	0.3544	0.3544	-0.17
Mof_C 	C 	0.2667	0.3266	0.3266	-0.837
Mof_O 	O 	0.8733	0.45376	0.54624	-0.693
Mof_O 	O 	0.9288	0.41262	0.58738	-0.761
Mof_C 	C 	0.885	0.4235	0.5765	0.597
Mof_C 	C 	0.8488	0.3967	0.6033	-0.446
Mof_C 	C 	0.8016	0.4065	0.5935	0.36
Mof_H 	H 	0.7942	0.4291	0.5709	-0.094
Mof_C 	C 	0.7649	0.3829	0.6171	-0.589
Mof_H 	H 	0.7339	0.3905	0.6095	0.206
Mof_C 	C 	0.7726	0.3492	0.6508	0.603
Mof_C 	C 	0.8188	0.3401	0.6599	-0.636
Mof_H 	H 	0.8261	0.3175	0.6825	0.213
Mof_C 	C 	0.8555	0.3626	0.6374	0.41
Mof_H 	H 	0.8862	0.3544	0.6456	-0.143
Mof_C 	C 	0.7333	0.3266	0.6734	-0.903
Mof_O 	O 	0.1267	0.54624	0.45376	-0.697
Mof_O 	O 	0.0712	0.58738	0.41262	-0.811
Mof_C 	C 	0.115	0.5765	0.4235	0.602
Mof_C 	C 	0.1512	0.6033	0.3967	-0.458
Mof_C 	C 	0.1984	0.5935	0.4065	0.357
Mof_H 	H 	0.2058	0.5709	0.4291	-0.094
Mof_C 	C 	0.2351	0.6171	0.3829	-0.581
Mof_H 	H 	0.2661	0.6095	0.3905	0.203
Mof_C 	C 	0.2274	0.6508	0.3492	0.586
Mof_C 	C 	0.1812	0.6599	0.3401	-0.633
Mof_H 	H 	0.1739	0.6825	0.3175	0.195
Mof_C 	C 	0.1445	0.6374	0.3626	0.406
Mof_H 	H 	0.1138	0.6456	0.3544	-0.168
Mof_C 	C 	0.2667	0.6734	0.3266	-0.869
Mof_O 	O 	0.8733	0.45376	0.45376	-0.692
Mof_O 	O 	0.9288	0.41262	0.41262	-0.764
Mof_C 	C 	0.885	0.4235	0.4235	0.594
Mof_C 	C 	0.8488	0.3967	0.3967	-0.439
Mof_C 	C 	0.8016	0.4065	0.4065	0.349
Mof_H 	H 	0.7942	0.4291	0.4291	-0.09
Mof_C 	C 	0.7649	0.3829	0.3829	-0.573
Mof_H 	H 	0.7339	0.3905	0.3905	0.201
Mof_C 	C 	0.7726	0.3492	0.3492	0.582
Mof_C 	C 	0.8188	0.3401	0.3401	-0.62
Mof_H 	H 	0.8261	0.3175	0.3175	0.2
Mof_C 	C 	0.8555	0.3626	0.3626	0.397
Mof_H 	H 	0.8862	0.3544	0.3544	-0.144
Mof_C 	C 	0.7333	0.3266	0.3266	-0.871
Mof_O 	O 	0.1267	0.45376	0.54624	-0.697
Mof_O 	O 	0.0712	0.41262	0.58738	-0.811
Mof_C 	C 	0.115	0.4235	0.5765	0.602
Mof_C 	C 	0.1512	0.3967	0.6033	-0.458
Mof_C 	C 	0.1984	0.4065	0.5935	0.357
Mof_H 	H 	0.2058	0.4291	0.5709	-0.094
Mof_C 	C 	0.2351	0.3829	0.6171	-0.581
Mof_H 	H 	0.2661	0.3905	0.6095	0.203
Mof_C 	C 	0.2274	0.3492	0.6508	0.586
Mof_C 	C 	0.1812	0.3401	0.6599	-0.633
Mof_H 	H 	0.1739	0.3175	0.6825	0.195
Mof_C 	C 	0.1445	0.3626	0.6374	0.406
Mof_H 	H 	0.1138	0.3544	0.6456	-0.168
Mof_C 	C 	0.2667	0.3266	0.6734	-0.869
Mof_O 	O 	0.8733	0.54624	0.54624	-0.693
Mof_O 	O 	0.9288	0.58738	0.58738	-0.758
Mof_C 	C 	0.885	0.5765	0.5765	0.6
Mof_C 	C 	0.8488	0.6033	0.6033	-0.452
Mof_C 	C 	0.8016	0.5935	0.5935	0.37
Mof_H 	H 	0.7942	0.5709	0.5709	-0.097
Mof_C 	C 	0.7649	0.6171	0.6171	-0.604
Mof_H 	H 	0.7339	0.6095	0.6095	0.21
Mof_C 	C 	0.7726	0.6508	0.6508	0.623
Mof_C 	C 	0.8188	0.6599	0.6599	-0.652
Mof_H 	H 	0.8261	0.6825	0.6825	0.226
Mof_C 	C 	0.8555	0.6374	0.6374	0.423
Mof_H 	H 	0.8862	0.6456	0.6456	-0.141
Mof_C 	C 	0.7333	0.6734	0.6734	-0.935
Mof_O 	O 	0.54624	0.54624	0.8733	-0.693
Mof_O 	O 	0.58738	0.58738	0.9288	-0.758
Mof_C 	C 	0.5765	0.5765	0.885	0.6
Mof_C 	C 	0.6033	0.6033	0.8488	-0.452
Mof_C 	C 	0.5935	0.5935	0.8016	0.37
Mof_H 	H 	0.5709	0.5709	0.7942	-0.097
Mof_C 	C 	0.6171	0.6171	0.7649	-0.604
Mof_H 	H 	0.6095	0.6095	0.7339	0.21
Mof_C 	C 	0.6508	0.6508	0.7726	0.623
Mof_C 	C 	0.6599	0.6599	0.8188	-0.652
Mof_H 	H 	0.6825	0.6825	0.8261	0.226
Mof_C 	C 	0.6374	0.6374	0.8555	0.423
Mof_H 	H 	0.6456	0.6456	0.8862	-0.141
Mof_C 	C 	0.6734	0.6734	0.7333	-0.935
Mof_O 	O 	0.45376	0.54624	0.1267	-0.697
Mof_O 	O 	0.41262	0.58738	0.0712	-0.811
Mof_C 	C 	0.4235	0.5765	0.115	0.602
Mof_C 	C 	0.3967	0.6033	0.1512	-0.458
Mof_C 	C 	0.4065	0.5935	0.1984	0.357
Mof_H 	H 	0.4291	0.5709	0.2058	-0.094
Mof_C 	C 	0.3829	0.6171	0.2351	-0.581
Mof_H 	H 	0.3905	0.6095	0.2661	0.203
Mof_C 	C 	0.3492	0.6508	0.2274	0.586
Mof_C 	C 	0.3401	0.6599	0.1812	-0.633
Mof_H 	H 	0.3175	0.6825	0.1739	0.195
Mof_C 	C 	0.3626	0.6374	0.1445	0.406
Mof_H 	H 	0.3544	0.6456	0.1138	-0.168
Mof_C 	C 	0.3266	0.6734	0.2667	-0.869
Mof_O 	O 	0.45376	0.45376	0.8733	-0.692
Mof_O 	O 	0.41262	0.41262	0.9288	-0.764
Mof_C 	C 	0.4235	0.4235	0.885	0.594
Mof_C 	C 	0.3967	0.3967	0.8488	-0.439
Mof_C 	C 	0.4065	0.4065	0.8016	0.349
Mof_H 	H 	0.4291	0.4291	0.7942	-0.09
Mof_C 	C 	0.3829	0.3829	0.7649	-0.573
Mof_H 	H 	0.3905	0.3905	0.7339	0.201
Mof_C 	C 	0.3492	0.3492	0.7726	0.582
Mof_C 	C 	0.3401	0.3401	0.8188	-0.62
Mof_H 	H 	0.3175	0.3175	0.8261	0.2
Mof_C 	C 	0.3626	0.3626	0.8555	0.397
Mof_H 	H 	0.3544	0.3544	0.8862	-0.144
Mof_C 	C 	0.3266	0.3266	0.7333	-0.871
Mof_O 	O 	0.54624	0.45376	0.1267	-0.697
Mof_O 	O 	0.58738	0.41262	0.0712	-0.811
Mof_C 	C 	0.5765	0.4235	0.115	0.602
Mof_C 	C 	0.6033	0.3967	0.1512	-0.458
Mof_C 	C 	0.5935	0.4065	0.1984	0.357
Mof_H 	H 	0.5709	0.4291	0.2058	-0.094
Mof_C 	C 	0.6171	0.3829	0.2351	-0.581
Mof_H 	H 	0.6095	0.3905	0.2661	0.203
Mof_C 	C 	0.6508	0.3492	0.2274	0.586
Mof_C 	C 	0.6599	0.3401	0.1812	-0.633
Mof_H 	H 	0.6825	0.3175	0.1739	0.195
Mof_C 	C 	0.6374	0.3626	0.1445	0.406
Mof_H 	H 	0.6456	0.3544	0.1138	-0.168
Mof_C 	C 	0.6734	0.3266	0.2667	-0.869
Mof_O 	O 	0.54624	0.1267	0.45376	-0.697
Mof_O 	O 	0.58738	0.0712	0.41262	-0.811
Mof_C 	C 	0.5765	0.115	0.4235	0.602
Mof_C 	C 	0.6033	0.1512	0.3967	-0.458
Mof_C 	C 	0.5935	0.1984	0.4065	0.357
Mof_H 	H 	0.5709	0.2058	0.4291	-0.094
Mof_C 	C 	0.6171	0.2351	0.3829	-0.581
Mof_H 	H 	0.6095	0.2661	0.3905	0.203
Mof_C 	C 	0.6508	0.2274	0.3492	0.586
Mof_C 	C 	0.6599	0.1812	0.3401	-0.633
Mof_H 	H 	0.6825	0.1739	0.3175	0.195
Mof_C 	C 	0.6374	0.1445	0.3626	0.406
Mof_H 	H 	0.6456	0.1138	0.3544	-0.168
Mof_C 	C 	0.6734	0.2667	0.3266	-0.869
Mof_O 	O 	0.54624	0.8733	0.54624	-0.693
Mof_O 	O 	0.58738	0.9288	0.58738	-0.758
Mof_C 	C 	0.5765	0.885	0.5765	0.6
Mof_C 	C 	0.6033	0.8488	0.6033	-0.452
Mof_C 	C 	0.5935	0.8016	0.5935	0.37
Mof_H 	H 	0.5709	0.7942	0.5709	-0.097
Mof_C 	C 	0.6171	0.7649	0.6171	-0.604
Mof_H 	H 	0.6095	0.7339	0.6095	0.21
Mof_C 	C 	0.6508	0.7726	0.6508	0.623
Mof_C 	C 	0.6599	0.8188	0.6599	-0.652
Mof_H 	H 	0.6825	0.8261	0.6825	0.226
Mof_C 	C 	0.6374	0.8555	0.6374	0.423
Mof_H 	H 	0.6456	0.8862	0.6456	-0.141
Mof_C 	C 	0.6734	0.7333	0.6734	-0.935
Mof_O 	O 	0.45376	0.1267	0.54624	-0.697
Mof_O 	O 	0.41262	0.0712	0.58738	-0.811
Mof_C 	C 	0.4235	0.115	0.5765	0.602
Mof_C 	C 	0.3967	0.1512	0.6033	-0.458
Mof_C 	C 	0.4065	0.1984	0.5935	0.357
Mof_H 	H 	0.4291	0.2058	0.5709	-0.094
Mof_C 	C 	0.3829	0.2351	0.6171	-0.581
Mof_H 	H 	0.3905	0.2661	0.6095	0.203
Mof_C 	C 	0.3492	0.2274	0.6508	0.586
Mof_C 	C 	0.3401	0.1812	0.6599	-0.633
Mof_H 	H 	0.3175	0.1739	0.6825	0.195
Mof_C 	C 	0.3626	0.1445	0.6374	0.406
Mof_H 	H 	0.3544	0.1138	0.6456	-0.168
Mof_C 	C 	0.3266	0.2667	0.6734	-0.869
Mof_O 	O 	0.45376	0.8733	0.45376	-0.692
Mof_O 	O 	0.41262	0.9288	0.41262	-0.764
Mof_C 	C 	0.4235	0.885	0.4235	0.594
Mof_C 	C 	0.3967	0.8488	0.3967	-0.439
Mof_C 	C 	0.4065	0.8016	0.4065	0.349
Mof_H 	H 	0.4291	0.7942	0.4291	-0.09
Mof_C 	C 	0.3829	0.7649	0.3829	-0.573
Mof_H 	H 	0.3905	0.7339	0.3905	0.201
Mof_C 	C 	0.3492	0.7726	0.3492	0.582
Mof_C 	C 	0.3401	0.8188	0.3401	-0.62
Mof_H 	H 	0.3175	0.8261	0.3175	0.2
Mof_C 	C 	0.3626	0.8555	0.3626	0.397
Mof_H 	H 	0.3544	0.8862	0.3544	-0.144
Mof_C 	C 	0.3266	0.7333	0.3266	-0.871
Mof_O 	O 	0.4371	0.04329	0.5	-1.37
Mof_O 	O 	0.5629	0.95671	0.5	-1.299
Mof_O 	O 	0.5629	0.04329	0.5	-1.368
Mof_O 	O 	0.4371	0.95671	0.5	-1.301
Mof_O 	O 	0.5	0.4371	0.04329	-1.37
Mof_O 	O 	0.5	0.5629	0.95671	-1.299
Mof_O 	O 	0.5	0.5629	0.04329	-1.368
Mof_O 	O 	0.5	0.4371	0.95671	-1.301
Mof_O 	O 	0.04329	0.5	0.4371	-1.37
Mof_O 	O 	0.95671	0.5	0.5629	-1.299
Mof_O 	O 	0.04329	0.5	0.5629	-1.368
Mof_O 	O 	0.95671	0.5	0.4371	-1.301
Mof_O 	O 	0.04329	0.4371	0.5	-1.37
Mof_O 	O 	0.95671	0.5629	0.5	-1.299
Mof_O 	O 	0.04329	0.5629	0.5	-1.368
Mof_O 	O 	0.95671	0.4371	0.5	-1.301
Mof_O 	O 	0.4371	0.5	0.95671	-1.301
Mof_O 	O 	0.5629	0.5	0.04329	-1.368
Mof_O 	O 	0.5629	0.5	0.95671	-1.299
Mof_O 	O 	0.4371	0.5	0.04329	-1.37
Mof_O 	O 	0.5	0.04329	0.5629	-1.368
Mof_O 	O 	0.5	0.95671	0.4371	-1.301
Mof_O 	O 	0.5	0.04329	0.4371	-1.37
Mof_O 	O 	0.5	0.95671	0.5629	-1.299
Mof_C 	C 	0.6534	0.286	0.714	0.958
Mof_C 	C 	0.6089	0.2634	0.7366	-2.067
Mof_C 	C 	0.3466	0.714	0.714	0.969
Mof_C 	C 	0.3911	0.7366	0.7366	-2.113
Mof_C 	C 	0.3466	0.286	0.286	0.876
Mof_C 	C 	0.3911	0.2634	0.2634	-1.903
Mof_C 	C 	0.6534	0.714	0.286	0.958
Mof_C 	C 	0.6089	0.7366	0.2634	-2.067
Mof_C 	C 	0.714	0.6534	0.286	0.958
Mof_C 	C 	0.7366	0.6089	0.2634	-2.067
Mof_C 	C 	0.714	0.3466	0.714	0.969
Mof_C 	C 	0.7366	0.3911	0.7366	-2.113
Mof_C 	C 	0.286	0.3466	0.286	0.876
Mof_C 	C 	0.2634	0.3911	0.2634	-1.903
Mof_C 	C 	0.286	0.6534	0.714	0.958
Mof_C 	C 	0.2634	0.6089	0.7366	-2.067
Mof_C 	C 	0.286	0.714	0.6534	0.958
Mof_C 	C 	0.2634	0.7366	0.6089	-2.067
Mof_C 	C 	0.714	0.714	0.3466	0.969
Mof_C 	C 	0.7366	0.7366	0.3911	-2.113
Mof_C 	C 	0.286	0.286	0.3466	0.876
Mof_C 	C 	0.2634	0.2634	0.3911	-1.903
Mof_C 	C 	0.714	0.286	0.6534	0.958
Mof_C 	C 	0.7366	0.2634	0.6089	-2.067
Mof_C 	C 	0.286	0.6534	0.286	0.911
Mof_C 	C 	0.2634	0.6089	0.2634	-1.962
Mof_C 	C 	0.714	0.3466	0.286	0.923
Mof_C 	C 	0.7366	0.3911	0.2634	-2.008
Mof_C 	C 	0.286	0.3466	0.714	0.923
Mof_C 	C 	0.2634	0.3911	0.7366	-2.008
Mof_C 	C 	0.714	0.6534	0.714	1.004
Mof_C 	C 	0.7366	0.6089	0.7366	-2.171
Mof_C 	C 	0.6534	0.714	0.714	1.004
Mof_C 	C 	0.6089	0.7366	0.7366	-2.171
Mof_C 	C 	0.3466	0.714	0.286	0.923
Mof_C 	C 	0.3911	0.7366	0.2634	-2.008
Mof_C 	C 	0.3466	0.286	0.714	0.923
Mof_C 	C 	0.3911	0.2634	0.7366	-2.008
Mof_C 	C 	0.6534	0.286	0.286	0.911
Mof_C 	C 	0.6089	0.2634	0.2634	-1.962
Mof_C 	C 	0.714	0.286	0.3466	0.923
Mof_C 	C 	0.7366	0.2634	0.3911	-2.008
Mof_C 	C 	0.714	0.714	0.6534	1.004
Mof_C 	C 	0.7366	0.7366	0.6089	-2.171
Mof_C 	C 	0.286	0.286	0.6534	0.911
Mof_C 	C 	0.2634	0.2634	0.6089	-1.962
Mof_C 	C 	0.286	0.714	0.3466	0.923
Mof_C 	C 	0.2634	0.7366	0.3911	-2.008
_end
