data_functionalizedCrystal
_audit_creation_method	'EQeq! by Chris Wilmer'
_symmetry_space_group_name_H-M	'P1'
_symmetry_Int_Tables_number	1
_symmetry_cell_setting	triclinic
loop_
_symmetry_equiv_pos_as_xyz
  x,y,z
_cell_length_a	13.908
_cell_length_b	8.409
_cell_length_c	13.042
_cell_angle_alpha	90
_cell_angle_beta	90
_cell_angle_gamma	90
loop_
_atom_site_label
_atom_site_type_symbol
_atom_site_fract_x
_atom_site_fract_y
_atom_site_fract_z
_atom_site_charge
Mof_C 	C 	0.1129	0.0315	0.0806	0.149
Mof_C 	C 	0.0391	0.0636	0.9962	0.033
Mof_H 	H 	0.0105	0.1688	0.0067	0.04
Mof_C 	C 	0.0885	0.0586	0.8913	-0.646
Mof_H 	H 	0.0401	0.0688	0.8382	0.189
Mof_H 	H 	0.1193	0.9559	0.8829	0.284
Mof_C 	C 	0.1629	0.1877	0.877	0.556
Mof_O 	O 	0.1242	0.1241	0.1526	-0.354
Mof_O 	O 	0.1619	0.9058	0.0773	-0.268
Mof_O 	O 	0.1632	0.3015	0.9367	-0.498
Mof_O 	O 	0.2204	0.1737	0.8032	-0.532
Mof_O 	O 	0.2121	0.4617	0.2824	-0.216
Mof_C 	C 	0.3871	0.9685	0.0806	0.446
Mof_C 	C 	0.4609	0.9364	0.9962	-0.076
Mof_H 	H 	0.4895	0.8312	0.0067	0.082
Mof_C 	C 	0.4115	0.9414	0.8913	-0.152
Mof_H 	H 	0.4599	0.9312	0.8382	0.109
Mof_H 	H 	0.3807	0.0441	0.8829	0.012
Mof_C 	C 	0.3371	0.8123	0.877	0.425
Mof_O 	O 	0.3758	0.8759	0.1526	-0.393
Mof_O 	O 	0.3381	0.0942	0.0773	-0.471
Mof_O 	O 	0.3368	0.6985	0.9367	-0.465
Mof_O 	O 	0.2796	0.8263	0.8032	-0.448
Mof_O 	O 	0.2879	0.5383	0.2824	-0.216
Mof_C 	C 	0.8871	0.0315	0.4194	0.146
Mof_C 	C 	0.9609	0.0636	0.5038	0.033
Mof_H 	H 	0.9895	0.1688	0.4933	0.04
Mof_C 	C 	0.9115	0.0586	0.6087	-0.648
Mof_H 	H 	0.9599	0.0688	0.6618	0.19
Mof_H 	H 	0.8807	0.9559	0.6171	0.285
Mof_C 	C 	0.8371	0.1877	0.623	0.557
Mof_O 	O 	0.8758	0.1241	0.3474	-0.354
Mof_O 	O 	0.8381	0.9058	0.4227	-0.267
Mof_O 	O 	0.8368	0.3015	0.5633	-0.498
Mof_O 	O 	0.7796	0.1737	0.6968	-0.533
Mof_O 	O 	0.7879	0.4617	0.2176	-0.216
Mof_C 	C 	0.6129	0.9685	0.4194	0.447
Mof_C 	C 	0.5391	0.9364	0.5038	-0.075
Mof_H 	H 	0.5105	0.8312	0.4933	0.082
Mof_C 	C 	0.5885	0.9414	0.6087	-0.15
Mof_H 	H 	0.5401	0.9312	0.6618	0.109
Mof_H 	H 	0.6193	0.0441	0.6171	0.011
Mof_C 	C 	0.6629	0.8123	0.623	0.424
Mof_O 	O 	0.6242	0.8759	0.3474	-0.393
Mof_O 	O 	0.6619	0.0942	0.4227	-0.472
Mof_O 	O 	0.6632	0.6985	0.5633	-0.464
Mof_O 	O 	0.7204	0.8263	0.6968	-0.447
Mof_O 	O 	0.7121	0.5383	0.2176	-0.216
Mof_C 	C 	0.8871	0.9685	0.9194	0.446
Mof_C 	C 	0.9609	0.9364	0.0038	-0.079
Mof_H 	H 	0.9895	0.8312	0.9933	0.083
Mof_C 	C 	0.9115	0.9414	0.1087	-0.152
Mof_H 	H 	0.9599	0.9312	0.1618	0.109
Mof_H 	H 	0.8807	0.0441	0.1171	0.012
Mof_C 	C 	0.8371	0.8123	0.123	0.425
Mof_O 	O 	0.8758	0.8759	0.8474	-0.394
Mof_O 	O 	0.8381	0.0942	0.9227	-0.471
Mof_O 	O 	0.8368	0.6985	0.0633	-0.465
Mof_O 	O 	0.7796	0.8263	0.1968	-0.448
Mof_O 	O 	0.7879	0.5383	0.7176	-0.216
Mof_C 	C 	0.6129	0.0315	0.9194	0.146
Mof_C 	C 	0.5391	0.0636	0.0038	0.033
Mof_H 	H 	0.5105	0.1688	0.9933	0.04
Mof_C 	C 	0.5885	0.0586	0.1087	-0.648
Mof_H 	H 	0.5401	0.0688	0.1618	0.19
Mof_H 	H 	0.6193	0.9559	0.1171	0.285
Mof_C 	C 	0.6629	0.1877	0.123	0.557
Mof_O 	O 	0.6242	0.1241	0.8474	-0.354
Mof_O 	O 	0.6619	0.9058	0.9227	-0.267
Mof_O 	O 	0.6632	0.3015	0.0633	-0.498
Mof_O 	O 	0.7204	0.1737	0.1968	-0.533
Mof_O 	O 	0.7121	0.4617	0.7176	-0.216
Mof_C 	C 	0.1129	0.9685	0.5806	0.446
Mof_C 	C 	0.0391	0.9364	0.4962	-0.076
Mof_H 	H 	0.0105	0.8312	0.5067	0.082
Mof_C 	C 	0.0885	0.9414	0.3913	-0.151
Mof_H 	H 	0.0401	0.9312	0.3382	0.109
Mof_H 	H 	0.1193	0.0441	0.3829	0.012
Mof_C 	C 	0.1629	0.8123	0.377	0.425
Mof_O 	O 	0.1242	0.8759	0.6526	-0.394
Mof_O 	O 	0.1619	0.0942	0.5773	-0.472
Mof_O 	O 	0.1632	0.6985	0.4367	-0.465
Mof_O 	O 	0.2204	0.8263	0.3032	-0.447
Mof_O 	O 	0.2121	0.5383	0.7824	-0.216
Mof_C 	C 	0.3871	0.0315	0.5806	0.145
Mof_C 	C 	0.4609	0.0636	0.4962	0.032
Mof_H 	H 	0.4895	0.1688	0.5067	0.04
Mof_C 	C 	0.4115	0.0586	0.3913	-0.65
Mof_H 	H 	0.4599	0.0688	0.3382	0.19
Mof_H 	H 	0.3807	0.9559	0.3829	0.286
Mof_C 	C 	0.3371	0.1877	0.377	0.557
Mof_O 	O 	0.3758	0.1241	0.6526	-0.354
Mof_O 	O 	0.3381	0.9058	0.5773	-0.266
Mof_O 	O 	0.3368	0.3015	0.4367	-0.498
Mof_O 	O 	0.2796	0.1737	0.3032	-0.533
Mof_O 	O 	0.2879	0.4617	0.7824	-0.216
Mof_Zn	Zn	0.25	0	0.20578	1.209
Mof_Zn	Zn	0.75	4.13749e-33	0.29422	1.209
Mof_Zn	Zn	0.75	0	0.79422	1.209
Mof_Zn	Zn	0.25	0	0.70578	1.209
Mof_Zn	Zn	0.25	0.5	0.93079	1.203
Mof_Zn	Zn	0.75	0.5	0.56921	1.203
Mof_Zn	Zn	0.75	0.5	0.06921	1.203
Mof_Zn	Zn	0.25	0.5	0.43079	1.203
_end
