data_functionalizedCrystal
_audit_creation_method	'EQeq! by Chris Wilmer'
_symmetry_space_group_name_H-M	'P1'
_symmetry_Int_Tables_number	1
_symmetry_cell_setting	triclinic
loop_
_symmetry_equiv_pos_as_xyz
  x,y,z
_cell_length_a	27.745
_cell_length_b	16.1583
_cell_length_c	22.8192
_cell_angle_alpha	90
_cell_angle_beta	90
_cell_angle_gamma	90
loop_
_atom_site_label
_atom_site_type_symbol
_atom_site_fract_x
_atom_site_fract_y
_atom_site_fract_z
_atom_site_charge
Mof_Mo	Mo	0.04952	0.79899	0.4392	1.134
Mof_Mo	Mo	0.93319	0.10353	0.37375	1.138
Mof_Mo	Mo	0.06018	0.11225	0.36951	1.094
Mof_Mo	Mo	0.88931	0.96777	0.40365	1.178
Mof_Mo	Mo	0.10993	0.98124	0.39677	1.19
Mof_Mo	Mo	0.95576	0.7925	0.44344	1.183
Mof_P 	P 	0.86866	0.78076	0.34321	0.556
Mof_P 	P 	0.13351	0.79653	0.33514	0.562
Mof_P 	P 	0.99145	0.18598	0.26103	0.552
Mof_P 	P 	0.998	0.9328	0.33956	0.602
Mof_O 	O 	0.82337	0.7299	0.34061	-0.418
Mof_O 	O 	0.90436	0.7451	0.38777	-0.39
Mof_O 	O 	0.85739	0.8728	0.35515	-0.409
Mof_O 	O 	0.89435	0.7816	0.281	-0.19
Mof_O 	O 	0.17809	0.7443	0.33203	-0.431
Mof_O 	O 	0.09782	0.7581	0.3785	-0.39
Mof_O 	O 	0.14546	0.8876	0.35083	-0.412
Mof_O 	O 	0.10968	0.7978	0.2721	-0.194
Mof_O 	O 	0.98172	0.2776	0.255	-0.179
Mof_O 	O 	0.03997	0.1667	0.29031	-0.377
Mof_O 	O 	0.94793	0.1471	0.29228	-0.374
Mof_O 	O 	0.99319	0.1451	0.1982	-0.166
Mof_O 	O 	0.99728	0.0271	0.34587	-0.434
Mof_O 	O 	0.04487	0.8981	0.36576	-0.408
Mof_O 	O 	0.95455	0.8941	0.37189	-0.412
Mof_O 	O 	0.99401	0.9161	0.27288	-0.165
Mof_O 	O 	0.10162	0.8878	0.45955	-0.484
Mof_O 	O 	0.00175	0.8742	0.47645	-0.638
Mof_O 	O 	0.00238	0.7396	0.39201	-0.496
Mof_O 	O 	0.94109	0.0311	0.44399	-0.631
Mof_O 	O 	0.99584	0.1668	0.40041	-0.458
Mof_O 	O 	0.89631	0.023	0.32862	-0.516
Mof_O 	O 	0.05746	0.0388	0.43956	-0.634
Mof_O 	O 	0.09753	0.0353	0.32231	-0.523
Mof_O 	O 	0.9015	0.8757	0.46659	-0.486
Mof_C 	C 	0.7774	0.6988	0.2185	0.051
Mof_H 	H 	0.7969	0.662	0.2388	0.003
Mof_C 	C 	0.7786	0.6969	0.1579	-0.093
Mof_H 	H 	0.7987	0.6597	0.1387	0.024
Mof_C 	C 	0.7847	0.7119	0.9672	0.113
Mof_H 	H 	0.8092	0.6852	0.9468	-0.036
Mof_C 	C 	0.786	0.7104	0.028	-0.193
Mof_H 	H 	0.8108	0.683	0.0474	0.05
Mof_C 	C 	0.2164	0.7107	0.2102	0.036
Mof_H 	H 	0.1923	0.683	0.2305	0.014
Mof_C 	C 	0.2155	0.7086	0.1494	-0.076
Mof_H 	H 	0.1914	0.6791	0.1302	0.014
Mof_C 	C 	0.2129	0.7207	0.9589	0.121
Mof_H 	H 	0.1865	0.7	0.9385	-0.029
Mof_C 	C 	0.2117	0.7193	0.0199	-0.211
Mof_H 	H 	0.1851	0.6978	0.0393	0.058
Mof_Mo	Mo	0.45048	0.70101	0.4392	1.149
Mof_Mo	Mo	0.56681	0.39647	0.37375	1.147
Mof_Mo	Mo	0.43982	0.38775	0.36951	1.134
Mof_Mo	Mo	0.61069	0.53223	0.40365	1.119
Mof_Mo	Mo	0.39007	0.51876	0.39677	1.115
Mof_Mo	Mo	0.54424	0.7075	0.44344	1.147
Mof_P 	P 	0.63134	0.71924	0.34321	0.555
Mof_P 	P 	0.36649	0.70347	0.33514	0.562
Mof_P 	P 	0.50855	0.31402	0.26103	0.539
Mof_P 	P 	0.502	0.5672	0.33956	0.568
Mof_O 	O 	0.67663	0.7701	0.34061	-0.416
Mof_O 	O 	0.59564	0.7549	0.38777	-0.386
Mof_O 	O 	0.64261	0.6272	0.35515	-0.407
Mof_O 	O 	0.60565	0.7184	0.281	-0.195
Mof_O 	O 	0.32191	0.7557	0.33203	-0.429
Mof_O 	O 	0.40218	0.7419	0.3785	-0.388
Mof_O 	O 	0.35454	0.6124	0.35083	-0.409
Mof_O 	O 	0.39032	0.7022	0.2721	-0.196
Mof_O 	O 	0.51828	0.2224	0.255	-0.188
Mof_O 	O 	0.46003	0.3333	0.29031	-0.362
Mof_O 	O 	0.55207	0.3529	0.29228	-0.373
Mof_O 	O 	0.50681	0.3549	0.1982	-0.167
Mof_O 	O 	0.50272	0.4729	0.34587	-0.428
Mof_O 	O 	0.45513	0.6019	0.36576	-0.397
Mof_O 	O 	0.54545	0.6059	0.37189	-0.411
Mof_O 	O 	0.50599	0.5839	0.27288	-0.18
Mof_O 	O 	0.39838	0.6122	0.45955	-0.483
Mof_O 	O 	0.49825	0.6258	0.47645	-0.63
Mof_O 	O 	0.49762	0.7604	0.39201	-0.479
Mof_O 	O 	0.55891	0.4689	0.44399	-0.617
Mof_O 	O 	0.50416	0.3332	0.40041	-0.478
Mof_O 	O 	0.60369	0.477	0.32862	-0.493
Mof_O 	O 	0.44254	0.4612	0.43956	-0.608
Mof_O 	O 	0.40247	0.4647	0.32231	-0.496
Mof_O 	O 	0.5985	0.6243	0.46659	-0.481
Mof_C 	C 	0.7226	0.8012	0.2185	0.052
Mof_H 	H 	0.7031	0.838	0.2388	0.005
Mof_C 	C 	0.7214	0.8031	0.1579	-0.093
Mof_H 	H 	0.7013	0.8403	0.1387	0.028
Mof_C 	C 	0.7153	0.7881	0.9672	0.114
Mof_H 	H 	0.6908	0.8148	0.9468	-0.035
Mof_C 	C 	0.714	0.7896	0.028	-0.193
Mof_H 	H 	0.6892	0.817	0.0474	0.053
Mof_C 	C 	0.2836	0.7893	0.2102	0.037
Mof_H 	H 	0.3077	0.817	0.2305	0.016
Mof_C 	C 	0.2845	0.7914	0.1494	-0.075
Mof_H 	H 	0.3086	0.8209	0.1302	0.017
Mof_C 	C 	0.2871	0.7793	0.9589	0.121
Mof_H 	H 	0.3135	0.8	0.9385	-0.029
Mof_C 	C 	0.2883	0.7807	0.0199	-0.21
Mof_H 	H 	0.3149	0.8022	0.0393	0.059
Mof_Mo	Mo	0.95048	0.29899	0.0608	1.142
Mof_Mo	Mo	0.06681	0.60353	0.12625	1.142
Mof_Mo	Mo	0.93982	0.61225	0.13049	1.157
Mof_Mo	Mo	0.11069	0.46777	0.09635	1.109
Mof_Mo	Mo	0.89007	0.48124	0.10323	1.105
Mof_Mo	Mo	0.04424	0.2925	0.05656	1.077
Mof_P 	P 	0.13134	0.28076	0.15679	0.553
Mof_P 	P 	0.86649	0.29653	0.16486	0.561
Mof_P 	P 	0.00855	0.68598	0.23897	0.525
Mof_P 	P 	0.002	0.4328	0.16044	0.55
Mof_O 	O 	0.17663	0.2299	0.15939	-0.424
Mof_O 	O 	0.09564	0.2451	0.11223	-0.391
Mof_O 	O 	0.14261	0.3728	0.14485	-0.407
Mof_O 	O 	0.10565	0.2816	0.219	-0.199
Mof_O 	O 	0.82191	0.2443	0.16797	-0.435
Mof_O 	O 	0.90218	0.2581	0.1215	-0.393
Mof_O 	O 	0.85454	0.3876	0.14917	-0.409
Mof_O 	O 	0.89032	0.2978	0.2279	-0.194
Mof_O 	O 	0.01828	0.7776	0.245	-0.192
Mof_O 	O 	0.96003	0.6667	0.20969	-0.347
Mof_O 	O 	0.05207	0.6471	0.20772	-0.372
Mof_O 	O 	0.00681	0.6451	0.3018	-0.171
Mof_O 	O 	0.00272	0.5271	0.15413	-0.435
Mof_O 	O 	0.95513	0.3981	0.13424	-0.382
Mof_O 	O 	0.04545	0.3941	0.12811	-0.408
Mof_O 	O 	0.00599	0.4161	0.22712	-0.187
Mof_O 	O 	0.89838	0.3878	0.04045	-0.491
Mof_O 	O 	0.99825	0.3742	0.02355	-0.614
Mof_O 	O 	0.99762	0.2396	0.10799	-0.463
Mof_O 	O 	0.05891	0.5311	0.05601	-0.625
Mof_O 	O 	0.00416	0.6668	0.09959	-0.495
Mof_O 	O 	0.10369	0.523	0.17138	-0.492
Mof_O 	O 	0.94254	0.5388	0.06044	-0.608
Mof_O 	O 	0.90247	0.5353	0.17769	-0.494
Mof_O 	O 	0.0985	0.3757	0.03341	-0.485
Mof_C 	C 	0.2226	0.1988	0.2815	0.058
Mof_H 	H 	0.2031	0.162	0.2612	-0.005
Mof_C 	C 	0.2214	0.1969	0.3421	-0.111
Mof_H 	H 	0.2013	0.1597	0.3613	0.027
Mof_C 	C 	0.2153	0.2119	0.5328	0.046
Mof_H 	H 	0.1908	0.1852	0.5532	-0.018
Mof_C 	C 	0.214	0.2104	0.472	-0.119
Mof_H 	H 	0.1892	0.183	0.4526	0.027
Mof_C 	C 	0.7836	0.2107	0.2898	0.044
Mof_H 	H 	0.8077	0.183	0.2695	0.008
Mof_C 	C 	0.7845	0.2086	0.3506	-0.095
Mof_H 	H 	0.8086	0.1791	0.3698	0.02
Mof_C 	C 	0.7871	0.2207	0.5411	0.049
Mof_H 	H 	0.8135	0.2	0.5615	-0.01
Mof_C 	C 	0.7883	0.2193	0.4801	-0.128
Mof_H 	H 	0.8149	0.1978	0.4607	0.033
Mof_Mo	Mo	0.54952	0.20101	0.0608	1.131
Mof_Mo	Mo	0.43319	0.89647	0.12625	1.156
Mof_Mo	Mo	0.56018	0.88775	0.13049	1.143
Mof_Mo	Mo	0.38931	0.03223	0.09635	1.039
Mof_Mo	Mo	0.60993	0.01876	0.10323	1.038
Mof_Mo	Mo	0.45576	0.2075	0.05656	1.129
Mof_P 	P 	0.36866	0.21924	0.15679	0.553
Mof_P 	P 	0.63351	0.20347	0.16486	0.559
Mof_P 	P 	0.49145	0.81402	0.23897	0.539
Mof_P 	P 	0.498	0.0672	0.16044	0.544
Mof_O 	O 	0.32337	0.2701	0.15939	-0.421
Mof_O 	O 	0.40436	0.2549	0.11223	-0.389
Mof_O 	O 	0.35739	0.1272	0.14485	-0.406
Mof_O 	O 	0.39435	0.2184	0.219	-0.197
Mof_O 	O 	0.67809	0.2557	0.16797	-0.434
Mof_O 	O 	0.59782	0.2419	0.1215	-0.39
Mof_O 	O 	0.64546	0.1124	0.14917	-0.408
Mof_O 	O 	0.60968	0.2022	0.2279	-0.198
Mof_O 	O 	0.48172	0.7224	0.245	-0.188
Mof_O 	O 	0.53997	0.8333	0.20969	-0.362
Mof_O 	O 	0.44793	0.8529	0.20772	-0.372
Mof_O 	O 	0.49319	0.8549	0.3018	-0.159
Mof_O 	O 	0.49728	0.9729	0.15413	-0.408
Mof_O 	O 	0.54487	0.1019	0.13424	-0.393
Mof_O 	O 	0.45455	0.1059	0.12811	-0.406
Mof_O 	O 	0.49401	0.0839	0.22712	-0.186
Mof_O 	O 	0.60162	0.1122	0.04045	-0.488
Mof_O 	O 	0.50175	0.1258	0.02355	-0.637
Mof_O 	O 	0.50238	0.2604	0.10799	-0.479
Mof_O 	O 	0.44109	0.9689	0.05601	-0.596
Mof_O 	O 	0.49584	0.8332	0.09959	-0.485
Mof_O 	O 	0.39631	0.977	0.17138	-0.465
Mof_O 	O 	0.55746	0.9612	0.06044	-0.588
Mof_O 	O 	0.59753	0.9647	0.17769	-0.469
Mof_O 	O 	0.4015	0.1243	0.03341	-0.486
Mof_C 	C 	0.2774	0.3012	0.2815	0.059
Mof_H 	H 	0.2969	0.338	0.2612	-0.001
Mof_C 	C 	0.2786	0.3031	0.3421	-0.11
Mof_H 	H 	0.2987	0.3403	0.3613	0.031
Mof_C 	C 	0.2847	0.2881	0.5328	0.048
Mof_H 	H 	0.3092	0.3148	0.5532	-0.018
Mof_C 	C 	0.286	0.2896	0.472	-0.119
Mof_H 	H 	0.3108	0.317	0.4526	0.029
Mof_C 	C 	0.7164	0.2893	0.2898	0.044
Mof_H 	H 	0.6923	0.317	0.2695	0.01
Mof_C 	C 	0.7155	0.2914	0.3506	-0.094
Mof_H 	H 	0.6914	0.3209	0.3698	0.022
Mof_C 	C 	0.7129	0.2793	0.5411	0.05
Mof_H 	H 	0.6865	0.3	0.5615	-0.01
Mof_C 	C 	0.7117	0.2807	0.4801	-0.129
Mof_H 	H 	0.6851	0.3022	0.4607	0.034
Mof_Mo	Mo	0.95048	0.20101	0.5608	1.156
Mof_Mo	Mo	0.06681	0.89647	0.62625	1.16
Mof_Mo	Mo	0.93982	0.88775	0.63049	1.168
Mof_Mo	Mo	0.11069	0.03223	0.59635	1.051
Mof_Mo	Mo	0.89007	0.01876	0.60323	1.054
Mof_Mo	Mo	0.04424	0.2075	0.55656	1.094
Mof_P 	P 	0.13134	0.21924	0.65679	0.552
Mof_P 	P 	0.86649	0.20347	0.66486	0.561
Mof_P 	P 	0.00855	0.81402	0.73897	0.527
Mof_P 	P 	0.002	0.0672	0.66044	0.528
Mof_O 	O 	0.17663	0.2701	0.65939	-0.419
Mof_O 	O 	0.09564	0.2549	0.61223	-0.386
Mof_O 	O 	0.14261	0.1272	0.64485	-0.404
Mof_O 	O 	0.10565	0.2184	0.719	-0.199
Mof_O 	O 	0.82191	0.2557	0.66797	-0.432
Mof_O 	O 	0.90218	0.2419	0.6215	-0.39
Mof_O 	O 	0.85454	0.1124	0.64917	-0.407
Mof_O 	O 	0.89032	0.2022	0.7279	-0.195
Mof_O 	O 	0.01828	0.7224	0.745	-0.194
Mof_O 	O 	0.96003	0.8333	0.70969	-0.349
Mof_O 	O 	0.05207	0.8529	0.70772	-0.372
Mof_O 	O 	0.00681	0.8549	0.8018	-0.163
Mof_O 	O 	0.00272	0.9729	0.65413	-0.417
Mof_O 	O 	0.95513	0.1019	0.63424	-0.381
Mof_O 	O 	0.04545	0.1059	0.62811	-0.408
Mof_O 	O 	0.00599	0.0839	0.72712	-0.193
Mof_O 	O 	0.89838	0.1122	0.54045	-0.482
Mof_O 	O 	0.99825	0.1258	0.52355	-0.61
Mof_O 	O 	0.99762	0.2604	0.60799	-0.463
Mof_O 	O 	0.05891	0.9689	0.55601	-0.593
Mof_O 	O 	0.00416	0.8332	0.59959	-0.492
Mof_O 	O 	0.10369	0.977	0.67138	-0.467
Mof_O 	O 	0.94254	0.9612	0.56044	-0.582
Mof_O 	O 	0.90247	0.9647	0.67769	-0.474
Mof_O 	O 	0.0985	0.1243	0.53341	-0.475
Mof_C 	C 	0.2226	0.3012	0.7815	0.07
Mof_H 	H 	0.2031	0.338	0.7612	-0.004
Mof_C 	C 	0.2214	0.3031	0.8421	-0.129
Mof_H 	H 	0.2013	0.3403	0.8613	0.041
Mof_C 	C 	0.2153	0.2881	0.0328	-0.026
Mof_H 	H 	0.1908	0.3148	0.0532	0.003
Mof_C 	C 	0.214	0.2896	0.972	-0.03
Mof_H 	H 	0.1892	0.317	0.9526	0.005
Mof_C 	C 	0.7836	0.2893	0.7898	0.056
Mof_H 	H 	0.8077	0.317	0.7695	0.007
Mof_C 	C 	0.7845	0.2914	0.8506	-0.114
Mof_H 	H 	0.8086	0.3209	0.8698	0.032
Mof_C 	C 	0.7871	0.2793	0.0411	-0.024
Mof_H 	H 	0.8135	0.3	0.0615	0.011
Mof_C 	C 	0.7883	0.2807	0.9801	-0.038
Mof_H 	H 	0.8149	0.3022	0.9607	0.01
Mof_Mo	Mo	0.54952	0.29899	0.5608	1.141
Mof_Mo	Mo	0.43319	0.60353	0.62625	1.151
Mof_Mo	Mo	0.56018	0.61225	0.63049	1.138
Mof_Mo	Mo	0.38931	0.46777	0.59635	1.118
Mof_Mo	Mo	0.60993	0.48124	0.60323	1.115
Mof_Mo	Mo	0.45576	0.2925	0.55656	1.138
Mof_P 	P 	0.36866	0.28076	0.65679	0.554
Mof_P 	P 	0.63351	0.29653	0.66486	0.562
Mof_P 	P 	0.49145	0.68598	0.73897	0.539
Mof_P 	P 	0.498	0.4328	0.66044	0.568
Mof_O 	O 	0.32337	0.2299	0.65939	-0.421
Mof_O 	O 	0.40436	0.2451	0.61223	-0.39
Mof_O 	O 	0.35739	0.3728	0.64485	-0.407
Mof_O 	O 	0.39435	0.2816	0.719	-0.195
Mof_O 	O 	0.67809	0.2443	0.66797	-0.433
Mof_O 	O 	0.59782	0.2581	0.6215	-0.391
Mof_O 	O 	0.64546	0.3876	0.64917	-0.409
Mof_O 	O 	0.60968	0.2978	0.7279	-0.195
Mof_O 	O 	0.48172	0.7776	0.745	-0.184
Mof_O 	O 	0.53997	0.6667	0.70969	-0.361
Mof_O 	O 	0.44793	0.6471	0.70772	-0.372
Mof_O 	O 	0.49319	0.6451	0.8018	-0.163
Mof_O 	O 	0.49728	0.5271	0.65413	-0.428
Mof_O 	O 	0.54487	0.3981	0.63424	-0.396
Mof_O 	O 	0.45455	0.3941	0.62811	-0.41
Mof_O 	O 	0.49401	0.4161	0.72712	-0.177
Mof_O 	O 	0.60162	0.3878	0.54045	-0.483
Mof_O 	O 	0.50175	0.3742	0.52355	-0.628
Mof_O 	O 	0.50238	0.2396	0.60799	-0.482
Mof_O 	O 	0.44109	0.5311	0.55601	-0.617
Mof_O 	O 	0.49584	0.6668	0.59959	-0.475
Mof_O 	O 	0.39631	0.523	0.67138	-0.493
Mof_O 	O 	0.55746	0.5388	0.56044	-0.608
Mof_O 	O 	0.59753	0.5353	0.67769	-0.495
Mof_O 	O 	0.4015	0.3757	0.53341	-0.481
Mof_C 	C 	0.2774	0.1988	0.7815	0.069
Mof_H 	H 	0.2969	0.162	0.7612	-0.007
Mof_C 	C 	0.2786	0.1969	0.8421	-0.129
Mof_H 	H 	0.2987	0.1597	0.8613	0.037
Mof_C 	C 	0.2847	0.2119	0.0328	-0.028
Mof_H 	H 	0.3092	0.1852	0.0532	0.003
Mof_C 	C 	0.286	0.2104	0.972	-0.029
Mof_H 	H 	0.3108	0.183	0.9526	0.003
Mof_C 	C 	0.7164	0.2107	0.7898	0.055
Mof_H 	H 	0.6923	0.183	0.7695	0.005
Mof_C 	C 	0.7155	0.2086	0.8506	-0.114
Mof_H 	H 	0.6914	0.1791	0.8698	0.03
Mof_C 	C 	0.7129	0.2207	0.0411	-0.025
Mof_H 	H 	0.6865	0.2	0.0615	0.012
Mof_C 	C 	0.7117	0.2193	0.9801	-0.037
Mof_H 	H 	0.6851	0.1978	0.9607	0.009
Mof_Mo	Mo	0.04952	0.70101	0.9392	1.15
Mof_Mo	Mo	0.93319	0.39647	0.87375	1.156
Mof_Mo	Mo	0.06018	0.38775	0.86951	1.117
Mof_Mo	Mo	0.88931	0.53223	0.90365	1.127
Mof_Mo	Mo	0.10993	0.51876	0.89677	1.126
Mof_Mo	Mo	0.95576	0.7075	0.94344	1.196
Mof_P 	P 	0.86866	0.71924	0.84321	0.556
Mof_P 	P 	0.13351	0.70347	0.83514	0.562
Mof_P 	P 	0.99145	0.31402	0.76103	0.553
Mof_P 	P 	0.998	0.5672	0.83956	0.584
Mof_O 	O 	0.82337	0.7701	0.84061	-0.415
Mof_O 	O 	0.90436	0.7549	0.88777	-0.387
Mof_O 	O 	0.85739	0.6272	0.85515	-0.407
Mof_O 	O 	0.89435	0.7184	0.781	-0.192
Mof_O 	O 	0.17809	0.7557	0.83203	-0.428
Mof_O 	O 	0.09782	0.7419	0.8785	-0.386
Mof_O 	O 	0.14546	0.6124	0.85083	-0.409
Mof_O 	O 	0.10968	0.7022	0.7721	-0.196
Mof_O 	O 	0.98172	0.2224	0.755	-0.179
Mof_O 	O 	0.03997	0.3333	0.79031	-0.376
Mof_O 	O 	0.94793	0.3529	0.79228	-0.374
Mof_O 	O 	0.99319	0.3549	0.6982	-0.159
Mof_O 	O 	0.99728	0.4729	0.84587	-0.421
Mof_O 	O 	0.04487	0.6019	0.86576	-0.41
Mof_O 	O 	0.95455	0.6059	0.87189	-0.413
Mof_O 	O 	0.99401	0.5839	0.77288	-0.172
Mof_O 	O 	0.10162	0.6122	0.95955	-0.474
Mof_O 	O 	0.00175	0.6258	0.97645	-0.635
Mof_O 	O 	0.00238	0.7604	0.89201	-0.495
Mof_O 	O 	0.94109	0.4689	0.94399	-0.603
Mof_O 	O 	0.99584	0.3332	0.90041	-0.457
Mof_O 	O 	0.89631	0.477	0.82862	-0.495
Mof_O 	O 	0.05746	0.4612	0.93956	-0.601
Mof_O 	O 	0.09753	0.4647	0.82231	-0.498
Mof_O 	O 	0.9015	0.6243	0.96659	-0.477
Mof_C 	C 	0.7774	0.8012	0.7185	0.061
Mof_H 	H 	0.7969	0.838	0.7388	0.003
Mof_C 	C 	0.7786	0.8031	0.6579	-0.109
Mof_H 	H 	0.7987	0.8403	0.6387	0.035
Mof_C 	C 	0.7847	0.7881	0.4672	0.053
Mof_H 	H 	0.8092	0.8148	0.4468	-0.018
Mof_C 	C 	0.786	0.7896	0.528	-0.119
Mof_H 	H 	0.8108	0.817	0.5474	0.033
Mof_C 	C 	0.2164	0.7893	0.7102	0.047
Mof_H 	H 	0.1923	0.817	0.7305	0.013
Mof_C 	C 	0.2155	0.7914	0.6494	-0.093
Mof_H 	H 	0.1914	0.8209	0.6302	0.025
Mof_C 	C 	0.2129	0.7793	0.4589	0.054
Mof_H 	H 	0.1865	0.8	0.4385	-0.01
Mof_C 	C 	0.2117	0.7807	0.5199	-0.128
Mof_H 	H 	0.1851	0.8022	0.5393	0.037
Mof_Mo	Mo	0.45048	0.79899	0.9392	1.157
Mof_Mo	Mo	0.56681	0.10353	0.87375	1.145
Mof_Mo	Mo	0.43982	0.11225	0.86951	1.133
Mof_Mo	Mo	0.61069	0.96777	0.90365	1.183
Mof_Mo	Mo	0.39007	0.98124	0.89677	1.183
Mof_Mo	Mo	0.54424	0.7925	0.94344	1.155
Mof_P 	P 	0.63134	0.78076	0.84321	0.556
Mof_P 	P 	0.36649	0.79653	0.83514	0.564
Mof_P 	P 	0.50855	0.18598	0.76103	0.538
Mof_P 	P 	0.502	0.9328	0.83956	0.589
Mof_O 	O 	0.67663	0.7299	0.84061	-0.417
Mof_O 	O 	0.59564	0.7451	0.88777	-0.388
Mof_O 	O 	0.64261	0.8728	0.85515	-0.408
Mof_O 	O 	0.60565	0.7816	0.781	-0.193
Mof_O 	O 	0.32191	0.7443	0.83203	-0.43
Mof_O 	O 	0.40218	0.7581	0.8785	-0.389
Mof_O 	O 	0.35454	0.8876	0.85083	-0.41
Mof_O 	O 	0.39032	0.7978	0.7721	-0.192
Mof_O 	O 	0.51828	0.2776	0.755	-0.185
Mof_O 	O 	0.46003	0.1667	0.79031	-0.361
Mof_O 	O 	0.55207	0.1471	0.79228	-0.373
Mof_O 	O 	0.50681	0.1451	0.6982	-0.17
Mof_O 	O 	0.50272	0.0271	0.84587	-0.445
Mof_O 	O 	0.45513	0.8981	0.86576	-0.4
Mof_O 	O 	0.54545	0.8941	0.87189	-0.414
Mof_O 	O 	0.50599	0.9161	0.77288	-0.172
Mof_O 	O 	0.39838	0.8878	0.95955	-0.477
Mof_O 	O 	0.49825	0.8742	0.97645	-0.616
Mof_O 	O 	0.49762	0.7396	0.89201	-0.482
Mof_O 	O 	0.55891	0.0311	0.94399	-0.624
Mof_O 	O 	0.50416	0.1668	0.90041	-0.466
Mof_O 	O 	0.60369	0.023	0.82862	-0.516
Mof_O 	O 	0.44254	0.0388	0.93956	-0.616
Mof_O 	O 	0.40247	0.0353	0.82231	-0.519
Mof_O 	O 	0.5985	0.8757	0.96659	-0.476
Mof_C 	C 	0.7226	0.6988	0.7185	0.06
Mof_H 	H 	0.7031	0.662	0.7388	-0
Mof_C 	C 	0.7214	0.6969	0.6579	-0.109
Mof_H 	H 	0.7013	0.6597	0.6387	0.032
Mof_C 	C 	0.7153	0.7119	0.4672	0.051
Mof_H 	H 	0.6908	0.6852	0.4468	-0.018
Mof_C 	C 	0.714	0.7104	0.528	-0.119
Mof_H 	H 	0.6892	0.683	0.5474	0.031
Mof_C 	C 	0.2836	0.7107	0.7102	0.046
Mof_H 	H 	0.3077	0.683	0.7305	0.011
Mof_C 	C 	0.2845	0.7086	0.6494	-0.093
Mof_H 	H 	0.3086	0.6791	0.6302	0.023
Mof_C 	C 	0.2871	0.7207	0.4589	0.053
Mof_H 	H 	0.3135	0.7	0.4385	-0.009
Mof_C 	C 	0.2883	0.7193	0.5199	-0.128
Mof_H 	H 	0.3149	0.6978	0.5393	0.036
Mof_Ni	Ni	1.54187e-33	0	0.5	1.11
Mof_Ni	Ni	0.5	0.5	0.5	1.133
Mof_Ni	Ni	-0	0.5	-0	1.112
Mof_Ni	Ni	0.5	0	-0	1.108
Mof_Ni	Ni	0.75	0.75	0.34202	1.05
Mof_N 	N 	0.75	0.75	0.2492	-0.23
Mof_N 	N 	0.75	0.75	0.9363	-0.254
Mof_C 	C 	0.75	0.75	0.1256	0.006
Mof_C 	C 	0.75	0.75	0.06	0.078
Mof_Ni	Ni	0.25	0.25	0.15798	1.047
Mof_N 	N 	0.25	0.25	0.2508	-0.234
Mof_N 	N 	0.25	0.25	0.5637	-0.237
Mof_C 	C 	0.25	0.25	0.3744	0.029
Mof_C 	C 	0.25	0.25	0.44	0.027
Mof_Ni	Ni	0.25	0.25	0.65798	1.048
Mof_N 	N 	0.25	0.25	0.7508	-0.238
Mof_N 	N 	0.25	0.25	0.0637	-0.215
Mof_C 	C 	0.25	0.25	0.8744	0.06
Mof_C 	C 	0.25	0.25	0.94	-0.027
Mof_Ni	Ni	0.75	0.75	0.84202	1.051
Mof_N 	N 	0.75	0.75	0.7492	-0.233
Mof_N 	N 	0.75	0.75	0.4363	-0.236
Mof_C 	C 	0.75	0.75	0.6256	0.031
Mof_C 	C 	0.75	0.75	0.56	0.032
Mof_Ni	Ni	0.25	0.75	0.33384	1.058
Mof_N 	N 	0.25	0.75	0.2409	-0.222
Mof_N 	N 	0.25	0.75	0.9284	-0.256
Mof_C 	C 	0.25	0.75	0.1173	-0.012
Mof_C 	C 	0.25	0.75	0.0511	0.097
Mof_Ni	Ni	0.75	0.25	0.16616	1.055
Mof_N 	N 	0.75	0.25	0.2591	-0.227
Mof_N 	N 	0.75	0.25	0.5716	-0.236
Mof_C 	C 	0.75	0.25	0.3827	0.015
Mof_C 	C 	0.75	0.25	0.4489	0.04
Mof_Ni	Ni	0.75	0.25	0.66616	1.056
Mof_N 	N 	0.75	0.25	0.7591	-0.23
Mof_N 	N 	0.75	0.25	0.0716	-0.213
Mof_C 	C 	0.75	0.25	0.8827	0.048
Mof_C 	C 	0.75	0.25	0.9489	-0.018
Mof_Ni	Ni	0.25	0.75	0.83384	1.059
Mof_N 	N 	0.25	0.75	0.7409	-0.225
Mof_N 	N 	0.25	0.75	0.4284	-0.235
Mof_C 	C 	0.25	0.75	0.6173	0.017
Mof_C 	C 	0.25	0.75	0.5511	0.044
_end
