data_functionalizedCrystal
_audit_creation_method	'EQeq! by Chris Wilmer'
_symmetry_space_group_name_H-M	'P1'
_symmetry_Int_Tables_number	1
_symmetry_cell_setting	triclinic
loop_
_symmetry_equiv_pos_as_xyz
  x,y,z
_cell_length_a	7.419
_cell_length_b	9.969
_cell_length_c	11.148
_cell_angle_alpha	65.152
_cell_angle_beta	76.109
_cell_angle_gamma	69.965
loop_
_atom_site_label
_atom_site_type_symbol
_atom_site_fract_x
_atom_site_fract_y
_atom_site_fract_z
_atom_site_charge
Mof_Zn	Zn	0.55666	0.35307	0.29493	1.223
Mof_Zn	Zn	0.9259	0.28199	0.04792	1.153
Mof_Zn	Zn	0.44334	0.64693	0.70507	1.224
Mof_Zn	Zn	0.0741	0.71801	0.95208	1.207
Mof_Zn	Zn	0.5	0.5	-0	1.123
Mof_P 	P 	0.1476	0.3886	0.19121	0.443
Mof_P 	P 	0.8524	0.6114	0.80879	0.446
Mof_H 	H 	0.2547	0.1038	0.4067	0.018
Mof_H 	H 	0.8465	0.5036	0.3682	0.024
Mof_H 	H 	0.8764	0.1511	0.7202	0.018
Mof_H 	H 	0.765	0.507	0.113	0.262
Mof_H 	H 	0.7453	0.8962	0.5933	0.029
Mof_H 	H 	0.1535	0.4964	0.6318	0.03
Mof_H 	H 	0.1236	0.8489	0.2798	-0.003
Mof_H 	H 	0.235	0.493	0.887	0.296
Mof_C 	C 	0.1503	0.1634	0.4441	0.06
Mof_C 	C 	0.0599	0.314	0.3654	-0.124
Mof_C 	C 	0.9044	0.4028	0.4203	0.026
Mof_C 	C 	0.0834	0.1027	0.5789	-0.143
Mof_C 	C 	0.8344	0.3414	0.5538	-0.117
Mof_C 	C 	0.6665	0.434	0.6176	0.321
Mof_C 	C 	0.9242	0.192	0.6313	0.066
Mof_C 	C 	0.1827	0.9438	0.6672	0.412
Mof_C 	C 	0.8497	0.8366	0.5559	0.054
Mof_C 	C 	0.9401	0.686	0.6346	-0.122
Mof_C 	C 	0.0956	0.5972	0.5797	0.025
Mof_C 	C 	0.9166	0.8973	0.4211	-0.136
Mof_C 	C 	0.1656	0.6586	0.4462	-0.125
Mof_C 	C 	0.3335	0.566	0.3824	0.328
Mof_C 	C 	0.0758	0.808	0.3687	0.067
Mof_C 	C 	0.8173	0.0562	0.3328	0.403
Mof_O 	O 	0.7071	0.4391	0.1222	-0.906
Mof_O 	O 	0.3602	0.3831	0.1821	-0.627
Mof_O 	O 	0.6111	0.5794	0.5582	-0.421
Mof_O 	O 	0.5848	0.3682	0.7283	-0.363
Mof_O 	O 	0.3075	0.8587	0.6096	-0.482
Mof_O 	O 	0.1346	0.9057	0.7894	-0.504
Mof_O 	O 	0.1408	0.2804	0.1294	-0.496
Mof_O 	O 	0.0228	0.5509	0.1324	-0.54
Mof_O 	O 	0.2929	0.5609	0.8778	-0.85
Mof_O 	O 	0.6398	0.6169	0.8179	-0.572
Mof_O 	O 	0.3889	0.4206	0.4418	-0.421
Mof_O 	O 	0.4152	0.6318	0.2717	-0.4
Mof_O 	O 	0.6925	0.1413	0.3904	-0.486
Mof_O 	O 	0.8654	0.0943	0.2106	-0.55
Mof_O 	O 	0.8592	0.7196	0.8706	-0.422
Mof_O 	O 	0.9772	0.4491	0.8676	-0.448
_end
