# CIF file generated by openbabel 3.1.0, see https://openbabel.org
data_I
_chemical_name_common 'image0'
_cell_length_a 13.4125
_cell_length_b 13.4125
_cell_length_c 27.8003
_cell_angle_alpha 90
_cell_angle_beta 90
_cell_angle_gamma 120
_space_group_name_H-M_alt 'P 1'
_space_group_name_Hall 'P 1'
loop_
    _symmetry_equiv_pos_as_xyz
    x,y,z
loop_
    _atom_site_label
    _atom_site_type_symbol
    _atom_site_fract_x
    _atom_site_fract_y
    _atom_site_fract_z
    _atom_site_occupancy
    V1       V        0.29251    0.85685    0.52686    1.000
    P1       P        0.16281    0.97533    0.58404    1.000
    P2       P        0.12690    0.63024    0.46386    1.000
    O1       O        0.15020    0.71700    0.50377    1.000
    O2       O        0.16820    0.54710    0.47567    1.000
    O3       O        0.00050    0.56970    0.45009    1.000
    O4       O        0.18660    0.87960    0.56980    1.000
    O5       O        0.32600    0.77260    0.57592    1.000
    O6       O        0.25800    0.94740    0.47394    1.000
    O7       O        0.14120    0.08070    0.70447    1.000
    O8       O        0.07130    0.92960    0.62249    1.000
    O9       O        0.13640    0.02860    0.54050    1.000
    H1       H        0.16500    0.67400    0.41980    1.000
    H2       H        0.25900    0.06000    0.60390    1.000
    H3       H        0.19000    0.93500    0.47300    1.000
    V2       V        0.14315    0.43566    0.52686    1.000
    P3       P        0.02467    0.18748    0.58404    1.000
    P4       P        0.36976    0.49666    0.46386    1.000
    O10      O        0.28300    0.43320    0.50377    1.000
    O11      O        0.45290    0.62110    0.47567    1.000
    O12      O        0.43030    0.43080    0.45009    1.000
    O13      O        0.12040    0.30700    0.56980    1.000
    O14      O        0.22740    0.55340    0.57592    1.000
    O15      O        0.05260    0.31060    0.47394    1.000
    O16      O        0.91930    0.06050    0.70447    1.000
    O17      O        0.07040    0.14170    0.62249    1.000
    O18      O        0.97140    0.10780    0.54050    1.000
    H4       H        0.32600    0.49100    0.41980    1.000
    H5       H        0.94000    0.19900    0.60390    1.000
    H6       H        0.06500    0.25500    0.47300    1.000
    V3       V        0.56434    0.70749    0.52686    1.000
    P5       P        0.81252    0.83719    0.58404    1.000
    P6       P        0.50334    0.87310    0.46386    1.000
    O19      O        0.56680    0.84980    0.50377    1.000
    O20      O        0.37890    0.83180    0.47567    1.000
    O21      O        0.56920    0.99950    0.45009    1.000
    O22      O        0.69300    0.81340    0.56980    1.000
    O23      O        0.44660    0.67400    0.57592    1.000
    O24      O        0.68940    0.74200    0.47394    1.000
    O25      O        0.93950    0.85880    0.70447    1.000
    O26      O        0.85830    0.92870    0.62249    1.000
    O27      O        0.89220    0.86360    0.54050    1.000
    H7       H        0.50900    0.83500    0.41980    1.000
    H8       H        0.80100    0.74100    0.60390    1.000
    H9       H        0.74500    0.81000    0.47300    1.000
    V4       V        0.70749    0.14315    0.02686    1.000
    P7       P        0.83719    0.02467    0.08404    1.000
    P8       P        0.87310    0.36976    0.96386    1.000
    O28      O        0.84980    0.28300    0.00377    1.000
    O29      O        0.83180    0.45290    0.97567    1.000
    O30      O        0.99950    0.43030    0.95009    1.000
    O31      O        0.81340    0.12040    0.06980    1.000
    O32      O        0.67400    0.22740    0.07592    1.000
    O33      O        0.74200    0.05260    0.97394    1.000
    O34      O        0.85880    0.91930    0.20447    1.000
    O35      O        0.92870    0.07040    0.12249    1.000
    O36      O        0.86360    0.97140    0.04050    1.000
    H10      H        0.83500    0.32600    0.91980    1.000
    H11      H        0.74100    0.94000    0.10390    1.000
    H12      H        0.81000    0.06500    0.97300    1.000
    V5       V        0.85685    0.56434    0.02686    1.000
    P9       P        0.97533    0.81252    0.08404    1.000
    P10      P        0.63024    0.50334    0.96386    1.000
    O37      O        0.71700    0.56680    0.00377    1.000
    O38      O        0.54710    0.37890    0.97567    1.000
    O39      O        0.56970    0.56920    0.95009    1.000
    O40      O        0.87960    0.69300    0.06980    1.000
    O41      O        0.77260    0.44660    0.07592    1.000
    O42      O        0.94740    0.68940    0.97394    1.000
    O43      O        0.08070    0.93950    0.20447    1.000
    O44      O        0.92960    0.85830    0.12249    1.000
    O45      O        0.02860    0.89220    0.04050    1.000
    H13      H        0.67400    0.50900    0.91980    1.000
    H14      H        0.06000    0.80100    0.10390    1.000
    H15      H        0.93500    0.74500    0.97300    1.000
    V6       V        0.43566    0.29251    0.02686    1.000
    P11      P        0.18748    0.16281    0.08404    1.000
    P12      P        0.49666    0.12690    0.96386    1.000
    O46      O        0.43320    0.15020    0.00377    1.000
    O47      O        0.62110    0.16820    0.97567    1.000
    O48      O        0.43080    0.00050    0.95009    1.000
    O49      O        0.30700    0.18660    0.06980    1.000
    O50      O        0.55340    0.32600    0.07592    1.000
    O51      O        0.31060    0.25800    0.97394    1.000
    O52      O        0.06050    0.14120    0.20447    1.000
    O53      O        0.14170    0.07130    0.12249    1.000
    O54      O        0.10780    0.13640    0.04050    1.000
    H16      H        0.49100    0.16500    0.91980    1.000
    H17      H        0.19900    0.25900    0.10390    1.000
    H18      H        0.25500    0.19000    0.97300    1.000
    V7       V        0.70749    0.14315    0.47314    1.000
    P13      P        0.83719    0.02467    0.41596    1.000
    P14      P        0.87310    0.36976    0.53614    1.000
    O55      O        0.84980    0.28300    0.49623    1.000
    O56      O        0.83180    0.45290    0.52433    1.000
    O57      O        0.99950    0.43030    0.54991    1.000
    O58      O        0.81340    0.12040    0.43020    1.000
    O59      O        0.67400    0.22740    0.42408    1.000
    O60      O        0.74200    0.05260    0.52606    1.000
    O61      O        0.85880    0.91930    0.29553    1.000
    O62      O        0.92870    0.07040    0.37751    1.000
    O63      O        0.86360    0.97140    0.45950    1.000
    H19      H        0.83500    0.32600    0.58020    1.000
    H20      H        0.74100    0.94000    0.39610    1.000
    H21      H        0.81000    0.06500    0.52700    1.000
    V8       V        0.85685    0.56434    0.47314    1.000
    P15      P        0.97533    0.81252    0.41596    1.000
    P16      P        0.63024    0.50334    0.53614    1.000
    O64      O        0.71700    0.56680    0.49623    1.000
    O65      O        0.54710    0.37890    0.52433    1.000
    O66      O        0.56970    0.56920    0.54991    1.000
    O67      O        0.87960    0.69300    0.43020    1.000
    O68      O        0.77260    0.44660    0.42408    1.000
    O69      O        0.94740    0.68940    0.52606    1.000
    O70      O        0.08070    0.93950    0.29553    1.000
    O71      O        0.92960    0.85830    0.37751    1.000
    O72      O        0.02860    0.89220    0.45950    1.000
    H22      H        0.67400    0.50900    0.58020    1.000
    H23      H        0.06000    0.80100    0.39610    1.000
    H24      H        0.93500    0.74500    0.52700    1.000
    V9       V        0.43566    0.29251    0.47314    1.000
    P17      P        0.18748    0.16281    0.41596    1.000
    P18      P        0.49666    0.12690    0.53614    1.000
    O73      O        0.43320    0.15020    0.49623    1.000
    O74      O        0.62110    0.16820    0.52433    1.000
    O75      O        0.43080    0.00050    0.54991    1.000
    O76      O        0.30700    0.18660    0.43020    1.000
    O77      O        0.55340    0.32600    0.42408    1.000
    O78      O        0.31060    0.25800    0.52606    1.000
    O79      O        0.06050    0.14120    0.29553    1.000
    O80      O        0.14170    0.07130    0.37751    1.000
    O81      O        0.10780    0.13640    0.45950    1.000
    H25      H        0.49100    0.16500    0.58020    1.000
    H26      H        0.19900    0.25900    0.39610    1.000
    H27      H        0.25500    0.19000    0.52700    1.000
    V10      V        0.29251    0.85685    0.97314    1.000
    P19      P        0.16281    0.97533    0.91596    1.000
    P20      P        0.12690    0.63024    0.03614    1.000
    O82      O        0.15020    0.71700    0.99623    1.000
    O83      O        0.16820    0.54710    0.02433    1.000
    O84      O        0.00050    0.56970    0.04991    1.000
    O85      O        0.18660    0.87960    0.93020    1.000
    O86      O        0.32600    0.77260    0.92408    1.000
    O87      O        0.25800    0.94740    0.02606    1.000
    O88      O        0.14120    0.08070    0.79553    1.000
    O89      O        0.07130    0.92960    0.87751    1.000
    O90      O        0.13640    0.02860    0.95950    1.000
    H28      H        0.16500    0.67400    0.08020    1.000
    H29      H        0.25900    0.06000    0.89610    1.000
    H30      H        0.19000    0.93500    0.02700    1.000
    V11      V        0.14315    0.43566    0.97314    1.000
    P21      P        0.02467    0.18748    0.91596    1.000
    P22      P        0.36976    0.49666    0.03614    1.000
    O91      O        0.28300    0.43320    0.99623    1.000
    O92      O        0.45290    0.62110    0.02433    1.000
    O93      O        0.43030    0.43080    0.04991    1.000
    O94      O        0.12040    0.30700    0.93020    1.000
    O95      O        0.22740    0.55340    0.92408    1.000
    O96      O        0.05260    0.31060    0.02606    1.000
    O97      O        0.91930    0.06050    0.79553    1.000
    O98      O        0.07040    0.14170    0.87751    1.000
    O99      O        0.97140    0.10780    0.95950    1.000
    H31      H        0.32600    0.49100    0.08020    1.000
    H32      H        0.94000    0.19900    0.89610    1.000
    H33      H        0.06500    0.25500    0.02700    1.000
    V12      V        0.56434    0.70749    0.97314    1.000
    P23      P        0.81252    0.83719    0.91596    1.000
    P24      P        0.50334    0.87310    0.03614    1.000
    O100     O        0.56680    0.84980    0.99623    1.000
    O101     O        0.37890    0.83180    0.02433    1.000
    O102     O        0.56920    0.99950    0.04991    1.000
    O103     O        0.69300    0.81340    0.93020    1.000
    O104     O        0.44660    0.67400    0.92408    1.000
    O105     O        0.68940    0.74200    0.02606    1.000
    O106     O        0.93950    0.85880    0.79553    1.000
    O107     O        0.85830    0.92870    0.87751    1.000
    O108     O        0.89220    0.86360    0.95950    1.000
    H34      H        0.50900    0.83500    0.08020    1.000
    H35      H        0.80100    0.74100    0.89610    1.000
    H36      H        0.74500    0.81000    0.02700    1.000
    V13      V        0.00000    0.00000    0.50000    1.000
    V14      V        0.00000    0.00000    0.00000    1.000
    V15      V        0.00000    0.00000    0.66429    1.000
    V16      V        0.00000    0.00000    0.16429    1.000
    V17      V        0.00000    0.00000    0.33571    1.000
    V18      V        0.00000    0.00000    0.83571    1.000
    P25      P        0.33333    0.66667    0.58962    1.000
    H37      H        0.33333    0.66667    0.63840    1.000
    P26      P        0.66667    0.33333    0.08962    1.000
    H38      H        0.66667    0.33333    0.13840    1.000
    P27      P        0.66667    0.33333    0.41038    1.000
    H39      H        0.66667    0.33333    0.36160    1.000
    P28      P        0.33333    0.66667    0.91038    1.000
    H40      H        0.33333    0.66667    0.86160    1.000
    P29      P        0.19121    0.06594    0.75000    1.000
    O109     O        0.32090    0.15060    0.75000    1.000
    H41      H        0.35560    0.11470    0.75000    1.000
    H42      H        0.19400    0.96400    0.75000    1.000
    P30      P        0.93406    0.12527    0.75000    1.000
    O110     O        0.84940    0.17030    0.75000    1.000
    H43      H        0.88530    0.24090    0.75000    1.000
    H44      H        0.03600    0.23000    0.75000    1.000
    P31      P        0.87473    0.80879    0.75000    1.000
    O111     O        0.82970    0.67910    0.75000    1.000
    H45      H        0.75910    0.64440    0.75000    1.000
    H46      H        0.77000    0.80600    0.75000    1.000
    P32      P        0.80879    0.93406    0.25000    1.000
    O112     O        0.67910    0.84940    0.25000    1.000
    H47      H        0.64440    0.88530    0.25000    1.000
    H48      H        0.80600    0.03600    0.25000    1.000
    P33      P        0.06594    0.87473    0.25000    1.000
    O113     O        0.15060    0.82970    0.25000    1.000
    H49      H        0.11470    0.75910    0.25000    1.000
    H50      H        0.96400    0.77000    0.25000    1.000
    P34      P        0.12527    0.19121    0.25000    1.000
    O114     O        0.17030    0.32090    0.25000    1.000
    H51      H        0.24090    0.35560    0.25000    1.000
    H52      H        0.23000    0.19400    0.25000    1.000
