data_functionalizedCrystal
_audit_creation_method	'EQeq! by Chris Wilmer'
_symmetry_space_group_name_H-M	'P1'
_symmetry_Int_Tables_number	1
_symmetry_cell_setting	triclinic
loop_
_symmetry_equiv_pos_as_xyz
  x,y,z
_cell_length_a	9.809
_cell_length_b	11.595
_cell_length_c	12.065
_cell_angle_alpha	90
_cell_angle_beta	90
_cell_angle_gamma	90
loop_
_atom_site_label
_atom_site_type_symbol
_atom_site_fract_x
_atom_site_fract_y
_atom_site_fract_z
_atom_site_charge
Mof_Cu	Cu	0.18999	0.25687	0.92741	0.894
Mof_O 	O 	0.0045	0.2607	0.984	-0.414
Mof_O 	O 	0.873	0.2233	0.13	-0.403
Mof_O 	O 	0.2263	0.1945	0.0786	-0.49
Mof_H 	H 	0.3129	0.1832	0.0669	0.239
Mof_O 	O 	0.3226	0.9855	0.1239	-0.454
Mof_H 	H 	0.3897	0.9746	0.0872	0.251
Mof_O 	O 	0.3214	0.927	0.3497	-0.395
Mof_H 	H 	0.3917	0.9236	0.3083	0.198
Mof_O 	O 	0.2314	0.1472	0.4317	-0.409
Mof_H 	H 	0.2108	0.0887	0.4677	0.245
Mof_C 	C 	0.9857	0.2203	0.0802	0.238
Mof_C 	C 	0.102	0.1582	0.137	0.225
Mof_C 	C 	0.0805	0.0272	0.1233	-0.378
Mof_H 	H 	0.9945	0.0053	0.1571	0.13
Mof_H 	H 	0.0757	0.0084	0.0451	0.155
Mof_C 	C 	0.1957	0.959	0.1768	0.277
Mof_H 	H 	0.1771	0.8763	0.1698	-0.047
Mof_C 	C 	0.2112	0.9905	0.2999	-0.059
Mof_H 	H 	0.1268	0.9686	0.3379	0.046
Mof_C 	C 	0.2314	0.12	0.3156	0.232
Mof_H 	H 	0.3193	0.1425	0.2836	-0.014
Mof_C 	C 	0.1178	0.1895	0.2597	-0.354
Mof_H 	H 	0.0324	0.175	0.2977	0.142
Mof_H 	H 	0.138	0.2711	0.2661	0.144
Mof_Cu	Cu	0.68999	0.24313	0.07259	0.895
Mof_O 	O 	0.5045	0.2393	0.016	-0.414
Mof_O 	O 	0.373	0.2767	0.87	-0.403
Mof_O 	O 	0.7263	0.3055	0.9214	-0.49
Mof_H 	H 	0.8129	0.3168	0.9331	0.239
Mof_O 	O 	0.8226	0.5145	0.8761	-0.454
Mof_H 	H 	0.8897	0.5254	0.9128	0.251
Mof_O 	O 	0.8214	0.573	0.6503	-0.395
Mof_H 	H 	0.8917	0.5764	0.6917	0.198
Mof_O 	O 	0.7314	0.3528	0.5683	-0.409
Mof_H 	H 	0.7108	0.4113	0.5323	0.245
Mof_C 	C 	0.4857	0.2797	0.9198	0.238
Mof_C 	C 	0.602	0.3418	0.863	0.225
Mof_C 	C 	0.5805	0.4728	0.8767	-0.382
Mof_H 	H 	0.4945	0.4947	0.8429	0.133
Mof_H 	H 	0.5757	0.4916	0.9549	0.156
Mof_C 	C 	0.6957	0.541	0.8232	0.279
Mof_H 	H 	0.6771	0.6237	0.8302	-0.048
Mof_C 	C 	0.7112	0.5095	0.7001	-0.059
Mof_H 	H 	0.6268	0.5314	0.6621	0.046
Mof_C 	C 	0.7314	0.38	0.6844	0.232
Mof_H 	H 	0.8193	0.3575	0.7164	-0.014
Mof_C 	C 	0.6178	0.3105	0.7403	-0.354
Mof_H 	H 	0.5324	0.325	0.7023	0.142
Mof_H 	H 	0.638	0.2289	0.7339	0.144
Mof_Cu	Cu	0.31001	0.74313	0.42741	0.895
Mof_O 	O 	0.4955	0.7393	0.484	-0.414
Mof_O 	O 	0.627	0.7767	0.63	-0.403
Mof_O 	O 	0.2737	0.8055	0.5786	-0.49
Mof_H 	H 	0.1871	0.8168	0.5669	0.238
Mof_O 	O 	0.1774	0.0145	0.6239	-0.454
Mof_H 	H 	0.1103	0.0254	0.5872	0.251
Mof_O 	O 	0.1786	0.073	0.8497	-0.395
Mof_H 	H 	0.1083	0.0764	0.8083	0.198
Mof_O 	O 	0.2686	0.8528	0.9317	-0.41
Mof_H 	H 	0.2892	0.9113	0.9677	0.245
Mof_C 	C 	0.5143	0.7797	0.5802	0.238
Mof_C 	C 	0.398	0.8418	0.637	0.225
Mof_C 	C 	0.4195	0.9728	0.6233	-0.383
Mof_H 	H 	0.5055	0.9947	0.6571	0.133
Mof_H 	H 	0.4243	0.9916	0.5451	0.156
Mof_C 	C 	0.3043	0.041	0.6768	0.279
Mof_H 	H 	0.3229	0.1237	0.6698	-0.048
Mof_C 	C 	0.2888	0.0095	0.7999	-0.058
Mof_H 	H 	0.3732	0.0314	0.8379	0.046
Mof_C 	C 	0.2686	0.88	0.8156	0.231
Mof_H 	H 	0.1807	0.8575	0.7836	-0.015
Mof_C 	C 	0.3822	0.8105	0.7597	-0.354
Mof_H 	H 	0.4676	0.825	0.7977	0.142
Mof_H 	H 	0.362	0.7289	0.7661	0.144
Mof_Cu	Cu	0.81001	0.75687	0.57259	0.895
Mof_O 	O 	0.9955	0.7607	0.516	-0.411
Mof_O 	O 	0.127	0.7233	0.37	-0.402
Mof_O 	O 	0.7737	0.6945	0.4214	-0.491
Mof_H 	H 	0.6871	0.6832	0.4331	0.239
Mof_O 	O 	0.6774	0.4855	0.3761	-0.454
Mof_H 	H 	0.6103	0.4746	0.4128	0.251
Mof_O 	O 	0.6786	0.427	0.1503	-0.395
Mof_H 	H 	0.6083	0.4236	0.1917	0.198
Mof_O 	O 	0.7686	0.6472	0.0683	-0.409
Mof_H 	H 	0.7892	0.5887	0.0323	0.245
Mof_C 	C 	0.0143	0.7203	0.4198	0.235
Mof_C 	C 	0.898	0.6582	0.363	0.227
Mof_C 	C 	0.9195	0.5272	0.3767	-0.382
Mof_H 	H 	0.0055	0.5053	0.3429	0.132
Mof_H 	H 	0.9243	0.5084	0.4549	0.156
Mof_C 	C 	0.8043	0.459	0.3232	0.279
Mof_H 	H 	0.8229	0.3763	0.3302	-0.048
Mof_C 	C 	0.7888	0.4905	0.2001	-0.059
Mof_H 	H 	0.8732	0.4686	0.1621	0.046
Mof_C 	C 	0.7686	0.62	0.1844	0.233
Mof_H 	H 	0.6807	0.6425	0.2164	-0.014
Mof_C 	C 	0.8822	0.6895	0.2403	-0.356
Mof_H 	H 	0.9676	0.675	0.2023	0.143
Mof_H 	H 	0.862	0.7711	0.2339	0.145
_end
