# CIF file generated by openbabel 3.1.0, see https://openbabel.org
data_I
_chemical_name_common 'WUNSEE02_charged'
_cell_length_a 15.8178
_cell_length_b 15.8178
_cell_length_c 21.503
_cell_angle_alpha 90
_cell_angle_beta 90
_cell_angle_gamma 90
_space_group_name_H-M_alt 'P 1'
_space_group_name_Hall 'P 1'
loop_
    _symmetry_equiv_pos_as_xyz
    x,y,z
loop_
    _atom_site_label
    _atom_site_type_symbol
    _atom_site_fract_x
    _atom_site_fract_y
    _atom_site_fract_z
    _atom_site_occupancy
    Cd1      Cd       0.05966    0.94034    0.75000    1.000
    Cd2      Cd       0.94034    0.05966    0.25000    1.000
    Cd3      Cd       0.55966    0.55966    0.00000    1.000
    Cd4      Cd       0.44034    0.44034    0.50000    1.000
    H1       H        0.24050    0.00380    0.67520    1.000
    H2       H        0.35040    0.09610    0.68270    1.000
    H3       H        0.26570    0.15440    0.85590    1.000
    H4       H        0.15920    0.06030    0.84140    1.000
    H5       H        0.47010    0.15950    0.71160    1.000
    H6       H        0.57150    0.26170    0.72310    1.000
    H7       H        0.55140    0.37590    0.79020    1.000
    H8       H        0.32840    0.27410    0.84410    1.000
    H9       H        0.29840    0.48910    0.04250    1.000
    H10      H        0.19560    0.57960    0.08280    1.000
    H11      H        0.15220    0.69880    0.03250    1.000
    H12      H        0.30490    0.63940    0.88790    1.000
    H13      H        0.08970    0.78490    0.96790    1.000
    H14      H        0.04080    0.89090    0.90290    1.000
    H15      H        0.23180    0.86080    0.79030    1.000
    H16      H        0.29140    0.75900    0.85500    1.000
    H17      H        0.23390    0.46200    0.86130    1.000
    H18      H        0.25310    0.39400    0.90100    1.000
    H19      H        0.75950    0.99620    0.17520    1.000
    H20      H        0.64960    0.90390    0.18270    1.000
    H21      H        0.73430    0.84560    0.35590    1.000
    H22      H        0.84080    0.93970    0.34140    1.000
    H23      H        0.52990    0.84050    0.21160    1.000
    H24      H        0.42850    0.73830    0.22310    1.000
    H25      H        0.44860    0.62410    0.29020    1.000
    H26      H        0.67160    0.72590    0.34410    1.000
    H27      H        0.70160    0.51090    0.54250    1.000
    H28      H        0.80440    0.42040    0.58280    1.000
    H29      H        0.84780    0.30120    0.53250    1.000
    H30      H        0.69510    0.36060    0.38790    1.000
    H31      H        0.91030    0.21510    0.46790    1.000
    H32      H        0.95920    0.10910    0.40290    1.000
    H33      H        0.76820    0.13920    0.29030    1.000
    H34      H        0.70860    0.24100    0.35500    1.000
    H35      H        0.76610    0.53800    0.36130    1.000
    H36      H        0.74690    0.60600    0.40100    1.000
    H37      H        0.49620    0.74050    0.92520    1.000
    H38      H        0.40390    0.85040    0.93270    1.000
    H39      H        0.34560    0.76570    0.10590    1.000
    H40      H        0.43970    0.65920    0.09140    1.000
    H41      H        0.34050    0.97010    0.96160    1.000
    H42      H        0.23830    0.07150    0.97310    1.000
    H43      H        0.12410    0.05140    0.04020    1.000
    H44      H        0.22590    0.82840    0.09410    1.000
    H45      H        0.01090    0.79840    0.29250    1.000
    H46      H        0.92040    0.69560    0.33280    1.000
    H47      H        0.80120    0.65220    0.28250    1.000
    H48      H        0.86060    0.80490    0.13790    1.000
    H49      H        0.71510    0.58970    0.21790    1.000
    H50      H        0.60910    0.54080    0.15290    1.000
    H51      H        0.63920    0.73180    0.04030    1.000
    H52      H        0.74100    0.79140    0.10500    1.000
    H53      H        0.03800    0.73390    0.11130    1.000
    H54      H        0.10600    0.75310    0.15100    1.000
    H55      H        0.50380    0.25950    0.42520    1.000
    H56      H        0.59610    0.14960    0.43270    1.000
    H57      H        0.65440    0.23430    0.60590    1.000
    H58      H        0.56030    0.34080    0.59140    1.000
    H59      H        0.65950    0.02990    0.46160    1.000
    H60      H        0.76170    0.92850    0.47310    1.000
    H61      H        0.87590    0.94860    0.54020    1.000
    H62      H        0.77410    0.17160    0.59410    1.000
    H63      H        0.98910    0.20160    0.79250    1.000
    H64      H        0.07960    0.30440    0.83280    1.000
    H65      H        0.19880    0.34780    0.78250    1.000
    H66      H        0.13940    0.19510    0.63790    1.000
    H67      H        0.28490    0.41030    0.71790    1.000
    H68      H        0.39090    0.45920    0.65290    1.000
    H69      H        0.36080    0.26820    0.54030    1.000
    H70      H        0.25900    0.20860    0.60500    1.000
    H71      H        0.96200    0.26610    0.61130    1.000
    H72      H        0.89400    0.24690    0.65100    1.000
    H73      H        0.25950    0.50380    0.57480    1.000
    H74      H        0.14960    0.59610    0.56730    1.000
    H75      H        0.23430    0.65440    0.39410    1.000
    H76      H        0.34080    0.56030    0.40860    1.000
    H77      H        0.02990    0.65950    0.53840    1.000
    H78      H        0.92850    0.76170    0.52690    1.000
    H79      H        0.94860    0.87590    0.45980    1.000
    H80      H        0.17160    0.77410    0.40590    1.000
    H81      H        0.20160    0.98910    0.20750    1.000
    H82      H        0.30440    0.07960    0.16720    1.000
    H83      H        0.34780    0.19880    0.21750    1.000
    H84      H        0.19510    0.13940    0.36210    1.000
    H85      H        0.41030    0.28490    0.28210    1.000
    H86      H        0.45920    0.39090    0.34710    1.000
    H87      H        0.26820    0.36080    0.45970    1.000
    H88      H        0.20860    0.25900    0.39500    1.000
    H89      H        0.26610    0.96200    0.38870    1.000
    H90      H        0.24690    0.89400    0.34900    1.000
    H91      H        0.74050    0.49620    0.07480    1.000
    H92      H        0.85040    0.40390    0.06730    1.000
    H93      H        0.76570    0.34560    0.89410    1.000
    H94      H        0.65920    0.43970    0.90860    1.000
    H95      H        0.97010    0.34050    0.03840    1.000
    H96      H        0.07150    0.23830    0.02690    1.000
    H97      H        0.05140    0.12410    0.95980    1.000
    H98      H        0.82840    0.22590    0.90590    1.000
    H99      H        0.79840    0.01090    0.70750    1.000
    H100     H        0.69560    0.92040    0.66720    1.000
    H101     H        0.65220    0.80120    0.71750    1.000
    H102     H        0.80490    0.86060    0.86210    1.000
    H103     H        0.58970    0.71510    0.78210    1.000
    H104     H        0.54080    0.60910    0.84710    1.000
    H105     H        0.73180    0.63920    0.95970    1.000
    H106     H        0.79140    0.74100    0.89500    1.000
    H107     H        0.73390    0.03800    0.88870    1.000
    H108     H        0.75310    0.10600    0.84900    1.000
    H109     H        0.00380    0.24050    0.32480    1.000
    H110     H        0.09610    0.35040    0.31730    1.000
    H111     H        0.15440    0.26570    0.14410    1.000
    H112     H        0.06030    0.15920    0.15860    1.000
    H113     H        0.15950    0.47010    0.28840    1.000
    H114     H        0.26170    0.57150    0.27690    1.000
    H115     H        0.37590    0.55140    0.20980    1.000
    H116     H        0.27410    0.32840    0.15590    1.000
    H117     H        0.48910    0.29840    0.95750    1.000
    H118     H        0.57960    0.19560    0.91720    1.000
    H119     H        0.69880    0.15220    0.96750    1.000
    H120     H        0.63940    0.30490    0.11210    1.000
    H121     H        0.78490    0.08970    0.03210    1.000
    H122     H        0.89090    0.04080    0.09710    1.000
    H123     H        0.86080    0.23180    0.20970    1.000
    H124     H        0.75900    0.29140    0.14500    1.000
    H125     H        0.46200    0.23390    0.13870    1.000
    H126     H        0.39400    0.25310    0.09900    1.000
    H127     H        0.99620    0.75950    0.82480    1.000
    H128     H        0.90390    0.64960    0.81730    1.000
    H129     H        0.84560    0.73430    0.64410    1.000
    H130     H        0.93970    0.84080    0.65860    1.000
    H131     H        0.84050    0.52990    0.78840    1.000
    H132     H        0.73830    0.42850    0.77690    1.000
    H133     H        0.62410    0.44860    0.70980    1.000
    H134     H        0.72590    0.67160    0.65590    1.000
    H135     H        0.51090    0.70160    0.45750    1.000
    H136     H        0.42040    0.80440    0.41720    1.000
    H137     H        0.30120    0.84780    0.46750    1.000
    H138     H        0.36060    0.69510    0.61210    1.000
    H139     H        0.21510    0.91030    0.53210    1.000
    H140     H        0.10910    0.95920    0.59710    1.000
    H141     H        0.13920    0.76820    0.70970    1.000
    H142     H        0.24100    0.70860    0.64500    1.000
    H143     H        0.53800    0.76610    0.63870    1.000
    H144     H        0.60600    0.74690    0.59900    1.000
    C1       C        0.24570    0.03580    0.71240    1.000
    C2       C        0.31170    0.09070    0.71620    1.000
    C3       C        0.32190    0.13980    0.77100    1.000
    C4       C        0.26190    0.12470    0.81750    1.000
    C5       C        0.19860    0.06840    0.80860    1.000
    C6       C        0.38810    0.20530    0.77610    1.000
    C7       C        0.46140    0.20400    0.74070    1.000
    C8       C        0.52110    0.26520    0.74690    1.000
    C9       C        0.50990    0.33270    0.78710    1.000
    C10      C        0.43640    0.33590    0.82310    1.000
    C11      C        0.37720    0.27260    0.81840    1.000
    C12      C        0.42730    0.40630    0.86720    1.000
    C13      C        0.37570    0.50180    0.93030    1.000
    C14      C        0.31280    0.55650    0.96100    1.000
    C15      C        0.28010    0.53730    0.01980    1.000
    C16      C        0.21950    0.59220    0.04330    1.000
    C17      C        0.19250    0.66260    0.01350    1.000
    C18      C        0.22450    0.68160    0.95410    1.000
    C19      C        0.28360    0.62800    0.92830    1.000
    C20      C        0.19260    0.75410    0.91760    1.000
    C21      C        0.12010    0.79770    0.93090    1.000
    C22      C        0.09010    0.86050    0.89120    1.000
    C23      C        0.20160    0.84370    0.82630    1.000
    C24      C        0.23750    0.78200    0.86450    1.000
    C25      C        0.75430    0.96420    0.21240    1.000
    C26      C        0.68830    0.90930    0.21620    1.000
    C27      C        0.67810    0.86020    0.27100    1.000
    C28      C        0.73810    0.87530    0.31750    1.000
    C29      C        0.80140    0.93160    0.30860    1.000
    C30      C        0.61190    0.79470    0.27610    1.000
    C31      C        0.53860    0.79600    0.24070    1.000
    C32      C        0.47890    0.73480    0.24690    1.000
    C33      C        0.49010    0.66730    0.28710    1.000
    C34      C        0.56360    0.66410    0.32310    1.000
    C35      C        0.62280    0.72740    0.31840    1.000
    C36      C        0.57270    0.59370    0.36720    1.000
    C37      C        0.62430    0.49820    0.43030    1.000
    C38      C        0.68720    0.44350    0.46100    1.000
    C39      C        0.71990    0.46270    0.51980    1.000
    C40      C        0.78050    0.40780    0.54330    1.000
    C41      C        0.80750    0.33740    0.51350    1.000
    C42      C        0.77550    0.31840    0.45410    1.000
    C43      C        0.71640    0.37200    0.42830    1.000
    C44      C        0.80740    0.24590    0.41760    1.000
    C45      C        0.87990    0.20230    0.43090    1.000
    C46      C        0.90990    0.13950    0.39120    1.000
    C47      C        0.79840    0.15630    0.32630    1.000
    C48      C        0.76250    0.21800    0.36450    1.000
    C49      C        0.46420    0.74570    0.96240    1.000
    C50      C        0.40930    0.81170    0.96620    1.000
    C51      C        0.36020    0.82190    0.02100    1.000
    C52      C        0.37530    0.76190    0.06750    1.000
    C53      C        0.43160    0.69860    0.05860    1.000
    C54      C        0.29470    0.88810    0.02610    1.000
    C55      C        0.29600    0.96140    0.99070    1.000
    C56      C        0.23480    0.02110    0.99690    1.000
    C57      C        0.16730    0.00990    0.03710    1.000
    C58      C        0.16410    0.93640    0.07310    1.000
    C59      C        0.22740    0.87720    0.06840    1.000
    C60      C        0.09370    0.92730    0.11720    1.000
    C61      C        0.99820    0.87570    0.18030    1.000
    C62      C        0.94350    0.81280    0.21100    1.000
    C63      C        0.96270    0.78010    0.26980    1.000
    C64      C        0.90780    0.71950    0.29330    1.000
    C65      C        0.83740    0.69250    0.26350    1.000
    C66      C        0.81840    0.72450    0.20410    1.000
    C67      C        0.87200    0.78360    0.17830    1.000
    C68      C        0.74590    0.69260    0.16760    1.000
    C69      C        0.70230    0.62010    0.18090    1.000
    C70      C        0.63950    0.59010    0.14120    1.000
    C71      C        0.65630    0.70160    0.07630    1.000
    C72      C        0.71800    0.73750    0.11450    1.000
    C73      C        0.53580    0.25430    0.46240    1.000
    C74      C        0.59070    0.18830    0.46620    1.000
    C75      C        0.63980    0.17810    0.52100    1.000
    C76      C        0.62470    0.23810    0.56750    1.000
    C77      C        0.56840    0.30140    0.55860    1.000
    C78      C        0.70530    0.11190    0.52610    1.000
    C79      C        0.70400    0.03860    0.49070    1.000
    C80      C        0.76520    0.97890    0.49690    1.000
    C81      C        0.83270    0.99010    0.53710    1.000
    C82      C        0.83590    0.06360    0.57310    1.000
    C83      C        0.77260    0.12280    0.56840    1.000
    C84      C        0.90630    0.07270    0.61720    1.000
    C85      C        0.00180    0.12430    0.68030    1.000
    C86      C        0.05650    0.18720    0.71100    1.000
    C87      C        0.03730    0.21990    0.76980    1.000
    C88      C        0.09220    0.28050    0.79330    1.000
    C89      C        0.16260    0.30750    0.76350    1.000
    C90      C        0.18160    0.27550    0.70410    1.000
    C91      C        0.12800    0.21640    0.67830    1.000
    C92      C        0.25410    0.30740    0.66760    1.000
    C93      C        0.29770    0.37990    0.68090    1.000
    C94      C        0.36050    0.40990    0.64120    1.000
    C95      C        0.34370    0.29840    0.57630    1.000
    C96      C        0.28200    0.26250    0.61450    1.000
    C97      C        0.25430    0.53580    0.53760    1.000
    C98      C        0.18830    0.59070    0.53380    1.000
    C99      C        0.17810    0.63980    0.47900    1.000
    C100     C        0.23810    0.62470    0.43250    1.000
    C101     C        0.30140    0.56840    0.44140    1.000
    C102     C        0.11190    0.70530    0.47390    1.000
    C103     C        0.03860    0.70400    0.50930    1.000
    C104     C        0.97890    0.76520    0.50310    1.000
    C105     C        0.99010    0.83270    0.46290    1.000
    C106     C        0.06360    0.83590    0.42690    1.000
    C107     C        0.12280    0.77260    0.43160    1.000
    C108     C        0.07270    0.90630    0.38280    1.000
    C109     C        0.12430    0.00180    0.31970    1.000
    C110     C        0.18720    0.05650    0.28900    1.000
    C111     C        0.21990    0.03730    0.23020    1.000
    C112     C        0.28050    0.09220    0.20670    1.000
    C113     C        0.30750    0.16260    0.23650    1.000
    C114     C        0.27550    0.18160    0.29590    1.000
    C115     C        0.21640    0.12800    0.32170    1.000
    C116     C        0.30740    0.25410    0.33240    1.000
    C117     C        0.37990    0.29770    0.31910    1.000
    C118     C        0.40990    0.36050    0.35880    1.000
    C119     C        0.29840    0.34370    0.42370    1.000
    C120     C        0.26250    0.28200    0.38550    1.000
    C121     C        0.74570    0.46420    0.03760    1.000
    C122     C        0.81170    0.40930    0.03380    1.000
    C123     C        0.82190    0.36020    0.97900    1.000
    C124     C        0.76190    0.37530    0.93250    1.000
    C125     C        0.69860    0.43160    0.94140    1.000
    C126     C        0.88810    0.29470    0.97390    1.000
    C127     C        0.96140    0.29600    0.00930    1.000
    C128     C        0.02110    0.23480    0.00310    1.000
    C129     C        0.00990    0.16730    0.96290    1.000
    C130     C        0.93640    0.16410    0.92690    1.000
    C131     C        0.87720    0.22740    0.93160    1.000
    C132     C        0.92730    0.09370    0.88280    1.000
    C133     C        0.87570    0.99820    0.81970    1.000
    C134     C        0.81280    0.94350    0.78900    1.000
    C135     C        0.78010    0.96270    0.73020    1.000
    C136     C        0.71950    0.90780    0.70670    1.000
    C137     C        0.69250    0.83740    0.73650    1.000
    C138     C        0.72450    0.81840    0.79590    1.000
    C139     C        0.78360    0.87200    0.82170    1.000
    C140     C        0.69260    0.74590    0.83240    1.000
    C141     C        0.62010    0.70230    0.81910    1.000
    C142     C        0.59010    0.63950    0.85880    1.000
    C143     C        0.70160    0.65630    0.92370    1.000
    C144     C        0.73750    0.71800    0.88550    1.000
    C145     C        0.03580    0.24570    0.28760    1.000
    C146     C        0.09070    0.31170    0.28380    1.000
    C147     C        0.13980    0.32190    0.22900    1.000
    C148     C        0.12470    0.26190    0.18250    1.000
    C149     C        0.06840    0.19860    0.19140    1.000
    C150     C        0.20530    0.38810    0.22390    1.000
    C151     C        0.20400    0.46140    0.25930    1.000
    C152     C        0.26520    0.52110    0.25310    1.000
    C153     C        0.33270    0.50990    0.21290    1.000
    C154     C        0.33590    0.43640    0.17690    1.000
    C155     C        0.27260    0.37720    0.18160    1.000
    C156     C        0.40630    0.42730    0.13280    1.000
    C157     C        0.50180    0.37570    0.06970    1.000
    C158     C        0.55650    0.31280    0.03900    1.000
    C159     C        0.53730    0.28010    0.98020    1.000
    C160     C        0.59220    0.21950    0.95670    1.000
    C161     C        0.66260    0.19250    0.98650    1.000
    C162     C        0.68160    0.22450    0.04590    1.000
    C163     C        0.62800    0.28360    0.07170    1.000
    C164     C        0.75410    0.19260    0.08240    1.000
    C165     C        0.79770    0.12010    0.06910    1.000
    C166     C        0.86050    0.09010    0.10880    1.000
    C167     C        0.84370    0.20160    0.17370    1.000
    C168     C        0.78200    0.23750    0.13550    1.000
    C169     C        0.96420    0.75430    0.78760    1.000
    C170     C        0.90930    0.68830    0.78380    1.000
    C171     C        0.86020    0.67810    0.72900    1.000
    C172     C        0.87530    0.73810    0.68250    1.000
    C173     C        0.93160    0.80140    0.69140    1.000
    C174     C        0.79470    0.61190    0.72390    1.000
    C175     C        0.79600    0.53860    0.75930    1.000
    C176     C        0.73480    0.47890    0.75310    1.000
    C177     C        0.66730    0.49010    0.71290    1.000
    C178     C        0.66410    0.56360    0.67690    1.000
    C179     C        0.72740    0.62280    0.68160    1.000
    C180     C        0.59370    0.57270    0.63280    1.000
    C181     C        0.49820    0.62430    0.56970    1.000
    C182     C        0.44350    0.68720    0.53900    1.000
    C183     C        0.46270    0.71990    0.48020    1.000
    C184     C        0.40780    0.78050    0.45670    1.000
    C185     C        0.33740    0.80750    0.48650    1.000
    C186     C        0.31840    0.77550    0.54590    1.000
    C187     C        0.37200    0.71640    0.57170    1.000
    C188     C        0.24590    0.80740    0.58240    1.000
    C189     C        0.20230    0.87990    0.56910    1.000
    C190     C        0.13950    0.90990    0.60880    1.000
    C191     C        0.15630    0.79840    0.67370    1.000
    C192     C        0.21800    0.76250    0.63550    1.000
    N1       N        0.18770    0.02320    0.75650    1.000
    N2       N        0.49120    0.44460    0.89350    1.000
    N3       N        0.45790    0.50500    0.93300    1.000
    N4       N        0.35360    0.44140    0.88840    1.000
    N5       N        0.27150    0.42170    0.86780    1.000
    N6       N        0.12720    0.88000    0.83770    1.000
    N7       N        0.81230    0.97680    0.25650    1.000
    N8       N        0.50880    0.55540    0.39350    1.000
    N9       N        0.54210    0.49500    0.43300    1.000
    N10      N        0.64640    0.55860    0.38840    1.000
    N11      N        0.72850    0.57830    0.36780    1.000
    N12      N        0.87280    0.12000    0.33770    1.000
    N13      N        0.47680    0.68770    0.00650    1.000
    N14      N        0.05540    0.99120    0.14350    1.000
    N15      N        0.99500    0.95790    0.18300    1.000
    N16      N        0.05860    0.85360    0.13840    1.000
    N17      N        0.07830    0.77150    0.11780    1.000
    N18      N        0.62000    0.62720    0.08770    1.000
    N19      N        0.52320    0.31230    0.50650    1.000
    N20      N        0.94460    0.00880    0.64350    1.000
    N21      N        0.00500    0.04210    0.68300    1.000
    N22      N        0.94140    0.14640    0.63840    1.000
    N23      N        0.92170    0.22850    0.61780    1.000
    N24      N        0.38000    0.37280    0.58770    1.000
    N25      N        0.31230    0.52320    0.49350    1.000
    N26      N        0.00880    0.94460    0.35650    1.000
    N27      N        0.04210    0.00500    0.31700    1.000
    N28      N        0.14640    0.94140    0.36160    1.000
    N29      N        0.22850    0.92170    0.38220    1.000
    N30      N        0.37280    0.38000    0.41230    1.000
    N31      N        0.68770    0.47680    0.99350    1.000
    N32      N        0.99120    0.05540    0.85650    1.000
    N33      N        0.95790    0.99500    0.81700    1.000
    N34      N        0.85360    0.05860    0.86160    1.000
    N35      N        0.77150    0.07830    0.88220    1.000
    N36      N        0.62720    0.62000    0.91230    1.000
    N37      N        0.02320    0.18770    0.24350    1.000
    N38      N        0.44460    0.49120    0.10650    1.000
    N39      N        0.50500    0.45790    0.06700    1.000
    N40      N        0.44140    0.35360    0.11160    1.000
    N41      N        0.42170    0.27150    0.13220    1.000
    N42      N        0.88000    0.12720    0.16230    1.000
    N43      N        0.97680    0.81230    0.74350    1.000
    N44      N        0.55540    0.50880    0.60650    1.000
    N45      N        0.49500    0.54210    0.56700    1.000
    N46      N        0.55860    0.64640    0.61160    1.000
    N47      N        0.57830    0.72850    0.63220    1.000
    N48      N        0.12000    0.87280    0.66230    1.000
    Cl1      Cl       0.87954    0.87954    0.00000    1.000
    O1       O        0.90390    0.82440    0.95120    1.000
    O2       O        0.86190    0.94180    0.95540    1.000
    O3       O        0.82440    0.90390    0.04880    1.000
    O4       O        0.94180    0.86190    0.04460    1.000
    Cl2      Cl       0.12046    0.12046    0.50000    1.000
    O5       O        0.09610    0.17560    0.45120    1.000
    O6       O        0.13810    0.05820    0.45540    1.000
    O7       O        0.17560    0.09610    0.54880    1.000
    O8       O        0.05820    0.13810    0.54460    1.000
    Cl3      Cl       0.62046    0.37954    0.25000    1.000
    O9       O        0.67560    0.40390    0.20120    1.000
    O10      O        0.55820    0.36190    0.20540    1.000
    O11      O        0.59610    0.32440    0.29880    1.000
    O12      O        0.63810    0.44180    0.29460    1.000
    Cl4      Cl       0.37954    0.62046    0.75000    1.000
    O13      O        0.32440    0.59610    0.70120    1.000
    O14      O        0.44180    0.63810    0.70540    1.000
    O15      O        0.40390    0.67560    0.79880    1.000
    O16      O        0.36190    0.55820    0.79460    1.000
