data_functionalizedCrystal
_audit_creation_method	'EQeq! by Chris Wilmer'
_symmetry_space_group_name_H-M	'P1'
_symmetry_Int_Tables_number	1
_symmetry_cell_setting	triclinic
loop_
_symmetry_equiv_pos_as_xyz
  x,y,z
_cell_length_a	11.4164
_cell_length_b	7.1985
_cell_length_c	6.6405
_cell_angle_alpha	90
_cell_angle_beta	109.829
_cell_angle_gamma	90
loop_
_atom_site_label
_atom_site_type_symbol
_atom_site_fract_x
_atom_site_fract_y
_atom_site_fract_z
_atom_site_charge
Mof_O 	O 	0.9914	0.5295	0.6617	-0.146
Mof_O 	O 	0.8264	0.4763	0.882	-0.457
Mof_O 	O 	0.6543	0.3385	0.8824	-0.554
Mof_C 	C 	0.7635	0.3809	0.9644	0.96
Mof_H 	H 	0.804	0.3375	0.1026	-0.375
Mof_O 	O 	0.4914	0.0295	0.6617	-0.468
Mof_O 	O 	0.3264	0.9763	0.882	-0.492
Mof_O 	O 	0.1543	0.8385	0.8824	-0.544
Mof_C 	C 	0.2635	0.8809	0.9644	0.974
Mof_H 	H 	0.304	0.8375	0.1026	-0.379
Mof_O 	O 	0.0086	0.5295	0.3383	-0.437
Mof_O 	O 	0.1736	0.4763	0.118	-0.462
Mof_O 	O 	0.3457	0.3385	0.1176	-0.486
Mof_C 	C 	0.2365	0.3809	0.0356	0.245
Mof_H 	H 	0.196	0.3375	0.8974	0.004
Mof_O 	O 	0.5086	0.0295	0.3383	-0.526
Mof_O 	O 	0.6736	0.9763	0.118	-0.373
Mof_O 	O 	0.8457	0.8385	0.1176	-0.332
Mof_C 	C 	0.7365	0.8809	0.0356	0.204
Mof_H 	H 	0.696	0.8375	0.8974	0.084
Mof_Eu	Eu	-0	0.6766	-0	1.382
Mof_Eu	Eu	0.5	0.1766	-0	1.666
Mof_C 	C 	-1.38409e-17	0.6083	0.5	0.213
Mof_H 	H 	-1.38409e-17	0.7375	0.5	-0.086
Mof_C 	C 	0.5	0.1083	0.5	0.559
Mof_H 	H 	0.5	0.2375	0.5	-0.174
_end
