data_functionalizedCrystal
_audit_creation_method	'EQeq! by Chris Wilmer'
_symmetry_space_group_name_H-M	'P1'
_symmetry_Int_Tables_number	1
_symmetry_cell_setting	triclinic
loop_
_symmetry_equiv_pos_as_xyz
  x,y,z
_cell_length_a	11.2208
_cell_length_b	11.7575
_cell_length_c	16.2014
_cell_angle_alpha	90
_cell_angle_beta	129.17
_cell_angle_gamma	90
loop_
_atom_site_label
_atom_site_type_symbol
_atom_site_fract_x
_atom_site_fract_y
_atom_site_fract_z
_atom_site_charge
Mof_C 	C 	0.14139	0.89786	0.76811	-0.082
Mof_C 	C 	0.08262	0.80964	0.69543	0.062
Mof_H 	H 	0.9771	0.7896	0.6535	0.058
Mof_C 	C 	0.17933	0.75022	0.68409	-0.102
Mof_C 	C 	0.11735	0.6526	0.60829	0.4
Mof_C 	C 	0.33324	0.78111	0.74456	0.05
Mof_H 	H 	0.3988	0.7411	0.7364	0.06
Mof_C 	C 	0.39137	0.87056	0.81701	-0.072
Mof_C 	C 	0.29608	0.9287	0.82979	0.037
Mof_H 	H 	0.3358	0.9888	0.88	0.06
Mof_C 	C 	0.55629	0.90426	0.88083	0.305
Mof_O 	O 	0.06257	0.92962	0.8858	-0.409
Mof_O 	O 	0.86543	0.94593	0.69587	-0.221
Mof_O 	O 	0.0627	0.09171	0.79465	-0.262
Mof_O 	O 	0.21356	0.57973	0.62538	-0.444
Mof_O 	O 	0.97495	0.64972	0.53341	-0.458
Mof_O 	O 	0.64157	0.85206	0.86877	-0.342
Mof_O 	O 	0.60741	0.98591	0.94572	-0.373
Mof_S 	S 	0.02166	0.97378	0.78514	0.495
Mof_Zn	Zn	0.17658	0.02717	0.01763	1.233
Mof_C 	C 	0.85861	0.39786	0.73189	-0.075
Mof_C 	C 	0.91738	0.30964	0.80457	0.038
Mof_H 	H 	0.0229	0.2896	0.8465	0.07
Mof_C 	C 	0.82067	0.25022	0.81591	-0.09
Mof_C 	C 	0.88265	0.1526	0.89171	0.382
Mof_C 	C 	0.66676	0.28111	0.75544	0.041
Mof_H 	H 	0.6012	0.2411	0.7636	0.064
Mof_C 	C 	0.60863	0.37056	0.68299	-0.066
Mof_C 	C 	0.70392	0.4287	0.67021	0.03
Mof_H 	H 	0.6642	0.4888	0.62	0.063
Mof_C 	C 	0.44371	0.40426	0.61917	0.303
Mof_O 	O 	0.93743	0.42962	0.6142	-0.409
Mof_O 	O 	0.13457	0.44593	0.80413	-0.218
Mof_O 	O 	0.9373	0.59171	0.70535	-0.271
Mof_O 	O 	0.78644	0.07973	0.87462	-0.438
Mof_O 	O 	0.02505	0.14972	0.96659	-0.442
Mof_O 	O 	0.35843	0.35206	0.63123	-0.337
Mof_O 	O 	0.39259	0.48591	0.55428	-0.369
Mof_S 	S 	0.97834	0.47378	0.71486	0.494
Mof_Zn	Zn	0.82342	0.52717	0.48237	1.237
Mof_C 	C 	0.85861	0.10214	0.23189	-0.083
Mof_C 	C 	0.91738	0.19036	0.30457	0.061
Mof_H 	H 	0.0229	0.2104	0.3465	0.057
Mof_C 	C 	0.82067	0.24978	0.31591	-0.103
Mof_C 	C 	0.88265	0.3474	0.39171	0.4
Mof_C 	C 	0.66676	0.21889	0.25544	0.05
Mof_H 	H 	0.6012	0.2589	0.2636	0.06
Mof_C 	C 	0.60863	0.12944	0.18299	-0.072
Mof_C 	C 	0.70392	0.0713	0.17021	0.037
Mof_H 	H 	0.6642	0.0112	0.12	0.06
Mof_C 	C 	0.44371	0.09574	0.11917	0.305
Mof_O 	O 	0.93743	0.07038	0.1142	-0.409
Mof_O 	O 	0.13457	0.05407	0.30413	-0.221
Mof_O 	O 	0.9373	0.90829	0.20535	-0.262
Mof_O 	O 	0.78644	0.42027	0.37462	-0.444
Mof_O 	O 	0.02505	0.35028	0.46659	-0.458
Mof_O 	O 	0.35843	0.14794	0.13123	-0.342
Mof_O 	O 	0.39259	0.01409	0.05428	-0.373
Mof_S 	S 	0.97834	0.02622	0.21486	0.495
Mof_Zn	Zn	0.82342	0.97283	0.98237	1.233
Mof_C 	C 	0.14139	0.60214	0.26811	-0.075
Mof_C 	C 	0.08262	0.69036	0.19543	0.038
Mof_H 	H 	0.9771	0.7104	0.1535	0.07
Mof_C 	C 	0.17933	0.74978	0.18409	-0.09
Mof_C 	C 	0.11735	0.8474	0.10829	0.382
Mof_C 	C 	0.33324	0.71889	0.24456	0.041
Mof_H 	H 	0.3988	0.7589	0.2364	0.064
Mof_C 	C 	0.39137	0.62944	0.31701	-0.066
Mof_C 	C 	0.29608	0.5713	0.32979	0.03
Mof_H 	H 	0.3358	0.5112	0.38	0.063
Mof_C 	C 	0.55629	0.59574	0.38083	0.303
Mof_O 	O 	0.06257	0.57038	0.3858	-0.409
Mof_O 	O 	0.86543	0.55407	0.19587	-0.218
Mof_O 	O 	0.0627	0.40829	0.29465	-0.271
Mof_O 	O 	0.21356	0.92027	0.12538	-0.438
Mof_O 	O 	0.97495	0.85028	0.03341	-0.442
Mof_O 	O 	0.64157	0.64794	0.36877	-0.337
Mof_O 	O 	0.60741	0.51409	0.44572	-0.369
Mof_S 	S 	0.02166	0.52622	0.28514	0.494
Mof_Zn	Zn	0.17658	0.47283	0.51763	1.237
_end
