data_functionalizedCrystal
_audit_creation_method	'EQeq! by Chris Wilmer'
_symmetry_space_group_name_H-M	'P1'
_symmetry_Int_Tables_number	1
_symmetry_cell_setting	triclinic
loop_
_symmetry_equiv_pos_as_xyz
  x,y,z
_cell_length_a	20.461
_cell_length_b	20.461
_cell_length_c	17.8279
_cell_angle_alpha	90
_cell_angle_beta	90
_cell_angle_gamma	90
loop_
_atom_site_label
_atom_site_type_symbol
_atom_site_fract_x
_atom_site_fract_y
_atom_site_fract_z
_atom_site_charge
Mof_Co	Co	0.25775	0.11894	0.65066	1.182
Mof_O 	O 	0.23579	0.12901	0.75574	-0.434
Mof_O 	O 	0.31272	0.0584	0.76675	-0.299
Mof_O 	O 	0.25867	0.96501	0.09771	-0.425
Mof_O 	O 	0.33861	0.94542	0.01277	-0.434
Mof_O 	O 	0.17302	0.19279	0.0971	-0.419
Mof_O 	O 	0.16041	0.24298	0.98841	-0.368
Mof_C 	C 	0.27144	0.094	0.79431	0.318
Mof_C 	C 	0.26224	0.09421	0.87818	0.021
Mof_C 	C 	0.22804	0.14416	0.91352	-0.121
Mof_H 	H 	0.2134	0.1797	0.8856	0.101
Mof_C 	C 	0.21558	0.14162	0.98956	0.166
Mof_C 	C 	0.2374	0.0883	0.03101	-0.292
Mof_H 	H 	0.2289	0.0862	0.0822	0.153
Mof_C 	C 	0.27159	0.03856	0.99651	0.16
Mof_C 	C 	0.28432	0.04214	0.91946	-0.112
Mof_H 	H 	0.3079	0.009	0.8961	0.104
Mof_C 	C 	0.18078	0.1974	0.02771	0.19
Mof_C 	C 	0.2915	0.97718	0.03888	0.25
Mof_Co	Co	0.75775	0.61894	0.15066	1.177
Mof_O 	O 	0.73579	0.62901	0.25574	-0.455
Mof_O 	O 	0.81272	0.5584	0.26675	-0.318
Mof_O 	O 	0.75867	0.46501	0.59771	-0.444
Mof_O 	O 	0.83861	0.44542	0.51277	-0.437
Mof_O 	O 	0.67302	0.69279	0.5971	-0.463
Mof_O 	O 	0.66041	0.74298	0.48841	-0.476
Mof_C 	C 	0.77144	0.594	0.29431	0.374
Mof_C 	C 	0.76224	0.59421	0.37818	-0.133
Mof_C 	C 	0.72804	0.64416	0.41352	0.082
Mof_H 	H 	0.7134	0.6797	0.3856	0.029
Mof_C 	C 	0.71558	0.64162	0.48956	-0.145
Mof_C 	C 	0.7374	0.5883	0.53101	0.081
Mof_H 	H 	0.7289	0.5862	0.5822	0.037
Mof_C 	C 	0.77159	0.53856	0.49651	-0.127
Mof_C 	C 	0.78432	0.54214	0.41946	0.074
Mof_H 	H 	0.8079	0.509	0.3961	0.031
Mof_C 	C 	0.68078	0.6974	0.52771	0.411
Mof_C 	C 	0.7915	0.47718	0.53888	0.384
Mof_Co	Co	0.74225	0.88106	0.65066	1.183
Mof_O 	O 	0.76421	0.87099	0.75574	-0.433
Mof_O 	O 	0.68728	0.9416	0.76675	-0.298
Mof_O 	O 	0.74133	0.03499	0.09771	-0.424
Mof_O 	O 	0.66139	0.05458	0.01277	-0.434
Mof_O 	O 	0.82698	0.80721	0.0971	-0.419
Mof_O 	O 	0.83959	0.75702	0.98841	-0.368
Mof_C 	C 	0.72856	0.906	0.79431	0.318
Mof_C 	C 	0.73776	0.90579	0.87818	0.021
Mof_C 	C 	0.77196	0.85584	0.91352	-0.121
Mof_H 	H 	0.7866	0.8203	0.8856	0.101
Mof_C 	C 	0.78442	0.85838	0.98956	0.166
Mof_C 	C 	0.7626	0.9117	0.03101	-0.292
Mof_H 	H 	0.7711	0.9138	0.0822	0.153
Mof_C 	C 	0.72841	0.96144	0.99651	0.16
Mof_C 	C 	0.71568	0.95786	0.91946	-0.112
Mof_H 	H 	0.6921	0.991	0.8961	0.104
Mof_C 	C 	0.81922	0.8026	0.02771	0.19
Mof_C 	C 	0.7085	0.02282	0.03888	0.25
Mof_Co	Co	0.24225	0.38106	0.15066	1.177
Mof_O 	O 	0.26421	0.37099	0.25574	-0.455
Mof_O 	O 	0.18728	0.4416	0.26675	-0.318
Mof_O 	O 	0.24133	0.53499	0.59771	-0.444
Mof_O 	O 	0.16139	0.55458	0.51277	-0.437
Mof_O 	O 	0.32698	0.30721	0.5971	-0.463
Mof_O 	O 	0.33959	0.25702	0.48841	-0.476
Mof_C 	C 	0.22856	0.406	0.29431	0.374
Mof_C 	C 	0.23776	0.40579	0.37818	-0.133
Mof_C 	C 	0.27196	0.35584	0.41352	0.082
Mof_H 	H 	0.2866	0.3203	0.3856	0.029
Mof_C 	C 	0.28442	0.35838	0.48956	-0.145
Mof_C 	C 	0.2626	0.4117	0.53101	0.081
Mof_H 	H 	0.2711	0.4138	0.5822	0.037
Mof_C 	C 	0.22841	0.46144	0.49651	-0.127
Mof_C 	C 	0.21568	0.45786	0.41946	0.074
Mof_H 	H 	0.1921	0.491	0.3961	0.031
Mof_C 	C 	0.31922	0.3026	0.52771	0.411
Mof_C 	C 	0.2085	0.52282	0.53888	0.384
Mof_Co	Co	0.88106	0.25775	0.65066	1.183
Mof_O 	O 	0.87099	0.23579	0.75574	-0.433
Mof_O 	O 	0.9416	0.31272	0.76675	-0.298
Mof_O 	O 	0.03499	0.25867	0.09771	-0.424
Mof_O 	O 	0.05458	0.33861	0.01277	-0.434
Mof_O 	O 	0.80721	0.17302	0.0971	-0.419
Mof_O 	O 	0.75702	0.16041	0.98841	-0.368
Mof_C 	C 	0.906	0.27144	0.79431	0.318
Mof_C 	C 	0.90579	0.26224	0.87818	0.021
Mof_C 	C 	0.85584	0.22804	0.91352	-0.121
Mof_H 	H 	0.8203	0.2134	0.8856	0.101
Mof_C 	C 	0.85838	0.21558	0.98956	0.166
Mof_C 	C 	0.9117	0.2374	0.03101	-0.292
Mof_H 	H 	0.9138	0.2289	0.0822	0.153
Mof_C 	C 	0.96144	0.27159	0.99651	0.16
Mof_C 	C 	0.95786	0.28432	0.91946	-0.112
Mof_H 	H 	0.991	0.3079	0.8961	0.104
Mof_C 	C 	0.8026	0.18078	0.02771	0.19
Mof_C 	C 	0.02282	0.2915	0.03888	0.25
Mof_Co	Co	0.38106	0.75775	0.15066	1.177
Mof_O 	O 	0.37099	0.73579	0.25574	-0.455
Mof_O 	O 	0.4416	0.81272	0.26675	-0.318
Mof_O 	O 	0.53499	0.75867	0.59771	-0.444
Mof_O 	O 	0.55458	0.83861	0.51277	-0.437
Mof_O 	O 	0.30721	0.67302	0.5971	-0.463
Mof_O 	O 	0.25702	0.66041	0.48841	-0.476
Mof_C 	C 	0.406	0.77144	0.29431	0.374
Mof_C 	C 	0.40579	0.76224	0.37818	-0.133
Mof_C 	C 	0.35584	0.72804	0.41352	0.082
Mof_H 	H 	0.3203	0.7134	0.3856	0.029
Mof_C 	C 	0.35838	0.71558	0.48956	-0.145
Mof_C 	C 	0.4117	0.7374	0.53101	0.081
Mof_H 	H 	0.4138	0.7289	0.5822	0.037
Mof_C 	C 	0.46144	0.77159	0.49651	-0.127
Mof_C 	C 	0.45786	0.78432	0.41946	0.074
Mof_H 	H 	0.491	0.8079	0.3961	0.031
Mof_C 	C 	0.3026	0.68078	0.52771	0.411
Mof_C 	C 	0.52282	0.7915	0.53888	0.384
Mof_Co	Co	0.11894	0.74225	0.65066	1.183
Mof_O 	O 	0.12901	0.76421	0.75574	-0.433
Mof_O 	O 	0.0584	0.68728	0.76675	-0.298
Mof_O 	O 	0.96501	0.74133	0.09771	-0.424
Mof_O 	O 	0.94542	0.66139	0.01277	-0.434
Mof_O 	O 	0.19279	0.82698	0.0971	-0.419
Mof_O 	O 	0.24298	0.83959	0.98841	-0.368
Mof_C 	C 	0.094	0.72856	0.79431	0.318
Mof_C 	C 	0.09421	0.73776	0.87818	0.021
Mof_C 	C 	0.14416	0.77196	0.91352	-0.121
Mof_H 	H 	0.1797	0.7866	0.8856	0.101
Mof_C 	C 	0.14162	0.78442	0.98956	0.166
Mof_C 	C 	0.0883	0.7626	0.03101	-0.292
Mof_H 	H 	0.0862	0.7711	0.0822	0.153
Mof_C 	C 	0.03856	0.72841	0.99651	0.16
Mof_C 	C 	0.04214	0.71568	0.91946	-0.112
Mof_H 	H 	0.009	0.6921	0.8961	0.104
Mof_C 	C 	0.1974	0.81922	0.02771	0.19
Mof_C 	C 	0.97718	0.7085	0.03888	0.25
Mof_Co	Co	0.61894	0.24225	0.15066	1.177
Mof_O 	O 	0.62901	0.26421	0.25574	-0.455
Mof_O 	O 	0.5584	0.18728	0.26675	-0.318
Mof_O 	O 	0.46501	0.24133	0.59771	-0.444
Mof_O 	O 	0.44542	0.16139	0.51277	-0.437
Mof_O 	O 	0.69279	0.32698	0.5971	-0.463
Mof_O 	O 	0.74298	0.33959	0.48841	-0.476
Mof_C 	C 	0.594	0.22856	0.29431	0.374
Mof_C 	C 	0.59421	0.23776	0.37818	-0.133
Mof_C 	C 	0.64416	0.27196	0.41352	0.082
Mof_H 	H 	0.6797	0.2866	0.3856	0.029
Mof_C 	C 	0.64162	0.28442	0.48956	-0.145
Mof_C 	C 	0.5883	0.2626	0.53101	0.081
Mof_H 	H 	0.5862	0.2711	0.5822	0.037
Mof_C 	C 	0.53856	0.22841	0.49651	-0.127
Mof_C 	C 	0.54214	0.21568	0.41946	0.074
Mof_H 	H 	0.509	0.1921	0.3961	0.031
Mof_C 	C 	0.6974	0.31922	0.52771	0.411
Mof_C 	C 	0.47718	0.2085	0.53888	0.384
Mof_Co	Co	0.25775	0.88106	0.15066	1.178
Mof_O 	O 	0.23579	0.87099	0.25574	-0.455
Mof_O 	O 	0.31272	0.9416	0.26675	-0.318
Mof_O 	O 	0.25867	0.03499	0.59771	-0.444
Mof_O 	O 	0.33861	0.05458	0.51277	-0.437
Mof_O 	O 	0.17302	0.80721	0.5971	-0.463
Mof_O 	O 	0.16041	0.75702	0.48841	-0.476
Mof_C 	C 	0.27144	0.906	0.29431	0.374
Mof_C 	C 	0.26224	0.90579	0.37818	-0.133
Mof_C 	C 	0.22804	0.85584	0.41352	0.082
Mof_H 	H 	0.2134	0.8203	0.3856	0.029
Mof_C 	C 	0.21558	0.85838	0.48956	-0.145
Mof_C 	C 	0.2374	0.9117	0.53101	0.081
Mof_H 	H 	0.2289	0.9138	0.5822	0.037
Mof_C 	C 	0.27159	0.96144	0.49651	-0.127
Mof_C 	C 	0.28432	0.95786	0.41946	0.075
Mof_H 	H 	0.3079	0.991	0.3961	0.031
Mof_C 	C 	0.18078	0.8026	0.52771	0.411
Mof_C 	C 	0.2915	0.02282	0.53888	0.384
Mof_Co	Co	0.75775	0.38106	0.65066	1.183
Mof_O 	O 	0.73579	0.37099	0.75574	-0.433
Mof_O 	O 	0.81272	0.4416	0.76675	-0.298
Mof_O 	O 	0.75867	0.53499	0.09771	-0.424
Mof_O 	O 	0.83861	0.55458	0.01277	-0.434
Mof_O 	O 	0.67302	0.30721	0.0971	-0.418
Mof_O 	O 	0.66041	0.25702	0.98841	-0.367
Mof_C 	C 	0.77144	0.406	0.79431	0.317
Mof_C 	C 	0.76224	0.40579	0.87818	0.023
Mof_C 	C 	0.72804	0.35584	0.91352	-0.123
Mof_H 	H 	0.7134	0.3203	0.8856	0.102
Mof_C 	C 	0.71558	0.35838	0.98956	0.169
Mof_C 	C 	0.7374	0.4117	0.03101	-0.296
Mof_H 	H 	0.7289	0.4138	0.0822	0.154
Mof_C 	C 	0.77159	0.46144	0.99651	0.163
Mof_C 	C 	0.78432	0.45786	0.91946	-0.114
Mof_H 	H 	0.8079	0.491	0.8961	0.105
Mof_C 	C 	0.68078	0.3026	0.02771	0.188
Mof_C 	C 	0.7915	0.52282	0.03888	0.249
Mof_Co	Co	0.74225	0.11894	0.15066	1.178
Mof_O 	O 	0.76421	0.12901	0.25574	-0.455
Mof_O 	O 	0.68728	0.0584	0.26675	-0.318
Mof_O 	O 	0.74133	0.96501	0.59771	-0.444
Mof_O 	O 	0.66139	0.94542	0.51277	-0.437
Mof_O 	O 	0.82698	0.19279	0.5971	-0.463
Mof_O 	O 	0.83959	0.24298	0.48841	-0.476
Mof_C 	C 	0.72856	0.094	0.29431	0.374
Mof_C 	C 	0.73776	0.09421	0.37818	-0.133
Mof_C 	C 	0.77196	0.14416	0.41352	0.082
Mof_H 	H 	0.7866	0.1797	0.3856	0.029
Mof_C 	C 	0.78442	0.14162	0.48956	-0.145
Mof_C 	C 	0.7626	0.0883	0.53101	0.081
Mof_H 	H 	0.7711	0.0862	0.5822	0.037
Mof_C 	C 	0.72841	0.03856	0.49651	-0.127
Mof_C 	C 	0.71568	0.04214	0.41946	0.075
Mof_H 	H 	0.6921	0.009	0.3961	0.031
Mof_C 	C 	0.81922	0.1974	0.52771	0.411
Mof_C 	C 	0.7085	0.97718	0.53888	0.384
Mof_Co	Co	0.24225	0.61894	0.65066	1.183
Mof_O 	O 	0.26421	0.62901	0.75574	-0.433
Mof_O 	O 	0.18728	0.5584	0.76675	-0.298
Mof_O 	O 	0.24133	0.46501	0.09771	-0.424
Mof_O 	O 	0.16139	0.44542	0.01277	-0.434
Mof_O 	O 	0.32698	0.69279	0.0971	-0.418
Mof_O 	O 	0.33959	0.74298	0.98841	-0.367
Mof_C 	C 	0.22856	0.594	0.79431	0.317
Mof_C 	C 	0.23776	0.59421	0.87818	0.023
Mof_C 	C 	0.27196	0.64416	0.91352	-0.123
Mof_H 	H 	0.2866	0.6797	0.8856	0.102
Mof_C 	C 	0.28442	0.64162	0.98956	0.169
Mof_C 	C 	0.2626	0.5883	0.03101	-0.296
Mof_H 	H 	0.2711	0.5862	0.0822	0.154
Mof_C 	C 	0.22841	0.53856	0.99651	0.163
Mof_C 	C 	0.21568	0.54214	0.91946	-0.114
Mof_H 	H 	0.1921	0.509	0.8961	0.105
Mof_C 	C 	0.31922	0.6974	0.02771	0.188
Mof_C 	C 	0.2085	0.47718	0.03888	0.249
Mof_Co	Co	0.88106	0.74225	0.15066	1.178
Mof_O 	O 	0.87099	0.76421	0.25574	-0.455
Mof_O 	O 	0.9416	0.68728	0.26675	-0.318
Mof_O 	O 	0.03499	0.74133	0.59771	-0.444
Mof_O 	O 	0.05458	0.66139	0.51277	-0.437
Mof_O 	O 	0.80721	0.82698	0.5971	-0.463
Mof_O 	O 	0.75702	0.83959	0.48841	-0.476
Mof_C 	C 	0.906	0.72856	0.29431	0.374
Mof_C 	C 	0.90579	0.73776	0.37818	-0.133
Mof_C 	C 	0.85584	0.77196	0.41352	0.082
Mof_H 	H 	0.8203	0.7866	0.3856	0.029
Mof_C 	C 	0.85838	0.78442	0.48956	-0.145
Mof_C 	C 	0.9117	0.7626	0.53101	0.081
Mof_H 	H 	0.9138	0.7711	0.5822	0.037
Mof_C 	C 	0.96144	0.72841	0.49651	-0.127
Mof_C 	C 	0.95786	0.71568	0.41946	0.075
Mof_H 	H 	0.991	0.6921	0.3961	0.031
Mof_C 	C 	0.8026	0.81922	0.52771	0.411
Mof_C 	C 	0.02282	0.7085	0.53888	0.384
Mof_Co	Co	0.38106	0.24225	0.65066	1.183
Mof_O 	O 	0.37099	0.26421	0.75574	-0.433
Mof_O 	O 	0.4416	0.18728	0.76675	-0.298
Mof_O 	O 	0.53499	0.24133	0.09771	-0.424
Mof_O 	O 	0.55458	0.16139	0.01277	-0.434
Mof_O 	O 	0.30721	0.32698	0.0971	-0.418
Mof_O 	O 	0.25702	0.33959	0.98841	-0.367
Mof_C 	C 	0.406	0.22856	0.79431	0.317
Mof_C 	C 	0.40579	0.23776	0.87818	0.023
Mof_C 	C 	0.35584	0.27196	0.91352	-0.123
Mof_H 	H 	0.3203	0.2866	0.8856	0.102
Mof_C 	C 	0.35838	0.28442	0.98956	0.169
Mof_C 	C 	0.4117	0.2626	0.03101	-0.296
Mof_H 	H 	0.4138	0.2711	0.0822	0.154
Mof_C 	C 	0.46144	0.22841	0.99651	0.163
Mof_C 	C 	0.45786	0.21568	0.91946	-0.114
Mof_H 	H 	0.491	0.1921	0.8961	0.105
Mof_C 	C 	0.3026	0.31922	0.02771	0.188
Mof_C 	C 	0.52282	0.2085	0.03888	0.249
Mof_Co	Co	0.11894	0.25775	0.15066	1.178
Mof_O 	O 	0.12901	0.23579	0.25574	-0.455
Mof_O 	O 	0.0584	0.31272	0.26675	-0.318
Mof_O 	O 	0.96501	0.25867	0.59771	-0.444
Mof_O 	O 	0.94542	0.33861	0.51277	-0.437
Mof_O 	O 	0.19279	0.17302	0.5971	-0.463
Mof_O 	O 	0.24298	0.16041	0.48841	-0.476
Mof_C 	C 	0.094	0.27144	0.29431	0.374
Mof_C 	C 	0.09421	0.26224	0.37818	-0.133
Mof_C 	C 	0.14416	0.22804	0.41352	0.082
Mof_H 	H 	0.1797	0.2134	0.3856	0.029
Mof_C 	C 	0.14162	0.21558	0.48956	-0.145
Mof_C 	C 	0.0883	0.2374	0.53101	0.081
Mof_H 	H 	0.0862	0.2289	0.5822	0.037
Mof_C 	C 	0.03856	0.27159	0.49651	-0.127
Mof_C 	C 	0.04214	0.28432	0.41946	0.075
Mof_H 	H 	0.009	0.3079	0.3961	0.031
Mof_C 	C 	0.1974	0.18078	0.52771	0.411
Mof_C 	C 	0.97718	0.2915	0.53888	0.384
Mof_Co	Co	0.61894	0.75775	0.65066	1.183
Mof_O 	O 	0.62901	0.73579	0.75574	-0.433
Mof_O 	O 	0.5584	0.81272	0.76675	-0.298
Mof_O 	O 	0.46501	0.75867	0.09771	-0.424
Mof_O 	O 	0.44542	0.83861	0.01277	-0.434
Mof_O 	O 	0.69279	0.67302	0.0971	-0.418
Mof_O 	O 	0.74298	0.66041	0.98841	-0.367
Mof_C 	C 	0.594	0.77144	0.79431	0.317
Mof_C 	C 	0.59421	0.76224	0.87818	0.023
Mof_C 	C 	0.64416	0.72804	0.91352	-0.123
Mof_H 	H 	0.6797	0.7134	0.8856	0.102
Mof_C 	C 	0.64162	0.71558	0.98956	0.169
Mof_C 	C 	0.5883	0.7374	0.03101	-0.296
Mof_H 	H 	0.5862	0.7289	0.0822	0.154
Mof_C 	C 	0.53856	0.77159	0.99651	0.163
Mof_C 	C 	0.54214	0.78432	0.91946	-0.114
Mof_H 	H 	0.509	0.8079	0.8961	0.105
Mof_C 	C 	0.6974	0.68078	0.02771	0.188
Mof_C 	C 	0.47718	0.7915	0.03888	0.249
Mof_Zn	Zn	0.3441	0.1559	0.5045	1.216
Mof_O 	O 	0.34076	0.15924	0.62375	-0.63
Mof_Zn	Zn	0.6559	0.8441	0.5045	1.216
Mof_O 	O 	0.65924	0.84076	0.62375	-0.63
Mof_Zn	Zn	0.1559	0.3441	0.0045	1.194
Mof_O 	O 	0.15924	0.34076	0.12375	-0.636
Mof_Zn	Zn	0.8441	0.3441	0.5045	1.216
Mof_O 	O 	0.84076	0.34076	0.62375	-0.63
Mof_Zn	Zn	0.1559	0.6559	0.5045	1.216
Mof_O 	O 	0.15924	0.65924	0.62375	-0.63
Mof_Zn	Zn	0.3441	0.8441	0.0045	1.194
Mof_O 	O 	0.34076	0.84076	0.12375	-0.636
Mof_Zn	Zn	0.6559	0.1559	0.0045	1.194
Mof_O 	O 	0.65924	0.15924	0.12375	-0.636
Mof_Zn	Zn	0.8441	0.6559	0.0045	1.194
Mof_O 	O 	0.84076	0.65924	0.12375	-0.636
_end
