data_functionalizedCrystal
_audit_creation_method	'EQeq! by Chris Wilmer'
_symmetry_space_group_name_H-M	'P1'
_symmetry_Int_Tables_number	1
_symmetry_cell_setting	triclinic
loop_
_symmetry_equiv_pos_as_xyz
  x,y,z
_cell_length_a	10.213
_cell_length_b	17.607
_cell_length_c	28.123
_cell_angle_alpha	90
_cell_angle_beta	98.6
_cell_angle_gamma	90
loop_
_atom_site_label
_atom_site_type_symbol
_atom_site_fract_x
_atom_site_fract_y
_atom_site_fract_z
_atom_site_charge
Mof_Co	Co	0.20943	0.62384	0.16944	1.187
Mof_Co	Co	0.00826	0.54941	0.25564	1.099
Mof_O 	O 	0.6692	0.3456	0.87725	-0.394
Mof_O 	O 	0.5426	0.3844	0.8113	-0.327
Mof_O 	O 	0.2112	0.51261	0.16813	-0.462
Mof_O 	O 	0.1192	0.4651	0.22943	-0.475
Mof_O 	O 	0.2765	0.1999	0.27846	-0.451
Mof_O 	O 	0.3411	0.124	0.22294	-0.484
Mof_O 	O 	0.0546	0.3939	0.80726	-0.511
Mof_O 	O 	0.9661	0.3531	0.86943	-0.438
Mof_C 	C 	0.1798	0.4593	0.19412	0.391
Mof_C 	C 	0.2226	0.3811	0.18045	-0.09
Mof_C 	C 	0.2339	0.3215	0.21291	0.026
Mof_H 	H 	0.2089	0.3285	0.2431	0.039
Mof_C 	C 	0.2823	0.2511	0.20096	-0.092
Mof_C 	C 	0.3173	0.2398	0.15513	-0.05
Mof_H 	H 	0.3498	0.1931	0.1468	0.053
Mof_C 	C 	0.303	0.2989	0.12244	0.07
Mof_C 	C 	0.2554	0.3697	0.13505	-0.048
Mof_H 	H 	0.2458	0.4091	0.1128	0.067
Mof_C 	C 	0.2842	0.3201	0.03333	-0.017
Mof_H 	H 	0.2092	0.3506	0.0286	0.044
Mof_C 	C 	0.3413	0.3178	0.94901	-0.017
Mof_C 	C 	0.5566	0.3609	0.85317	0.308
Mof_C 	C 	0.4369	0.349	0.87759	-0.079
Mof_C 	C 	0.3098	0.3627	0.85309	0.033
Mof_H 	H 	0.2987	0.3784	0.8212	0.023
Mof_C 	C 	0.4524	0.3269	0.92592	-0.016
Mof_H 	H 	0.5367	0.3182	0.9427	0.062
Mof_C 	C 	0.3018	0.1864	0.23687	0.379
Mof_C 	C 	0.0639	0.369	0.8486	0.401
Mof_C 	C 	0.2002	0.3531	0.87613	-0.115
Mof_C 	C 	0.2154	0.3307	0.92352	-0.001
Mof_H 	H 	0.1412	0.3241	0.9386	0.048
Mof_C 	C 	0.3563	0.2978	0.99929	0.063
Mof_N 	N 	0.3402	0.2902	0.07474	-0.088
Mof_N 	N 	0.4484	0.2515	0.0671	-0.052
Mof_N 	N 	0.4583	0.2572	0.0213	-0.084
Mof_Co	Co	0.29057	0.12384	0.33056	1.186
Mof_Co	Co	0.49174	0.04941	0.24436	1.099
Mof_O 	O 	0.8308	0.8456	0.62275	-0.394
Mof_O 	O 	0.9574	0.8844	0.6887	-0.328
Mof_O 	O 	0.2888	0.01261	0.33187	-0.462
Mof_O 	O 	0.3808	0.9651	0.27057	-0.475
Mof_O 	O 	0.2235	0.6999	0.22154	-0.451
Mof_O 	O 	0.1589	0.624	0.27706	-0.484
Mof_O 	O 	0.4454	0.8939	0.69274	-0.511
Mof_O 	O 	0.5339	0.8531	0.63057	-0.437
Mof_C 	C 	0.3202	0.9593	0.30588	0.391
Mof_C 	C 	0.2774	0.8811	0.31955	-0.09
Mof_C 	C 	0.2661	0.8215	0.28709	0.025
Mof_H 	H 	0.2911	0.8285	0.2569	0.039
Mof_C 	C 	0.2177	0.7511	0.29904	-0.092
Mof_C 	C 	0.1827	0.7398	0.34487	-0.05
Mof_H 	H 	0.1502	0.6931	0.3532	0.053
Mof_C 	C 	0.197	0.7989	0.37756	0.07
Mof_C 	C 	0.2446	0.8697	0.36495	-0.048
Mof_H 	H 	0.2542	0.9091	0.3872	0.067
Mof_C 	C 	0.2158	0.8201	0.46667	-0.016
Mof_H 	H 	0.2908	0.8506	0.4714	0.044
Mof_C 	C 	0.1587	0.8178	0.55099	-0.017
Mof_C 	C 	0.9434	0.8609	0.64683	0.307
Mof_C 	C 	0.0631	0.849	0.62241	-0.079
Mof_C 	C 	0.1902	0.8627	0.64691	0.033
Mof_H 	H 	0.2013	0.8784	0.6788	0.023
Mof_C 	C 	0.0476	0.8269	0.57408	-0.016
Mof_H 	H 	0.9633	0.8182	0.5573	0.062
Mof_C 	C 	0.1982	0.6864	0.26313	0.379
Mof_C 	C 	0.4361	0.869	0.6514	0.401
Mof_C 	C 	0.2998	0.8531	0.62387	-0.115
Mof_C 	C 	0.2846	0.8307	0.57648	-0.001
Mof_H 	H 	0.3588	0.8241	0.5614	0.048
Mof_C 	C 	0.1437	0.7978	0.50071	0.063
Mof_N 	N 	0.1598	0.7902	0.42526	-0.088
Mof_N 	N 	0.0516	0.7515	0.4329	-0.052
Mof_N 	N 	0.0417	0.7572	0.4787	-0.084
Mof_Co	Co	0.79057	0.37616	0.83056	1.186
Mof_Co	Co	0.99174	0.45059	0.74436	1.098
Mof_O 	O 	0.3308	0.6544	0.12275	-0.395
Mof_O 	O 	0.4574	0.6156	0.1887	-0.328
Mof_O 	O 	0.7888	0.48739	0.83187	-0.462
Mof_O 	O 	0.8808	0.5349	0.77057	-0.475
Mof_O 	O 	0.7235	0.8001	0.72154	-0.451
Mof_O 	O 	0.6589	0.876	0.77706	-0.484
Mof_O 	O 	0.9454	0.6061	0.19274	-0.511
Mof_O 	O 	0.0339	0.6469	0.13057	-0.438
Mof_C 	C 	0.8202	0.5407	0.80588	0.391
Mof_C 	C 	0.7774	0.6189	0.81955	-0.09
Mof_C 	C 	0.7661	0.6785	0.78709	0.026
Mof_H 	H 	0.7911	0.6715	0.7569	0.039
Mof_C 	C 	0.7177	0.7489	0.79904	-0.092
Mof_C 	C 	0.6827	0.7602	0.84487	-0.05
Mof_H 	H 	0.6502	0.8069	0.8532	0.053
Mof_C 	C 	0.697	0.7011	0.87756	0.07
Mof_C 	C 	0.7446	0.6303	0.86495	-0.048
Mof_H 	H 	0.7542	0.5909	0.8872	0.067
Mof_C 	C 	0.7158	0.6799	0.96667	-0.017
Mof_H 	H 	0.7908	0.6494	0.9714	0.044
Mof_C 	C 	0.6587	0.6822	0.05099	-0.017
Mof_C 	C 	0.4434	0.6391	0.14683	0.308
Mof_C 	C 	0.5631	0.651	0.12241	-0.079
Mof_C 	C 	0.6902	0.6373	0.14691	0.033
Mof_H 	H 	0.7013	0.6216	0.1788	0.023
Mof_C 	C 	0.5476	0.6731	0.07408	-0.016
Mof_H 	H 	0.4633	0.6818	0.0573	0.062
Mof_C 	C 	0.6982	0.8136	0.76313	0.379
Mof_C 	C 	0.9361	0.631	0.1514	0.401
Mof_C 	C 	0.7998	0.6469	0.12387	-0.115
Mof_C 	C 	0.7846	0.6693	0.07648	-0.001
Mof_H 	H 	0.8588	0.6759	0.0614	0.048
Mof_C 	C 	0.6437	0.7022	0.00071	0.063
Mof_N 	N 	0.6598	0.7098	0.92526	-0.088
Mof_N 	N 	0.5516	0.7485	0.9329	-0.052
Mof_N 	N 	0.5417	0.7428	0.9787	-0.084
Mof_Co	Co	0.70943	0.87616	0.66944	1.186
Mof_Co	Co	0.50826	0.95059	0.75564	1.099
Mof_O 	O 	0.1692	0.1544	0.37725	-0.394
Mof_O 	O 	0.0426	0.1156	0.3113	-0.328
Mof_O 	O 	0.7112	0.98739	0.66813	-0.462
Mof_O 	O 	0.6192	0.0349	0.72943	-0.475
Mof_O 	O 	0.7765	0.3001	0.77846	-0.451
Mof_O 	O 	0.8411	0.376	0.72294	-0.484
Mof_O 	O 	0.5546	0.1061	0.30726	-0.511
Mof_O 	O 	0.4661	0.1469	0.36943	-0.437
Mof_C 	C 	0.6798	0.0407	0.69412	0.391
Mof_C 	C 	0.7226	0.1189	0.68045	-0.09
Mof_C 	C 	0.7339	0.1785	0.71291	0.025
Mof_H 	H 	0.7089	0.1715	0.7431	0.039
Mof_C 	C 	0.7823	0.2489	0.70096	-0.092
Mof_C 	C 	0.8173	0.2602	0.65513	-0.05
Mof_H 	H 	0.8498	0.3069	0.6468	0.053
Mof_C 	C 	0.803	0.2011	0.62244	0.07
Mof_C 	C 	0.7554	0.1303	0.63505	-0.048
Mof_H 	H 	0.7458	0.0909	0.6128	0.067
Mof_C 	C 	0.7842	0.1799	0.53333	-0.016
Mof_H 	H 	0.7092	0.1494	0.5286	0.044
Mof_C 	C 	0.8413	0.1822	0.44901	-0.017
Mof_C 	C 	0.0566	0.1391	0.35317	0.307
Mof_C 	C 	0.9369	0.151	0.37759	-0.079
Mof_C 	C 	0.8098	0.1373	0.35309	0.033
Mof_H 	H 	0.7987	0.1216	0.3212	0.023
Mof_C 	C 	0.9524	0.1731	0.42592	-0.016
Mof_H 	H 	0.0367	0.1818	0.4427	0.062
Mof_C 	C 	0.8018	0.3136	0.73687	0.379
Mof_C 	C 	0.5639	0.131	0.3486	0.401
Mof_C 	C 	0.7002	0.1469	0.37613	-0.115
Mof_C 	C 	0.7154	0.1693	0.42352	-0.001
Mof_H 	H 	0.6412	0.1759	0.4386	0.048
Mof_C 	C 	0.8563	0.2022	0.49929	0.063
Mof_N 	N 	0.8402	0.2098	0.57474	-0.088
Mof_N 	N 	0.9484	0.2485	0.5671	-0.052
Mof_N 	N 	0.9583	0.2428	0.5213	-0.084
_end
