data_functionalizedCrystal
_audit_creation_method	'EQeq! by Chris Wilmer'
_symmetry_space_group_name_H-M	'P1'
_symmetry_Int_Tables_number	1
_symmetry_cell_setting	triclinic
loop_
_symmetry_equiv_pos_as_xyz
  x,y,z
_cell_length_a	10.9329
_cell_length_b	28.934
_cell_length_c	15.0328
_cell_angle_alpha	90
_cell_angle_beta	90.37
_cell_angle_gamma	90
loop_
_atom_site_label
_atom_site_type_symbol
_atom_site_fract_x
_atom_site_fract_y
_atom_site_fract_z
_atom_site_charge
Mof_Co	Co	0.66199	0.00926	0.87251	1.194
Mof_Co	Co	0.99731	0.89611	0.96828	1.175
Mof_Co	Co	0.91908	0.02074	0.73177	1.187
Mof_N 	N 	0.9932	0.83814	0.05723	-0.24
Mof_N 	N 	0.0042	0.65169	0.36093	-0.237
Mof_O 	O 	0.6457	0.95994	0.77074	-0.431
Mof_O 	O 	0.7972	0.97581	0.67873	-0.463
Mof_O 	O 	0.55561	0.87076	0.76173	-0.301
Mof_O 	O 	0.046	0.96765	0.73922	-0.424
Mof_O 	O 	0.03612	0.95007	0.88164	-0.456
Mof_O 	O 	0.17813	0.90317	0.00563	-0.417
Mof_O 	O 	0.33454	0.95233	0.00522	-0.379
Mof_O 	O 	0.65931	0.95366	0.96327	-0.386
Mof_O 	O 	0.81777	0.9081	0.93439	-0.422
Mof_O 	O 	0.95925	0.93839	0.07718	-0.464
Mof_O 	O 	0.9417	0.93886	0.22271	-0.444
Mof_O 	O 	0.44546	0.83992	0.16123	-0.303
Mof_O 	O 	0.3591	0.92967	0.1997	-0.441
Mof_O 	O 	0.1902	0.92361	0.28067	-0.464
Mof_O 	O 	0.8536	0.00926	0.86772	-1.15
Mof_H 	H 	0.8824	0.981	0.8705	0.436
Mof_H 	H 	0.8882	0.0302	0.8881	0.551
Mof_C 	C 	0.7143	0.95058	0.7081	0.445
Mof_C 	C 	0.6958	0.90578	0.6562	-0.216
Mof_C 	C 	0.7675	0.89864	0.5831	0.084
Mof_H 	H 	0.8248	0.9211	0.5682	0.015
Mof_C 	C 	0.0618	0.83824	0.1302	0.093
Mof_H 	H 	0.1105	0.864	0.1412	0.003
Mof_C 	C 	0.8365	0.85066	0.4561	0.042
Mof_H 	H 	0.8972	0.8719	0.442	0.015
Mof_C 	C 	0.7583	0.85865	0.5294	-0.11
Mof_C 	C 	0.7314	0.7795	0.4252	0.085
Mof_H 	H 	0.7217	0.7536	0.3891	0.002
Mof_C 	C 	0.6566	0.78577	0.4963	-0.205
Mof_H 	H 	0.5968	0.7639	0.5091	0.107
Mof_C 	C 	0.6694	0.82541	0.5508	0.179
Mof_C 	C 	0.5996	0.8318	0.6278	-0.301
Mof_H 	H 	0.5425	0.8095	0.6436	0.14
Mof_C 	C 	0.6138	0.86988	0.6799	0.287
Mof_C 	C 	0.44	0.88903	0.7682	0.287
Mof_C 	C 	0.4035	0.89855	0.8535	-0.211
Mof_H 	H 	0.4572	0.8934	0.9007	0.124
Mof_C 	C 	0.2873	0.91584	0.8701	0.034
Mof_C 	C 	0.2089	0.92528	0.7985	-0.175
Mof_C 	C 	0.2494	0.91542	0.713	0.148
Mof_H 	H 	0.1977	0.9215	0.665	-0.007
Mof_C 	C 	0.3638	0.89694	0.6968	-0.277
Mof_H 	H 	0.3885	0.8901	0.6392	0.134
Mof_C 	C 	0.2619	0.92517	0.9674	0.329
Mof_C 	C 	0.0895	0.94901	0.8077	0.399
Mof_C 	C 	0.7325	0.92223	0.9829	0.331
Mof_C 	C 	0.7087	0.89926	0.0716	0.037
Mof_C 	C 	0.5953	0.87838	0.0801	-0.212
Mof_H 	H 	0.5422	0.8773	0.0316	0.123
Mof_C 	C 	0.5607	0.85924	0.1596	0.29
Mof_C 	C 	0.6384	0.85962	0.2319	-0.283
Mof_H 	H 	0.6163	0.8454	0.2849	0.14
Mof_C 	C 	0.7494	0.88144	0.2239	0.158
Mof_H 	H 	0.8013	0.8826	0.2731	-0.01
Mof_C 	C 	0.7868	0.90181	0.1448	-0.183
Mof_C 	C 	0.9044	0.92845	0.1474	0.419
Mof_C 	C 	0.3984	0.82951	0.244	0.294
Mof_C 	C 	0.3267	0.86267	0.289	-0.226
Mof_C 	C 	0.2835	0.85014	0.3708	0.085
Mof_H 	H 	0.2354	0.8712	0.4017	0.012
Mof_C 	C 	0.3083	0.80675	0.4109	-0.108
Mof_C 	C 	0.2651	0.79495	0.4967	0.034
Mof_H 	H 	0.2208	0.8163	0.5296	0.019
Mof_C 	C 	0.2888	0.75218	0.5308	-0.132
Mof_H 	H 	0.2602	0.7445	0.587	0.084
Mof_C 	C 	0.3551	0.71994	0.4826	0.076
Mof_H 	H 	0.3704	0.691	0.5072	0.019
Mof_C 	C 	0.398	0.72982	0.4002	-0.2
Mof_H 	H 	0.4417	0.7077	0.3685	0.106
Mof_C 	C 	0.3757	0.77422	0.3625	0.174
Mof_C 	C 	0.4199	0.78704	0.2778	-0.306
Mof_H 	H 	0.4646	0.7658	0.2448	0.142
Mof_C 	C 	0.9253	0.80077	0.0441	0.104
Mof_H 	H 	0.8747	0.8	0.9942	-0.016
Mof_C 	C 	0.9251	0.7635	0.0992	-0.155
Mof_H 	H 	0.8776	0.7378	0.0852	0.089
Mof_C 	C 	0.996	0.76378	0.1763	0.065
Mof_C 	C 	0.0656	0.8027	0.1908	-0.149
Mof_H 	H 	0.1148	0.8049	0.2413	0.087
Mof_C 	C 	0.2914	0.90953	0.2522	0.455
Mof_C 	C 	0.9997	0.72372	0.238	0.056
Mof_C 	C 	0.9052	0.69228	0.2427	-0.136
Mof_H 	H 	0.8378	0.695	0.205	0.083
Mof_C 	C 	0.9112	0.65721	0.3028	0.077
Mof_H 	H 	0.8476	0.6359	0.3038	0.015
Mof_C 	C 	0.095	0.6812	0.3549	0.089
Mof_H 	H 	0.1617	0.6776	0.3929	-0.007
Mof_C 	C 	0.0962	0.71717	0.295	-0.142
Mof_H 	H 	0.1628	0.7371	0.2933	0.083
Mof_C 	C 	0.8219	0.81157	0.4064	-0.143
Mof_H 	H 	0.8739	0.8063	0.3587	0.083
Mof_Co	Co	0.33801	0.50926	0.62749	1.195
Mof_Co	Co	0.00269	0.39611	0.53172	1.178
Mof_Co	Co	0.08092	0.52074	0.76823	1.189
Mof_N 	N 	0.0068	0.33814	0.44277	-0.24
Mof_N 	N 	0.9958	0.15169	0.13907	-0.232
Mof_O 	O 	0.3543	0.45994	0.72926	-0.43
Mof_O 	O 	0.2028	0.47581	0.82127	-0.462
Mof_O 	O 	0.44439	0.37076	0.73827	-0.3
Mof_O 	O 	0.954	0.46765	0.76078	-0.425
Mof_O 	O 	0.96388	0.45007	0.61836	-0.457
Mof_O 	O 	0.82187	0.40317	0.49437	-0.415
Mof_O 	O 	0.66546	0.45233	0.49478	-0.377
Mof_O 	O 	0.34069	0.45366	0.53673	-0.386
Mof_O 	O 	0.18223	0.4081	0.56561	-0.421
Mof_O 	O 	0.04075	0.43839	0.42282	-0.466
Mof_O 	O 	0.0583	0.43886	0.27729	-0.445
Mof_O 	O 	0.55454	0.33992	0.33877	-0.304
Mof_O 	O 	0.6409	0.42967	0.3003	-0.441
Mof_O 	O 	0.8098	0.42361	0.21933	-0.463
Mof_O 	O 	0.1464	0.50926	0.63228	-1.153
Mof_H 	H 	0.1176	0.481	0.6295	0.439
Mof_H 	H 	0.1118	0.5302	0.6119	0.554
Mof_C 	C 	0.2857	0.45058	0.7919	0.445
Mof_C 	C 	0.3042	0.40578	0.8438	-0.216
Mof_C 	C 	0.2325	0.39864	0.9169	0.084
Mof_H 	H 	0.1752	0.4211	0.9318	0.016
Mof_C 	C 	0.9382	0.33824	0.3698	0.094
Mof_H 	H 	0.8895	0.364	0.3588	0.003
Mof_C 	C 	0.1635	0.35066	0.0439	0.04
Mof_H 	H 	0.1028	0.3719	0.058	0.014
Mof_C 	C 	0.2417	0.35865	0.9706	-0.108
Mof_C 	C 	0.2686	0.2795	0.0748	0.088
Mof_H 	H 	0.2783	0.2536	0.1109	0.001
Mof_C 	C 	0.3434	0.28577	0.0037	-0.212
Mof_H 	H 	0.4032	0.2639	0.9909	0.11
Mof_C 	C 	0.3306	0.32541	0.9492	0.182
Mof_C 	C 	0.4004	0.3318	0.8722	-0.303
Mof_H 	H 	0.4575	0.3095	0.8564	0.14
Mof_C 	C 	0.3862	0.36988	0.8201	0.288
Mof_C 	C 	0.56	0.38903	0.7318	0.287
Mof_C 	C 	0.5965	0.39855	0.6465	-0.212
Mof_H 	H 	0.5428	0.3934	0.5993	0.125
Mof_C 	C 	0.7127	0.41584	0.6299	0.035
Mof_C 	C 	0.7911	0.42528	0.7015	-0.176
Mof_C 	C 	0.7506	0.41542	0.787	0.148
Mof_H 	H 	0.8023	0.4215	0.835	-0.008
Mof_C 	C 	0.6362	0.39694	0.8032	-0.277
Mof_H 	H 	0.6115	0.3901	0.8608	0.134
Mof_C 	C 	0.7381	0.42517	0.5326	0.327
Mof_C 	C 	0.9105	0.44901	0.6923	0.4
Mof_C 	C 	0.2675	0.42223	0.5171	0.333
Mof_C 	C 	0.2913	0.39926	0.4284	0.035
Mof_C 	C 	0.4047	0.37838	0.4199	-0.21
Mof_H 	H 	0.4578	0.3773	0.4684	0.122
Mof_C 	C 	0.4393	0.35924	0.3404	0.289
Mof_C 	C 	0.3616	0.35962	0.2681	-0.283
Mof_H 	H 	0.3837	0.3454	0.2151	0.139
Mof_C 	C 	0.2506	0.38144	0.2761	0.158
Mof_H 	H 	0.1987	0.3826	0.2269	-0.01
Mof_C 	C 	0.2132	0.40181	0.3552	-0.182
Mof_C 	C 	0.0956	0.42845	0.3526	0.419
Mof_C 	C 	0.6016	0.32951	0.256	0.295
Mof_C 	C 	0.6733	0.36267	0.211	-0.227
Mof_C 	C 	0.7165	0.35014	0.1292	0.087
Mof_H 	H 	0.7646	0.3712	0.0983	0.011
Mof_C 	C 	0.6917	0.30675	0.0891	-0.111
Mof_C 	C 	0.7349	0.29495	0.0033	0.042
Mof_H 	H 	0.7792	0.3163	0.9704	0.016
Mof_C 	C 	0.7112	0.25218	0.9692	-0.139
Mof_H 	H 	0.7398	0.2445	0.913	0.086
Mof_C 	C 	0.6449	0.21994	0.0174	0.081
Mof_H 	H 	0.6296	0.191	0.9928	0.017
Mof_C 	C 	0.602	0.22982	0.0998	-0.204
Mof_H 	H 	0.5583	0.2077	0.1315	0.108
Mof_C 	C 	0.6243	0.27422	0.1375	0.177
Mof_C 	C 	0.5801	0.28704	0.2222	-0.307
Mof_H 	H 	0.5354	0.2658	0.2552	0.142
Mof_C 	C 	0.0747	0.30077	0.4559	0.095
Mof_H 	H 	0.1253	0.3	0.5058	-0.011
Mof_C 	C 	0.0749	0.2635	0.4008	-0.15
Mof_H 	H 	0.1224	0.2378	0.4148	0.087
Mof_C 	C 	0.004	0.26378	0.3237	0.061
Mof_C 	C 	0.9344	0.3027	0.3092	-0.144
Mof_H 	H 	0.8852	0.3049	0.2587	0.086
Mof_C 	C 	0.7086	0.40953	0.2478	0.455
Mof_C 	C 	0.0003	0.22372	0.262	0.051
Mof_C 	C 	0.0948	0.19228	0.2573	-0.132
Mof_H 	H 	0.1622	0.195	0.295	0.082
Mof_C 	C 	0.0888	0.15721	0.1972	0.071
Mof_H 	H 	0.1524	0.1359	0.1962	0.017
Mof_C 	C 	0.905	0.1812	0.1451	0.086
Mof_H 	H 	0.8383	0.1776	0.1071	-0.006
Mof_C 	C 	0.9038	0.21717	0.205	-0.135
Mof_H 	H 	0.8372	0.2371	0.2067	0.081
Mof_C 	C 	0.1781	0.31157	0.0936	-0.145
Mof_H 	H 	0.1261	0.3063	0.1413	0.082
Mof_Co	Co	0.33801	0.99074	0.12749	1.195
Mof_Co	Co	0.00269	0.10389	0.03172	1.176
Mof_Co	Co	0.08092	0.97926	0.26823	1.188
Mof_N 	N 	0.0068	0.16186	0.94277	-0.239
Mof_N 	N 	0.9958	0.34831	0.63907	-0.236
Mof_O 	O 	0.3543	0.04006	0.22926	-0.43
Mof_O 	O 	0.2028	0.02419	0.32127	-0.462
Mof_O 	O 	0.44439	0.12924	0.23827	-0.3
Mof_O 	O 	0.954	0.03235	0.26078	-0.423
Mof_O 	O 	0.96388	0.04993	0.11836	-0.455
Mof_O 	O 	0.82187	0.09683	0.99437	-0.416
Mof_O 	O 	0.66546	0.04767	0.99478	-0.378
Mof_O 	O 	0.34069	0.04634	0.03673	-0.386
Mof_O 	O 	0.18223	0.0919	0.06561	-0.422
Mof_O 	O 	0.04075	0.06161	0.92282	-0.464
Mof_O 	O 	0.0583	0.06114	0.77729	-0.444
Mof_O 	O 	0.55454	0.16008	0.83877	-0.303
Mof_O 	O 	0.6409	0.07033	0.8003	-0.441
Mof_O 	O 	0.8098	0.07639	0.71933	-0.464
Mof_O 	O 	0.1464	0.99074	0.13228	-1.15
Mof_H 	H 	0.1176	0.019	0.1295	0.436
Mof_H 	H 	0.1118	0.9698	0.1119	0.551
Mof_C 	C 	0.2857	0.04942	0.2919	0.445
Mof_C 	C 	0.3042	0.09422	0.3438	-0.216
Mof_C 	C 	0.2325	0.10136	0.4169	0.084
Mof_H 	H 	0.1752	0.0789	0.4318	0.015
Mof_C 	C 	0.9382	0.16176	0.8698	0.093
Mof_H 	H 	0.8895	0.136	0.8588	0.003
Mof_C 	C 	0.1635	0.14934	0.5439	0.042
Mof_H 	H 	0.1028	0.1281	0.558	0.015
Mof_C 	C 	0.2417	0.14135	0.4706	-0.11
Mof_C 	C 	0.2686	0.2205	0.5748	0.085
Mof_H 	H 	0.2783	0.2464	0.6109	0.002
Mof_C 	C 	0.3434	0.21423	0.5037	-0.205
Mof_H 	H 	0.4032	0.2361	0.4909	0.107
Mof_C 	C 	0.3306	0.17459	0.4492	0.179
Mof_C 	C 	0.4004	0.1682	0.3722	-0.301
Mof_H 	H 	0.4575	0.1905	0.3564	0.14
Mof_C 	C 	0.3862	0.13012	0.3201	0.287
Mof_C 	C 	0.56	0.11097	0.2318	0.287
Mof_C 	C 	0.5965	0.10145	0.1465	-0.211
Mof_H 	H 	0.5428	0.1066	0.0993	0.124
Mof_C 	C 	0.7127	0.08416	0.1299	0.034
Mof_C 	C 	0.7911	0.07472	0.2015	-0.175
Mof_C 	C 	0.7506	0.08458	0.287	0.148
Mof_H 	H 	0.8023	0.0785	0.335	-0.007
Mof_C 	C 	0.6362	0.10306	0.3032	-0.277
Mof_H 	H 	0.6115	0.1099	0.3608	0.134
Mof_C 	C 	0.7381	0.07483	0.0326	0.329
Mof_C 	C 	0.9105	0.05099	0.1923	0.399
Mof_C 	C 	0.2675	0.07777	0.0171	0.331
Mof_C 	C 	0.2913	0.10074	0.9284	0.037
Mof_C 	C 	0.4047	0.12162	0.9199	-0.212
Mof_H 	H 	0.4578	0.1227	0.9684	0.123
Mof_C 	C 	0.4393	0.14076	0.8404	0.29
Mof_C 	C 	0.3616	0.14038	0.7681	-0.283
Mof_H 	H 	0.3837	0.1546	0.7151	0.14
Mof_C 	C 	0.2506	0.11856	0.7761	0.158
Mof_H 	H 	0.1987	0.1174	0.7269	-0.01
Mof_C 	C 	0.2132	0.09819	0.8552	-0.183
Mof_C 	C 	0.0956	0.07155	0.8526	0.419
Mof_C 	C 	0.6016	0.17049	0.756	0.294
Mof_C 	C 	0.6733	0.13733	0.711	-0.226
Mof_C 	C 	0.7165	0.14986	0.6292	0.085
Mof_H 	H 	0.7646	0.1288	0.5983	0.012
Mof_C 	C 	0.6917	0.19325	0.5891	-0.108
Mof_C 	C 	0.7349	0.20505	0.5033	0.034
Mof_H 	H 	0.7792	0.1837	0.4704	0.019
Mof_C 	C 	0.7112	0.24782	0.4692	-0.132
Mof_H 	H 	0.7398	0.2555	0.413	0.084
Mof_C 	C 	0.6449	0.28006	0.5174	0.076
Mof_H 	H 	0.6296	0.309	0.4928	0.019
Mof_C 	C 	0.602	0.27018	0.5998	-0.2
Mof_H 	H 	0.5583	0.2923	0.6315	0.106
Mof_C 	C 	0.6243	0.22578	0.6375	0.174
Mof_C 	C 	0.5801	0.21296	0.7222	-0.306
Mof_H 	H 	0.5354	0.2342	0.7552	0.142
Mof_C 	C 	0.0747	0.19923	0.9559	0.104
Mof_H 	H 	0.1253	0.2	0.0058	-0.016
Mof_C 	C 	0.0749	0.2365	0.9008	-0.155
Mof_H 	H 	0.1224	0.2622	0.9148	0.089
Mof_C 	C 	0.004	0.23622	0.8237	0.065
Mof_C 	C 	0.9344	0.1973	0.8092	-0.149
Mof_H 	H 	0.8852	0.1951	0.7587	0.087
Mof_C 	C 	0.7086	0.09047	0.7478	0.455
Mof_C 	C 	0.0003	0.27628	0.762	0.056
Mof_C 	C 	0.0948	0.30772	0.7573	-0.136
Mof_H 	H 	0.1622	0.305	0.795	0.083
Mof_C 	C 	0.0888	0.34279	0.6972	0.077
Mof_H 	H 	0.1524	0.3641	0.6962	0.015
Mof_C 	C 	0.905	0.3188	0.6451	0.089
Mof_H 	H 	0.8383	0.3224	0.6071	-0.007
Mof_C 	C 	0.9038	0.28283	0.705	-0.142
Mof_H 	H 	0.8372	0.2629	0.7067	0.083
Mof_C 	C 	0.1781	0.18843	0.5936	-0.143
Mof_H 	H 	0.1261	0.1937	0.6413	0.083
Mof_Co	Co	0.66199	0.49074	0.37251	1.195
Mof_Co	Co	0.99731	0.60389	0.46828	1.178
Mof_Co	Co	0.91908	0.47926	0.23177	1.189
Mof_N 	N 	0.9932	0.66186	0.55723	-0.24
Mof_N 	N 	0.0042	0.84831	0.86093	-0.232
Mof_O 	O 	0.6457	0.54006	0.27074	-0.43
Mof_O 	O 	0.7972	0.52419	0.17873	-0.462
Mof_O 	O 	0.55561	0.62924	0.26173	-0.3
Mof_O 	O 	0.046	0.53235	0.23922	-0.425
Mof_O 	O 	0.03612	0.54993	0.38164	-0.457
Mof_O 	O 	0.17813	0.59683	0.50563	-0.415
Mof_O 	O 	0.33454	0.54767	0.50522	-0.377
Mof_O 	O 	0.65931	0.54634	0.46327	-0.386
Mof_O 	O 	0.81777	0.5919	0.43439	-0.421
Mof_O 	O 	0.95925	0.56161	0.57718	-0.466
Mof_O 	O 	0.9417	0.56114	0.72271	-0.445
Mof_O 	O 	0.44546	0.66008	0.66123	-0.304
Mof_O 	O 	0.3591	0.57033	0.6997	-0.441
Mof_O 	O 	0.1902	0.57639	0.78067	-0.463
Mof_O 	O 	0.8536	0.49074	0.36772	-1.153
Mof_H 	H 	0.8824	0.519	0.3705	0.439
Mof_H 	H 	0.8882	0.4698	0.3881	0.554
Mof_C 	C 	0.7143	0.54942	0.2081	0.445
Mof_C 	C 	0.6958	0.59422	0.1562	-0.216
Mof_C 	C 	0.7675	0.60136	0.0831	0.084
Mof_H 	H 	0.8248	0.5789	0.0682	0.016
Mof_C 	C 	0.0618	0.66176	0.6302	0.094
Mof_H 	H 	0.1105	0.636	0.6412	0.003
Mof_C 	C 	0.8365	0.64934	0.9561	0.04
Mof_H 	H 	0.8972	0.6281	0.942	0.014
Mof_C 	C 	0.7583	0.64135	0.0294	-0.108
Mof_C 	C 	0.7314	0.7205	0.9252	0.088
Mof_H 	H 	0.7217	0.7464	0.8891	0.001
Mof_C 	C 	0.6566	0.71423	0.9963	-0.212
Mof_H 	H 	0.5968	0.7361	0.0091	0.11
Mof_C 	C 	0.6694	0.67459	0.0508	0.182
Mof_C 	C 	0.5996	0.6682	0.1278	-0.303
Mof_H 	H 	0.5425	0.6905	0.1436	0.14
Mof_C 	C 	0.6138	0.63012	0.1799	0.288
Mof_C 	C 	0.44	0.61097	0.2682	0.287
Mof_C 	C 	0.4035	0.60145	0.3535	-0.212
Mof_H 	H 	0.4572	0.6066	0.4007	0.125
Mof_C 	C 	0.2873	0.58416	0.3701	0.035
Mof_C 	C 	0.2089	0.57472	0.2985	-0.176
Mof_C 	C 	0.2494	0.58458	0.213	0.148
Mof_H 	H 	0.1977	0.5785	0.165	-0.008
Mof_C 	C 	0.3638	0.60306	0.1968	-0.277
Mof_H 	H 	0.3885	0.6099	0.1392	0.134
Mof_C 	C 	0.2619	0.57483	0.4674	0.327
Mof_C 	C 	0.0895	0.55099	0.3077	0.4
Mof_C 	C 	0.7325	0.57777	0.4829	0.333
Mof_C 	C 	0.7087	0.60074	0.5716	0.035
Mof_C 	C 	0.5953	0.62162	0.5801	-0.21
Mof_H 	H 	0.5422	0.6227	0.5316	0.122
Mof_C 	C 	0.5607	0.64076	0.6596	0.289
Mof_C 	C 	0.6384	0.64038	0.7319	-0.283
Mof_H 	H 	0.6163	0.6546	0.7849	0.139
Mof_C 	C 	0.7494	0.61856	0.7239	0.158
Mof_H 	H 	0.8013	0.6174	0.7731	-0.01
Mof_C 	C 	0.7868	0.59819	0.6448	-0.182
Mof_C 	C 	0.9044	0.57155	0.6474	0.419
Mof_C 	C 	0.3984	0.67049	0.744	0.295
Mof_C 	C 	0.3267	0.63733	0.789	-0.227
Mof_C 	C 	0.2835	0.64986	0.8708	0.087
Mof_H 	H 	0.2354	0.6288	0.9017	0.011
Mof_C 	C 	0.3083	0.69325	0.9109	-0.111
Mof_C 	C 	0.2651	0.70505	0.9967	0.042
Mof_H 	H 	0.2208	0.6837	0.0296	0.016
Mof_C 	C 	0.2888	0.74782	0.0308	-0.139
Mof_H 	H 	0.2602	0.7555	0.087	0.086
Mof_C 	C 	0.3551	0.78006	0.9826	0.081
Mof_H 	H 	0.3704	0.809	0.0072	0.017
Mof_C 	C 	0.398	0.77018	0.9002	-0.204
Mof_H 	H 	0.4417	0.7923	0.8685	0.108
Mof_C 	C 	0.3757	0.72578	0.8625	0.177
Mof_C 	C 	0.4199	0.71296	0.7778	-0.307
Mof_H 	H 	0.4646	0.7342	0.7448	0.142
Mof_C 	C 	0.9253	0.69923	0.5441	0.095
Mof_H 	H 	0.8747	0.7	0.4942	-0.011
Mof_C 	C 	0.9251	0.7365	0.5992	-0.15
Mof_H 	H 	0.8776	0.7622	0.5852	0.087
Mof_C 	C 	0.996	0.73622	0.6763	0.061
Mof_C 	C 	0.0656	0.6973	0.6908	-0.144
Mof_H 	H 	0.1148	0.6951	0.7413	0.086
Mof_C 	C 	0.2914	0.59047	0.7522	0.455
Mof_C 	C 	0.9997	0.77628	0.738	0.051
Mof_C 	C 	0.9052	0.80772	0.7427	-0.132
Mof_H 	H 	0.8378	0.805	0.705	0.082
Mof_C 	C 	0.9112	0.84279	0.8028	0.071
Mof_H 	H 	0.8476	0.8641	0.8038	0.017
Mof_C 	C 	0.095	0.8188	0.8549	0.086
Mof_H 	H 	0.1617	0.8224	0.8929	-0.006
Mof_C 	C 	0.0962	0.78283	0.795	-0.135
Mof_H 	H 	0.1628	0.7629	0.7933	0.081
Mof_C 	C 	0.8219	0.68843	0.9064	-0.145
Mof_H 	H 	0.8739	0.6937	0.8587	0.082
_end
