data_functionalizedCrystal
_audit_creation_method	'EQeq! by Chris Wilmer'
_symmetry_space_group_name_H-M	'P1'
_symmetry_Int_Tables_number	1
_symmetry_cell_setting	triclinic
loop_
_symmetry_equiv_pos_as_xyz
  x,y,z
_cell_length_a	10.3397
_cell_length_b	10.3397
_cell_length_c	14.5061
_cell_angle_alpha	90
_cell_angle_beta	90
_cell_angle_gamma	90
loop_
_atom_site_label
_atom_site_type_symbol
_atom_site_fract_x
_atom_site_fract_y
_atom_site_fract_z
_atom_site_charge
Mof_Tb	Tb	0.64745	0.64736	0.15744	2.357
Mof_C 	C 	0.3055	0.5008	0.2821	0.272
Mof_H 	H 	0.3955	0.5034	0.2826	-0.084
Mof_O 	O 	0.4303	0.6105	0.1303	-0.625
Mof_C 	C 	0.0387	0.5007	0.2819	-0.314
Mof_C 	C 	0.3139	0.5875	0.1206	0.595
Mof_C 	C 	0.1044	0.4561	0.3591	0.231
Mof_H 	H 	0.0592	0.426	0.4102	-0.046
Mof_C 	C 	0.2397	0.5411	0.2044	-0.324
Mof_C 	C 	0.1026	0.5417	0.2049	0.233
Mof_H 	H 	0.0568	0.5697	0.1534	-0.04
Mof_C 	C 	0.2408	0.4571	0.3589	-0.333
Mof_O 	O 	0.8358	0.4288	0.3394	-0.631
Mof_O 	O 	0.8366	0.5672	0.2228	-0.632
Mof_C 	C 	0.8883	0.4995	0.2818	0.626
Mof_C 	C 	0.3136	0.4136	0.4435	0.601
Mof_O 	O 	0.2547	0.4045	0.5181	-0.609
Mof_O 	O 	0.43	0.3905	0.434	-0.629
Mof_O 	O 	0.2545	0.5948	0.0464	-0.586
Mof_Tb	Tb	0.35255	0.35264	0.65744	2.339
Mof_C 	C 	0.6945	0.4992	0.7821	0.261
Mof_H 	H 	0.6045	0.4966	0.7826	-0.082
Mof_O 	O 	0.5697	0.3895	0.6303	-0.632
Mof_C 	C 	0.9613	0.4993	0.7819	-0.315
Mof_C 	C 	0.6861	0.4125	0.6206	0.597
Mof_C 	C 	0.8956	0.5439	0.8591	0.22
Mof_H 	H 	0.9408	0.574	0.9102	-0.052
Mof_C 	C 	0.7603	0.4589	0.7044	-0.326
Mof_C 	C 	0.8974	0.4583	0.7049	0.23
Mof_H 	H 	0.9432	0.4303	0.6534	-0.045
Mof_C 	C 	0.7592	0.5429	0.8589	-0.321
Mof_O 	O 	0.1642	0.5712	0.8394	-0.632
Mof_O 	O 	0.1634	0.4328	0.7228	-0.632
Mof_C 	C 	0.1117	0.5005	0.7818	0.621
Mof_C 	C 	0.6864	0.5864	0.9435	0.547
Mof_O 	O 	0.7453	0.5955	0.0181	-0.568
Mof_O 	O 	0.57	0.6095	0.934	-0.622
Mof_O 	O 	0.7455	0.4052	0.5464	-0.613
Mof_Tb	Tb	0.35264	0.64745	0.90744	2.294
Mof_C 	C 	0.4992	0.3055	0.0321	0.332
Mof_H 	H 	0.4966	0.3955	0.0326	-0.094
Mof_O 	O 	0.3895	0.4303	0.8803	-0.638
Mof_C 	C 	0.4993	0.0387	0.0319	-0.282
Mof_C 	C 	0.4125	0.3139	0.8706	0.605
Mof_C 	C 	0.5439	0.1044	0.1091	0.233
Mof_H 	H 	0.574	0.0592	0.1602	-0.045
Mof_C 	C 	0.4589	0.2397	0.9544	-0.371
Mof_C 	C 	0.4583	0.1026	0.9549	0.195
Mof_H 	H 	0.4303	0.0568	0.9034	-0.038
Mof_C 	C 	0.5429	0.2408	0.1089	-0.346
Mof_O 	O 	0.5712	0.8358	0.0894	-0.636
Mof_O 	O 	0.4328	0.8366	0.9728	-0.666
Mof_C 	C 	0.5005	0.8883	0.0318	0.665
Mof_C 	C 	0.5864	0.3136	0.1935	0.608
Mof_O 	O 	0.5955	0.2547	0.2681	-0.61
Mof_O 	O 	0.6095	0.43	0.184	-0.631
Mof_O 	O 	0.4052	0.2545	0.7964	-0.616
Mof_Tb	Tb	0.64736	0.35255	0.40744	2.343
Mof_C 	C 	0.5008	0.6945	0.5321	0.273
Mof_H 	H 	0.5034	0.6045	0.5326	-0.086
Mof_O 	O 	0.6105	0.5697	0.3803	-0.633
Mof_C 	C 	0.5007	0.9613	0.5319	-0.317
Mof_C 	C 	0.5875	0.6861	0.3706	0.6
Mof_C 	C 	0.4561	0.8956	0.6091	0.232
Mof_H 	H 	0.426	0.9408	0.6602	-0.047
Mof_C 	C 	0.5411	0.7603	0.4544	-0.33
Mof_C 	C 	0.5417	0.8974	0.4549	0.235
Mof_H 	H 	0.5697	0.9432	0.4034	-0.046
Mof_C 	C 	0.4571	0.7592	0.6089	-0.334
Mof_O 	O 	0.4288	0.1642	0.5894	-0.632
Mof_O 	O 	0.5672	0.1634	0.4728	-0.632
Mof_C 	C 	0.4995	0.1117	0.5318	0.625
Mof_C 	C 	0.4136	0.6864	0.6935	0.599
Mof_O 	O 	0.4045	0.7453	0.7681	-0.605
Mof_O 	O 	0.3905	0.57	0.684	-0.627
Mof_O 	O 	0.5948	0.7455	0.2964	-0.614
_end
