data_functionalizedCrystal
_audit_creation_method	'EQeq! by Chris Wilmer'
_symmetry_space_group_name_H-M	'P1'
_symmetry_Int_Tables_number	1
_symmetry_cell_setting	triclinic
loop_
_symmetry_equiv_pos_as_xyz
  x,y,z
_cell_length_a	13.9517
_cell_length_b	16.5474
_cell_length_c	16.5474
_cell_angle_alpha	103.395
_cell_angle_beta	110.009
_cell_angle_gamma	110.009
loop_
_atom_site_label
_atom_site_type_symbol
_atom_site_fract_x
_atom_site_fract_y
_atom_site_fract_z
_atom_site_charge
Mof_Zn	Zn	0.28775	0.34755	0.20573	1.215
Mof_Zn	Zn	0.53922	0.35932	0.27862	1.238
Mof_Zn	Zn	0.21225	0.79427	0.65245	1.215
Mof_Zn	Zn	0.96078	0.72138	0.64068	1.238
Mof_Zn	Zn	0.71225	0.65245	0.79427	1.215
Mof_Zn	Zn	0.46078	0.64068	0.72138	1.238
Mof_Zn	Zn	0.78775	0.20573	0.34755	1.215
Mof_Zn	Zn	0.03922	0.27862	0.35932	1.238
Mof_H 	H 	0.6544	0.5059	0.1161	0.099
Mof_H 	H 	0.1334	0.0572	0.0364	0.114
Mof_H 	H 	0.3631	0.482	0.5532	0.08
Mof_H 	H 	0.0554	0.349	0.1554	-0.024
Mof_H 	H 	0.8646	0.2582	0.0372	0.101
Mof_H 	H 	0.9789	0.1252	0.8808	0.115
Mof_H 	H 	0.1569	0.2171	0.0009	-0.008
Mof_H 	H 	0.2781	0.3933	0.0171	0.252
Mof_H 	H 	0.5071	0.1575	0.1309	0.271
Mof_H 	H 	0.8456	0.8839	0.4941	0.099
Mof_H 	H 	0.3666	0.9636	0.9428	0.11
Mof_H 	H 	0.1369	0.4468	0.518	0.08
Mof_H 	H 	0.4446	0.8446	0.651	-0.028
Mof_H 	H 	0.6354	0.9628	0.7418	0.107
Mof_H 	H 	0.5211	0.1192	0.8748	0.12
Mof_H 	H 	0.3431	0.9991	0.7829	-0.01
Mof_H 	H 	0.2219	0.9829	0.6067	0.257
Mof_H 	H 	0.9929	0.8691	0.8425	0.263
Mof_H 	H 	0.3456	0.4941	0.8839	0.099
Mof_H 	H 	0.8666	0.9428	0.9636	0.114
Mof_H 	H 	0.6369	0.518	0.4468	0.08
Mof_H 	H 	0.9446	0.651	0.8446	-0.024
Mof_H 	H 	0.1354	0.7418	0.9628	0.101
Mof_H 	H 	0.0211	0.8748	0.1192	0.115
Mof_H 	H 	0.8431	0.7829	0.9991	-0.008
Mof_H 	H 	0.7219	0.6067	0.9829	0.252
Mof_H 	H 	0.4929	0.8425	0.8691	0.271
Mof_H 	H 	0.1544	0.1161	0.5059	0.099
Mof_H 	H 	0.6334	0.0364	0.0572	0.11
Mof_H 	H 	0.8631	0.5532	0.482	0.08
Mof_H 	H 	0.5554	0.1554	0.349	-0.028
Mof_H 	H 	0.3646	0.0372	0.2582	0.107
Mof_H 	H 	0.4789	0.8808	0.1252	0.12
Mof_H 	H 	0.6569	0.0009	0.2171	-0.01
Mof_H 	H 	0.7781	0.0171	0.3933	0.257
Mof_H 	H 	0.0071	0.1309	0.1575	0.263
Mof_C 	C 	0.4635	0.4173	0.1285	0.45
Mof_C 	C 	0.4819	0.4603	0.0623	-0.166
Mof_C 	C 	0.5908	0.5039	0.0681	-0.097
Mof_C 	C 	0.3912	0.4575	0.9903	0.242
Mof_C 	C 	0.3468	0.1842	0.1474	0.401
Mof_C 	C 	0.3007	0.0929	0.0671	-0.139
Mof_C 	C 	0.181	0.0389	0.0151	-0.12
Mof_C 	C 	0.3688	0.064	0.0382	0.246
Mof_C 	C 	0.2577	0.3709	0.3781	0.402
Mof_C 	C 	0.3847	0.4383	0.4383	-0.157
Mof_C 	C 	0.4682	0.4454	0.4044	0.224
Mof_C 	C 	0.42	0.4909	0.5323	-0.127
Mof_C 	C 	0.0383	0.3018	0.0998	0.087
Mof_C 	C 	0.9253	0.2489	0.0303	-0.16
Mof_C 	C 	0.9055	0.182	0.9504	0.16
Mof_C 	C 	0.9921	0.1693	0.9367	-0.197
Mof_C 	C 	0.0955	0.2242	0.0088	0.134
Mof_C 	C 	0.0365	0.8715	0.5827	0.453
Mof_C 	C 	0.0181	0.9377	0.5397	-0.16
Mof_C 	C 	0.9092	0.9319	0.4961	-0.1
Mof_C 	C 	0.1088	0.0097	0.5425	0.24
Mof_C 	C 	0.1532	0.8526	0.8158	0.404
Mof_C 	C 	0.1993	0.9329	0.9071	-0.148
Mof_C 	C 	0.319	0.9849	0.9611	-0.1
Mof_C 	C 	0.1312	0.9618	0.936	0.263
Mof_C 	C 	0.2423	0.6219	0.6291	0.402
Mof_C 	C 	0.1153	0.5617	0.5617	-0.157
Mof_C 	C 	0.0318	0.5956	0.5546	0.225
Mof_C 	C 	0.08	0.4677	0.5091	-0.128
Mof_C 	C 	0.4617	0.9002	0.6982	0.104
Mof_C 	C 	0.5747	0.9697	0.7511	-0.184
Mof_C 	C 	0.5945	0.0496	0.818	0.175
Mof_C 	C 	0.5079	0.0633	0.8307	-0.21
Mof_C 	C 	0.4045	0.9912	0.7758	0.145
Mof_C 	C 	0.5365	0.5827	0.8715	0.45
Mof_C 	C 	0.5181	0.5397	0.9377	-0.166
Mof_C 	C 	0.4092	0.4961	0.9319	-0.097
Mof_C 	C 	0.6088	0.5425	0.0097	0.242
Mof_C 	C 	0.6532	0.8158	0.8526	0.401
Mof_C 	C 	0.6993	0.9071	0.9329	-0.139
Mof_C 	C 	0.819	0.9611	0.9849	-0.12
Mof_C 	C 	0.6312	0.936	0.9618	0.246
Mof_C 	C 	0.7423	0.6291	0.6219	0.402
Mof_C 	C 	0.6153	0.5617	0.5617	-0.157
Mof_C 	C 	0.5318	0.5546	0.5956	0.224
Mof_C 	C 	0.58	0.5091	0.4677	-0.127
Mof_C 	C 	0.9617	0.6982	0.9002	0.087
Mof_C 	C 	0.0747	0.7511	0.9697	-0.16
Mof_C 	C 	0.0945	0.818	0.0496	0.16
Mof_C 	C 	0.0079	0.8307	0.0633	-0.197
Mof_C 	C 	0.9045	0.7758	0.9912	0.134
Mof_C 	C 	0.9635	0.1285	0.4173	0.453
Mof_C 	C 	0.9819	0.0623	0.4603	-0.16
Mof_C 	C 	0.0908	0.0681	0.5039	-0.1
Mof_C 	C 	0.8912	0.9903	0.4575	0.24
Mof_C 	C 	0.8468	0.1474	0.1842	0.404
Mof_C 	C 	0.8007	0.0671	0.0929	-0.148
Mof_C 	C 	0.681	0.0151	0.0389	-0.1
Mof_C 	C 	0.8688	0.0382	0.064	0.263
Mof_C 	C 	0.7577	0.3781	0.3709	0.402
Mof_C 	C 	0.8847	0.4383	0.4383	-0.157
Mof_C 	C 	0.9682	0.4044	0.4454	0.225
Mof_C 	C 	0.92	0.5323	0.4909	-0.128
Mof_C 	C 	0.5383	0.0998	0.3018	0.104
Mof_C 	C 	0.4253	0.0303	0.2489	-0.184
Mof_C 	C 	0.4055	0.9504	0.182	0.175
Mof_C 	C 	0.4921	0.9367	0.1693	-0.21
Mof_C 	C 	0.5955	0.0088	0.2242	0.145
Mof_N 	N 	0.1254	0.2879	0.0907	-0.258
Mof_N 	N 	0.7846	0.1113	0.8751	-0.087
Mof_N 	N 	0.3746	0.9093	0.7121	-0.263
Mof_N 	N 	0.7154	0.1249	0.8887	-0.09
Mof_N 	N 	0.8746	0.7121	0.9093	-0.258
Mof_N 	N 	0.2154	0.8887	0.1249	-0.087
Mof_N 	N 	0.6254	0.0907	0.2879	-0.263
Mof_N 	N 	0.2846	0.8751	0.1113	-0.09
Mof_O 	O 	0.3652	0.3782	0.1188	-0.507
Mof_O 	O 	0.5481	0.4219	0.1901	-0.475
Mof_O 	O 	0.28	0.4154	0.9764	-0.404
Mof_O 	O 	0.2824	0.2119	0.1635	-0.443
Mof_O 	O 	0.4584	0.2299	0.1931	-0.49
Mof_O 	O 	0.4853	0.1095	0.0845	-0.412
Mof_O 	O 	0.4403	0.3952	0.3172	-0.601
Mof_O 	O 	0.2176	0.3273	0.2925	-0.492
Mof_O 	O 	0.1982	0.3624	0.421	-0.484
Mof_O 	O 	0.1348	0.8812	0.6218	-0.507
Mof_O 	O 	0.9519	0.8099	0.5781	-0.478
Mof_O 	O 	0.22	0.0236	0.5846	-0.411
Mof_O 	O 	0.2176	0.8365	0.7881	-0.443
Mof_O 	O 	0.0416	0.8069	0.7701	-0.487
Mof_O 	O 	0.0147	0.9155	0.8905	-0.404
Mof_O 	O 	0.0597	0.6828	0.6048	-0.6
Mof_O 	O 	0.2824	0.7075	0.6727	-0.492
Mof_O 	O 	0.3018	0.579	0.6376	-0.483
Mof_O 	O 	0.6348	0.6218	0.8812	-0.507
Mof_O 	O 	0.4519	0.5781	0.8099	-0.475
Mof_O 	O 	0.72	0.5846	0.0236	-0.404
Mof_O 	O 	0.7176	0.7881	0.8365	-0.443
Mof_O 	O 	0.5416	0.7701	0.8069	-0.49
Mof_O 	O 	0.5147	0.8905	0.9155	-0.412
Mof_O 	O 	0.5597	0.6048	0.6828	-0.601
Mof_O 	O 	0.7824	0.6727	0.7075	-0.492
Mof_O 	O 	0.8018	0.6376	0.579	-0.484
Mof_O 	O 	0.8652	0.1188	0.3782	-0.507
Mof_O 	O 	0.0481	0.1901	0.4219	-0.478
Mof_O 	O 	0.78	0.9764	0.4154	-0.411
Mof_O 	O 	0.7824	0.1635	0.2119	-0.443
Mof_O 	O 	0.9584	0.1931	0.2299	-0.487
Mof_O 	O 	0.9853	0.0845	0.1095	-0.404
Mof_O 	O 	0.9403	0.3172	0.3952	-0.6
Mof_O 	O 	0.7176	0.2925	0.3273	-0.492
Mof_O 	O 	0.6982	0.421	0.3624	-0.483
_end
