data_functionalizedCrystal
_audit_creation_method	'EQeq! by Chris Wilmer'
_symmetry_space_group_name_H-M	'P1'
_symmetry_Int_Tables_number	1
_symmetry_cell_setting	triclinic
loop_
_symmetry_equiv_pos_as_xyz
  x,y,z
_cell_length_a	9.493
_cell_length_b	11.242
_cell_length_c	11.27
_cell_angle_alpha	82.89
_cell_angle_beta	83.8
_cell_angle_gamma	77.68
loop_
_atom_site_label
_atom_site_type_symbol
_atom_site_fract_x
_atom_site_fract_y
_atom_site_fract_z
_atom_site_charge
Mof_Ca	Ca	0.97459	0.33006	0.97779	1.105
Mof_C 	C 	0.5997	0.3942	0.8485	0.1
Mof_C 	C 	0.4813	0.3835	0.7856	-0.127
Mof_C 	C 	0.3474	0.3771	0.8507	0.109
Mof_C 	C 	0.5012	0.368	0.6604	0.057
Mof_C 	C 	0.3885	0.3408	0.6007	-0.064
Mof_H 	H 	0.3011	0.3334	0.644	0.05
Mof_C 	C 	0.4063	0.3254	0.4821	-0.075
Mof_H 	H 	0.3313	0.3067	0.4459	0.06
Mof_C 	C 	0.5379	0.3374	0.412	0.07
Mof_C 	C 	0.6499	0.3637	0.4715	-0.073
Mof_H 	H 	0.7374	0.3711	0.4284	0.06
Mof_C 	C 	0.6319	0.3785	0.5911	-0.064
Mof_H 	H 	0.7074	0.3958	0.6277	0.054
Mof_C 	C 	0.5573	0.323	0.2879	-0.125
Mof_C 	C 	0.4436	0.3008	0.2265	0.1
Mof_C 	C 	0.6898	0.3266	0.2186	0.11
Mof_C 	C 	0.0224	0.3329	0.4503	0.105
Mof_C 	C 	0.0162	0.2395	0.5443	-0.126
Mof_C 	C 	0.0133	0.271	0.6626	0.112
Mof_C 	C 	0.0069	0.0894	0.4039	-0.072
Mof_H 	H 	0.0113	0.1496	0.3399	0.037
Mof_C 	C 	0.0081	0.1188	0.5229	0.058
Mof_C 	C 	0.0006	0.0248	0.6176	-0.069
Mof_H 	H 	0.0008	0.0418	0.6962	0.029
Mof_N 	N 	0.6997	0.3992	0.8969	-0.204
Mof_N 	N 	0.2359	0.3707	0.8982	-0.219
Mof_N 	N 	0.3499	0.2839	0.1797	-0.175
Mof_N 	N 	0.7985	0.3273	0.1611	-0.237
Mof_N 	N 	0.01	0.2956	0.7592	-0.237
Mof_N 	N 	0.0258	0.4057	0.3698	-0.168
Mof_O 	O 	0.9336	0.5451	0.88556	-0.857
Mof_H 	H 	0.9828	0.5422	0.8179	0.336
Mof_H 	H 	0.8486	0.5842	0.8729	0.338
Mof_Ca	Ca	0.02541	0.66994	0.02221	1.106
Mof_C 	C 	0.4003	0.6058	0.1515	0.101
Mof_C 	C 	0.5187	0.6165	0.2144	-0.126
Mof_C 	C 	0.6526	0.6229	0.1493	0.11
Mof_C 	C 	0.4988	0.632	0.3396	0.057
Mof_C 	C 	0.6115	0.6592	0.3993	-0.064
Mof_H 	H 	0.6989	0.6666	0.356	0.05
Mof_C 	C 	0.5937	0.6746	0.5179	-0.075
Mof_H 	H 	0.6687	0.6933	0.5541	0.06
Mof_C 	C 	0.4621	0.6626	0.588	0.07
Mof_C 	C 	0.3501	0.6363	0.5285	-0.073
Mof_H 	H 	0.2626	0.6289	0.5716	0.06
Mof_C 	C 	0.3681	0.6215	0.4089	-0.064
Mof_H 	H 	0.2926	0.6042	0.3723	0.054
Mof_C 	C 	0.4427	0.677	0.7121	-0.125
Mof_C 	C 	0.5564	0.6992	0.7735	0.1
Mof_C 	C 	0.3102	0.6734	0.7814	0.11
Mof_C 	C 	0.9776	0.6671	0.5497	0.105
Mof_C 	C 	0.9838	0.7605	0.4557	-0.126
Mof_C 	C 	0.9867	0.729	0.3374	0.112
Mof_C 	C 	0.9931	0.9106	0.5961	-0.072
Mof_H 	H 	0.9887	0.8504	0.6601	0.037
Mof_C 	C 	0.9919	0.8812	0.4771	0.058
Mof_C 	C 	0.9994	0.9752	0.3824	-0.069
Mof_H 	H 	0.9992	0.9582	0.3038	0.029
Mof_N 	N 	0.3003	0.6008	0.1031	-0.204
Mof_N 	N 	0.7641	0.6293	0.1018	-0.219
Mof_N 	N 	0.6501	0.7161	0.8203	-0.175
Mof_N 	N 	0.2015	0.6727	0.8389	-0.237
Mof_N 	N 	0.99	0.7044	0.2408	-0.237
Mof_N 	N 	0.9742	0.5943	0.6302	-0.168
Mof_O 	O 	0.0664	0.4549	0.11444	-0.857
Mof_H 	H 	0.0172	0.4578	0.1821	0.336
Mof_H 	H 	0.1514	0.4158	0.1271	0.338
_end
