data_functionalizedCrystal
_audit_creation_method	'EQeq! by Chris Wilmer'
_symmetry_space_group_name_H-M	'P1'
_symmetry_Int_Tables_number	1
_symmetry_cell_setting	triclinic
loop_
_symmetry_equiv_pos_as_xyz
  x,y,z
_cell_length_a	21.9777
_cell_length_b	16.6111
_cell_length_c	25.6344
_cell_angle_alpha	90
_cell_angle_beta	115.351
_cell_angle_gamma	90
loop_
_atom_site_label
_atom_site_type_symbol
_atom_site_fract_x
_atom_site_fract_y
_atom_site_fract_z
_atom_site_charge
Mof_Ag	Ag	0.77386	0.20904	0.36821	0.524
Mof_Ag	Ag	0.29517	0.5017	0.86765	0.536
Mof_C 	C 	0.1534	0.7199	0.0011	0.101
Mof_C 	C 	0.923	0.9002	0.8925	0.068
Mof_H 	H 	0.9033	0.905	0.8525	-0.025
Mof_C 	C 	0.1281	0.5071	0.5024	0.099
Mof_C 	C 	0.1279	0.5617	0.4111	-0.145
Mof_H 	H 	0.0854	0.5397	0.3899	0.083
Mof_C 	C 	0.9031	0.3169	0.3891	0.085
Mof_H 	H 	0.8847	0.3111	0.3491	-0.009
Mof_C 	C 	0.0753	0.8014	0.007	0.091
Mof_C 	C 	0.9823	0.8875	0.0095	-0.136
Mof_H 	H 	0.0016	0.8848	0.0495	0.073
Mof_C 	C 	0.1598	0.5527	0.4702	0.064
Mof_C 	C 	0.2431	0.6337	0.9963	-0.135
Mof_H 	H 	0.2637	0.6332	0.0365	0.086
Mof_C 	C 	0.2229	0.5861	0.4993	-0.15
Mof_H 	H 	0.2457	0.5813	0.5392	0.076
Mof_C 	C 	0.1581	0.4857	0.6514	0.063
Mof_C 	C 	0.1276	0.476	0.5878	0.098
Mof_C 	C 	0.2716	0.5928	0.9653	0.086
Mof_H 	H 	0.3118	0.5654	0.9856	-0.012
Mof_C 	C 	0.9609	0.3613	0.4155	-0.134
Mof_H 	H 	0.9812	0.3839	0.3938	0.084
Mof_C 	C 	0.1838	0.6755	0.96681	0.069
Mof_C 	C 	0.1904	0.7426	0.152	0.058
Mof_C 	C 	0.9572	0.3341	0.5054	-0.134
Mof_H 	H 	0.975	0.3375	0.5454	0.084
Mof_C 	C 	0.2527	0.7074	0.181	-0.14
Mof_H 	H 	0.2767	0.6897	0.1608	0.082
Mof_C 	C 	0.2514	0.6266	0.4688	0.078
Mof_H 	H 	0.2937	0.6493	0.4891	-0.022
Mof_C 	C 	0.0501	0.4229	0.5054	0.105
Mof_C 	C 	0.9824	0.8577	0.9186	-0.138
Mof_H 	H 	0.0019	0.8344	0.8964	0.079
Mof_C 	C 	0.1584	0.7522	0.088	0.096
Mof_C 	C 	0.2795	0.6985	0.2404	0.08
Mof_H 	H 	0.3215	0.6744	0.2595	-0.016
Mof_C 	C 	0.1867	0.7575	0.2428	0.077
Mof_H 	H 	0.1638	0.7754	0.2638	-0.026
Mof_C 	C 	0.1563	0.7675	0.1837	-0.146
Mof_H 	H 	0.1138	0.7907	0.1655	0.074
Mof_C 	C 	0.1605	0.6043	0.384	0.074
Mof_H 	H 	0.1383	0.6117	0.3443	-0.021
Mof_C 	C 	0.2118	0.5373	0.678	-0.138
Mof_H 	H 	0.2278	0.5677	0.6561	0.07
Mof_C 	C 	0.899	0.291	0.4746	0.09
Mof_H 	H 	0.8776	0.2673	0.4951	-0.014
Mof_C 	C 	0.2413	0.5434	0.7372	0.07
Mof_H 	H 	0.2772	0.5788	0.7545	-0.017
Mof_C 	C 	0.0127	0.85	0.9779	0.057
Mof_C 	C 	0.989	0.3724	0.4751	0.067
Mof_C 	C 	0.1554	0.6749	0.9074	-0.141
Mof_H 	H 	0.1161	0.7035	0.8862	0.081
Mof_C 	C 	0.9222	0.9291	0.9794	0.075
Mof_H 	H 	0.9021	0.9541	0.0005	-0.011
Mof_C 	C 	0.1337	0.4452	0.6853	-0.147
Mof_H 	H 	0.0956	0.413	0.6687	0.086
Mof_C 	C 	0.1672	0.4536	0.7443	0.091
Mof_H 	H 	0.1511	0.4246	0.7668	-0.023
Mof_C 	C 	0.1863	0.631	0.8798	0.086
Mof_H 	H 	0.1657	0.6293	0.8397	-0.008
Mof_N 	N 	0.87162	0.2813	0.41768	-0.194
Mof_N 	N 	0.222	0.6351	0.41183	-0.215
Mof_N 	N 	0.2208	0.5003	0.77132	-0.2
Mof_N 	N 	0.0745	0.4607	0.47287	-0.139
Mof_N 	N 	0.15623	0.5175	0.55929	-0.142
Mof_N 	N 	0.07486	0.4271	0.56287	-0.138
Mof_N 	N 	0.2442	0.5905	0.90745	-0.189
Mof_N 	N 	0.2468	0.7234	0.27139	-0.199
Mof_N 	N 	0.8922	0.935	0.92209	-0.208
Mof_N 	N 	0.09769	0.7607	0.97311	-0.14
Mof_N 	N 	0.18629	0.7126	0.05876	-0.138
Mof_N 	N 	0.1039	0.7989	0.06457	-0.149
Mof_Ag	Ag	0.27386	0.70904	0.36821	0.523
Mof_Ag	Ag	0.79517	0.0017	0.86765	0.535
Mof_C 	C 	0.6534	0.2199	0.0011	0.101
Mof_C 	C 	0.423	0.4002	0.8925	0.065
Mof_H 	H 	0.4033	0.405	0.8525	-0.025
Mof_C 	C 	0.6281	0.0071	0.5024	0.098
Mof_C 	C 	0.6279	0.0617	0.4111	-0.146
Mof_H 	H 	0.5854	0.0397	0.3899	0.082
Mof_C 	C 	0.4031	0.8169	0.3891	0.084
Mof_H 	H 	0.3847	0.8111	0.3491	-0.01
Mof_C 	C 	0.5753	0.3014	0.007	0.093
Mof_C 	C 	0.4823	0.3875	0.0095	-0.138
Mof_H 	H 	0.5016	0.3848	0.0495	0.075
Mof_C 	C 	0.6598	0.0527	0.4702	0.064
Mof_C 	C 	0.7431	0.1337	0.9963	-0.137
Mof_H 	H 	0.7637	0.1332	0.0365	0.087
Mof_C 	C 	0.7229	0.0861	0.4993	-0.15
Mof_H 	H 	0.7457	0.0813	0.5392	0.076
Mof_C 	C 	0.6581	0.9857	0.6514	0.064
Mof_C 	C 	0.6276	0.976	0.5878	0.098
Mof_C 	C 	0.7716	0.0928	0.9653	0.087
Mof_H 	H 	0.8118	0.0654	0.9856	-0.013
Mof_C 	C 	0.4609	0.8613	0.4155	-0.134
Mof_H 	H 	0.4812	0.8839	0.3938	0.084
Mof_C 	C 	0.6838	0.1755	0.96681	0.069
Mof_C 	C 	0.6904	0.2426	0.152	0.058
Mof_C 	C 	0.4572	0.8341	0.5054	-0.134
Mof_H 	H 	0.475	0.8375	0.5454	0.084
Mof_C 	C 	0.7527	0.2074	0.181	-0.14
Mof_H 	H 	0.7767	0.1897	0.1608	0.082
Mof_C 	C 	0.7514	0.1266	0.4688	0.078
Mof_H 	H 	0.7937	0.1493	0.4891	-0.022
Mof_C 	C 	0.5501	0.9229	0.5054	0.105
Mof_C 	C 	0.4824	0.3577	0.9186	-0.135
Mof_H 	H 	0.5019	0.3344	0.8964	0.078
Mof_C 	C 	0.6584	0.2522	0.088	0.096
Mof_C 	C 	0.7795	0.1985	0.2404	0.08
Mof_H 	H 	0.8215	0.1744	0.2595	-0.016
Mof_C 	C 	0.6867	0.2575	0.2428	0.077
Mof_H 	H 	0.6638	0.2754	0.2638	-0.026
Mof_C 	C 	0.6563	0.2675	0.1837	-0.146
Mof_H 	H 	0.6138	0.2907	0.1655	0.074
Mof_C 	C 	0.6605	0.1043	0.384	0.075
Mof_H 	H 	0.6383	0.1117	0.3443	-0.021
Mof_C 	C 	0.7118	0.0373	0.678	-0.138
Mof_H 	H 	0.7278	0.0677	0.6561	0.07
Mof_C 	C 	0.399	0.791	0.4746	0.09
Mof_H 	H 	0.3776	0.7673	0.4951	-0.014
Mof_C 	C 	0.7413	0.0434	0.7372	0.07
Mof_H 	H 	0.7772	0.0788	0.7545	-0.017
Mof_C 	C 	0.5127	0.35	0.9779	0.055
Mof_C 	C 	0.489	0.8724	0.4751	0.067
Mof_C 	C 	0.6554	0.1749	0.9074	-0.141
Mof_H 	H 	0.6161	0.2035	0.8862	0.081
Mof_C 	C 	0.4222	0.4291	0.9794	0.077
Mof_H 	H 	0.4021	0.4541	0.0005	-0.013
Mof_C 	C 	0.6337	0.9452	0.6853	-0.147
Mof_H 	H 	0.5956	0.913	0.6687	0.086
Mof_C 	C 	0.6672	0.9536	0.7443	0.091
Mof_H 	H 	0.6511	0.9246	0.7668	-0.023
Mof_C 	C 	0.6863	0.131	0.8798	0.086
Mof_H 	H 	0.6657	0.1293	0.8397	-0.008
Mof_N 	N 	0.37162	0.7813	0.41768	-0.194
Mof_N 	N 	0.722	0.1351	0.41183	-0.215
Mof_N 	N 	0.7208	0.0003	0.77132	-0.2
Mof_N 	N 	0.5745	0.9607	0.47287	-0.139
Mof_N 	N 	0.65623	0.0175	0.55929	-0.142
Mof_N 	N 	0.57486	0.9271	0.56287	-0.138
Mof_N 	N 	0.7442	0.0905	0.90745	-0.189
Mof_N 	N 	0.7468	0.2234	0.27139	-0.199
Mof_N 	N 	0.3922	0.435	0.92209	-0.209
Mof_N 	N 	0.59769	0.2607	0.97311	-0.142
Mof_N 	N 	0.68629	0.2126	0.05876	-0.138
Mof_N 	N 	0.6039	0.2989	0.06457	-0.149
Mof_Ag	Ag	0.22614	0.20904	0.13179	0.523
Mof_Ag	Ag	0.70483	0.5017	0.63235	0.535
Mof_C 	C 	0.8466	0.7199	0.4989	0.101
Mof_C 	C 	0.077	0.9002	0.6075	0.065
Mof_H 	H 	0.0967	0.905	0.6475	-0.025
Mof_C 	C 	0.8719	0.5071	0.9976	0.096
Mof_C 	C 	0.8721	0.5617	0.0889	-0.146
Mof_H 	H 	0.9146	0.5397	0.1101	0.083
Mof_C 	C 	0.0969	0.3169	0.1109	0.083
Mof_H 	H 	0.1153	0.3111	0.1509	-0.01
Mof_C 	C 	0.9247	0.8014	0.493	0.093
Mof_C 	C 	0.0177	0.8875	0.4905	-0.137
Mof_H 	H 	0.9984	0.8848	0.4505	0.074
Mof_C 	C 	0.8402	0.5527	0.0298	0.065
Mof_C 	C 	0.7569	0.6337	0.5037	-0.136
Mof_H 	H 	0.7363	0.6332	0.4635	0.086
Mof_C 	C 	0.7771	0.5861	0.0007	-0.15
Mof_H 	H 	0.7543	0.5813	0.9608	0.076
Mof_C 	C 	0.8419	0.4857	0.8486	0.063
Mof_C 	C 	0.8724	0.476	0.9122	0.098
Mof_C 	C 	0.7284	0.5928	0.5347	0.086
Mof_H 	H 	0.6882	0.5654	0.5144	-0.012
Mof_C 	C 	0.0391	0.3613	0.0845	-0.133
Mof_H 	H 	0.0188	0.3839	0.1062	0.084
Mof_C 	C 	0.8162	0.6755	0.53319	0.069
Mof_C 	C 	0.8096	0.7426	0.348	0.058
Mof_C 	C 	0.0428	0.3341	0.9946	-0.132
Mof_H 	H 	0.025	0.3375	0.9546	0.084
Mof_C 	C 	0.7473	0.7074	0.319	-0.14
Mof_H 	H 	0.7233	0.6897	0.3392	0.082
Mof_C 	C 	0.7486	0.6266	0.0312	0.078
Mof_H 	H 	0.7063	0.6493	0.0109	-0.022
Mof_C 	C 	0.9499	0.4229	0.9946	0.105
Mof_C 	C 	0.0176	0.8577	0.5814	-0.134
Mof_H 	H 	0.9981	0.8344	0.6036	0.077
Mof_C 	C 	0.8416	0.7522	0.412	0.096
Mof_C 	C 	0.7205	0.6985	0.2596	0.08
Mof_H 	H 	0.6785	0.6744	0.2405	-0.016
Mof_C 	C 	0.8133	0.7575	0.2572	0.077
Mof_H 	H 	0.8362	0.7754	0.2362	-0.026
Mof_C 	C 	0.8437	0.7675	0.3163	-0.146
Mof_H 	H 	0.8862	0.7907	0.3345	0.074
Mof_C 	C 	0.8395	0.6043	0.116	0.075
Mof_H 	H 	0.8617	0.6117	0.1557	-0.021
Mof_C 	C 	0.7882	0.5373	0.822	-0.138
Mof_H 	H 	0.7722	0.5677	0.8439	0.07
Mof_C 	C 	0.101	0.291	0.0254	0.088
Mof_H 	H 	0.1224	0.2673	0.0049	-0.014
Mof_C 	C 	0.7587	0.5434	0.7628	0.07
Mof_H 	H 	0.7228	0.5788	0.7455	-0.017
Mof_C 	C 	0.9873	0.85	0.5221	0.054
Mof_C 	C 	0.011	0.3724	0.0249	0.066
Mof_C 	C 	0.8446	0.6749	0.5926	-0.141
Mof_H 	H 	0.8839	0.7035	0.6138	0.081
Mof_C 	C 	0.0778	0.9291	0.5206	0.077
Mof_H 	H 	0.0979	0.9541	0.4995	-0.012
Mof_C 	C 	0.8663	0.4452	0.8147	-0.147
Mof_H 	H 	0.9044	0.413	0.8313	0.086
Mof_C 	C 	0.8328	0.4536	0.7557	0.091
Mof_H 	H 	0.8489	0.4246	0.7332	-0.023
Mof_C 	C 	0.8137	0.631	0.6202	0.086
Mof_H 	H 	0.8343	0.6293	0.6603	-0.008
Mof_N 	N 	0.12838	0.2813	0.08232	-0.193
Mof_N 	N 	0.778	0.6351	0.08817	-0.215
Mof_N 	N 	0.7792	0.5003	0.72868	-0.2
Mof_N 	N 	0.9255	0.4607	0.02713	-0.138
Mof_N 	N 	0.84377	0.5175	0.94071	-0.142
Mof_N 	N 	0.92514	0.4271	0.93713	-0.138
Mof_N 	N 	0.7558	0.5905	0.59255	-0.189
Mof_N 	N 	0.7532	0.7234	0.22861	-0.199
Mof_N 	N 	0.1078	0.935	0.57791	-0.208
Mof_N 	N 	0.90231	0.7607	0.52689	-0.141
Mof_N 	N 	0.81371	0.7126	0.44124	-0.138
Mof_N 	N 	0.8961	0.7989	0.43543	-0.149
Mof_Ag	Ag	0.72614	0.70904	0.13179	0.523
Mof_Ag	Ag	0.20483	0.0017	0.63235	0.535
Mof_C 	C 	0.3466	0.2199	0.4989	0.101
Mof_C 	C 	0.577	0.4002	0.6075	0.065
Mof_H 	H 	0.5967	0.405	0.6475	-0.025
Mof_C 	C 	0.3719	0.0071	0.9976	0.098
Mof_C 	C 	0.3721	0.0617	0.0889	-0.146
Mof_H 	H 	0.4146	0.0397	0.1101	0.083
Mof_C 	C 	0.5969	0.8169	0.1109	0.084
Mof_H 	H 	0.6153	0.8111	0.1509	-0.01
Mof_C 	C 	0.4247	0.3014	0.493	0.093
Mof_C 	C 	0.5177	0.3875	0.4905	-0.137
Mof_H 	H 	0.4984	0.3848	0.4505	0.075
Mof_C 	C 	0.3402	0.0527	0.0298	0.065
Mof_C 	C 	0.2569	0.1337	0.5037	-0.136
Mof_H 	H 	0.2363	0.1332	0.4635	0.086
Mof_C 	C 	0.2771	0.0861	0.0007	-0.151
Mof_H 	H 	0.2543	0.0813	0.9608	0.077
Mof_C 	C 	0.3419	0.9857	0.8486	0.064
Mof_C 	C 	0.3724	0.976	0.9122	0.098
Mof_C 	C 	0.2284	0.0928	0.5347	0.086
Mof_H 	H 	0.1882	0.0654	0.5144	-0.012
Mof_C 	C 	0.5391	0.8613	0.0845	-0.134
Mof_H 	H 	0.5188	0.8839	0.1062	0.084
Mof_C 	C 	0.3162	0.1755	0.53319	0.069
Mof_C 	C 	0.3096	0.2426	0.348	0.058
Mof_C 	C 	0.5428	0.8341	0.9946	-0.134
Mof_H 	H 	0.525	0.8375	0.9546	0.084
Mof_C 	C 	0.2473	0.2074	0.319	-0.14
Mof_H 	H 	0.2233	0.1897	0.3392	0.082
Mof_C 	C 	0.2486	0.1266	0.0312	0.078
Mof_H 	H 	0.2063	0.1493	0.0109	-0.023
Mof_C 	C 	0.4499	0.9229	0.9946	0.105
Mof_C 	C 	0.5176	0.3577	0.5814	-0.135
Mof_H 	H 	0.4981	0.3344	0.6036	0.078
Mof_C 	C 	0.3416	0.2522	0.412	0.096
Mof_C 	C 	0.2205	0.1985	0.2596	0.08
Mof_H 	H 	0.1785	0.1744	0.2405	-0.016
Mof_C 	C 	0.3133	0.2575	0.2572	0.077
Mof_H 	H 	0.3362	0.2754	0.2362	-0.026
Mof_C 	C 	0.3437	0.2675	0.3163	-0.146
Mof_H 	H 	0.3862	0.2907	0.3345	0.074
Mof_C 	C 	0.3395	0.1043	0.116	0.075
Mof_H 	H 	0.3617	0.1117	0.1557	-0.021
Mof_C 	C 	0.2882	0.0373	0.822	-0.138
Mof_H 	H 	0.2722	0.0677	0.8439	0.07
Mof_C 	C 	0.601	0.791	0.0254	0.09
Mof_H 	H 	0.6224	0.7673	0.0049	-0.014
Mof_C 	C 	0.2587	0.0434	0.7628	0.07
Mof_H 	H 	0.2228	0.0788	0.7455	-0.017
Mof_C 	C 	0.4873	0.35	0.5221	0.055
Mof_C 	C 	0.511	0.8724	0.0249	0.067
Mof_C 	C 	0.3446	0.1749	0.5926	-0.141
Mof_H 	H 	0.3839	0.2035	0.6138	0.081
Mof_C 	C 	0.5778	0.4291	0.5206	0.077
Mof_H 	H 	0.5979	0.4541	0.4995	-0.012
Mof_C 	C 	0.3663	0.9452	0.8147	-0.147
Mof_H 	H 	0.4044	0.913	0.8313	0.086
Mof_C 	C 	0.3328	0.9536	0.7557	0.091
Mof_H 	H 	0.3489	0.9246	0.7332	-0.023
Mof_C 	C 	0.3137	0.131	0.6202	0.086
Mof_H 	H 	0.3343	0.1293	0.6603	-0.008
Mof_N 	N 	0.62838	0.7813	0.08232	-0.194
Mof_N 	N 	0.278	0.1351	0.08817	-0.215
Mof_N 	N 	0.2792	0.0003	0.72868	-0.2
Mof_N 	N 	0.4255	0.9607	0.02713	-0.139
Mof_N 	N 	0.34377	0.0175	0.94071	-0.142
Mof_N 	N 	0.42514	0.9271	0.93713	-0.138
Mof_N 	N 	0.2558	0.0905	0.59255	-0.189
Mof_N 	N 	0.2532	0.2234	0.22861	-0.199
Mof_N 	N 	0.6078	0.435	0.57791	-0.208
Mof_N 	N 	0.40231	0.2607	0.52689	-0.141
Mof_N 	N 	0.31371	0.2126	0.44124	-0.138
Mof_N 	N 	0.3961	0.2989	0.43543	-0.149
Mof_Ag	Ag	0.22614	0.79096	0.63179	0.523
Mof_Ag	Ag	0.70483	0.4983	0.13235	0.535
Mof_C 	C 	0.8466	0.2801	0.9989	0.1
Mof_C 	C 	0.077	0.0998	0.1075	0.067
Mof_H 	H 	0.0967	0.095	0.1475	-0.026
Mof_C 	C 	0.8719	0.4929	0.4976	0.098
Mof_C 	C 	0.8721	0.4383	0.5889	-0.146
Mof_H 	H 	0.9146	0.4603	0.6101	0.082
Mof_C 	C 	0.0969	0.6831	0.6109	0.084
Mof_H 	H 	0.1153	0.6889	0.6509	-0.01
Mof_C 	C 	0.9247	0.1986	0.993	0.091
Mof_C 	C 	0.0177	0.1125	0.9905	-0.136
Mof_H 	H 	0.9984	0.1152	0.9505	0.073
Mof_C 	C 	0.8402	0.4473	0.5298	0.064
Mof_C 	C 	0.7569	0.3663	0.0037	-0.135
Mof_H 	H 	0.7363	0.3668	0.9635	0.086
Mof_C 	C 	0.7771	0.4139	0.5007	-0.15
Mof_H 	H 	0.7543	0.4187	0.4608	0.076
Mof_C 	C 	0.8419	0.5143	0.3486	0.063
Mof_C 	C 	0.8724	0.524	0.4122	0.098
Mof_C 	C 	0.7284	0.4072	0.0347	0.086
Mof_H 	H 	0.6882	0.4346	0.0144	-0.012
Mof_C 	C 	0.0391	0.6387	0.5845	-0.134
Mof_H 	H 	0.0188	0.6161	0.6062	0.084
Mof_C 	C 	0.8162	0.3245	0.03319	0.069
Mof_C 	C 	0.8096	0.2574	0.848	0.058
Mof_C 	C 	0.0428	0.6659	0.4946	-0.134
Mof_H 	H 	0.025	0.6625	0.4546	0.084
Mof_C 	C 	0.7473	0.2926	0.819	-0.14
Mof_H 	H 	0.7233	0.3103	0.8392	0.082
Mof_C 	C 	0.7486	0.3734	0.5312	0.078
Mof_H 	H 	0.7063	0.3507	0.5109	-0.022
Mof_C 	C 	0.9499	0.5771	0.4946	0.105
Mof_C 	C 	0.0176	0.1423	0.0814	-0.138
Mof_H 	H 	0.9981	0.1656	0.1036	0.079
Mof_C 	C 	0.8416	0.2478	0.912	0.096
Mof_C 	C 	0.7205	0.3015	0.7596	0.08
Mof_H 	H 	0.6785	0.3256	0.7405	-0.016
Mof_C 	C 	0.8133	0.2425	0.7572	0.077
Mof_H 	H 	0.8362	0.2246	0.7362	-0.026
Mof_C 	C 	0.8437	0.2325	0.8163	-0.146
Mof_H 	H 	0.8862	0.2093	0.8345	0.074
Mof_C 	C 	0.8395	0.3957	0.616	0.074
Mof_H 	H 	0.8617	0.3883	0.6557	-0.021
Mof_C 	C 	0.7882	0.4627	0.322	-0.138
Mof_H 	H 	0.7722	0.4323	0.3439	0.07
Mof_C 	C 	0.101	0.709	0.5254	0.09
Mof_H 	H 	0.1224	0.7327	0.5049	-0.014
Mof_C 	C 	0.7587	0.4566	0.2628	0.07
Mof_H 	H 	0.7228	0.4212	0.2455	-0.017
Mof_C 	C 	0.9873	0.15	0.0221	0.057
Mof_C 	C 	0.011	0.6276	0.5249	0.067
Mof_C 	C 	0.8446	0.3251	0.0926	-0.141
Mof_H 	H 	0.8839	0.2965	0.1138	0.081
Mof_C 	C 	0.0778	0.0709	0.0206	0.075
Mof_H 	H 	0.0979	0.0459	0.9995	-0.011
Mof_C 	C 	0.8663	0.5548	0.3147	-0.147
Mof_H 	H 	0.9044	0.587	0.3313	0.086
Mof_C 	C 	0.8328	0.5464	0.2557	0.091
Mof_H 	H 	0.8489	0.5754	0.2332	-0.023
Mof_C 	C 	0.8137	0.369	0.1202	0.086
Mof_H 	H 	0.8343	0.3707	0.1603	-0.008
Mof_N 	N 	0.12838	0.7187	0.58232	-0.194
Mof_N 	N 	0.778	0.3649	0.58817	-0.215
Mof_N 	N 	0.7792	0.4997	0.22868	-0.2
Mof_N 	N 	0.9255	0.5393	0.52713	-0.139
Mof_N 	N 	0.84377	0.4825	0.44071	-0.142
Mof_N 	N 	0.92514	0.5729	0.43713	-0.138
Mof_N 	N 	0.7558	0.4095	0.09255	-0.189
Mof_N 	N 	0.7532	0.2766	0.72861	-0.199
Mof_N 	N 	0.1078	0.065	0.07791	-0.208
Mof_N 	N 	0.90231	0.2393	0.02689	-0.14
Mof_N 	N 	0.81371	0.2874	0.94124	-0.138
Mof_N 	N 	0.8961	0.2011	0.93543	-0.149
Mof_Ag	Ag	0.72614	0.29096	0.63179	0.523
Mof_Ag	Ag	0.20483	0.9983	0.13235	0.535
Mof_C 	C 	0.3466	0.7801	0.9989	0.101
Mof_C 	C 	0.577	0.5998	0.1075	0.065
Mof_H 	H 	0.5967	0.595	0.1475	-0.025
Mof_C 	C 	0.3719	0.9929	0.4976	0.098
Mof_C 	C 	0.3721	0.9383	0.5889	-0.146
Mof_H 	H 	0.4146	0.9603	0.6101	0.082
Mof_C 	C 	0.5969	0.1831	0.6109	0.084
Mof_H 	H 	0.6153	0.1889	0.6509	-0.01
Mof_C 	C 	0.4247	0.6986	0.993	0.093
Mof_C 	C 	0.5177	0.6125	0.9905	-0.138
Mof_H 	H 	0.4984	0.6152	0.9505	0.075
Mof_C 	C 	0.3402	0.9473	0.5298	0.064
Mof_C 	C 	0.2569	0.8663	0.0037	-0.137
Mof_H 	H 	0.2363	0.8668	0.9635	0.087
Mof_C 	C 	0.2771	0.9139	0.5007	-0.15
Mof_H 	H 	0.2543	0.9187	0.4608	0.076
Mof_C 	C 	0.3419	0.0143	0.3486	0.064
Mof_C 	C 	0.3724	0.024	0.4122	0.098
Mof_C 	C 	0.2284	0.9072	0.0347	0.087
Mof_H 	H 	0.1882	0.9346	0.0144	-0.013
Mof_C 	C 	0.5391	0.1387	0.5845	-0.134
Mof_H 	H 	0.5188	0.1161	0.6062	0.084
Mof_C 	C 	0.3162	0.8245	0.03319	0.069
Mof_C 	C 	0.3096	0.7574	0.848	0.058
Mof_C 	C 	0.5428	0.1659	0.4946	-0.134
Mof_H 	H 	0.525	0.1625	0.4546	0.084
Mof_C 	C 	0.2473	0.7926	0.819	-0.14
Mof_H 	H 	0.2233	0.8103	0.8392	0.082
Mof_C 	C 	0.2486	0.8734	0.5312	0.078
Mof_H 	H 	0.2063	0.8507	0.5109	-0.022
Mof_C 	C 	0.4499	0.0771	0.4946	0.105
Mof_C 	C 	0.5176	0.6423	0.0814	-0.135
Mof_H 	H 	0.4981	0.6656	0.1036	0.078
Mof_C 	C 	0.3416	0.7478	0.912	0.096
Mof_C 	C 	0.2205	0.8015	0.7596	0.08
Mof_H 	H 	0.1785	0.8256	0.7405	-0.016
Mof_C 	C 	0.3133	0.7425	0.7572	0.077
Mof_H 	H 	0.3362	0.7246	0.7362	-0.026
Mof_C 	C 	0.3437	0.7325	0.8163	-0.146
Mof_H 	H 	0.3862	0.7093	0.8345	0.074
Mof_C 	C 	0.3395	0.8957	0.616	0.075
Mof_H 	H 	0.3617	0.8883	0.6557	-0.021
Mof_C 	C 	0.2882	0.9627	0.322	-0.138
Mof_H 	H 	0.2722	0.9323	0.3439	0.07
Mof_C 	C 	0.601	0.209	0.5254	0.09
Mof_H 	H 	0.6224	0.2327	0.5049	-0.014
Mof_C 	C 	0.2587	0.9566	0.2628	0.07
Mof_H 	H 	0.2228	0.9212	0.2455	-0.017
Mof_C 	C 	0.4873	0.65	0.0221	0.055
Mof_C 	C 	0.511	0.1276	0.5249	0.067
Mof_C 	C 	0.3446	0.8251	0.0926	-0.141
Mof_H 	H 	0.3839	0.7965	0.1138	0.081
Mof_C 	C 	0.5778	0.5709	0.0206	0.077
Mof_H 	H 	0.5979	0.5459	0.9995	-0.013
Mof_C 	C 	0.3663	0.0548	0.3147	-0.147
Mof_H 	H 	0.4044	0.087	0.3313	0.086
Mof_C 	C 	0.3328	0.0464	0.2557	0.091
Mof_H 	H 	0.3489	0.0754	0.2332	-0.023
Mof_C 	C 	0.3137	0.869	0.1202	0.086
Mof_H 	H 	0.3343	0.8707	0.1603	-0.008
Mof_N 	N 	0.62838	0.2187	0.58232	-0.194
Mof_N 	N 	0.278	0.8649	0.58817	-0.215
Mof_N 	N 	0.2792	0.9997	0.22868	-0.2
Mof_N 	N 	0.4255	0.0393	0.52713	-0.139
Mof_N 	N 	0.34377	0.9825	0.44071	-0.142
Mof_N 	N 	0.42514	0.0729	0.43713	-0.138
Mof_N 	N 	0.2558	0.9095	0.09255	-0.189
Mof_N 	N 	0.2532	0.7766	0.72861	-0.199
Mof_N 	N 	0.6078	0.565	0.07791	-0.209
Mof_N 	N 	0.40231	0.7393	0.02689	-0.142
Mof_N 	N 	0.31371	0.7874	0.94124	-0.138
Mof_N 	N 	0.3961	0.7011	0.93543	-0.149
Mof_Ag	Ag	0.77386	0.79096	0.86821	0.523
Mof_Ag	Ag	0.29517	0.4983	0.36765	0.535
Mof_C 	C 	0.1534	0.2801	0.5011	0.101
Mof_C 	C 	0.923	0.0998	0.3925	0.065
Mof_H 	H 	0.9033	0.095	0.3525	-0.025
Mof_C 	C 	0.1281	0.4929	0.0024	0.096
Mof_C 	C 	0.1279	0.4383	0.9111	-0.146
Mof_H 	H 	0.0854	0.4603	0.8899	0.083
Mof_C 	C 	0.9031	0.6831	0.8891	0.083
Mof_H 	H 	0.8847	0.6889	0.8491	-0.01
Mof_C 	C 	0.0753	0.1986	0.507	0.093
Mof_C 	C 	0.9823	0.1125	0.5095	-0.137
Mof_H 	H 	0.0016	0.1152	0.5495	0.074
Mof_C 	C 	0.1598	0.4473	0.9702	0.065
Mof_C 	C 	0.2431	0.3663	0.4963	-0.136
Mof_H 	H 	0.2637	0.3668	0.5365	0.086
Mof_C 	C 	0.2229	0.4139	0.9993	-0.15
Mof_H 	H 	0.2457	0.4187	0.0392	0.076
Mof_C 	C 	0.1581	0.5143	0.1514	0.063
Mof_C 	C 	0.1276	0.524	0.0878	0.098
Mof_C 	C 	0.2716	0.4072	0.4653	0.086
Mof_H 	H 	0.3118	0.4346	0.4856	-0.012
Mof_C 	C 	0.9609	0.6387	0.9155	-0.133
Mof_H 	H 	0.9812	0.6161	0.8938	0.084
Mof_C 	C 	0.1838	0.3245	0.46681	0.069
Mof_C 	C 	0.1904	0.2574	0.652	0.058
Mof_C 	C 	0.9572	0.6659	0.0054	-0.132
Mof_H 	H 	0.975	0.6625	0.0454	0.084
Mof_C 	C 	0.2527	0.2926	0.681	-0.14
Mof_H 	H 	0.2767	0.3103	0.6608	0.082
Mof_C 	C 	0.2514	0.3734	0.9688	0.078
Mof_H 	H 	0.2937	0.3507	0.9891	-0.022
Mof_C 	C 	0.0501	0.5771	0.0054	0.105
Mof_C 	C 	0.9824	0.1423	0.4186	-0.134
Mof_H 	H 	0.0019	0.1656	0.3964	0.077
Mof_C 	C 	0.1584	0.2478	0.588	0.096
Mof_C 	C 	0.2795	0.3015	0.7404	0.08
Mof_H 	H 	0.3215	0.3256	0.7595	-0.016
Mof_C 	C 	0.1867	0.2425	0.7428	0.077
Mof_H 	H 	0.1638	0.2246	0.7638	-0.026
Mof_C 	C 	0.1563	0.2325	0.6837	-0.146
Mof_H 	H 	0.1138	0.2093	0.6655	0.074
Mof_C 	C 	0.1605	0.3957	0.884	0.075
Mof_H 	H 	0.1383	0.3883	0.8443	-0.021
Mof_C 	C 	0.2118	0.4627	0.178	-0.138
Mof_H 	H 	0.2278	0.4323	0.1561	0.07
Mof_C 	C 	0.899	0.709	0.9746	0.088
Mof_H 	H 	0.8776	0.7327	0.9951	-0.014
Mof_C 	C 	0.2413	0.4566	0.2372	0.07
Mof_H 	H 	0.2772	0.4212	0.2545	-0.017
Mof_C 	C 	0.0127	0.15	0.4779	0.054
Mof_C 	C 	0.989	0.6276	0.9751	0.066
Mof_C 	C 	0.1554	0.3251	0.4074	-0.141
Mof_H 	H 	0.1161	0.2965	0.3862	0.081
Mof_C 	C 	0.9222	0.0709	0.4794	0.077
Mof_H 	H 	0.9021	0.0459	0.5005	-0.012
Mof_C 	C 	0.1337	0.5548	0.1853	-0.147
Mof_H 	H 	0.0956	0.587	0.1687	0.086
Mof_C 	C 	0.1672	0.5464	0.2443	0.091
Mof_H 	H 	0.1511	0.5754	0.2668	-0.023
Mof_C 	C 	0.1863	0.369	0.3798	0.086
Mof_H 	H 	0.1657	0.3707	0.3397	-0.008
Mof_N 	N 	0.87162	0.7187	0.91768	-0.193
Mof_N 	N 	0.222	0.3649	0.91183	-0.215
Mof_N 	N 	0.2208	0.4997	0.27132	-0.2
Mof_N 	N 	0.0745	0.5393	0.97287	-0.138
Mof_N 	N 	0.15623	0.4825	0.05929	-0.142
Mof_N 	N 	0.07486	0.5729	0.06287	-0.138
Mof_N 	N 	0.2442	0.4095	0.40745	-0.189
Mof_N 	N 	0.2468	0.2766	0.77139	-0.199
Mof_N 	N 	0.8922	0.065	0.42209	-0.208
Mof_N 	N 	0.09769	0.2393	0.47311	-0.141
Mof_N 	N 	0.18629	0.2874	0.55876	-0.138
Mof_N 	N 	0.1039	0.2011	0.56457	-0.149
Mof_Ag	Ag	0.27386	0.29096	0.86821	0.523
Mof_Ag	Ag	0.79517	0.9983	0.36765	0.535
Mof_C 	C 	0.6534	0.7801	0.5011	0.101
Mof_C 	C 	0.423	0.5998	0.3925	0.065
Mof_H 	H 	0.4033	0.595	0.3525	-0.025
Mof_C 	C 	0.6281	0.9929	0.0024	0.098
Mof_C 	C 	0.6279	0.9383	0.9111	-0.146
Mof_H 	H 	0.5854	0.9603	0.8899	0.083
Mof_C 	C 	0.4031	0.1831	0.8891	0.084
Mof_H 	H 	0.3847	0.1889	0.8491	-0.01
Mof_C 	C 	0.5753	0.6986	0.507	0.093
Mof_C 	C 	0.4823	0.6125	0.5095	-0.137
Mof_H 	H 	0.5016	0.6152	0.5495	0.075
Mof_C 	C 	0.6598	0.9473	0.9702	0.065
Mof_C 	C 	0.7431	0.8663	0.4963	-0.136
Mof_H 	H 	0.7637	0.8668	0.5365	0.086
Mof_C 	C 	0.7229	0.9139	0.9993	-0.151
Mof_H 	H 	0.7457	0.9187	0.0392	0.077
Mof_C 	C 	0.6581	0.0143	0.1514	0.064
Mof_C 	C 	0.6276	0.024	0.0878	0.098
Mof_C 	C 	0.7716	0.9072	0.4653	0.086
Mof_H 	H 	0.8118	0.9346	0.4856	-0.012
Mof_C 	C 	0.4609	0.1387	0.9155	-0.134
Mof_H 	H 	0.4812	0.1161	0.8938	0.084
Mof_C 	C 	0.6838	0.8245	0.46681	0.069
Mof_C 	C 	0.6904	0.7574	0.652	0.058
Mof_C 	C 	0.4572	0.1659	0.0054	-0.134
Mof_H 	H 	0.475	0.1625	0.0454	0.084
Mof_C 	C 	0.7527	0.7926	0.681	-0.14
Mof_H 	H 	0.7767	0.8103	0.6608	0.082
Mof_C 	C 	0.7514	0.8734	0.9688	0.078
Mof_H 	H 	0.7937	0.8507	0.9891	-0.023
Mof_C 	C 	0.5501	0.0771	0.0054	0.105
Mof_C 	C 	0.4824	0.6423	0.4186	-0.135
Mof_H 	H 	0.5019	0.6656	0.3964	0.078
Mof_C 	C 	0.6584	0.7478	0.588	0.096
Mof_C 	C 	0.7795	0.8015	0.7404	0.08
Mof_H 	H 	0.8215	0.8256	0.7595	-0.016
Mof_C 	C 	0.6867	0.7425	0.7428	0.077
Mof_H 	H 	0.6638	0.7246	0.7638	-0.026
Mof_C 	C 	0.6563	0.7325	0.6837	-0.146
Mof_H 	H 	0.6138	0.7093	0.6655	0.074
Mof_C 	C 	0.6605	0.8957	0.884	0.075
Mof_H 	H 	0.6383	0.8883	0.8443	-0.021
Mof_C 	C 	0.7118	0.9627	0.178	-0.138
Mof_H 	H 	0.7278	0.9323	0.1561	0.07
Mof_C 	C 	0.399	0.209	0.9746	0.09
Mof_H 	H 	0.3776	0.2327	0.9951	-0.014
Mof_C 	C 	0.7413	0.9566	0.2372	0.07
Mof_H 	H 	0.7772	0.9212	0.2545	-0.017
Mof_C 	C 	0.5127	0.65	0.4779	0.055
Mof_C 	C 	0.489	0.1276	0.9751	0.067
Mof_C 	C 	0.6554	0.8251	0.4074	-0.141
Mof_H 	H 	0.6161	0.7965	0.3862	0.081
Mof_C 	C 	0.4222	0.5709	0.4794	0.077
Mof_H 	H 	0.4021	0.5459	0.5005	-0.012
Mof_C 	C 	0.6337	0.0548	0.1853	-0.147
Mof_H 	H 	0.5956	0.087	0.1687	0.086
Mof_C 	C 	0.6672	0.0464	0.2443	0.091
Mof_H 	H 	0.6511	0.0754	0.2668	-0.023
Mof_C 	C 	0.6863	0.869	0.3798	0.086
Mof_H 	H 	0.6657	0.8707	0.3397	-0.008
Mof_N 	N 	0.37162	0.2187	0.91768	-0.194
Mof_N 	N 	0.722	0.8649	0.91183	-0.215
Mof_N 	N 	0.7208	0.9997	0.27132	-0.2
Mof_N 	N 	0.5745	0.0393	0.97287	-0.139
Mof_N 	N 	0.65623	0.9825	0.05929	-0.142
Mof_N 	N 	0.57486	0.0729	0.06287	-0.138
Mof_N 	N 	0.7442	0.9095	0.40745	-0.189
Mof_N 	N 	0.7468	0.7766	0.77139	-0.199
Mof_N 	N 	0.3922	0.565	0.42209	-0.208
Mof_N 	N 	0.59769	0.7393	0.47311	-0.141
Mof_N 	N 	0.68629	0.7874	0.55876	-0.138
Mof_N 	N 	0.6039	0.7011	0.56457	-0.149
_end
