data_functionalizedCrystal
_audit_creation_method	'EQeq! by Chris Wilmer'
_symmetry_space_group_name_H-M	'P1'
_symmetry_Int_Tables_number	1
_symmetry_cell_setting	triclinic
loop_
_symmetry_equiv_pos_as_xyz
  x,y,z
_cell_length_a	13.5
_cell_length_b	14.702
_cell_length_c	21.245
_cell_angle_alpha	90
_cell_angle_beta	90
_cell_angle_gamma	90
loop_
_atom_site_label
_atom_site_type_symbol
_atom_site_fract_x
_atom_site_fract_y
_atom_site_fract_z
_atom_site_charge
Mof_Zn	Zn	0.50187	0.39481	0.56855	1.224
Mof_Zn	Zn	0.49813	0.89481	0.93145	1.223
Mof_Zn	Zn	0.49813	0.60519	0.43145	1.224
Mof_Zn	Zn	0.50187	0.10519	0.06855	1.224
Mof_H 	H 	0.6741	0.4719	0.6511	-0.004
Mof_H 	H 	0.839	0.5083	0.6441	0.093
Mof_H 	H 	0.8524	0.3672	0.4841	0.099
Mof_H 	H 	0.6876	0.3344	0.4957	0.003
Mof_H 	H 	0.9944	0.5129	0.5854	0.049
Mof_H 	H 	0.3076	0.463	0.633	-0.003
Mof_H 	H 	0.143	0.4826	0.6137	0.09
Mof_H 	H 	0.1747	0.3275	0.4603	0.105
Mof_H 	H 	0.3379	0.3099	0.4862	-0.006
Mof_H 	H 	0.0068	0.3788	0.491	0.068
Mof_H 	H 	0.517	0.1384	0.6902	0.096
Mof_H 	H 	0.5056	0.2827	0.7718	0.062
Mof_H 	H 	0.5164	0.0943	0.8015	0.011
Mof_H 	H 	0.5	0.2377	0.8829	0.156
Mof_H 	H 	0.3259	0.9719	0.8489	-0.005
Mof_H 	H 	0.161	0.0083	0.8559	0.091
Mof_H 	H 	0.1476	0.8672	0.0159	0.099
Mof_H 	H 	0.3124	0.8344	0.0043	0.005
Mof_H 	H 	0.0056	0.0129	0.9146	0.044
Mof_H 	H 	0.6924	0.963	0.867	-0.003
Mof_H 	H 	0.857	0.9826	0.8863	0.096
Mof_H 	H 	0.8253	0.8275	0.0397	0.106
Mof_H 	H 	0.6621	0.8099	0.0138	-0.007
Mof_H 	H 	0.9932	0.8788	0.009	0.068
Mof_H 	H 	0.483	0.6384	0.8098	0.096
Mof_H 	H 	0.4944	0.7827	0.7282	0.061
Mof_H 	H 	0.4836	0.5943	0.6985	0.01
Mof_H 	H 	0.5	0.7377	0.6171	0.156
Mof_H 	H 	0.3259	0.5281	0.3489	-0.004
Mof_H 	H 	0.161	0.4917	0.3559	0.092
Mof_H 	H 	0.1476	0.6328	0.5159	0.093
Mof_H 	H 	0.3124	0.6656	0.5043	0.003
Mof_H 	H 	0.0056	0.4871	0.4146	0.047
Mof_H 	H 	0.6924	0.537	0.367	-0.002
Mof_H 	H 	0.857	0.5174	0.3863	0.096
Mof_H 	H 	0.8253	0.6725	0.5397	0.105
Mof_H 	H 	0.6621	0.6901	0.5138	-0.006
Mof_H 	H 	0.9932	0.6212	0.509	0.07
Mof_H 	H 	0.483	0.8616	0.3098	0.096
Mof_H 	H 	0.4944	0.7173	0.2282	0.062
Mof_H 	H 	0.4836	0.9057	0.1985	0.011
Mof_H 	H 	0.5	0.7623	0.1171	0.156
Mof_H 	H 	0.6741	0.0281	0.1511	-0.003
Mof_H 	H 	0.839	0.9917	0.1441	0.089
Mof_H 	H 	0.8524	0.1328	0.9841	0.104
Mof_H 	H 	0.6876	0.1656	0.9957	0.006
Mof_H 	H 	0.9944	0.9871	0.0854	0.045
Mof_H 	H 	0.3076	0.037	0.133	-0.004
Mof_H 	H 	0.143	0.0174	0.1137	0.091
Mof_H 	H 	0.1747	0.1725	0.9603	0.106
Mof_H 	H 	0.3379	0.1901	0.9862	-0.007
Mof_H 	H 	0.0068	0.1212	0.991	0.065
Mof_H 	H 	0.517	0.3616	0.1902	0.096
Mof_H 	H 	0.5056	0.2173	0.2718	0.062
Mof_H 	H 	0.5164	0.4057	0.3015	0.011
Mof_H 	H 	0.5	0.2623	0.3829	0.156
Mof_C 	C 	0.7098	0.4526	0.6162	0.106
Mof_C 	C 	0.8091	0.4751	0.6121	-0.173
Mof_C 	C 	0.8639	0.4483	0.5603	0.113
Mof_C 	C 	0.8172	0.3918	0.5176	-0.165
Mof_C 	C 	0.7181	0.3721	0.525	0.088
Mof_C 	C 	0.9634	0.49	0.5469	-0.05
Mof_C 	C 	0.2808	0.4367	0.597	0.101
Mof_C 	C 	0.1816	0.4495	0.5855	-0.178
Mof_C 	C 	0.1394	0.4129	0.5318	0.126
Mof_C 	C 	0.2002	0.3576	0.4952	-0.18
Mof_C 	C 	0.299	0.3477	0.5112	0.103
Mof_C 	C 	0.0384	0.4345	0.5065	-0.089
Mof_C 	C 	0.5076	0.2689	0.6498	0.331
Mof_C 	C 	0.512	0.1995	0.7012	-0.168
Mof_C 	C 	0.5091	0.2213	0.7613	-0.038
Mof_C 	C 	0.5111	0.1554	0.8121	0.107
Mof_C 	C 	0.5058	0.1766	0.8721	-0.323
Mof_C 	C 	0.5087	0.1086	0.9234	0.521
Mof_C 	C 	0.2902	0.9526	0.8838	0.105
Mof_C 	C 	0.1909	0.9751	0.8879	-0.173
Mof_C 	C 	0.1361	0.9483	0.9397	0.114
Mof_C 	C 	0.1828	0.8918	0.9824	-0.173
Mof_C 	C 	0.2819	0.8721	0.975	0.086
Mof_C 	C 	0.0366	0.99	0.9531	-0.064
Mof_C 	C 	0.7192	0.9367	0.903	0.102
Mof_C 	C 	0.8184	0.9495	0.9145	-0.178
Mof_C 	C 	0.8606	0.9129	0.9682	0.128
Mof_C 	C 	0.7998	0.8576	0.0048	-0.182
Mof_C 	C 	0.701	0.8477	0.9888	0.105
Mof_C 	C 	0.9616	0.9345	0.9935	-0.073
Mof_C 	C 	0.4924	0.7689	0.8502	0.331
Mof_C 	C 	0.488	0.6995	0.7988	-0.168
Mof_C 	C 	0.4909	0.7213	0.7387	-0.039
Mof_C 	C 	0.4889	0.6554	0.6879	0.107
Mof_C 	C 	0.4942	0.6766	0.6279	-0.324
Mof_C 	C 	0.4913	0.6086	0.5766	0.521
Mof_C 	C 	0.2902	0.5474	0.3838	0.106
Mof_C 	C 	0.1909	0.5249	0.3879	-0.174
Mof_C 	C 	0.1361	0.5517	0.4397	0.112
Mof_C 	C 	0.1828	0.6082	0.4824	-0.167
Mof_C 	C 	0.2819	0.6279	0.475	0.087
Mof_C 	C 	0.0366	0.51	0.4531	-0.066
Mof_C 	C 	0.7192	0.5633	0.403	0.101
Mof_C 	C 	0.8184	0.5505	0.4145	-0.176
Mof_C 	C 	0.8606	0.5871	0.4682	0.125
Mof_C 	C 	0.7998	0.6424	0.5048	-0.179
Mof_C 	C 	0.701	0.6523	0.4888	0.103
Mof_C 	C 	0.9616	0.5655	0.4935	-0.073
Mof_C 	C 	0.4924	0.7311	0.3502	0.331
Mof_C 	C 	0.488	0.8005	0.2988	-0.168
Mof_C 	C 	0.4909	0.7787	0.2387	-0.039
Mof_C 	C 	0.4889	0.8446	0.1879	0.107
Mof_C 	C 	0.4942	0.8234	0.1279	-0.324
Mof_C 	C 	0.4913	0.8914	0.0766	0.521
Mof_C 	C 	0.7098	0.0474	0.1162	0.104
Mof_C 	C 	0.8091	0.0249	0.1121	-0.167
Mof_C 	C 	0.8639	0.0517	0.0603	0.111
Mof_C 	C 	0.8172	0.1082	0.0176	-0.17
Mof_C 	C 	0.7181	0.1279	0.025	0.086
Mof_C 	C 	0.9634	0.01	0.0469	-0.046
Mof_C 	C 	0.2808	0.0633	0.097	0.102
Mof_C 	C 	0.1816	0.0505	0.0855	-0.18
Mof_C 	C 	0.1394	0.0871	0.0318	0.129
Mof_C 	C 	0.2002	0.1424	0.9952	-0.183
Mof_C 	C 	0.299	0.1523	0.0112	0.106
Mof_C 	C 	0.0384	0.0655	0.0065	-0.088
Mof_C 	C 	0.5076	0.2311	0.1498	0.331
Mof_C 	C 	0.512	0.3005	0.2012	-0.168
Mof_C 	C 	0.5091	0.2787	0.2613	-0.038
Mof_C 	C 	0.5111	0.3446	0.3121	0.107
Mof_C 	C 	0.5058	0.3234	0.3721	-0.324
Mof_C 	C 	0.5087	0.3914	0.4234	0.522
Mof_N 	N 	0.6636	0.405	0.5728	-0.236
Mof_N 	N 	0.3418	0.3884	0.5596	-0.241
Mof_N 	N 	0.3364	0.905	0.9272	-0.236
Mof_N 	N 	0.6582	0.8884	0.9404	-0.242
Mof_N 	N 	0.3364	0.595	0.4272	-0.236
Mof_N 	N 	0.6582	0.6116	0.4404	-0.241
Mof_N 	N 	0.6636	0.095	0.0728	-0.235
Mof_N 	N 	0.3418	0.1116	0.0596	-0.242
Mof_O 	O 	0.4989	0.352	0.66364	-0.396
Mof_O 	O 	0.5111	0.242	0.5943	-0.375
Mof_O 	O 	0.5133	0.1421	0.97744	-0.506
Mof_O 	O 	0.5079	0.0277	0.9088	-0.513
Mof_O 	O 	0.5011	0.852	0.83636	-0.397
Mof_O 	O 	0.4889	0.742	0.9057	-0.376
Mof_O 	O 	0.4867	0.6421	0.52256	-0.507
Mof_O 	O 	0.4921	0.5277	0.5912	-0.515
Mof_O 	O 	0.5011	0.648	0.33636	-0.396
Mof_O 	O 	0.4889	0.758	0.4057	-0.375
Mof_O 	O 	0.4867	0.8579	0.02256	-0.506
Mof_O 	O 	0.4921	0.9723	0.0912	-0.514
Mof_O 	O 	0.4989	0.148	0.16364	-0.397
Mof_O 	O 	0.5111	0.258	0.0943	-0.375
Mof_O 	O 	0.5133	0.3579	0.47744	-0.507
Mof_O 	O 	0.5079	0.4723	0.4088	-0.514
Mof_Zn	Zn	0.99813	0.60519	0.06855	1.227
Mof_Zn	Zn	0.00187	0.10519	0.43145	1.22
Mof_Zn	Zn	0.00187	0.39481	0.93145	1.219
Mof_Zn	Zn	0.99813	0.89481	0.56855	1.228
Mof_H 	H 	0.8259	0.5281	0.1511	-0.001
Mof_H 	H 	0.661	0.4917	0.1441	0.092
Mof_H 	H 	0.6476	0.6328	0.9841	0.095
Mof_H 	H 	0.8124	0.6656	0.9957	0.005
Mof_H 	H 	0.5056	0.4871	0.0854	0.047
Mof_H 	H 	0.1924	0.537	0.133	-0.004
Mof_H 	H 	0.357	0.5174	0.1137	0.095
Mof_H 	H 	0.3253	0.6725	0.9603	0.109
Mof_H 	H 	0.1621	0.6901	0.9862	-0.016
Mof_H 	H 	0.4932	0.6212	0.991	0.069
Mof_H 	H 	0.983	0.8616	0.1902	0.101
Mof_H 	H 	0.9944	0.7173	0.2718	0.06
Mof_H 	H 	0.9836	0.9057	0.3015	0.018
Mof_H 	H 	8.24592e-33	0.7623	0.3829	0.139
Mof_H 	H 	0.1741	0.0281	0.3489	-0.008
Mof_H 	H 	0.339	0.9917	0.3559	0.094
Mof_H 	H 	0.3524	0.1328	0.5159	0.096
Mof_H 	H 	0.1876	0.1656	0.5043	0.002
Mof_H 	H 	0.4944	0.9871	0.4146	0.048
Mof_H 	H 	0.8076	0.037	0.367	-0.001
Mof_H 	H 	0.643	0.0174	0.3863	0.093
Mof_H 	H 	0.6747	0.1725	0.5397	0.105
Mof_H 	H 	0.8379	0.1901	0.5138	-0.002
Mof_H 	H 	0.5068	0.1212	0.509	0.068
Mof_H 	H 	0.017	0.3616	0.3098	0.092
Mof_H 	H 	0.0056	0.2173	0.2282	0.06
Mof_H 	H 	0.0164	0.4057	0.1985	0.009
Mof_H 	H 	-8.05719e-34	0.2623	0.1171	0.155
Mof_H 	H 	0.1741	0.4719	0.8489	-0.008
Mof_H 	H 	0.339	0.5083	0.8559	0.091
Mof_H 	H 	0.3524	0.3672	0.0159	0.096
Mof_H 	H 	0.1876	0.3344	0.0043	0.005
Mof_H 	H 	0.4944	0.5129	0.9146	0.047
Mof_H 	H 	0.8076	0.463	0.867	-0.003
Mof_H 	H 	0.643	0.4826	0.8863	0.095
Mof_H 	H 	0.6747	0.3275	0.0397	0.11
Mof_H 	H 	0.8379	0.3099	0.0138	-0.01
Mof_H 	H 	0.5068	0.3788	0.009	0.069
Mof_H 	H 	0.017	0.1384	0.8098	0.091
Mof_H 	H 	0.0056	0.2827	0.7282	0.061
Mof_H 	H 	0.0164	0.0943	0.6985	0.007
Mof_H 	H 	-8.33213e-33	0.2377	0.6171	0.155
Mof_H 	H 	0.8259	0.9719	0.6511	-0.003
Mof_H 	H 	0.661	0.0083	0.6441	0.097
Mof_H 	H 	0.6476	0.8672	0.4841	0.096
Mof_H 	H 	0.8124	0.8344	0.4957	0.002
Mof_H 	H 	0.5056	0.0129	0.5854	0.05
Mof_H 	H 	0.1924	0.963	0.633	-0.003
Mof_H 	H 	0.357	0.9826	0.6137	0.092
Mof_H 	H 	0.3253	0.8275	0.4603	0.105
Mof_H 	H 	0.1621	0.8099	0.4862	-0.008
Mof_H 	H 	0.4932	0.8788	0.491	0.068
Mof_H 	H 	0.983	0.6384	0.6902	0.103
Mof_H 	H 	0.9944	0.7827	0.7718	0.058
Mof_H 	H 	0.9836	0.5943	0.8015	0.022
Mof_H 	H 	-3.07104e-32	0.7377	0.8829	0.13
Mof_C 	C 	0.7902	0.5474	0.1162	0.105
Mof_C 	C 	0.6909	0.5249	0.1121	-0.172
Mof_C 	C 	0.6361	0.5517	0.0603	0.11
Mof_C 	C 	0.6828	0.6082	0.0176	-0.165
Mof_C 	C 	0.7819	0.6279	0.025	0.084
Mof_C 	C 	0.5366	0.51	0.0469	-0.057
Mof_C 	C 	0.2192	0.5633	0.097	0.105
Mof_C 	C 	0.3184	0.5505	0.0855	-0.183
Mof_C 	C 	0.3606	0.5871	0.0318	0.134
Mof_C 	C 	0.2998	0.6424	0.9952	-0.193
Mof_C 	C 	0.201	0.6523	0.0112	0.117
Mof_C 	C 	0.4616	0.5655	0.0065	-0.083
Mof_C 	C 	0.9924	0.7311	0.1498	0.345
Mof_C 	C 	0.988	0.8005	0.2012	-0.179
Mof_C 	C 	0.9909	0.7787	0.2613	-0.022
Mof_C 	C 	0.9889	0.8446	0.3121	0.087
Mof_C 	C 	0.9942	0.8234	0.3721	-0.294
Mof_C 	C 	0.9913	0.8914	0.4234	0.511
Mof_C 	C 	0.2098	0.0474	0.3838	0.108
Mof_C 	C 	0.3091	0.0249	0.3879	-0.178
Mof_C 	C 	0.3639	0.0517	0.4397	0.114
Mof_C 	C 	0.3172	0.1082	0.4824	-0.168
Mof_C 	C 	0.2181	0.1279	0.475	0.088
Mof_C 	C 	0.4634	0.01	0.4531	-0.06
Mof_C 	C 	0.7808	0.0633	0.403	0.101
Mof_C 	C 	0.6816	0.0505	0.4145	-0.175
Mof_C 	C 	0.6394	0.0871	0.4682	0.125
Mof_C 	C 	0.7002	0.1424	0.5048	-0.177
Mof_C 	C 	0.799	0.1523	0.4888	0.103
Mof_C 	C 	0.5384	0.0655	0.4935	-0.077
Mof_C 	C 	0.0076	0.2311	0.3502	0.312
Mof_C 	C 	0.012	0.3005	0.2988	-0.161
Mof_C 	C 	0.0091	0.2787	0.2387	-0.046
Mof_C 	C 	0.0111	0.3446	0.1879	0.109
Mof_C 	C 	0.0058	0.3234	0.1279	-0.328
Mof_C 	C 	0.0087	0.3914	0.0766	0.522
Mof_C 	C 	0.2098	0.4526	0.8838	0.105
Mof_C 	C 	0.3091	0.4751	0.8879	-0.174
Mof_C 	C 	0.3639	0.4483	0.9397	0.111
Mof_C 	C 	0.3172	0.3918	0.9824	-0.166
Mof_C 	C 	0.2181	0.3721	0.975	0.084
Mof_C 	C 	0.4634	0.49	0.9531	-0.057
Mof_C 	C 	0.7808	0.4367	0.903	0.105
Mof_C 	C 	0.6816	0.4495	0.9145	-0.182
Mof_C 	C 	0.6394	0.4129	0.9682	0.133
Mof_C 	C 	0.7002	0.3576	0.0048	-0.192
Mof_C 	C 	0.799	0.3477	0.9888	0.117
Mof_C 	C 	0.5384	0.4345	0.9935	-0.083
Mof_C 	C 	0.0076	0.2689	0.8502	0.309
Mof_C 	C 	0.012	0.1995	0.7988	-0.16
Mof_C 	C 	0.0091	0.2213	0.7387	-0.048
Mof_C 	C 	0.0111	0.1554	0.6879	0.11
Mof_C 	C 	0.0058	0.1766	0.6279	-0.329
Mof_C 	C 	0.0087	0.1086	0.5766	0.522
Mof_C 	C 	0.7902	0.9526	0.6162	0.11
Mof_C 	C 	0.6909	0.9751	0.6121	-0.181
Mof_C 	C 	0.6361	0.9483	0.5603	0.116
Mof_C 	C 	0.6828	0.8918	0.5176	-0.169
Mof_C 	C 	0.7819	0.8721	0.525	0.089
Mof_C 	C 	0.5366	0.99	0.5469	-0.064
Mof_C 	C 	0.2192	0.9367	0.597	0.101
Mof_C 	C 	0.3184	0.9495	0.5855	-0.176
Mof_C 	C 	0.3606	0.9129	0.5318	0.125
Mof_C 	C 	0.2998	0.8576	0.4952	-0.179
Mof_C 	C 	0.201	0.8477	0.5112	0.102
Mof_C 	C 	0.4616	0.9345	0.5065	-0.078
Mof_C 	C 	0.9924	0.7689	0.6498	0.35
Mof_C 	C 	0.988	0.6995	0.7012	-0.184
Mof_C 	C 	0.9909	0.7213	0.7613	-0.014
Mof_C 	C 	0.9889	0.6554	0.8121	0.077
Mof_C 	C 	0.9942	0.6766	0.8721	-0.279
Mof_C 	C 	0.9913	0.6086	0.9234	0.506
Mof_N 	N 	0.8364	0.595	0.0728	-0.234
Mof_N 	N 	0.1582	0.6116	0.0596	-0.246
Mof_N 	N 	0.1636	0.095	0.4272	-0.238
Mof_N 	N 	0.8418	0.1116	0.4404	-0.238
Mof_N 	N 	0.1636	0.405	0.9272	-0.237
Mof_N 	N 	0.8418	0.3884	0.9404	-0.241
Mof_N 	N 	0.8364	0.905	0.5728	-0.236
Mof_N 	N 	0.1582	0.8884	0.5596	-0.243
Mof_O 	O 	0.0011	0.648	0.16364	-0.407
Mof_O 	O 	0.9889	0.758	0.0943	-0.377
Mof_O 	O 	0.9867	0.8579	0.47744	-0.5
Mof_O 	O 	0.9921	0.9723	0.4088	-0.509
Mof_O 	O 	0.9989	0.148	0.33636	-0.378
Mof_O 	O 	0.0111	0.258	0.4057	-0.374
Mof_O 	O 	0.0133	0.3579	0.02256	-0.509
Mof_O 	O 	0.0079	0.4723	0.0912	-0.518
Mof_O 	O 	0.9989	0.352	0.83636	-0.376
Mof_O 	O 	0.0111	0.242	0.9057	-0.374
Mof_O 	O 	0.0133	0.1421	0.52256	-0.512
Mof_O 	O 	0.0079	0.0277	0.5912	-0.521
Mof_O 	O 	0.0011	0.852	0.66364	-0.41
Mof_O 	O 	0.9889	0.742	0.5943	-0.377
Mof_O 	O 	0.9867	0.6421	0.97744	-0.496
Mof_O 	O 	0.9921	0.5277	0.9088	-0.504
_end
