# CIF file generated by openbabel 3.1.0, see https://openbabel.org
data_I
_chemical_name_common 'image0'
_cell_length_a 6.6539
_cell_length_b 18.3606
_cell_length_c 8.433
_cell_angle_alpha 90
_cell_angle_beta 90
_cell_angle_gamma 90
_space_group_name_H-M_alt 'P 1'
_space_group_name_Hall 'P 1'
loop_
    _symmetry_equiv_pos_as_xyz
    x,y,z
loop_
    _atom_site_label
    _atom_site_type_symbol
    _atom_site_fract_x
    _atom_site_fract_y
    _atom_site_fract_z
    _atom_site_occupancy
    O1       O        0.01190    0.45009    0.06960    1.000
    O2       O        0.33540    0.40574    0.27090    1.000
    O3       O        0.32540    0.18343    0.51860    1.000
    O4       O        0.17970    0.25820    0.34700    1.000
    C1       C        0.26400    0.24350    0.47550    1.000
    H1       H        0.28220    0.28190    0.54590    1.000
    O5       O        0.51190    0.95009    0.06960    1.000
    O6       O        0.83540    0.90574    0.27090    1.000
    O7       O        0.82540    0.68343    0.51860    1.000
    O8       O        0.67970    0.75820    0.34700    1.000
    C2       C        0.76400    0.74350    0.47550    1.000
    H2       H        0.78220    0.78190    0.54590    1.000
    O9       O        0.98810    0.54991    0.56960    1.000
    O10      O        0.66460    0.59426    0.77090    1.000
    O11      O        0.67460    0.81657    0.01860    1.000
    O12      O        0.82030    0.74180    0.84700    1.000
    C3       C        0.73600    0.75650    0.97550    1.000
    H3       H        0.71780    0.71810    0.04590    1.000
    O13      O        0.48810    0.04991    0.56960    1.000
    O14      O        0.16460    0.09426    0.77090    1.000
    O15      O        0.17460    0.31657    0.01860    1.000
    O16      O        0.32030    0.24180    0.84700    1.000
    C4       C        0.23600    0.25650    0.97550    1.000
    H4       H        0.21780    0.21810    0.04590    1.000
    O17      O        0.98810    0.45009    0.43040    1.000
    O18      O        0.66460    0.40574    0.22910    1.000
    O19      O        0.67460    0.18343    0.98140    1.000
    O20      O        0.82030    0.25820    0.15300    1.000
    C5       C        0.73600    0.24350    0.02450    1.000
    H5       H        0.71780    0.28190    0.95410    1.000
    O21      O        0.48810    0.95009    0.43040    1.000
    O22      O        0.16460    0.90574    0.22910    1.000
    O23      O        0.17460    0.68343    0.98140    1.000
    O24      O        0.32030    0.75820    0.15300    1.000
    C6       C        0.23600    0.74350    0.02450    1.000
    H6       H        0.21780    0.78190    0.95410    1.000
    O25      O        0.01190    0.54991    0.93040    1.000
    O26      O        0.33540    0.59426    0.72910    1.000
    O27      O        0.32540    0.81657    0.48140    1.000
    O28      O        0.17970    0.74180    0.65300    1.000
    C7       C        0.26400    0.75650    0.52450    1.000
    H7       H        0.28220    0.71810    0.45410    1.000
    O29      O        0.51190    0.04991    0.93040    1.000
    O30      O        0.83540    0.09426    0.72910    1.000
    O31      O        0.82540    0.31657    0.48140    1.000
    O32      O        0.67970    0.24180    0.65300    1.000
    C8       C        0.76400    0.25650    0.52450    1.000
    H8       H        0.78220    0.21810    0.45410    1.000
    Er1      Er       0.00000    0.35727    0.25000    1.000
    Er2      Er       0.50000    0.85727    0.25000    1.000
    Er3      Er       0.00000    0.64273    0.75000    1.000
    Er4      Er       0.50000    0.14273    0.75000    1.000
    C9       C        0.92570    0.50000    0.00000    1.000
    H9       H        0.78600    0.50000    0.00000    1.000
    C10      C        0.42570    0.00000    0.00000    1.000
    H10      H        0.28600    0.00000    0.00000    1.000
    C11      C        0.07430    0.50000    0.50000    1.000
    H11      H        0.21400    0.50000    0.50000    1.000
    C12      C        0.57430    0.00000    0.50000    1.000
    H12      H        0.71400    0.00000    0.50000    1.000
    C13      C        0.50000    0.37420    0.25000    1.000
    H13      H        0.50000    0.32360    0.25000    1.000
    C14      C        0.00000    0.87420    0.25000    1.000
    H14      H        0.00000    0.82360    0.25000    1.000
    C15      C        0.50000    0.62580    0.75000    1.000
    H15      H        0.50000    0.67640    0.75000    1.000
    C16      C        0.00000    0.12580    0.75000    1.000
    H16      H        0.00000    0.17640    0.75000    1.000
