data_functionalizedCrystal
_audit_creation_method	'EQeq! by Chris Wilmer'
_symmetry_space_group_name_H-M	'P1'
_symmetry_Int_Tables_number	1
_symmetry_cell_setting	triclinic
loop_
_symmetry_equiv_pos_as_xyz
  x,y,z
_cell_length_a	15.44
_cell_length_b	15.44
_cell_length_c	10.021
_cell_angle_alpha	90
_cell_angle_beta	90
_cell_angle_gamma	90
loop_
_atom_site_label
_atom_site_type_symbol
_atom_site_fract_x
_atom_site_fract_y
_atom_site_fract_z
_atom_site_charge
Mof_O 	O 	0.53163	0.633	0.1179	-0.571
Mof_C 	C 	0.3864	0.7582	0.881	0.242
Mof_H 	H 	0.4114	0.7416	0.8004	-0.029
Mof_C 	C 	0.3101	0.8063	0.8831	-0.196
Mof_H 	H 	0.2846	0.822	0.8026	0.119
Mof_O 	O 	0.46837	0.367	0.1179	-0.572
Mof_C 	C 	0.6136	0.2418	0.881	0.241
Mof_H 	H 	0.5886	0.2584	0.8004	-0.03
Mof_C 	C 	0.6899	0.1937	0.8831	-0.196
Mof_H 	H 	0.7154	0.178	0.8026	0.119
Mof_O 	O 	0.367	0.53163	0.1179	-0.572
Mof_C 	C 	0.2418	0.3864	0.881	0.241
Mof_H 	H 	0.2584	0.4114	0.8004	-0.03
Mof_C 	C 	0.1937	0.3101	0.8831	-0.196
Mof_H 	H 	0.178	0.2846	0.8026	0.119
Mof_O 	O 	0.633	0.46837	0.1179	-0.572
Mof_C 	C 	0.7582	0.6136	0.881	0.241
Mof_H 	H 	0.7416	0.5886	0.8004	-0.03
Mof_C 	C 	0.8063	0.6899	0.8831	-0.196
Mof_H 	H 	0.822	0.7154	0.8026	0.119
Mof_O 	O 	0.46837	0.633	0.3821	-0.579
Mof_C 	C 	0.6136	0.7582	0.619	0.209
Mof_H 	H 	0.5886	0.7416	0.6996	-0.02
Mof_C 	C 	0.6899	0.8063	0.6169	-0.259
Mof_H 	H 	0.7154	0.822	0.6974	0.139
Mof_O 	O 	0.53163	0.367	0.3821	-0.579
Mof_C 	C 	0.3864	0.2418	0.619	0.209
Mof_H 	H 	0.4114	0.2584	0.6996	-0.02
Mof_C 	C 	0.3101	0.1937	0.6169	-0.259
Mof_H 	H 	0.2846	0.178	0.6974	0.139
Mof_O 	O 	0.633	0.53163	0.3821	-0.579
Mof_C 	C 	0.7582	0.3864	0.619	0.209
Mof_H 	H 	0.7416	0.4114	0.6996	-0.02
Mof_C 	C 	0.8063	0.3101	0.6169	-0.259
Mof_H 	H 	0.822	0.2846	0.6974	0.139
Mof_O 	O 	0.367	0.46837	0.3821	-0.579
Mof_C 	C 	0.2418	0.6136	0.619	0.209
Mof_H 	H 	0.2584	0.5886	0.6996	-0.02
Mof_C 	C 	0.1937	0.6899	0.6169	-0.259
Mof_H 	H 	0.178	0.7154	0.6974	0.139
Mof_O 	O 	0.46837	0.367	0.8821	-0.542
Mof_C 	C 	0.6136	0.2418	0.119	0.203
Mof_H 	H 	0.5886	0.2584	0.1996	-0.023
Mof_C 	C 	0.6899	0.1937	0.1169	-0.238
Mof_H 	H 	0.7154	0.178	0.1974	0.123
Mof_O 	O 	0.53163	0.633	0.8821	-0.542
Mof_C 	C 	0.3864	0.7582	0.119	0.203
Mof_H 	H 	0.4114	0.7416	0.1996	-0.023
Mof_C 	C 	0.3101	0.8063	0.1169	-0.238
Mof_H 	H 	0.2846	0.822	0.1974	0.123
Mof_O 	O 	0.633	0.46837	0.8821	-0.542
Mof_C 	C 	0.7582	0.6136	0.119	0.203
Mof_H 	H 	0.7416	0.5886	0.1996	-0.023
Mof_C 	C 	0.8063	0.6899	0.1169	-0.238
Mof_H 	H 	0.822	0.7154	0.1974	0.123
Mof_O 	O 	0.367	0.53163	0.8821	-0.542
Mof_C 	C 	0.2418	0.3864	0.119	0.203
Mof_H 	H 	0.2584	0.4114	0.1996	-0.023
Mof_C 	C 	0.1937	0.3101	0.1169	-0.238
Mof_H 	H 	0.178	0.2846	0.1974	0.123
Mof_O 	O 	0.53163	0.367	0.6179	-0.579
Mof_C 	C 	0.3864	0.2418	0.381	0.207
Mof_H 	H 	0.4114	0.2584	0.3004	-0.025
Mof_C 	C 	0.3101	0.1937	0.3831	-0.259
Mof_H 	H 	0.2846	0.178	0.3026	0.13
Mof_O 	O 	0.46837	0.633	0.6179	-0.579
Mof_C 	C 	0.6136	0.7582	0.381	0.207
Mof_H 	H 	0.5886	0.7416	0.3004	-0.025
Mof_C 	C 	0.6899	0.8063	0.3831	-0.259
Mof_H 	H 	0.7154	0.822	0.3026	0.13
Mof_O 	O 	0.367	0.46837	0.6179	-0.579
Mof_C 	C 	0.2418	0.6136	0.381	0.207
Mof_H 	H 	0.2584	0.5886	0.3004	-0.025
Mof_C 	C 	0.1937	0.6899	0.3831	-0.259
Mof_H 	H 	0.178	0.7154	0.3026	0.13
Mof_O 	O 	0.633	0.53163	0.6179	-0.579
Mof_C 	C 	0.7582	0.3864	0.381	0.207
Mof_H 	H 	0.7416	0.4114	0.3004	-0.025
Mof_C 	C 	0.8063	0.3101	0.3831	-0.259
Mof_H 	H 	0.822	0.2846	0.3026	0.13
Mof_La	La	0.5	0.5	0.25	2.644
Mof_La	La	0.5	0.5	0.75	2.665
Mof_S 	S 	0.52633	0.68505	-0	0.784
Mof_N 	N 	0.129	0.0305	-0	-0.12
Mof_O 	O 	0.58815	0.75351	-0	-0.35
Mof_C 	C 	0.4241	0.7359	-0	-0.316
Mof_C 	C 	0.2712	0.8311	-0	0.145
Mof_C 	C 	0.1898	0.8819	-0	-0.13
Mof_C 	C 	0.1973	0.9719	-0	0.11
Mof_C 	C 	0.2757	0.0203	-0	-0.068
Mof_H 	H 	0.3313	0.9971	-0	0.059
Mof_C 	C 	0.2562	0.1049	-0	-0.113
Mof_H 	H 	0.2957	0.1504	-0	0.092
Mof_C 	C 	0.1652	0.1126	-0	0.124
Mof_S 	S 	0.47367	0.31495	-0	0.784
Mof_N 	N 	0.871	0.9695	-0	-0.12
Mof_O 	O 	0.41185	0.24649	-0	-0.35
Mof_C 	C 	0.5759	0.2641	-0	-0.316
Mof_C 	C 	0.7288	0.1689	-0	0.145
Mof_C 	C 	0.8102	0.1181	-0	-0.13
Mof_C 	C 	0.8027	0.0281	-0	0.11
Mof_C 	C 	0.7243	0.9797	-0	-0.068
Mof_H 	H 	0.6687	0.0029	-0	0.059
Mof_C 	C 	0.7438	0.8951	-0	-0.113
Mof_H 	H 	0.7043	0.8496	-0	0.092
Mof_C 	C 	0.8348	0.8874	-0	0.124
Mof_S 	S 	0.31495	0.52633	-0	0.784
Mof_N 	N 	0.9695	0.129	-0	-0.12
Mof_O 	O 	0.24649	0.58815	-0	-0.35
Mof_C 	C 	0.2641	0.4241	-0	-0.316
Mof_C 	C 	0.1689	0.2712	-0	0.145
Mof_C 	C 	0.1181	0.1898	-0	-0.13
Mof_C 	C 	0.0281	0.1973	-0	0.11
Mof_C 	C 	0.9797	0.2757	-0	-0.068
Mof_H 	H 	0.0029	0.3313	-0	0.059
Mof_C 	C 	0.8951	0.2562	-0	-0.113
Mof_H 	H 	0.8496	0.2957	-0	0.092
Mof_C 	C 	0.8874	0.1652	-0	0.124
Mof_S 	S 	0.68505	0.47367	-0	0.784
Mof_N 	N 	0.0305	0.871	-0	-0.12
Mof_O 	O 	0.75351	0.41185	-0	-0.35
Mof_C 	C 	0.7359	0.5759	-0	-0.316
Mof_C 	C 	0.8311	0.7288	-0	0.145
Mof_C 	C 	0.8819	0.8102	-0	-0.13
Mof_C 	C 	0.9719	0.8027	-0	0.11
Mof_C 	C 	0.0203	0.7243	-0	-0.068
Mof_H 	H 	0.9971	0.6687	-0	0.059
Mof_C 	C 	0.1049	0.7438	-0	-0.113
Mof_H 	H 	0.1504	0.7043	-0	0.092
Mof_C 	C 	0.1126	0.8348	-0	0.124
Mof_S 	S 	0.47367	0.68505	0.5	0.834
Mof_N 	N 	0.871	0.0305	0.5	-0.117
Mof_O 	O 	0.41185	0.75351	0.5	-0.346
Mof_C 	C 	0.5759	0.7359	0.5	-0.284
Mof_C 	C 	0.7288	0.8311	0.5	0.205
Mof_C 	C 	0.8102	0.8819	0.5	-0.143
Mof_C 	C 	0.8027	0.9719	0.5	0.126
Mof_C 	C 	0.7243	0.0203	0.5	-0.066
Mof_H 	H 	0.6687	0.9971	0.5	0.068
Mof_C 	C 	0.7438	0.1049	0.5	-0.109
Mof_H 	H 	0.7043	0.1504	0.5	0.1
Mof_C 	C 	0.8348	0.1126	0.5	0.138
Mof_S 	S 	0.52633	0.31495	0.5	0.834
Mof_N 	N 	0.129	0.9695	0.5	-0.117
Mof_O 	O 	0.58815	0.24649	0.5	-0.346
Mof_C 	C 	0.4241	0.2641	0.5	-0.284
Mof_C 	C 	0.2712	0.1689	0.5	0.205
Mof_C 	C 	0.1898	0.1181	0.5	-0.143
Mof_C 	C 	0.1973	0.0281	0.5	0.126
Mof_C 	C 	0.2757	0.9797	0.5	-0.066
Mof_H 	H 	0.3313	0.0029	0.5	0.068
Mof_C 	C 	0.2562	0.8951	0.5	-0.109
Mof_H 	H 	0.2957	0.8496	0.5	0.1
Mof_C 	C 	0.1652	0.8874	0.5	0.138
Mof_S 	S 	0.68505	0.52633	0.5	0.834
Mof_N 	N 	0.0305	0.129	0.5	-0.117
Mof_O 	O 	0.75351	0.58815	0.5	-0.346
Mof_C 	C 	0.7359	0.4241	0.5	-0.284
Mof_C 	C 	0.8311	0.2712	0.5	0.205
Mof_C 	C 	0.8819	0.1898	0.5	-0.143
Mof_C 	C 	0.9719	0.1973	0.5	0.126
Mof_C 	C 	0.0203	0.2757	0.5	-0.066
Mof_H 	H 	0.9971	0.3313	0.5	0.068
Mof_C 	C 	0.1049	0.2562	0.5	-0.109
Mof_H 	H 	0.1504	0.2957	0.5	0.1
Mof_C 	C 	0.1126	0.1652	0.5	0.138
Mof_S 	S 	0.31495	0.47367	0.5	0.834
Mof_N 	N 	0.9695	0.871	0.5	-0.117
Mof_O 	O 	0.24649	0.41185	0.5	-0.346
Mof_C 	C 	0.2641	0.5759	0.5	-0.284
Mof_C 	C 	0.1689	0.7288	0.5	0.205
Mof_C 	C 	0.1181	0.8102	0.5	-0.143
Mof_C 	C 	0.0281	0.8027	0.5	0.126
Mof_C 	C 	0.9797	0.7243	0.5	-0.066
Mof_H 	H 	0.0029	0.6687	0.5	0.068
Mof_C 	C 	0.8951	0.7438	0.5	-0.109
Mof_H 	H 	0.8496	0.7043	0.5	0.1
Mof_C 	C 	0.8874	0.8348	0.5	0.138
_end
