data_functionalizedCrystal
_audit_creation_method	'EQeq! by Chris Wilmer'
_symmetry_space_group_name_H-M	'P1'
_symmetry_Int_Tables_number	1
_symmetry_cell_setting	triclinic
loop_
_symmetry_equiv_pos_as_xyz
  x,y,z
_cell_length_a	27.5842
_cell_length_b	27.5842
_cell_length_c	27.5842
_cell_angle_alpha	60
_cell_angle_beta	60
_cell_angle_gamma	60
loop_
_atom_site_label
_atom_site_type_symbol
_atom_site_fract_x
_atom_site_fract_y
_atom_site_fract_z
_atom_site_charge
Mof_Hf	Hf	0.51836	0.04512	0.04512	1.167
Mof_Hf	Hf	0.04513	0.51835	0.3914	1.172
Mof_Hf	Hf	0.04513	0.3914	0.51835	1.172
Mof_Hf	Hf	0.39141	0.04512	0.04512	1.164
Mof_Hf	Hf	0.51836	0.04512	0.3914	1.172
Mof_Hf	Hf	0.04513	0.3914	0.04512	1.164
Mof_Hf	Hf	0.04513	0.51835	0.04512	1.167
Mof_Hf	Hf	0.39141	0.04512	0.51835	1.172
Mof_Hf	Hf	0.51836	0.3914	0.04512	1.172
Mof_Hf	Hf	0.04513	0.04512	0.51835	1.167
Mof_Hf	Hf	0.04513	0.04512	0.3914	1.164
Mof_Hf	Hf	0.39141	0.51835	0.04512	1.172
Mof_Hf	Hf	0.95487	0.48165	0.95488	1.167
Mof_Hf	Hf	0.48164	0.95488	0.6086	1.172
Mof_Hf	Hf	0.60859	0.95488	0.48165	1.172
Mof_Hf	Hf	0.95487	0.6086	0.95488	1.164
Mof_Hf	Hf	0.95487	0.48165	0.6086	1.172
Mof_Hf	Hf	0.60859	0.95488	0.95488	1.164
Mof_Hf	Hf	0.48164	0.95488	0.95488	1.167
Mof_Hf	Hf	0.95487	0.6086	0.48165	1.172
Mof_Hf	Hf	0.60859	0.48165	0.95488	1.172
Mof_Hf	Hf	0.95487	0.95488	0.48165	1.167
Mof_Hf	Hf	0.95487	0.95488	0.6086	1.164
Mof_Hf	Hf	0.48164	0.6086	0.95488	1.172
Mof_Hf	Hf	0.5	0.91091	0.08909	1.395
Mof_Hf	Hf	0.91091	0.5	0.5	1.393
Mof_Hf	Hf	0.08909	0.5	0.5	1.393
Mof_Hf	Hf	0.5	0.08909	0.91091	1.395
Mof_Hf	Hf	0.5	0.08909	0.5	1.394
Mof_Hf	Hf	0.91091	0.5	0.08909	1.396
Mof_Hf	Hf	0.08909	0.5	0.91091	1.396
Mof_Hf	Hf	0.5	0.91091	0.5	1.394
Mof_Hf	Hf	0.5	0.5	0.91091	1.394
Mof_Hf	Hf	0.91091	0.08909	0.5	1.396
Mof_Hf	Hf	0.08909	0.91091	0.5	1.396
Mof_Hf	Hf	0.5	0.5	0.08909	1.394
Mof_H 	H 	0.6322	0.7206	0.1572	0.048
Mof_H 	H 	0.7206	0.6322	0.49	0.048
Mof_H 	H 	0.1572	0.49	0.6322	0.048
Mof_H 	H 	0.49	0.1572	0.7206	0.048
Mof_H 	H 	0.6322	0.1572	0.49	0.048
Mof_H 	H 	0.7206	0.49	0.1572	0.048
Mof_H 	H 	0.1572	0.6322	0.7206	0.048
Mof_H 	H 	0.49	0.7206	0.6322	0.048
Mof_H 	H 	0.6322	0.49	0.7206	0.048
Mof_H 	H 	0.7206	0.1572	0.6322	0.048
Mof_H 	H 	0.1572	0.7206	0.49	0.048
Mof_H 	H 	0.49	0.6322	0.1572	0.048
Mof_H 	H 	0.2794	0.3678	0.8428	0.048
Mof_H 	H 	0.3678	0.2794	0.51	0.048
Mof_H 	H 	0.51	0.8428	0.3678	0.048
Mof_H 	H 	0.8428	0.51	0.2794	0.048
Mof_H 	H 	0.8428	0.3678	0.51	0.048
Mof_H 	H 	0.51	0.2794	0.8428	0.048
Mof_H 	H 	0.3678	0.8428	0.2794	0.048
Mof_H 	H 	0.2794	0.51	0.3678	0.048
Mof_H 	H 	0.51	0.3678	0.2794	0.048
Mof_H 	H 	0.8428	0.2794	0.3678	0.048
Mof_H 	H 	0.2794	0.8428	0.51	0.048
Mof_H 	H 	0.3678	0.51	0.8428	0.048
Mof_H 	H 	0.3678	0.2794	0.8428	0.048
Mof_H 	H 	0.2794	0.3678	0.51	0.048
Mof_H 	H 	0.8428	0.51	0.3678	0.048
Mof_H 	H 	0.51	0.8428	0.2794	0.048
Mof_H 	H 	0.3678	0.8428	0.51	0.048
Mof_H 	H 	0.2794	0.51	0.8428	0.048
Mof_H 	H 	0.8428	0.3678	0.2794	0.048
Mof_H 	H 	0.51	0.2794	0.3678	0.048
Mof_H 	H 	0.3678	0.51	0.2794	0.048
Mof_H 	H 	0.2794	0.8428	0.3678	0.048
Mof_H 	H 	0.8428	0.2794	0.51	0.048
Mof_H 	H 	0.51	0.3678	0.8428	0.048
Mof_H 	H 	0.7206	0.6322	0.1572	0.048
Mof_H 	H 	0.6322	0.7206	0.49	0.048
Mof_H 	H 	0.49	0.1572	0.6322	0.048
Mof_H 	H 	0.1572	0.49	0.7206	0.048
Mof_H 	H 	0.1572	0.6322	0.49	0.048
Mof_H 	H 	0.49	0.7206	0.1572	0.048
Mof_H 	H 	0.6322	0.1572	0.7206	0.048
Mof_H 	H 	0.7206	0.49	0.6322	0.048
Mof_H 	H 	0.49	0.6322	0.7206	0.048
Mof_H 	H 	0.1572	0.7206	0.6322	0.048
Mof_H 	H 	0.7206	0.1572	0.49	0.048
Mof_H 	H 	0.6322	0.49	0.1572	0.048
Mof_C 	C 	0.63419	0.82653	0.05893	0.395
Mof_C 	C 	0.6776	0.766	0.0762	-0.105
Mof_C 	C 	0.6684	0.7192	0.1262	-0.004
Mof_C 	C 	0.82653	0.63419	0.48035	0.396
Mof_C 	C 	0.766	0.6776	0.4802	-0.105
Mof_C 	C 	0.7192	0.6684	0.4862	-0.004
Mof_C 	C 	0.05893	0.48035	0.63419	0.396
Mof_C 	C 	0.0762	0.4802	0.6776	-0.105
Mof_C 	C 	0.1262	0.4862	0.6684	-0.004
Mof_C 	C 	0.48035	0.05893	0.82653	0.396
Mof_C 	C 	0.4802	0.0762	0.766	-0.105
Mof_C 	C 	0.4862	0.1262	0.7192	-0.004
Mof_C 	C 	0.63419	0.05893	0.48035	0.396
Mof_C 	C 	0.6776	0.0762	0.4802	-0.105
Mof_C 	C 	0.6684	0.1262	0.4862	-0.004
Mof_C 	C 	0.82653	0.48035	0.05893	0.396
Mof_C 	C 	0.766	0.4802	0.0762	-0.105
Mof_C 	C 	0.7192	0.4862	0.1262	-0.004
Mof_C 	C 	0.05893	0.63419	0.82653	0.395
Mof_C 	C 	0.0762	0.6776	0.766	-0.105
Mof_C 	C 	0.1262	0.6684	0.7192	-0.004
Mof_C 	C 	0.48035	0.82653	0.63419	0.396
Mof_C 	C 	0.4802	0.766	0.6776	-0.105
Mof_C 	C 	0.4862	0.7192	0.6684	-0.004
Mof_C 	C 	0.63419	0.48035	0.82653	0.396
Mof_C 	C 	0.6776	0.4802	0.766	-0.105
Mof_C 	C 	0.6684	0.4862	0.7192	-0.004
Mof_C 	C 	0.82653	0.05893	0.63419	0.396
Mof_C 	C 	0.766	0.0762	0.6776	-0.105
Mof_C 	C 	0.7192	0.1262	0.6684	-0.004
Mof_C 	C 	0.05893	0.82653	0.48035	0.396
Mof_C 	C 	0.0762	0.766	0.4802	-0.105
Mof_C 	C 	0.1262	0.7192	0.4862	-0.004
Mof_C 	C 	0.48035	0.63419	0.05893	0.396
Mof_C 	C 	0.4802	0.6776	0.0762	-0.105
Mof_C 	C 	0.4862	0.6684	0.1262	-0.004
Mof_C 	C 	0.17347	0.36581	0.94107	0.396
Mof_C 	C 	0.234	0.3224	0.9238	-0.105
Mof_C 	C 	0.2808	0.3316	0.8738	-0.004
Mof_C 	C 	0.36581	0.17347	0.51965	0.396
Mof_C 	C 	0.3224	0.234	0.5198	-0.105
Mof_C 	C 	0.3316	0.2808	0.5138	-0.004
Mof_C 	C 	0.51965	0.94107	0.36581	0.396
Mof_C 	C 	0.5198	0.9238	0.3224	-0.105
Mof_C 	C 	0.5138	0.8738	0.3316	-0.004
Mof_C 	C 	0.94107	0.51965	0.17347	0.396
Mof_C 	C 	0.9238	0.5198	0.234	-0.105
Mof_C 	C 	0.8738	0.5138	0.2808	-0.004
Mof_C 	C 	0.94107	0.36581	0.51965	0.396
Mof_C 	C 	0.9238	0.3224	0.5198	-0.105
Mof_C 	C 	0.8738	0.3316	0.5138	-0.004
Mof_C 	C 	0.51965	0.17347	0.94107	0.396
Mof_C 	C 	0.5198	0.234	0.9238	-0.105
Mof_C 	C 	0.5138	0.2808	0.8738	-0.004
Mof_C 	C 	0.36581	0.94107	0.17347	0.395
Mof_C 	C 	0.3224	0.9238	0.234	-0.105
Mof_C 	C 	0.3316	0.8738	0.2808	-0.004
Mof_C 	C 	0.17347	0.51965	0.36581	0.396
Mof_C 	C 	0.234	0.5198	0.3224	-0.105
Mof_C 	C 	0.2808	0.5138	0.3316	-0.004
Mof_C 	C 	0.51965	0.36581	0.17347	0.396
Mof_C 	C 	0.5198	0.3224	0.234	-0.105
Mof_C 	C 	0.5138	0.3316	0.2808	-0.004
Mof_C 	C 	0.94107	0.17347	0.36581	0.395
Mof_C 	C 	0.9238	0.234	0.3224	-0.105
Mof_C 	C 	0.8738	0.2808	0.3316	-0.004
Mof_C 	C 	0.17347	0.94107	0.51965	0.396
Mof_C 	C 	0.234	0.9238	0.5198	-0.105
Mof_C 	C 	0.2808	0.8738	0.5138	-0.004
Mof_C 	C 	0.36581	0.51965	0.94107	0.396
Mof_C 	C 	0.3224	0.5198	0.9238	-0.105
Mof_C 	C 	0.3316	0.5138	0.8738	-0.004
Mof_C 	C 	0.36581	0.17347	0.94107	0.395
Mof_C 	C 	0.3224	0.234	0.9238	-0.105
Mof_C 	C 	0.3316	0.2808	0.8738	-0.004
Mof_C 	C 	0.17347	0.36581	0.51965	0.396
Mof_C 	C 	0.234	0.3224	0.5198	-0.105
Mof_C 	C 	0.2808	0.3316	0.5138	-0.004
Mof_C 	C 	0.94107	0.51965	0.36581	0.396
Mof_C 	C 	0.9238	0.5198	0.3224	-0.105
Mof_C 	C 	0.8738	0.5138	0.3316	-0.004
Mof_C 	C 	0.51965	0.94107	0.17347	0.396
Mof_C 	C 	0.5198	0.9238	0.234	-0.105
Mof_C 	C 	0.5138	0.8738	0.2808	-0.004
Mof_C 	C 	0.36581	0.94107	0.51965	0.396
Mof_C 	C 	0.3224	0.9238	0.5198	-0.105
Mof_C 	C 	0.3316	0.8738	0.5138	-0.004
Mof_C 	C 	0.17347	0.51965	0.94107	0.396
Mof_C 	C 	0.234	0.5198	0.9238	-0.105
Mof_C 	C 	0.2808	0.5138	0.8738	-0.004
Mof_C 	C 	0.94107	0.36581	0.17347	0.395
Mof_C 	C 	0.9238	0.3224	0.234	-0.105
Mof_C 	C 	0.8738	0.3316	0.2808	-0.004
Mof_C 	C 	0.51965	0.17347	0.36581	0.396
Mof_C 	C 	0.5198	0.234	0.3224	-0.105
Mof_C 	C 	0.5138	0.2808	0.3316	-0.004
Mof_C 	C 	0.36581	0.51965	0.17347	0.396
Mof_C 	C 	0.3224	0.5198	0.234	-0.105
Mof_C 	C 	0.3316	0.5138	0.2808	-0.004
Mof_C 	C 	0.17347	0.94107	0.36581	0.396
Mof_C 	C 	0.234	0.9238	0.3224	-0.105
Mof_C 	C 	0.2808	0.8738	0.3316	-0.004
Mof_C 	C 	0.94107	0.17347	0.51965	0.396
Mof_C 	C 	0.9238	0.234	0.5198	-0.105
Mof_C 	C 	0.8738	0.2808	0.5138	-0.004
Mof_C 	C 	0.51965	0.36581	0.94107	0.396
Mof_C 	C 	0.5198	0.3224	0.9238	-0.105
Mof_C 	C 	0.5138	0.3316	0.8738	-0.004
Mof_C 	C 	0.82653	0.63419	0.05893	0.396
Mof_C 	C 	0.766	0.6776	0.0762	-0.105
Mof_C 	C 	0.7192	0.6684	0.1262	-0.004
Mof_C 	C 	0.63419	0.82653	0.48035	0.396
Mof_C 	C 	0.6776	0.766	0.4802	-0.105
Mof_C 	C 	0.6684	0.7192	0.4862	-0.004
Mof_C 	C 	0.48035	0.05893	0.63419	0.396
Mof_C 	C 	0.4802	0.0762	0.6776	-0.105
Mof_C 	C 	0.4862	0.1262	0.6684	-0.004
Mof_C 	C 	0.05893	0.48035	0.82653	0.396
Mof_C 	C 	0.0762	0.4802	0.766	-0.105
Mof_C 	C 	0.1262	0.4862	0.7192	-0.004
Mof_C 	C 	0.05893	0.63419	0.48035	0.396
Mof_C 	C 	0.0762	0.6776	0.4802	-0.105
Mof_C 	C 	0.1262	0.6684	0.4862	-0.004
Mof_C 	C 	0.48035	0.82653	0.05893	0.396
Mof_C 	C 	0.4802	0.766	0.0762	-0.105
Mof_C 	C 	0.4862	0.7192	0.1262	-0.004
Mof_C 	C 	0.63419	0.05893	0.82653	0.395
Mof_C 	C 	0.6776	0.0762	0.766	-0.105
Mof_C 	C 	0.6684	0.1262	0.7192	-0.004
Mof_C 	C 	0.82653	0.48035	0.63419	0.396
Mof_C 	C 	0.766	0.4802	0.6776	-0.105
Mof_C 	C 	0.7192	0.4862	0.6684	-0.004
Mof_C 	C 	0.48035	0.63419	0.82653	0.396
Mof_C 	C 	0.4802	0.6776	0.766	-0.105
Mof_C 	C 	0.4862	0.6684	0.7192	-0.004
Mof_C 	C 	0.05893	0.82653	0.63419	0.395
Mof_C 	C 	0.0762	0.766	0.6776	-0.105
Mof_C 	C 	0.1262	0.7192	0.6684	-0.004
Mof_C 	C 	0.82653	0.05893	0.48035	0.396
Mof_C 	C 	0.766	0.0762	0.4802	-0.105
Mof_C 	C 	0.7192	0.1262	0.4862	-0.004
Mof_C 	C 	0.63419	0.48035	0.05893	0.396
Mof_C 	C 	0.6776	0.4802	0.0762	-0.105
Mof_C 	C 	0.6684	0.4862	0.1262	-0.004
Mof_S 	S 	0.74888	0.74888	0.02838	0.057
Mof_S 	S 	0.74888	0.74888	0.47386	0.055
Mof_S 	S 	0.02838	0.47386	0.74888	0.056
Mof_S 	S 	0.47386	0.02838	0.74888	0.056
Mof_S 	S 	0.74888	0.02838	0.47386	0.056
Mof_S 	S 	0.74888	0.47386	0.02838	0.056
Mof_S 	S 	0.02838	0.74888	0.74888	0.057
Mof_S 	S 	0.47386	0.74888	0.74888	0.055
Mof_S 	S 	0.74888	0.47386	0.74888	0.055
Mof_S 	S 	0.74888	0.02838	0.74888	0.057
Mof_S 	S 	0.02838	0.74888	0.47386	0.056
Mof_S 	S 	0.47386	0.74888	0.02838	0.056
Mof_S 	S 	0.25112	0.25112	0.97162	0.057
Mof_S 	S 	0.25112	0.25112	0.52614	0.055
Mof_S 	S 	0.52614	0.97162	0.25112	0.056
Mof_S 	S 	0.97162	0.52614	0.25112	0.056
Mof_S 	S 	0.97162	0.25112	0.52614	0.056
Mof_S 	S 	0.52614	0.25112	0.97162	0.056
Mof_S 	S 	0.25112	0.97162	0.25112	0.057
Mof_S 	S 	0.25112	0.52614	0.25112	0.055
Mof_S 	S 	0.52614	0.25112	0.25112	0.055
Mof_S 	S 	0.97162	0.25112	0.25112	0.057
Mof_S 	S 	0.25112	0.97162	0.52614	0.056
Mof_S 	S 	0.25112	0.52614	0.97162	0.056
Mof_O 	O 	0.65261	0.86267	0.00891	-0.4
Mof_O 	O 	0.58225	0.83541	0.09649	-0.374
Mof_O 	O 	0.86267	0.65261	0.47581	-0.403
Mof_O 	O 	0.83541	0.58225	0.48585	-0.374
Mof_O 	O 	0.00891	0.47581	0.65261	-0.402
Mof_O 	O 	0.09649	0.48585	0.58225	-0.374
Mof_O 	O 	0.47581	0.00891	0.86267	-0.401
Mof_O 	O 	0.48585	0.09649	0.83541	-0.374
Mof_O 	O 	0.65261	0.00891	0.47581	-0.402
Mof_O 	O 	0.58225	0.09649	0.48585	-0.374
Mof_O 	O 	0.86267	0.47581	0.00891	-0.401
Mof_O 	O 	0.83541	0.48585	0.09649	-0.374
Mof_O 	O 	0.00891	0.65261	0.86267	-0.4
Mof_O 	O 	0.09649	0.58225	0.83541	-0.374
Mof_O 	O 	0.47581	0.86267	0.65261	-0.403
Mof_O 	O 	0.48585	0.83541	0.58225	-0.374
Mof_O 	O 	0.65261	0.47581	0.86267	-0.403
Mof_O 	O 	0.58225	0.48585	0.83541	-0.374
Mof_O 	O 	0.86267	0.00891	0.65261	-0.4
Mof_O 	O 	0.83541	0.09649	0.58225	-0.374
Mof_O 	O 	0.00891	0.86267	0.47581	-0.401
Mof_O 	O 	0.09649	0.83541	0.48585	-0.374
Mof_O 	O 	0.47581	0.65261	0.00891	-0.402
Mof_O 	O 	0.48585	0.58225	0.09649	-0.374
Mof_O 	O 	0.13733	0.34739	0.99109	-0.4
Mof_O 	O 	0.16459	0.41775	0.90351	-0.374
Mof_O 	O 	0.34739	0.13733	0.52419	-0.403
Mof_O 	O 	0.41775	0.16459	0.51415	-0.374
Mof_O 	O 	0.52419	0.99109	0.34739	-0.402
Mof_O 	O 	0.51415	0.90351	0.41775	-0.374
Mof_O 	O 	0.99109	0.52419	0.13733	-0.401
Mof_O 	O 	0.90351	0.51415	0.16459	-0.374
Mof_O 	O 	0.99109	0.34739	0.52419	-0.402
Mof_O 	O 	0.90351	0.41775	0.51415	-0.374
Mof_O 	O 	0.52419	0.13733	0.99109	-0.401
Mof_O 	O 	0.51415	0.16459	0.90351	-0.374
Mof_O 	O 	0.34739	0.99109	0.13733	-0.4
Mof_O 	O 	0.41775	0.90351	0.16459	-0.374
Mof_O 	O 	0.13733	0.52419	0.34739	-0.403
Mof_O 	O 	0.16459	0.51415	0.41775	-0.374
Mof_O 	O 	0.52419	0.34739	0.13733	-0.403
Mof_O 	O 	0.51415	0.41775	0.16459	-0.374
Mof_O 	O 	0.99109	0.13733	0.34739	-0.4
Mof_O 	O 	0.90351	0.16459	0.41775	-0.374
Mof_O 	O 	0.13733	0.99109	0.52419	-0.401
Mof_O 	O 	0.16459	0.90351	0.51415	-0.374
Mof_O 	O 	0.34739	0.52419	0.99109	-0.402
Mof_O 	O 	0.41775	0.51415	0.90351	-0.374
Mof_O 	O 	0.34739	0.13733	0.99109	-0.4
Mof_O 	O 	0.41775	0.16459	0.90351	-0.374
Mof_O 	O 	0.13733	0.34739	0.52419	-0.403
Mof_O 	O 	0.16459	0.41775	0.51415	-0.374
Mof_O 	O 	0.99109	0.52419	0.34739	-0.402
Mof_O 	O 	0.90351	0.51415	0.41775	-0.374
Mof_O 	O 	0.52419	0.99109	0.13733	-0.401
Mof_O 	O 	0.51415	0.90351	0.16459	-0.374
Mof_O 	O 	0.34739	0.99109	0.52419	-0.402
Mof_O 	O 	0.41775	0.90351	0.51415	-0.374
Mof_O 	O 	0.13733	0.52419	0.99109	-0.401
Mof_O 	O 	0.16459	0.51415	0.90351	-0.374
Mof_O 	O 	0.99109	0.34739	0.13733	-0.4
Mof_O 	O 	0.90351	0.41775	0.16459	-0.374
Mof_O 	O 	0.52419	0.13733	0.34739	-0.403
Mof_O 	O 	0.51415	0.16459	0.41775	-0.374
Mof_O 	O 	0.34739	0.52419	0.13733	-0.403
Mof_O 	O 	0.41775	0.51415	0.16459	-0.374
Mof_O 	O 	0.13733	0.99109	0.34739	-0.4
Mof_O 	O 	0.16459	0.90351	0.41775	-0.374
Mof_O 	O 	0.99109	0.13733	0.52419	-0.401
Mof_O 	O 	0.90351	0.16459	0.51415	-0.374
Mof_O 	O 	0.52419	0.34739	0.99109	-0.402
Mof_O 	O 	0.51415	0.41775	0.90351	-0.374
Mof_O 	O 	0.86267	0.65261	0.00891	-0.4
Mof_O 	O 	0.83541	0.58225	0.09649	-0.374
Mof_O 	O 	0.65261	0.86267	0.47581	-0.403
Mof_O 	O 	0.58225	0.83541	0.48585	-0.374
Mof_O 	O 	0.47581	0.00891	0.65261	-0.402
Mof_O 	O 	0.48585	0.09649	0.58225	-0.374
Mof_O 	O 	0.00891	0.47581	0.86267	-0.401
Mof_O 	O 	0.09649	0.48585	0.83541	-0.374
Mof_O 	O 	0.00891	0.65261	0.47581	-0.402
Mof_O 	O 	0.09649	0.58225	0.48585	-0.374
Mof_O 	O 	0.47581	0.86267	0.00891	-0.401
Mof_O 	O 	0.48585	0.83541	0.09649	-0.374
Mof_O 	O 	0.65261	0.00891	0.86267	-0.4
Mof_O 	O 	0.58225	0.09649	0.83541	-0.374
Mof_O 	O 	0.86267	0.47581	0.65261	-0.403
Mof_O 	O 	0.83541	0.48585	0.58225	-0.374
Mof_O 	O 	0.47581	0.65261	0.86267	-0.403
Mof_O 	O 	0.48585	0.58225	0.83541	-0.374
Mof_O 	O 	0.00891	0.86267	0.65261	-0.4
Mof_O 	O 	0.09649	0.83541	0.58225	-0.374
Mof_O 	O 	0.86267	0.00891	0.47581	-0.401
Mof_O 	O 	0.83541	0.09649	0.48585	-0.374
Mof_O 	O 	0.65261	0.47581	0.00891	-0.402
Mof_O 	O 	0.58225	0.48585	0.09649	-0.374
Mof_O 	O 	0.56407	0.95687	0.04313	-0.511
Mof_O 	O 	0.95687	0.56407	0.43593	-0.514
Mof_O 	O 	0.04313	0.43593	0.56407	-0.514
Mof_O 	O 	0.43593	0.04313	0.95687	-0.511
Mof_O 	O 	0.56407	0.04313	0.43593	-0.514
Mof_O 	O 	0.95687	0.43593	0.04313	-0.511
Mof_O 	O 	0.04313	0.56407	0.95687	-0.511
Mof_O 	O 	0.43593	0.95687	0.56407	-0.514
Mof_O 	O 	0.56407	0.43593	0.95687	-0.514
Mof_O 	O 	0.95687	0.04313	0.56407	-0.511
Mof_O 	O 	0.04313	0.95687	0.43593	-0.511
Mof_O 	O 	0.43593	0.56407	0.04313	-0.514
Mof_O 	O 	0.04313	0.43593	0.95687	-0.511
Mof_O 	O 	0.43593	0.04313	0.56407	-0.514
Mof_O 	O 	0.56407	0.95687	0.43593	-0.514
Mof_O 	O 	0.95687	0.56407	0.04313	-0.511
Mof_O 	O 	0.95687	0.43593	0.56407	-0.514
Mof_O 	O 	0.56407	0.04313	0.95687	-0.511
Mof_O 	O 	0.43593	0.95687	0.04313	-0.511
Mof_O 	O 	0.04313	0.56407	0.43593	-0.514
Mof_O 	O 	0.56407	0.43593	0.04313	-0.514
Mof_O 	O 	0.95687	0.04313	0.43593	-0.511
Mof_O 	O 	0.04313	0.95687	0.56407	-0.511
Mof_O 	O 	0.43593	0.56407	0.95687	-0.514
Mof_O 	O 	0.4558	0.00064	0.08776	-0.529
Mof_O 	O 	0.00064	0.4558	0.4558	-0.528
Mof_O 	O 	0.08776	0.4558	0.4558	-0.527
Mof_O 	O 	0.4558	0.08776	0.00064	-0.529
Mof_O 	O 	0.4558	0.08776	0.4558	-0.527
Mof_O 	O 	0.00064	0.4558	0.08776	-0.529
Mof_O 	O 	0.08776	0.4558	0.00064	-0.529
Mof_O 	O 	0.4558	0.00064	0.4558	-0.528
Mof_O 	O 	0.4558	0.4558	0.00064	-0.528
Mof_O 	O 	0.00064	0.08776	0.4558	-0.529
Mof_O 	O 	0.08776	0.00064	0.4558	-0.529
Mof_O 	O 	0.4558	0.4558	0.08776	-0.527
Mof_O 	O 	0.99936	0.5442	0.91224	-0.529
Mof_O 	O 	0.5442	0.99936	0.5442	-0.528
Mof_O 	O 	0.5442	0.91224	0.5442	-0.527
Mof_O 	O 	0.91224	0.5442	0.99936	-0.529
Mof_O 	O 	0.91224	0.5442	0.5442	-0.527
Mof_O 	O 	0.5442	0.99936	0.91224	-0.529
Mof_O 	O 	0.5442	0.91224	0.99936	-0.529
Mof_O 	O 	0.99936	0.5442	0.5442	-0.528
Mof_O 	O 	0.5442	0.5442	0.99936	-0.528
Mof_O 	O 	0.91224	0.99936	0.5442	-0.529
Mof_O 	O 	0.99936	0.91224	0.5442	-0.529
Mof_O 	O 	0.5442	0.5442	0.91224	-0.527
_end
