data_functionalizedCrystal
_audit_creation_method	'EQeq! by Chris Wilmer'
_symmetry_space_group_name_H-M	'P1'
_symmetry_Int_Tables_number	1
_symmetry_cell_setting	triclinic
loop_
_symmetry_equiv_pos_as_xyz
  x,y,z
_cell_length_a	10.022
_cell_length_b	14.335
_cell_length_c	14.636
_cell_angle_alpha	90
_cell_angle_beta	90
_cell_angle_gamma	90
loop_
_atom_site_label
_atom_site_type_symbol
_atom_site_fract_x
_atom_site_fract_y
_atom_site_fract_z
_atom_site_charge
Mof_O 	O 	0.8296	0.9721	0.4545	-0.559
Mof_O 	O 	0.7605	0.095	0.3433	-0.539
Mof_O 	O 	0.8296	0.4721	0.9545	-0.554
Mof_O 	O 	0.7605	0.595	0.8433	-0.537
Mof_O 	O 	0.3296	0.9721	0.9545	-0.551
Mof_O 	O 	0.2605	0.095	0.8433	-0.54
Mof_O 	O 	0.3296	0.4721	0.4545	-0.556
Mof_O 	O 	0.2605	0.595	0.3433	-0.537
Mof_O 	O 	0.9204	0.7779	0.4545	-0.556
Mof_O 	O 	0.9895	0.655	0.3433	-0.54
Mof_O 	O 	0.9204	0.2779	0.9545	-0.554
Mof_O 	O 	0.9895	0.155	0.8433	-0.535
Mof_O 	O 	0.4204	0.7779	0.9545	-0.554
Mof_O 	O 	0.4895	0.655	0.8433	-0.538
Mof_O 	O 	0.4204	0.2779	0.4545	-0.556
Mof_O 	O 	0.4895	0.155	0.3433	-0.537
Mof_O 	O 	0.9204	0.9721	0.2955	-0.561
Mof_O 	O 	0.9895	0.095	0.4067	-0.538
Mof_O 	O 	0.9204	0.4721	0.7955	-0.555
Mof_O 	O 	0.9895	0.595	0.9067	-0.535
Mof_O 	O 	0.4204	0.9721	0.7955	-0.552
Mof_O 	O 	0.4895	0.095	0.9067	-0.539
Mof_O 	O 	0.4204	0.4721	0.2955	-0.556
Mof_O 	O 	0.4895	0.595	0.4067	-0.538
Mof_O 	O 	0.8296	0.7779	0.2955	-0.558
Mof_O 	O 	0.7605	0.655	0.4067	-0.538
Mof_O 	O 	0.8296	0.2779	0.7955	-0.555
Mof_O 	O 	0.7605	0.155	0.9067	-0.538
Mof_O 	O 	0.3296	0.7779	0.7955	-0.556
Mof_O 	O 	0.2605	0.655	0.9067	-0.539
Mof_O 	O 	0.3296	0.2779	0.2955	-0.555
Mof_O 	O 	0.2605	0.155	0.4067	-0.537
Mof_O 	O 	0.1704	0.0279	0.5455	-0.558
Mof_O 	O 	0.2395	0.905	0.6567	-0.538
Mof_O 	O 	0.1704	0.5279	0.0455	-0.554
Mof_O 	O 	0.2395	0.405	0.1567	-0.537
Mof_O 	O 	0.6704	0.0279	0.0455	-0.551
Mof_O 	O 	0.7395	0.905	0.1567	-0.54
Mof_O 	O 	0.6704	0.5279	0.5455	-0.556
Mof_O 	O 	0.7395	0.405	0.6567	-0.537
Mof_O 	O 	0.0796	0.2221	0.5455	-0.556
Mof_O 	O 	0.0105	0.345	0.6567	-0.54
Mof_O 	O 	0.0796	0.7221	0.0455	-0.554
Mof_O 	O 	0.0105	0.845	0.1567	-0.535
Mof_O 	O 	0.5796	0.2221	0.0455	-0.554
Mof_O 	O 	0.5105	0.345	0.1567	-0.538
Mof_O 	O 	0.5796	0.7221	0.5455	-0.556
Mof_O 	O 	0.5105	0.845	0.6567	-0.537
Mof_O 	O 	0.0796	0.0279	0.7045	-0.561
Mof_O 	O 	0.0105	0.905	0.5933	-0.538
Mof_O 	O 	0.0796	0.5279	0.2045	-0.555
Mof_O 	O 	0.0105	0.405	0.0933	-0.535
Mof_O 	O 	0.5796	0.0279	0.2045	-0.552
Mof_O 	O 	0.5105	0.905	0.0933	-0.539
Mof_O 	O 	0.5796	0.5279	0.7045	-0.556
Mof_O 	O 	0.5105	0.405	0.5933	-0.538
Mof_O 	O 	0.1704	0.2221	0.7045	-0.558
Mof_O 	O 	0.2395	0.345	0.5933	-0.538
Mof_O 	O 	0.1704	0.7221	0.2045	-0.555
Mof_O 	O 	0.2395	0.845	0.0933	-0.538
Mof_O 	O 	0.6704	0.2221	0.2045	-0.556
Mof_O 	O 	0.7395	0.345	0.0933	-0.539
Mof_O 	O 	0.6704	0.7221	0.7045	-0.555
Mof_O 	O 	0.7395	0.845	0.5933	-0.537
Mof_P 	P 	0.875	0.0328	0.375	0.699
Mof_P 	P 	0.875	0.5328	0.875	0.694
Mof_P 	P 	0.375	0.0328	0.875	0.686
Mof_P 	P 	0.375	0.5328	0.375	0.694
Mof_P 	P 	0.875	0.7172	0.375	0.694
Mof_P 	P 	0.875	0.2172	0.875	0.694
Mof_P 	P 	0.375	0.7172	0.875	0.694
Mof_P 	P 	0.375	0.2172	0.375	0.694
Mof_P 	P 	0.125	0.9672	0.625	0.699
Mof_P 	P 	0.125	0.4672	0.125	0.694
Mof_P 	P 	0.625	0.9672	0.125	0.686
Mof_P 	P 	0.625	0.4672	0.625	0.694
Mof_P 	P 	0.125	0.2828	0.625	0.694
Mof_P 	P 	0.125	0.7828	0.125	0.694
Mof_P 	P 	0.625	0.2828	0.125	0.694
Mof_P 	P 	0.625	0.7828	0.625	0.694
Mof_Mg	Mg	0.875	0.875	0.5237	1.493
Mof_Mg	Mg	0.875	0.375	0.0237	1.492
Mof_Mg	Mg	0.375	0.875	0.0237	1.493
Mof_Mg	Mg	0.375	0.375	0.5237	1.493
Mof_Mg	Mg	0.875	0.875	0.2263	1.493
Mof_Mg	Mg	0.875	0.375	0.7263	1.493
Mof_Mg	Mg	0.375	0.875	0.7263	1.493
Mof_Mg	Mg	0.375	0.375	0.2263	1.493
Mof_Mg	Mg	0.125	0.125	0.4763	1.493
Mof_Mg	Mg	0.125	0.625	0.9763	1.492
Mof_Mg	Mg	0.625	0.125	0.9763	1.493
Mof_Mg	Mg	0.625	0.625	0.4763	1.493
Mof_Mg	Mg	0.125	0.125	0.7737	1.493
Mof_Mg	Mg	0.125	0.625	0.2737	1.493
Mof_Mg	Mg	0.625	0.125	0.2737	1.493
Mof_Mg	Mg	0.625	0.625	0.7737	1.493
_end
