# CIF file generated by openbabel 3.1.0, see https://openbabel.org
data_I
_chemical_name_common 'TORJAN_clean'
_cell_length_a 10.913
_cell_length_b 16.542
_cell_length_c 19.793
_cell_angle_alpha 90
_cell_angle_beta 90
_cell_angle_gamma 90
_space_group_name_H-M_alt 'P 1'
_space_group_name_Hall 'P 1'
loop_
    _symmetry_equiv_pos_as_xyz
    x,y,z
loop_
    _atom_site_label
    _atom_site_type_symbol
    _atom_site_fract_x
    _atom_site_fract_y
    _atom_site_fract_z
    _atom_site_occupancy
    Tb1      Tb       0.20671    0.75000    0.20436    1.000
    Tb2      Tb       0.79329    0.25000    0.79564    1.000
    Tb3      Tb       0.29329    0.25000    0.70436    1.000
    Tb4      Tb       0.70671    0.75000    0.29564    1.000
    H1       H        0.57100    0.18160    0.01410    1.000
    H2       H        0.31750    0.25000    0.90580    1.000
    H3       H        0.81030    0.06850    0.53160    1.000
    H4       H        0.42900    0.81840    0.98590    1.000
    H5       H        0.02420    0.00990    0.67290    1.000
    H6       H        0.75550    0.45210    0.98060    1.000
    H7       H        0.96040    0.25000    0.95730    1.000
    H8       H        0.65370    0.75000    0.80860    1.000
    H9       H        0.98630    0.75000    0.93020    1.000
    H10      H        0.54160    0.39350    0.12200    1.000
    H11      H        0.48630    0.75000    0.56980    1.000
    H12      H        0.07100    0.31840    0.48590    1.000
    H13      H        0.04160    0.39350    0.37800    1.000
    H14      H        0.47430    0.17090    0.95600    1.000
    H15      H        0.95840    0.60650    0.62200    1.000
    H16      H        0.46040    0.25000    0.54270    1.000
    H17      H        0.92900    0.81840    0.51410    1.000
    H18      H        0.25550    0.04790    0.51940    1.000
    H19      H        0.97580    0.50990    0.32710    1.000
    H20      H        0.68970    0.93150    0.03160    1.000
    H21      H        0.25550    0.45210    0.51940    1.000
    H22      H        0.45840    0.60650    0.87800    1.000
    H23      H        0.97430    0.17090    0.54400    1.000
    H24      H        0.18970    0.93150    0.46840    1.000
    H25      H        0.07100    0.18160    0.48590    1.000
    H26      H        0.97430    0.32910    0.54400    1.000
    H27      H        0.97580    0.99010    0.32710    1.000
    H28      H        0.51370    0.25000    0.43020    1.000
    H29      H        0.34630    0.25000    0.19140    1.000
    H30      H        0.45840    0.89350    0.87800    1.000
    H31      H        0.81030    0.43150    0.53160    1.000
    H32      H        0.42900    0.68160    0.98590    1.000
    H33      H        0.84630    0.25000    0.30860    1.000
    H34      H        0.03960    0.75000    0.04270    1.000
    H35      H        0.18250    0.75000    0.40580    1.000
    H36      H        0.52570    0.67090    0.04400    1.000
    H37      H        0.47580    0.50990    0.17290    1.000
    H38      H        0.15370    0.75000    0.69140    1.000
    H39      H        0.01370    0.25000    0.06980    1.000
    H40      H        0.54160    0.10650    0.12200    1.000
    H41      H        0.31030    0.43150    0.96840    1.000
    H42      H        0.68250    0.75000    0.09420    1.000
    H43      H        0.92900    0.68160    0.51410    1.000
    H44      H        0.52570    0.82910    0.04400    1.000
    H45      H        0.74450    0.54790    0.48060    1.000
    H46      H        0.47580    0.99010    0.17290    1.000
    H47      H        0.31030    0.06850    0.96840    1.000
    H48      H        0.74450    0.95210    0.48060    1.000
    H49      H        0.02570    0.67090    0.45600    1.000
    H50      H        0.57100    0.31840    0.01410    1.000
    H51      H        0.75550    0.04790    0.98060    1.000
    H52      H        0.95840    0.89350    0.62200    1.000
    H53      H        0.81750    0.25000    0.59420    1.000
    H54      H        0.68970    0.56850    0.03160    1.000
    H55      H        0.04160    0.10650    0.37800    1.000
    H56      H        0.52420    0.49010    0.82710    1.000
    H57      H        0.24450    0.54790    0.01940    1.000
    H58      H        0.52420    0.00990    0.82710    1.000
    H59      H        0.02420    0.49010    0.67290    1.000
    H60      H        0.47430    0.32910    0.95600    1.000
    H61      H        0.53960    0.75000    0.45730    1.000
    H62      H        0.18970    0.56850    0.46840    1.000
    H63      H        0.24450    0.95210    0.01940    1.000
    H64      H        0.02570    0.82910    0.45600    1.000
    C1       C        0.39730    0.75000    0.34660    1.000
    C2       C        0.51810    0.57540    0.89910    1.000
    C3       C        0.65560    0.55290    0.99060    1.000
    C4       C        0.69750    0.25000    0.44240    1.000
    C5       C        0.93500    0.10060    0.46080    1.000
    C6       C        0.55760    0.50530    0.86840    1.000
    C7       C        0.85310    0.95680    0.39850    1.000
    C8       C        0.98420    0.17610    0.49550    1.000
    C9       C        0.80500    0.51710    0.45980    1.000
    C10      C        0.84440    0.05290    0.49060    1.000
    C11      C        0.43500    0.39940    0.03920    1.000
    C12      C        0.77710    0.75000    0.86750    1.000
    C13      C        0.68860    0.38150    0.86590    1.000
    C14      C        0.30250    0.75000    0.55760    1.000
    C15      C        0.56500    0.89940    0.96080    1.000
    C16      C        0.63370    0.25000    0.57930    1.000
    C17      C        0.64690    0.45680    0.89850    1.000
    C18      C        0.81140    0.61850    0.36590    1.000
    C19      C        0.98190    0.42460    0.39910    1.000
    C20      C        0.64690    0.04320    0.89850    1.000
    C21      C        0.68860    0.11850    0.86590    1.000
    C22      C        0.86630    0.75000    0.07930    1.000
    C23      C        0.18860    0.38150    0.63410    1.000
    C24      C        0.21050    0.75000    0.50900    1.000
    C25      C        0.65560    0.94710    0.99060    1.000
    C26      C        0.35310    0.95680    0.10150    1.000
    C27      C        0.95750    0.75000    0.03030    1.000
    C28      C        0.71050    0.75000    0.99100    1.000
    C29      C        0.69500    0.48290    0.95980    1.000
    C30      C        0.54250    0.25000    0.53030    1.000
    C31      C        0.05760    0.50530    0.63160    1.000
    C32      C        0.30500    0.51710    0.04020    1.000
    C33      C        0.51810    0.92460    0.89910    1.000
    C34      C        0.98190    0.07540    0.39910    1.000
    C35      C        0.48190    0.07540    0.10090    1.000
    C36      C        0.34440    0.05290    0.00940    1.000
    C37      C        0.01580    0.82390    0.50450    1.000
    C38      C        0.94240    0.49470    0.36840    1.000
    C39      C        0.81140    0.88150    0.36590    1.000
    C40      C        0.34440    0.44710    0.00940    1.000
    C41      C        0.31140    0.88150    0.13410    1.000
    C42      C        0.80250    0.75000    0.94240    1.000
    C43      C        0.84440    0.44710    0.49060    1.000
    C44      C        0.25690    0.25000    0.93880    1.000
    C45      C        0.56500    0.60060    0.96080    1.000
    C46      C        0.15560    0.94710    0.50940    1.000
    C47      C        0.51580    0.82390    0.99550    1.000
    C48      C        0.85310    0.54320    0.39850    1.000
    C49      C        0.15560    0.55290    0.50940    1.000
    C50      C        0.10270    0.25000    0.84660    1.000
    C51      C        0.89730    0.75000    0.15340    1.000
    C52      C        0.69500    0.01710    0.95980    1.000
    C53      C        0.27710    0.75000    0.63250    1.000
    C54      C        0.06500    0.89940    0.53920    1.000
    C55      C        0.80500    0.98290    0.45980    1.000
    C56      C        0.18860    0.11850    0.63410    1.000
    C57      C        0.51580    0.67610    0.99550    1.000
    C58      C        0.36630    0.75000    0.42070    1.000
    C59      C        0.19500    0.48290    0.54020    1.000
    C60      C        0.93500    0.39940    0.46080    1.000
    C61      C        0.55760    0.99470    0.86840    1.000
    C62      C        0.57500    0.25000    0.46290    1.000
    C63      C        0.48190    0.42460    0.10090    1.000
    C64      C        0.19500    0.01710    0.54020    1.000
    C65      C        0.01580    0.67610    0.50450    1.000
    C66      C        0.48420    0.32390    0.00450    1.000
    C67      C        0.01810    0.92460    0.60090    1.000
    C68      C        0.07500    0.25000    0.03710    1.000
    C69      C        0.60270    0.25000    0.65340    1.000
    C70      C        0.14690    0.04320    0.60150    1.000
    C71      C        0.42500    0.75000    0.53710    1.000
    C72      C        0.72290    0.25000    0.36750    1.000
    C73      C        0.44240    0.00530    0.13160    1.000
    C74      C        0.30500    0.98290    0.04020    1.000
    C75      C        0.05760    0.99470    0.63160    1.000
    C76      C        0.31140    0.61850    0.13410    1.000
    C77      C        0.74310    0.75000    0.06120    1.000
    C78      C        0.48420    0.17610    0.00450    1.000
    C79      C        0.06500    0.60060    0.53920    1.000
    C80      C        0.14690    0.45680    0.60150    1.000
    C81      C        0.19750    0.25000    0.05760    1.000
    C82      C        0.78950    0.25000    0.49100    1.000
    C83      C        0.44240    0.49470    0.13160    1.000
    C84      C        0.04250    0.25000    0.96970    1.000
    C85      C        0.92500    0.75000    0.96290    1.000
    C86      C        0.35310    0.54320    0.10150    1.000
    C87      C        0.94240    0.00530    0.36840    1.000
    C88      C        0.01810    0.57540    0.60090    1.000
    C89      C        0.45750    0.75000    0.46970    1.000
    C90      C        0.43500    0.10060    0.03920    1.000
    C91      C        0.75690    0.25000    0.56120    1.000
    C92      C        0.22290    0.25000    0.13250    1.000
    C93      C        0.28950    0.25000    0.00900    1.000
    C94      C        0.13370    0.25000    0.92070    1.000
    C95      C        0.24310    0.75000    0.43880    1.000
    C96      C        0.98420    0.32390    0.49550    1.000
    N1       N        0.91770    0.25000    0.47130    1.000
    N2       N        0.58230    0.75000    0.97130    1.000
    N3       N        0.41770    0.25000    0.02870    1.000
    N4       N        0.08230    0.75000    0.52870    1.000
    O1       O        0.71930    0.65490    0.38880    1.000
    O2       O        0.35690    0.75000    0.67320    1.000
    O3       O        0.63570    0.35450    0.81310    1.000
    O4       O        0.49310    0.25000    0.66790    1.000
    O5       O        0.50690    0.75000    0.33210    1.000
    O6       O        0.84070    0.25000    0.34990    1.000
    O7       O        0.18860    0.25000    0.80560    1.000
    O8       O        0.78070    0.34510    0.88880    1.000
    O9       O        0.21930    0.84510    0.11120    1.000
    O10      O        0.86430    0.64550    0.31310    1.000
    O11      O        0.78070    0.15490    0.88880    1.000
    O12      O        0.71930    0.84510    0.38880    1.000
    O13      O        0.63570    0.14550    0.81310    1.000
    O14      O        0.00690    0.75000    0.16790    1.000
    O15      O        0.21930    0.65490    0.11120    1.000
    O16      O        0.64310    0.25000    0.32680    1.000
    O17      O        0.86430    0.85450    0.31310    1.000
    O18      O        0.14310    0.25000    0.17320    1.000
    O19      O        0.36430    0.64550    0.18690    1.000
    O20      O        0.13570    0.35450    0.68690    1.000
    O21      O        0.85690    0.75000    0.82680    1.000
    O22      O        0.13570    0.14550    0.68690    1.000
    O23      O        0.28070    0.15490    0.61120    1.000
    O24      O        0.31140    0.75000    0.30560    1.000
    O25      O        0.65930    0.75000    0.84990    1.000
    O26      O        0.36430    0.85450    0.18690    1.000
    O27      O        0.28070    0.34510    0.61120    1.000
    O28      O        0.68860    0.25000    0.69440    1.000
    O29      O        0.81140    0.75000    0.19440    1.000
    O30      O        0.99310    0.25000    0.83210    1.000
    O31      O        0.34070    0.25000    0.15010    1.000
    O32      O        0.15930    0.75000    0.65010    1.000
