data_functionalizedCrystal
_audit_creation_method	'EQeq! by Chris Wilmer'
_symmetry_space_group_name_H-M	'P1'
_symmetry_Int_Tables_number	1
_symmetry_cell_setting	triclinic
loop_
_symmetry_equiv_pos_as_xyz
  x,y,z
_cell_length_a	7.289
_cell_length_b	10.525
_cell_length_c	5.987
_cell_angle_alpha	92.16
_cell_angle_beta	102.74
_cell_angle_gamma	92.84
loop_
_atom_site_label
_atom_site_type_symbol
_atom_site_fract_x
_atom_site_fract_y
_atom_site_fract_z
_atom_site_charge
Mof_Cs	Cs	0.5364	0.2368	0.2511	3.446
Mof_C 	C 	0.108	0.505	0.016	0.255
Mof_C 	C 	0.205	0.096	0.643	0.235
Mof_C 	C 	0.076	0.178	0.469	0.223
Mof_Mn	Mn	0.9896	0.2318	0.9262	0.7
Mof_O 	O 	0.186	0.402	0.004	-0.779
Mof_O 	O 	0.19	0.614	0.046	-0.792
Mof_O 	O 	0.198	0.11	0.846	-0.639
Mof_O 	O 	0.305	0.02	0.561	-0.712
Mof_O 	O 	0.091	0.174	0.267	-0.633
Mof_O 	O 	0.964	0.242	0.553	-0.684
Mof_O 	O 	0.753	0.091	0.876	-0.62
Mof_Cs	Cs	0.4636	0.7632	0.7489	3.446
Mof_C 	C 	0.892	0.495	0.984	0.255
Mof_C 	C 	0.795	0.904	0.357	0.235
Mof_C 	C 	0.924	0.822	0.531	0.223
Mof_Mn	Mn	0.0104	0.7682	0.0738	0.7
Mof_O 	O 	0.814	0.598	0.996	-0.779
Mof_O 	O 	0.81	0.386	0.954	-0.792
Mof_O 	O 	0.802	0.89	0.154	-0.639
Mof_O 	O 	0.695	0.98	0.439	-0.712
Mof_O 	O 	0.909	0.826	0.733	-0.633
Mof_O 	O 	0.036	0.758	0.447	-0.684
Mof_O 	O 	0.247	0.909	0.124	-0.62
_end
