data_functionalizedCrystal
_audit_creation_method	'EQeq! by Chris Wilmer'
_symmetry_space_group_name_H-M	'P1'
_symmetry_Int_Tables_number	1
_symmetry_cell_setting	triclinic
loop_
_symmetry_equiv_pos_as_xyz
  x,y,z
_cell_length_a	24.614
_cell_length_b	24.614
_cell_length_c	47.332
_cell_angle_alpha	90
_cell_angle_beta	90
_cell_angle_gamma	90
loop_
_atom_site_label
_atom_site_type_symbol
_atom_site_fract_x
_atom_site_fract_y
_atom_site_fract_z
_atom_site_charge
Mof_Ag	Ag	0.71794	0.65908	0.22818	0.519
Mof_Ag	Ag	0.64601	0.11056	0.00087	0.539
Mof_Ag	Ag	0.68697	0.9988	0.96209	0.505
Mof_Ag	Ag	0.67157	0.55607	0.2723	0.526
Mof_Ag	Ag	0.72797	0.74295	0.28991	0.536
Mof_Ag	Ag	0.87462	0.71386	0.31155	0.521
Mof_Ag	Ag	0.40753	0.19996	0.15255	0.554
Mof_Ag	Ag	0.65111	0.64164	0.34256	0.515
Mof_Pd	Pd	0.75814	0.498	0.20505	0.477
Mof_Pd	Pd	0.83731	0.77653	0.2306	0.488
Mof_Pd	Pd	0.43166	0.04526	0.18614	0.462
Mof_Pd	Pd	0.81565	0.97602	0.90364	0.49
Mof_Pd	Pd	0.57241	0.68649	0.26797	0.469
Mof_Pd	Pd	0.76195	0.74832	0.37398	0.453
Mof_I 	I 	0.73655	0.12644	0.95947	-0.575
Mof_La	La	0.5793	0.88002	0.13572	1.679
Mof_S 	S 	0.69781	0.56069	0.21995	-0.424
Mof_S 	S 	0.67359	0.01481	0.01389	-0.43
Mof_S 	S 	0.81357	0.68939	0.22138	-0.413
Mof_S 	S 	0.82221	0.77552	0.27806	-0.482
Mof_S 	S 	0.57741	0.1369	0.96416	-0.416
Mof_S 	S 	0.46849	0.12653	0.17334	-0.429
Mof_S 	S 	0.78543	0.98055	0.94859	-0.448
Mof_S 	S 	0.43903	0.2939	0.13974	-0.444
Mof_S 	S 	0.60264	0.61811	0.29622	-0.413
Mof_S 	S 	0.65404	0.71944	0.25419	-0.454
Mof_S 	S 	0.69739	0.73346	0.34074	-0.428
Mof_S 	S 	0.82647	0.69084	0.35797	-0.449
Mof_O 	O 	0.60938	0.45656	0.14878	-0.301
Mof_O 	O 	0.59175	0.538	0.13414	-0.324
Mof_O 	O 	0.61493	0.89146	0.08712	-0.497
Mof_O 	O 	0.5636	0.8708	0.04893	-0.361
Mof_O 	O 	0.87646	0.76655	0.13268	-0.333
Mof_O 	O 	0.79845	0.7267	0.12396	-0.294
Mof_O 	O 	0.8465	0.9601	0.24293	-0.09
Mof_O 	O 	0.894	0.9537	0.28214	-0.913
Mof_O 	O 	0.3836	0.13159	0.97427	-0.169
Mof_O 	O 	0.4011	0.21931	0.96794	-0.263
Mof_O 	O 	0.57284	0.97901	0.12917	-0.514
Mof_O 	O 	0.63243	0.04323	0.14206	-0.311
Mof_O 	O 	0.86443	0.80034	0.93468	-0.299
Mof_O 	O 	0.7861	0.7861	0.95652	-0.29
Mof_O 	O 	0.5479	0.3362	0.05694	-0.313
Mof_O 	O 	0.4682	0.3714	0.04783	-0.296
Mof_O 	O 	0.4104	0.5943	0.29129	-0.147
Mof_O 	O 	0.4308	0.5916	0.33895	-0.244
Mof_O 	O 	0.51455	0.82545	0.20648	-0.281
Mof_O 	O 	0.58195	0.81335	0.17592	-0.488
Mof_O 	O 	0.64384	0.88817	0.39585	-0.306
Mof_O 	O 	0.56603	0.8418	0.39026	-0.292
Mof_O 	O 	0.88674	0.7667	0.44499	-0.381
Mof_O 	O 	0.96191	0.7542	0.42123	-0.347
Mof_N 	N 	0.70461	0.48373	0.17426	-0.253
Mof_H 	H 	0.7234	0.479	0.1576	0.101
Mof_H 	H 	0.6871	0.4516	0.1782	0.124
Mof_N 	N 	0.69318	0.93594	0.05949	-0.245
Mof_H 	H 	0.7133	0.9045	0.0598	0.112
Mof_H 	H 	0.6833	0.9436	0.0778	0.106
Mof_N 	N 	0.8434	0.7851	0.18818	-0.259
Mof_H 	H 	0.8301	0.8187	0.1832	0.098
Mof_H 	H 	0.8796	0.7841	0.1832	0.119
Mof_N 	N 	0.8699	0.85282	0.23704	-0.173
Mof_H 	H 	0.9035	0.8541	0.2286	0.106
Mof_H 	H 	0.8481	0.8779	0.2281	0.081
Mof_N 	N 	0.46965	0.10003	0.94543	-0.255
Mof_H 	H 	0.4491	0.1002	0.9292	0.123
Mof_H 	H 	0.4527	0.0774	0.9582	0.114
Mof_N 	N 	0.49275	0.012	0.16276	-0.24
Mof_H 	H 	0.5033	0.9799	0.171	0.089
Mof_H 	H 	0.4798	0.0041	0.145	0.077
Mof_N 	N 	0.83056	0.89553	0.9115	-0.248
Mof_H 	H 	0.8195	0.8753	0.8962	0.14
Mof_H 	H 	0.8674	0.8905	0.9137	0.118
Mof_N 	N 	0.5314	0.3434	0.11309	-0.247
Mof_H 	H 	0.5483	0.3767	0.1138	0.104
Mof_H 	H 	0.5544	0.3202	0.1037	0.122
Mof_N 	N 	0.4976	0.66333	0.2829	-0.271
Mof_H 	H 	0.4786	0.6943	0.2874	0.161
Mof_H 	H 	0.4793	0.6466	0.2684	0.165
Mof_N 	N 	0.54258	0.7408	0.23718	-0.235
Mof_H 	H 	0.5156	0.7238	0.227	0.118
Mof_H 	H 	0.5274	0.7703	0.2461	0.116
Mof_N 	N 	0.70726	0.79876	0.39164	-0.241
Mof_H 	H 	0.706	0.7911	0.4107	0.086
Mof_H 	H 	0.7204	0.8336	0.3898	0.099
Mof_N 	N 	0.81932	0.7676	0.40349	-0.227
Mof_H 	H 	0.8202	0.8048	0.4054	0.09
Mof_H 	H 	0.8085	0.7534	0.4206	0.038
Mof_C 	C 	0.6398	0.544	0.19598	0.281
Mof_C 	C 	0.6644	0.5251	0.16989	-0.188
Mof_H 	H 	0.6832	0.5569	0.1611	0.07
Mof_C 	C 	0.6175	0.5061	0.14827	0.345
Mof_C 	C 	0.603	0.5023	0.20976	-0.58
Mof_H 	H 	0.5876	0.5174	0.2271	0.153
Mof_H 	H 	0.624	0.4696	0.2143	0.165
Mof_H 	H 	0.5735	0.4928	0.1967	0.184
Mof_C 	C 	0.6077	0.6035	0.19155	-0.514
Mof_H 	H 	0.5915	0.6149	0.2095	0.142
Mof_H 	H 	0.5792	0.5994	0.1773	0.174
Mof_H 	H 	0.6338	0.6311	0.1853	0.137
Mof_C 	C 	0.61825	0.97627	0.03229	0.325
Mof_C 	C 	0.6429	0.92589	0.04265	-0.232
Mof_H 	H 	0.6534	0.9038	0.0258	0.08
Mof_C 	C 	0.6038	0.89	0.06121	0.398
Mof_C 	C 	0.597	0.0155	0.0563	-0.567
Mof_H 	H 	0.5808	0.0479	0.0477	0.151
Mof_H 	H 	0.6274	0.0263	0.0684	0.171
Mof_H 	H 	0.5695	0.9967	0.0677	0.18
Mof_C 	C 	0.5758	0.9685	0.00892	-0.604
Mof_H 	H 	0.5603	0.0038	0.0038	0.165
Mof_H 	H 	0.5469	0.9445	0.0157	0.199
Mof_H 	H 	0.5931	0.9522	0.9923	0.165
Mof_C 	C 	0.8329	0.6835	0.1828	0.261
Mof_C 	C 	0.8132	0.7418	0.17137	-0.17
Mof_H 	H 	0.7729	0.7463	0.1727	0.061
Mof_C 	C 	0.83455	0.7456	0.13919	0.353
Mof_C 	C 	0.8971	0.6763	0.1821	-0.53
Mof_H 	H 	0.9144	0.7084	0.1904	0.159
Mof_H 	H 	0.9092	0.6721	0.1625	0.165
Mof_H 	H 	0.9072	0.644	0.193	0.139
Mof_C 	C 	0.8007	0.6355	0.16973	-0.556
Mof_H 	H 	0.8152	0.6011	0.177	0.156
Mof_H 	H 	0.8044	0.6364	0.1491	0.191
Mof_H 	H 	0.7623	0.6387	0.1749	0.152
Mof_C 	C 	0.8256	0.8493	0.28392	0.739
Mof_C 	C 	0.8756	0.86837	0.2654	-0.509
Mof_H 	H 	0.9117	0.8589	0.2737	0.821
Mof_C 	C 	0.8644	0.9325	0.2636	0.248
Mof_C 	C 	0.774	0.8761	0.27568	-0.938
Mof_H 	H 	0.7695	0.8739	0.2551	0.261
Mof_H 	H 	0.7749	0.9143	0.2815	0.257
Mof_H 	H 	0.7435	0.8578	0.285	0.241
Mof_C 	C 	0.8312	0.8555	0.31198	-1.157
Mof_H 	H 	0.8656	0.8393	0.3181	0.321
Mof_H 	H 	0.801	0.8374	0.3217	0.314
Mof_H 	H 	0.831	0.8943	0.3167	0.324
Mof_C 	C 	0.5131	0.1588	0.98144	0.294
Mof_C 	C 	0.47058	0.1566	0.95741	-0.174
Mof_H 	H 	0.4804	0.1832	0.9423	0.079
Mof_C 	C 	0.4125	0.17103	0.97002	0.318
Mof_C 	C 	0.5006	0.1168	0.00533	-0.57
Mof_H 	H 	0.5285	0.1195	0.0201	0.15
Mof_H 	H 	0.5007	0.0801	0.9974	0.167
Mof_H 	H 	0.4649	0.1247	0.0135	0.194
Mof_C 	C 	0.5255	0.2157	0.99421	-0.582
Mof_H 	H 	0.553	0.2121	0.0091	0.166
Mof_H 	H 	0.4922	0.231	0.0023	0.198
Mof_H 	H 	0.5391	0.2398	0.9793	0.172
Mof_C 	C 	0.5233	0.1047	0.14882	0.303
Mof_C 	C 	0.5411	0.0483	0.16007	-0.209
Mof_H 	H 	0.5566	0.0536	0.1794	0.076
Mof_C 	C 	0.586	0.0175	0.14131	0.432
Mof_C 	C 	0.502	0.1004	0.11905	-0.587
Mof_H 	H 	0.4913	0.1365	0.1123	0.155
Mof_H 	H 	0.4703	0.0762	0.1187	0.166
Mof_H 	H 	0.5304	0.0856	0.1067	0.181
Mof_C 	C 	0.5702	0.1505	0.15085	-0.572
Mof_H 	H 	0.5565	0.1849	0.1433	0.167
Mof_H 	H 	0.6019	0.1389	0.1398	0.198
Mof_H 	H 	0.5808	0.1554	0.1706	0.163
Mof_C 	C 	0.8076	0.91173	0.96181	0.479
Mof_C 	C 	0.8019	0.8756	0.93745	-0.274
Mof_H 	H 	0.7623	0.8752	0.9327	0.104
Mof_C 	C 	0.8183	0.8152	0.94259	0.348
Mof_C 	C 	0.8665	0.9177	0.96801	-0.759
Mof_H 	H 	0.886	0.9265	0.9506	0.227
Mof_H 	H 	0.8806	0.8836	0.9758	0.224
Mof_H 	H 	0.8718	0.9469	0.9818	0.197
Mof_C 	C 	0.7772	0.8981	0.98722	-0.813
Mof_H 	H 	0.7384	0.8956	0.9827	0.232
Mof_H 	H 	0.7828	0.9264	0.0015	0.224
Mof_H 	H 	0.7898	0.8631	0.9946	0.261
Mof_C 	C 	0.4519	0.3013	0.10144	0.389
Mof_C 	C 	0.4826	0.3496	0.09585	-0.245
Mof_H 	H 	0.4618	0.3827	0.1016	0.082
Mof_C 	C 	0.5038	0.355	0.06404	0.35
Mof_C 	C 	0.4768	0.2488	0.0909	-0.649
Mof_H 	H 	0.452	0.2185	0.0948	0.171
Mof_H 	H 	0.5115	0.2425	0.1006	0.192
Mof_H 	H 	0.4831	0.2514	0.0705	0.21
Mof_C 	C 	0.3957	0.3024	0.08769	-0.654
Mof_H 	H 	0.3772	0.2678	0.0911	0.181
Mof_H 	H 	0.3996	0.3081	0.0673	0.224
Mof_H 	H 	0.3743	0.3321	0.0958	0.18
Mof_C 	C 	0.5363	0.583	0.30176	0.326
Mof_C 	C 	0.496	0.62679	0.30763	-0.175
Mof_H 	H 	0.5063	0.6471	0.3251	0.087
Mof_C 	C 	0.4384	0.6021	0.31082	0.289
Mof_C 	C 	0.52465	0.5463	0.27655	-0.626
Mof_H 	H 	0.5537	0.5193	0.2747	0.164
Mof_H 	H 	0.5229	0.5683	0.2593	0.19
Mof_H 	H 	0.4898	0.5278	0.2794	0.206
Mof_C 	C 	0.5459	0.5491	0.32904	-0.592
Mof_H 	H 	0.5531	0.5737	0.3449	0.167
Mof_H 	H 	0.5771	0.525	0.3263	0.162
Mof_H 	H 	0.5135	0.5274	0.3331	0.199
Mof_C 	C 	0.6334	0.7787	0.23183	0.442
Mof_C 	C 	0.5829	0.7592	0.21837	-0.259
Mof_H 	H 	0.5931	0.7276	0.2061	0.08
Mof_C 	C 	0.5575	0.8031	0.1987	0.39
Mof_C 	C 	0.6246	0.8261	0.25066	-0.746
Mof_H 	H 	0.5951	0.8181	0.2639	0.222
Mof_H 	H 	0.615	0.858	0.2393	0.233
Mof_H 	H 	0.658	0.8336	0.2612	0.196
Mof_C 	C 	0.6765	0.7866	0.21037	-0.729
Mof_H 	H 	0.6791	0.754	0.1985	0.198
Mof_H 	H 	0.7113	0.7929	0.2198	0.194
Mof_H 	H 	0.6675	0.818	0.1985	0.231
Mof_C 	C 	0.6486	0.7915	0.34927	0.354
Mof_C 	C 	0.6506	0.7985	0.38091	-0.234
Mof_H 	H 	0.632	0.7663	0.3894	0.087
Mof_C 	C 	0.6196	0.8477	0.38976	0.344
Mof_C 	C 	0.6697	0.8433	0.33564	-0.6
Mof_H 	H 	0.6687	0.8395	0.315	0.148
Mof_H 	H 	0.7072	0.8498	0.3417	0.161
Mof_H 	H 	0.6469	0.874	0.3414	0.182
Mof_C 	C 	0.5949	0.777	0.33633	-0.666
Mof_H 	H 	0.5988	0.7746	0.3158	0.188
Mof_H 	H 	0.568	0.8049	0.341	0.221
Mof_H 	H 	0.5827	0.7418	0.3437	0.195
Mof_C 	C 	0.8735	0.68971	0.38809	0.443
Mof_C 	C 	0.8785	0.7472	0.39716	-0.282
Mof_H 	H 	0.8949	0.7694	0.3816	0.099
Mof_C 	C 	0.9145	0.7525	0.42516	0.443
Mof_C 	C 	0.8532	0.6522	0.40863	-0.779
Mof_H 	H 	0.8179	0.6649	0.4156	0.223
Mof_H 	H 	0.8788	0.6498	0.4244	0.242
Mof_H 	H 	0.849	0.6163	0.3999	0.205
Mof_C 	C 	0.9301	0.6747	0.37579	-0.688
Mof_H 	H 	0.9299	0.6367	0.3696	0.19
Mof_H 	H 	0.9579	0.6797	0.3904	0.229
Mof_H 	H 	0.9382	0.6983	0.3596	0.191
Mof_O 	O 	0.6635	0.9133	0.16502	-0.385
Mof_C 	C 	0.6256	0.9392	0.1871	0.458
Mof_C 	C 	0.6711	0.9625	0.2105	-0.621
Mof_H 	H 	0.7078	0.9579	0.2028	0.204
Mof_H 	H 	0.6677	0.9422	0.2282	0.181
Mof_H 	H 	0.6643	0.0012	0.214	0.193
Mof_O 	O 	0.5837	0.9345	0.1856	-0.496
Mof_La	La	0.92901	0.03236	0.29265	0.764
Mof_La	La	0.27925	0.15052	0.99193	-1.686
Mof_O 	O 	0.3201	0.2195	0.02837	-0.377
Mof_O 	O 	0.8816	0.9573	0.25247	-0.487
Mof_O 	O 	0.915	0.9435	0.29543	-0.072
Mof_H 	H 	0.9053	0.8438	0.2721	-0.697
Mof_C 	C 	0.9004	0.9274	0.27156	0.801
Mof_La	La	0.86137	0.06581	0.23385	-0.925
Mof_La	La	0.9555	0.0424	0.23922	-0.566
Mof_La	La	0.883	0.0544	0.26727	1.713
Mof_La	La	0.8284	0.7713	0.49071	3.77
Mof_La	La	0.8567	0.8188	0.48419	-1.96
Mof_Ag	Ag	0.28206	0.34092	0.72818	0.518
Mof_Ag	Ag	0.35399	0.88944	0.50087	0.538
Mof_Ag	Ag	0.31303	0.0012	0.46209	0.504
Mof_Ag	Ag	0.32843	0.44393	0.7723	0.525
Mof_Ag	Ag	0.27203	0.25705	0.78991	0.535
Mof_Ag	Ag	0.12538	0.28614	0.81155	0.52
Mof_Ag	Ag	0.59247	0.80004	0.65255	0.553
Mof_Ag	Ag	0.34889	0.35836	0.84256	0.514
Mof_Pd	Pd	0.24186	0.502	0.70505	0.476
Mof_Pd	Pd	0.16269	0.22347	0.7306	0.487
Mof_Pd	Pd	0.56834	0.95474	0.68614	0.461
Mof_Pd	Pd	0.18435	0.02398	0.40364	0.489
Mof_Pd	Pd	0.42759	0.31351	0.76797	0.468
Mof_Pd	Pd	0.23805	0.25168	0.87398	0.452
Mof_I 	I 	0.26345	0.87356	0.45947	-0.575
Mof_La	La	0.42071	0.11998	0.63572	1.679
Mof_S 	S 	0.30219	0.43931	0.71995	-0.424
Mof_S 	S 	0.32641	0.98519	0.51389	-0.43
Mof_S 	S 	0.18643	0.31061	0.72138	-0.413
Mof_S 	S 	0.17779	0.22448	0.77806	-0.482
Mof_S 	S 	0.42259	0.8631	0.46416	-0.416
Mof_S 	S 	0.53151	0.87347	0.67334	-0.429
Mof_S 	S 	0.21457	0.01945	0.44859	-0.448
Mof_S 	S 	0.56097	0.7061	0.63974	-0.444
Mof_S 	S 	0.39736	0.38189	0.79622	-0.413
Mof_S 	S 	0.34596	0.28056	0.75419	-0.454
Mof_S 	S 	0.30261	0.26654	0.84074	-0.428
Mof_S 	S 	0.17353	0.30916	0.85797	-0.449
Mof_O 	O 	0.39062	0.54344	0.64878	-0.301
Mof_O 	O 	0.40825	0.462	0.63414	-0.324
Mof_O 	O 	0.38507	0.10854	0.58712	-0.497
Mof_O 	O 	0.4364	0.1292	0.54893	-0.361
Mof_O 	O 	0.12354	0.23345	0.63268	-0.333
Mof_O 	O 	0.20155	0.2733	0.62396	-0.294
Mof_O 	O 	0.1535	0.0399	0.74293	-0.09
Mof_O 	O 	0.106	0.0463	0.78214	-0.913
Mof_O 	O 	0.6164	0.86841	0.47427	-0.169
Mof_O 	O 	0.5989	0.78069	0.46794	-0.263
Mof_O 	O 	0.42716	0.02099	0.62917	-0.514
Mof_O 	O 	0.36757	0.95677	0.64206	-0.311
Mof_O 	O 	0.13557	0.19966	0.43468	-0.299
Mof_O 	O 	0.2139	0.2139	0.45652	-0.29
Mof_O 	O 	0.4521	0.6638	0.55694	-0.313
Mof_O 	O 	0.5318	0.6286	0.54783	-0.296
Mof_O 	O 	0.5896	0.4057	0.79129	-0.147
Mof_O 	O 	0.5692	0.4084	0.83895	-0.244
Mof_O 	O 	0.48545	0.17455	0.70648	-0.281
Mof_O 	O 	0.41805	0.18665	0.67592	-0.488
Mof_O 	O 	0.35616	0.11183	0.89585	-0.306
Mof_O 	O 	0.43397	0.1582	0.89026	-0.292
Mof_O 	O 	0.11326	0.2333	0.94499	-0.381
Mof_O 	O 	0.03809	0.2458	0.92123	-0.347
Mof_N 	N 	0.29539	0.51627	0.67426	-0.253
Mof_H 	H 	0.2766	0.521	0.6576	0.101
Mof_H 	H 	0.3129	0.5484	0.6782	0.124
Mof_N 	N 	0.30682	0.06406	0.55949	-0.245
Mof_H 	H 	0.2867	0.0955	0.5598	0.112
Mof_H 	H 	0.3167	0.0564	0.5778	0.106
Mof_N 	N 	0.1566	0.2149	0.68818	-0.259
Mof_H 	H 	0.1699	0.1813	0.6832	0.098
Mof_H 	H 	0.1204	0.2159	0.6832	0.119
Mof_N 	N 	0.1301	0.14718	0.73704	-0.173
Mof_H 	H 	0.0965	0.1459	0.7286	0.106
Mof_H 	H 	0.1519	0.1221	0.7281	0.081
Mof_N 	N 	0.53035	0.89997	0.44543	-0.255
Mof_H 	H 	0.5509	0.8998	0.4292	0.123
Mof_H 	H 	0.5473	0.9226	0.4582	0.114
Mof_N 	N 	0.50725	0.988	0.66276	-0.24
Mof_H 	H 	0.4967	0.0201	0.671	0.089
Mof_H 	H 	0.5202	0.9959	0.645	0.077
Mof_N 	N 	0.16944	0.10447	0.4115	-0.248
Mof_H 	H 	0.1805	0.1247	0.3962	0.14
Mof_H 	H 	0.1326	0.1095	0.4137	0.118
Mof_N 	N 	0.4686	0.6566	0.61309	-0.247
Mof_H 	H 	0.4517	0.6233	0.6138	0.104
Mof_H 	H 	0.4456	0.6798	0.6037	0.122
Mof_N 	N 	0.5024	0.33667	0.7829	-0.271
Mof_H 	H 	0.5214	0.3057	0.7874	0.161
Mof_H 	H 	0.5207	0.3534	0.7684	0.165
Mof_N 	N 	0.45742	0.2592	0.73718	-0.235
Mof_H 	H 	0.4844	0.2762	0.727	0.118
Mof_H 	H 	0.4726	0.2297	0.7461	0.116
Mof_N 	N 	0.29274	0.20124	0.89164	-0.241
Mof_H 	H 	0.294	0.2089	0.9107	0.086
Mof_H 	H 	0.2796	0.1664	0.8898	0.099
Mof_N 	N 	0.18068	0.2324	0.90349	-0.227
Mof_H 	H 	0.1798	0.1952	0.9054	0.09
Mof_H 	H 	0.1915	0.2466	0.9206	0.038
Mof_C 	C 	0.3602	0.456	0.69598	0.281
Mof_C 	C 	0.3356	0.4749	0.66989	-0.188
Mof_H 	H 	0.3168	0.4431	0.6611	0.07
Mof_C 	C 	0.3825	0.4939	0.64827	0.345
Mof_C 	C 	0.397	0.4977	0.70976	-0.58
Mof_H 	H 	0.4124	0.4826	0.7271	0.153
Mof_H 	H 	0.376	0.5304	0.7143	0.165
Mof_H 	H 	0.4265	0.5072	0.6967	0.184
Mof_C 	C 	0.3923	0.3965	0.69155	-0.514
Mof_H 	H 	0.4085	0.3851	0.7095	0.142
Mof_H 	H 	0.4208	0.4006	0.6773	0.174
Mof_H 	H 	0.3662	0.3689	0.6853	0.137
Mof_C 	C 	0.38175	0.02373	0.53229	0.325
Mof_C 	C 	0.3571	0.07411	0.54265	-0.232
Mof_H 	H 	0.3466	0.0962	0.5258	0.08
Mof_C 	C 	0.3962	0.11	0.56121	0.398
Mof_C 	C 	0.403	0.9845	0.5563	-0.567
Mof_H 	H 	0.4192	0.9521	0.5477	0.151
Mof_H 	H 	0.3726	0.9737	0.5684	0.171
Mof_H 	H 	0.4305	0.0033	0.5677	0.18
Mof_C 	C 	0.4242	0.0315	0.50892	-0.605
Mof_H 	H 	0.4397	0.9962	0.5038	0.165
Mof_H 	H 	0.4531	0.0555	0.5157	0.199
Mof_H 	H 	0.4069	0.0478	0.4923	0.165
Mof_C 	C 	0.1671	0.3165	0.6828	0.261
Mof_C 	C 	0.1868	0.2582	0.67137	-0.17
Mof_H 	H 	0.2271	0.2537	0.6727	0.061
Mof_C 	C 	0.16545	0.2544	0.63919	0.353
Mof_C 	C 	0.1029	0.3237	0.6821	-0.53
Mof_H 	H 	0.0856	0.2916	0.6904	0.159
Mof_H 	H 	0.0908	0.3279	0.6625	0.165
Mof_H 	H 	0.0928	0.356	0.693	0.139
Mof_C 	C 	0.1993	0.3645	0.66973	-0.556
Mof_H 	H 	0.1848	0.3989	0.677	0.156
Mof_H 	H 	0.1956	0.3636	0.6491	0.191
Mof_H 	H 	0.2377	0.3613	0.6749	0.152
Mof_C 	C 	0.1744	0.1507	0.78392	0.739
Mof_C 	C 	0.1244	0.13163	0.7654	-0.509
Mof_H 	H 	0.0883	0.1411	0.7737	0.821
Mof_C 	C 	0.1356	0.0675	0.7636	0.248
Mof_C 	C 	0.226	0.1239	0.77568	-0.938
Mof_H 	H 	0.2305	0.1261	0.7551	0.261
Mof_H 	H 	0.2251	0.0857	0.7815	0.257
Mof_H 	H 	0.2565	0.1422	0.785	0.241
Mof_C 	C 	0.1688	0.1445	0.81198	-1.157
Mof_H 	H 	0.1344	0.1607	0.8181	0.321
Mof_H 	H 	0.199	0.1626	0.8217	0.314
Mof_H 	H 	0.169	0.1057	0.8167	0.324
Mof_C 	C 	0.4869	0.8412	0.48144	0.294
Mof_C 	C 	0.52942	0.8434	0.45741	-0.174
Mof_H 	H 	0.5196	0.8168	0.4423	0.079
Mof_C 	C 	0.5875	0.82897	0.47002	0.318
Mof_C 	C 	0.4994	0.8832	0.50533	-0.57
Mof_H 	H 	0.4715	0.8805	0.5201	0.15
Mof_H 	H 	0.4993	0.9199	0.4974	0.167
Mof_H 	H 	0.5351	0.8753	0.5135	0.194
Mof_C 	C 	0.4745	0.7843	0.49421	-0.582
Mof_H 	H 	0.447	0.7879	0.5091	0.166
Mof_H 	H 	0.5078	0.769	0.5023	0.198
Mof_H 	H 	0.4609	0.7602	0.4793	0.172
Mof_C 	C 	0.4767	0.8953	0.64882	0.303
Mof_C 	C 	0.4589	0.9517	0.66007	-0.209
Mof_H 	H 	0.4434	0.9464	0.6794	0.076
Mof_C 	C 	0.414	0.9825	0.64131	0.432
Mof_C 	C 	0.498	0.8996	0.61905	-0.587
Mof_H 	H 	0.5087	0.8635	0.6123	0.155
Mof_H 	H 	0.5297	0.9238	0.6187	0.166
Mof_H 	H 	0.4696	0.9144	0.6067	0.181
Mof_C 	C 	0.4298	0.8495	0.65085	-0.572
Mof_H 	H 	0.4435	0.8151	0.6433	0.167
Mof_H 	H 	0.3981	0.8611	0.6398	0.198
Mof_H 	H 	0.4192	0.8446	0.6706	0.163
Mof_C 	C 	0.1924	0.08827	0.46181	0.479
Mof_C 	C 	0.1981	0.1244	0.43745	-0.274
Mof_H 	H 	0.2377	0.1248	0.4327	0.104
Mof_C 	C 	0.1817	0.1848	0.44259	0.348
Mof_C 	C 	0.1335	0.0823	0.46801	-0.759
Mof_H 	H 	0.114	0.0735	0.4506	0.227
Mof_H 	H 	0.1194	0.1164	0.4758	0.224
Mof_H 	H 	0.1282	0.0531	0.4818	0.197
Mof_C 	C 	0.2228	0.1019	0.48722	-0.812
Mof_H 	H 	0.2616	0.1044	0.4827	0.232
Mof_H 	H 	0.2172	0.0736	0.5015	0.224
Mof_H 	H 	0.2102	0.1369	0.4946	0.261
Mof_C 	C 	0.5481	0.6987	0.60144	0.389
Mof_C 	C 	0.5174	0.6504	0.59585	-0.245
Mof_H 	H 	0.5382	0.6173	0.6016	0.082
Mof_C 	C 	0.4962	0.645	0.56404	0.35
Mof_C 	C 	0.5232	0.7512	0.5909	-0.649
Mof_H 	H 	0.548	0.7815	0.5948	0.171
Mof_H 	H 	0.4885	0.7575	0.6006	0.192
Mof_H 	H 	0.5169	0.7486	0.5705	0.21
Mof_C 	C 	0.6043	0.6976	0.58769	-0.654
Mof_H 	H 	0.6228	0.7322	0.5911	0.181
Mof_H 	H 	0.6004	0.6919	0.5673	0.224
Mof_H 	H 	0.6257	0.6679	0.5958	0.18
Mof_C 	C 	0.4637	0.417	0.80176	0.326
Mof_C 	C 	0.504	0.37321	0.80763	-0.175
Mof_H 	H 	0.4937	0.3529	0.8251	0.087
Mof_C 	C 	0.5616	0.3979	0.81082	0.289
Mof_C 	C 	0.47535	0.4537	0.77655	-0.626
Mof_H 	H 	0.4463	0.4807	0.7747	0.164
Mof_H 	H 	0.4771	0.4317	0.7593	0.19
Mof_H 	H 	0.5102	0.4722	0.7794	0.206
Mof_C 	C 	0.4541	0.4509	0.82904	-0.592
Mof_H 	H 	0.4469	0.4263	0.8449	0.167
Mof_H 	H 	0.4229	0.475	0.8263	0.162
Mof_H 	H 	0.4865	0.4726	0.8331	0.199
Mof_C 	C 	0.3666	0.2213	0.73183	0.442
Mof_C 	C 	0.4171	0.2408	0.71837	-0.259
Mof_H 	H 	0.4069	0.2724	0.7061	0.08
Mof_C 	C 	0.4425	0.1969	0.6987	0.39
Mof_C 	C 	0.3754	0.1739	0.75066	-0.746
Mof_H 	H 	0.4049	0.1819	0.7639	0.222
Mof_H 	H 	0.385	0.142	0.7393	0.233
Mof_H 	H 	0.342	0.1664	0.7612	0.196
Mof_C 	C 	0.3235	0.2134	0.71037	-0.729
Mof_H 	H 	0.3209	0.246	0.6985	0.198
Mof_H 	H 	0.2887	0.2071	0.7198	0.194
Mof_H 	H 	0.3325	0.182	0.6985	0.231
Mof_C 	C 	0.3514	0.2085	0.84927	0.354
Mof_C 	C 	0.3494	0.2015	0.88091	-0.234
Mof_H 	H 	0.368	0.2337	0.8894	0.087
Mof_C 	C 	0.3804	0.1523	0.88976	0.344
Mof_C 	C 	0.3303	0.1567	0.83564	-0.6
Mof_H 	H 	0.3313	0.1605	0.815	0.148
Mof_H 	H 	0.2928	0.1502	0.8417	0.161
Mof_H 	H 	0.3531	0.126	0.8414	0.182
Mof_C 	C 	0.4051	0.223	0.83633	-0.666
Mof_H 	H 	0.4012	0.2254	0.8158	0.188
Mof_H 	H 	0.432	0.1951	0.841	0.221
Mof_H 	H 	0.4173	0.2582	0.8437	0.195
Mof_C 	C 	0.1265	0.31029	0.88809	0.443
Mof_C 	C 	0.1215	0.2528	0.89716	-0.282
Mof_H 	H 	0.1051	0.2306	0.8816	0.099
Mof_C 	C 	0.0855	0.2475	0.92516	0.443
Mof_C 	C 	0.1468	0.3478	0.90863	-0.779
Mof_H 	H 	0.1821	0.3351	0.9156	0.223
Mof_H 	H 	0.1212	0.3502	0.9244	0.242
Mof_H 	H 	0.151	0.3837	0.8999	0.204
Mof_C 	C 	0.0699	0.3253	0.87579	-0.688
Mof_H 	H 	0.0701	0.3633	0.8696	0.19
Mof_H 	H 	0.0421	0.3203	0.8904	0.229
Mof_H 	H 	0.0618	0.3017	0.8596	0.191
Mof_O 	O 	0.3365	0.0867	0.66502	-0.385
Mof_C 	C 	0.3744	0.0608	0.6871	0.458
Mof_C 	C 	0.3289	0.0375	0.7105	-0.621
Mof_H 	H 	0.2922	0.0421	0.7028	0.204
Mof_H 	H 	0.3323	0.0578	0.7282	0.181
Mof_H 	H 	0.3357	0.9988	0.714	0.193
Mof_O 	O 	0.4163	0.0655	0.6856	-0.496
Mof_La	La	0.07099	0.96764	0.79265	0.764
Mof_La	La	0.72075	0.84948	0.49193	-1.686
Mof_O 	O 	0.6799	0.7805	0.52837	-0.377
Mof_O 	O 	0.1184	0.0427	0.75247	-0.487
Mof_O 	O 	0.085	0.0565	0.79543	-0.072
Mof_H 	H 	0.0947	0.1562	0.7721	-0.697
Mof_C 	C 	0.0996	0.0726	0.77156	0.801
Mof_La	La	0.13863	0.93419	0.73385	-0.925
Mof_La	La	0.0445	0.9576	0.73922	-0.566
Mof_La	La	0.117	0.9456	0.76727	1.713
Mof_La	La	0.1716	0.2287	0.99071	3.77
Mof_La	La	0.1433	0.1812	0.98419	-1.961
Mof_Ag	Ag	0.84092	0.21794	0.47818	0.518
Mof_Ag	Ag	0.38944	0.14601	0.25087	0.538
Mof_Ag	Ag	0.5012	0.18697	0.21209	0.505
Mof_Ag	Ag	0.94393	0.17157	0.5223	0.525
Mof_Ag	Ag	0.75705	0.22797	0.53991	0.535
Mof_Ag	Ag	0.78614	0.37462	0.56155	0.52
Mof_Ag	Ag	0.30004	0.90753	0.40255	0.553
Mof_Ag	Ag	0.85836	0.15111	0.59256	0.514
Mof_Pd	Pd	0.002	0.25814	0.45505	0.476
Mof_Pd	Pd	0.72347	0.33731	0.4806	0.487
Mof_Pd	Pd	0.45474	0.93166	0.43614	0.462
Mof_Pd	Pd	0.52398	0.31565	0.15364	0.489
Mof_Pd	Pd	0.81351	0.07241	0.51797	0.468
Mof_Pd	Pd	0.75168	0.26195	0.62398	0.452
Mof_I 	I 	0.37356	0.23655	0.20947	-0.575
Mof_La	La	0.61998	0.0793	0.38572	1.679
Mof_S 	S 	0.93931	0.19781	0.46995	-0.424
Mof_S 	S 	0.48519	0.17359	0.26389	-0.43
Mof_S 	S 	0.81061	0.31357	0.47138	-0.413
Mof_S 	S 	0.72448	0.32221	0.52806	-0.482
Mof_S 	S 	0.3631	0.07741	0.21416	-0.416
Mof_S 	S 	0.37347	0.96849	0.42334	-0.429
Mof_S 	S 	0.51945	0.28543	0.19859	-0.448
Mof_S 	S 	0.2061	0.93903	0.38974	-0.444
Mof_S 	S 	0.88189	0.10264	0.54622	-0.413
Mof_S 	S 	0.78056	0.15404	0.50419	-0.454
Mof_S 	S 	0.76654	0.19739	0.59074	-0.428
Mof_S 	S 	0.80916	0.32647	0.60797	-0.449
Mof_O 	O 	0.04344	0.10938	0.39878	-0.3
Mof_O 	O 	0.962	0.09175	0.38414	-0.324
Mof_O 	O 	0.60854	0.11493	0.33712	-0.497
Mof_O 	O 	0.6292	0.0636	0.29893	-0.361
Mof_O 	O 	0.73345	0.37646	0.38268	-0.333
Mof_O 	O 	0.7733	0.29845	0.37396	-0.295
Mof_O 	O 	0.5399	0.3465	0.49293	-0.09
Mof_O 	O 	0.5463	0.394	0.53214	-0.913
Mof_O 	O 	0.36841	0.8836	0.22427	-0.169
Mof_O 	O 	0.28069	0.9011	0.21794	-0.263
Mof_O 	O 	0.52099	0.07284	0.37917	-0.515
Mof_O 	O 	0.45677	0.13243	0.39206	-0.311
Mof_O 	O 	0.69966	0.36443	0.18468	-0.299
Mof_O 	O 	0.7139	0.2861	0.20652	-0.29
Mof_O 	O 	0.1638	0.0479	0.30694	-0.313
Mof_O 	O 	0.1286	0.9682	0.29783	-0.296
Mof_O 	O 	0.9057	0.9104	0.54129	-0.146
Mof_O 	O 	0.9084	0.9308	0.58895	-0.244
Mof_O 	O 	0.67455	0.01455	0.45648	-0.281
Mof_O 	O 	0.68665	0.08195	0.42592	-0.488
Mof_O 	O 	0.61183	0.14384	0.64585	-0.307
Mof_O 	O 	0.6582	0.06603	0.64026	-0.292
Mof_O 	O 	0.7333	0.38674	0.69499	-0.381
Mof_O 	O 	0.7458	0.46191	0.67123	-0.347
Mof_N 	N 	0.01627	0.20461	0.42426	-0.253
Mof_H 	H 	0.021	0.2234	0.4076	0.101
Mof_H 	H 	0.0484	0.1871	0.4282	0.124
Mof_N 	N 	0.56406	0.19318	0.30949	-0.245
Mof_H 	H 	0.5955	0.2133	0.3098	0.112
Mof_H 	H 	0.5564	0.1833	0.3278	0.106
Mof_N 	N 	0.7149	0.3434	0.43818	-0.259
Mof_H 	H 	0.6813	0.3301	0.4332	0.098
Mof_H 	H 	0.7159	0.3796	0.4332	0.119
Mof_N 	N 	0.64718	0.3699	0.48704	-0.173
Mof_H 	H 	0.6459	0.4035	0.4786	0.106
Mof_H 	H 	0.6221	0.3481	0.4781	0.081
Mof_N 	N 	0.39997	0.96965	0.19543	-0.255
Mof_H 	H 	0.3998	0.9491	0.1792	0.123
Mof_H 	H 	0.4226	0.9527	0.2082	0.114
Mof_N 	N 	0.488	0.99275	0.41276	-0.24
Mof_H 	H 	0.5201	0.0033	0.421	0.089
Mof_H 	H 	0.4959	0.9798	0.395	0.077
Mof_N 	N 	0.60447	0.33056	0.1615	-0.248
Mof_H 	H 	0.6247	0.3195	0.1462	0.14
Mof_H 	H 	0.6095	0.3674	0.1637	0.118
Mof_N 	N 	0.1566	0.0314	0.36309	-0.247
Mof_H 	H 	0.1233	0.0483	0.3638	0.104
Mof_H 	H 	0.1798	0.0544	0.3537	0.122
Mof_N 	N 	0.83667	0.9976	0.5329	-0.271
Mof_H 	H 	0.8057	0.9786	0.5374	0.161
Mof_H 	H 	0.8534	0.9793	0.5184	0.165
Mof_N 	N 	0.7592	0.04258	0.48718	-0.235
Mof_H 	H 	0.7762	0.0156	0.477	0.117
Mof_H 	H 	0.7297	0.0274	0.4961	0.116
Mof_N 	N 	0.70124	0.20726	0.64164	-0.241
Mof_H 	H 	0.7089	0.206	0.6607	0.086
Mof_H 	H 	0.6664	0.2204	0.6398	0.099
Mof_N 	N 	0.7324	0.31932	0.65349	-0.227
Mof_H 	H 	0.6952	0.3202	0.6554	0.09
Mof_H 	H 	0.7466	0.3085	0.6706	0.038
Mof_C 	C 	0.956	0.1398	0.44598	0.281
Mof_C 	C 	0.9749	0.1644	0.41989	-0.188
Mof_H 	H 	0.9431	0.1832	0.4111	0.07
Mof_C 	C 	0.9939	0.1175	0.39827	0.345
Mof_C 	C 	0.9977	0.103	0.45976	-0.581
Mof_H 	H 	0.9826	0.0876	0.4771	0.153
Mof_H 	H 	0.0304	0.124	0.4643	0.165
Mof_H 	H 	0.0072	0.0735	0.4467	0.184
Mof_C 	C 	0.8965	0.1077	0.44155	-0.514
Mof_H 	H 	0.8851	0.0915	0.4595	0.142
Mof_H 	H 	0.9006	0.0792	0.4273	0.174
Mof_H 	H 	0.8689	0.1338	0.4353	0.137
Mof_C 	C 	0.52373	0.11825	0.28229	0.325
Mof_C 	C 	0.57411	0.1429	0.29265	-0.232
Mof_H 	H 	0.5962	0.1534	0.2758	0.08
Mof_C 	C 	0.61	0.1038	0.31121	0.398
Mof_C 	C 	0.4845	0.097	0.3063	-0.567
Mof_H 	H 	0.4521	0.0808	0.2977	0.151
Mof_H 	H 	0.4737	0.1274	0.3184	0.171
Mof_H 	H 	0.5033	0.0695	0.3177	0.18
Mof_C 	C 	0.5315	0.0758	0.25892	-0.604
Mof_H 	H 	0.4962	0.0603	0.2538	0.164
Mof_H 	H 	0.5555	0.0469	0.2657	0.199
Mof_H 	H 	0.5478	0.0931	0.2423	0.165
Mof_C 	C 	0.8165	0.3329	0.4328	0.261
Mof_C 	C 	0.7582	0.3132	0.42137	-0.17
Mof_H 	H 	0.7537	0.2729	0.4227	0.061
Mof_C 	C 	0.7544	0.33455	0.38919	0.353
Mof_C 	C 	0.8237	0.3971	0.4321	-0.53
Mof_H 	H 	0.7916	0.4144	0.4404	0.159
Mof_H 	H 	0.8279	0.4092	0.4125	0.165
Mof_H 	H 	0.856	0.4072	0.443	0.139
Mof_C 	C 	0.8645	0.3007	0.41973	-0.556
Mof_H 	H 	0.8989	0.3152	0.427	0.156
Mof_H 	H 	0.8636	0.3044	0.3991	0.191
Mof_H 	H 	0.8613	0.2623	0.4249	0.152
Mof_C 	C 	0.6507	0.3256	0.53392	0.739
Mof_C 	C 	0.63163	0.3756	0.5154	-0.509
Mof_H 	H 	0.6411	0.4117	0.5237	0.822
Mof_C 	C 	0.5675	0.3644	0.5136	0.248
Mof_C 	C 	0.6239	0.274	0.52568	-0.938
Mof_H 	H 	0.6261	0.2695	0.5051	0.261
Mof_H 	H 	0.5857	0.2749	0.5315	0.257
Mof_H 	H 	0.6422	0.2435	0.535	0.241
Mof_C 	C 	0.6445	0.3312	0.56198	-1.156
Mof_H 	H 	0.6607	0.3656	0.5681	0.321
Mof_H 	H 	0.6626	0.301	0.5717	0.314
Mof_H 	H 	0.6057	0.331	0.5667	0.323
Mof_C 	C 	0.3412	0.0131	0.23144	0.294
Mof_C 	C 	0.3434	0.97058	0.20741	-0.174
Mof_H 	H 	0.3168	0.9804	0.1923	0.079
Mof_C 	C 	0.32897	0.9125	0.22002	0.318
Mof_C 	C 	0.3832	0.0006	0.25533	-0.571
Mof_H 	H 	0.3805	0.0285	0.2701	0.15
Mof_H 	H 	0.4199	0.0007	0.2474	0.167
Mof_H 	H 	0.3753	0.9649	0.2635	0.194
Mof_C 	C 	0.2843	0.0255	0.24421	-0.583
Mof_H 	H 	0.2879	0.053	0.2591	0.167
Mof_H 	H 	0.269	0.9922	0.2523	0.198
Mof_H 	H 	0.2602	0.0391	0.2293	0.172
Mof_C 	C 	0.3953	0.0233	0.39882	0.304
Mof_C 	C 	0.4517	0.0411	0.41007	-0.21
Mof_H 	H 	0.4464	0.0566	0.4294	0.076
Mof_C 	C 	0.4825	0.086	0.39131	0.432
Mof_C 	C 	0.3996	0.002	0.36905	-0.59
Mof_H 	H 	0.3635	0.9913	0.3623	0.157
Mof_H 	H 	0.4238	0.9703	0.3687	0.168
Mof_H 	H 	0.4144	0.0304	0.3567	0.182
Mof_C 	C 	0.3495	0.0702	0.40085	-0.573
Mof_H 	H 	0.3151	0.0565	0.3933	0.168
Mof_H 	H 	0.3611	0.1019	0.3898	0.198
Mof_H 	H 	0.3446	0.0808	0.4206	0.163
Mof_C 	C 	0.58827	0.3076	0.21181	0.479
Mof_C 	C 	0.6244	0.3019	0.18745	-0.274
Mof_H 	H 	0.6248	0.2623	0.1827	0.104
Mof_C 	C 	0.6848	0.3183	0.19259	0.348
Mof_C 	C 	0.5823	0.3665	0.21801	-0.759
Mof_H 	H 	0.5735	0.386	0.2006	0.227
Mof_H 	H 	0.6164	0.3806	0.2258	0.224
Mof_H 	H 	0.5531	0.3718	0.2318	0.198
Mof_C 	C 	0.6019	0.2772	0.23722	-0.812
Mof_H 	H 	0.6044	0.2384	0.2327	0.232
Mof_H 	H 	0.5736	0.2828	0.2515	0.224
Mof_H 	H 	0.6369	0.2898	0.2446	0.261
Mof_C 	C 	0.1987	0.9519	0.35144	0.388
Mof_C 	C 	0.1504	0.9826	0.34585	-0.245
Mof_H 	H 	0.1173	0.9618	0.3516	0.082
Mof_C 	C 	0.145	0.0038	0.31404	0.35
Mof_C 	C 	0.2512	0.9768	0.3409	-0.648
Mof_H 	H 	0.2815	0.952	0.3448	0.171
Mof_H 	H 	0.2575	0.0115	0.3506	0.191
Mof_H 	H 	0.2486	0.9831	0.3205	0.209
Mof_C 	C 	0.1976	0.8957	0.33769	-0.653
Mof_H 	H 	0.2322	0.8772	0.3411	0.181
Mof_H 	H 	0.1919	0.8996	0.3173	0.224
Mof_H 	H 	0.1679	0.8743	0.3458	0.18
Mof_C 	C 	0.917	0.0363	0.55176	0.326
Mof_C 	C 	0.87321	0.996	0.55763	-0.174
Mof_H 	H 	0.8529	0.0063	0.5751	0.086
Mof_C 	C 	0.8979	0.9384	0.56082	0.289
Mof_C 	C 	0.9537	0.02465	0.52655	-0.629
Mof_H 	H 	0.9807	0.0537	0.5247	0.164
Mof_H 	H 	0.9317	0.0229	0.5093	0.19
Mof_H 	H 	0.9722	0.9898	0.5294	0.208
Mof_C 	C 	0.9509	0.0459	0.57904	-0.592
Mof_H 	H 	0.9263	0.0531	0.5949	0.167
Mof_H 	H 	0.975	0.0771	0.5763	0.162
Mof_H 	H 	0.9726	0.0135	0.5831	0.199
Mof_C 	C 	0.7213	0.1334	0.48183	0.442
Mof_C 	C 	0.7408	0.0829	0.46837	-0.259
Mof_H 	H 	0.7724	0.0931	0.4561	0.08
Mof_C 	C 	0.6969	0.0575	0.4487	0.39
Mof_C 	C 	0.6739	0.1246	0.50066	-0.745
Mof_H 	H 	0.6819	0.0951	0.5139	0.222
Mof_H 	H 	0.642	0.115	0.4893	0.233
Mof_H 	H 	0.6664	0.158	0.5112	0.195
Mof_C 	C 	0.7134	0.1765	0.46037	-0.729
Mof_H 	H 	0.746	0.1791	0.4485	0.198
Mof_H 	H 	0.7071	0.2113	0.4698	0.194
Mof_H 	H 	0.682	0.1675	0.4485	0.231
Mof_C 	C 	0.7085	0.1486	0.59927	0.354
Mof_C 	C 	0.7015	0.1506	0.63091	-0.234
Mof_H 	H 	0.7337	0.132	0.6394	0.087
Mof_C 	C 	0.6523	0.1196	0.63976	0.345
Mof_C 	C 	0.6567	0.1697	0.58564	-0.6
Mof_H 	H 	0.6605	0.1687	0.565	0.148
Mof_H 	H 	0.6502	0.2072	0.5917	0.161
Mof_H 	H 	0.626	0.1469	0.5914	0.182
Mof_C 	C 	0.723	0.0949	0.58633	-0.666
Mof_H 	H 	0.7254	0.0988	0.5658	0.188
Mof_H 	H 	0.6951	0.068	0.591	0.221
Mof_H 	H 	0.7582	0.0827	0.5937	0.195
Mof_C 	C 	0.81029	0.3735	0.63809	0.443
Mof_C 	C 	0.7528	0.3785	0.64716	-0.282
Mof_H 	H 	0.7306	0.3949	0.6316	0.099
Mof_C 	C 	0.7475	0.4145	0.67516	0.443
Mof_C 	C 	0.8478	0.3532	0.65863	-0.779
Mof_H 	H 	0.8351	0.3179	0.6656	0.223
Mof_H 	H 	0.8502	0.3788	0.6744	0.242
Mof_H 	H 	0.8837	0.349	0.6499	0.204
Mof_C 	C 	0.8253	0.4301	0.62579	-0.688
Mof_H 	H 	0.8633	0.4299	0.6196	0.19
Mof_H 	H 	0.8203	0.4579	0.6404	0.229
Mof_H 	H 	0.8017	0.4382	0.6096	0.191
Mof_O 	O 	0.5867	0.1635	0.41502	-0.385
Mof_C 	C 	0.5608	0.1256	0.4371	0.458
Mof_C 	C 	0.5375	0.1711	0.4605	-0.622
Mof_H 	H 	0.5421	0.2078	0.4528	0.204
Mof_H 	H 	0.5578	0.1677	0.4782	0.181
Mof_H 	H 	0.4988	0.1643	0.464	0.194
Mof_O 	O 	0.5655	0.0837	0.4356	-0.496
Mof_La	La	0.46764	0.42901	0.54265	0.765
Mof_La	La	0.34948	0.77925	0.24193	-1.685
Mof_O 	O 	0.2805	0.8201	0.27837	-0.377
Mof_O 	O 	0.5427	0.3816	0.50247	-0.487
Mof_O 	O 	0.5565	0.415	0.54543	-0.073
Mof_H 	H 	0.6562	0.4053	0.5221	-0.698
Mof_C 	C 	0.5726	0.4004	0.52156	0.801
Mof_La	La	0.43419	0.36137	0.48385	-0.927
Mof_La	La	0.4576	0.4555	0.48922	-0.567
Mof_La	La	0.4456	0.383	0.51727	1.716
Mof_La	La	0.7287	0.3284	0.74071	3.768
Mof_La	La	0.6812	0.3567	0.73419	-1.96
Mof_Ag	Ag	0.15908	0.78206	0.97818	0.518
Mof_Ag	Ag	0.61056	0.85399	0.75087	0.538
Mof_Ag	Ag	0.4988	0.81303	0.71209	0.505
Mof_Ag	Ag	0.05607	0.82843	0.0223	0.525
Mof_Ag	Ag	0.24295	0.77203	0.03991	0.535
Mof_Ag	Ag	0.21386	0.62538	0.06155	0.52
Mof_Ag	Ag	0.69996	0.09247	0.90255	0.553
Mof_Ag	Ag	0.14164	0.84889	0.09256	0.514
Mof_Pd	Pd	0.998	0.74186	0.95505	0.476
Mof_Pd	Pd	0.27653	0.66269	0.9806	0.487
Mof_Pd	Pd	0.54526	0.06834	0.93614	0.462
Mof_Pd	Pd	0.47602	0.68435	0.65364	0.489
Mof_Pd	Pd	0.18649	0.92759	0.01797	0.468
Mof_Pd	Pd	0.24832	0.73805	0.12398	0.452
Mof_I 	I 	0.62644	0.76345	0.70947	-0.575
Mof_La	La	0.38002	0.92071	0.88572	1.679
Mof_S 	S 	0.06069	0.80219	0.96995	-0.424
Mof_S 	S 	0.51481	0.82641	0.76389	-0.43
Mof_S 	S 	0.18939	0.68643	0.97138	-0.413
Mof_S 	S 	0.27552	0.67779	0.02806	-0.482
Mof_S 	S 	0.6369	0.92259	0.71416	-0.416
Mof_S 	S 	0.62653	0.03151	0.92334	-0.429
Mof_S 	S 	0.48055	0.71457	0.69859	-0.448
Mof_S 	S 	0.7939	0.06097	0.88974	-0.443
Mof_S 	S 	0.11811	0.89736	0.04622	-0.413
Mof_S 	S 	0.21944	0.84596	0.00419	-0.454
Mof_S 	S 	0.23346	0.80261	0.09074	-0.428
Mof_S 	S 	0.19084	0.67353	0.10797	-0.449
Mof_O 	O 	0.95656	0.89062	0.89878	-0.3
Mof_O 	O 	0.038	0.90825	0.88414	-0.324
Mof_O 	O 	0.39146	0.88507	0.83712	-0.497
Mof_O 	O 	0.3708	0.9364	0.79893	-0.361
Mof_O 	O 	0.26655	0.62354	0.88268	-0.333
Mof_O 	O 	0.2267	0.70155	0.87396	-0.295
Mof_O 	O 	0.4601	0.6535	0.99293	-0.09
Mof_O 	O 	0.4537	0.606	0.03214	-0.913
Mof_O 	O 	0.63159	0.1164	0.72427	-0.169
Mof_O 	O 	0.71931	0.0989	0.71794	-0.263
Mof_O 	O 	0.47901	0.92716	0.87917	-0.515
Mof_O 	O 	0.54323	0.86757	0.89206	-0.311
Mof_O 	O 	0.30034	0.63557	0.68468	-0.299
Mof_O 	O 	0.2861	0.7139	0.70652	-0.29
Mof_O 	O 	0.8362	0.9521	0.80694	-0.313
Mof_O 	O 	0.8714	0.0318	0.79783	-0.296
Mof_O 	O 	0.0943	0.0896	0.04129	-0.146
Mof_O 	O 	0.0916	0.0692	0.08895	-0.244
Mof_O 	O 	0.32545	0.98545	0.95648	-0.281
Mof_O 	O 	0.31335	0.91805	0.92592	-0.488
Mof_O 	O 	0.38817	0.85616	0.14585	-0.307
Mof_O 	O 	0.3418	0.93397	0.14026	-0.292
Mof_O 	O 	0.2667	0.61326	0.19499	-0.381
Mof_O 	O 	0.2542	0.53809	0.17123	-0.347
Mof_N 	N 	0.98373	0.79539	0.92426	-0.253
Mof_H 	H 	0.979	0.7766	0.9076	0.101
Mof_H 	H 	0.9516	0.8129	0.9282	0.124
Mof_N 	N 	0.43594	0.80682	0.80949	-0.245
Mof_H 	H 	0.4045	0.7867	0.8098	0.112
Mof_H 	H 	0.4436	0.8167	0.8278	0.106
Mof_N 	N 	0.2851	0.6566	0.93818	-0.259
Mof_H 	H 	0.3187	0.6699	0.9332	0.098
Mof_H 	H 	0.2841	0.6204	0.9332	0.119
Mof_N 	N 	0.35282	0.6301	0.98704	-0.173
Mof_H 	H 	0.3541	0.5965	0.9786	0.106
Mof_H 	H 	0.3779	0.6519	0.9781	0.081
Mof_N 	N 	0.60003	0.03035	0.69543	-0.255
Mof_H 	H 	0.6002	0.0509	0.6792	0.123
Mof_H 	H 	0.5774	0.0473	0.7082	0.114
Mof_N 	N 	0.512	0.00725	0.91276	-0.24
Mof_H 	H 	0.4799	0.9967	0.921	0.089
Mof_H 	H 	0.5041	0.0202	0.895	0.077
Mof_N 	N 	0.39553	0.66944	0.6615	-0.248
Mof_H 	H 	0.3753	0.6805	0.6462	0.14
Mof_H 	H 	0.3905	0.6326	0.6637	0.118
Mof_N 	N 	0.8434	0.9686	0.86309	-0.247
Mof_H 	H 	0.8767	0.9517	0.8638	0.104
Mof_H 	H 	0.8202	0.9456	0.8537	0.122
Mof_N 	N 	0.16333	0.0024	0.0329	-0.271
Mof_H 	H 	0.1943	0.0214	0.0374	0.161
Mof_H 	H 	0.1466	0.0207	0.0184	0.165
Mof_N 	N 	0.2408	0.95742	0.98718	-0.235
Mof_H 	H 	0.2238	0.9844	0.977	0.117
Mof_H 	H 	0.2703	0.9726	0.9961	0.116
Mof_N 	N 	0.29876	0.79274	0.14164	-0.241
Mof_H 	H 	0.2911	0.794	0.1607	0.086
Mof_H 	H 	0.3336	0.7796	0.1398	0.099
Mof_N 	N 	0.2676	0.68068	0.15349	-0.227
Mof_H 	H 	0.3048	0.6798	0.1554	0.09
Mof_H 	H 	0.2534	0.6915	0.1706	0.038
Mof_C 	C 	0.044	0.8602	0.94598	0.281
Mof_C 	C 	0.0251	0.8356	0.91989	-0.188
Mof_H 	H 	0.0569	0.8168	0.9111	0.07
Mof_C 	C 	0.0061	0.8825	0.89827	0.345
Mof_C 	C 	0.0023	0.897	0.95976	-0.581
Mof_H 	H 	0.0174	0.9124	0.9771	0.154
Mof_H 	H 	0.9696	0.876	0.9643	0.165
Mof_H 	H 	0.9928	0.9265	0.9467	0.184
Mof_C 	C 	0.1035	0.8923	0.94155	-0.514
Mof_H 	H 	0.1149	0.9085	0.9595	0.142
Mof_H 	H 	0.0994	0.9208	0.9273	0.174
Mof_H 	H 	0.1311	0.8662	0.9353	0.137
Mof_C 	C 	0.47627	0.88175	0.78229	0.325
Mof_C 	C 	0.42589	0.8571	0.79265	-0.232
Mof_H 	H 	0.4038	0.8466	0.7758	0.08
Mof_C 	C 	0.39	0.8962	0.81121	0.398
Mof_C 	C 	0.5155	0.903	0.8063	-0.567
Mof_H 	H 	0.5479	0.9192	0.7977	0.151
Mof_H 	H 	0.5263	0.8726	0.8184	0.171
Mof_H 	H 	0.4967	0.9305	0.8177	0.18
Mof_C 	C 	0.4685	0.9242	0.75892	-0.604
Mof_H 	H 	0.5038	0.9397	0.7538	0.164
Mof_H 	H 	0.4445	0.9531	0.7657	0.199
Mof_H 	H 	0.4522	0.9069	0.7423	0.165
Mof_C 	C 	0.1835	0.6671	0.9328	0.261
Mof_C 	C 	0.2418	0.6868	0.92137	-0.17
Mof_H 	H 	0.2463	0.7271	0.9227	0.061
Mof_C 	C 	0.2456	0.66545	0.88919	0.353
Mof_C 	C 	0.1763	0.6029	0.9321	-0.53
Mof_H 	H 	0.2084	0.5856	0.9404	0.159
Mof_H 	H 	0.1721	0.5908	0.9125	0.165
Mof_H 	H 	0.144	0.5928	0.943	0.139
Mof_C 	C 	0.1355	0.6993	0.91973	-0.556
Mof_H 	H 	0.1011	0.6848	0.927	0.156
Mof_H 	H 	0.1364	0.6956	0.8991	0.191
Mof_H 	H 	0.1387	0.7377	0.9249	0.152
Mof_C 	C 	0.3493	0.6744	0.03392	0.739
Mof_C 	C 	0.36837	0.6244	0.0154	-0.509
Mof_H 	H 	0.3589	0.5883	0.0237	0.822
Mof_C 	C 	0.4325	0.6356	0.0136	0.248
Mof_C 	C 	0.3761	0.726	0.02568	-0.938
Mof_H 	H 	0.3739	0.7305	0.0051	0.261
Mof_H 	H 	0.4143	0.7251	0.0315	0.257
Mof_H 	H 	0.3578	0.7565	0.035	0.241
Mof_C 	C 	0.3555	0.6688	0.06198	-1.156
Mof_H 	H 	0.3393	0.6344	0.0681	0.321
Mof_H 	H 	0.3374	0.699	0.0717	0.314
Mof_H 	H 	0.3943	0.669	0.0667	0.323
Mof_C 	C 	0.6588	0.9869	0.73144	0.294
Mof_C 	C 	0.6566	0.02942	0.70741	-0.174
Mof_H 	H 	0.6832	0.0196	0.6923	0.079
Mof_C 	C 	0.67103	0.0875	0.72002	0.318
Mof_C 	C 	0.6168	0.9994	0.75533	-0.571
Mof_H 	H 	0.6195	0.9715	0.7701	0.15
Mof_H 	H 	0.5801	0.9993	0.7474	0.167
Mof_H 	H 	0.6247	0.0351	0.7635	0.194
Mof_C 	C 	0.7157	0.9745	0.74421	-0.583
Mof_H 	H 	0.7121	0.947	0.7591	0.167
Mof_H 	H 	0.731	0.0078	0.7523	0.198
Mof_H 	H 	0.7398	0.9609	0.7293	0.172
Mof_C 	C 	0.6047	0.9767	0.89882	0.304
Mof_C 	C 	0.5483	0.9589	0.91007	-0.21
Mof_H 	H 	0.5536	0.9434	0.9294	0.076
Mof_C 	C 	0.5175	0.914	0.89131	0.432
Mof_C 	C 	0.6004	0.998	0.86905	-0.59
Mof_H 	H 	0.6365	0.0087	0.8623	0.157
Mof_H 	H 	0.5762	0.0297	0.8687	0.168
Mof_H 	H 	0.5856	0.9696	0.8567	0.182
Mof_C 	C 	0.6505	0.9298	0.90085	-0.573
Mof_H 	H 	0.6849	0.9435	0.8933	0.168
Mof_H 	H 	0.6389	0.8981	0.8898	0.198
Mof_H 	H 	0.6554	0.9192	0.9206	0.163
Mof_C 	C 	0.41173	0.6924	0.71181	0.479
Mof_C 	C 	0.3756	0.6981	0.68745	-0.274
Mof_H 	H 	0.3752	0.7377	0.6827	0.104
Mof_C 	C 	0.3152	0.6817	0.69259	0.348
Mof_C 	C 	0.4177	0.6335	0.71801	-0.759
Mof_H 	H 	0.4265	0.614	0.7006	0.227
Mof_H 	H 	0.3836	0.6194	0.7258	0.224
Mof_H 	H 	0.4469	0.6282	0.7318	0.198
Mof_C 	C 	0.3981	0.7228	0.73722	-0.812
Mof_H 	H 	0.3956	0.7616	0.7327	0.232
Mof_H 	H 	0.4264	0.7172	0.7515	0.224
Mof_H 	H 	0.3631	0.7102	0.7446	0.261
Mof_C 	C 	0.8013	0.0481	0.85144	0.388
Mof_C 	C 	0.8496	0.0174	0.84585	-0.245
Mof_H 	H 	0.8827	0.0382	0.8516	0.082
Mof_C 	C 	0.855	0.9962	0.81404	0.35
Mof_C 	C 	0.7488	0.0232	0.8409	-0.648
Mof_H 	H 	0.7185	0.048	0.8448	0.171
Mof_H 	H 	0.7425	0.9885	0.8506	0.191
Mof_H 	H 	0.7514	0.0169	0.8205	0.209
Mof_C 	C 	0.8024	0.1043	0.83769	-0.653
Mof_H 	H 	0.7678	0.1228	0.8411	0.181
Mof_H 	H 	0.8081	0.1004	0.8173	0.224
Mof_H 	H 	0.8321	0.1257	0.8458	0.18
Mof_C 	C 	0.083	0.9637	0.05176	0.326
Mof_C 	C 	0.12679	0.004	0.05763	-0.174
Mof_H 	H 	0.1471	0.9937	0.0751	0.086
Mof_C 	C 	0.1021	0.0616	0.06082	0.289
Mof_C 	C 	0.0463	0.97535	0.02655	-0.629
Mof_H 	H 	0.0193	0.9463	0.0247	0.164
Mof_H 	H 	0.0683	0.9771	0.0093	0.19
Mof_H 	H 	0.0278	0.0102	0.0294	0.208
Mof_C 	C 	0.0491	0.9541	0.07904	-0.592
Mof_H 	H 	0.0737	0.9469	0.0949	0.167
Mof_H 	H 	0.025	0.9229	0.0763	0.162
Mof_H 	H 	0.0274	0.9865	0.0831	0.199
Mof_C 	C 	0.2787	0.8666	0.98183	0.442
Mof_C 	C 	0.2592	0.9171	0.96837	-0.258
Mof_H 	H 	0.2276	0.9069	0.9561	0.08
Mof_C 	C 	0.3031	0.9425	0.9487	0.39
Mof_C 	C 	0.3261	0.8754	0.00066	-0.745
Mof_H 	H 	0.3181	0.9049	0.0139	0.222
Mof_H 	H 	0.358	0.885	0.9893	0.233
Mof_H 	H 	0.3336	0.842	0.0112	0.195
Mof_C 	C 	0.2866	0.8235	0.96037	-0.729
Mof_H 	H 	0.254	0.8209	0.9485	0.198
Mof_H 	H 	0.2929	0.7887	0.9698	0.194
Mof_H 	H 	0.318	0.8325	0.9485	0.231
Mof_C 	C 	0.2915	0.8514	0.09927	0.354
Mof_C 	C 	0.2985	0.8494	0.13091	-0.234
Mof_H 	H 	0.2663	0.868	0.1394	0.087
Mof_C 	C 	0.3477	0.8804	0.13976	0.345
Mof_C 	C 	0.3433	0.8303	0.08564	-0.6
Mof_H 	H 	0.3395	0.8313	0.065	0.148
Mof_H 	H 	0.3498	0.7928	0.0917	0.161
Mof_H 	H 	0.374	0.8531	0.0914	0.182
Mof_C 	C 	0.277	0.9051	0.08633	-0.666
Mof_H 	H 	0.2746	0.9012	0.0658	0.188
Mof_H 	H 	0.3049	0.932	0.091	0.221
Mof_H 	H 	0.2418	0.9173	0.0937	0.195
Mof_C 	C 	0.18971	0.6265	0.13809	0.443
Mof_C 	C 	0.2472	0.6215	0.14716	-0.282
Mof_H 	H 	0.2694	0.6051	0.1316	0.099
Mof_C 	C 	0.2525	0.5855	0.17516	0.443
Mof_C 	C 	0.1522	0.6468	0.15863	-0.779
Mof_H 	H 	0.1649	0.6821	0.1656	0.223
Mof_H 	H 	0.1498	0.6212	0.1744	0.242
Mof_H 	H 	0.1163	0.651	0.1499	0.204
Mof_C 	C 	0.1747	0.5699	0.12579	-0.688
Mof_H 	H 	0.1367	0.5701	0.1196	0.19
Mof_H 	H 	0.1797	0.5421	0.1404	0.229
Mof_H 	H 	0.1983	0.5618	0.1096	0.191
Mof_O 	O 	0.4133	0.8365	0.91502	-0.385
Mof_C 	C 	0.4392	0.8744	0.9371	0.458
Mof_C 	C 	0.4625	0.8289	0.9605	-0.622
Mof_H 	H 	0.4579	0.7922	0.9528	0.204
Mof_H 	H 	0.4422	0.8323	0.9782	0.181
Mof_H 	H 	0.5012	0.8357	0.964	0.194
Mof_O 	O 	0.4345	0.9163	0.9356	-0.496
Mof_La	La	0.53236	0.57099	0.04265	0.765
Mof_La	La	0.65052	0.22075	0.74193	-1.685
Mof_O 	O 	0.7195	0.1799	0.77837	-0.377
Mof_O 	O 	0.4573	0.6184	0.00247	-0.487
Mof_O 	O 	0.4435	0.585	0.04543	-0.073
Mof_H 	H 	0.3438	0.5947	0.0221	-0.698
Mof_C 	C 	0.4274	0.5996	0.02156	0.801
Mof_La	La	0.56581	0.63863	0.98385	-0.927
Mof_La	La	0.5424	0.5445	0.98922	-0.567
Mof_La	La	0.5544	0.617	0.01727	1.716
Mof_La	La	0.2713	0.6716	0.24071	3.768
Mof_La	La	0.3188	0.6433	0.23419	-1.96
Mof_Ag	Ag	0.78206	0.15908	0.02182	0.518
Mof_Ag	Ag	0.85399	0.61056	0.24913	0.538
Mof_Ag	Ag	0.81303	0.4988	0.28791	0.505
Mof_Ag	Ag	0.82843	0.05607	0.9777	0.525
Mof_Ag	Ag	0.77203	0.24295	0.96009	0.535
Mof_Ag	Ag	0.62538	0.21386	0.93845	0.52
Mof_Ag	Ag	0.09247	0.69996	0.09745	0.553
Mof_Ag	Ag	0.84889	0.14164	0.90744	0.514
Mof_Pd	Pd	0.74186	0.998	0.04495	0.476
Mof_Pd	Pd	0.66269	0.27653	0.0194	0.487
Mof_Pd	Pd	0.06834	0.54526	0.06386	0.462
Mof_Pd	Pd	0.68435	0.47602	0.34636	0.489
Mof_Pd	Pd	0.92759	0.18649	0.98203	0.468
Mof_Pd	Pd	0.73805	0.24832	0.87602	0.452
Mof_I 	I 	0.76345	0.62644	0.29053	-0.575
Mof_La	La	0.92071	0.38002	0.11428	1.679
Mof_S 	S 	0.80219	0.06069	0.03005	-0.424
Mof_S 	S 	0.82641	0.51481	0.23611	-0.43
Mof_S 	S 	0.68643	0.18939	0.02862	-0.413
Mof_S 	S 	0.67779	0.27552	0.97194	-0.482
Mof_S 	S 	0.92259	0.6369	0.28584	-0.416
Mof_S 	S 	0.03151	0.62653	0.07666	-0.429
Mof_S 	S 	0.71457	0.48055	0.30141	-0.448
Mof_S 	S 	0.06097	0.7939	0.11026	-0.443
Mof_S 	S 	0.89736	0.11811	0.95378	-0.413
Mof_S 	S 	0.84596	0.21944	0.99581	-0.454
Mof_S 	S 	0.80261	0.23346	0.90926	-0.428
Mof_S 	S 	0.67353	0.19084	0.89203	-0.449
Mof_O 	O 	0.89062	0.95656	0.10122	-0.3
Mof_O 	O 	0.90825	0.038	0.11586	-0.324
Mof_O 	O 	0.88507	0.39146	0.16288	-0.497
Mof_O 	O 	0.9364	0.3708	0.20107	-0.361
Mof_O 	O 	0.62354	0.26655	0.11732	-0.333
Mof_O 	O 	0.70155	0.2267	0.12604	-0.295
Mof_O 	O 	0.6535	0.4601	0.00707	-0.09
Mof_O 	O 	0.606	0.4537	0.96786	-0.913
Mof_O 	O 	0.1164	0.63159	0.27573	-0.169
Mof_O 	O 	0.0989	0.71931	0.28206	-0.263
Mof_O 	O 	0.92716	0.47901	0.12083	-0.515
Mof_O 	O 	0.86757	0.54323	0.10794	-0.311
Mof_O 	O 	0.63557	0.30034	0.31532	-0.299
Mof_O 	O 	0.7139	0.2861	0.29348	-0.29
Mof_O 	O 	0.9521	0.8362	0.19306	-0.313
Mof_O 	O 	0.0318	0.8714	0.20217	-0.296
Mof_O 	O 	0.0896	0.0943	0.95871	-0.146
Mof_O 	O 	0.0692	0.0916	0.91105	-0.244
Mof_O 	O 	0.98545	0.32545	0.04352	-0.281
Mof_O 	O 	0.91805	0.31335	0.07408	-0.488
Mof_O 	O 	0.85616	0.38817	0.85415	-0.307
Mof_O 	O 	0.93397	0.3418	0.85974	-0.292
Mof_O 	O 	0.61326	0.2667	0.80501	-0.381
Mof_O 	O 	0.53809	0.2542	0.82877	-0.347
Mof_N 	N 	0.79539	0.98373	0.07574	-0.253
Mof_H 	H 	0.7766	0.979	0.0924	0.101
Mof_H 	H 	0.8129	0.9516	0.0718	0.124
Mof_N 	N 	0.80682	0.43594	0.19051	-0.245
Mof_H 	H 	0.7867	0.4045	0.1902	0.112
Mof_H 	H 	0.8167	0.4436	0.1722	0.106
Mof_N 	N 	0.6566	0.2851	0.06182	-0.259
Mof_H 	H 	0.6699	0.3187	0.0668	0.098
Mof_H 	H 	0.6204	0.2841	0.0668	0.119
Mof_N 	N 	0.6301	0.35282	0.01296	-0.173
Mof_H 	H 	0.5965	0.3541	0.0214	0.106
Mof_H 	H 	0.6519	0.3779	0.0219	0.081
Mof_N 	N 	0.03035	0.60003	0.30457	-0.255
Mof_H 	H 	0.0509	0.6002	0.3208	0.123
Mof_H 	H 	0.0473	0.5774	0.2918	0.114
Mof_N 	N 	0.00725	0.512	0.08724	-0.24
Mof_H 	H 	0.9967	0.4799	0.079	0.089
Mof_H 	H 	0.0202	0.5041	0.105	0.077
Mof_N 	N 	0.66944	0.39553	0.3385	-0.248
Mof_H 	H 	0.6805	0.3753	0.3538	0.14
Mof_H 	H 	0.6326	0.3905	0.3363	0.118
Mof_N 	N 	0.9686	0.8434	0.13691	-0.247
Mof_H 	H 	0.9517	0.8767	0.1362	0.104
Mof_H 	H 	0.9456	0.8202	0.1463	0.122
Mof_N 	N 	0.0024	0.16333	0.9671	-0.271
Mof_H 	H 	0.0214	0.1943	0.9626	0.161
Mof_H 	H 	0.0207	0.1466	0.9816	0.165
Mof_N 	N 	0.95742	0.2408	0.01282	-0.235
Mof_H 	H 	0.9844	0.2238	0.023	0.117
Mof_H 	H 	0.9726	0.2703	0.0039	0.116
Mof_N 	N 	0.79274	0.29876	0.85836	-0.241
Mof_H 	H 	0.794	0.2911	0.8393	0.086
Mof_H 	H 	0.7796	0.3336	0.8602	0.099
Mof_N 	N 	0.68068	0.2676	0.84651	-0.227
Mof_H 	H 	0.6798	0.3048	0.8446	0.09
Mof_H 	H 	0.6915	0.2534	0.8294	0.038
Mof_C 	C 	0.8602	0.044	0.05402	0.281
Mof_C 	C 	0.8356	0.0251	0.08011	-0.188
Mof_H 	H 	0.8168	0.0569	0.0889	0.07
Mof_C 	C 	0.8825	0.0061	0.10173	0.345
Mof_C 	C 	0.897	0.0023	0.04024	-0.581
Mof_H 	H 	0.9124	0.0174	0.0229	0.154
Mof_H 	H 	0.876	0.9696	0.0357	0.165
Mof_H 	H 	0.9265	0.9928	0.0533	0.184
Mof_C 	C 	0.8923	0.1035	0.05845	-0.514
Mof_H 	H 	0.9085	0.1149	0.0405	0.142
Mof_H 	H 	0.9208	0.0994	0.0727	0.174
Mof_H 	H 	0.8662	0.1311	0.0647	0.137
Mof_C 	C 	0.88175	0.47627	0.21771	0.325
Mof_C 	C 	0.8571	0.42589	0.20735	-0.232
Mof_H 	H 	0.8466	0.4038	0.2242	0.08
Mof_C 	C 	0.8962	0.39	0.18879	0.398
Mof_C 	C 	0.903	0.5155	0.1937	-0.567
Mof_H 	H 	0.9192	0.5479	0.2023	0.151
Mof_H 	H 	0.8726	0.5263	0.1816	0.171
Mof_H 	H 	0.9305	0.4967	0.1823	0.18
Mof_C 	C 	0.9242	0.4685	0.24108	-0.604
Mof_H 	H 	0.9397	0.5038	0.2462	0.164
Mof_H 	H 	0.9531	0.4445	0.2343	0.199
Mof_H 	H 	0.9069	0.4522	0.2577	0.165
Mof_C 	C 	0.6671	0.1835	0.0672	0.261
Mof_C 	C 	0.6868	0.2418	0.07863	-0.17
Mof_H 	H 	0.7271	0.2463	0.0773	0.061
Mof_C 	C 	0.66545	0.2456	0.11081	0.353
Mof_C 	C 	0.6029	0.1763	0.0679	-0.53
Mof_H 	H 	0.5856	0.2084	0.0596	0.159
Mof_H 	H 	0.5908	0.1721	0.0875	0.165
Mof_H 	H 	0.5928	0.144	0.057	0.139
Mof_C 	C 	0.6993	0.1355	0.08027	-0.556
Mof_H 	H 	0.6848	0.1011	0.073	0.156
Mof_H 	H 	0.6956	0.1364	0.1009	0.191
Mof_H 	H 	0.7377	0.1387	0.0751	0.152
Mof_C 	C 	0.6744	0.3493	0.96608	0.739
Mof_C 	C 	0.6244	0.36837	0.9846	-0.509
Mof_H 	H 	0.5883	0.3589	0.9763	0.822
Mof_C 	C 	0.6356	0.4325	0.9864	0.248
Mof_C 	C 	0.726	0.3761	0.97432	-0.938
Mof_H 	H 	0.7305	0.3739	0.9949	0.261
Mof_H 	H 	0.7251	0.4143	0.9685	0.257
Mof_H 	H 	0.7565	0.3578	0.965	0.241
Mof_C 	C 	0.6688	0.3555	0.93802	-1.156
Mof_H 	H 	0.6344	0.3393	0.9319	0.321
Mof_H 	H 	0.699	0.3374	0.9283	0.314
Mof_H 	H 	0.669	0.3943	0.9333	0.323
Mof_C 	C 	0.9869	0.6588	0.26856	0.294
Mof_C 	C 	0.02942	0.6566	0.29259	-0.174
Mof_H 	H 	0.0196	0.6832	0.3077	0.079
Mof_C 	C 	0.0875	0.67103	0.27998	0.318
Mof_C 	C 	0.9994	0.6168	0.24467	-0.571
Mof_H 	H 	0.9715	0.6195	0.2299	0.15
Mof_H 	H 	0.9993	0.5801	0.2526	0.167
Mof_H 	H 	0.0351	0.6247	0.2365	0.194
Mof_C 	C 	0.9745	0.7157	0.25579	-0.583
Mof_H 	H 	0.947	0.7121	0.2409	0.167
Mof_H 	H 	0.0078	0.731	0.2477	0.198
Mof_H 	H 	0.9609	0.7398	0.2707	0.172
Mof_C 	C 	0.9767	0.6047	0.10118	0.304
Mof_C 	C 	0.9589	0.5483	0.08993	-0.21
Mof_H 	H 	0.9434	0.5536	0.0706	0.076
Mof_C 	C 	0.914	0.5175	0.10869	0.432
Mof_C 	C 	0.998	0.6004	0.13095	-0.59
Mof_H 	H 	0.0087	0.6365	0.1377	0.157
Mof_H 	H 	0.0297	0.5762	0.1313	0.168
Mof_H 	H 	0.9696	0.5856	0.1433	0.182
Mof_C 	C 	0.9298	0.6505	0.09915	-0.573
Mof_H 	H 	0.9435	0.6849	0.1067	0.168
Mof_H 	H 	0.8981	0.6389	0.1102	0.198
Mof_H 	H 	0.9192	0.6554	0.0794	0.163
Mof_C 	C 	0.6924	0.41173	0.28819	0.479
Mof_C 	C 	0.6981	0.3756	0.31255	-0.274
Mof_H 	H 	0.7377	0.3752	0.3173	0.104
Mof_C 	C 	0.6817	0.3152	0.30741	0.348
Mof_C 	C 	0.6335	0.4177	0.28199	-0.759
Mof_H 	H 	0.614	0.4265	0.2994	0.227
Mof_H 	H 	0.6194	0.3836	0.2742	0.224
Mof_H 	H 	0.6282	0.4469	0.2682	0.198
Mof_C 	C 	0.7228	0.3981	0.26278	-0.812
Mof_H 	H 	0.7616	0.3956	0.2673	0.232
Mof_H 	H 	0.7172	0.4264	0.2485	0.224
Mof_H 	H 	0.7102	0.3631	0.2554	0.261
Mof_C 	C 	0.0481	0.8013	0.14856	0.388
Mof_C 	C 	0.0174	0.8496	0.15415	-0.245
Mof_H 	H 	0.0382	0.8827	0.1484	0.082
Mof_C 	C 	0.9962	0.855	0.18596	0.35
Mof_C 	C 	0.0232	0.7488	0.1591	-0.648
Mof_H 	H 	0.048	0.7185	0.1552	0.171
Mof_H 	H 	0.9885	0.7425	0.1494	0.191
Mof_H 	H 	0.0169	0.7514	0.1795	0.209
Mof_C 	C 	0.1043	0.8024	0.16231	-0.653
Mof_H 	H 	0.1228	0.7678	0.1589	0.181
Mof_H 	H 	0.1004	0.8081	0.1827	0.224
Mof_H 	H 	0.1257	0.8321	0.1542	0.18
Mof_C 	C 	0.9637	0.083	0.94824	0.326
Mof_C 	C 	0.004	0.12679	0.94237	-0.174
Mof_H 	H 	0.9937	0.1471	0.9249	0.086
Mof_C 	C 	0.0616	0.1021	0.93918	0.289
Mof_C 	C 	0.97535	0.0463	0.97345	-0.629
Mof_H 	H 	0.9463	0.0193	0.9753	0.164
Mof_H 	H 	0.9771	0.0683	0.9907	0.19
Mof_H 	H 	0.0102	0.0278	0.9706	0.208
Mof_C 	C 	0.9541	0.0491	0.92096	-0.592
Mof_H 	H 	0.9469	0.0737	0.9051	0.167
Mof_H 	H 	0.9229	0.025	0.9237	0.162
Mof_H 	H 	0.9865	0.0274	0.9169	0.199
Mof_C 	C 	0.8666	0.2787	0.01817	0.442
Mof_C 	C 	0.9171	0.2592	0.03163	-0.258
Mof_H 	H 	0.9069	0.2276	0.0439	0.08
Mof_C 	C 	0.9425	0.3031	0.0513	0.39
Mof_C 	C 	0.8754	0.3261	0.99934	-0.745
Mof_H 	H 	0.9049	0.3181	0.9861	0.222
Mof_H 	H 	0.885	0.358	0.0107	0.233
Mof_H 	H 	0.842	0.3336	0.9888	0.195
Mof_C 	C 	0.8235	0.2866	0.03963	-0.729
Mof_H 	H 	0.8209	0.254	0.0515	0.198
Mof_H 	H 	0.7887	0.2929	0.0302	0.194
Mof_H 	H 	0.8325	0.318	0.0515	0.231
Mof_C 	C 	0.8514	0.2915	0.90073	0.354
Mof_C 	C 	0.8494	0.2985	0.86909	-0.234
Mof_H 	H 	0.868	0.2663	0.8606	0.087
Mof_C 	C 	0.8804	0.3477	0.86024	0.345
Mof_C 	C 	0.8303	0.3433	0.91436	-0.6
Mof_H 	H 	0.8313	0.3395	0.935	0.148
Mof_H 	H 	0.7928	0.3498	0.9083	0.161
Mof_H 	H 	0.8531	0.374	0.9086	0.182
Mof_C 	C 	0.9051	0.277	0.91367	-0.666
Mof_H 	H 	0.9012	0.2746	0.9342	0.188
Mof_H 	H 	0.932	0.3049	0.909	0.221
Mof_H 	H 	0.9173	0.2418	0.9063	0.195
Mof_C 	C 	0.6265	0.18971	0.86191	0.443
Mof_C 	C 	0.6215	0.2472	0.85284	-0.282
Mof_H 	H 	0.6051	0.2694	0.8684	0.099
Mof_C 	C 	0.5855	0.2525	0.82484	0.443
Mof_C 	C 	0.6468	0.1522	0.84137	-0.779
Mof_H 	H 	0.6821	0.1649	0.8344	0.223
Mof_H 	H 	0.6212	0.1498	0.8256	0.242
Mof_H 	H 	0.651	0.1163	0.8501	0.204
Mof_C 	C 	0.5699	0.1747	0.87421	-0.688
Mof_H 	H 	0.5701	0.1367	0.8804	0.19
Mof_H 	H 	0.5421	0.1797	0.8596	0.229
Mof_H 	H 	0.5618	0.1983	0.8904	0.191
Mof_O 	O 	0.8365	0.4133	0.08498	-0.385
Mof_C 	C 	0.8744	0.4392	0.0629	0.458
Mof_C 	C 	0.8289	0.4625	0.0395	-0.622
Mof_H 	H 	0.7922	0.4579	0.0472	0.204
Mof_H 	H 	0.8323	0.4422	0.0218	0.181
Mof_H 	H 	0.8357	0.5012	0.036	0.194
Mof_O 	O 	0.9163	0.4345	0.0644	-0.496
Mof_La	La	0.57099	0.53236	0.95735	0.765
Mof_La	La	0.22075	0.65052	0.25807	-1.685
Mof_O 	O 	0.1799	0.7195	0.22163	-0.377
Mof_O 	O 	0.6184	0.4573	0.99753	-0.487
Mof_O 	O 	0.585	0.4435	0.95457	-0.073
Mof_H 	H 	0.5947	0.3438	0.9779	-0.698
Mof_C 	C 	0.5996	0.4274	0.97844	0.801
Mof_La	La	0.63863	0.56581	0.01615	-0.927
Mof_La	La	0.5445	0.5424	0.01078	-0.567
Mof_La	La	0.617	0.5544	0.98273	1.716
Mof_La	La	0.6716	0.2713	0.75929	3.768
Mof_La	La	0.6433	0.3188	0.76581	-1.96
Mof_Ag	Ag	0.21794	0.84092	0.52182	0.518
Mof_Ag	Ag	0.14601	0.38944	0.74913	0.538
Mof_Ag	Ag	0.18697	0.5012	0.78791	0.505
Mof_Ag	Ag	0.17157	0.94393	0.4777	0.525
Mof_Ag	Ag	0.22797	0.75705	0.46009	0.535
Mof_Ag	Ag	0.37462	0.78614	0.43845	0.52
Mof_Ag	Ag	0.90753	0.30004	0.59745	0.553
Mof_Ag	Ag	0.15111	0.85836	0.40744	0.514
Mof_Pd	Pd	0.25814	0.002	0.54495	0.476
Mof_Pd	Pd	0.33731	0.72347	0.5194	0.487
Mof_Pd	Pd	0.93166	0.45474	0.56386	0.462
Mof_Pd	Pd	0.31565	0.52398	0.84636	0.489
Mof_Pd	Pd	0.07241	0.81351	0.48203	0.468
Mof_Pd	Pd	0.26195	0.75168	0.37602	0.452
Mof_I 	I 	0.23655	0.37356	0.79053	-0.575
Mof_La	La	0.0793	0.61998	0.61428	1.679
Mof_S 	S 	0.19781	0.93931	0.53005	-0.424
Mof_S 	S 	0.17359	0.48519	0.73611	-0.43
Mof_S 	S 	0.31357	0.81061	0.52862	-0.413
Mof_S 	S 	0.32221	0.72448	0.47194	-0.482
Mof_S 	S 	0.07741	0.3631	0.78584	-0.416
Mof_S 	S 	0.96849	0.37347	0.57666	-0.429
Mof_S 	S 	0.28543	0.51945	0.80141	-0.448
Mof_S 	S 	0.93903	0.2061	0.61026	-0.444
Mof_S 	S 	0.10264	0.88189	0.45378	-0.413
Mof_S 	S 	0.15404	0.78056	0.49581	-0.454
Mof_S 	S 	0.19739	0.76654	0.40926	-0.428
Mof_S 	S 	0.32647	0.80916	0.39203	-0.449
Mof_O 	O 	0.10938	0.04344	0.60122	-0.3
Mof_O 	O 	0.09175	0.962	0.61586	-0.324
Mof_O 	O 	0.11493	0.60854	0.66288	-0.497
Mof_O 	O 	0.0636	0.6292	0.70107	-0.361
Mof_O 	O 	0.37646	0.73345	0.61732	-0.333
Mof_O 	O 	0.29845	0.7733	0.62604	-0.295
Mof_O 	O 	0.3465	0.5399	0.50707	-0.09
Mof_O 	O 	0.394	0.5463	0.46786	-0.913
Mof_O 	O 	0.8836	0.36841	0.77573	-0.169
Mof_O 	O 	0.9011	0.28069	0.78206	-0.263
Mof_O 	O 	0.07284	0.52099	0.62083	-0.515
Mof_O 	O 	0.13243	0.45677	0.60794	-0.311
Mof_O 	O 	0.36443	0.69966	0.81532	-0.299
Mof_O 	O 	0.2861	0.7139	0.79348	-0.29
Mof_O 	O 	0.0479	0.1638	0.69306	-0.313
Mof_O 	O 	0.9682	0.1286	0.70217	-0.296
Mof_O 	O 	0.9104	0.9057	0.45871	-0.146
Mof_O 	O 	0.9308	0.9084	0.41105	-0.244
Mof_O 	O 	0.01455	0.67455	0.54352	-0.281
Mof_O 	O 	0.08195	0.68665	0.57408	-0.488
Mof_O 	O 	0.14384	0.61183	0.35415	-0.307
Mof_O 	O 	0.06603	0.6582	0.35974	-0.292
Mof_O 	O 	0.38674	0.7333	0.30501	-0.381
Mof_O 	O 	0.46191	0.7458	0.32877	-0.347
Mof_N 	N 	0.20461	0.01627	0.57574	-0.253
Mof_H 	H 	0.2234	0.021	0.5924	0.101
Mof_H 	H 	0.1871	0.0484	0.5718	0.124
Mof_N 	N 	0.19318	0.56406	0.69051	-0.245
Mof_H 	H 	0.2133	0.5955	0.6902	0.112
Mof_H 	H 	0.1833	0.5564	0.6722	0.106
Mof_N 	N 	0.3434	0.7149	0.56182	-0.259
Mof_H 	H 	0.3301	0.6813	0.5668	0.098
Mof_H 	H 	0.3796	0.7159	0.5668	0.119
Mof_N 	N 	0.3699	0.64718	0.51296	-0.173
Mof_H 	H 	0.4035	0.6459	0.5214	0.106
Mof_H 	H 	0.3481	0.6221	0.5219	0.081
Mof_N 	N 	0.96965	0.39997	0.80457	-0.255
Mof_H 	H 	0.9491	0.3998	0.8208	0.123
Mof_H 	H 	0.9527	0.4226	0.7918	0.114
Mof_N 	N 	0.99275	0.488	0.58724	-0.24
Mof_H 	H 	0.0033	0.5201	0.579	0.089
Mof_H 	H 	0.9798	0.4959	0.605	0.077
Mof_N 	N 	0.33056	0.60447	0.8385	-0.248
Mof_H 	H 	0.3195	0.6247	0.8538	0.14
Mof_H 	H 	0.3674	0.6095	0.8363	0.118
Mof_N 	N 	0.0314	0.1566	0.63691	-0.247
Mof_H 	H 	0.0483	0.1233	0.6362	0.104
Mof_H 	H 	0.0544	0.1798	0.6463	0.122
Mof_N 	N 	0.9976	0.83667	0.4671	-0.271
Mof_H 	H 	0.9786	0.8057	0.4626	0.161
Mof_H 	H 	0.9793	0.8534	0.4816	0.165
Mof_N 	N 	0.04258	0.7592	0.51282	-0.235
Mof_H 	H 	0.0156	0.7762	0.523	0.117
Mof_H 	H 	0.0274	0.7297	0.5039	0.116
Mof_N 	N 	0.20726	0.70124	0.35836	-0.241
Mof_H 	H 	0.206	0.7089	0.3393	0.086
Mof_H 	H 	0.2204	0.6664	0.3602	0.099
Mof_N 	N 	0.31932	0.7324	0.34651	-0.227
Mof_H 	H 	0.3202	0.6952	0.3446	0.09
Mof_H 	H 	0.3085	0.7466	0.3294	0.038
Mof_C 	C 	0.1398	0.956	0.55402	0.281
Mof_C 	C 	0.1644	0.9749	0.58011	-0.188
Mof_H 	H 	0.1832	0.9431	0.5889	0.07
Mof_C 	C 	0.1175	0.9939	0.60173	0.345
Mof_C 	C 	0.103	0.9977	0.54024	-0.581
Mof_H 	H 	0.0876	0.9826	0.5229	0.153
Mof_H 	H 	0.124	0.0304	0.5357	0.165
Mof_H 	H 	0.0735	0.0072	0.5533	0.184
Mof_C 	C 	0.1077	0.8965	0.55845	-0.514
Mof_H 	H 	0.0915	0.8851	0.5405	0.142
Mof_H 	H 	0.0792	0.9006	0.5727	0.174
Mof_H 	H 	0.1338	0.8689	0.5647	0.137
Mof_C 	C 	0.11825	0.52373	0.71771	0.325
Mof_C 	C 	0.1429	0.57411	0.70735	-0.232
Mof_H 	H 	0.1534	0.5962	0.7242	0.08
Mof_C 	C 	0.1038	0.61	0.68879	0.398
Mof_C 	C 	0.097	0.4845	0.6937	-0.567
Mof_H 	H 	0.0808	0.4521	0.7023	0.151
Mof_H 	H 	0.1274	0.4737	0.6816	0.171
Mof_H 	H 	0.0695	0.5033	0.6823	0.18
Mof_C 	C 	0.0758	0.5315	0.74108	-0.604
Mof_H 	H 	0.0603	0.4962	0.7462	0.164
Mof_H 	H 	0.0469	0.5555	0.7343	0.199
Mof_H 	H 	0.0931	0.5478	0.7577	0.165
Mof_C 	C 	0.3329	0.8165	0.5672	0.261
Mof_C 	C 	0.3132	0.7582	0.57863	-0.17
Mof_H 	H 	0.2729	0.7537	0.5773	0.061
Mof_C 	C 	0.33455	0.7544	0.61081	0.353
Mof_C 	C 	0.3971	0.8237	0.5679	-0.53
Mof_H 	H 	0.4144	0.7916	0.5596	0.159
Mof_H 	H 	0.4092	0.8279	0.5875	0.165
Mof_H 	H 	0.4072	0.856	0.557	0.139
Mof_C 	C 	0.3007	0.8645	0.58027	-0.556
Mof_H 	H 	0.3152	0.8989	0.573	0.156
Mof_H 	H 	0.3044	0.8636	0.6009	0.191
Mof_H 	H 	0.2623	0.8613	0.5751	0.152
Mof_C 	C 	0.3256	0.6507	0.46608	0.739
Mof_C 	C 	0.3756	0.63163	0.4846	-0.509
Mof_H 	H 	0.4117	0.6411	0.4763	0.822
Mof_C 	C 	0.3644	0.5675	0.4864	0.248
Mof_C 	C 	0.274	0.6239	0.47432	-0.938
Mof_H 	H 	0.2695	0.6261	0.4949	0.261
Mof_H 	H 	0.2749	0.5857	0.4685	0.257
Mof_H 	H 	0.2435	0.6422	0.465	0.241
Mof_C 	C 	0.3312	0.6445	0.43802	-1.156
Mof_H 	H 	0.3656	0.6607	0.4319	0.321
Mof_H 	H 	0.301	0.6626	0.4283	0.314
Mof_H 	H 	0.331	0.6057	0.4333	0.323
Mof_C 	C 	0.0131	0.3412	0.76856	0.294
Mof_C 	C 	0.97058	0.3434	0.79259	-0.174
Mof_H 	H 	0.9804	0.3168	0.8077	0.079
Mof_C 	C 	0.9125	0.32897	0.77998	0.318
Mof_C 	C 	0.0006	0.3832	0.74467	-0.571
Mof_H 	H 	0.0285	0.3805	0.7299	0.15
Mof_H 	H 	0.0007	0.4199	0.7526	0.167
Mof_H 	H 	0.9649	0.3753	0.7365	0.194
Mof_C 	C 	0.0255	0.2843	0.75579	-0.583
Mof_H 	H 	0.053	0.2879	0.7409	0.167
Mof_H 	H 	0.9922	0.269	0.7477	0.198
Mof_H 	H 	0.0391	0.2602	0.7707	0.172
Mof_C 	C 	0.0233	0.3953	0.60118	0.304
Mof_C 	C 	0.0411	0.4517	0.58993	-0.21
Mof_H 	H 	0.0566	0.4464	0.5706	0.076
Mof_C 	C 	0.086	0.4825	0.60869	0.432
Mof_C 	C 	0.002	0.3996	0.63095	-0.59
Mof_H 	H 	0.9913	0.3635	0.6377	0.157
Mof_H 	H 	0.9703	0.4238	0.6313	0.168
Mof_H 	H 	0.0304	0.4144	0.6433	0.182
Mof_C 	C 	0.0702	0.3495	0.59915	-0.573
Mof_H 	H 	0.0565	0.3151	0.6067	0.168
Mof_H 	H 	0.1019	0.3611	0.6102	0.198
Mof_H 	H 	0.0808	0.3446	0.5794	0.163
Mof_C 	C 	0.3076	0.58827	0.78819	0.479
Mof_C 	C 	0.3019	0.6244	0.81255	-0.274
Mof_H 	H 	0.2623	0.6248	0.8173	0.104
Mof_C 	C 	0.3183	0.6848	0.80741	0.348
Mof_C 	C 	0.3665	0.5823	0.78199	-0.759
Mof_H 	H 	0.386	0.5735	0.7994	0.227
Mof_H 	H 	0.3806	0.6164	0.7742	0.224
Mof_H 	H 	0.3718	0.5531	0.7682	0.198
Mof_C 	C 	0.2772	0.6019	0.76278	-0.812
Mof_H 	H 	0.2384	0.6044	0.7673	0.232
Mof_H 	H 	0.2828	0.5736	0.7485	0.224
Mof_H 	H 	0.2898	0.6369	0.7554	0.261
Mof_C 	C 	0.9519	0.1987	0.64856	0.388
Mof_C 	C 	0.9826	0.1504	0.65415	-0.245
Mof_H 	H 	0.9618	0.1173	0.6484	0.082
Mof_C 	C 	0.0038	0.145	0.68596	0.35
Mof_C 	C 	0.9768	0.2512	0.6591	-0.648
Mof_H 	H 	0.952	0.2815	0.6552	0.171
Mof_H 	H 	0.0115	0.2575	0.6494	0.191
Mof_H 	H 	0.9831	0.2486	0.6795	0.209
Mof_C 	C 	0.8957	0.1976	0.66231	-0.653
Mof_H 	H 	0.8772	0.2322	0.6589	0.181
Mof_H 	H 	0.8996	0.1919	0.6827	0.224
Mof_H 	H 	0.8743	0.1679	0.6542	0.18
Mof_C 	C 	0.0363	0.917	0.44824	0.326
Mof_C 	C 	0.996	0.87321	0.44237	-0.174
Mof_H 	H 	0.0063	0.8529	0.4249	0.086
Mof_C 	C 	0.9384	0.8979	0.43918	0.289
Mof_C 	C 	0.02465	0.9537	0.47345	-0.629
Mof_H 	H 	0.0537	0.9807	0.4753	0.164
Mof_H 	H 	0.0229	0.9317	0.4907	0.19
Mof_H 	H 	0.9898	0.9722	0.4706	0.208
Mof_C 	C 	0.0459	0.9509	0.42096	-0.592
Mof_H 	H 	0.0531	0.9263	0.4051	0.167
Mof_H 	H 	0.0771	0.975	0.4237	0.162
Mof_H 	H 	0.0135	0.9726	0.4169	0.199
Mof_C 	C 	0.1334	0.7213	0.51817	0.442
Mof_C 	C 	0.0829	0.7408	0.53163	-0.259
Mof_H 	H 	0.0931	0.7724	0.5439	0.08
Mof_C 	C 	0.0575	0.6969	0.5513	0.39
Mof_C 	C 	0.1246	0.6739	0.49934	-0.745
Mof_H 	H 	0.0951	0.6819	0.4861	0.222
Mof_H 	H 	0.115	0.642	0.5107	0.233
Mof_H 	H 	0.158	0.6664	0.4888	0.195
Mof_C 	C 	0.1765	0.7134	0.53963	-0.729
Mof_H 	H 	0.1791	0.746	0.5515	0.198
Mof_H 	H 	0.2113	0.7071	0.5302	0.194
Mof_H 	H 	0.1675	0.682	0.5515	0.231
Mof_C 	C 	0.1486	0.7085	0.40073	0.354
Mof_C 	C 	0.1506	0.7015	0.36909	-0.234
Mof_H 	H 	0.132	0.7337	0.3606	0.087
Mof_C 	C 	0.1196	0.6523	0.36024	0.345
Mof_C 	C 	0.1697	0.6567	0.41436	-0.6
Mof_H 	H 	0.1687	0.6605	0.435	0.148
Mof_H 	H 	0.2072	0.6502	0.4083	0.161
Mof_H 	H 	0.1469	0.626	0.4086	0.182
Mof_C 	C 	0.0949	0.723	0.41367	-0.666
Mof_H 	H 	0.0988	0.7254	0.4342	0.188
Mof_H 	H 	0.068	0.6951	0.409	0.221
Mof_H 	H 	0.0827	0.7582	0.4063	0.195
Mof_C 	C 	0.3735	0.81029	0.36191	0.443
Mof_C 	C 	0.3785	0.7528	0.35284	-0.282
Mof_H 	H 	0.3949	0.7306	0.3684	0.099
Mof_C 	C 	0.4145	0.7475	0.32484	0.443
Mof_C 	C 	0.3532	0.8478	0.34137	-0.779
Mof_H 	H 	0.3179	0.8351	0.3344	0.223
Mof_H 	H 	0.3788	0.8502	0.3256	0.242
Mof_H 	H 	0.349	0.8837	0.3501	0.204
Mof_C 	C 	0.4301	0.8253	0.37421	-0.688
Mof_H 	H 	0.4299	0.8633	0.3804	0.19
Mof_H 	H 	0.4579	0.8203	0.3596	0.229
Mof_H 	H 	0.4382	0.8017	0.3904	0.191
Mof_O 	O 	0.1635	0.5867	0.58498	-0.385
Mof_C 	C 	0.1256	0.5608	0.5629	0.458
Mof_C 	C 	0.1711	0.5375	0.5395	-0.622
Mof_H 	H 	0.2078	0.5421	0.5472	0.204
Mof_H 	H 	0.1677	0.5578	0.5218	0.181
Mof_H 	H 	0.1643	0.4988	0.536	0.194
Mof_O 	O 	0.0837	0.5655	0.5644	-0.496
Mof_La	La	0.42901	0.46764	0.45735	0.765
Mof_La	La	0.77925	0.34948	0.75807	-1.685
Mof_O 	O 	0.8201	0.2805	0.72163	-0.377
Mof_O 	O 	0.3816	0.5427	0.49753	-0.487
Mof_O 	O 	0.415	0.5565	0.45457	-0.073
Mof_H 	H 	0.4053	0.6562	0.4779	-0.698
Mof_C 	C 	0.4004	0.5726	0.47844	0.801
Mof_La	La	0.36137	0.43419	0.51615	-0.927
Mof_La	La	0.4555	0.4576	0.51078	-0.567
Mof_La	La	0.383	0.4456	0.48273	1.716
Mof_La	La	0.3284	0.7287	0.25929	3.768
Mof_La	La	0.3567	0.6812	0.26581	-1.96
Mof_Ag	Ag	0.65908	0.71794	0.77182	0.518
Mof_Ag	Ag	0.11056	0.64601	0.99913	0.538
Mof_Ag	Ag	0.9988	0.68697	0.03791	0.504
Mof_Ag	Ag	0.55607	0.67157	0.7277	0.525
Mof_Ag	Ag	0.74295	0.72797	0.71009	0.535
Mof_Ag	Ag	0.71386	0.87462	0.68845	0.52
Mof_Ag	Ag	0.19996	0.40753	0.84745	0.553
Mof_Ag	Ag	0.64164	0.65111	0.65744	0.514
Mof_Pd	Pd	0.498	0.75814	0.79495	0.476
Mof_Pd	Pd	0.77653	0.83731	0.7694	0.487
Mof_Pd	Pd	0.04526	0.43166	0.81386	0.461
Mof_Pd	Pd	0.97602	0.81565	0.09636	0.489
Mof_Pd	Pd	0.68649	0.57241	0.73203	0.468
Mof_Pd	Pd	0.74832	0.76195	0.62602	0.452
Mof_I 	I 	0.12644	0.73655	0.04053	-0.575
Mof_La	La	0.88002	0.5793	0.86428	1.679
Mof_S 	S 	0.56069	0.69781	0.78005	-0.424
Mof_S 	S 	0.01481	0.67359	0.98611	-0.43
Mof_S 	S 	0.68939	0.81357	0.77862	-0.413
Mof_S 	S 	0.77552	0.82221	0.72194	-0.482
Mof_S 	S 	0.1369	0.57741	0.03584	-0.416
Mof_S 	S 	0.12653	0.46849	0.82666	-0.429
Mof_S 	S 	0.98055	0.78543	0.05141	-0.448
Mof_S 	S 	0.2939	0.43903	0.86026	-0.444
Mof_S 	S 	0.61811	0.60264	0.70378	-0.413
Mof_S 	S 	0.71944	0.65404	0.74581	-0.454
Mof_S 	S 	0.73346	0.69739	0.65926	-0.428
Mof_S 	S 	0.69084	0.82647	0.64203	-0.449
Mof_O 	O 	0.45656	0.60938	0.85122	-0.301
Mof_O 	O 	0.538	0.59175	0.86586	-0.324
Mof_O 	O 	0.89146	0.61493	0.91288	-0.497
Mof_O 	O 	0.8708	0.5636	0.95107	-0.361
Mof_O 	O 	0.76655	0.87646	0.86732	-0.333
Mof_O 	O 	0.7267	0.79845	0.87604	-0.294
Mof_O 	O 	0.9601	0.8465	0.75707	-0.09
Mof_O 	O 	0.9537	0.894	0.71786	-0.913
Mof_O 	O 	0.13159	0.3836	0.02573	-0.169
Mof_O 	O 	0.21931	0.4011	0.03206	-0.263
Mof_O 	O 	0.97901	0.57284	0.87083	-0.514
Mof_O 	O 	0.04323	0.63243	0.85794	-0.311
Mof_O 	O 	0.80034	0.86443	0.06532	-0.299
Mof_O 	O 	0.7861	0.7861	0.04348	-0.29
Mof_O 	O 	0.3362	0.5479	0.94306	-0.313
Mof_O 	O 	0.3714	0.4682	0.95217	-0.296
Mof_O 	O 	0.5943	0.4104	0.70871	-0.147
Mof_O 	O 	0.5916	0.4308	0.66105	-0.244
Mof_O 	O 	0.82545	0.51455	0.79352	-0.281
Mof_O 	O 	0.81335	0.58195	0.82408	-0.488
Mof_O 	O 	0.88817	0.64384	0.60415	-0.306
Mof_O 	O 	0.8418	0.56603	0.60974	-0.292
Mof_O 	O 	0.7667	0.88674	0.55501	-0.381
Mof_O 	O 	0.7542	0.96191	0.57877	-0.347
Mof_N 	N 	0.48373	0.70461	0.82574	-0.253
Mof_H 	H 	0.479	0.7234	0.8424	0.101
Mof_H 	H 	0.4516	0.6871	0.8218	0.124
Mof_N 	N 	0.93594	0.69318	0.94051	-0.245
Mof_H 	H 	0.9045	0.7133	0.9402	0.112
Mof_H 	H 	0.9436	0.6833	0.9222	0.106
Mof_N 	N 	0.7851	0.8434	0.81182	-0.259
Mof_H 	H 	0.8187	0.8301	0.8168	0.098
Mof_H 	H 	0.7841	0.8796	0.8168	0.119
Mof_N 	N 	0.85282	0.8699	0.76296	-0.173
Mof_H 	H 	0.8541	0.9035	0.7714	0.106
Mof_H 	H 	0.8779	0.8481	0.7719	0.081
Mof_N 	N 	0.10003	0.46965	0.05457	-0.255
Mof_H 	H 	0.1002	0.4491	0.0708	0.123
Mof_H 	H 	0.0774	0.4527	0.0418	0.114
Mof_N 	N 	0.012	0.49275	0.83724	-0.24
Mof_H 	H 	0.9799	0.5033	0.829	0.089
Mof_H 	H 	0.0041	0.4798	0.855	0.077
Mof_N 	N 	0.89553	0.83056	0.0885	-0.248
Mof_H 	H 	0.8753	0.8195	0.1038	0.14
Mof_H 	H 	0.8905	0.8674	0.0863	0.118
Mof_N 	N 	0.3434	0.5314	0.88691	-0.247
Mof_H 	H 	0.3767	0.5483	0.8862	0.104
Mof_H 	H 	0.3202	0.5544	0.8963	0.122
Mof_N 	N 	0.66333	0.4976	0.7171	-0.271
Mof_H 	H 	0.6943	0.4786	0.7126	0.161
Mof_H 	H 	0.6466	0.4793	0.7316	0.165
Mof_N 	N 	0.7408	0.54258	0.76282	-0.235
Mof_H 	H 	0.7238	0.5156	0.773	0.118
Mof_H 	H 	0.7703	0.5274	0.7539	0.116
Mof_N 	N 	0.79876	0.70726	0.60836	-0.241
Mof_H 	H 	0.7911	0.706	0.5893	0.086
Mof_H 	H 	0.8336	0.7204	0.6102	0.099
Mof_N 	N 	0.7676	0.81932	0.59651	-0.227
Mof_H 	H 	0.8048	0.8202	0.5946	0.09
Mof_H 	H 	0.7534	0.8085	0.5794	0.038
Mof_C 	C 	0.544	0.6398	0.80402	0.281
Mof_C 	C 	0.5251	0.6644	0.83011	-0.188
Mof_H 	H 	0.5569	0.6832	0.8389	0.07
Mof_C 	C 	0.5061	0.6175	0.85173	0.345
Mof_C 	C 	0.5023	0.603	0.79024	-0.58
Mof_H 	H 	0.5174	0.5876	0.7729	0.153
Mof_H 	H 	0.4696	0.624	0.7857	0.165
Mof_H 	H 	0.4928	0.5735	0.8033	0.184
Mof_C 	C 	0.6035	0.6077	0.80845	-0.514
Mof_H 	H 	0.6149	0.5915	0.7905	0.142
Mof_H 	H 	0.5994	0.5792	0.8227	0.174
Mof_H 	H 	0.6311	0.6338	0.8147	0.137
Mof_C 	C 	0.97627	0.61825	0.96771	0.325
Mof_C 	C 	0.92589	0.6429	0.95735	-0.232
Mof_H 	H 	0.9038	0.6534	0.9742	0.08
Mof_C 	C 	0.89	0.6038	0.93879	0.398
Mof_C 	C 	0.0155	0.597	0.9437	-0.567
Mof_H 	H 	0.0479	0.5808	0.9523	0.151
Mof_H 	H 	0.0263	0.6274	0.9316	0.171
Mof_H 	H 	0.9967	0.5695	0.9323	0.18
Mof_C 	C 	0.9685	0.5758	0.99108	-0.604
Mof_H 	H 	0.0038	0.5603	0.9962	0.165
Mof_H 	H 	0.9445	0.5469	0.9843	0.199
Mof_H 	H 	0.9522	0.5931	0.0077	0.165
Mof_C 	C 	0.6835	0.8329	0.8172	0.261
Mof_C 	C 	0.7418	0.8132	0.82863	-0.17
Mof_H 	H 	0.7463	0.7729	0.8273	0.061
Mof_C 	C 	0.7456	0.83455	0.86081	0.353
Mof_C 	C 	0.6763	0.8971	0.8179	-0.53
Mof_H 	H 	0.7084	0.9144	0.8096	0.159
Mof_H 	H 	0.6721	0.9092	0.8375	0.165
Mof_H 	H 	0.644	0.9072	0.807	0.139
Mof_C 	C 	0.6355	0.8007	0.83027	-0.556
Mof_H 	H 	0.6011	0.8152	0.823	0.156
Mof_H 	H 	0.6364	0.8044	0.8509	0.191
Mof_H 	H 	0.6387	0.7623	0.8251	0.152
Mof_C 	C 	0.8493	0.8256	0.71608	0.739
Mof_C 	C 	0.86837	0.8756	0.7346	-0.509
Mof_H 	H 	0.8589	0.9117	0.7263	0.821
Mof_C 	C 	0.9325	0.8644	0.7364	0.248
Mof_C 	C 	0.8761	0.774	0.72432	-0.938
Mof_H 	H 	0.8739	0.7695	0.7449	0.261
Mof_H 	H 	0.9143	0.7749	0.7185	0.257
Mof_H 	H 	0.8578	0.7435	0.715	0.241
Mof_C 	C 	0.8555	0.8312	0.68802	-1.157
Mof_H 	H 	0.8393	0.8656	0.6819	0.321
Mof_H 	H 	0.8374	0.801	0.6783	0.314
Mof_H 	H 	0.8943	0.831	0.6833	0.324
Mof_C 	C 	0.1588	0.5131	0.01856	0.294
Mof_C 	C 	0.1566	0.47058	0.04259	-0.174
Mof_H 	H 	0.1832	0.4804	0.0577	0.079
Mof_C 	C 	0.17103	0.4125	0.02998	0.318
Mof_C 	C 	0.1168	0.5006	0.99467	-0.57
Mof_H 	H 	0.1195	0.5285	0.9799	0.15
Mof_H 	H 	0.0801	0.5007	0.0026	0.167
Mof_H 	H 	0.1247	0.4649	0.9865	0.194
Mof_C 	C 	0.2157	0.5255	0.00579	-0.582
Mof_H 	H 	0.2121	0.553	0.9909	0.166
Mof_H 	H 	0.231	0.4922	0.9977	0.198
Mof_H 	H 	0.2398	0.5391	0.0207	0.172
Mof_C 	C 	0.1047	0.5233	0.85118	0.303
Mof_C 	C 	0.0483	0.5411	0.83993	-0.209
Mof_H 	H 	0.0536	0.5566	0.8206	0.076
Mof_C 	C 	0.0175	0.586	0.85869	0.432
Mof_C 	C 	0.1004	0.502	0.88095	-0.587
Mof_H 	H 	0.1365	0.4913	0.8877	0.155
Mof_H 	H 	0.0762	0.4703	0.8813	0.166
Mof_H 	H 	0.0856	0.5304	0.8933	0.181
Mof_C 	C 	0.1505	0.5702	0.84915	-0.572
Mof_H 	H 	0.1849	0.5565	0.8567	0.167
Mof_H 	H 	0.1389	0.6019	0.8602	0.198
Mof_H 	H 	0.1554	0.5808	0.8294	0.163
Mof_C 	C 	0.91173	0.8076	0.03819	0.479
Mof_C 	C 	0.8756	0.8019	0.06255	-0.274
Mof_H 	H 	0.8752	0.7623	0.0673	0.104
Mof_C 	C 	0.8152	0.8183	0.05741	0.348
Mof_C 	C 	0.9177	0.8665	0.03199	-0.759
Mof_H 	H 	0.9265	0.886	0.0494	0.227
Mof_H 	H 	0.8836	0.8806	0.0242	0.224
Mof_H 	H 	0.9469	0.8718	0.0182	0.197
Mof_C 	C 	0.8981	0.7772	0.01278	-0.813
Mof_H 	H 	0.8956	0.7384	0.0173	0.232
Mof_H 	H 	0.9264	0.7828	0.9985	0.224
Mof_H 	H 	0.8631	0.7898	0.0054	0.261
Mof_C 	C 	0.3013	0.4519	0.89856	0.389
Mof_C 	C 	0.3496	0.4826	0.90415	-0.245
Mof_H 	H 	0.3827	0.4618	0.8984	0.082
Mof_C 	C 	0.355	0.5038	0.93596	0.35
Mof_C 	C 	0.2488	0.4768	0.9091	-0.649
Mof_H 	H 	0.2185	0.452	0.9052	0.171
Mof_H 	H 	0.2425	0.5115	0.8994	0.192
Mof_H 	H 	0.2514	0.4831	0.9295	0.21
Mof_C 	C 	0.3024	0.3957	0.91231	-0.654
Mof_H 	H 	0.2678	0.3772	0.9089	0.181
Mof_H 	H 	0.3081	0.3996	0.9327	0.224
Mof_H 	H 	0.3321	0.3743	0.9042	0.18
Mof_C 	C 	0.583	0.5363	0.69824	0.326
Mof_C 	C 	0.62679	0.496	0.69237	-0.175
Mof_H 	H 	0.6471	0.5063	0.6749	0.087
Mof_C 	C 	0.6021	0.4384	0.68918	0.289
Mof_C 	C 	0.5463	0.52465	0.72345	-0.626
Mof_H 	H 	0.5193	0.5537	0.7253	0.164
Mof_H 	H 	0.5683	0.5229	0.7407	0.19
Mof_H 	H 	0.5278	0.4898	0.7206	0.206
Mof_C 	C 	0.5491	0.5459	0.67096	-0.592
Mof_H 	H 	0.5737	0.5531	0.6551	0.167
Mof_H 	H 	0.525	0.5771	0.6737	0.162
Mof_H 	H 	0.5274	0.5135	0.6669	0.199
Mof_C 	C 	0.7787	0.6334	0.76817	0.442
Mof_C 	C 	0.7592	0.5829	0.78163	-0.259
Mof_H 	H 	0.7276	0.5931	0.7939	0.08
Mof_C 	C 	0.8031	0.5575	0.8013	0.39
Mof_C 	C 	0.8261	0.6246	0.74934	-0.746
Mof_H 	H 	0.8181	0.5951	0.7361	0.222
Mof_H 	H 	0.858	0.615	0.7607	0.233
Mof_H 	H 	0.8336	0.658	0.7388	0.196
Mof_C 	C 	0.7866	0.6765	0.78963	-0.729
Mof_H 	H 	0.754	0.6791	0.8015	0.198
Mof_H 	H 	0.7929	0.7113	0.7802	0.194
Mof_H 	H 	0.818	0.6675	0.8015	0.231
Mof_C 	C 	0.7915	0.6486	0.65073	0.354
Mof_C 	C 	0.7985	0.6506	0.61909	-0.234
Mof_H 	H 	0.7663	0.632	0.6106	0.087
Mof_C 	C 	0.8477	0.6196	0.61024	0.344
Mof_C 	C 	0.8433	0.6697	0.66436	-0.6
Mof_H 	H 	0.8395	0.6687	0.685	0.148
Mof_H 	H 	0.8498	0.7072	0.6583	0.161
Mof_H 	H 	0.874	0.6469	0.6586	0.182
Mof_C 	C 	0.777	0.5949	0.66367	-0.666
Mof_H 	H 	0.7746	0.5988	0.6842	0.188
Mof_H 	H 	0.8049	0.568	0.659	0.221
Mof_H 	H 	0.7418	0.5827	0.6563	0.195
Mof_C 	C 	0.68971	0.8735	0.61191	0.443
Mof_C 	C 	0.7472	0.8785	0.60284	-0.282
Mof_H 	H 	0.7694	0.8949	0.6184	0.099
Mof_C 	C 	0.7525	0.9145	0.57484	0.443
Mof_C 	C 	0.6522	0.8532	0.59137	-0.779
Mof_H 	H 	0.6649	0.8179	0.5844	0.223
Mof_H 	H 	0.6498	0.8788	0.5756	0.242
Mof_H 	H 	0.6163	0.849	0.6001	0.205
Mof_C 	C 	0.6747	0.9301	0.62421	-0.688
Mof_H 	H 	0.6367	0.9299	0.6304	0.19
Mof_H 	H 	0.6797	0.9579	0.6096	0.229
Mof_H 	H 	0.6983	0.9382	0.6404	0.191
Mof_O 	O 	0.9133	0.6635	0.83498	-0.385
Mof_C 	C 	0.9392	0.6256	0.8129	0.458
Mof_C 	C 	0.9625	0.6711	0.7895	-0.621
Mof_H 	H 	0.9579	0.7078	0.7972	0.204
Mof_H 	H 	0.9422	0.6677	0.7718	0.181
Mof_H 	H 	0.0012	0.6643	0.786	0.193
Mof_O 	O 	0.9345	0.5837	0.8144	-0.496
Mof_La	La	0.03236	0.92901	0.70735	0.764
Mof_La	La	0.15052	0.27925	0.00807	-1.686
Mof_O 	O 	0.2195	0.3201	0.97163	-0.377
Mof_O 	O 	0.9573	0.8816	0.74753	-0.487
Mof_O 	O 	0.9435	0.915	0.70457	-0.072
Mof_H 	H 	0.8438	0.9053	0.7279	-0.697
Mof_C 	C 	0.9274	0.9004	0.72844	0.801
Mof_La	La	0.06581	0.86137	0.76615	-0.925
Mof_La	La	0.0424	0.9555	0.76078	-0.566
Mof_La	La	0.0544	0.883	0.73273	1.713
Mof_La	La	0.7713	0.8284	0.50929	3.77
Mof_La	La	0.8188	0.8567	0.51581	-1.96
Mof_Ag	Ag	0.34092	0.28206	0.27182	0.518
Mof_Ag	Ag	0.88944	0.35399	0.49913	0.538
Mof_Ag	Ag	0.0012	0.31303	0.53791	0.504
Mof_Ag	Ag	0.44393	0.32843	0.2277	0.525
Mof_Ag	Ag	0.25705	0.27203	0.21009	0.535
Mof_Ag	Ag	0.28614	0.12538	0.18845	0.52
Mof_Ag	Ag	0.80004	0.59247	0.34745	0.553
Mof_Ag	Ag	0.35836	0.34889	0.15744	0.514
Mof_Pd	Pd	0.502	0.24186	0.29495	0.476
Mof_Pd	Pd	0.22347	0.16269	0.2694	0.487
Mof_Pd	Pd	0.95474	0.56834	0.31386	0.461
Mof_Pd	Pd	0.02398	0.18435	0.59636	0.489
Mof_Pd	Pd	0.31351	0.42759	0.23203	0.468
Mof_Pd	Pd	0.25168	0.23805	0.12602	0.452
Mof_I 	I 	0.87356	0.26345	0.54053	-0.575
Mof_La	La	0.11998	0.42071	0.36428	1.679
Mof_S 	S 	0.43931	0.30219	0.28005	-0.424
Mof_S 	S 	0.98519	0.32641	0.48611	-0.43
Mof_S 	S 	0.31061	0.18643	0.27862	-0.413
Mof_S 	S 	0.22448	0.17779	0.22194	-0.482
Mof_S 	S 	0.8631	0.42259	0.53584	-0.416
Mof_S 	S 	0.87347	0.53151	0.32666	-0.429
Mof_S 	S 	0.01945	0.21457	0.55141	-0.448
Mof_S 	S 	0.7061	0.56097	0.36026	-0.444
Mof_S 	S 	0.38189	0.39736	0.20378	-0.413
Mof_S 	S 	0.28056	0.34596	0.24581	-0.454
Mof_S 	S 	0.26654	0.30261	0.15926	-0.428
Mof_S 	S 	0.30916	0.17353	0.14203	-0.449
Mof_O 	O 	0.54344	0.39062	0.35122	-0.301
Mof_O 	O 	0.462	0.40825	0.36586	-0.324
Mof_O 	O 	0.10854	0.38507	0.41288	-0.497
Mof_O 	O 	0.1292	0.4364	0.45107	-0.361
Mof_O 	O 	0.23345	0.12354	0.36732	-0.333
Mof_O 	O 	0.2733	0.20155	0.37604	-0.294
Mof_O 	O 	0.0399	0.1535	0.25707	-0.09
Mof_O 	O 	0.0463	0.106	0.21786	-0.913
Mof_O 	O 	0.86841	0.6164	0.52573	-0.169
Mof_O 	O 	0.78069	0.5989	0.53206	-0.263
Mof_O 	O 	0.02099	0.42716	0.37083	-0.514
Mof_O 	O 	0.95677	0.36757	0.35794	-0.311
Mof_O 	O 	0.19966	0.13557	0.56532	-0.299
Mof_O 	O 	0.2139	0.2139	0.54348	-0.29
Mof_O 	O 	0.6638	0.4521	0.44306	-0.313
Mof_O 	O 	0.6286	0.5318	0.45217	-0.296
Mof_O 	O 	0.4057	0.5896	0.20871	-0.147
Mof_O 	O 	0.4084	0.5692	0.16105	-0.244
Mof_O 	O 	0.17455	0.48545	0.29352	-0.281
Mof_O 	O 	0.18665	0.41805	0.32408	-0.488
Mof_O 	O 	0.11183	0.35616	0.10415	-0.306
Mof_O 	O 	0.1582	0.43397	0.10974	-0.292
Mof_O 	O 	0.2333	0.11326	0.05501	-0.381
Mof_O 	O 	0.2458	0.03809	0.07877	-0.347
Mof_N 	N 	0.51627	0.29539	0.32574	-0.253
Mof_H 	H 	0.521	0.2766	0.3424	0.101
Mof_H 	H 	0.5484	0.3129	0.3218	0.124
Mof_N 	N 	0.06406	0.30682	0.44051	-0.245
Mof_H 	H 	0.0955	0.2867	0.4402	0.112
Mof_H 	H 	0.0564	0.3167	0.4222	0.106
Mof_N 	N 	0.2149	0.1566	0.31182	-0.259
Mof_H 	H 	0.1813	0.1699	0.3168	0.098
Mof_H 	H 	0.2159	0.1204	0.3168	0.119
Mof_N 	N 	0.14718	0.1301	0.26296	-0.173
Mof_H 	H 	0.1459	0.0965	0.2714	0.106
Mof_H 	H 	0.1221	0.1519	0.2719	0.081
Mof_N 	N 	0.89997	0.53035	0.55457	-0.255
Mof_H 	H 	0.8998	0.5509	0.5708	0.123
Mof_H 	H 	0.9226	0.5473	0.5418	0.114
Mof_N 	N 	0.988	0.50725	0.33724	-0.24
Mof_H 	H 	0.0201	0.4967	0.329	0.089
Mof_H 	H 	0.9959	0.5202	0.355	0.077
Mof_N 	N 	0.10447	0.16944	0.5885	-0.248
Mof_H 	H 	0.1247	0.1805	0.6038	0.14
Mof_H 	H 	0.1095	0.1326	0.5863	0.118
Mof_N 	N 	0.6566	0.4686	0.38691	-0.247
Mof_H 	H 	0.6233	0.4517	0.3862	0.104
Mof_H 	H 	0.6798	0.4456	0.3963	0.122
Mof_N 	N 	0.33667	0.5024	0.2171	-0.271
Mof_H 	H 	0.3057	0.5214	0.2126	0.161
Mof_H 	H 	0.3534	0.5207	0.2316	0.165
Mof_N 	N 	0.2592	0.45742	0.26282	-0.235
Mof_H 	H 	0.2762	0.4844	0.273	0.118
Mof_H 	H 	0.2297	0.4726	0.2539	0.116
Mof_N 	N 	0.20124	0.29274	0.10836	-0.241
Mof_H 	H 	0.2089	0.294	0.0893	0.086
Mof_H 	H 	0.1664	0.2796	0.1102	0.099
Mof_N 	N 	0.2324	0.18068	0.09651	-0.227
Mof_H 	H 	0.1952	0.1798	0.0946	0.09
Mof_H 	H 	0.2466	0.1915	0.0794	0.038
Mof_C 	C 	0.456	0.3602	0.30402	0.281
Mof_C 	C 	0.4749	0.3356	0.33011	-0.188
Mof_H 	H 	0.4431	0.3168	0.3389	0.07
Mof_C 	C 	0.4939	0.3825	0.35173	0.345
Mof_C 	C 	0.4977	0.397	0.29024	-0.58
Mof_H 	H 	0.4826	0.4124	0.2729	0.153
Mof_H 	H 	0.5304	0.376	0.2857	0.165
Mof_H 	H 	0.5072	0.4265	0.3033	0.184
Mof_C 	C 	0.3965	0.3923	0.30845	-0.514
Mof_H 	H 	0.3851	0.4085	0.2905	0.142
Mof_H 	H 	0.4006	0.4208	0.3227	0.174
Mof_H 	H 	0.3689	0.3662	0.3147	0.137
Mof_C 	C 	0.02373	0.38175	0.46771	0.325
Mof_C 	C 	0.07411	0.3571	0.45735	-0.232
Mof_H 	H 	0.0962	0.3466	0.4742	0.08
Mof_C 	C 	0.11	0.3962	0.43879	0.398
Mof_C 	C 	0.9845	0.403	0.4437	-0.567
Mof_H 	H 	0.9521	0.4192	0.4523	0.151
Mof_H 	H 	0.9737	0.3726	0.4316	0.171
Mof_H 	H 	0.0033	0.4305	0.4323	0.18
Mof_C 	C 	0.0315	0.4242	0.49108	-0.605
Mof_H 	H 	0.9962	0.4397	0.4962	0.165
Mof_H 	H 	0.0555	0.4531	0.4843	0.199
Mof_H 	H 	0.0478	0.4069	0.5077	0.165
Mof_C 	C 	0.3165	0.1671	0.3172	0.261
Mof_C 	C 	0.2582	0.1868	0.32863	-0.17
Mof_H 	H 	0.2537	0.2271	0.3273	0.061
Mof_C 	C 	0.2544	0.16545	0.36081	0.353
Mof_C 	C 	0.3237	0.1029	0.3179	-0.53
Mof_H 	H 	0.2916	0.0856	0.3096	0.159
Mof_H 	H 	0.3279	0.0908	0.3375	0.165
Mof_H 	H 	0.356	0.0928	0.307	0.139
Mof_C 	C 	0.3645	0.1993	0.33027	-0.556
Mof_H 	H 	0.3989	0.1848	0.323	0.156
Mof_H 	H 	0.3636	0.1956	0.3509	0.191
Mof_H 	H 	0.3613	0.2377	0.3251	0.152
Mof_C 	C 	0.1507	0.1744	0.21608	0.739
Mof_C 	C 	0.13163	0.1244	0.2346	-0.509
Mof_H 	H 	0.1411	0.0883	0.2263	0.821
Mof_C 	C 	0.0675	0.1356	0.2364	0.248
Mof_C 	C 	0.1239	0.226	0.22432	-0.938
Mof_H 	H 	0.1261	0.2305	0.2449	0.261
Mof_H 	H 	0.0857	0.2251	0.2185	0.257
Mof_H 	H 	0.1422	0.2565	0.215	0.241
Mof_C 	C 	0.1445	0.1688	0.18802	-1.157
Mof_H 	H 	0.1607	0.1344	0.1819	0.321
Mof_H 	H 	0.1626	0.199	0.1783	0.314
Mof_H 	H 	0.1057	0.169	0.1833	0.324
Mof_C 	C 	0.8412	0.4869	0.51856	0.294
Mof_C 	C 	0.8434	0.52942	0.54259	-0.174
Mof_H 	H 	0.8168	0.5196	0.5577	0.079
Mof_C 	C 	0.82897	0.5875	0.52998	0.318
Mof_C 	C 	0.8832	0.4994	0.49467	-0.57
Mof_H 	H 	0.8805	0.4715	0.4799	0.15
Mof_H 	H 	0.9199	0.4993	0.5026	0.167
Mof_H 	H 	0.8753	0.5351	0.4865	0.194
Mof_C 	C 	0.7843	0.4745	0.50579	-0.582
Mof_H 	H 	0.7879	0.447	0.4909	0.166
Mof_H 	H 	0.769	0.5078	0.4977	0.198
Mof_H 	H 	0.7602	0.4609	0.5207	0.172
Mof_C 	C 	0.8953	0.4767	0.35118	0.303
Mof_C 	C 	0.9517	0.4589	0.33993	-0.209
Mof_H 	H 	0.9464	0.4434	0.3206	0.076
Mof_C 	C 	0.9825	0.414	0.35869	0.432
Mof_C 	C 	0.8996	0.498	0.38095	-0.587
Mof_H 	H 	0.8635	0.5087	0.3877	0.155
Mof_H 	H 	0.9238	0.5297	0.3813	0.166
Mof_H 	H 	0.9144	0.4696	0.3933	0.181
Mof_C 	C 	0.8495	0.4298	0.34915	-0.572
Mof_H 	H 	0.8151	0.4435	0.3567	0.167
Mof_H 	H 	0.8611	0.3981	0.3602	0.198
Mof_H 	H 	0.8446	0.4192	0.3294	0.163
Mof_C 	C 	0.08827	0.1924	0.53819	0.479
Mof_C 	C 	0.1244	0.1981	0.56255	-0.274
Mof_H 	H 	0.1248	0.2377	0.5673	0.104
Mof_C 	C 	0.1848	0.1817	0.55741	0.348
Mof_C 	C 	0.0823	0.1335	0.53199	-0.759
Mof_H 	H 	0.0735	0.114	0.5494	0.227
Mof_H 	H 	0.1164	0.1194	0.5242	0.224
Mof_H 	H 	0.0531	0.1282	0.5182	0.197
Mof_C 	C 	0.1019	0.2228	0.51278	-0.812
Mof_H 	H 	0.1044	0.2616	0.5173	0.232
Mof_H 	H 	0.0736	0.2172	0.4985	0.224
Mof_H 	H 	0.1369	0.2102	0.5054	0.261
Mof_C 	C 	0.6987	0.5481	0.39856	0.389
Mof_C 	C 	0.6504	0.5174	0.40415	-0.245
Mof_H 	H 	0.6173	0.5382	0.3984	0.082
Mof_C 	C 	0.645	0.4962	0.43596	0.35
Mof_C 	C 	0.7512	0.5232	0.4091	-0.649
Mof_H 	H 	0.7815	0.548	0.4052	0.171
Mof_H 	H 	0.7575	0.4885	0.3994	0.192
Mof_H 	H 	0.7486	0.5169	0.4295	0.21
Mof_C 	C 	0.6976	0.6043	0.41231	-0.654
Mof_H 	H 	0.7322	0.6228	0.4089	0.181
Mof_H 	H 	0.6919	0.6004	0.4327	0.224
Mof_H 	H 	0.6679	0.6257	0.4042	0.18
Mof_C 	C 	0.417	0.4637	0.19824	0.326
Mof_C 	C 	0.37321	0.504	0.19237	-0.175
Mof_H 	H 	0.3529	0.4937	0.1749	0.087
Mof_C 	C 	0.3979	0.5616	0.18918	0.289
Mof_C 	C 	0.4537	0.47535	0.22345	-0.626
Mof_H 	H 	0.4807	0.4463	0.2253	0.164
Mof_H 	H 	0.4317	0.4771	0.2407	0.19
Mof_H 	H 	0.4722	0.5102	0.2206	0.206
Mof_C 	C 	0.4509	0.4541	0.17096	-0.592
Mof_H 	H 	0.4263	0.4469	0.1551	0.167
Mof_H 	H 	0.475	0.4229	0.1737	0.162
Mof_H 	H 	0.4726	0.4865	0.1669	0.199
Mof_C 	C 	0.2213	0.3666	0.26817	0.442
Mof_C 	C 	0.2408	0.4171	0.28163	-0.259
Mof_H 	H 	0.2724	0.4069	0.2939	0.08
Mof_C 	C 	0.1969	0.4425	0.3013	0.39
Mof_C 	C 	0.1739	0.3754	0.24934	-0.746
Mof_H 	H 	0.1819	0.4049	0.2361	0.222
Mof_H 	H 	0.142	0.385	0.2607	0.233
Mof_H 	H 	0.1664	0.342	0.2388	0.196
Mof_C 	C 	0.2134	0.3235	0.28963	-0.729
Mof_H 	H 	0.246	0.3209	0.3015	0.198
Mof_H 	H 	0.2071	0.2887	0.2802	0.194
Mof_H 	H 	0.182	0.3325	0.3015	0.231
Mof_C 	C 	0.2085	0.3514	0.15073	0.354
Mof_C 	C 	0.2015	0.3494	0.11909	-0.234
Mof_H 	H 	0.2337	0.368	0.1106	0.087
Mof_C 	C 	0.1523	0.3804	0.11024	0.344
Mof_C 	C 	0.1567	0.3303	0.16436	-0.6
Mof_H 	H 	0.1605	0.3313	0.185	0.148
Mof_H 	H 	0.1502	0.2928	0.1583	0.161
Mof_H 	H 	0.126	0.3531	0.1586	0.182
Mof_C 	C 	0.223	0.4051	0.16367	-0.666
Mof_H 	H 	0.2254	0.4012	0.1842	0.188
Mof_H 	H 	0.1951	0.432	0.159	0.221
Mof_H 	H 	0.2582	0.4173	0.1563	0.195
Mof_C 	C 	0.31029	0.1265	0.11191	0.443
Mof_C 	C 	0.2528	0.1215	0.10284	-0.282
Mof_H 	H 	0.2306	0.1051	0.1184	0.099
Mof_C 	C 	0.2475	0.0855	0.07484	0.443
Mof_C 	C 	0.3478	0.1468	0.09137	-0.779
Mof_H 	H 	0.3351	0.1821	0.0844	0.223
Mof_H 	H 	0.3502	0.1212	0.0756	0.242
Mof_H 	H 	0.3837	0.151	0.1001	0.204
Mof_C 	C 	0.3253	0.0699	0.12421	-0.688
Mof_H 	H 	0.3633	0.0701	0.1304	0.19
Mof_H 	H 	0.3203	0.0421	0.1096	0.229
Mof_H 	H 	0.3017	0.0618	0.1404	0.191
Mof_O 	O 	0.0867	0.3365	0.33498	-0.385
Mof_C 	C 	0.0608	0.3744	0.3129	0.458
Mof_C 	C 	0.0375	0.3289	0.2895	-0.621
Mof_H 	H 	0.0421	0.2922	0.2972	0.204
Mof_H 	H 	0.0578	0.3323	0.2718	0.181
Mof_H 	H 	0.9988	0.3357	0.286	0.193
Mof_O 	O 	0.0655	0.4163	0.3144	-0.496
Mof_La	La	0.96764	0.07099	0.20735	0.764
Mof_La	La	0.84948	0.72075	0.50807	-1.686
Mof_O 	O 	0.7805	0.6799	0.47163	-0.377
Mof_O 	O 	0.0427	0.1184	0.24753	-0.487
Mof_O 	O 	0.0565	0.085	0.20457	-0.072
Mof_H 	H 	0.1562	0.0947	0.2279	-0.697
Mof_C 	C 	0.0726	0.0996	0.22844	0.801
Mof_La	La	0.93419	0.13863	0.26615	-0.925
Mof_La	La	0.9576	0.0445	0.26078	-0.566
Mof_La	La	0.9456	0.117	0.23273	1.713
Mof_La	La	0.2287	0.1716	0.00929	3.77
Mof_La	La	0.1812	0.1433	0.01581	-1.961
_end
