data_functionalizedCrystal
_audit_creation_method	'EQeq! by Chris Wilmer'
_symmetry_space_group_name_H-M	'P1'
_symmetry_Int_Tables_number	1
_symmetry_cell_setting	triclinic
loop_
_symmetry_equiv_pos_as_xyz
  x,y,z
_cell_length_a	7.263
_cell_length_b	24.54
_cell_length_c	17.718
_cell_angle_alpha	90
_cell_angle_beta	90.726
_cell_angle_gamma	90
loop_
_atom_site_label
_atom_site_type_symbol
_atom_site_fract_x
_atom_site_fract_y
_atom_site_fract_z
_atom_site_charge
Mof_U 	U 	0.41315	0.54457	0.13593	-0.009
Mof_Si	Si	0.6663	0.80003	0.33482	0.784
Mof_O 	O 	0.2774	0.9737	0.5204	-0.168
Mof_O 	O 	0.1393	0.6021	0.1361	-0.191
Mof_O 	O 	0.3057	0.603	0.2411	-0.188
Mof_O 	O 	0.3647	0.9819	0.4007	-0.18
Mof_O 	O 	0.2713	0.9794	0.0776	-0.176
Mof_O 	O 	0.0705	0.9133	0.0635	-0.192
Mof_C 	C 	0.5023	0.9159	0.1738	-0.107
Mof_H 	H 	0.5506	0.9492	0.1551	0.103
Mof_C 	C 	0.6006	0.8862	0.2272	0.101
Mof_H 	H 	0.7159	0.8998	0.2448	0.004
Mof_C 	C 	0.5351	0.8369	0.2561	-0.264
Mof_C 	C 	0.3307	0.8966	0.1473	0.021
Mof_C 	C 	0.2653	0.847	0.1725	-0.113
Mof_H 	H 	0.1529	0.8328	0.1528	0.079
Mof_C 	C 	0.3652	0.8179	0.227	0.09
Mof_H 	H 	0.3173	0.7843	0.245	-0.007
Mof_C 	C 	0.2196	0.9311	0.0939	0.237
Mof_C 	C 	0.8039	0.7423	0.2927	-0.281
Mof_C 	C 	0.7744	0.7204	0.2223	0.117
Mof_H 	H 	0.6734	0.7333	0.1927	-0.011
Mof_C 	C 	0.8873	0.6802	0.1928	-0.119
Mof_H 	H 	0.863	0.666	0.1438	0.087
Mof_C 	C 	0.0375	0.6606	0.2356	0.025
Mof_C 	C 	0.067	0.6814	0.3082	-0.112
Mof_H 	H 	0.1657	0.668	0.3386	0.088
Mof_C 	C 	0.9521	0.7214	0.3353	0.101
Mof_H 	H 	0.9741	0.7353	0.3846	-0.01
Mof_C 	C 	0.1663	0.6202	0.2043	0.236
Mof_C 	C 	0.8371	0.8503	0.3754	-0.271
Mof_C 	C 	0.9866	0.8647	0.329	0.096
Mof_H 	H 	0.9977	0.8481	0.2808	-0.011
Mof_C 	C 	0.1171	0.9024	0.3525	-0.113
Mof_H 	H 	0.2135	0.9125	0.3197	0.091
Mof_C 	C 	0.1075	0.9257	0.4248	0.034
Mof_C 	C 	0.9627	0.911	0.4719	-0.116
Mof_H 	H 	0.9562	0.926	0.5212	0.109
Mof_C 	C 	0.8283	0.8746	0.4474	0.112
Mof_H 	H 	0.7288	0.8659	0.4796	-0.002
Mof_C 	C 	0.2574	0.9624	0.4501	0.231
Mof_C 	C 	0.5022	0.7751	0.4072	-0.3
Mof_C 	C 	0.4782	0.7184	0.4221	0.122
Mof_H 	H 	0.5503	0.6922	0.3965	-0.006
Mof_C 	C 	0.3467	0.7016	0.4752	-0.168
Mof_H 	H 	0.3283	0.6638	0.484	0.105
Mof_C 	C 	0.2448	0.7392	0.5144	0.099
Mof_H 	H 	0.1586	0.7274	0.5508	0.001
Mof_C 	C 	0.2678	0.7934	0.5009	-0.181
Mof_H 	H 	0.1962	0.8192	0.5276	0.108
Mof_C 	C 	0.3947	0.8114	0.4484	0.141
Mof_H 	H 	0.4088	0.8494	0.4404	-0.015
Mof_U 	U 	0.58685	0.04457	0.36407	-0.01
Mof_Si	Si	0.3337	0.30003	0.16518	0.783
Mof_O 	O 	0.7226	0.4737	0.9796	-0.169
Mof_O 	O 	0.8607	0.1021	0.3639	-0.192
Mof_O 	O 	0.6943	0.103	0.2589	-0.189
Mof_O 	O 	0.6353	0.4819	0.0993	-0.18
Mof_O 	O 	0.7287	0.4794	0.4224	-0.177
Mof_O 	O 	0.9295	0.4133	0.4365	-0.194
Mof_C 	C 	0.4977	0.4159	0.3262	-0.108
Mof_H 	H 	0.4494	0.4492	0.3449	0.103
Mof_C 	C 	0.3994	0.3862	0.2728	0.101
Mof_H 	H 	0.2841	0.3998	0.2552	0.005
Mof_C 	C 	0.4649	0.3369	0.2439	-0.264
Mof_C 	C 	0.6693	0.3966	0.3527	0.021
Mof_C 	C 	0.7347	0.347	0.3275	-0.113
Mof_H 	H 	0.8471	0.3328	0.3472	0.078
Mof_C 	C 	0.6348	0.3179	0.273	0.09
Mof_H 	H 	0.6827	0.2843	0.255	-0.007
Mof_C 	C 	0.7804	0.4311	0.4061	0.237
Mof_C 	C 	0.1961	0.2423	0.2073	-0.281
Mof_C 	C 	0.2256	0.2204	0.2777	0.117
Mof_H 	H 	0.3266	0.2333	0.3073	-0.011
Mof_C 	C 	0.1127	0.1802	0.3072	-0.118
Mof_H 	H 	0.137	0.166	0.3562	0.087
Mof_C 	C 	0.9625	0.1606	0.2644	0.024
Mof_C 	C 	0.933	0.1814	0.1918	-0.114
Mof_H 	H 	0.8343	0.168	0.1614	0.089
Mof_C 	C 	0.0479	0.2214	0.1647	0.103
Mof_H 	H 	0.0259	0.2353	0.1154	-0.011
Mof_C 	C 	0.8337	0.1202	0.2957	0.236
Mof_C 	C 	0.1629	0.3503	0.1246	-0.27
Mof_C 	C 	0.0134	0.3647	0.171	0.098
Mof_H 	H 	0.0023	0.3481	0.2192	-0.011
Mof_C 	C 	0.8829	0.4024	0.1475	-0.114
Mof_H 	H 	0.7865	0.4125	0.1803	0.092
Mof_C 	C 	0.8925	0.4257	0.0752	0.032
Mof_C 	C 	0.0373	0.411	0.0281	-0.111
Mof_H 	H 	0.0438	0.426	0.9788	0.108
Mof_C 	C 	0.1717	0.3746	0.0526	0.111
Mof_H 	H 	0.2712	0.3659	0.0204	-0.001
Mof_C 	C 	0.7426	0.4624	0.0499	0.232
Mof_C 	C 	0.4978	0.2751	0.0928	-0.3
Mof_C 	C 	0.5218	0.2184	0.0779	0.122
Mof_H 	H 	0.4497	0.1922	0.1035	-0.006
Mof_C 	C 	0.6533	0.2016	0.0248	-0.169
Mof_H 	H 	0.6717	0.1638	0.016	0.105
Mof_C 	C 	0.7552	0.2392	0.9856	0.1
Mof_H 	H 	0.8414	0.2274	0.9492	0.001
Mof_C 	C 	0.7322	0.2934	0.9991	-0.181
Mof_H 	H 	0.8038	0.3192	0.9724	0.108
Mof_C 	C 	0.6053	0.3114	0.0516	0.14
Mof_H 	H 	0.5912	0.3494	0.0596	-0.015
Mof_U 	U 	0.58685	0.45543	0.86407	-0.01
Mof_Si	Si	0.3337	0.19997	0.66518	0.783
Mof_O 	O 	0.7226	0.0263	0.4796	-0.168
Mof_O 	O 	0.8607	0.3979	0.8639	-0.192
Mof_O 	O 	0.6943	0.397	0.7589	-0.189
Mof_O 	O 	0.6353	0.0181	0.5993	-0.18
Mof_O 	O 	0.7287	0.0206	0.9224	-0.177
Mof_O 	O 	0.9295	0.0867	0.9365	-0.193
Mof_C 	C 	0.4977	0.0841	0.8262	-0.108
Mof_H 	H 	0.4494	0.0508	0.8449	0.103
Mof_C 	C 	0.3994	0.1138	0.7728	0.101
Mof_H 	H 	0.2841	0.1002	0.7552	0.004
Mof_C 	C 	0.4649	0.1631	0.7439	-0.264
Mof_C 	C 	0.6693	0.1034	0.8527	0.021
Mof_C 	C 	0.7347	0.153	0.8275	-0.113
Mof_H 	H 	0.8471	0.1672	0.8472	0.078
Mof_C 	C 	0.6348	0.1821	0.773	0.09
Mof_H 	H 	0.6827	0.2157	0.755	-0.007
Mof_C 	C 	0.7804	0.0689	0.9061	0.237
Mof_C 	C 	0.1961	0.2577	0.7073	-0.281
Mof_C 	C 	0.2256	0.2796	0.7777	0.117
Mof_H 	H 	0.3266	0.2667	0.8073	-0.011
Mof_C 	C 	0.1127	0.3198	0.8072	-0.118
Mof_H 	H 	0.137	0.334	0.8562	0.087
Mof_C 	C 	0.9625	0.3394	0.7644	0.024
Mof_C 	C 	0.933	0.3186	0.6918	-0.114
Mof_H 	H 	0.8343	0.332	0.6614	0.089
Mof_C 	C 	0.0479	0.2786	0.6647	0.102
Mof_H 	H 	0.0259	0.2647	0.6154	-0.011
Mof_C 	C 	0.8337	0.3798	0.7957	0.236
Mof_C 	C 	0.1629	0.1497	0.6246	-0.271
Mof_C 	C 	0.0134	0.1353	0.671	0.097
Mof_H 	H 	0.0023	0.1519	0.7192	-0.011
Mof_C 	C 	0.8829	0.0976	0.6475	-0.114
Mof_H 	H 	0.7865	0.0875	0.6803	0.092
Mof_C 	C 	0.8925	0.0743	0.5752	0.034
Mof_C 	C 	0.0373	0.089	0.5281	-0.115
Mof_H 	H 	0.0438	0.074	0.4788	0.109
Mof_C 	C 	0.1717	0.1254	0.5526	0.112
Mof_H 	H 	0.2712	0.1341	0.5204	-0.002
Mof_C 	C 	0.7426	0.0376	0.5499	0.232
Mof_C 	C 	0.4978	0.2249	0.5928	-0.3
Mof_C 	C 	0.5218	0.2816	0.5779	0.122
Mof_H 	H 	0.4497	0.3078	0.6035	-0.006
Mof_C 	C 	0.6533	0.2984	0.5248	-0.168
Mof_H 	H 	0.6717	0.3362	0.516	0.105
Mof_C 	C 	0.7552	0.2608	0.4856	0.099
Mof_H 	H 	0.8414	0.2726	0.4492	0.001
Mof_C 	C 	0.7322	0.2066	0.4991	-0.181
Mof_H 	H 	0.8038	0.1808	0.4724	0.108
Mof_C 	C 	0.6053	0.1886	0.5516	0.14
Mof_H 	H 	0.5912	0.1506	0.5596	-0.015
Mof_U 	U 	0.41315	0.95543	0.63593	-0.011
Mof_Si	Si	0.6663	0.69997	0.83482	0.783
Mof_O 	O 	0.2774	0.5263	0.0204	-0.168
Mof_O 	O 	0.1393	0.8979	0.6361	-0.192
Mof_O 	O 	0.3057	0.897	0.7411	-0.189
Mof_O 	O 	0.3647	0.5181	0.9007	-0.18
Mof_O 	O 	0.2713	0.5206	0.5776	-0.177
Mof_O 	O 	0.0705	0.5867	0.5635	-0.193
Mof_C 	C 	0.5023	0.5841	0.6738	-0.108
Mof_H 	H 	0.5506	0.5508	0.6551	0.103
Mof_C 	C 	0.6006	0.6138	0.7272	0.101
Mof_H 	H 	0.7159	0.6002	0.7448	0.004
Mof_C 	C 	0.5351	0.6631	0.7561	-0.264
Mof_C 	C 	0.3307	0.6034	0.6473	0.021
Mof_C 	C 	0.2653	0.653	0.6725	-0.113
Mof_H 	H 	0.1529	0.6672	0.6528	0.078
Mof_C 	C 	0.3652	0.6821	0.727	0.09
Mof_H 	H 	0.3173	0.7157	0.745	-0.007
Mof_C 	C 	0.2196	0.5689	0.5939	0.237
Mof_C 	C 	0.8039	0.7577	0.7927	-0.281
Mof_C 	C 	0.7744	0.7796	0.7223	0.117
Mof_H 	H 	0.6734	0.7667	0.6927	-0.011
Mof_C 	C 	0.8873	0.8198	0.6928	-0.119
Mof_H 	H 	0.863	0.834	0.6438	0.087
Mof_C 	C 	0.0375	0.8394	0.7356	0.024
Mof_C 	C 	0.067	0.8186	0.8082	-0.113
Mof_H 	H 	0.1657	0.832	0.8386	0.089
Mof_C 	C 	0.9521	0.7786	0.8353	0.102
Mof_H 	H 	0.9741	0.7647	0.8846	-0.011
Mof_C 	C 	0.1663	0.8798	0.7043	0.236
Mof_C 	C 	0.8371	0.6497	0.8754	-0.271
Mof_C 	C 	0.9866	0.6353	0.829	0.097
Mof_H 	H 	0.9977	0.6519	0.7808	-0.011
Mof_C 	C 	0.1171	0.5976	0.8525	-0.113
Mof_H 	H 	0.2135	0.5875	0.8197	0.091
Mof_C 	C 	0.1075	0.5743	0.9248	0.033
Mof_C 	C 	0.9627	0.589	0.9719	-0.114
Mof_H 	H 	0.9562	0.574	0.0212	0.109
Mof_C 	C 	0.8283	0.6254	0.9474	0.111
Mof_H 	H 	0.7288	0.6341	0.9796	-0.002
Mof_C 	C 	0.2574	0.5376	0.9501	0.231
Mof_C 	C 	0.5022	0.7249	0.9072	-0.3
Mof_C 	C 	0.4782	0.7816	0.9221	0.122
Mof_H 	H 	0.5503	0.8078	0.8965	-0.006
Mof_C 	C 	0.3467	0.7984	0.9752	-0.169
Mof_H 	H 	0.3283	0.8362	0.984	0.105
Mof_C 	C 	0.2448	0.7608	0.0144	0.1
Mof_H 	H 	0.1586	0.7726	0.0508	0.001
Mof_C 	C 	0.2678	0.7066	0.0009	-0.18
Mof_H 	H 	0.1962	0.6808	0.0276	0.108
Mof_C 	C 	0.3947	0.6886	0.9484	0.14
Mof_H 	H 	0.4088	0.6506	0.9404	-0.015
Mof_U 	U 	-0	0	-0	-0.012
Mof_U 	U 	2.25019e-18	0.5	0.5	-0.012
_end
