data_functionalizedCrystal
_audit_creation_method	'EQeq! by Chris Wilmer'
_symmetry_space_group_name_H-M	'P1'
_symmetry_Int_Tables_number	1
_symmetry_cell_setting	triclinic
loop_
_symmetry_equiv_pos_as_xyz
  x,y,z
_cell_length_a	9.3366
_cell_length_b	21.917
_cell_length_c	24.057
_cell_angle_alpha	90
_cell_angle_beta	90
_cell_angle_gamma	90
loop_
_atom_site_label
_atom_site_type_symbol
_atom_site_fract_x
_atom_site_fract_y
_atom_site_fract_z
_atom_site_charge
Mof_In	In	0.15952	0.10985	0.02502	2.515
Mof_In	In	0.82446	0.26398	0.1782	2.714
Mof_O 	O 	0.9657	0.1125	0.0767	-0.536
Mof_O 	O 	0.1756	0.1959	0.0798	-0.499
Mof_O 	O 	0.0374	0.2546	0.1335	-0.515
Mof_O 	O 	0.8376	0.1693	0.1348	-0.461
Mof_O 	O 	0.8548	0.9888	0.9557	-0.525
Mof_O 	O 	0.9922	0.0707	0.9669	-0.478
Mof_O 	O 	0.9347	0.2096	0.2426	-0.539
Mof_O 	O 	0.9833	0.3284	0.2237	-0.446
Mof_O 	O 	0.1844	0.324	0.2743	-0.538
Mof_O 	O 	0.1402	0.2045	0.2909	-0.482
Mof_O 	O 	0.6636	0.2653	0.1078	-0.508
Mof_O 	O 	0.8557	0.3522	0.1284	-0.47
Mof_O 	O 	0.7945	0.4008	0.0505	-0.53
Mof_O 	O 	0.6038	0.3115	0.028	-0.522
Mof_N 	N 	0.3681	0.0983	0.0644	-0.365
Mof_N 	N 	0.5827	0.1152	0.0999	-0.1
Mof_C 	C 	0.9446	0.1589	0.1058	0.293
Mof_C 	C 	0.0652	0.207	0.106	0.283
Mof_C 	C 	0.9572	0.0171	0.9782	0.282
Mof_C 	C 	0.0474	0.2316	0.2632	0.29
Mof_C 	C 	0.0732	0.301	0.2519	0.278
Mof_C 	C 	0.6742	0.3074	0.0723	0.278
Mof_C 	C 	0.7845	0.3581	0.0847	0.281
Mof_C 	C 	0.451	0.0466	0.0584	0.045
Mof_H 	H 	0.4213	0.0101	0.0424	0.017
Mof_C 	C 	0.4541	0.1379	0.0896	0.16
Mof_H 	H 	0.4269	0.1774	0.099	-0.001
Mof_C 	C 	0.5826	0.0576	0.0796	0.014
Mof_H 	H 	0.6593	0.0305	0.0802	0.058
Mof_In	In	0.34048	0.89015	0.52502	2.526
Mof_In	In	0.67554	0.73602	0.6782	2.713
Mof_O 	O 	0.5343	0.8875	0.5767	-0.538
Mof_O 	O 	0.3244	0.8041	0.5798	-0.499
Mof_O 	O 	0.4626	0.7454	0.6335	-0.513
Mof_O 	O 	0.6624	0.8307	0.6348	-0.461
Mof_O 	O 	0.6452	0.0112	0.4557	-0.523
Mof_O 	O 	0.5078	0.9293	0.4669	-0.478
Mof_O 	O 	0.5653	0.7904	0.7426	-0.541
Mof_O 	O 	0.5167	0.6716	0.7237	-0.448
Mof_O 	O 	0.3156	0.676	0.7743	-0.538
Mof_O 	O 	0.3598	0.7955	0.7909	-0.482
Mof_O 	O 	0.8364	0.7347	0.6078	-0.508
Mof_O 	O 	0.6443	0.6478	0.6284	-0.47
Mof_O 	O 	0.7055	0.5992	0.5505	-0.531
Mof_O 	O 	0.8962	0.6885	0.528	-0.523
Mof_N 	N 	0.1319	0.9017	0.5644	-0.366
Mof_N 	N 	0.9173	0.8848	0.5999	-0.101
Mof_C 	C 	0.5554	0.8411	0.6058	0.291
Mof_C 	C 	0.4348	0.793	0.606	0.286
Mof_C 	C 	0.5428	0.9829	0.4782	0.28
Mof_C 	C 	0.4526	0.7684	0.7632	0.292
Mof_C 	C 	0.4268	0.699	0.7519	0.28
Mof_C 	C 	0.8258	0.6926	0.5723	0.278
Mof_C 	C 	0.7155	0.6419	0.5847	0.281
Mof_C 	C 	0.049	0.9534	0.5584	0.048
Mof_H 	H 	0.0787	0.9899	0.5424	0.016
Mof_C 	C 	0.0459	0.8621	0.5896	0.162
Mof_H 	H 	0.0731	0.8226	0.599	-0.002
Mof_C 	C 	0.9174	0.9424	0.5796	0.011
Mof_H 	H 	0.8407	0.9695	0.5802	0.059
Mof_In	In	0.84048	0.60985	0.47498	2.525
Mof_In	In	0.17554	0.76398	0.3218	2.713
Mof_O 	O 	0.0343	0.6125	0.4233	-0.538
Mof_O 	O 	0.8244	0.6959	0.4202	-0.5
Mof_O 	O 	0.9626	0.7546	0.3665	-0.514
Mof_O 	O 	0.1624	0.6693	0.3652	-0.461
Mof_O 	O 	0.1452	0.4888	0.5443	-0.523
Mof_O 	O 	0.0078	0.5707	0.5331	-0.478
Mof_O 	O 	0.0653	0.7096	0.2574	-0.541
Mof_O 	O 	0.0167	0.8284	0.2763	-0.448
Mof_O 	O 	0.8156	0.824	0.2257	-0.538
Mof_O 	O 	0.8598	0.7045	0.2091	-0.482
Mof_O 	O 	0.3364	0.7653	0.3922	-0.508
Mof_O 	O 	0.1443	0.8522	0.3716	-0.47
Mof_O 	O 	0.2055	0.9008	0.4495	-0.531
Mof_O 	O 	0.3962	0.8115	0.472	-0.522
Mof_N 	N 	0.6319	0.5983	0.4356	-0.366
Mof_N 	N 	0.4173	0.6152	0.4001	-0.1
Mof_C 	C 	0.0554	0.6589	0.3942	0.291
Mof_C 	C 	0.9348	0.707	0.394	0.286
Mof_C 	C 	0.0428	0.5171	0.5218	0.28
Mof_C 	C 	0.9526	0.7316	0.2368	0.292
Mof_C 	C 	0.9268	0.801	0.2481	0.28
Mof_C 	C 	0.3258	0.8074	0.4277	0.278
Mof_C 	C 	0.2155	0.8581	0.4153	0.281
Mof_C 	C 	0.549	0.5466	0.4416	0.045
Mof_H 	H 	0.5787	0.5101	0.4576	0.017
Mof_C 	C 	0.5459	0.6379	0.4104	0.16
Mof_H 	H 	0.5731	0.6774	0.401	-0.001
Mof_C 	C 	0.4174	0.5576	0.4204	0.014
Mof_H 	H 	0.3407	0.5305	0.4198	0.058
Mof_In	In	0.65952	0.39015	0.97498	2.526
Mof_In	In	0.32446	0.23602	0.8218	2.713
Mof_O 	O 	0.4657	0.3875	0.9233	-0.538
Mof_O 	O 	0.6756	0.3041	0.9202	-0.5
Mof_O 	O 	0.5374	0.2454	0.8665	-0.513
Mof_O 	O 	0.3376	0.3307	0.8652	-0.461
Mof_O 	O 	0.3548	0.5112	0.0443	-0.523
Mof_O 	O 	0.4922	0.4293	0.0331	-0.479
Mof_O 	O 	0.4347	0.2904	0.7574	-0.541
Mof_O 	O 	0.4833	0.1716	0.7763	-0.448
Mof_O 	O 	0.6844	0.176	0.7257	-0.538
Mof_O 	O 	0.6402	0.2955	0.7091	-0.482
Mof_O 	O 	0.1636	0.2347	0.8922	-0.508
Mof_O 	O 	0.3557	0.1478	0.8716	-0.47
Mof_O 	O 	0.2945	0.0992	0.9495	-0.528
Mof_O 	O 	0.1038	0.1885	0.972	-0.519
Mof_N 	N 	0.8681	0.4017	0.9356	-0.365
Mof_N 	N 	0.0827	0.3848	0.9001	-0.1
Mof_C 	C 	0.4446	0.3411	0.8942	0.291
Mof_C 	C 	0.5652	0.293	0.894	0.287
Mof_C 	C 	0.4572	0.4829	0.0218	0.28
Mof_C 	C 	0.5474	0.2684	0.7368	0.292
Mof_C 	C 	0.5732	0.199	0.7481	0.28
Mof_C 	C 	0.1742	0.1926	0.9277	0.278
Mof_C 	C 	0.2845	0.1419	0.9153	0.281
Mof_C 	C 	0.951	0.4534	0.9416	0.041
Mof_H 	H 	0.9213	0.4899	0.9576	0.018
Mof_C 	C 	0.9541	0.3621	0.9104	0.158
Mof_H 	H 	0.9269	0.3226	0.901	-0.001
Mof_C 	C 	0.0826	0.4424	0.9204	0.018
Mof_H 	H 	0.1593	0.4695	0.9198	0.057
Mof_In	In	0.84048	0.89015	0.97498	2.516
Mof_In	In	0.17554	0.73602	0.8218	2.715
Mof_O 	O 	0.0343	0.8875	0.9233	-0.536
Mof_O 	O 	0.8244	0.8041	0.9202	-0.499
Mof_O 	O 	0.9626	0.7454	0.8665	-0.515
Mof_O 	O 	0.1624	0.8307	0.8652	-0.461
Mof_O 	O 	0.1452	0.0112	0.0443	-0.525
Mof_O 	O 	0.0078	0.9293	0.0331	-0.478
Mof_O 	O 	0.0653	0.7904	0.7574	-0.539
Mof_O 	O 	0.0167	0.6716	0.7763	-0.446
Mof_O 	O 	0.8156	0.676	0.7257	-0.538
Mof_O 	O 	0.8598	0.7955	0.7091	-0.482
Mof_O 	O 	0.3364	0.7347	0.8922	-0.508
Mof_O 	O 	0.1443	0.6478	0.8716	-0.47
Mof_O 	O 	0.2055	0.5992	0.9495	-0.53
Mof_O 	O 	0.3962	0.6885	0.972	-0.522
Mof_N 	N 	0.6319	0.9017	0.9356	-0.365
Mof_N 	N 	0.4173	0.8848	0.9001	-0.1
Mof_C 	C 	0.0554	0.8411	0.8942	0.293
Mof_C 	C 	0.9348	0.793	0.894	0.283
Mof_C 	C 	0.0428	0.9829	0.0218	0.282
Mof_C 	C 	0.9526	0.7684	0.7368	0.29
Mof_C 	C 	0.9268	0.699	0.7481	0.278
Mof_C 	C 	0.3258	0.6926	0.9277	0.278
Mof_C 	C 	0.2155	0.6419	0.9153	0.281
Mof_C 	C 	0.549	0.9534	0.9416	0.045
Mof_H 	H 	0.5787	0.9899	0.9576	0.017
Mof_C 	C 	0.5459	0.8621	0.9104	0.16
Mof_H 	H 	0.5731	0.8226	0.901	-0.001
Mof_C 	C 	0.4174	0.9424	0.9204	0.014
Mof_H 	H 	0.3407	0.9695	0.9198	0.058
Mof_In	In	0.65952	0.10985	0.47498	2.526
Mof_In	In	0.32446	0.26398	0.3218	2.713
Mof_O 	O 	0.4657	0.1125	0.4233	-0.538
Mof_O 	O 	0.6756	0.1959	0.4202	-0.499
Mof_O 	O 	0.5374	0.2546	0.3665	-0.513
Mof_O 	O 	0.3376	0.1693	0.3652	-0.461
Mof_O 	O 	0.3548	0.9888	0.5443	-0.523
Mof_O 	O 	0.4922	0.0707	0.5331	-0.478
Mof_O 	O 	0.4347	0.2096	0.2574	-0.541
Mof_O 	O 	0.4833	0.3284	0.2763	-0.448
Mof_O 	O 	0.6844	0.324	0.2257	-0.538
Mof_O 	O 	0.6402	0.2045	0.2091	-0.482
Mof_O 	O 	0.1636	0.2653	0.3922	-0.508
Mof_O 	O 	0.3557	0.3522	0.3716	-0.47
Mof_O 	O 	0.2945	0.4008	0.4495	-0.531
Mof_O 	O 	0.1038	0.3115	0.472	-0.523
Mof_N 	N 	0.8681	0.0983	0.4356	-0.366
Mof_N 	N 	0.0827	0.1152	0.4001	-0.101
Mof_C 	C 	0.4446	0.1589	0.3942	0.291
Mof_C 	C 	0.5652	0.207	0.394	0.286
Mof_C 	C 	0.4572	0.0171	0.5218	0.28
Mof_C 	C 	0.5474	0.2316	0.2368	0.292
Mof_C 	C 	0.5732	0.301	0.2481	0.28
Mof_C 	C 	0.1742	0.3074	0.4277	0.278
Mof_C 	C 	0.2845	0.3581	0.4153	0.281
Mof_C 	C 	0.951	0.0466	0.4416	0.048
Mof_H 	H 	0.9213	0.0101	0.4576	0.016
Mof_C 	C 	0.9541	0.1379	0.4104	0.162
Mof_H 	H 	0.9269	0.1774	0.401	-0.002
Mof_C 	C 	0.0826	0.0576	0.4204	0.011
Mof_H 	H 	0.1593	0.0305	0.4198	0.059
Mof_In	In	0.15952	0.39015	0.52502	2.525
Mof_In	In	0.82446	0.23602	0.6782	2.713
Mof_O 	O 	0.9657	0.3875	0.5767	-0.538
Mof_O 	O 	0.1756	0.3041	0.5798	-0.5
Mof_O 	O 	0.0374	0.2454	0.6335	-0.514
Mof_O 	O 	0.8376	0.3307	0.6348	-0.461
Mof_O 	O 	0.8548	0.5112	0.4557	-0.523
Mof_O 	O 	0.9922	0.4293	0.4669	-0.478
Mof_O 	O 	0.9347	0.2904	0.7426	-0.541
Mof_O 	O 	0.9833	0.1716	0.7237	-0.448
Mof_O 	O 	0.1844	0.176	0.7743	-0.538
Mof_O 	O 	0.1402	0.2955	0.7909	-0.482
Mof_O 	O 	0.6636	0.2347	0.6078	-0.508
Mof_O 	O 	0.8557	0.1478	0.6284	-0.47
Mof_O 	O 	0.7945	0.0992	0.5505	-0.531
Mof_O 	O 	0.6038	0.1885	0.528	-0.522
Mof_N 	N 	0.3681	0.4017	0.5644	-0.366
Mof_N 	N 	0.5827	0.3848	0.5999	-0.1
Mof_C 	C 	0.9446	0.3411	0.6058	0.291
Mof_C 	C 	0.0652	0.293	0.606	0.286
Mof_C 	C 	0.9572	0.4829	0.4782	0.28
Mof_C 	C 	0.0474	0.2684	0.7632	0.292
Mof_C 	C 	0.0732	0.199	0.7519	0.28
Mof_C 	C 	0.6742	0.1926	0.5723	0.278
Mof_C 	C 	0.7845	0.1419	0.5847	0.281
Mof_C 	C 	0.451	0.4534	0.5584	0.045
Mof_H 	H 	0.4213	0.4899	0.5424	0.017
Mof_C 	C 	0.4541	0.3621	0.5896	0.16
Mof_H 	H 	0.4269	0.3226	0.599	-0.001
Mof_C 	C 	0.5826	0.4424	0.5796	0.014
Mof_H 	H 	0.6593	0.4695	0.5802	0.058
Mof_In	In	0.34048	0.60985	0.02502	2.526
Mof_In	In	0.67554	0.76398	0.1782	2.713
Mof_O 	O 	0.5343	0.6125	0.0767	-0.538
Mof_O 	O 	0.3244	0.6959	0.0798	-0.5
Mof_O 	O 	0.4626	0.7546	0.1335	-0.513
Mof_O 	O 	0.6624	0.6693	0.1348	-0.461
Mof_O 	O 	0.6452	0.4888	0.9557	-0.523
Mof_O 	O 	0.5078	0.5707	0.9669	-0.479
Mof_O 	O 	0.5653	0.7096	0.2426	-0.541
Mof_O 	O 	0.5167	0.8284	0.2237	-0.448
Mof_O 	O 	0.3156	0.824	0.2743	-0.538
Mof_O 	O 	0.3598	0.7045	0.2909	-0.482
Mof_O 	O 	0.8364	0.7653	0.1078	-0.508
Mof_O 	O 	0.6443	0.8522	0.1284	-0.47
Mof_O 	O 	0.7055	0.9008	0.0505	-0.528
Mof_O 	O 	0.8962	0.8115	0.028	-0.519
Mof_N 	N 	0.1319	0.5983	0.0644	-0.365
Mof_N 	N 	0.9173	0.6152	0.0999	-0.1
Mof_C 	C 	0.5554	0.6589	0.1058	0.291
Mof_C 	C 	0.4348	0.707	0.106	0.287
Mof_C 	C 	0.5428	0.5171	0.9782	0.28
Mof_C 	C 	0.4526	0.7316	0.2632	0.292
Mof_C 	C 	0.4268	0.801	0.2519	0.28
Mof_C 	C 	0.8258	0.8074	0.0723	0.278
Mof_C 	C 	0.7155	0.8581	0.0847	0.281
Mof_C 	C 	0.049	0.5466	0.0584	0.041
Mof_H 	H 	0.0787	0.5101	0.0424	0.018
Mof_C 	C 	0.0459	0.6379	0.0896	0.158
Mof_H 	H 	0.0731	0.6774	0.099	-0.001
Mof_C 	C 	0.9174	0.5576	0.0796	0.018
Mof_H 	H 	0.8407	0.5305	0.0802	0.057
_end
