data_functionalizedCrystal
_audit_creation_method	'EQeq! by Chris Wilmer'
_symmetry_space_group_name_H-M	'P1'
_symmetry_Int_Tables_number	1
_symmetry_cell_setting	triclinic
loop_
_symmetry_equiv_pos_as_xyz
  x,y,z
_cell_length_a	24.544
_cell_length_b	15.455
_cell_length_c	19.431
_cell_angle_alpha	90
_cell_angle_beta	117.551
_cell_angle_gamma	90
loop_
_atom_site_label
_atom_site_type_symbol
_atom_site_fract_x
_atom_site_fract_y
_atom_site_fract_z
_atom_site_charge
Mof_Mn	Mn	0.86132	0.83864	0.92139	0.906
Mof_O 	O 	0.8177	0.9032	0.8152	-0.402
Mof_O 	O 	0.707	0.2394	0.6075	-0.363
Mof_O 	O 	0.8242	0.1058	0.4896	-0.346
Mof_O 	O 	0.0712	0.2459	0.0967	-0.446
Mof_O 	O 	0.0696	0.2473	0.9824	-0.326
Mof_C 	C 	0.8309	0.8988	0.7598	0.415
Mof_Mn	Mn	0.88032	0.70501	0.78541	0.956
Mof_O 	O 	0.8573	0.8375	0.7477	-0.463
Mof_C 	C 	0.8121	0.9731	0.7043	-0.185
Mof_O 	O 	0.7038	0.1805	0.7096	-0.385
Mof_O 	O 	0.9004	0.5738	0.8268	-0.383
Mof_O 	O 	0.9651	0.6997	0.7702	-0.877
Mof_C 	C 	0.8371	0.977	0.6524	0.102
Mof_C 	C 	0.7754	0.0403	0.7069	0.102
Mof_C 	C 	0.9342	0.5087	0.8398	0.401
Mof_H 	H 	0.8632	0.9336	0.652	-0.046
Mof_C 	C 	0.8221	0.0478	0.601	-0.152
Mof_C 	C 	0.7606	0.1101	0.6544	-0.158
Mof_H 	H 	0.7607	0.0393	0.7432	0.023
Mof_O 	O 	0.9611	0.4866	0.802	-0.415
Mof_C 	C 	0.9433	0.4522	0.9073	-0.124
Mof_O 	O 	0.9164	0.4238	0.1349	-0.365
Mof_C 	C 	0.8487	0.0503	0.5447	0.362
Mof_C 	C 	0.7827	0.1105	0.6025	0.105
Mof_C 	C 	0.721	0.1827	0.6574	0.407
Mof_C 	C 	0.9104	0.4703	0.9503	0.068
Mof_C 	C 	0.9853	0.3884	0.9319	-0.007
Mof_O 	O 	0.8944	0.0061	0.5582	-0.336
Mof_H 	H 	0.7708	0.1549	0.5662	0.038
Mof_H 	H 	0.8802	0.5129	0.9331	0.034
Mof_C 	C 	0.9232	0.4248	0.0166	-0.151
Mof_H 	H 	0.0057	0.3754	0.903	0.098
Mof_C 	C 	0.9994	0.3406	0.9993	-0.16
Mof_C 	C 	0.9693	0.3603	0.0416	0.075
Mof_C 	C 	0.8928	0.4463	0.064	0.343
Mof_C 	C 	0.0492	0.2751	0.0268	0.371
Mof_H 	H 	0.9794	0.3308	0.0877	-0.011
Mof_O 	O 	0.841	0.4834	0.0294	-0.239
Mof_H 	H 	0.029	0.8571	0.7336	0.76
Mof_H 	H 	0.0113	0.8571	0.8014	0.75
Mof_H 	H 	0.9597	0.8571	0.715	0.728
Mof_Mn	Mn	0.36132	0.33864	0.92139	0.905
Mof_O 	O 	0.3177	0.4032	0.8152	-0.404
Mof_O 	O 	0.207	0.7394	0.6075	-0.366
Mof_O 	O 	0.3242	0.6058	0.4896	-0.346
Mof_O 	O 	0.5712	0.7459	0.0967	-0.452
Mof_O 	O 	0.5696	0.7473	0.9824	-0.328
Mof_C 	C 	0.3309	0.3988	0.7598	0.419
Mof_Mn	Mn	0.38032	0.20501	0.78541	0.968
Mof_O 	O 	0.3573	0.3375	0.7477	-0.477
Mof_C 	C 	0.3121	0.4731	0.7043	-0.194
Mof_O 	O 	0.2038	0.6805	0.7096	-0.386
Mof_O 	O 	0.4004	0.0738	0.8268	-0.378
Mof_O 	O 	0.4651	0.1997	0.7702	-0.931
Mof_C 	C 	0.3371	0.477	0.6524	0.111
Mof_C 	C 	0.2754	0.5403	0.7069	0.109
Mof_C 	C 	0.4342	0.0087	0.8398	0.413
Mof_H 	H 	0.3632	0.4336	0.652	-0.064
Mof_C 	C 	0.3221	0.5478	0.601	-0.158
Mof_C 	C 	0.2606	0.6101	0.6544	-0.162
Mof_H 	H 	0.2607	0.5393	0.7432	0.022
Mof_O 	O 	0.4611	0.9866	0.802	-0.386
Mof_C 	C 	0.4433	0.9522	0.9073	-0.15
Mof_O 	O 	0.4164	0.9238	0.1349	-0.348
Mof_C 	C 	0.3487	0.5503	0.5447	0.366
Mof_C 	C 	0.2827	0.6105	0.6025	0.111
Mof_C 	C 	0.221	0.6827	0.6574	0.41
Mof_C 	C 	0.4104	0.9703	0.9503	0.092
Mof_C 	C 	0.4853	0.8884	0.9319	0.084
Mof_O 	O 	0.3944	0.5061	0.5582	-0.342
Mof_H 	H 	0.2708	0.6549	0.5662	0.037
Mof_H 	H 	0.3802	0.0129	0.9331	0.028
Mof_C 	C 	0.4232	0.9248	0.0166	-0.152
Mof_H 	H 	0.5057	0.8754	0.903	0.034
Mof_C 	C 	0.4994	0.8406	0.9993	-0.139
Mof_C 	C 	0.4693	0.8603	0.0416	0.073
Mof_C 	C 	0.3928	0.9463	0.064	0.343
Mof_C 	C 	0.5492	0.7751	0.0268	0.334
Mof_H 	H 	0.4794	0.8308	0.0877	0.005
Mof_O 	O 	0.341	0.9834	0.0294	-0.238
Mof_H 	H 	0.529	0.3571	0.7336	0.917
Mof_H 	H 	0.5113	0.3571	0.8014	0.901
Mof_H 	H 	0.4597	0.3571	0.715	0.909
Mof_Mn	Mn	0.13868	0.83864	0.57861	0.916
Mof_O 	O 	0.1823	0.9032	0.6848	-0.401
Mof_O 	O 	0.293	0.2394	0.8925	-0.363
Mof_O 	O 	0.1758	0.1058	0.0104	-0.346
Mof_O 	O 	0.9288	0.2459	0.4033	-0.451
Mof_O 	O 	0.9304	0.2473	0.5176	-0.333
Mof_C 	C 	0.1691	0.8988	0.7402	0.419
Mof_Mn	Mn	0.11968	0.70501	0.71459	0.97
Mof_O 	O 	0.1427	0.8375	0.7523	-0.461
Mof_C 	C 	0.1879	0.9731	0.7957	-0.181
Mof_O 	O 	0.2962	0.1805	0.7904	-0.384
Mof_O 	O 	0.0996	0.5738	0.6732	-0.382
Mof_O 	O 	0.0349	0.6997	0.7298	-0.832
Mof_C 	C 	0.1629	0.977	0.8476	0.105
Mof_C 	C 	0.2246	0.0403	0.7931	0.102
Mof_C 	C 	0.0658	0.5087	0.6602	0.437
Mof_H 	H 	0.1368	0.9336	0.848	-0.042
Mof_C 	C 	0.1779	0.0478	0.899	-0.147
Mof_C 	C 	0.2394	0.1101	0.8456	-0.155
Mof_H 	H 	0.2393	0.0393	0.7568	0.025
Mof_O 	O 	0.0389	0.4866	0.698	-0.383
Mof_C 	C 	0.0567	0.4522	0.5927	-0.183
Mof_O 	O 	0.0836	0.4238	0.3651	-0.347
Mof_C 	C 	0.1513	0.0503	0.9553	0.365
Mof_C 	C 	0.2173	0.1105	0.8975	0.106
Mof_C 	C 	0.279	0.1827	0.8426	0.408
Mof_C 	C 	0.0896	0.4703	0.5497	0.106
Mof_C 	C 	0.0147	0.3884	0.5681	0.184
Mof_O 	O 	0.1056	0.0061	0.9418	-0.318
Mof_H 	H 	0.2292	0.1549	0.9338	0.04
Mof_H 	H 	0.1198	0.5129	0.5669	0.026
Mof_C 	C 	0.0768	0.4248	0.4834	-0.151
Mof_H 	H 	0.9943	0.3754	0.597	-0.033
Mof_C 	C 	0.0006	0.3406	0.5007	-0.132
Mof_C 	C 	0.0307	0.3603	0.4584	0.087
Mof_C 	C 	0.1072	0.4463	0.436	0.349
Mof_C 	C 	0.9508	0.2751	0.4732	0.311
Mof_H 	H 	0.0206	0.3308	0.4123	0.017
Mof_O 	O 	0.159	0.4834	0.4706	-0.235
Mof_H 	H 	0.971	0.8571	0.7664	0.679
Mof_H 	H 	0.9887	0.8571	0.6986	0.663
Mof_H 	H 	0.0403	0.8571	0.785	0.697
Mof_Mn	Mn	0.63868	0.33864	0.57861	0.903
Mof_O 	O 	0.6823	0.4032	0.6848	-0.405
Mof_O 	O 	0.793	0.7394	0.8925	-0.364
Mof_O 	O 	0.6758	0.6058	0.0104	-0.351
Mof_O 	O 	0.4288	0.7459	0.4033	-0.454
Mof_O 	O 	0.4304	0.7473	0.5176	-0.334
Mof_C 	C 	0.6691	0.3988	0.7402	0.419
Mof_Mn	Mn	0.61968	0.20501	0.71459	0.967
Mof_O 	O 	0.6427	0.3375	0.7523	-0.478
Mof_C 	C 	0.6879	0.4731	0.7957	-0.195
Mof_O 	O 	0.7962	0.6805	0.7904	-0.384
Mof_O 	O 	0.5996	0.0738	0.6732	-0.379
Mof_O 	O 	0.5349	0.1997	0.7298	-0.931
Mof_C 	C 	0.6629	0.477	0.8476	0.112
Mof_C 	C 	0.7246	0.5403	0.7931	0.109
Mof_C 	C 	0.5658	0.0087	0.6602	0.415
Mof_H 	H 	0.6368	0.4336	0.848	-0.064
Mof_C 	C 	0.6779	0.5478	0.899	-0.16
Mof_C 	C 	0.7394	0.6101	0.8456	-0.162
Mof_H 	H 	0.7393	0.5393	0.7568	0.021
Mof_O 	O 	0.5389	0.9866	0.698	-0.387
Mof_C 	C 	0.5567	0.9522	0.5927	-0.152
Mof_O 	O 	0.5836	0.9238	0.3651	-0.347
Mof_C 	C 	0.6513	0.5503	0.9553	0.371
Mof_C 	C 	0.7173	0.6105	0.8975	0.112
Mof_C 	C 	0.779	0.6827	0.8426	0.409
Mof_C 	C 	0.5896	0.9703	0.5497	0.083
Mof_C 	C 	0.5147	0.8884	0.5681	0.089
Mof_O 	O 	0.6056	0.5061	0.9418	-0.342
Mof_H 	H 	0.7292	0.6549	0.9338	0.037
Mof_H 	H 	0.6198	0.0129	0.5669	0.031
Mof_C 	C 	0.5768	0.9248	0.4834	-0.148
Mof_H 	H 	0.4943	0.8754	0.597	0.032
Mof_C 	C 	0.5006	0.8406	0.5007	-0.152
Mof_C 	C 	0.5307	0.8603	0.4584	0.082
Mof_C 	C 	0.6072	0.9463	0.436	0.342
Mof_C 	C 	0.4508	0.7751	0.4732	0.347
Mof_H 	H 	0.5206	0.8308	0.4123	0.002
Mof_O 	O 	0.659	0.9834	0.4706	-0.235
Mof_H 	H 	0.471	0.3571	0.7664	0.917
Mof_H 	H 	0.4887	0.3571	0.6986	0.901
Mof_H 	H 	0.5403	0.3571	0.785	0.909
Mof_Mn	Mn	0.13868	0.16136	0.07861	0.913
Mof_O 	O 	0.1823	0.0968	0.1848	-0.401
Mof_O 	O 	0.293	0.7606	0.3925	-0.363
Mof_O 	O 	0.1758	0.8942	0.5104	-0.343
Mof_O 	O 	0.9288	0.7541	0.9033	-0.454
Mof_O 	O 	0.9304	0.7527	0.0176	-0.34
Mof_C 	C 	0.1691	0.1012	0.2402	0.418
Mof_Mn	Mn	0.11968	0.29499	0.21459	0.969
Mof_O 	O 	0.1427	0.1625	0.2523	-0.462
Mof_C 	C 	0.1879	0.0269	0.2957	-0.181
Mof_O 	O 	0.2962	0.8195	0.2904	-0.384
Mof_O 	O 	0.0996	0.4262	0.1732	-0.383
Mof_O 	O 	0.0349	0.3003	0.2298	-0.834
Mof_C 	C 	0.1629	0.023	0.3476	0.103
Mof_C 	C 	0.2246	0.9597	0.2931	0.102
Mof_C 	C 	0.0658	0.4913	0.1602	0.437
Mof_H 	H 	0.1368	0.0664	0.348	-0.042
Mof_C 	C 	0.1779	0.9522	0.399	-0.145
Mof_C 	C 	0.2394	0.8899	0.3456	-0.155
Mof_H 	H 	0.2393	0.9607	0.2568	0.024
Mof_O 	O 	0.0389	0.5134	0.198	-0.384
Mof_C 	C 	0.0567	0.5478	0.0927	-0.185
Mof_O 	O 	0.0836	0.5762	0.8651	-0.347
Mof_C 	C 	0.1513	0.9497	0.4553	0.361
Mof_C 	C 	0.2173	0.8895	0.3975	0.105
Mof_C 	C 	0.279	0.8173	0.3426	0.407
Mof_C 	C 	0.0896	0.5297	0.0497	0.102
Mof_C 	C 	0.0147	0.6116	0.0681	0.188
Mof_O 	O 	0.1056	0.9939	0.4418	-0.318
Mof_H 	H 	0.2292	0.8451	0.4338	0.04
Mof_H 	H 	0.1198	0.4871	0.0669	0.026
Mof_C 	C 	0.0768	0.5752	0.9834	-0.15
Mof_H 	H 	0.9943	0.6246	0.097	-0.034
Mof_C 	C 	0.0006	0.6594	0.0007	-0.149
Mof_C 	C 	0.0307	0.6397	0.9584	0.099
Mof_C 	C 	0.1072	0.5537	0.936	0.35
Mof_C 	C 	0.9508	0.7249	0.9732	0.325
Mof_H 	H 	0.0206	0.6692	0.9123	0.013
Mof_O 	O 	0.159	0.5166	0.9706	-0.234
Mof_H 	H 	0.971	0.1429	0.2664	0.684
Mof_H 	H 	0.9887	0.1429	0.1986	0.667
Mof_H 	H 	0.0403	0.1429	0.285	0.701
Mof_Mn	Mn	0.63868	0.66136	0.07861	0.901
Mof_O 	O 	0.6823	0.5968	0.1848	-0.405
Mof_O 	O 	0.793	0.2606	0.3925	-0.364
Mof_O 	O 	0.6758	0.3942	0.5104	-0.347
Mof_O 	O 	0.4288	0.2541	0.9033	-0.456
Mof_O 	O 	0.4304	0.2527	0.0176	-0.339
Mof_C 	C 	0.6691	0.6012	0.2402	0.419
Mof_Mn	Mn	0.61968	0.79499	0.21459	0.966
Mof_O 	O 	0.6427	0.6625	0.2523	-0.478
Mof_C 	C 	0.6879	0.5269	0.2957	-0.195
Mof_O 	O 	0.7962	0.3195	0.2904	-0.384
Mof_O 	O 	0.5996	0.9262	0.1732	-0.379
Mof_O 	O 	0.5349	0.8003	0.2298	-0.931
Mof_C 	C 	0.6629	0.523	0.3476	0.112
Mof_C 	C 	0.7246	0.4597	0.2931	0.109
Mof_C 	C 	0.5658	0.9913	0.1602	0.413
Mof_H 	H 	0.6368	0.5664	0.348	-0.064
Mof_C 	C 	0.6779	0.4522	0.399	-0.159
Mof_C 	C 	0.7394	0.3899	0.3456	-0.162
Mof_H 	H 	0.7393	0.4607	0.2568	0.021
Mof_O 	O 	0.5389	0.0134	0.198	-0.386
Mof_C 	C 	0.5567	0.0478	0.0927	-0.154
Mof_O 	O 	0.5836	0.0762	0.8651	-0.347
Mof_C 	C 	0.6513	0.4497	0.4553	0.366
Mof_C 	C 	0.7173	0.3895	0.3975	0.111
Mof_C 	C 	0.779	0.3173	0.3426	0.408
Mof_C 	C 	0.5896	0.0297	0.0497	0.086
Mof_C 	C 	0.5147	0.1116	0.0681	0.093
Mof_O 	O 	0.6056	0.4939	0.4418	-0.342
Mof_H 	H 	0.7292	0.3451	0.4338	0.036
Mof_H 	H 	0.6198	0.9871	0.0669	0.028
Mof_C 	C 	0.5768	0.0752	0.9834	-0.15
Mof_H 	H 	0.4943	0.1246	0.097	0.031
Mof_C 	C 	0.5006	0.1594	0.0007	-0.161
Mof_C 	C 	0.5307	0.1397	0.9584	0.089
Mof_C 	C 	0.6072	0.0537	0.936	0.343
Mof_C 	C 	0.4508	0.2249	0.9732	0.354
Mof_H 	H 	0.5206	0.1692	0.9123	0
Mof_O 	O 	0.659	0.0166	0.9706	-0.234
Mof_H 	H 	0.471	0.6429	0.2664	0.916
Mof_H 	H 	0.4887	0.6429	0.1986	0.899
Mof_H 	H 	0.5403	0.6429	0.285	0.908
Mof_Mn	Mn	0.86132	0.16136	0.42139	0.902
Mof_O 	O 	0.8177	0.0968	0.3152	-0.403
Mof_O 	O 	0.707	0.7606	0.1075	-0.365
Mof_O 	O 	0.8242	0.8942	0.9896	-0.342
Mof_O 	O 	0.0712	0.7541	0.5967	-0.448
Mof_O 	O 	0.0696	0.7527	0.4824	-0.332
Mof_C 	C 	0.8309	0.1012	0.2598	0.415
Mof_Mn	Mn	0.88032	0.29499	0.28541	0.955
Mof_O 	O 	0.8573	0.1625	0.2477	-0.464
Mof_C 	C 	0.8121	0.0269	0.2043	-0.185
Mof_O 	O 	0.7038	0.8195	0.2096	-0.385
Mof_O 	O 	0.9004	0.4262	0.3268	-0.384
Mof_O 	O 	0.9651	0.3003	0.2702	-0.879
Mof_C 	C 	0.8371	0.023	0.1524	0.103
Mof_C 	C 	0.7754	0.9597	0.2069	0.101
Mof_C 	C 	0.9342	0.4913	0.3398	0.401
Mof_H 	H 	0.8632	0.0664	0.152	-0.047
Mof_C 	C 	0.8221	0.9522	0.101	-0.152
Mof_C 	C 	0.7606	0.8899	0.1544	-0.158
Mof_H 	H 	0.7607	0.9607	0.2432	0.023
Mof_O 	O 	0.9611	0.5134	0.302	-0.415
Mof_C 	C 	0.9433	0.5478	0.4073	-0.126
Mof_O 	O 	0.9164	0.5762	0.6349	-0.366
Mof_C 	C 	0.8487	0.9497	0.0447	0.357
Mof_C 	C 	0.7827	0.8895	0.1025	0.105
Mof_C 	C 	0.721	0.8173	0.1574	0.407
Mof_C 	C 	0.9104	0.5297	0.4503	0.066
Mof_C 	C 	0.9853	0.6116	0.4319	-0.002
Mof_O 	O 	0.8944	0.9939	0.0582	-0.337
Mof_H 	H 	0.7708	0.8451	0.0662	0.037
Mof_H 	H 	0.8802	0.4871	0.4331	0.034
Mof_C 	C 	0.9232	0.5752	0.5166	-0.15
Mof_H 	H 	0.0057	0.6246	0.403	0.096
Mof_C 	C 	0.9994	0.6594	0.4993	-0.172
Mof_C 	C 	0.9693	0.6397	0.5416	0.083
Mof_C 	C 	0.8928	0.5537	0.564	0.343
Mof_C 	C 	0.0492	0.7249	0.5268	0.383
Mof_H 	H 	0.9794	0.6692	0.5877	-0.014
Mof_O 	O 	0.841	0.5166	0.5294	-0.237
Mof_H 	H 	0.029	0.1429	0.2336	0.763
Mof_H 	H 	0.0113	0.1429	0.3014	0.753
Mof_H 	H 	0.9597	0.1429	0.215	0.732
Mof_Mn	Mn	0.36132	0.66136	0.42139	0.904
Mof_O 	O 	0.3177	0.5968	0.3152	-0.404
Mof_O 	O 	0.207	0.2606	0.1075	-0.366
Mof_O 	O 	0.3242	0.3942	0.9896	-0.343
Mof_O 	O 	0.5712	0.2541	0.5967	-0.454
Mof_O 	O 	0.5696	0.2527	0.4824	-0.334
Mof_C 	C 	0.3309	0.6012	0.2598	0.419
Mof_Mn	Mn	0.38032	0.79499	0.28541	0.967
Mof_O 	O 	0.3573	0.6625	0.2477	-0.477
Mof_C 	C 	0.3121	0.5269	0.2043	-0.194
Mof_O 	O 	0.2038	0.3195	0.2096	-0.386
Mof_O 	O 	0.4004	0.9262	0.3268	-0.379
Mof_O 	O 	0.4651	0.8003	0.2702	-0.931
Mof_C 	C 	0.3371	0.523	0.1524	0.111
Mof_C 	C 	0.2754	0.4597	0.2069	0.108
Mof_C 	C 	0.4342	0.9913	0.3398	0.414
Mof_H 	H 	0.3632	0.5664	0.152	-0.064
Mof_C 	C 	0.3221	0.4522	0.101	-0.158
Mof_C 	C 	0.2606	0.3899	0.1544	-0.162
Mof_H 	H 	0.2607	0.4607	0.2432	0.021
Mof_O 	O 	0.4611	0.0134	0.302	-0.386
Mof_C 	C 	0.4433	0.0478	0.4073	-0.152
Mof_O 	O 	0.4164	0.0762	0.6349	-0.347
Mof_C 	C 	0.3487	0.4497	0.0447	0.362
Mof_C 	C 	0.2827	0.3895	0.1025	0.11
Mof_C 	C 	0.221	0.3173	0.1574	0.41
Mof_C 	C 	0.4104	0.0297	0.4503	0.084
Mof_C 	C 	0.4853	0.1116	0.4319	0.089
Mof_O 	O 	0.3944	0.4939	0.0582	-0.342
Mof_H 	H 	0.2708	0.3451	0.0662	0.037
Mof_H 	H 	0.3802	0.9871	0.4331	0.03
Mof_C 	C 	0.4232	0.0752	0.5166	-0.148
Mof_H 	H 	0.5057	0.1246	0.403	0.032
Mof_C 	C 	0.4994	0.1594	0.4993	-0.152
Mof_C 	C 	0.4693	0.1397	0.5416	0.082
Mof_C 	C 	0.3928	0.0537	0.564	0.342
Mof_C 	C 	0.5492	0.2249	0.5268	0.347
Mof_H 	H 	0.4794	0.1692	0.5877	0.002
Mof_O 	O 	0.341	0.0166	0.5294	-0.235
Mof_H 	H 	0.529	0.6429	0.2336	0.916
Mof_H 	H 	0.5113	0.6429	0.3014	0.9
Mof_H 	H 	0.4597	0.6429	0.215	0.908
Mof_Mn	Mn	-6.95878e-17	0.56802	0.75	1.061
Mof_C 	C 	-6.95878e-17	0.7402	0.75	1.691
Mof_C 	C 	-6.95878e-17	0.8364	0.75	-4.194
Mof_Mn	Mn	0.5	0.06802	0.75	0.998
Mof_C 	C 	0.5	0.2402	0.75	1.984
Mof_C 	C 	0.5	0.3364	0.75	-5.346
Mof_Mn	Mn	1.08532e-33	0.43198	0.25	1.059
Mof_C 	C 	1.08532e-33	0.2598	0.25	1.697
Mof_C 	C 	1.08532e-33	0.1636	0.25	-4.216
Mof_Mn	Mn	0.5	0.93198	0.25	0.997
Mof_C 	C 	0.5	0.7598	0.25	1.982
Mof_C 	C 	0.5	0.6636	0.25	-5.34
_end
