data_functionalizedCrystal
_audit_creation_method	'EQeq! by Chris Wilmer'
_symmetry_space_group_name_H-M	'P1'
_symmetry_Int_Tables_number	1
_symmetry_cell_setting	triclinic
loop_
_symmetry_equiv_pos_as_xyz
  x,y,z
_cell_length_a	10.852
_cell_length_b	10.9126
_cell_length_c	11.1478
_cell_angle_alpha	84.499
_cell_angle_beta	88.211
_cell_angle_gamma	66.36
loop_
_atom_site_label
_atom_site_type_symbol
_atom_site_fract_x
_atom_site_fract_y
_atom_site_fract_z
_atom_site_charge
Mof_Co	Co	0.0951	0.8933	0.2522	1.15
Mof_Co	Co	0.9677	0.8677	0.0012	1.129
Mof_Co	Co	0.8498	0.0141	0.4849	1.114
Mof_N 	N 	0.799	0.9432	0.3319	-0.21
Mof_N 	N 	0.879	0.9414	0.2382	-0.188
Mof_N 	N 	0.831	0.9144	0.1398	-0.222
Mof_N 	N 	0.0761	0.1766	0.1635	-0.216
Mof_N 	N 	0.0898	0.0871	0.2581	-0.192
Mof_N 	N 	0.107	0.1289	0.3618	-0.218
Mof_C 	C 	0.695	0.9165	0.2936	0.042
Mof_C 	C 	0.715	0.8983	0.1708	0.075
Mof_C 	C 	0.624	0.872	0.1046	-0.144
Mof_H 	H 	0.6354	0.8629	0.0225	0.065
Mof_C 	C 	0.515	0.86	0.1646	0.036
Mof_H 	H 	0.4541	0.8397	0.1229	0.013
Mof_C 	C 	0.497	0.878	0.2863	-0.095
Mof_C 	C 	0.585	0.9082	0.3543	-0.057
Mof_H 	H 	0.5708	0.9217	0.4356	0.061
Mof_C 	C 	0.381	0.867	0.3436	0.319
Mof_C 	C 	0.085	0.2844	0.2093	0.045
Mof_C 	C 	0.1045	0.2545	0.333	0.072
Mof_C 	C 	0.118	0.3433	0.4078	-0.14
Mof_H 	H 	0.1307	0.322	0.4905	0.067
Mof_C 	C 	0.111	0.4658	0.3526	0.034
Mof_H 	H 	0.1191	0.528	0.3997	0.025
Mof_C 	C 	0.092	0.4974	0.2297	-0.087
Mof_C 	C 	0.078	0.4081	0.1553	-0.062
Mof_H 	H 	0.0656	0.4299	0.0727	0.066
Mof_C 	C 	0.085	0.6313	0.1764	0.358
Mof_O 	O 	0.0969	0.9271	0.0671	-0.72
Mof_H 	H 	0.193	0.8732	0.0728	0.154
Mof_O 	O 	0.057	0.896	0.4288	-0.731
Mof_H 	H 	0.0558	0.8222	0.4802	0.164
Mof_O 	O 	0.35	0.9045	0.4504	-0.417
Mof_O 	O 	0.305	0.823	0.2845	-0.407
Mof_O 	O 	0.043	0.6728	0.0683	-0.447
Mof_O 	O 	0.114	0.6985	0.2484	-0.438
Mof_Co	Co	0.9049	0.1067	0.7478	1.151
Mof_Co	Co	0.0323	0.1323	0.9988	1.13
Mof_Co	Co	0.1502	0.9859	0.5151	1.115
Mof_N 	N 	0.201	0.0568	0.6681	-0.209
Mof_N 	N 	0.121	0.0586	0.7618	-0.188
Mof_N 	N 	0.169	0.0856	0.8602	-0.222
Mof_N 	N 	0.9239	0.8234	0.8365	-0.216
Mof_N 	N 	0.9102	0.9129	0.7419	-0.192
Mof_N 	N 	0.893	0.8711	0.6382	-0.218
Mof_C 	C 	0.305	0.0835	0.7064	0.042
Mof_C 	C 	0.285	0.1017	0.8292	0.075
Mof_C 	C 	0.376	0.128	0.8954	-0.144
Mof_H 	H 	0.3646	0.1371	0.9775	0.065
Mof_C 	C 	0.485	0.14	0.8354	0.036
Mof_H 	H 	0.5459	0.1603	0.8771	0.013
Mof_C 	C 	0.503	0.122	0.7137	-0.095
Mof_C 	C 	0.415	0.0918	0.6457	-0.057
Mof_H 	H 	0.4292	0.0783	0.5644	0.061
Mof_C 	C 	0.619	0.133	0.6564	0.319
Mof_C 	C 	0.915	0.7156	0.7907	0.045
Mof_C 	C 	0.8955	0.7455	0.667	0.072
Mof_C 	C 	0.882	0.6567	0.5922	-0.14
Mof_H 	H 	0.8693	0.678	0.5095	0.067
Mof_C 	C 	0.889	0.5342	0.6474	0.034
Mof_H 	H 	0.8809	0.472	0.6003	0.025
Mof_C 	C 	0.908	0.5026	0.7703	-0.087
Mof_C 	C 	0.922	0.5919	0.8447	-0.062
Mof_H 	H 	0.9344	0.5701	0.9273	0.066
Mof_C 	C 	0.915	0.3687	0.8236	0.358
Mof_O 	O 	0.9031	0.0729	0.9329	-0.72
Mof_H 	H 	0.807	0.1268	0.9272	0.154
Mof_O 	O 	0.943	0.104	0.5712	-0.731
Mof_H 	H 	0.9442	0.1778	0.5198	0.164
Mof_O 	O 	0.65	0.0955	0.5496	-0.417
Mof_O 	O 	0.695	0.177	0.7155	-0.407
Mof_O 	O 	0.957	0.3272	0.9317	-0.447
Mof_O 	O 	0.886	0.3015	0.7516	-0.438
_end
