data_functionalizedCrystal
_audit_creation_method	'EQeq! by Chris Wilmer'
_symmetry_space_group_name_H-M	'P1'
_symmetry_Int_Tables_number	1
_symmetry_cell_setting	triclinic
loop_
_symmetry_equiv_pos_as_xyz
  x,y,z
_cell_length_a	11.2397
_cell_length_b	12.4964
_cell_length_c	22.302
_cell_angle_alpha	102.114
_cell_angle_beta	103.41
_cell_angle_gamma	95.597
loop_
_atom_site_label
_atom_site_type_symbol
_atom_site_fract_x
_atom_site_fract_y
_atom_site_fract_z
_atom_site_charge
Mof_Sm	Sm	0.30133	0.44659	0.45122	2.975
Mof_Sm	Sm	0.95971	0.63153	0.94941	2.858
Mof_Sm	Sm	0.69867	0.55341	0.54878	2.975
Mof_Sm	Sm	0.04029	0.36847	0.05059	2.858
Mof_Co	Co	0.32198	0.08632	0.74286	1.174
Mof_Co	Co	0.67802	0.91368	0.25714	1.174
Mof_H 	H 	0.2244	0.1283	0.6115	0.041
Mof_H 	H 	0.3056	0.2341	0.5498	0.036
Mof_H 	H 	0.5945	0.3588	0.7023	0.046
Mof_H 	H 	0.6732	0.3666	0.808	0.02
Mof_H 	H 	0.6816	0.1814	0.9325	0.026
Mof_H 	H 	0.5018	0.074	0.8697	0.032
Mof_H 	H 	0.3188	0.8491	0.7746	0.033
Mof_H 	H 	0.2386	0.7726	0.8408	0.07
Mof_H 	H 	0.1511	0.063	0.9205	0.072
Mof_H 	H 	0.1574	0.2417	0.9186	0.032
Mof_H 	H 	0.1978	0.458	0.8132	0.074
Mof_H 	H 	0.2678	0.3253	0.7496	0.015
Mof_H 	H 	0.0511	0.131	0.7196	0.025
Mof_H 	H 	0.8633	0.0401	0.6513	0.087
Mof_H 	H 	0.0418	0.7858	0.5872	0.061
Mof_H 	H 	0.2324	0.7502	0.5811	0.055
Mof_H 	H 	0.5982	0.8323	0.6655	0.037
Mof_H 	H 	0.5606	0.9846	0.7314	0.05
Mof_H 	H 	0.2577	0.3255	0.3184	0.232
Mof_H 	H 	0.1267	0.3176	0.3331	0.232
Mof_H 	H 	0.161	0.6003	0.3982	0.268
Mof_H 	H 	0.0689	0.4885	0.3814	0.252
Mof_H 	H 	0.118	0.3851	0.5162	0.238
Mof_H 	H 	0.2261	0.4663	0.5688	0.232
Mof_H 	H 	0.949	0.6436	0.8193	0.251
Mof_H 	H 	0.8343	0.556	0.8147	0.225
Mof_H 	H 	0.7438	0.7241	0.9688	0.223
Mof_H 	H 	0.6947	0.6107	0.918	0.214
Mof_H 	H 	0.0186	0.8007	0.0657	0.339
Mof_H 	H 	0.0176	0.862	0.0231	0.533
Mof_H 	H 	0.7756	0.8717	0.3885	0.04
Mof_H 	H 	0.6944	0.7659	0.4502	0.035
Mof_H 	H 	0.4055	0.6412	0.2977	0.046
Mof_H 	H 	0.3268	0.6334	0.192	0.02
Mof_H 	H 	0.3184	0.8186	0.0675	0.026
Mof_H 	H 	0.4982	0.926	0.1303	0.032
Mof_H 	H 	0.6812	0.1509	0.2254	0.033
Mof_H 	H 	0.7614	0.2274	0.1592	0.07
Mof_H 	H 	0.8489	0.937	0.0795	0.072
Mof_H 	H 	0.8426	0.7583	0.0814	0.032
Mof_H 	H 	0.8022	0.542	0.1868	0.074
Mof_H 	H 	0.7322	0.6747	0.2504	0.015
Mof_H 	H 	0.9489	0.869	0.2804	0.025
Mof_H 	H 	0.1367	0.9599	0.3487	0.087
Mof_H 	H 	0.9582	0.2142	0.4128	0.061
Mof_H 	H 	0.7676	0.2498	0.4189	0.055
Mof_H 	H 	0.4018	0.1677	0.3345	0.037
Mof_H 	H 	0.4394	0.0154	0.2686	0.05
Mof_H 	H 	0.7423	0.6745	0.6816	0.232
Mof_H 	H 	0.8733	0.6824	0.6669	0.232
Mof_H 	H 	0.839	0.3997	0.6018	0.268
Mof_H 	H 	0.9311	0.5115	0.6186	0.252
Mof_H 	H 	0.882	0.6149	0.4838	0.238
Mof_H 	H 	0.7739	0.5337	0.4312	0.232
Mof_H 	H 	0.051	0.3564	0.1807	0.251
Mof_H 	H 	0.1657	0.444	0.1853	0.225
Mof_H 	H 	0.2562	0.2759	0.0312	0.223
Mof_H 	H 	0.3053	0.3893	0.082	0.214
Mof_H 	H 	0.9814	0.1993	0.9343	0.339
Mof_H 	H 	0.9824	0.138	0.9769	0.533
Mof_C 	C 	0.301	0.1732	0.629	-0
Mof_C 	C 	0.348	0.2405	0.5918	0.028
Mof_C 	C 	0.4535	0.3125	0.61812	-0.139
Mof_C 	C 	0.5207	0.3107	0.6826	-0.013
Mof_C 	C 	0.4774	0.2407	0.71375	0.039
Mof_C 	C 	0.5339	0.2315	0.77861	0.009
Mof_C 	C 	0.6397	0.3068	0.8207	0.032
Mof_C 	C 	0.693	0.29	0.8815	-0.194
Mof_C 	C 	0.6433	0.1995	0.8951	0.054
Mof_C 	C 	0.5376	0.1315	0.856	-0.012
Mof_C 	C 	0.505	0.3923	0.58525	0.556
Mof_C 	C 	0.8054	0.3686	0.9249	0.665
Mof_C 	C 	0.2832	0.892	0.8029	0.02
Mof_C 	C 	0.2378	0.8476	0.84284	-0.032
Mof_C 	C 	0.1875	0.9102	0.8889	-0.063
Mof_C 	C 	0.1827	0.0195	0.8904	-0.046
Mof_C 	C 	0.2267	0.0651	0.8456	0.057
Mof_C 	C 	0.2294	0.1821	0.8438	0.004
Mof_C 	C 	0.1836	0.2604	0.885	0.002
Mof_C 	C 	0.1784	0.3647	0.8745	-0.129
Mof_C 	C 	0.2062	0.3897	0.8228	-0.029
Mof_C 	C 	0.2481	0.3066	0.78475	0.053
Mof_C 	C 	0.1332	0.8571	0.9318	0.397
Mof_C 	C 	0.1217	0.4395	0.9156	0.496
Mof_C 	C 	0.0478	0.0633	0.6917	0.053
Mof_C 	C 	0.9344	0.0072	0.6531	-0.039
Mof_C 	C 	0.9291	0.9031	0.6181	-0.062
Mof_C 	C 	0.0438	0.8545	0.61378	-0.038
Mof_C 	C 	0.153	0.918	0.6517	0.051
Mof_C 	C 	0.2758	0.8855	0.64977	0.01
Mof_C 	C 	0.2983	0.7979	0.6109	0.028
Mof_C 	C 	0.4225	0.7752	0.61408	-0.143
Mof_C 	C 	0.5174	0.8467	0.661	0.032
Mof_C 	C 	0.4955	0.9375	0.7007	-0.002
Mof_C 	C 	0.8074	0.829	0.5824	0.425
Mof_C 	C 	0.4577	0.6792	0.572	0.607
Mof_C 	C 	0.699	0.8268	0.371	-0
Mof_C 	C 	0.652	0.7595	0.4082	0.028
Mof_C 	C 	0.5465	0.6875	0.38188	-0.139
Mof_C 	C 	0.4793	0.6893	0.3174	-0.013
Mof_C 	C 	0.5226	0.7593	0.28625	0.039
Mof_C 	C 	0.4661	0.7685	0.22139	0.009
Mof_C 	C 	0.3603	0.6932	0.1793	0.032
Mof_C 	C 	0.307	0.71	0.1185	-0.194
Mof_C 	C 	0.3567	0.8005	0.1049	0.054
Mof_C 	C 	0.4624	0.8685	0.144	-0.012
Mof_C 	C 	0.495	0.6077	0.41475	0.556
Mof_C 	C 	0.1946	0.6314	0.0751	0.665
Mof_C 	C 	0.7168	0.108	0.1971	0.02
Mof_C 	C 	0.7622	0.1524	0.15716	-0.032
Mof_C 	C 	0.8125	0.0898	0.1111	-0.063
Mof_C 	C 	0.8173	0.9805	0.1096	-0.046
Mof_C 	C 	0.7733	0.9349	0.1544	0.057
Mof_C 	C 	0.7706	0.8179	0.1562	0.004
Mof_C 	C 	0.8164	0.7396	0.115	0.002
Mof_C 	C 	0.8216	0.6353	0.1255	-0.129
Mof_C 	C 	0.7938	0.6103	0.1772	-0.029
Mof_C 	C 	0.7519	0.6934	0.21525	0.053
Mof_C 	C 	0.8668	0.1429	0.0682	0.397
Mof_C 	C 	0.8783	0.5605	0.0844	0.496
Mof_C 	C 	0.9522	0.9367	0.3083	0.053
Mof_C 	C 	0.0656	0.9928	0.3469	-0.039
Mof_C 	C 	0.0709	0.0969	0.3819	-0.062
Mof_C 	C 	0.9562	0.1455	0.38622	-0.038
Mof_C 	C 	0.847	0.082	0.3483	0.051
Mof_C 	C 	0.7242	0.1145	0.35023	0.01
Mof_C 	C 	0.7017	0.2021	0.3891	0.028
Mof_C 	C 	0.5775	0.2248	0.38592	-0.143
Mof_C 	C 	0.4826	0.1533	0.339	0.032
Mof_C 	C 	0.5045	0.0625	0.2993	-0.002
Mof_C 	C 	0.1926	0.171	0.4176	0.425
Mof_C 	C 	0.5423	0.3208	0.428	0.607
Mof_N 	N 	0.3671	0.1734	0.69037	-0.244
Mof_N 	N 	0.4843	0.1472	0.79744	-0.228
Mof_N 	N 	0.2782	0.0075	0.8028	-0.238
Mof_N 	N 	0.2643	0.207	0.79008	-0.245
Mof_N 	N 	0.1554	0.0209	0.6896	-0.237
Mof_N 	N 	0.3763	0.9584	0.69469	-0.221
Mof_N 	N 	0.6329	0.8266	0.30963	-0.244
Mof_N 	N 	0.5157	0.8528	0.20256	-0.228
Mof_N 	N 	0.7218	0.9925	0.1972	-0.238
Mof_N 	N 	0.7357	0.793	0.20992	-0.245
Mof_N 	N 	0.8446	0.9791	0.3104	-0.237
Mof_N 	N 	0.6237	0.0416	0.30531	-0.221
Mof_O 	O 	0.4297	0.4101	0.53809	-0.7
Mof_O 	O 	0.6196	0.4321	0.6006	-0.619
Mof_O 	O 	0.8393	0.4511	0.90862	-0.678
Mof_O 	O 	0.8556	0.3406	0.97146	-0.689
Mof_O 	O 	0.0916	0.7551	0.91824	-0.538
Mof_O 	O 	0.1286	0.9236	0.98359	-0.319
Mof_O 	O 	0.0953	0.4157	0.96302	-0.654
Mof_O 	O 	0.0911	0.5271	0.89637	-0.536
Mof_O 	O 	0.7134	0.874	0.57127	-0.272
Mof_O 	O 	0.8049	0.7265	0.56129	-0.618
Mof_O 	O 	0.3636	0.6233	0.52925	-0.581
Mof_O 	O 	0.5557	0.6467	0.58681	-0.698
Mof_O 	O 	0.2018	0.3665	0.33757	-0.666
Mof_O 	O 	0.1318	0.5399	0.41457	-0.698
Mof_O 	O 	0.1733	0.4541	0.52637	-0.663
Mof_O 	O 	0.8805	0.6281	0.83716	-0.666
Mof_O 	O 	0.7542	0.6776	0.93056	-0.686
Mof_O 	O 	0.9794	0.8102	0.02577	-1.032
Mof_O 	O 	0.5703	0.5899	0.46191	-0.7
Mof_O 	O 	0.3804	0.5679	0.3994	-0.619
Mof_O 	O 	0.1607	0.5489	0.09138	-0.678
Mof_O 	O 	0.1444	0.6594	0.02854	-0.689
Mof_O 	O 	0.9084	0.2449	0.08176	-0.538
Mof_O 	O 	0.8714	0.0764	0.01641	-0.319
Mof_O 	O 	0.9047	0.5843	0.03698	-0.654
Mof_O 	O 	0.9089	0.4729	0.10363	-0.536
Mof_O 	O 	0.2866	0.126	0.42873	-0.272
Mof_O 	O 	0.1951	0.2735	0.43871	-0.618
Mof_O 	O 	0.6364	0.3767	0.47075	-0.581
Mof_O 	O 	0.4443	0.3533	0.41319	-0.698
Mof_O 	O 	0.7982	0.6335	0.66243	-0.666
Mof_O 	O 	0.8682	0.4601	0.58543	-0.698
Mof_O 	O 	0.8267	0.5459	0.47363	-0.663
Mof_O 	O 	0.1195	0.3719	0.16284	-0.666
Mof_O 	O 	0.2458	0.3224	0.06944	-0.686
Mof_O 	O 	0.0206	0.1898	0.97423	-1.032
Mof_N 	N 	0.8615	0.0361	0.79918	0.06
Mof_O 	O 	0.9022	0.9483	0.79717	-0.126
Mof_O 	O 	0.9094	0.1172	0.8442	-0.161
Mof_O 	O 	0.7752	0.0459	0.75792	-0.126
Mof_N 	N 	0.1238	0.6047	0.7092	0.052
Mof_O 	O 	0.0381	0.6235	0.73497	-0.146
Mof_O 	O 	0.212	0.5713	0.73853	-0.131
Mof_O 	O 	0.1256	0.6288	0.65853	-0.146
Mof_N 	N 	0.2121	0.8493	0.46143	0.053
Mof_O 	O 	0.3172	0.8967	0.47721	-0.094
Mof_O 	O 	0.1892	0.7481	0.43772	-0.134
Mof_O 	O 	0.1239	0.8985	0.46839	-0.109
Mof_N 	N 	0.1385	0.9639	0.20082	0.06
Mof_O 	O 	0.0978	0.0517	0.20283	-0.126
Mof_O 	O 	0.0906	0.8828	0.1558	-0.161
Mof_O 	O 	0.2248	0.9541	0.24208	-0.126
Mof_N 	N 	0.8762	0.3953	0.2908	0.052
Mof_O 	O 	0.9619	0.3765	0.26503	-0.146
Mof_O 	O 	0.788	0.4287	0.26147	-0.131
Mof_O 	O 	0.8744	0.3712	0.34147	-0.146
Mof_N 	N 	0.7879	0.1507	0.53857	0.053
Mof_O 	O 	0.6828	0.1033	0.52279	-0.094
Mof_O 	O 	0.8108	0.2519	0.56228	-0.134
Mof_O 	O 	0.8761	0.1015	0.53161	-0.109
_end
