data_functionalizedCrystal
_audit_creation_method	'EQeq! by Chris Wilmer'
_symmetry_space_group_name_H-M	'P1'
_symmetry_Int_Tables_number	1
_symmetry_cell_setting	triclinic
loop_
_symmetry_equiv_pos_as_xyz
  x,y,z
_cell_length_a	26.4529
_cell_length_b	26.4529
_cell_length_c	26.4529
_cell_angle_alpha	90
_cell_angle_beta	90
_cell_angle_gamma	90
loop_
_atom_site_label
_atom_site_type_symbol
_atom_site_fract_x
_atom_site_fract_y
_atom_site_fract_z
_atom_site_charge
Mof_Co	Co	0.83851	0.868	0.77524	1.099
Mof_Co	Co	0.82465	0.76018	0.73207	1.138
Mof_Co	Co	0.78948	0.85631	0.66836	1.106
Mof_Co	Co	0.66149	0.132	0.27524	1.099
Mof_Co	Co	0.67535	0.23982	0.23207	1.138
Mof_Co	Co	0.71052	0.14369	0.16836	1.106
Mof_Co	Co	0.16149	0.368	0.72476	1.099
Mof_Co	Co	0.17535	0.26018	0.76793	1.138
Mof_Co	Co	0.21052	0.35631	0.83164	1.106
Mof_Co	Co	0.33851	0.632	0.22476	1.099
Mof_Co	Co	0.32465	0.73982	0.26793	1.138
Mof_Co	Co	0.28948	0.64369	0.33164	1.106
Mof_Co	Co	0.77524	0.83851	0.868	1.1
Mof_Co	Co	0.73207	0.82465	0.76018	1.139
Mof_Co	Co	0.66836	0.78948	0.85631	1.107
Mof_Co	Co	0.27524	0.66149	0.132	1.1
Mof_Co	Co	0.23207	0.67535	0.23982	1.139
Mof_Co	Co	0.16836	0.71052	0.14369	1.107
Mof_Co	Co	0.72476	0.16149	0.368	1.1
Mof_Co	Co	0.76793	0.17535	0.26018	1.139
Mof_Co	Co	0.83164	0.21052	0.35631	1.107
Mof_Co	Co	0.22476	0.33851	0.632	1.1
Mof_Co	Co	0.26793	0.32465	0.73982	1.139
Mof_Co	Co	0.33164	0.28948	0.64369	1.107
Mof_Co	Co	0.868	0.77524	0.83851	1.1
Mof_Co	Co	0.76018	0.73207	0.82465	1.139
Mof_Co	Co	0.85631	0.66836	0.78948	1.107
Mof_Co	Co	0.132	0.27524	0.66149	1.1
Mof_Co	Co	0.23982	0.23207	0.67535	1.139
Mof_Co	Co	0.14369	0.16836	0.71052	1.107
Mof_Co	Co	0.368	0.72476	0.16149	1.1
Mof_Co	Co	0.26018	0.76793	0.17535	1.139
Mof_Co	Co	0.35631	0.83164	0.21052	1.107
Mof_Co	Co	0.632	0.22476	0.33851	1.1
Mof_Co	Co	0.73982	0.26793	0.32465	1.139
Mof_Co	Co	0.64369	0.33164	0.28948	1.107
Mof_Co	Co	0.16149	0.132	0.22476	1.1
Mof_Co	Co	0.17535	0.23982	0.26793	1.139
Mof_Co	Co	0.21052	0.14369	0.33164	1.107
Mof_Co	Co	0.33851	0.868	0.72476	1.1
Mof_Co	Co	0.32465	0.76018	0.76793	1.139
Mof_Co	Co	0.28948	0.85631	0.83164	1.107
Mof_Co	Co	0.83851	0.632	0.27524	1.1
Mof_Co	Co	0.82465	0.73982	0.23207	1.139
Mof_Co	Co	0.78948	0.64369	0.16836	1.107
Mof_Co	Co	0.66149	0.368	0.77524	1.1
Mof_Co	Co	0.67535	0.26018	0.73207	1.139
Mof_Co	Co	0.71052	0.35631	0.66836	1.107
Mof_Co	Co	0.22476	0.16149	0.132	1.1
Mof_Co	Co	0.26793	0.17535	0.23982	1.139
Mof_Co	Co	0.33164	0.21052	0.14369	1.107
Mof_Co	Co	0.72476	0.33851	0.868	1.1
Mof_Co	Co	0.76793	0.32465	0.76018	1.139
Mof_Co	Co	0.83164	0.28948	0.85631	1.107
Mof_Co	Co	0.27524	0.83851	0.632	1.1
Mof_Co	Co	0.23207	0.82465	0.73982	1.139
Mof_Co	Co	0.16836	0.78948	0.64369	1.107
Mof_Co	Co	0.77524	0.66149	0.368	1.1
Mof_Co	Co	0.73207	0.67535	0.26018	1.139
Mof_Co	Co	0.66836	0.71052	0.35631	1.107
Mof_Co	Co	0.132	0.22476	0.16149	1.1
Mof_Co	Co	0.23982	0.26793	0.17535	1.139
Mof_Co	Co	0.14369	0.33164	0.21052	1.107
Mof_Co	Co	0.868	0.72476	0.33851	1.1
Mof_Co	Co	0.76018	0.76793	0.32465	1.139
Mof_Co	Co	0.85631	0.83164	0.28948	1.107
Mof_Co	Co	0.632	0.27524	0.83851	1.1
Mof_Co	Co	0.73982	0.23207	0.82465	1.139
Mof_Co	Co	0.64369	0.16836	0.78948	1.107
Mof_Co	Co	0.368	0.77524	0.66149	1.1
Mof_Co	Co	0.26018	0.73207	0.67535	1.139
Mof_Co	Co	0.35631	0.66836	0.71052	1.107
Mof_Co	Co	0.88223	0.88223	0.88223	0.998
Mof_Co	Co	0.61777	0.11777	0.38223	0.998
Mof_Co	Co	0.11777	0.38223	0.61777	0.998
Mof_Co	Co	0.38223	0.61777	0.11777	0.998
Mof_Co	Co	0.11777	0.11777	0.11777	0.998
Mof_Co	Co	0.38223	0.88223	0.61777	0.998
Mof_Co	Co	0.88223	0.61777	0.38223	0.998
Mof_Co	Co	0.61777	0.38223	0.88223	0.998
Mof_H 	H 	0.0604	0.7611	0.6209	-0.038
Mof_H 	H 	0.9812	0.7631	0.6545	0.098
Mof_H 	H 	0.1117	0.8468	0.7264	-0.019
Mof_H 	H 	0.0336	0.8527	0.7633	0.083
Mof_H 	H 	0.9604	0.7396	0.7767	-0.08
Mof_H 	H 	0.9384	0.7294	0.7227	-0.055
Mof_H 	H 	0.9114	0.8071	0.6664	-0.051
Mof_H 	H 	0.9179	0.8617	0.6883	-0.078
Mof_H 	H 	0.9537	0.8745	0.7767	-0.105
Mof_H 	H 	0.9711	0.8281	0.809	-0.101
Mof_H 	H 	0.7022	0.7687	0.6583	-0.043
Mof_H 	H 	0.7494	0.735	0.6468	-0.04
Mof_H 	H 	0.6894	0.7082	0.6078	0.034
Mof_H 	H 	0.639	0.6571	0.5572	-0.01
Mof_H 	H 	0.5984	0.5811	0.6791	0.008
Mof_H 	H 	0.6497	0.6286	0.7325	0.037
Mof_H 	H 	0.8838	0.6589	0.6006	0.297
Mof_H 	H 	0.8814	0.6078	0.6305	0.298
Mof_H 	H 	0.8314	0.6367	0.6171	0.315
Mof_H 	H 	0.4396	0.2389	0.1209	-0.039
Mof_H 	H 	0.5188	0.2369	0.1545	0.099
Mof_H 	H 	0.3883	0.1532	0.2264	-0.019
Mof_H 	H 	0.4664	0.1473	0.2633	0.084
Mof_H 	H 	0.5396	0.2604	0.2767	-0.08
Mof_H 	H 	0.5616	0.2706	0.2227	-0.055
Mof_H 	H 	0.5886	0.1929	0.1664	-0.051
Mof_H 	H 	0.5821	0.1383	0.1883	-0.078
Mof_H 	H 	0.5463	0.1255	0.2767	-0.105
Mof_H 	H 	0.5289	0.1719	0.309	-0.101
Mof_H 	H 	0.7978	0.2313	0.1583	-0.043
Mof_H 	H 	0.7506	0.265	0.1468	-0.04
Mof_H 	H 	0.8106	0.2918	0.1078	0.034
Mof_H 	H 	0.861	0.3429	0.0572	-0.01
Mof_H 	H 	0.9016	0.4189	0.1791	0.009
Mof_H 	H 	0.8503	0.3714	0.2325	0.037
Mof_H 	H 	0.6162	0.3411	0.1006	0.297
Mof_H 	H 	0.6186	0.3922	0.1305	0.299
Mof_H 	H 	0.6686	0.3633	0.1171	0.315
Mof_H 	H 	0.9396	0.2611	0.8791	-0.039
Mof_H 	H 	0.0188	0.2631	0.8455	0.099
Mof_H 	H 	0.8883	0.3468	0.7736	-0.019
Mof_H 	H 	0.9664	0.3527	0.7367	0.084
Mof_H 	H 	0.0396	0.2396	0.7233	-0.08
Mof_H 	H 	0.0616	0.2294	0.7773	-0.055
Mof_H 	H 	0.0886	0.3071	0.8336	-0.051
Mof_H 	H 	0.0821	0.3617	0.8117	-0.078
Mof_H 	H 	0.0463	0.3745	0.7233	-0.105
Mof_H 	H 	0.0289	0.3281	0.691	-0.101
Mof_H 	H 	0.2978	0.2687	0.8417	-0.043
Mof_H 	H 	0.2506	0.235	0.8532	-0.04
Mof_H 	H 	0.3106	0.2082	0.8922	0.034
Mof_H 	H 	0.361	0.1571	0.9428	-0.01
Mof_H 	H 	0.4016	0.0811	0.8209	0.008
Mof_H 	H 	0.3503	0.1286	0.7675	0.037
Mof_H 	H 	0.1162	0.1589	0.8994	0.297
Mof_H 	H 	0.1186	0.1078	0.8695	0.299
Mof_H 	H 	0.1686	0.1367	0.8829	0.315
Mof_H 	H 	0.5604	0.7389	0.3791	-0.039
Mof_H 	H 	0.4812	0.7369	0.3455	0.099
Mof_H 	H 	0.6117	0.6532	0.2736	-0.019
Mof_H 	H 	0.5336	0.6473	0.2367	0.084
Mof_H 	H 	0.4604	0.7604	0.2233	-0.08
Mof_H 	H 	0.4384	0.7706	0.2773	-0.055
Mof_H 	H 	0.4114	0.6929	0.3336	-0.051
Mof_H 	H 	0.4179	0.6383	0.3117	-0.078
Mof_H 	H 	0.4537	0.6255	0.2233	-0.104
Mof_H 	H 	0.4711	0.6719	0.191	-0.101
Mof_H 	H 	0.2022	0.7313	0.3417	-0.043
Mof_H 	H 	0.2494	0.765	0.3532	-0.04
Mof_H 	H 	0.1894	0.7918	0.3922	0.034
Mof_H 	H 	0.139	0.8429	0.4428	-0.01
Mof_H 	H 	0.0984	0.9189	0.3209	0.009
Mof_H 	H 	0.1497	0.8714	0.2675	0.037
Mof_H 	H 	0.3838	0.8411	0.3994	0.297
Mof_H 	H 	0.3814	0.8922	0.3695	0.299
Mof_H 	H 	0.3314	0.8633	0.3829	0.315
Mof_H 	H 	0.6209	0.0604	0.7611	-0.038
Mof_H 	H 	0.6545	0.9812	0.7631	0.098
Mof_H 	H 	0.7264	0.1117	0.8468	-0.019
Mof_H 	H 	0.7633	0.0336	0.8527	0.083
Mof_H 	H 	0.7767	0.9604	0.7396	-0.08
Mof_H 	H 	0.7227	0.9384	0.7294	-0.055
Mof_H 	H 	0.6664	0.9114	0.8071	-0.051
Mof_H 	H 	0.6883	0.9179	0.8617	-0.078
Mof_H 	H 	0.7767	0.9537	0.8745	-0.105
Mof_H 	H 	0.809	0.9711	0.8281	-0.101
Mof_H 	H 	0.6583	0.7022	0.7687	-0.043
Mof_H 	H 	0.6468	0.7494	0.735	-0.04
Mof_H 	H 	0.6078	0.6894	0.7082	0.034
Mof_H 	H 	0.5572	0.639	0.6571	-0.01
Mof_H 	H 	0.6791	0.5984	0.5811	0.008
Mof_H 	H 	0.7325	0.6497	0.6286	0.037
Mof_H 	H 	0.6006	0.8838	0.6589	0.297
Mof_H 	H 	0.6305	0.8814	0.6078	0.298
Mof_H 	H 	0.6171	0.8314	0.6367	0.315
Mof_H 	H 	0.1209	0.4396	0.2389	-0.039
Mof_H 	H 	0.1545	0.5188	0.2369	0.099
Mof_H 	H 	0.2264	0.3883	0.1532	-0.019
Mof_H 	H 	0.2633	0.4664	0.1473	0.084
Mof_H 	H 	0.2767	0.5396	0.2604	-0.08
Mof_H 	H 	0.2227	0.5616	0.2706	-0.055
Mof_H 	H 	0.1664	0.5886	0.1929	-0.051
Mof_H 	H 	0.1883	0.5821	0.1383	-0.078
Mof_H 	H 	0.2767	0.5463	0.1255	-0.105
Mof_H 	H 	0.309	0.5289	0.1719	-0.101
Mof_H 	H 	0.1583	0.7978	0.2313	-0.043
Mof_H 	H 	0.1468	0.7506	0.265	-0.04
Mof_H 	H 	0.1078	0.8106	0.2918	0.034
Mof_H 	H 	0.0572	0.861	0.3429	-0.01
Mof_H 	H 	0.1791	0.9016	0.4189	0.009
Mof_H 	H 	0.2325	0.8503	0.3714	0.037
Mof_H 	H 	0.1006	0.6162	0.3411	0.297
Mof_H 	H 	0.1305	0.6186	0.3922	0.299
Mof_H 	H 	0.1171	0.6686	0.3633	0.315
Mof_H 	H 	0.8791	0.9396	0.2611	-0.039
Mof_H 	H 	0.8455	0.0188	0.2631	0.099
Mof_H 	H 	0.7736	0.8883	0.3468	-0.019
Mof_H 	H 	0.7367	0.9664	0.3527	0.084
Mof_H 	H 	0.7233	0.0396	0.2396	-0.08
Mof_H 	H 	0.7773	0.0616	0.2294	-0.055
Mof_H 	H 	0.8336	0.0886	0.3071	-0.051
Mof_H 	H 	0.8117	0.0821	0.3617	-0.078
Mof_H 	H 	0.7233	0.0463	0.3745	-0.105
Mof_H 	H 	0.691	0.0289	0.3281	-0.101
Mof_H 	H 	0.8417	0.2978	0.2687	-0.043
Mof_H 	H 	0.8532	0.2506	0.235	-0.04
Mof_H 	H 	0.8922	0.3106	0.2082	0.034
Mof_H 	H 	0.9428	0.361	0.1571	-0.01
Mof_H 	H 	0.8209	0.4016	0.0811	0.008
Mof_H 	H 	0.7675	0.3503	0.1286	0.037
Mof_H 	H 	0.8994	0.1162	0.1589	0.297
Mof_H 	H 	0.8695	0.1186	0.1078	0.299
Mof_H 	H 	0.8829	0.1686	0.1367	0.315
Mof_H 	H 	0.3791	0.5604	0.7389	-0.039
Mof_H 	H 	0.3455	0.4812	0.7369	0.099
Mof_H 	H 	0.2736	0.6117	0.6532	-0.019
Mof_H 	H 	0.2367	0.5336	0.6473	0.084
Mof_H 	H 	0.2233	0.4604	0.7604	-0.08
Mof_H 	H 	0.2773	0.4384	0.7706	-0.055
Mof_H 	H 	0.3336	0.4114	0.6929	-0.051
Mof_H 	H 	0.3117	0.4179	0.6383	-0.078
Mof_H 	H 	0.2233	0.4537	0.6255	-0.104
Mof_H 	H 	0.191	0.4711	0.6719	-0.101
Mof_H 	H 	0.3417	0.2022	0.7313	-0.043
Mof_H 	H 	0.3532	0.2494	0.765	-0.04
Mof_H 	H 	0.3922	0.1894	0.7918	0.034
Mof_H 	H 	0.4428	0.139	0.8429	-0.01
Mof_H 	H 	0.3209	0.0984	0.9189	0.009
Mof_H 	H 	0.2675	0.1497	0.8714	0.037
Mof_H 	H 	0.3994	0.3838	0.8411	0.297
Mof_H 	H 	0.3695	0.3814	0.8922	0.299
Mof_H 	H 	0.3829	0.3314	0.8633	0.315
Mof_H 	H 	0.7611	0.6209	0.0604	-0.038
Mof_H 	H 	0.7631	0.6545	0.9812	0.098
Mof_H 	H 	0.8468	0.7264	0.1117	-0.019
Mof_H 	H 	0.8527	0.7633	0.0336	0.083
Mof_H 	H 	0.7396	0.7767	0.9604	-0.08
Mof_H 	H 	0.7294	0.7227	0.9384	-0.055
Mof_H 	H 	0.8071	0.6664	0.9114	-0.051
Mof_H 	H 	0.8617	0.6883	0.9179	-0.078
Mof_H 	H 	0.8745	0.7767	0.9537	-0.105
Mof_H 	H 	0.8281	0.809	0.9711	-0.101
Mof_H 	H 	0.7687	0.6583	0.7022	-0.043
Mof_H 	H 	0.735	0.6468	0.7494	-0.04
Mof_H 	H 	0.7082	0.6078	0.6894	0.034
Mof_H 	H 	0.6571	0.5572	0.639	-0.01
Mof_H 	H 	0.5811	0.6791	0.5984	0.008
Mof_H 	H 	0.6286	0.7325	0.6497	0.037
Mof_H 	H 	0.6589	0.6006	0.8838	0.297
Mof_H 	H 	0.6078	0.6305	0.8814	0.298
Mof_H 	H 	0.6367	0.6171	0.8314	0.315
Mof_H 	H 	0.2389	0.1209	0.4396	-0.039
Mof_H 	H 	0.2369	0.1545	0.5188	0.099
Mof_H 	H 	0.1532	0.2264	0.3883	-0.019
Mof_H 	H 	0.1473	0.2633	0.4664	0.084
Mof_H 	H 	0.2604	0.2767	0.5396	-0.08
Mof_H 	H 	0.2706	0.2227	0.5616	-0.055
Mof_H 	H 	0.1929	0.1664	0.5886	-0.051
Mof_H 	H 	0.1383	0.1883	0.5821	-0.078
Mof_H 	H 	0.1255	0.2767	0.5463	-0.105
Mof_H 	H 	0.1719	0.309	0.5289	-0.101
Mof_H 	H 	0.2313	0.1583	0.7978	-0.043
Mof_H 	H 	0.265	0.1468	0.7506	-0.04
Mof_H 	H 	0.2918	0.1078	0.8106	0.034
Mof_H 	H 	0.3429	0.0572	0.861	-0.01
Mof_H 	H 	0.4189	0.1791	0.9016	0.009
Mof_H 	H 	0.3714	0.2325	0.8503	0.037
Mof_H 	H 	0.3411	0.1006	0.6162	0.297
Mof_H 	H 	0.3922	0.1305	0.6186	0.299
Mof_H 	H 	0.3633	0.1171	0.6686	0.315
Mof_H 	H 	0.2611	0.8791	0.9396	-0.039
Mof_H 	H 	0.2631	0.8455	0.0188	0.099
Mof_H 	H 	0.3468	0.7736	0.8883	-0.019
Mof_H 	H 	0.3527	0.7367	0.9664	0.084
Mof_H 	H 	0.2396	0.7233	0.0396	-0.08
Mof_H 	H 	0.2294	0.7773	0.0616	-0.055
Mof_H 	H 	0.3071	0.8336	0.0886	-0.051
Mof_H 	H 	0.3617	0.8117	0.0821	-0.078
Mof_H 	H 	0.3745	0.7233	0.0463	-0.105
Mof_H 	H 	0.3281	0.691	0.0289	-0.101
Mof_H 	H 	0.2687	0.8417	0.2978	-0.043
Mof_H 	H 	0.235	0.8532	0.2506	-0.04
Mof_H 	H 	0.2082	0.8922	0.3106	0.034
Mof_H 	H 	0.1571	0.9428	0.361	-0.01
Mof_H 	H 	0.0811	0.8209	0.4016	0.008
Mof_H 	H 	0.1286	0.7675	0.3503	0.037
Mof_H 	H 	0.1589	0.8994	0.1162	0.297
Mof_H 	H 	0.1078	0.8695	0.1186	0.299
Mof_H 	H 	0.1367	0.8829	0.1686	0.315
Mof_H 	H 	0.7389	0.3791	0.5604	-0.039
Mof_H 	H 	0.7369	0.3455	0.4812	0.099
Mof_H 	H 	0.6532	0.2736	0.6117	-0.019
Mof_H 	H 	0.6473	0.2367	0.5336	0.084
Mof_H 	H 	0.7604	0.2233	0.4604	-0.08
Mof_H 	H 	0.7706	0.2773	0.4384	-0.055
Mof_H 	H 	0.6929	0.3336	0.4114	-0.051
Mof_H 	H 	0.6383	0.3117	0.4179	-0.078
Mof_H 	H 	0.6255	0.2233	0.4537	-0.104
Mof_H 	H 	0.6719	0.191	0.4711	-0.101
Mof_H 	H 	0.7313	0.3417	0.2022	-0.043
Mof_H 	H 	0.765	0.3532	0.2494	-0.04
Mof_H 	H 	0.7918	0.3922	0.1894	0.034
Mof_H 	H 	0.8429	0.4428	0.139	-0.01
Mof_H 	H 	0.9189	0.3209	0.0984	0.009
Mof_H 	H 	0.8714	0.2675	0.1497	0.037
Mof_H 	H 	0.8411	0.3994	0.3838	0.297
Mof_H 	H 	0.8922	0.3695	0.3814	0.299
Mof_H 	H 	0.8633	0.3829	0.3314	0.315
Mof_H 	H 	0.9396	0.2389	0.3791	-0.038
Mof_H 	H 	0.0188	0.2369	0.3455	0.098
Mof_H 	H 	0.8883	0.1532	0.2736	-0.019
Mof_H 	H 	0.9664	0.1473	0.2367	0.083
Mof_H 	H 	0.0396	0.2604	0.2233	-0.08
Mof_H 	H 	0.0616	0.2706	0.2773	-0.055
Mof_H 	H 	0.0886	0.1929	0.3336	-0.051
Mof_H 	H 	0.0821	0.1383	0.3117	-0.078
Mof_H 	H 	0.0463	0.1255	0.2233	-0.105
Mof_H 	H 	0.0289	0.1719	0.191	-0.101
Mof_H 	H 	0.2978	0.2313	0.3417	-0.043
Mof_H 	H 	0.2506	0.265	0.3532	-0.04
Mof_H 	H 	0.3106	0.2918	0.3922	0.034
Mof_H 	H 	0.361	0.3429	0.4428	-0.01
Mof_H 	H 	0.4016	0.4189	0.3209	0.008
Mof_H 	H 	0.3503	0.3714	0.2675	0.037
Mof_H 	H 	0.1162	0.3411	0.3994	0.297
Mof_H 	H 	0.1186	0.3922	0.3695	0.298
Mof_H 	H 	0.1686	0.3633	0.3829	0.315
Mof_H 	H 	0.5604	0.7611	0.8791	-0.039
Mof_H 	H 	0.4812	0.7631	0.8455	0.099
Mof_H 	H 	0.6117	0.8468	0.7736	-0.019
Mof_H 	H 	0.5336	0.8527	0.7367	0.084
Mof_H 	H 	0.4604	0.7396	0.7233	-0.08
Mof_H 	H 	0.4384	0.7294	0.7773	-0.055
Mof_H 	H 	0.4114	0.8071	0.8336	-0.051
Mof_H 	H 	0.4179	0.8617	0.8117	-0.078
Mof_H 	H 	0.4537	0.8745	0.7233	-0.105
Mof_H 	H 	0.4711	0.8281	0.691	-0.101
Mof_H 	H 	0.2022	0.7687	0.8417	-0.043
Mof_H 	H 	0.2494	0.735	0.8532	-0.04
Mof_H 	H 	0.1894	0.7082	0.8922	0.034
Mof_H 	H 	0.139	0.6571	0.9428	-0.01
Mof_H 	H 	0.0984	0.5811	0.8209	0.009
Mof_H 	H 	0.1497	0.6286	0.7675	0.037
Mof_H 	H 	0.3838	0.6589	0.8994	0.297
Mof_H 	H 	0.3814	0.6078	0.8695	0.299
Mof_H 	H 	0.3314	0.6367	0.8829	0.315
Mof_H 	H 	0.0604	0.7389	0.1209	-0.039
Mof_H 	H 	0.9812	0.7369	0.1545	0.099
Mof_H 	H 	0.1117	0.6532	0.2264	-0.019
Mof_H 	H 	0.0336	0.6473	0.2633	0.084
Mof_H 	H 	0.9604	0.7604	0.2767	-0.08
Mof_H 	H 	0.9384	0.7706	0.2227	-0.055
Mof_H 	H 	0.9114	0.6929	0.1664	-0.051
Mof_H 	H 	0.9179	0.6383	0.1883	-0.078
Mof_H 	H 	0.9537	0.6255	0.2767	-0.105
Mof_H 	H 	0.9711	0.6719	0.309	-0.101
Mof_H 	H 	0.7022	0.7313	0.1583	-0.043
Mof_H 	H 	0.7494	0.765	0.1468	-0.04
Mof_H 	H 	0.6894	0.7918	0.1078	0.034
Mof_H 	H 	0.639	0.8429	0.0572	-0.01
Mof_H 	H 	0.5984	0.9189	0.1791	0.008
Mof_H 	H 	0.6497	0.8714	0.2325	0.037
Mof_H 	H 	0.8838	0.8411	0.1006	0.297
Mof_H 	H 	0.8814	0.8922	0.1305	0.299
Mof_H 	H 	0.8314	0.8633	0.1171	0.315
Mof_H 	H 	0.4396	0.2611	0.6209	-0.039
Mof_H 	H 	0.5188	0.2631	0.6545	0.099
Mof_H 	H 	0.3883	0.3468	0.7264	-0.019
Mof_H 	H 	0.4664	0.3527	0.7633	0.084
Mof_H 	H 	0.5396	0.2396	0.7767	-0.08
Mof_H 	H 	0.5616	0.2294	0.7227	-0.055
Mof_H 	H 	0.5886	0.3071	0.6664	-0.051
Mof_H 	H 	0.5821	0.3617	0.6883	-0.078
Mof_H 	H 	0.5463	0.3745	0.7767	-0.104
Mof_H 	H 	0.5289	0.3281	0.809	-0.101
Mof_H 	H 	0.7978	0.2687	0.6583	-0.043
Mof_H 	H 	0.7506	0.235	0.6468	-0.04
Mof_H 	H 	0.8106	0.2082	0.6078	0.034
Mof_H 	H 	0.861	0.1571	0.5572	-0.01
Mof_H 	H 	0.9016	0.0811	0.6791	0.009
Mof_H 	H 	0.8503	0.1286	0.7325	0.037
Mof_H 	H 	0.6162	0.1589	0.6006	0.297
Mof_H 	H 	0.6186	0.1078	0.6305	0.299
Mof_H 	H 	0.6686	0.1367	0.6171	0.315
Mof_H 	H 	0.3791	0.9396	0.2389	-0.038
Mof_H 	H 	0.3455	0.0188	0.2369	0.098
Mof_H 	H 	0.2736	0.8883	0.1532	-0.019
Mof_H 	H 	0.2367	0.9664	0.1473	0.083
Mof_H 	H 	0.2233	0.0396	0.2604	-0.08
Mof_H 	H 	0.2773	0.0616	0.2706	-0.055
Mof_H 	H 	0.3336	0.0886	0.1929	-0.051
Mof_H 	H 	0.3117	0.0821	0.1383	-0.078
Mof_H 	H 	0.2233	0.0463	0.1255	-0.105
Mof_H 	H 	0.191	0.0289	0.1719	-0.101
Mof_H 	H 	0.3417	0.2978	0.2313	-0.043
Mof_H 	H 	0.3532	0.2506	0.265	-0.04
Mof_H 	H 	0.3922	0.3106	0.2918	0.034
Mof_H 	H 	0.4428	0.361	0.3429	-0.01
Mof_H 	H 	0.3209	0.4016	0.4189	0.008
Mof_H 	H 	0.2675	0.3503	0.3714	0.037
Mof_H 	H 	0.3994	0.1162	0.3411	0.297
Mof_H 	H 	0.3695	0.1186	0.3922	0.298
Mof_H 	H 	0.3829	0.1686	0.3633	0.315
Mof_H 	H 	0.8791	0.5604	0.7611	-0.039
Mof_H 	H 	0.8455	0.4812	0.7631	0.099
Mof_H 	H 	0.7736	0.6117	0.8468	-0.019
Mof_H 	H 	0.7367	0.5336	0.8527	0.084
Mof_H 	H 	0.7233	0.4604	0.7396	-0.08
Mof_H 	H 	0.7773	0.4384	0.7294	-0.055
Mof_H 	H 	0.8336	0.4114	0.8071	-0.051
Mof_H 	H 	0.8117	0.4179	0.8617	-0.078
Mof_H 	H 	0.7233	0.4537	0.8745	-0.105
Mof_H 	H 	0.691	0.4711	0.8281	-0.101
Mof_H 	H 	0.8417	0.2022	0.7687	-0.043
Mof_H 	H 	0.8532	0.2494	0.735	-0.04
Mof_H 	H 	0.8922	0.1894	0.7082	0.034
Mof_H 	H 	0.9428	0.139	0.6571	-0.01
Mof_H 	H 	0.8209	0.0984	0.5811	0.009
Mof_H 	H 	0.7675	0.1497	0.6286	0.037
Mof_H 	H 	0.8994	0.3838	0.6589	0.297
Mof_H 	H 	0.8695	0.3814	0.6078	0.299
Mof_H 	H 	0.8829	0.3314	0.6367	0.315
Mof_H 	H 	0.1209	0.0604	0.7389	-0.039
Mof_H 	H 	0.1545	0.9812	0.7369	0.099
Mof_H 	H 	0.2264	0.1117	0.6532	-0.019
Mof_H 	H 	0.2633	0.0336	0.6473	0.084
Mof_H 	H 	0.2767	0.9604	0.7604	-0.08
Mof_H 	H 	0.2227	0.9384	0.7706	-0.055
Mof_H 	H 	0.1664	0.9114	0.6929	-0.051
Mof_H 	H 	0.1883	0.9179	0.6383	-0.078
Mof_H 	H 	0.2767	0.9537	0.6255	-0.105
Mof_H 	H 	0.309	0.9711	0.6719	-0.101
Mof_H 	H 	0.1583	0.7022	0.7313	-0.043
Mof_H 	H 	0.1468	0.7494	0.765	-0.04
Mof_H 	H 	0.1078	0.6894	0.7918	0.034
Mof_H 	H 	0.0572	0.639	0.8429	-0.01
Mof_H 	H 	0.1791	0.5984	0.9189	0.008
Mof_H 	H 	0.2325	0.6497	0.8714	0.037
Mof_H 	H 	0.1006	0.8838	0.8411	0.297
Mof_H 	H 	0.1305	0.8814	0.8922	0.299
Mof_H 	H 	0.1171	0.8314	0.8633	0.315
Mof_H 	H 	0.6209	0.4396	0.2611	-0.039
Mof_H 	H 	0.6545	0.5188	0.2631	0.099
Mof_H 	H 	0.7264	0.3883	0.3468	-0.019
Mof_H 	H 	0.7633	0.4664	0.3527	0.084
Mof_H 	H 	0.7767	0.5396	0.2396	-0.08
Mof_H 	H 	0.7227	0.5616	0.2294	-0.055
Mof_H 	H 	0.6664	0.5886	0.3071	-0.051
Mof_H 	H 	0.6883	0.5821	0.3617	-0.078
Mof_H 	H 	0.7767	0.5463	0.3745	-0.104
Mof_H 	H 	0.809	0.5289	0.3281	-0.101
Mof_H 	H 	0.6583	0.7978	0.2687	-0.043
Mof_H 	H 	0.6468	0.7506	0.235	-0.04
Mof_H 	H 	0.6078	0.8106	0.2082	0.034
Mof_H 	H 	0.5572	0.861	0.1571	-0.01
Mof_H 	H 	0.6791	0.9016	0.0811	0.009
Mof_H 	H 	0.7325	0.8503	0.1286	0.037
Mof_H 	H 	0.6006	0.6162	0.1589	0.297
Mof_H 	H 	0.6305	0.6186	0.1078	0.299
Mof_H 	H 	0.6171	0.6686	0.1367	0.315
Mof_H 	H 	0.2389	0.3791	0.9396	-0.038
Mof_H 	H 	0.2369	0.3455	0.0188	0.098
Mof_H 	H 	0.1532	0.2736	0.8883	-0.019
Mof_H 	H 	0.1473	0.2367	0.9664	0.083
Mof_H 	H 	0.2604	0.2233	0.0396	-0.08
Mof_H 	H 	0.2706	0.2773	0.0616	-0.055
Mof_H 	H 	0.1929	0.3336	0.0886	-0.051
Mof_H 	H 	0.1383	0.3117	0.0821	-0.078
Mof_H 	H 	0.1255	0.2233	0.0463	-0.105
Mof_H 	H 	0.1719	0.191	0.0289	-0.101
Mof_H 	H 	0.2313	0.3417	0.2978	-0.043
Mof_H 	H 	0.265	0.3532	0.2506	-0.04
Mof_H 	H 	0.2918	0.3922	0.3106	0.034
Mof_H 	H 	0.3429	0.4428	0.361	-0.01
Mof_H 	H 	0.4189	0.3209	0.4016	0.008
Mof_H 	H 	0.3714	0.2675	0.3503	0.037
Mof_H 	H 	0.3411	0.3994	0.1162	0.297
Mof_H 	H 	0.3922	0.3695	0.1186	0.298
Mof_H 	H 	0.3633	0.3829	0.1686	0.315
Mof_H 	H 	0.7611	0.8791	0.5604	-0.039
Mof_H 	H 	0.7631	0.8455	0.4812	0.099
Mof_H 	H 	0.8468	0.7736	0.6117	-0.019
Mof_H 	H 	0.8527	0.7367	0.5336	0.084
Mof_H 	H 	0.7396	0.7233	0.4604	-0.08
Mof_H 	H 	0.7294	0.7773	0.4384	-0.055
Mof_H 	H 	0.8071	0.8336	0.4114	-0.051
Mof_H 	H 	0.8617	0.8117	0.4179	-0.078
Mof_H 	H 	0.8745	0.7233	0.4537	-0.105
Mof_H 	H 	0.8281	0.691	0.4711	-0.101
Mof_H 	H 	0.7687	0.8417	0.2022	-0.043
Mof_H 	H 	0.735	0.8532	0.2494	-0.04
Mof_H 	H 	0.7082	0.8922	0.1894	0.034
Mof_H 	H 	0.6571	0.9428	0.139	-0.01
Mof_H 	H 	0.5811	0.8209	0.0984	0.009
Mof_H 	H 	0.6286	0.7675	0.1497	0.037
Mof_H 	H 	0.6589	0.8994	0.3838	0.297
Mof_H 	H 	0.6078	0.8695	0.3814	0.299
Mof_H 	H 	0.6367	0.8829	0.3314	0.315
Mof_H 	H 	0.7389	0.1209	0.0604	-0.039
Mof_H 	H 	0.7369	0.1545	0.9812	0.099
Mof_H 	H 	0.6532	0.2264	0.1117	-0.019
Mof_H 	H 	0.6473	0.2633	0.0336	0.084
Mof_H 	H 	0.7604	0.2767	0.9604	-0.08
Mof_H 	H 	0.7706	0.2227	0.9384	-0.055
Mof_H 	H 	0.6929	0.1664	0.9114	-0.051
Mof_H 	H 	0.6383	0.1883	0.9179	-0.078
Mof_H 	H 	0.6255	0.2767	0.9537	-0.105
Mof_H 	H 	0.6719	0.309	0.9711	-0.101
Mof_H 	H 	0.7313	0.1583	0.7022	-0.043
Mof_H 	H 	0.765	0.1468	0.7494	-0.04
Mof_H 	H 	0.7918	0.1078	0.6894	0.034
Mof_H 	H 	0.8429	0.0572	0.639	-0.01
Mof_H 	H 	0.9189	0.1791	0.5984	0.008
Mof_H 	H 	0.8714	0.2325	0.6497	0.037
Mof_H 	H 	0.8411	0.1006	0.8838	0.297
Mof_H 	H 	0.8922	0.1305	0.8814	0.299
Mof_H 	H 	0.8633	0.1171	0.8314	0.315
Mof_H 	H 	0.2611	0.6209	0.4396	-0.039
Mof_H 	H 	0.2631	0.6545	0.5188	0.099
Mof_H 	H 	0.3468	0.7264	0.3883	-0.019
Mof_H 	H 	0.3527	0.7633	0.4664	0.084
Mof_H 	H 	0.2396	0.7767	0.5396	-0.08
Mof_H 	H 	0.2294	0.7227	0.5616	-0.055
Mof_H 	H 	0.3071	0.6664	0.5886	-0.051
Mof_H 	H 	0.3617	0.6883	0.5821	-0.078
Mof_H 	H 	0.3745	0.7767	0.5463	-0.104
Mof_H 	H 	0.3281	0.809	0.5289	-0.101
Mof_H 	H 	0.2687	0.6583	0.7978	-0.043
Mof_H 	H 	0.235	0.6468	0.7506	-0.04
Mof_H 	H 	0.2082	0.6078	0.8106	0.034
Mof_H 	H 	0.1571	0.5572	0.861	-0.01
Mof_H 	H 	0.0811	0.6791	0.9016	0.009
Mof_H 	H 	0.1286	0.7325	0.8503	0.037
Mof_H 	H 	0.1589	0.6006	0.6162	0.297
Mof_H 	H 	0.1078	0.6305	0.6186	0.299
Mof_H 	H 	0.1367	0.6171	0.6686	0.315
Mof_C 	C 	0.0553	0.7791	0.6507	0.118
Mof_C 	C 	0.0072	0.7803	0.6707	-0.226
Mof_C 	C 	0.0851	0.829	0.7119	0.103
Mof_C 	C 	0.0378	0.8327	0.7347	-0.214
Mof_C 	C 	0.997	0.8068	0.7148	0.175
Mof_C 	C 	0.9436	0.8064	0.7384	-0.266
Mof_C 	C 	0.9347	0.75	0.7527	0.226
Mof_C 	C 	0.9075	0.8275	0.6966	0.216
Mof_C 	C 	0.9448	0.8403	0.7866	0.247
Mof_C 	C 	0.7304	0.751	0.6737	0.2
Mof_C 	C 	0.6706	0.6814	0.6234	-0.05
Mof_C 	C 	0.6404	0.6514	0.593	0.047
Mof_C 	C 	0.6181	0.6078	0.6643	-0.009
Mof_C 	C 	0.6476	0.6361	0.697	-0.086
Mof_C 	C 	0.8697	0.67	0.6772	0.598
Mof_C 	C 	0.866	0.6405	0.6265	-0.989
Mof_C 	C 	0.4447	0.2209	0.1507	0.119
Mof_C 	C 	0.4928	0.2197	0.1707	-0.228
Mof_C 	C 	0.4149	0.171	0.2119	0.104
Mof_C 	C 	0.4622	0.1673	0.2347	-0.215
Mof_C 	C 	0.503	0.1932	0.2148	0.177
Mof_C 	C 	0.5564	0.1936	0.2384	-0.267
Mof_C 	C 	0.5653	0.25	0.2527	0.226
Mof_C 	C 	0.5925	0.1725	0.1966	0.216
Mof_C 	C 	0.5552	0.1597	0.2866	0.247
Mof_C 	C 	0.7696	0.249	0.1737	0.2
Mof_C 	C 	0.8294	0.3186	0.1234	-0.05
Mof_C 	C 	0.8596	0.3486	0.093	0.047
Mof_C 	C 	0.8819	0.3922	0.1643	-0.009
Mof_C 	C 	0.8524	0.3639	0.197	-0.086
Mof_C 	C 	0.6303	0.33	0.1772	0.598
Mof_C 	C 	0.634	0.3595	0.1265	-0.989
Mof_C 	C 	0.9447	0.2791	0.8493	0.119
Mof_C 	C 	0.9928	0.2803	0.8293	-0.229
Mof_C 	C 	0.9149	0.329	0.7881	0.104
Mof_C 	C 	0.9622	0.3327	0.7653	-0.216
Mof_C 	C 	0.003	0.3068	0.7852	0.178
Mof_C 	C 	0.0564	0.3064	0.7616	-0.267
Mof_C 	C 	0.0653	0.25	0.7473	0.226
Mof_C 	C 	0.0925	0.3275	0.8034	0.216
Mof_C 	C 	0.0552	0.3403	0.7134	0.248
Mof_C 	C 	0.2696	0.251	0.8263	0.2
Mof_C 	C 	0.3294	0.1814	0.8766	-0.05
Mof_C 	C 	0.3596	0.1514	0.907	0.047
Mof_C 	C 	0.3819	0.1078	0.8357	-0.009
Mof_C 	C 	0.3524	0.1361	0.803	-0.086
Mof_C 	C 	0.1303	0.17	0.8228	0.598
Mof_C 	C 	0.134	0.1405	0.8735	-0.989
Mof_C 	C 	0.5553	0.7209	0.3493	0.119
Mof_C 	C 	0.5072	0.7197	0.3293	-0.228
Mof_C 	C 	0.5851	0.671	0.2881	0.104
Mof_C 	C 	0.5378	0.6673	0.2653	-0.215
Mof_C 	C 	0.497	0.6932	0.2852	0.177
Mof_C 	C 	0.4436	0.6936	0.2616	-0.267
Mof_C 	C 	0.4347	0.75	0.2473	0.226
Mof_C 	C 	0.4075	0.6725	0.3034	0.216
Mof_C 	C 	0.4448	0.6597	0.2134	0.247
Mof_C 	C 	0.2304	0.749	0.3263	0.2
Mof_C 	C 	0.1706	0.8186	0.3766	-0.05
Mof_C 	C 	0.1404	0.8486	0.407	0.047
Mof_C 	C 	0.1181	0.8922	0.3357	-0.009
Mof_C 	C 	0.1476	0.8639	0.303	-0.086
Mof_C 	C 	0.3697	0.83	0.3228	0.598
Mof_C 	C 	0.366	0.8595	0.3735	-0.989
Mof_C 	C 	0.6507	0.0553	0.7791	0.118
Mof_C 	C 	0.6707	0.0072	0.7803	-0.226
Mof_C 	C 	0.7119	0.0851	0.829	0.103
Mof_C 	C 	0.7347	0.0378	0.8327	-0.214
Mof_C 	C 	0.7148	0.997	0.8068	0.175
Mof_C 	C 	0.7384	0.9436	0.8064	-0.266
Mof_C 	C 	0.7527	0.9347	0.75	0.226
Mof_C 	C 	0.6966	0.9075	0.8275	0.216
Mof_C 	C 	0.7866	0.9448	0.8403	0.247
Mof_C 	C 	0.6737	0.7304	0.751	0.2
Mof_C 	C 	0.6234	0.6706	0.6814	-0.05
Mof_C 	C 	0.593	0.6404	0.6514	0.047
Mof_C 	C 	0.6643	0.6181	0.6078	-0.009
Mof_C 	C 	0.697	0.6476	0.6361	-0.086
Mof_C 	C 	0.6772	0.8697	0.67	0.598
Mof_C 	C 	0.6265	0.866	0.6405	-0.989
Mof_C 	C 	0.1507	0.4447	0.2209	0.119
Mof_C 	C 	0.1707	0.4928	0.2197	-0.228
Mof_C 	C 	0.2119	0.4149	0.171	0.104
Mof_C 	C 	0.2347	0.4622	0.1673	-0.215
Mof_C 	C 	0.2148	0.503	0.1932	0.177
Mof_C 	C 	0.2384	0.5564	0.1936	-0.267
Mof_C 	C 	0.2527	0.5653	0.25	0.226
Mof_C 	C 	0.1966	0.5925	0.1725	0.216
Mof_C 	C 	0.2866	0.5552	0.1597	0.247
Mof_C 	C 	0.1737	0.7696	0.249	0.2
Mof_C 	C 	0.1234	0.8294	0.3186	-0.05
Mof_C 	C 	0.093	0.8596	0.3486	0.047
Mof_C 	C 	0.1643	0.8819	0.3922	-0.009
Mof_C 	C 	0.197	0.8524	0.3639	-0.086
Mof_C 	C 	0.1772	0.6303	0.33	0.598
Mof_C 	C 	0.1265	0.634	0.3595	-0.989
Mof_C 	C 	0.8493	0.9447	0.2791	0.119
Mof_C 	C 	0.8293	0.9928	0.2803	-0.229
Mof_C 	C 	0.7881	0.9149	0.329	0.104
Mof_C 	C 	0.7653	0.9622	0.3327	-0.216
Mof_C 	C 	0.7852	0.003	0.3068	0.178
Mof_C 	C 	0.7616	0.0564	0.3064	-0.267
Mof_C 	C 	0.7473	0.0653	0.25	0.226
Mof_C 	C 	0.8034	0.0925	0.3275	0.216
Mof_C 	C 	0.7134	0.0552	0.3403	0.248
Mof_C 	C 	0.8263	0.2696	0.251	0.2
Mof_C 	C 	0.8766	0.3294	0.1814	-0.05
Mof_C 	C 	0.907	0.3596	0.1514	0.047
Mof_C 	C 	0.8357	0.3819	0.1078	-0.009
Mof_C 	C 	0.803	0.3524	0.1361	-0.086
Mof_C 	C 	0.8228	0.1303	0.17	0.598
Mof_C 	C 	0.8735	0.134	0.1405	-0.989
Mof_C 	C 	0.3493	0.5553	0.7209	0.119
Mof_C 	C 	0.3293	0.5072	0.7197	-0.228
Mof_C 	C 	0.2881	0.5851	0.671	0.104
Mof_C 	C 	0.2653	0.5378	0.6673	-0.215
Mof_C 	C 	0.2852	0.497	0.6932	0.177
Mof_C 	C 	0.2616	0.4436	0.6936	-0.267
Mof_C 	C 	0.2473	0.4347	0.75	0.226
Mof_C 	C 	0.3034	0.4075	0.6725	0.216
Mof_C 	C 	0.2134	0.4448	0.6597	0.247
Mof_C 	C 	0.3263	0.2304	0.749	0.2
Mof_C 	C 	0.3766	0.1706	0.8186	-0.05
Mof_C 	C 	0.407	0.1404	0.8486	0.047
Mof_C 	C 	0.3357	0.1181	0.8922	-0.009
Mof_C 	C 	0.303	0.1476	0.8639	-0.086
Mof_C 	C 	0.3228	0.3697	0.83	0.598
Mof_C 	C 	0.3735	0.366	0.8595	-0.989
Mof_C 	C 	0.7791	0.6507	0.0553	0.118
Mof_C 	C 	0.7803	0.6707	0.0072	-0.226
Mof_C 	C 	0.829	0.7119	0.0851	0.103
Mof_C 	C 	0.8327	0.7347	0.0378	-0.214
Mof_C 	C 	0.8068	0.7148	0.997	0.175
Mof_C 	C 	0.8064	0.7384	0.9436	-0.266
Mof_C 	C 	0.75	0.7527	0.9347	0.226
Mof_C 	C 	0.8275	0.6966	0.9075	0.216
Mof_C 	C 	0.8403	0.7866	0.9448	0.247
Mof_C 	C 	0.751	0.6737	0.7304	0.2
Mof_C 	C 	0.6814	0.6234	0.6706	-0.05
Mof_C 	C 	0.6514	0.593	0.6404	0.047
Mof_C 	C 	0.6078	0.6643	0.6181	-0.009
Mof_C 	C 	0.6361	0.697	0.6476	-0.086
Mof_C 	C 	0.67	0.6772	0.8697	0.598
Mof_C 	C 	0.6405	0.6265	0.866	-0.989
Mof_C 	C 	0.2209	0.1507	0.4447	0.119
Mof_C 	C 	0.2197	0.1707	0.4928	-0.228
Mof_C 	C 	0.171	0.2119	0.4149	0.104
Mof_C 	C 	0.1673	0.2347	0.4622	-0.215
Mof_C 	C 	0.1932	0.2148	0.503	0.177
Mof_C 	C 	0.1936	0.2384	0.5564	-0.267
Mof_C 	C 	0.25	0.2527	0.5653	0.226
Mof_C 	C 	0.1725	0.1966	0.5925	0.216
Mof_C 	C 	0.1597	0.2866	0.5552	0.247
Mof_C 	C 	0.249	0.1737	0.7696	0.2
Mof_C 	C 	0.3186	0.1234	0.8294	-0.05
Mof_C 	C 	0.3486	0.093	0.8596	0.047
Mof_C 	C 	0.3922	0.1643	0.8819	-0.009
Mof_C 	C 	0.3639	0.197	0.8524	-0.086
Mof_C 	C 	0.33	0.1772	0.6303	0.598
Mof_C 	C 	0.3595	0.1265	0.634	-0.989
Mof_C 	C 	0.2791	0.8493	0.9447	0.119
Mof_C 	C 	0.2803	0.8293	0.9928	-0.229
Mof_C 	C 	0.329	0.7881	0.9149	0.104
Mof_C 	C 	0.3327	0.7653	0.9622	-0.216
Mof_C 	C 	0.3068	0.7852	0.003	0.178
Mof_C 	C 	0.3064	0.7616	0.0564	-0.267
Mof_C 	C 	0.25	0.7473	0.0653	0.226
Mof_C 	C 	0.3275	0.8034	0.0925	0.216
Mof_C 	C 	0.3403	0.7134	0.0552	0.248
Mof_C 	C 	0.251	0.8263	0.2696	0.2
Mof_C 	C 	0.1814	0.8766	0.3294	-0.05
Mof_C 	C 	0.1514	0.907	0.3596	0.047
Mof_C 	C 	0.1078	0.8357	0.3819	-0.009
Mof_C 	C 	0.1361	0.803	0.3524	-0.086
Mof_C 	C 	0.17	0.8228	0.1303	0.598
Mof_C 	C 	0.1405	0.8735	0.134	-0.989
Mof_C 	C 	0.7209	0.3493	0.5553	0.119
Mof_C 	C 	0.7197	0.3293	0.5072	-0.228
Mof_C 	C 	0.671	0.2881	0.5851	0.104
Mof_C 	C 	0.6673	0.2653	0.5378	-0.215
Mof_C 	C 	0.6932	0.2852	0.497	0.177
Mof_C 	C 	0.6936	0.2616	0.4436	-0.267
Mof_C 	C 	0.75	0.2473	0.4347	0.226
Mof_C 	C 	0.6725	0.3034	0.4075	0.216
Mof_C 	C 	0.6597	0.2134	0.4448	0.247
Mof_C 	C 	0.749	0.3263	0.2304	0.2
Mof_C 	C 	0.8186	0.3766	0.1706	-0.05
Mof_C 	C 	0.8486	0.407	0.1404	0.047
Mof_C 	C 	0.8922	0.3357	0.1181	-0.009
Mof_C 	C 	0.8639	0.303	0.1476	-0.086
Mof_C 	C 	0.83	0.3228	0.3697	0.598
Mof_C 	C 	0.8595	0.3735	0.366	-0.989
Mof_C 	C 	0.9447	0.2209	0.3493	0.118
Mof_C 	C 	0.9928	0.2197	0.3293	-0.226
Mof_C 	C 	0.9149	0.171	0.2881	0.103
Mof_C 	C 	0.9622	0.1673	0.2653	-0.214
Mof_C 	C 	0.003	0.1932	0.2852	0.175
Mof_C 	C 	0.0564	0.1936	0.2616	-0.266
Mof_C 	C 	0.0653	0.25	0.2473	0.226
Mof_C 	C 	0.0925	0.1725	0.3034	0.216
Mof_C 	C 	0.0552	0.1597	0.2134	0.247
Mof_C 	C 	0.2696	0.249	0.3263	0.2
Mof_C 	C 	0.3294	0.3186	0.3766	-0.05
Mof_C 	C 	0.3596	0.3486	0.407	0.047
Mof_C 	C 	0.3819	0.3922	0.3357	-0.009
Mof_C 	C 	0.3524	0.3639	0.303	-0.086
Mof_C 	C 	0.1303	0.33	0.3228	0.598
Mof_C 	C 	0.134	0.3595	0.3735	-0.989
Mof_C 	C 	0.5553	0.7791	0.8493	0.119
Mof_C 	C 	0.5072	0.7803	0.8293	-0.228
Mof_C 	C 	0.5851	0.829	0.7881	0.104
Mof_C 	C 	0.5378	0.8327	0.7653	-0.215
Mof_C 	C 	0.497	0.8068	0.7852	0.177
Mof_C 	C 	0.4436	0.8064	0.7616	-0.267
Mof_C 	C 	0.4347	0.75	0.7473	0.226
Mof_C 	C 	0.4075	0.8275	0.8034	0.216
Mof_C 	C 	0.4448	0.8403	0.7134	0.247
Mof_C 	C 	0.2304	0.751	0.8263	0.2
Mof_C 	C 	0.1706	0.6814	0.8766	-0.05
Mof_C 	C 	0.1404	0.6514	0.907	0.047
Mof_C 	C 	0.1181	0.6078	0.8357	-0.009
Mof_C 	C 	0.1476	0.6361	0.803	-0.086
Mof_C 	C 	0.3697	0.67	0.8228	0.598
Mof_C 	C 	0.366	0.6405	0.8735	-0.989
Mof_C 	C 	0.0553	0.7209	0.1507	0.119
Mof_C 	C 	0.0072	0.7197	0.1707	-0.229
Mof_C 	C 	0.0851	0.671	0.2119	0.104
Mof_C 	C 	0.0378	0.6673	0.2347	-0.216
Mof_C 	C 	0.997	0.6932	0.2148	0.178
Mof_C 	C 	0.9436	0.6936	0.2384	-0.267
Mof_C 	C 	0.9347	0.75	0.2527	0.226
Mof_C 	C 	0.9075	0.6725	0.1966	0.216
Mof_C 	C 	0.9448	0.6597	0.2866	0.248
Mof_C 	C 	0.7304	0.749	0.1737	0.2
Mof_C 	C 	0.6706	0.8186	0.1234	-0.05
Mof_C 	C 	0.6404	0.8486	0.093	0.047
Mof_C 	C 	0.6181	0.8922	0.1643	-0.009
Mof_C 	C 	0.6476	0.8639	0.197	-0.086
Mof_C 	C 	0.8697	0.83	0.1772	0.598
Mof_C 	C 	0.866	0.8595	0.1265	-0.989
Mof_C 	C 	0.4447	0.2791	0.6507	0.119
Mof_C 	C 	0.4928	0.2803	0.6707	-0.228
Mof_C 	C 	0.4149	0.329	0.7119	0.104
Mof_C 	C 	0.4622	0.3327	0.7347	-0.215
Mof_C 	C 	0.503	0.3068	0.7148	0.177
Mof_C 	C 	0.5564	0.3064	0.7384	-0.267
Mof_C 	C 	0.5653	0.25	0.7527	0.226
Mof_C 	C 	0.5925	0.3275	0.6966	0.216
Mof_C 	C 	0.5552	0.3403	0.7866	0.247
Mof_C 	C 	0.7696	0.251	0.6737	0.2
Mof_C 	C 	0.8294	0.1814	0.6234	-0.05
Mof_C 	C 	0.8596	0.1514	0.593	0.047
Mof_C 	C 	0.8819	0.1078	0.6643	-0.009
Mof_C 	C 	0.8524	0.1361	0.697	-0.086
Mof_C 	C 	0.6303	0.17	0.6772	0.598
Mof_C 	C 	0.634	0.1405	0.6265	-0.989
Mof_C 	C 	0.3493	0.9447	0.2209	0.118
Mof_C 	C 	0.3293	0.9928	0.2197	-0.226
Mof_C 	C 	0.2881	0.9149	0.171	0.103
Mof_C 	C 	0.2653	0.9622	0.1673	-0.214
Mof_C 	C 	0.2852	0.003	0.1932	0.175
Mof_C 	C 	0.2616	0.0564	0.1936	-0.266
Mof_C 	C 	0.2473	0.0653	0.25	0.226
Mof_C 	C 	0.3034	0.0925	0.1725	0.216
Mof_C 	C 	0.2134	0.0552	0.1597	0.247
Mof_C 	C 	0.3263	0.2696	0.249	0.2
Mof_C 	C 	0.3766	0.3294	0.3186	-0.05
Mof_C 	C 	0.407	0.3596	0.3486	0.047
Mof_C 	C 	0.3357	0.3819	0.3922	-0.009
Mof_C 	C 	0.303	0.3524	0.3639	-0.086
Mof_C 	C 	0.3228	0.1303	0.33	0.598
Mof_C 	C 	0.3735	0.134	0.3595	-0.989
Mof_C 	C 	0.8493	0.5553	0.7791	0.119
Mof_C 	C 	0.8293	0.5072	0.7803	-0.228
Mof_C 	C 	0.7881	0.5851	0.829	0.104
Mof_C 	C 	0.7653	0.5378	0.8327	-0.215
Mof_C 	C 	0.7852	0.497	0.8068	0.177
Mof_C 	C 	0.7616	0.4436	0.8064	-0.267
Mof_C 	C 	0.7473	0.4347	0.75	0.226
Mof_C 	C 	0.8034	0.4075	0.8275	0.216
Mof_C 	C 	0.7134	0.4448	0.8403	0.247
Mof_C 	C 	0.8263	0.2304	0.751	0.2
Mof_C 	C 	0.8766	0.1706	0.6814	-0.05
Mof_C 	C 	0.907	0.1404	0.6514	0.047
Mof_C 	C 	0.8357	0.1181	0.6078	-0.009
Mof_C 	C 	0.803	0.1476	0.6361	-0.086
Mof_C 	C 	0.8228	0.3697	0.67	0.598
Mof_C 	C 	0.8735	0.366	0.6405	-0.989
Mof_C 	C 	0.1507	0.0553	0.7209	0.119
Mof_C 	C 	0.1707	0.0072	0.7197	-0.229
Mof_C 	C 	0.2119	0.0851	0.671	0.104
Mof_C 	C 	0.2347	0.0378	0.6673	-0.216
Mof_C 	C 	0.2148	0.997	0.6932	0.178
Mof_C 	C 	0.2384	0.9436	0.6936	-0.267
Mof_C 	C 	0.2527	0.9347	0.75	0.226
Mof_C 	C 	0.1966	0.9075	0.6725	0.216
Mof_C 	C 	0.2866	0.9448	0.6597	0.248
Mof_C 	C 	0.1737	0.7304	0.749	0.2
Mof_C 	C 	0.1234	0.6706	0.8186	-0.05
Mof_C 	C 	0.093	0.6404	0.8486	0.047
Mof_C 	C 	0.1643	0.6181	0.8922	-0.009
Mof_C 	C 	0.197	0.6476	0.8639	-0.086
Mof_C 	C 	0.1772	0.8697	0.83	0.598
Mof_C 	C 	0.1265	0.866	0.8595	-0.989
Mof_C 	C 	0.6507	0.4447	0.2791	0.119
Mof_C 	C 	0.6707	0.4928	0.2803	-0.228
Mof_C 	C 	0.7119	0.4149	0.329	0.104
Mof_C 	C 	0.7347	0.4622	0.3327	-0.215
Mof_C 	C 	0.7148	0.503	0.3068	0.177
Mof_C 	C 	0.7384	0.5564	0.3064	-0.267
Mof_C 	C 	0.7527	0.5653	0.25	0.226
Mof_C 	C 	0.6966	0.5925	0.3275	0.216
Mof_C 	C 	0.7866	0.5552	0.3403	0.247
Mof_C 	C 	0.6737	0.7696	0.251	0.2
Mof_C 	C 	0.6234	0.8294	0.1814	-0.05
Mof_C 	C 	0.593	0.8596	0.1514	0.047
Mof_C 	C 	0.6643	0.8819	0.1078	-0.009
Mof_C 	C 	0.697	0.8524	0.1361	-0.086
Mof_C 	C 	0.6772	0.6303	0.17	0.598
Mof_C 	C 	0.6265	0.634	0.1405	-0.989
Mof_C 	C 	0.2209	0.3493	0.9447	0.118
Mof_C 	C 	0.2197	0.3293	0.9928	-0.226
Mof_C 	C 	0.171	0.2881	0.9149	0.103
Mof_C 	C 	0.1673	0.2653	0.9622	-0.214
Mof_C 	C 	0.1932	0.2852	0.003	0.175
Mof_C 	C 	0.1936	0.2616	0.0564	-0.266
Mof_C 	C 	0.25	0.2473	0.0653	0.226
Mof_C 	C 	0.1725	0.3034	0.0925	0.216
Mof_C 	C 	0.1597	0.2134	0.0552	0.247
Mof_C 	C 	0.249	0.3263	0.2696	0.2
Mof_C 	C 	0.3186	0.3766	0.3294	-0.05
Mof_C 	C 	0.3486	0.407	0.3596	0.047
Mof_C 	C 	0.3922	0.3357	0.3819	-0.009
Mof_C 	C 	0.3639	0.303	0.3524	-0.086
Mof_C 	C 	0.33	0.3228	0.1303	0.598
Mof_C 	C 	0.3595	0.3735	0.134	-0.989
Mof_C 	C 	0.7791	0.8493	0.5553	0.119
Mof_C 	C 	0.7803	0.8293	0.5072	-0.228
Mof_C 	C 	0.829	0.7881	0.5851	0.104
Mof_C 	C 	0.8327	0.7653	0.5378	-0.215
Mof_C 	C 	0.8068	0.7852	0.497	0.177
Mof_C 	C 	0.8064	0.7616	0.4436	-0.267
Mof_C 	C 	0.75	0.7473	0.4347	0.226
Mof_C 	C 	0.8275	0.8034	0.4075	0.216
Mof_C 	C 	0.8403	0.7134	0.4448	0.247
Mof_C 	C 	0.751	0.8263	0.2304	0.2
Mof_C 	C 	0.6814	0.8766	0.1706	-0.05
Mof_C 	C 	0.6514	0.907	0.1404	0.047
Mof_C 	C 	0.6078	0.8357	0.1181	-0.009
Mof_C 	C 	0.6361	0.803	0.1476	-0.086
Mof_C 	C 	0.67	0.8228	0.3697	0.598
Mof_C 	C 	0.6405	0.8735	0.366	-0.989
Mof_C 	C 	0.7209	0.1507	0.0553	0.119
Mof_C 	C 	0.7197	0.1707	0.0072	-0.229
Mof_C 	C 	0.671	0.2119	0.0851	0.104
Mof_C 	C 	0.6673	0.2347	0.0378	-0.216
Mof_C 	C 	0.6932	0.2148	0.997	0.178
Mof_C 	C 	0.6936	0.2384	0.9436	-0.267
Mof_C 	C 	0.75	0.2527	0.9347	0.226
Mof_C 	C 	0.6725	0.1966	0.9075	0.216
Mof_C 	C 	0.6597	0.2866	0.9448	0.248
Mof_C 	C 	0.749	0.1737	0.7304	0.2
Mof_C 	C 	0.8186	0.1234	0.6706	-0.05
Mof_C 	C 	0.8486	0.093	0.6404	0.047
Mof_C 	C 	0.8922	0.1643	0.6181	-0.009
Mof_C 	C 	0.8639	0.197	0.6476	-0.086
Mof_C 	C 	0.83	0.1772	0.8697	0.598
Mof_C 	C 	0.8595	0.1265	0.866	-0.989
Mof_C 	C 	0.2791	0.6507	0.4447	0.119
Mof_C 	C 	0.2803	0.6707	0.4928	-0.228
Mof_C 	C 	0.329	0.7119	0.4149	0.104
Mof_C 	C 	0.3327	0.7347	0.4622	-0.215
Mof_C 	C 	0.3068	0.7148	0.503	0.177
Mof_C 	C 	0.3064	0.7384	0.5564	-0.267
Mof_C 	C 	0.25	0.7527	0.5653	0.226
Mof_C 	C 	0.3275	0.6966	0.5925	0.216
Mof_C 	C 	0.3403	0.7866	0.5552	0.247
Mof_C 	C 	0.251	0.6737	0.7696	0.2
Mof_C 	C 	0.1814	0.6234	0.8294	-0.05
Mof_C 	C 	0.1514	0.593	0.8596	0.047
Mof_C 	C 	0.1078	0.6643	0.8819	-0.009
Mof_C 	C 	0.1361	0.697	0.8524	-0.086
Mof_C 	C 	0.17	0.6772	0.6303	0.598
Mof_C 	C 	0.1405	0.6265	0.634	-0.989
Mof_C 	C 	0.7092	0.7092	0.7092	-0.235
Mof_C 	C 	0.6753	0.6753	0.6753	0.155
Mof_C 	C 	0.7908	0.2908	0.2092	-0.235
Mof_C 	C 	0.8247	0.3247	0.1753	0.155
Mof_C 	C 	0.2908	0.2092	0.7908	-0.235
Mof_C 	C 	0.3247	0.1753	0.8247	0.155
Mof_C 	C 	0.2092	0.7908	0.2908	-0.235
Mof_C 	C 	0.1753	0.8247	0.3247	0.155
Mof_C 	C 	0.2908	0.2908	0.2908	-0.235
Mof_C 	C 	0.3247	0.3247	0.3247	0.155
Mof_C 	C 	0.2092	0.7092	0.7908	-0.235
Mof_C 	C 	0.1753	0.6753	0.8247	0.155
Mof_C 	C 	0.7092	0.7908	0.2092	-0.235
Mof_C 	C 	0.6753	0.8247	0.1753	0.155
Mof_C 	C 	0.7908	0.2092	0.7092	-0.235
Mof_C 	C 	0.8247	0.1753	0.6753	0.155
Mof_N 	N 	0.0945	0.8019	0.6713	-0.27
Mof_N 	N 	0.4055	0.1981	0.1713	-0.271
Mof_N 	N 	0.9055	0.3019	0.8287	-0.271
Mof_N 	N 	0.5945	0.6981	0.3287	-0.271
Mof_N 	N 	0.6713	0.0945	0.8019	-0.27
Mof_N 	N 	0.1713	0.4055	0.1981	-0.271
Mof_N 	N 	0.8287	0.9055	0.3019	-0.271
Mof_N 	N 	0.3287	0.5945	0.6981	-0.271
Mof_N 	N 	0.8019	0.6713	0.0945	-0.27
Mof_N 	N 	0.1981	0.1713	0.4055	-0.271
Mof_N 	N 	0.3019	0.8287	0.9055	-0.271
Mof_N 	N 	0.6981	0.3287	0.5945	-0.271
Mof_N 	N 	0.9055	0.1981	0.3287	-0.27
Mof_N 	N 	0.5945	0.8019	0.8287	-0.271
Mof_N 	N 	0.0945	0.6981	0.1713	-0.271
Mof_N 	N 	0.4055	0.3019	0.6713	-0.271
Mof_N 	N 	0.3287	0.9055	0.1981	-0.27
Mof_N 	N 	0.8287	0.5945	0.8019	-0.271
Mof_N 	N 	0.1713	0.0945	0.6981	-0.271
Mof_N 	N 	0.6713	0.4055	0.3019	-0.271
Mof_N 	N 	0.1981	0.3287	0.9055	-0.27
Mof_N 	N 	0.8019	0.8287	0.5945	-0.271
Mof_N 	N 	0.6981	0.1713	0.0945	-0.271
Mof_N 	N 	0.3019	0.6713	0.4055	-0.271
Mof_N 	N 	0.614	0.614	0.614	-0.146
Mof_N 	N 	0.886	0.386	0.114	-0.146
Mof_N 	N 	0.386	0.114	0.886	-0.146
Mof_N 	N 	0.114	0.886	0.386	-0.146
Mof_N 	N 	0.386	0.386	0.386	-0.146
Mof_N 	N 	0.114	0.614	0.886	-0.146
Mof_N 	N 	0.614	0.886	0.114	-0.146
Mof_N 	N 	0.886	0.114	0.614	-0.146
Mof_O 	O 	0.88611	0.74095	0.77425	-0.676
Mof_O 	O 	0.85574	0.82812	0.71058	-0.646
Mof_O 	O 	0.89845	0.84167	0.81346	-0.709
Mof_O 	O 	0.76193	0.78674	0.69832	-0.629
Mof_O 	O 	0.8515	0.7142	0.6736	-0.495
Mof_O 	O 	0.8774	0.6461	0.7171	-0.528
Mof_O 	O 	0.61389	0.25905	0.27425	-0.676
Mof_O 	O 	0.64426	0.17188	0.21058	-0.646
Mof_O 	O 	0.60155	0.15833	0.31346	-0.709
Mof_O 	O 	0.73807	0.21326	0.19832	-0.629
Mof_O 	O 	0.6485	0.2858	0.1736	-0.495
Mof_O 	O 	0.6226	0.3539	0.2171	-0.528
Mof_O 	O 	0.11389	0.24095	0.72575	-0.676
Mof_O 	O 	0.14426	0.32812	0.78942	-0.646
Mof_O 	O 	0.10155	0.34167	0.68654	-0.709
Mof_O 	O 	0.23807	0.28674	0.80168	-0.629
Mof_O 	O 	0.1485	0.2142	0.8264	-0.495
Mof_O 	O 	0.1226	0.1461	0.7829	-0.528
Mof_O 	O 	0.38611	0.75905	0.22575	-0.676
Mof_O 	O 	0.35574	0.67188	0.28942	-0.646
Mof_O 	O 	0.39845	0.65833	0.18654	-0.709
Mof_O 	O 	0.26193	0.71326	0.30168	-0.629
Mof_O 	O 	0.3515	0.7858	0.3264	-0.495
Mof_O 	O 	0.3774	0.8539	0.2829	-0.528
Mof_O 	O 	0.77425	0.88611	0.74095	-0.676
Mof_O 	O 	0.71058	0.85574	0.82812	-0.646
Mof_O 	O 	0.81346	0.89845	0.84167	-0.709
Mof_O 	O 	0.69832	0.76193	0.78674	-0.629
Mof_O 	O 	0.6736	0.8515	0.7142	-0.495
Mof_O 	O 	0.7171	0.8774	0.6461	-0.528
Mof_O 	O 	0.27425	0.61389	0.25905	-0.676
Mof_O 	O 	0.21058	0.64426	0.17188	-0.646
Mof_O 	O 	0.31346	0.60155	0.15833	-0.709
Mof_O 	O 	0.19832	0.73807	0.21326	-0.629
Mof_O 	O 	0.1736	0.6485	0.2858	-0.495
Mof_O 	O 	0.2171	0.6226	0.3539	-0.528
Mof_O 	O 	0.72575	0.11389	0.24095	-0.676
Mof_O 	O 	0.78942	0.14426	0.32812	-0.646
Mof_O 	O 	0.68654	0.10155	0.34167	-0.709
Mof_O 	O 	0.80168	0.23807	0.28674	-0.629
Mof_O 	O 	0.8264	0.1485	0.2142	-0.495
Mof_O 	O 	0.7829	0.1226	0.1461	-0.528
Mof_O 	O 	0.22575	0.38611	0.75905	-0.676
Mof_O 	O 	0.28942	0.35574	0.67188	-0.646
Mof_O 	O 	0.18654	0.39845	0.65833	-0.709
Mof_O 	O 	0.30168	0.26193	0.71326	-0.629
Mof_O 	O 	0.3264	0.3515	0.7858	-0.495
Mof_O 	O 	0.2829	0.3774	0.8539	-0.528
Mof_O 	O 	0.74095	0.77425	0.88611	-0.676
Mof_O 	O 	0.82812	0.71058	0.85574	-0.646
Mof_O 	O 	0.84167	0.81346	0.89845	-0.709
Mof_O 	O 	0.78674	0.69832	0.76193	-0.629
Mof_O 	O 	0.7142	0.6736	0.8515	-0.495
Mof_O 	O 	0.6461	0.7171	0.8774	-0.528
Mof_O 	O 	0.25905	0.27425	0.61389	-0.676
Mof_O 	O 	0.17188	0.21058	0.64426	-0.646
Mof_O 	O 	0.15833	0.31346	0.60155	-0.709
Mof_O 	O 	0.21326	0.19832	0.73807	-0.629
Mof_O 	O 	0.2858	0.1736	0.6485	-0.495
Mof_O 	O 	0.3539	0.2171	0.6226	-0.528
Mof_O 	O 	0.24095	0.72575	0.11389	-0.676
Mof_O 	O 	0.32812	0.78942	0.14426	-0.646
Mof_O 	O 	0.34167	0.68654	0.10155	-0.709
Mof_O 	O 	0.28674	0.80168	0.23807	-0.629
Mof_O 	O 	0.2142	0.8264	0.1485	-0.495
Mof_O 	O 	0.1461	0.7829	0.1226	-0.528
Mof_O 	O 	0.75905	0.22575	0.38611	-0.676
Mof_O 	O 	0.67188	0.28942	0.35574	-0.646
Mof_O 	O 	0.65833	0.18654	0.39845	-0.709
Mof_O 	O 	0.71326	0.30168	0.26193	-0.629
Mof_O 	O 	0.7858	0.3264	0.3515	-0.495
Mof_O 	O 	0.8539	0.2829	0.3774	-0.528
Mof_O 	O 	0.11389	0.25905	0.22575	-0.676
Mof_O 	O 	0.14426	0.17188	0.28942	-0.646
Mof_O 	O 	0.10155	0.15833	0.18654	-0.709
Mof_O 	O 	0.23807	0.21326	0.30168	-0.629
Mof_O 	O 	0.1485	0.2858	0.3264	-0.495
Mof_O 	O 	0.1226	0.3539	0.2829	-0.528
Mof_O 	O 	0.38611	0.74095	0.72575	-0.676
Mof_O 	O 	0.35574	0.82812	0.78942	-0.646
Mof_O 	O 	0.39845	0.84167	0.68654	-0.709
Mof_O 	O 	0.26193	0.78674	0.80168	-0.629
Mof_O 	O 	0.3515	0.7142	0.8264	-0.495
Mof_O 	O 	0.3774	0.6461	0.7829	-0.528
Mof_O 	O 	0.88611	0.75905	0.27425	-0.676
Mof_O 	O 	0.85574	0.67188	0.21058	-0.646
Mof_O 	O 	0.89845	0.65833	0.31346	-0.709
Mof_O 	O 	0.76193	0.71326	0.19832	-0.629
Mof_O 	O 	0.8515	0.7858	0.1736	-0.495
Mof_O 	O 	0.8774	0.8539	0.2171	-0.528
Mof_O 	O 	0.61389	0.24095	0.77425	-0.676
Mof_O 	O 	0.64426	0.32812	0.71058	-0.646
Mof_O 	O 	0.60155	0.34167	0.81346	-0.709
Mof_O 	O 	0.73807	0.28674	0.69832	-0.629
Mof_O 	O 	0.6485	0.2142	0.6736	-0.495
Mof_O 	O 	0.6226	0.1461	0.7171	-0.528
Mof_O 	O 	0.22575	0.11389	0.25905	-0.676
Mof_O 	O 	0.28942	0.14426	0.17188	-0.646
Mof_O 	O 	0.18654	0.10155	0.15833	-0.709
Mof_O 	O 	0.30168	0.23807	0.21326	-0.629
Mof_O 	O 	0.3264	0.1485	0.2858	-0.495
Mof_O 	O 	0.2829	0.1226	0.3539	-0.528
Mof_O 	O 	0.72575	0.38611	0.74095	-0.676
Mof_O 	O 	0.78942	0.35574	0.82812	-0.646
Mof_O 	O 	0.68654	0.39845	0.84167	-0.709
Mof_O 	O 	0.80168	0.26193	0.78674	-0.629
Mof_O 	O 	0.8264	0.3515	0.7142	-0.495
Mof_O 	O 	0.7829	0.3774	0.6461	-0.528
Mof_O 	O 	0.27425	0.88611	0.75905	-0.676
Mof_O 	O 	0.21058	0.85574	0.67188	-0.646
Mof_O 	O 	0.31346	0.89845	0.65833	-0.709
Mof_O 	O 	0.19832	0.76193	0.71326	-0.629
Mof_O 	O 	0.1736	0.8515	0.7858	-0.495
Mof_O 	O 	0.2171	0.8774	0.8539	-0.528
Mof_O 	O 	0.77425	0.61389	0.24095	-0.676
Mof_O 	O 	0.71058	0.64426	0.32812	-0.646
Mof_O 	O 	0.81346	0.60155	0.34167	-0.709
Mof_O 	O 	0.69832	0.73807	0.28674	-0.629
Mof_O 	O 	0.6736	0.6485	0.2142	-0.495
Mof_O 	O 	0.7171	0.6226	0.1461	-0.528
Mof_O 	O 	0.25905	0.22575	0.11389	-0.676
Mof_O 	O 	0.17188	0.28942	0.14426	-0.646
Mof_O 	O 	0.15833	0.18654	0.10155	-0.709
Mof_O 	O 	0.21326	0.30168	0.23807	-0.629
Mof_O 	O 	0.2858	0.3264	0.1485	-0.495
Mof_O 	O 	0.3539	0.2829	0.1226	-0.528
Mof_O 	O 	0.74095	0.72575	0.38611	-0.676
Mof_O 	O 	0.82812	0.78942	0.35574	-0.646
Mof_O 	O 	0.84167	0.68654	0.39845	-0.709
Mof_O 	O 	0.78674	0.80168	0.26193	-0.629
Mof_O 	O 	0.7142	0.8264	0.3515	-0.495
Mof_O 	O 	0.6461	0.7829	0.3774	-0.528
Mof_O 	O 	0.75905	0.27425	0.88611	-0.676
Mof_O 	O 	0.67188	0.21058	0.85574	-0.646
Mof_O 	O 	0.65833	0.31346	0.89845	-0.709
Mof_O 	O 	0.71326	0.19832	0.76193	-0.629
Mof_O 	O 	0.7858	0.1736	0.8515	-0.495
Mof_O 	O 	0.8539	0.2171	0.8774	-0.528
Mof_O 	O 	0.24095	0.77425	0.61389	-0.676
Mof_O 	O 	0.32812	0.71058	0.64426	-0.646
Mof_O 	O 	0.34167	0.81346	0.60155	-0.709
Mof_O 	O 	0.28674	0.69832	0.73807	-0.629
Mof_O 	O 	0.2142	0.6736	0.6485	-0.495
Mof_O 	O 	0.1461	0.7171	0.6226	-0.528
Mof_O 	O 	0.79996	0.79996	0.79996	-0.874
Mof_O 	O 	0.70004	0.20004	0.29996	-0.874
Mof_O 	O 	0.20004	0.29996	0.70004	-0.874
Mof_O 	O 	0.29996	0.70004	0.20004	-0.874
Mof_O 	O 	0.20004	0.20004	0.20004	-0.874
Mof_O 	O 	0.29996	0.79996	0.70004	-0.874
Mof_O 	O 	0.79996	0.70004	0.29996	-0.874
Mof_O 	O 	0.70004	0.29996	0.79996	-0.874
_end
