# CIF file generated by openbabel 3.1.0, see https://openbabel.org
data_I
_chemical_name_common 'image0'
_cell_length_a 10.3287
_cell_length_b 11.7366
_cell_length_c 20.3354
_cell_angle_alpha 90
_cell_angle_beta 90
_cell_angle_gamma 90
_space_group_name_H-M_alt 'P 1'
_space_group_name_Hall 'P 1'
loop_
    _symmetry_equiv_pos_as_xyz
    x,y,z
loop_
    _atom_site_label
    _atom_site_type_symbol
    _atom_site_fract_x
    _atom_site_fract_y
    _atom_site_fract_z
    _atom_site_occupancy
    Zn1      Zn       0.96092    0.42088    0.50681    1.000
    Zn2      Zn       0.64691    0.32501    0.51018    1.000
    O1       O        0.84480    0.27080    0.50718    1.000
    O2       O        0.96270    0.12310    0.47352    1.000
    O3       O        0.62470    0.16070    0.49312    1.000
    C1       C        0.85810    0.17120    0.48392    1.000
    C2       C        0.73460    0.10720    0.46520    1.000
    H1       H        0.74040    0.02770    0.48260    1.000
    C3       C        0.72490    0.10190    0.39000    1.000
    H2       H        0.64640    0.06030    0.37750    1.000
    H3       H        0.80100    0.06250    0.37230    1.000
    H4       H        0.72120    0.17940    0.37220    1.000
    O4       O        0.87650    0.45780    0.42154    1.000
    O5       O        0.66490    0.41540    0.42778    1.000
    C4       C        0.76530    0.44720    0.39811    1.000
    C5       C        0.74990    0.47610    0.32630    1.000
    C6       C        0.85680    0.51090    0.29000    1.000
    H5       H        0.93880    0.51830    0.31070    1.000
    C7       C        0.84370    0.53520    0.22320    1.000
    H6       H        0.91740    0.55710    0.19830    1.000
    C8       C        0.72500    0.52760    0.19310    1.000
    C9       C        0.61730    0.49250    0.22900    1.000
    H7       H        0.53500    0.48680    0.20830    1.000
    C10      C        0.63080    0.46570    0.29540    1.000
    H8       H        0.55780    0.44010    0.31960    1.000
    C11      C        0.71190    0.55550    0.12110    1.000
    O6       O        0.60530    0.53570    0.09471    1.000
    O7       O        0.81100    0.59620    0.09416    1.000
    Zn3      Zn       0.53908    0.57912    0.00681    1.000
    Zn4      Zn       0.85309    0.67499    0.01018    1.000
    O8       O        0.65520    0.72920    0.00718    1.000
    O9       O        0.53730    0.87690    0.97352    1.000
    O10      O        0.87530    0.83930    0.99312    1.000
    C12      C        0.64190    0.82880    0.98392    1.000
    C13      C        0.76540    0.89280    0.96520    1.000
    H9       H        0.75960    0.97230    0.98260    1.000
    C14      C        0.77510    0.89810    0.89000    1.000
    H10      H        0.85360    0.93970    0.87750    1.000
    H11      H        0.69900    0.93750    0.87230    1.000
    H12      H        0.77880    0.82060    0.87220    1.000
    O11      O        0.62350    0.54220    0.92154    1.000
    O12      O        0.83510    0.58460    0.92778    1.000
    C15      C        0.73470    0.55280    0.89811    1.000
    C16      C        0.75010    0.52390    0.82630    1.000
    C17      C        0.64320    0.48910    0.79000    1.000
    H13      H        0.56120    0.48170    0.81070    1.000
    C18      C        0.65630    0.46480    0.72320    1.000
    H14      H        0.58260    0.44290    0.69830    1.000
    C19      C        0.77500    0.47240    0.69310    1.000
    C20      C        0.88270    0.50750    0.72900    1.000
    H15      H        0.96500    0.51320    0.70830    1.000
    C21      C        0.86920    0.53430    0.79540    1.000
    H16      H        0.94220    0.55990    0.81960    1.000
    C22      C        0.78810    0.44450    0.62110    1.000
    O13      O        0.89470    0.46430    0.59471    1.000
    O14      O        0.68900    0.40380    0.59416    1.000
    Zn5      Zn       0.03908    0.92088    0.99319    1.000
    Zn6      Zn       0.35309    0.82501    0.98982    1.000
    O15      O        0.15520    0.77080    0.99282    1.000
    O16      O        0.03730    0.62310    0.02648    1.000
    O17      O        0.37530    0.66070    0.00688    1.000
    C23      C        0.14190    0.67120    0.01608    1.000
    C24      C        0.26540    0.60720    0.03480    1.000
    H17      H        0.25960    0.52770    0.01740    1.000
    C25      C        0.27510    0.60190    0.11000    1.000
    H18      H        0.35360    0.56030    0.12250    1.000
    H19      H        0.19900    0.56250    0.12770    1.000
    H20      H        0.27880    0.67940    0.12780    1.000
    O18      O        0.12350    0.95780    0.07846    1.000
    O19      O        0.33510    0.91540    0.07222    1.000
    C26      C        0.23470    0.94720    0.10189    1.000
    C27      C        0.25010    0.97610    0.17370    1.000
    C28      C        0.14320    0.01090    0.21000    1.000
    H21      H        0.06120    0.01830    0.18930    1.000
    C29      C        0.15630    0.03520    0.27680    1.000
    H22      H        0.08260    0.05710    0.30170    1.000
    C30      C        0.27500    0.02760    0.30690    1.000
    C31      C        0.38270    0.99250    0.27100    1.000
    H23      H        0.46500    0.98680    0.29170    1.000
    C32      C        0.36920    0.96570    0.20460    1.000
    H24      H        0.44220    0.94010    0.18040    1.000
    C33      C        0.28810    0.05550    0.37890    1.000
    O20      O        0.39470    0.03570    0.40529    1.000
    O21      O        0.18900    0.09620    0.40584    1.000
    Zn7      Zn       0.46092    0.07912    0.49319    1.000
    Zn8      Zn       0.14691    0.17499    0.48982    1.000
    O22      O        0.34480    0.22920    0.49282    1.000
    O23      O        0.46270    0.37690    0.52648    1.000
    O24      O        0.12470    0.33930    0.50688    1.000
    C34      C        0.35810    0.32880    0.51608    1.000
    C35      C        0.23460    0.39280    0.53480    1.000
    H25      H        0.24040    0.47230    0.51740    1.000
    C36      C        0.22490    0.39810    0.61000    1.000
    H26      H        0.14640    0.43970    0.62250    1.000
    H27      H        0.30100    0.43750    0.62770    1.000
    H28      H        0.22120    0.32060    0.62780    1.000
    O25      O        0.37650    0.04220    0.57846    1.000
    O26      O        0.16490    0.08460    0.57222    1.000
    C37      C        0.26530    0.05280    0.60189    1.000
    C38      C        0.24990    0.02390    0.67370    1.000
    C39      C        0.35680    0.98910    0.71000    1.000
    H29      H        0.43880    0.98170    0.68930    1.000
    C40      C        0.34370    0.96480    0.77680    1.000
    H30      H        0.41740    0.94290    0.80170    1.000
    C41      C        0.22500    0.97240    0.80690    1.000
    C42      C        0.11730    0.00750    0.77100    1.000
    H31      H        0.03500    0.01320    0.79170    1.000
    C43      C        0.13080    0.03430    0.70460    1.000
    H32      H        0.05780    0.05990    0.68040    1.000
    C44      C        0.21190    0.94450    0.87890    1.000
    O27      O        0.10530    0.96430    0.90529    1.000
    O28      O        0.31100    0.90380    0.90584    1.000
