data_functionalizedCrystal
_audit_creation_method	'EQeq! by Chris Wilmer'
_symmetry_space_group_name_H-M	'P1'
_symmetry_Int_Tables_number	1
_symmetry_cell_setting	triclinic
loop_
_symmetry_equiv_pos_as_xyz
  x,y,z
_cell_length_a	7.3578
_cell_length_b	21.9969
_cell_length_c	20.3447
_cell_angle_alpha	90
_cell_angle_beta	90
_cell_angle_gamma	90
loop_
_atom_site_label
_atom_site_type_symbol
_atom_site_fract_x
_atom_site_fract_y
_atom_site_fract_z
_atom_site_charge
Mof_Cu	Cu	0.57112	0.58738	0.67419	0.838
Mof_Cu	Cu	0.42888	0.91262	0.67419	0.834
Mof_Cu	Cu	0.57112	0.41262	0.82581	0.838
Mof_Cu	Cu	0.42888	0.08738	0.82581	0.84
Mof_Cu	Cu	0.42888	0.41262	0.32581	0.836
Mof_Cu	Cu	0.57112	0.08738	0.32581	0.84
Mof_Cu	Cu	0.42888	0.58738	0.17419	0.836
Mof_Cu	Cu	0.57112	0.91262	0.17419	0.835
Mof_Cu	Cu	0.5	0.5	0.5	0.889
Mof_Cu	Cu	0.5	-3.83318e-33	0.5	0.87
Mof_Cu	Cu	0.5	0.5	-0	0.873
Mof_Cu	Cu	0.5	0	-0	0.853
Mof_Cu	Cu	9.53248e-33	0.75	0.18	0.831
Mof_Cu	Cu	3.31753e-33	0.25	0.32	0.832
Mof_Cu	Cu	8.50117e-33	0.25	0.82	0.833
Mof_Cu	Cu	2.23825e-32	0.75	0.68	0.832
Mof_H 	H 	0.2049	0.5318	0.6991	-0.038
Mof_H 	H 	0.9318	0.5152	0.6481	0.115
Mof_H 	H 	0.1082	0.6167	0.4983	0.089
Mof_H 	H 	0.3729	0.6319	0.5544	-0.033
Mof_H 	H 	0.4709	0.569	0.376	0.025
Mof_H 	H 	0.4653	0.6515	0.2981	0.07
Mof_H 	H 	0.6136	0.7118	0.2256	-0.042
Mof_H 	H 	0.0806	0.6643	0.2948	-0.066
Mof_H 	H 	0.9465	0.6052	0.375	0.12
Mof_H 	H 	0.7951	0.9682	0.6991	0.02
Mof_H 	H 	0.0682	0.9848	0.6481	0.006
Mof_H 	H 	0.8918	0.8833	0.4983	0.047
Mof_H 	H 	0.6271	0.8681	0.5544	-0.002
Mof_H 	H 	0.5291	0.931	0.376	0.033
Mof_H 	H 	0.5347	0.8485	0.2981	0.064
Mof_H 	H 	0.3864	0.7882	0.2256	-0.038
Mof_H 	H 	0.9194	0.8357	0.2948	-0.002
Mof_H 	H 	0.0535	0.8948	0.375	0.093
Mof_H 	H 	0.2049	0.4682	0.8009	-0.029
Mof_H 	H 	0.9318	0.4848	0.8519	0.101
Mof_H 	H 	0.1082	0.3833	0.0017	0.019
Mof_H 	H 	0.3729	0.3681	0.9456	-0.002
Mof_H 	H 	0.4709	0.431	0.124	0.023
Mof_H 	H 	0.4653	0.3485	0.2019	0.069
Mof_H 	H 	0.6136	0.2882	0.2744	-0.041
Mof_H 	H 	0.0806	0.3357	0.2052	-0.067
Mof_H 	H 	0.9465	0.3948	0.125	0.119
Mof_H 	H 	0.7951	0.0318	0.8009	0.009
Mof_H 	H 	0.0682	0.0152	0.8519	-0.026
Mof_H 	H 	0.8918	0.1167	0.0017	-0.029
Mof_H 	H 	0.6271	0.1319	0.9456	0.03
Mof_H 	H 	0.5291	0.069	0.124	0.009
Mof_H 	H 	0.5347	0.1515	0.2019	0.06
Mof_H 	H 	0.3864	0.2118	0.2744	-0.035
Mof_H 	H 	0.9194	0.1643	0.2052	-0.003
Mof_H 	H 	0.0535	0.1052	0.125	0.078
Mof_H 	H 	0.7951	0.4682	0.3009	0.012
Mof_H 	H 	0.0682	0.4848	0.3519	-0.005
Mof_H 	H 	0.8918	0.3833	0.5017	0.043
Mof_H 	H 	0.6271	0.3681	0.4456	-0.001
Mof_H 	H 	0.5291	0.431	0.624	0.021
Mof_H 	H 	0.5347	0.3485	0.7019	0.062
Mof_H 	H 	0.3864	0.2882	0.7744	-0.035
Mof_H 	H 	0.9194	0.3357	0.7052	-0.001
Mof_H 	H 	0.0535	0.3948	0.625	0.086
Mof_H 	H 	0.2049	0.0318	0.3009	-0.046
Mof_H 	H 	0.9318	0.0152	0.3519	0.103
Mof_H 	H 	0.1082	0.1167	0.5017	0.086
Mof_H 	H 	0.3729	0.1319	0.4456	-0.032
Mof_H 	H 	0.4709	0.069	0.624	0.015
Mof_H 	H 	0.4653	0.1515	0.7019	0.068
Mof_H 	H 	0.6136	0.2118	0.7744	-0.04
Mof_H 	H 	0.0806	0.1643	0.7052	-0.066
Mof_H 	H 	0.9465	0.1052	0.625	0.112
Mof_H 	H 	0.7951	0.5318	0.1991	0.004
Mof_H 	H 	0.0682	0.5152	0.1481	0.009
Mof_H 	H 	0.8918	0.6167	0.9983	0.113
Mof_H 	H 	0.6271	0.6319	0.0544	-0.032
Mof_H 	H 	0.5291	0.569	0.876	0.025
Mof_H 	H 	0.5347	0.6515	0.7981	0.064
Mof_H 	H 	0.3864	0.7118	0.7256	-0.036
Mof_H 	H 	0.9194	0.6643	0.7948	-0.001
Mof_H 	H 	0.0535	0.6052	0.875	0.087
Mof_H 	H 	0.2049	0.9682	0.1991	-0.034
Mof_H 	H 	0.9318	0.9848	0.1481	0.136
Mof_H 	H 	0.1082	0.8833	0.9983	0.159
Mof_H 	H 	0.3729	0.8681	0.0544	-0.063
Mof_H 	H 	0.4709	0.931	0.876	0.04
Mof_H 	H 	0.4653	0.8485	0.7981	0.072
Mof_H 	H 	0.6136	0.7882	0.7256	-0.042
Mof_H 	H 	0.0806	0.8357	0.7948	-0.064
Mof_H 	H 	0.9465	0.8948	0.875	0.128
Mof_C 	C 	0.5961	0.52022	0.73185	-0.201
Mof_C 	C 	0.1849	0.54919	0.65806	0.116
Mof_C 	C 	0.0205	0.5385	0.62755	-0.251
Mof_C 	C 	0.9895	0.56282	0.56633	0.117
Mof_C 	C 	0.1249	0.59875	0.5392	-0.203
Mof_C 	C 	0.2836	0.60759	0.5732	0.063
Mof_C 	C 	0.8155	0.55033	0.53092	0.132
Mof_C 	C 	0.5846	0.58116	0.39107	-0.049
Mof_C 	C 	0.6871	0.62169	0.34608	0.133
Mof_C 	C 	0.5914	0.65401	0.29954	-0.22
Mof_C 	C 	0.6816	0.68959	0.25566	0.096
Mof_C 	C 	0.9544	0.6624	0.2966	0.156
Mof_C 	C 	0.8754	0.626	0.3447	-0.216
Mof_C 	C 	0.1871	0.69635	0.1529	-0.2
Mof_C 	C 	0.4039	0.97978	0.73185	-0.125
Mof_C 	C 	0.8151	0.95081	0.65806	-0.004
Mof_C 	C 	0.9795	0.9615	0.62755	0.015
Mof_C 	C 	0.0105	0.93718	0.56633	-0.085
Mof_C 	C 	0.8751	0.90125	0.5392	-0.029
Mof_C 	C 	0.7164	0.89241	0.5732	-0.018
Mof_C 	C 	0.1845	0.94967	0.53092	0.193
Mof_C 	C 	0.4154	0.91884	0.39107	-0.034
Mof_C 	C 	0.3129	0.87831	0.34608	0.108
Mof_C 	C 	0.4086	0.84599	0.29954	-0.199
Mof_C 	C 	0.3184	0.81041	0.25566	0.081
Mof_C 	C 	0.0456	0.8376	0.2966	0.05
Mof_C 	C 	0.1246	0.874	0.3447	-0.158
Mof_C 	C 	0.8129	0.80365	0.1529	-0.18
Mof_C 	C 	0.5961	0.47978	0.76815	-0.2
Mof_C 	C 	0.1849	0.45081	0.84194	0.093
Mof_C 	C 	0.0205	0.4615	0.87245	-0.209
Mof_C 	C 	0.9895	0.43718	0.93367	0.059
Mof_C 	C 	0.1249	0.40125	0.9608	-0.075
Mof_C 	C 	0.2836	0.39241	0.9268	0.003
Mof_C 	C 	0.8155	0.44967	0.96908	0.19
Mof_C 	C 	0.5846	0.41884	0.10893	-0.051
Mof_C 	C 	0.6871	0.37831	0.15392	0.131
Mof_C 	C 	0.5914	0.34599	0.20046	-0.22
Mof_C 	C 	0.6816	0.31041	0.24434	0.095
Mof_C 	C 	0.9544	0.3376	0.2034	0.154
Mof_C 	C 	0.8754	0.374	0.1553	-0.216
Mof_C 	C 	0.1871	0.30365	0.3471	-0.195
Mof_C 	C 	0.4039	0.02022	0.76815	-0.279
Mof_C 	C 	0.8151	0.04919	0.84194	-0.039
Mof_C 	C 	0.9795	0.0385	0.87245	0.051
Mof_C 	C 	0.0105	0.06282	0.93367	-0.158
Mof_C 	C 	0.8751	0.09875	0.9608	0.096
Mof_C 	C 	0.7164	0.10759	0.9268	-0.088
Mof_C 	C 	0.1845	0.05033	0.96908	0.246
Mof_C 	C 	0.4154	0.08116	0.10893	-0.041
Mof_C 	C 	0.3129	0.12169	0.15392	0.094
Mof_C 	C 	0.4086	0.15401	0.20046	-0.194
Mof_C 	C 	0.3184	0.18959	0.24434	0.077
Mof_C 	C 	0.0456	0.1624	0.2034	0.043
Mof_C 	C 	0.1246	0.126	0.1553	-0.156
Mof_C 	C 	0.8129	0.19635	0.3471	-0.175
Mof_C 	C 	0.4039	0.47978	0.26815	-0.202
Mof_C 	C 	0.8151	0.45081	0.34194	-0.013
Mof_C 	C 	0.9795	0.4615	0.37245	0.017
Mof_C 	C 	0.0105	0.43718	0.43367	-0.097
Mof_C 	C 	0.8751	0.40125	0.4608	-0.028
Mof_C 	C 	0.7164	0.39241	0.4268	-0.026
Mof_C 	C 	0.1845	0.44967	0.46908	0.191
Mof_C 	C 	0.4154	0.41884	0.60893	-0.036
Mof_C 	C 	0.3129	0.37831	0.65392	0.101
Mof_C 	C 	0.4086	0.34599	0.70046	-0.196
Mof_C 	C 	0.3184	0.31041	0.74434	0.079
Mof_C 	C 	0.0456	0.3376	0.7034	0.046
Mof_C 	C 	0.1246	0.374	0.6553	-0.156
Mof_C 	C 	0.8129	0.30365	0.8471	-0.17
Mof_C 	C 	0.5961	0.02022	0.26815	-0.28
Mof_C 	C 	0.1849	0.04919	0.34194	0.109
Mof_C 	C 	0.0205	0.0385	0.37245	-0.249
Mof_C 	C 	0.9895	0.06282	0.43367	0.107
Mof_C 	C 	0.1249	0.09875	0.4608	-0.202
Mof_C 	C 	0.2836	0.10759	0.4268	0.057
Mof_C 	C 	0.8155	0.05033	0.46908	0.13
Mof_C 	C 	0.5846	0.08116	0.60893	-0.052
Mof_C 	C 	0.6871	0.12169	0.65392	0.127
Mof_C 	C 	0.5914	0.15401	0.70046	-0.217
Mof_C 	C 	0.6816	0.18959	0.74434	0.094
Mof_C 	C 	0.9544	0.1624	0.7034	0.152
Mof_C 	C 	0.8754	0.126	0.6553	-0.214
Mof_C 	C 	0.1871	0.19635	0.8471	-0.19
Mof_C 	C 	0.4039	0.52022	0.23185	-0.203
Mof_C 	C 	0.8151	0.54919	0.15806	0.011
Mof_C 	C 	0.9795	0.5385	0.12755	-0.024
Mof_C 	C 	0.0105	0.56282	0.06633	-0.039
Mof_C 	C 	0.8751	0.59875	0.0392	-0.154
Mof_C 	C 	0.7164	0.60759	0.0732	0.035
Mof_C 	C 	0.1845	0.55033	0.03092	0.134
Mof_C 	C 	0.4154	0.58116	0.89107	-0.035
Mof_C 	C 	0.3129	0.62169	0.84608	0.104
Mof_C 	C 	0.4086	0.65401	0.79954	-0.196
Mof_C 	C 	0.3184	0.68959	0.75566	0.08
Mof_C 	C 	0.0456	0.6624	0.7966	0.047
Mof_C 	C 	0.1246	0.626	0.8447	-0.156
Mof_C 	C 	0.8129	0.69635	0.6529	-0.175
Mof_C 	C 	0.5961	0.97978	0.23185	-0.121
Mof_C 	C 	0.1849	0.95081	0.15806	0.143
Mof_C 	C 	0.0205	0.9615	0.12755	-0.282
Mof_C 	C 	0.9895	0.93718	0.06633	0.177
Mof_C 	C 	0.1249	0.90125	0.0392	-0.321
Mof_C 	C 	0.2836	0.89241	0.0732	0.126
Mof_C 	C 	0.8155	0.94967	0.03092	0.08
Mof_C 	C 	0.5846	0.91884	0.89107	-0.047
Mof_C 	C 	0.6871	0.87831	0.84608	0.141
Mof_C 	C 	0.5914	0.84599	0.79954	-0.222
Mof_C 	C 	0.6816	0.81041	0.75566	0.099
Mof_C 	C 	0.9544	0.8376	0.7966	0.158
Mof_C 	C 	0.8754	0.874	0.8447	-0.216
Mof_C 	C 	0.1871	0.80365	0.6529	-0.195
Mof_N 	N 	0.3163	0.583	0.63211	-0.261
Mof_N 	N 	0.7944	0.57789	0.47465	-0.122
Mof_N 	N 	0.6295	0.56065	0.44704	-0.174
Mof_N 	N 	0.8613	0.69432	0.2534	-0.243
Mof_N 	N 	0.2885	0.65671	0.15319	-0.214
Mof_N 	N 	0.6837	0.917	0.63211	-0.219
Mof_N 	N 	0.2056	0.92211	0.47465	-0.133
Mof_N 	N 	0.3705	0.93935	0.44704	-0.166
Mof_N 	N 	0.1387	0.80568	0.2534	-0.23
Mof_N 	N 	0.7115	0.84329	0.15319	-0.215
Mof_N 	N 	0.3163	0.417	0.86789	-0.245
Mof_N 	N 	0.7944	0.42211	0.02535	-0.149
Mof_N 	N 	0.6295	0.43935	0.05296	-0.18
Mof_N 	N 	0.8613	0.30568	0.2466	-0.242
Mof_N 	N 	0.2885	0.34329	0.34681	-0.214
Mof_N 	N 	0.6837	0.083	0.86789	-0.204
Mof_N 	N 	0.2056	0.07789	0.02535	-0.168
Mof_N 	N 	0.3705	0.06065	0.05296	-0.191
Mof_N 	N 	0.1387	0.19432	0.2466	-0.229
Mof_N 	N 	0.7115	0.15671	0.34681	-0.214
Mof_N 	N 	0.6837	0.417	0.36789	-0.219
Mof_N 	N 	0.2056	0.42211	0.52535	-0.138
Mof_N 	N 	0.3705	0.43935	0.55296	-0.178
Mof_N 	N 	0.1387	0.30568	0.7466	-0.229
Mof_N 	N 	0.7115	0.34329	0.84681	-0.214
Mof_N 	N 	0.3163	0.083	0.36789	-0.261
Mof_N 	N 	0.7944	0.07789	0.52535	-0.125
Mof_N 	N 	0.6295	0.06065	0.55296	-0.181
Mof_N 	N 	0.8613	0.19432	0.7466	-0.241
Mof_N 	N 	0.2885	0.15671	0.84681	-0.213
Mof_N 	N 	0.6837	0.583	0.13211	-0.236
Mof_N 	N 	0.2056	0.57789	0.97465	-0.11
Mof_N 	N 	0.3705	0.56065	0.94704	-0.167
Mof_N 	N 	0.1387	0.69432	0.7534	-0.229
Mof_N 	N 	0.7115	0.65671	0.65319	-0.215
Mof_N 	N 	0.3163	0.917	0.13211	-0.275
Mof_N 	N 	0.7944	0.92211	0.97465	-0.091
Mof_N 	N 	0.6295	0.93935	0.94704	-0.152
Mof_N 	N 	0.8613	0.80568	0.7534	-0.243
Mof_N 	N 	0.2885	0.84329	0.65319	-0.214
Mof_O 	O 	0.7042	0.51255	0.55688	-0.396
Mof_O 	O 	0.2958	0.98745	0.55688	-0.391
Mof_O 	O 	0.7042	0.48745	0.94312	-0.395
Mof_O 	O 	0.2958	0.01255	0.94312	-0.429
Mof_O 	O 	0.2958	0.48745	0.44312	-0.414
Mof_O 	O 	0.7042	0.01255	0.44312	-0.412
Mof_O 	O 	0.2958	0.51255	0.05688	-0.409
Mof_O 	O 	0.7042	0.98745	0.05688	-0.368
_end
