data_functionalizedCrystal
_audit_creation_method	'EQeq! by Chris Wilmer'
_symmetry_space_group_name_H-M	'P1'
_symmetry_Int_Tables_number	1
_symmetry_cell_setting	triclinic
loop_
_symmetry_equiv_pos_as_xyz
  x,y,z
_cell_length_a	10.1034
_cell_length_b	25.155
_cell_length_c	9.104
_cell_angle_alpha	90
_cell_angle_beta	90
_cell_angle_gamma	90
loop_
_atom_site_label
_atom_site_type_symbol
_atom_site_fract_x
_atom_site_fract_y
_atom_site_fract_z
_atom_site_charge
Mof_Zn	Zn	0.15762	0.55301	0.12094	1.238
Mof_P 	P 	0.10956	0.6807	0.09736	0.488
Mof_H 	H 	0.0005	0.6879	0.0365	-0.056
Mof_P 	P 	0.43152	0.52763	0.28455	0.467
Mof_H 	H 	0.5015	0.571	0.2903	-0.059
Mof_O 	O 	0.1096	0.72294	0.2167	-0.449
Mof_O 	O 	0.1982	0.69087	0.9677	-0.47
Mof_O 	O 	0.1214	0.6259	0.1591	-0.469
Mof_O 	O 	0.3387	0.53275	0.1555	-0.428
Mof_O 	O 	0.5289	0.48252	0.2508	-0.411
Mof_O 	O 	0.3621	0.52068	0.4297	-0.468
Mof_Zn	Zn	0.34238	0.94699	0.12094	1.237
Mof_P 	P 	0.39044	0.8193	0.09736	0.488
Mof_H 	H 	0.4995	0.8121	0.0365	-0.055
Mof_P 	P 	0.06848	0.97237	0.28455	0.463
Mof_H 	H 	0.9985	0.929	0.2903	-0.058
Mof_O 	O 	0.3904	0.77706	0.2167	-0.449
Mof_O 	O 	0.3018	0.80913	0.9677	-0.47
Mof_O 	O 	0.3786	0.8741	0.1591	-0.468
Mof_O 	O 	0.1613	0.96725	0.1555	-0.429
Mof_O 	O 	0.9711	0.01748	0.2508	-0.409
Mof_O 	O 	0.1379	0.97932	0.4297	-0.468
Mof_Zn	Zn	0.84238	0.05301	0.37906	1.237
Mof_P 	P 	0.89044	0.1807	0.40264	0.491
Mof_H 	H 	0.9995	0.1879	0.4635	-0.055
Mof_P 	P 	0.56848	0.02763	0.21545	0.467
Mof_H 	H 	0.4985	0.071	0.2097	-0.059
Mof_O 	O 	0.8904	0.22294	0.2833	-0.448
Mof_O 	O 	0.8018	0.19087	0.5323	-0.474
Mof_O 	O 	0.8786	0.1259	0.3409	-0.468
Mof_O 	O 	0.6613	0.03275	0.3445	-0.428
Mof_O 	O 	0.4711	0.98252	0.2492	-0.412
Mof_O 	O 	0.6379	0.02068	0.0703	-0.467
Mof_Zn	Zn	0.65762	0.44699	0.37906	1.237
Mof_P 	P 	0.60956	0.3193	0.40264	0.491
Mof_H 	H 	0.5005	0.3121	0.4635	-0.055
Mof_P 	P 	0.93152	0.47237	0.21545	0.47
Mof_H 	H 	0.0015	0.429	0.2097	-0.06
Mof_O 	O 	0.6096	0.27706	0.2833	-0.448
Mof_O 	O 	0.6982	0.30913	0.5323	-0.474
Mof_O 	O 	0.6214	0.3741	0.3409	-0.468
Mof_O 	O 	0.8387	0.46725	0.3445	-0.428
Mof_O 	O 	0.0289	0.51748	0.2492	-0.413
Mof_O 	O 	0.8621	0.47932	0.0703	-0.467
Mof_Zn	Zn	0.84238	0.44699	0.87906	1.237
Mof_P 	P 	0.89044	0.3193	0.90264	0.487
Mof_H 	H 	0.9995	0.3121	0.9635	-0.056
Mof_P 	P 	0.56848	0.47237	0.71545	0.467
Mof_H 	H 	0.4985	0.429	0.7097	-0.059
Mof_O 	O 	0.8904	0.27706	0.7833	-0.449
Mof_O 	O 	0.8018	0.30913	0.0323	-0.47
Mof_O 	O 	0.8786	0.3741	0.8409	-0.469
Mof_O 	O 	0.6613	0.46725	0.8445	-0.428
Mof_O 	O 	0.4711	0.51748	0.7492	-0.411
Mof_O 	O 	0.6379	0.47932	0.5703	-0.468
Mof_Zn	Zn	0.65762	0.05301	0.87906	1.237
Mof_P 	P 	0.60956	0.1807	0.90264	0.488
Mof_H 	H 	0.5005	0.1879	0.9635	-0.055
Mof_P 	P 	0.93152	0.02763	0.71545	0.463
Mof_H 	H 	0.0015	0.071	0.7097	-0.058
Mof_O 	O 	0.6096	0.22294	0.7833	-0.449
Mof_O 	O 	0.6982	0.19087	0.0323	-0.47
Mof_O 	O 	0.6214	0.1259	0.8409	-0.468
Mof_O 	O 	0.8387	0.03275	0.8445	-0.429
Mof_O 	O 	0.0289	0.98252	0.7492	-0.409
Mof_O 	O 	0.8621	0.02068	0.5703	-0.468
Mof_Zn	Zn	0.15762	0.94699	0.62094	1.237
Mof_P 	P 	0.10956	0.8193	0.59736	0.491
Mof_H 	H 	0.0005	0.8121	0.5365	-0.055
Mof_P 	P 	0.43152	0.97237	0.78455	0.467
Mof_H 	H 	0.5015	0.929	0.7903	-0.059
Mof_O 	O 	0.1096	0.77706	0.7167	-0.448
Mof_O 	O 	0.1982	0.80913	0.4677	-0.474
Mof_O 	O 	0.1214	0.8741	0.6591	-0.468
Mof_O 	O 	0.3387	0.96725	0.6555	-0.428
Mof_O 	O 	0.5289	0.01748	0.7508	-0.412
Mof_O 	O 	0.3621	0.97932	0.9297	-0.467
Mof_Zn	Zn	0.34238	0.55301	0.62094	1.237
Mof_P 	P 	0.39044	0.6807	0.59736	0.491
Mof_H 	H 	0.4995	0.6879	0.5365	-0.055
Mof_P 	P 	0.06848	0.52763	0.78455	0.47
Mof_H 	H 	0.9985	0.571	0.7903	-0.06
Mof_O 	O 	0.3904	0.72294	0.7167	-0.448
Mof_O 	O 	0.3018	0.69087	0.4677	-0.474
Mof_O 	O 	0.3786	0.6259	0.6591	-0.468
Mof_O 	O 	0.1613	0.53275	0.6555	-0.428
Mof_O 	O 	0.9711	0.48252	0.7508	-0.413
Mof_O 	O 	0.1379	0.52068	0.9297	-0.467
Mof_Zn	Zn	0.25	0.75	0.34437	1.233
Mof_Zn	Zn	0.75	0.25	0.15563	1.234
Mof_Zn	Zn	0.75	0.25	0.65563	1.233
Mof_Zn	Zn	0.25	0.75	0.84437	1.234
_end
