data_functionalizedCrystal
_audit_creation_method	'EQeq! by Chris Wilmer'
_symmetry_space_group_name_H-M	'P1'
_symmetry_Int_Tables_number	1
_symmetry_cell_setting	triclinic
loop_
_symmetry_equiv_pos_as_xyz
  x,y,z
_cell_length_a	9.2732
_cell_length_b	14.3218
_cell_length_c	16.9792
_cell_angle_alpha	98.659
_cell_angle_beta	90
_cell_angle_gamma	108.889
loop_
_atom_site_label
_atom_site_type_symbol
_atom_site_fract_x
_atom_site_fract_y
_atom_site_fract_z
_atom_site_charge
Mof_Zn	Zn	0.97035	0.3462	0.34233	1.225
Mof_Zn	Zn	0.56606	0.34474	0.54949	1.227
Mof_Zn	Zn	0.62415	0.6538	0.15767	1.225
Mof_Zn	Zn	0.22132	0.65526	0.95051	1.227
Mof_Zn	Zn	0.02965	0.6538	0.65767	1.225
Mof_Zn	Zn	0.43394	0.65526	0.45051	1.227
Mof_Zn	Zn	0.37585	0.3462	0.84233	1.225
Mof_Zn	Zn	0.77868	0.34474	0.04949	1.227
Mof_H 	H 	0.1485	0.2558	0.3677	0.337
Mof_H 	H 	0.067	0.3118	0.3972	0.128
Mof_H 	H 	0.682	0.475	0.3254	0.083
Mof_H 	H 	0.8961	0.5938	0.4471	0.073
Mof_H 	H 	0.0383	0.699	0.3683	0.085
Mof_H 	H 	0.0547	0.562	0.2565	0.065
Mof_H 	H 	0.6252	0.2628	0.2731	0.003
Mof_H 	H 	0.4662	0.13	0.1882	0.087
Mof_H 	H 	0.8154	0.025	0.1518	0.084
Mof_H 	H 	0.9609	0.1586	0.2412	0.005
Mof_H 	H 	0.1713	0.8322	0.06	0.01
Mof_H 	H 	0.3161	0.9722	0.1442	0.082
Mof_H 	H 	0.6892	0.9364	0.044	0.09
Mof_H 	H 	0.5344	0.7962	0.9633	-0.001
Mof_H 	H 	0.8927	0.7442	0.1323	0.336
Mof_H 	H 	0.7552	0.6882	0.1028	0.128
Mof_H 	H 	0.207	0.525	0.1746	0.084
Mof_H 	H 	0.3023	0.4062	0.0529	0.074
Mof_H 	H 	0.3393	0.301	0.1317	0.084
Mof_H 	H 	0.4927	0.438	0.2435	0.065
Mof_H 	H 	0.3624	0.7372	0.2269	0.002
Mof_H 	H 	0.3362	0.87	0.3118	0.089
Mof_H 	H 	0.7904	0.975	0.3482	0.088
Mof_H 	H 	0.8023	0.8414	0.2588	0.006
Mof_H 	H 	0.3391	0.1678	0.44	0.01
Mof_H 	H 	0.3439	0.0278	0.3558	0.08
Mof_H 	H 	0.7528	0.0636	0.456	0.086
Mof_H 	H 	0.7382	0.2038	0.5367	0.002
Mof_H 	H 	0.8515	0.7442	0.6323	0.337
Mof_H 	H 	0.933	0.6882	0.6028	0.128
Mof_H 	H 	0.318	0.525	0.6746	0.083
Mof_H 	H 	0.1039	0.4062	0.5529	0.073
Mof_H 	H 	0.9617	0.301	0.6317	0.085
Mof_H 	H 	0.9453	0.438	0.7435	0.065
Mof_H 	H 	0.3748	0.7372	0.7269	0.003
Mof_H 	H 	0.5338	0.87	0.8118	0.087
Mof_H 	H 	0.1846	0.975	0.8482	0.084
Mof_H 	H 	0.0391	0.8414	0.7588	0.005
Mof_H 	H 	0.8287	0.1678	0.94	0.01
Mof_H 	H 	0.6839	0.0278	0.8558	0.082
Mof_H 	H 	0.3108	0.0636	0.956	0.09
Mof_H 	H 	0.4656	0.2038	0.0367	-0.001
Mof_H 	H 	0.1073	0.2558	0.8677	0.336
Mof_H 	H 	0.2448	0.3118	0.8972	0.128
Mof_H 	H 	0.793	0.475	0.8254	0.084
Mof_H 	H 	0.6977	0.5938	0.9471	0.074
Mof_H 	H 	0.6607	0.699	0.8683	0.084
Mof_H 	H 	0.5073	0.562	0.7565	0.065
Mof_H 	H 	0.6376	0.2628	0.7731	0.002
Mof_H 	H 	0.6638	0.13	0.6882	0.089
Mof_H 	H 	0.2096	0.025	0.6518	0.088
Mof_H 	H 	0.1977	0.1586	0.7412	0.006
Mof_H 	H 	0.6609	0.8322	0.56	0.01
Mof_H 	H 	0.6561	0.9722	0.6442	0.08
Mof_H 	H 	0.2472	0.9364	0.544	0.086
Mof_H 	H 	0.2618	0.7962	0.4633	0.002
Mof_C 	C 	0.77403	0.48406	0.3581	-0.046
Mof_C 	C 	0.83865	0.5931	0.3984	-0.079
Mof_C 	C 	0.95682	0.64164	0.33974	-0.107
Mof_C 	C 	0.018	0.5558	0.31025	-0.028
Mof_C 	C 	0.73516	0.41212	0.41823	0.348
Mof_C 	C 	0.72523	0.64686	0.42302	0.332
Mof_C 	C 	0.89192	0.67104	0.26765	0.358
Mof_C 	C 	0.14879	0.55538	0.36618	0.344
Mof_C 	C 	0.66375	0.2139	0.24888	0.087
Mof_C 	C 	0.56691	0.13382	0.19754	-0.142
Mof_C 	C 	0.62018	0.05916	0.15983	0.056
Mof_C 	C 	0.77243	0.07146	0.1764	-0.132
Mof_C 	C 	0.86019	0.15318	0.2296	0.075
Mof_C 	C 	0.27689	0.85298	0.05722	0.077
Mof_C 	C 	0.36333	0.93746	0.108	-0.131
Mof_C 	C 	0.52175	0.9703	0.10465	0.065
Mof_C 	C 	0.58416	0.91632	0.04893	-0.135
Mof_C 	C 	0.49006	0.83192	0.00029	0.086
Mof_C 	C 	0.28997	0.51594	0.1419	-0.045
Mof_C 	C 	0.24555	0.4069	0.1016	-0.081
Mof_C 	C 	0.31518	0.35836	0.16026	-0.105
Mof_C 	C 	0.4622	0.4442	0.18975	-0.03
Mof_C 	C 	0.32304	0.58788	0.08177	0.348
Mof_C 	C 	0.07837	0.35314	0.07698	0.336
Mof_C 	C 	0.22088	0.32896	0.23235	0.357
Mof_C 	C 	0.59341	0.44462	0.13382	0.345
Mof_C 	C 	0.44985	0.7861	0.25112	0.089
Mof_C 	C 	0.43309	0.86618	0.30246	-0.146
Mof_C 	C 	0.56102	0.94084	0.34017	0.063
Mof_C 	C 	0.70097	0.92854	0.3236	-0.136
Mof_C 	C 	0.70701	0.84682	0.2704	0.078
Mof_C 	C 	0.42391	0.14702	0.44278	0.075
Mof_C 	C 	0.42587	0.06254	0.392	-0.126
Mof_C 	C 	0.55145	0.0297	0.39535	0.058
Mof_C 	C 	0.66784	0.08368	0.45107	-0.13
Mof_C 	C 	0.65814	0.16808	0.49971	0.081
Mof_C 	C 	0.22597	0.51594	0.6419	-0.046
Mof_C 	C 	0.16135	0.4069	0.6016	-0.079
Mof_C 	C 	0.04318	0.35836	0.66026	-0.107
Mof_C 	C 	0.982	0.4442	0.68975	-0.028
Mof_C 	C 	0.26484	0.58788	0.58177	0.348
Mof_C 	C 	0.27477	0.35314	0.57698	0.332
Mof_C 	C 	0.10808	0.32896	0.73235	0.358
Mof_C 	C 	0.85121	0.44462	0.63382	0.344
Mof_C 	C 	0.33625	0.7861	0.75112	0.087
Mof_C 	C 	0.43309	0.86618	0.80246	-0.142
Mof_C 	C 	0.37982	0.94084	0.84017	0.056
Mof_C 	C 	0.22757	0.92854	0.8236	-0.132
Mof_C 	C 	0.13981	0.84682	0.7704	0.075
Mof_C 	C 	0.72311	0.14702	0.94278	0.077
Mof_C 	C 	0.63667	0.06254	0.892	-0.131
Mof_C 	C 	0.47825	0.0297	0.89535	0.065
Mof_C 	C 	0.41584	0.08368	0.95107	-0.135
Mof_C 	C 	0.50994	0.16808	0.99971	0.086
Mof_C 	C 	0.71003	0.48406	0.8581	-0.045
Mof_C 	C 	0.75445	0.5931	0.8984	-0.081
Mof_C 	C 	0.68482	0.64164	0.83974	-0.105
Mof_C 	C 	0.5378	0.5558	0.81025	-0.03
Mof_C 	C 	0.67696	0.41212	0.91823	0.348
Mof_C 	C 	0.92163	0.64686	0.92302	0.336
Mof_C 	C 	0.77912	0.67104	0.76765	0.357
Mof_C 	C 	0.40659	0.55538	0.86618	0.345
Mof_C 	C 	0.55015	0.2139	0.74888	0.089
Mof_C 	C 	0.56691	0.13382	0.69754	-0.146
Mof_C 	C 	0.43898	0.05916	0.65983	0.063
Mof_C 	C 	0.29903	0.07146	0.6764	-0.136
Mof_C 	C 	0.29299	0.15318	0.7296	0.078
Mof_C 	C 	0.57609	0.85298	0.55722	0.075
Mof_C 	C 	0.57413	0.93746	0.608	-0.126
Mof_C 	C 	0.44855	0.9703	0.60465	0.058
Mof_C 	C 	0.33216	0.91632	0.54893	-0.13
Mof_C 	C 	0.34186	0.83192	0.50029	0.081
Mof_N 	N 	0.80811	0.22462	0.26538	-0.237
Mof_N 	N 	0.33851	0.79962	0.00413	-0.253
Mof_N 	N 	0.58349	0.77538	0.23462	-0.237
Mof_N 	N 	0.53889	0.20038	0.49587	-0.252
Mof_N 	N 	0.19189	0.77538	0.73462	-0.237
Mof_N 	N 	0.66149	0.20038	0.99587	-0.253
Mof_N 	N 	0.41651	0.22462	0.76538	-0.237
Mof_N 	N 	0.46111	0.79962	0.50413	-0.252
Mof_O 	O 	0.8903	0.46558	0.30689	-0.271
Mof_O 	O 	0.06937	0.25474	0.38958	-0.646
Mof_O 	O 	0.81133	0.35566	0.42491	-0.446
Mof_O 	O 	0.62274	0.41588	0.45834	-0.439
Mof_O 	O 	0.58563	0.60402	0.40084	-0.439
Mof_O 	O 	0.77712	0.73044	0.4662	-0.285
Mof_O 	O 	0.7513	0.6364	0.25255	-0.415
Mof_O 	O 	0.98707	0.72734	0.22858	-0.308
Mof_O 	O 	0.26224	0.63486	0.37429	-0.447
Mof_O 	O 	0.13468	0.48136	0.3987	-0.427
Mof_O 	O 	0.42472	0.53442	0.19311	-0.27
Mof_O 	O 	0.81463	0.74526	0.11042	-0.647
Mof_O 	O 	0.45567	0.64434	0.07509	-0.446
Mof_O 	O 	0.20686	0.58412	0.04166	-0.438
Mof_O 	O 	0.98161	0.39598	0.09916	-0.443
Mof_O 	O 	0.04668	0.26956	0.0338	-0.285
Mof_O 	O 	0.1149	0.3636	0.24745	-0.414
Mof_O 	O 	0.25973	0.27266	0.27142	-0.307
Mof_O 	O 	0.62738	0.36514	0.12571	-0.448
Mof_O 	O 	0.65332	0.51864	0.1013	-0.428
Mof_O 	O 	0.1097	0.53442	0.69311	-0.271
Mof_O 	O 	0.93063	0.74526	0.61042	-0.646
Mof_O 	O 	0.18867	0.64434	0.57509	-0.446
Mof_O 	O 	0.37726	0.58412	0.54166	-0.439
Mof_O 	O 	0.41437	0.39598	0.59916	-0.439
Mof_O 	O 	0.22288	0.26956	0.5338	-0.285
Mof_O 	O 	0.2487	0.3636	0.74745	-0.415
Mof_O 	O 	0.01293	0.27266	0.77142	-0.308
Mof_O 	O 	0.73776	0.36514	0.62571	-0.447
Mof_O 	O 	0.86532	0.51864	0.6013	-0.427
Mof_O 	O 	0.57528	0.46558	0.80689	-0.27
Mof_O 	O 	0.18537	0.25474	0.88958	-0.647
Mof_O 	O 	0.54433	0.35566	0.92491	-0.446
Mof_O 	O 	0.79314	0.41588	0.95834	-0.438
Mof_O 	O 	0.01839	0.60402	0.90084	-0.443
Mof_O 	O 	0.95332	0.73044	0.9662	-0.285
Mof_O 	O 	0.8851	0.6364	0.75255	-0.414
Mof_O 	O 	0.74027	0.72734	0.72858	-0.307
Mof_O 	O 	0.37262	0.63486	0.87429	-0.448
Mof_O 	O 	0.34668	0.48136	0.8987	-0.428
_end
