# CIF file generated by openbabel 3.1.0, see https://openbabel.org
data_I
_chemical_name_common 'image0'
_cell_length_a 44.271
_cell_length_b 44.271
_cell_length_c 44.271
_cell_angle_alpha 90
_cell_angle_beta 90
_cell_angle_gamma 90
_space_group_name_H-M_alt 'P 1'
_space_group_name_Hall 'P 1'
loop_
    _symmetry_equiv_pos_as_xyz
    x,y,z
loop_
    _atom_site_label
    _atom_site_type_symbol
    _atom_site_fract_x
    _atom_site_fract_y
    _atom_site_fract_z
    _atom_site_occupancy
    O1       O        0.64409    0.53066    0.18761    1.000
    O2       O        0.60851    0.53121    0.15170    1.000
    C1       C        0.61934    0.54073    0.17559    1.000
    C2       C        0.60341    0.56450    0.19177    1.000
    C3       C        0.60840    0.57180    0.22272    1.000
    H1       H        0.62320    0.56060    0.23300    1.000
    C4       C        0.58980    0.62310    0.28800    1.000
    N1       N        0.60560    0.62550    0.31350    1.000
    C5       C        0.60020    0.63370    0.27650    1.000
    H2       H        0.58340    0.64550    0.27110    1.000
    N2       N        0.61610    0.63620    0.30200    1.000
    C6       C        0.61600    0.57710    0.21710    1.000
    H3       H        0.63340    0.56880    0.22590    1.000
    H4       H        0.57240    0.63430    0.28310    1.000
    N3       N        0.62310    0.58980    0.28800    1.000
    O3       O        0.64409    0.03066    0.68761    1.000
    O4       O        0.60851    0.03121    0.65170    1.000
    C7       C        0.61934    0.04073    0.67559    1.000
    C8       C        0.60341    0.06450    0.69177    1.000
    C9       C        0.60840    0.07180    0.72272    1.000
    H5       H        0.62320    0.06060    0.73300    1.000
    C10      C        0.58980    0.12310    0.78800    1.000
    N4       N        0.60560    0.12550    0.81350    1.000
    C11      C        0.60020    0.13370    0.77650    1.000
    H6       H        0.58340    0.14550    0.77110    1.000
    N5       N        0.61610    0.13620    0.80200    1.000
    C12      C        0.61600    0.07710    0.71710    1.000
    H7       H        0.63340    0.06880    0.72590    1.000
    H8       H        0.57240    0.13430    0.78310    1.000
    N6       N        0.62310    0.08980    0.78800    1.000
    O5       O        0.14409    0.53066    0.68761    1.000
    O6       O        0.10851    0.53121    0.65170    1.000
    C13      C        0.11934    0.54073    0.67559    1.000
    C14      C        0.10341    0.56450    0.69177    1.000
    C15      C        0.10840    0.57180    0.72272    1.000
    H9       H        0.12320    0.56060    0.73300    1.000
    C16      C        0.08980    0.62310    0.78800    1.000
    N7       N        0.10560    0.62550    0.81350    1.000
    C17      C        0.10020    0.63370    0.77650    1.000
    H10      H        0.08340    0.64550    0.77110    1.000
    N8       N        0.11610    0.63620    0.80200    1.000
    C18      C        0.11600    0.57710    0.71710    1.000
    H11      H        0.13340    0.56880    0.72590    1.000
    H12      H        0.07240    0.63430    0.78310    1.000
    N9       N        0.12310    0.58980    0.78800    1.000
    O7       O        0.14409    0.03066    0.18761    1.000
    O8       O        0.10851    0.03121    0.15170    1.000
    C19      C        0.11934    0.04073    0.17559    1.000
    C20      C        0.10341    0.06450    0.19177    1.000
    C21      C        0.10840    0.07180    0.22272    1.000
    H13      H        0.12320    0.06060    0.23300    1.000
    C22      C        0.08980    0.12310    0.28800    1.000
    N10      N        0.10560    0.12550    0.31350    1.000
    C23      C        0.10020    0.13370    0.27650    1.000
    H14      H        0.08340    0.14550    0.27110    1.000
    N11      N        0.11610    0.13620    0.30200    1.000
    C24      C        0.11600    0.07710    0.21710    1.000
    H15      H        0.13340    0.06880    0.22590    1.000
    H16      H        0.07240    0.13430    0.28310    1.000
    N12      N        0.12310    0.08980    0.28800    1.000
    O9       O        0.35591    0.46934    0.18761    1.000
    O10      O        0.39149    0.46879    0.15170    1.000
    C25      C        0.38066    0.45927    0.17559    1.000
    C26      C        0.39659    0.43550    0.19177    1.000
    C27      C        0.39160    0.42820    0.22272    1.000
    H17      H        0.37680    0.43940    0.23300    1.000
    C28      C        0.41020    0.37690    0.28800    1.000
    N13      N        0.39440    0.37450    0.31350    1.000
    C29      C        0.39980    0.36630    0.27650    1.000
    H18      H        0.41660    0.35450    0.27110    1.000
    N14      N        0.38390    0.36380    0.30200    1.000
    C30      C        0.38400    0.42290    0.21710    1.000
    H19      H        0.36660    0.43120    0.22590    1.000
    H20      H        0.42760    0.36570    0.28310    1.000
    N15      N        0.37690    0.41020    0.28800    1.000
    O11      O        0.35591    0.96934    0.68761    1.000
    O12      O        0.39149    0.96879    0.65170    1.000
    C31      C        0.38066    0.95927    0.67559    1.000
    C32      C        0.39659    0.93550    0.69177    1.000
    C33      C        0.39160    0.92820    0.72272    1.000
    H21      H        0.37680    0.93940    0.73300    1.000
    C34      C        0.41020    0.87690    0.78800    1.000
    N16      N        0.39440    0.87450    0.81350    1.000
    C35      C        0.39980    0.86630    0.77650    1.000
    H22      H        0.41660    0.85450    0.77110    1.000
    N17      N        0.38390    0.86380    0.80200    1.000
    C36      C        0.38400    0.92290    0.71710    1.000
    H23      H        0.36660    0.93120    0.72590    1.000
    H24      H        0.42760    0.86570    0.78310    1.000
    N18      N        0.37690    0.91020    0.78800    1.000
    O13      O        0.85591    0.46934    0.68761    1.000
    O14      O        0.89149    0.46879    0.65170    1.000
    C37      C        0.88066    0.45927    0.67559    1.000
    C38      C        0.89659    0.43550    0.69177    1.000
    C39      C        0.89160    0.42820    0.72272    1.000
    H25      H        0.87680    0.43940    0.73300    1.000
    C40      C        0.91020    0.37690    0.78800    1.000
    N19      N        0.89440    0.37450    0.81350    1.000
    C41      C        0.89980    0.36630    0.77650    1.000
    H26      H        0.91660    0.35450    0.77110    1.000
    N20      N        0.88390    0.36380    0.80200    1.000
    C42      C        0.88400    0.42290    0.71710    1.000
    H27      H        0.86660    0.43120    0.72590    1.000
    H28      H        0.92760    0.36570    0.78310    1.000
    N21      N        0.87690    0.41020    0.78800    1.000
    O15      O        0.85591    0.96934    0.18761    1.000
    O16      O        0.89149    0.96879    0.15170    1.000
    C43      C        0.88066    0.95927    0.17559    1.000
    C44      C        0.89659    0.93550    0.19177    1.000
    C45      C        0.89160    0.92820    0.22272    1.000
    H29      H        0.87680    0.93940    0.23300    1.000
    C46      C        0.91020    0.87690    0.28800    1.000
    N22      N        0.89440    0.87450    0.31350    1.000
    C47      C        0.89980    0.86630    0.27650    1.000
    H30      H        0.91660    0.85450    0.27110    1.000
    N23      N        0.88390    0.86380    0.30200    1.000
    C48      C        0.88400    0.92290    0.21710    1.000
    H31      H        0.86660    0.93120    0.22590    1.000
    H32      H        0.92760    0.86570    0.28310    1.000
    N24      N        0.87690    0.91020    0.28800    1.000
    O17      O        0.35591    0.53066    0.81239    1.000
    O18      O        0.39149    0.53121    0.84830    1.000
    C49      C        0.38066    0.54073    0.82441    1.000
    C50      C        0.39659    0.56450    0.80823    1.000
    C51      C        0.39160    0.57180    0.77728    1.000
    H33      H        0.37680    0.56060    0.76700    1.000
    C52      C        0.41020    0.62310    0.71200    1.000
    N25      N        0.39440    0.62550    0.68650    1.000
    C53      C        0.39980    0.63370    0.72350    1.000
    H34      H        0.41660    0.64550    0.72890    1.000
    N26      N        0.38390    0.63620    0.69800    1.000
    C54      C        0.38400    0.57710    0.78290    1.000
    H35      H        0.36660    0.56880    0.77410    1.000
    H36      H        0.42760    0.63430    0.71690    1.000
    N27      N        0.37690    0.58980    0.71200    1.000
    O19      O        0.35591    0.03066    0.31239    1.000
    O20      O        0.39149    0.03121    0.34830    1.000
    C55      C        0.38066    0.04073    0.32441    1.000
    C56      C        0.39659    0.06450    0.30823    1.000
    C57      C        0.39160    0.07180    0.27728    1.000
    H37      H        0.37680    0.06060    0.26700    1.000
    C58      C        0.41020    0.12310    0.21200    1.000
    N28      N        0.39440    0.12550    0.18650    1.000
    C59      C        0.39980    0.13370    0.22350    1.000
    H38      H        0.41660    0.14550    0.22890    1.000
    N29      N        0.38390    0.13620    0.19800    1.000
    C60      C        0.38400    0.07710    0.28290    1.000
    H39      H        0.36660    0.06880    0.27410    1.000
    H40      H        0.42760    0.13430    0.21690    1.000
    N30      N        0.37690    0.08980    0.21200    1.000
    O21      O        0.85591    0.53066    0.31239    1.000
    O22      O        0.89149    0.53121    0.34830    1.000
    C61      C        0.88066    0.54073    0.32441    1.000
    C62      C        0.89659    0.56450    0.30823    1.000
    C63      C        0.89160    0.57180    0.27728    1.000
    H41      H        0.87680    0.56060    0.26700    1.000
    C64      C        0.91020    0.62310    0.21200    1.000
    N31      N        0.89440    0.62550    0.18650    1.000
    C65      C        0.89980    0.63370    0.22350    1.000
    H42      H        0.91660    0.64550    0.22890    1.000
    N32      N        0.88390    0.63620    0.19800    1.000
    C66      C        0.88400    0.57710    0.28290    1.000
    H43      H        0.86660    0.56880    0.27410    1.000
    H44      H        0.92760    0.63430    0.21690    1.000
    N33      N        0.87690    0.58980    0.21200    1.000
    O23      O        0.85591    0.03066    0.81239    1.000
    O24      O        0.89149    0.03121    0.84830    1.000
    C67      C        0.88066    0.04073    0.82441    1.000
    C68      C        0.89659    0.06450    0.80823    1.000
    C69      C        0.89160    0.07180    0.77728    1.000
    H45      H        0.87680    0.06060    0.76700    1.000
    C70      C        0.91020    0.12310    0.71200    1.000
    N34      N        0.89440    0.12550    0.68650    1.000
    C71      C        0.89980    0.13370    0.72350    1.000
    H46      H        0.91660    0.14550    0.72890    1.000
    N35      N        0.88390    0.13620    0.69800    1.000
    C72      C        0.88400    0.07710    0.78290    1.000
    H47      H        0.86660    0.06880    0.77410    1.000
    H48      H        0.92760    0.13430    0.71690    1.000
    N36      N        0.87690    0.08980    0.71200    1.000
    O25      O        0.64409    0.46934    0.81239    1.000
    O26      O        0.60851    0.46879    0.84830    1.000
    C73      C        0.61934    0.45927    0.82441    1.000
    C74      C        0.60341    0.43550    0.80823    1.000
    C75      C        0.60840    0.42820    0.77728    1.000
    H49      H        0.62320    0.43940    0.76700    1.000
    C76      C        0.58980    0.37690    0.71200    1.000
    N37      N        0.60560    0.37450    0.68650    1.000
    C77      C        0.60020    0.36630    0.72350    1.000
    H50      H        0.58340    0.35450    0.72890    1.000
    N38      N        0.61610    0.36380    0.69800    1.000
    C78      C        0.61600    0.42290    0.78290    1.000
    H51      H        0.63340    0.43120    0.77410    1.000
    H52      H        0.57240    0.36570    0.71690    1.000
    N39      N        0.62310    0.41020    0.71200    1.000
    O27      O        0.64409    0.96934    0.31239    1.000
    O28      O        0.60851    0.96879    0.34830    1.000
    C79      C        0.61934    0.95927    0.32441    1.000
    C80      C        0.60341    0.93550    0.30823    1.000
    C81      C        0.60840    0.92820    0.27728    1.000
    H53      H        0.62320    0.93940    0.26700    1.000
    C82      C        0.58980    0.87690    0.21200    1.000
    N40      N        0.60560    0.87450    0.18650    1.000
    C83      C        0.60020    0.86630    0.22350    1.000
    H54      H        0.58340    0.85450    0.22890    1.000
    N41      N        0.61610    0.86380    0.19800    1.000
    C84      C        0.61600    0.92290    0.28290    1.000
    H55      H        0.63340    0.93120    0.27410    1.000
    H56      H        0.57240    0.86570    0.21690    1.000
    N42      N        0.62310    0.91020    0.21200    1.000
    O29      O        0.14409    0.46934    0.31239    1.000
    O30      O        0.10851    0.46879    0.34830    1.000
    C85      C        0.11934    0.45927    0.32441    1.000
    C86      C        0.10341    0.43550    0.30823    1.000
    C87      C        0.10840    0.42820    0.27728    1.000
    H57      H        0.12320    0.43940    0.26700    1.000
    C88      C        0.08980    0.37690    0.21200    1.000
    N43      N        0.10560    0.37450    0.18650    1.000
    C89      C        0.10020    0.36630    0.22350    1.000
    H58      H        0.08340    0.35450    0.22890    1.000
    N44      N        0.11610    0.36380    0.19800    1.000
    C90      C        0.11600    0.42290    0.28290    1.000
    H59      H        0.13340    0.43120    0.27410    1.000
    H60      H        0.07240    0.36570    0.21690    1.000
    N45      N        0.12310    0.41020    0.21200    1.000
    O31      O        0.14409    0.96934    0.81239    1.000
    O32      O        0.10851    0.96879    0.84830    1.000
    C91      C        0.11934    0.95927    0.82441    1.000
    C92      C        0.10341    0.93550    0.80823    1.000
    C93      C        0.10840    0.92820    0.77728    1.000
    H61      H        0.12320    0.93940    0.76700    1.000
    C94      C        0.08980    0.87690    0.71200    1.000
    N46      N        0.10560    0.87450    0.68650    1.000
    C95      C        0.10020    0.86630    0.72350    1.000
    H62      H        0.08340    0.85450    0.72890    1.000
    N47      N        0.11610    0.86380    0.69800    1.000
    C96      C        0.11600    0.92290    0.78290    1.000
    H63      H        0.13340    0.93120    0.77410    1.000
    H64      H        0.07240    0.86570    0.71690    1.000
    N48      N        0.12310    0.91020    0.71200    1.000
    O33      O        0.18761    0.64409    0.53066    1.000
    O34      O        0.15170    0.60851    0.53121    1.000
    C97      C        0.17559    0.61934    0.54073    1.000
    C98      C        0.19177    0.60341    0.56450    1.000
    C99      C        0.22272    0.60840    0.57180    1.000
    H65      H        0.23300    0.62320    0.56060    1.000
    C100     C        0.28800    0.58980    0.62310    1.000
    N49      N        0.31350    0.60560    0.62550    1.000
    C101     C        0.27650    0.60020    0.63370    1.000
    H66      H        0.27110    0.58340    0.64550    1.000
    N50      N        0.30200    0.61610    0.63620    1.000
    C102     C        0.21710    0.61600    0.57710    1.000
    H67      H        0.22590    0.63340    0.56880    1.000
    H68      H        0.28310    0.57240    0.63430    1.000
    N51      N        0.28800    0.62310    0.58980    1.000
    O35      O        0.18761    0.14409    0.03066    1.000
    O36      O        0.15170    0.10851    0.03121    1.000
    C103     C        0.17559    0.11934    0.04073    1.000
    C104     C        0.19177    0.10341    0.06450    1.000
    C105     C        0.22272    0.10840    0.07180    1.000
    H69      H        0.23300    0.12320    0.06060    1.000
    C106     C        0.28800    0.08980    0.12310    1.000
    N52      N        0.31350    0.10560    0.12550    1.000
    C107     C        0.27650    0.10020    0.13370    1.000
    H70      H        0.27110    0.08340    0.14550    1.000
    N53      N        0.30200    0.11610    0.13620    1.000
    C108     C        0.21710    0.11600    0.07710    1.000
    H71      H        0.22590    0.13340    0.06880    1.000
    H72      H        0.28310    0.07240    0.13430    1.000
    N54      N        0.28800    0.12310    0.08980    1.000
    O37      O        0.68761    0.64409    0.03066    1.000
    O38      O        0.65170    0.60851    0.03121    1.000
    C109     C        0.67559    0.61934    0.04073    1.000
    C110     C        0.69177    0.60341    0.06450    1.000
    C111     C        0.72272    0.60840    0.07180    1.000
    H73      H        0.73300    0.62320    0.06060    1.000
    C112     C        0.78800    0.58980    0.12310    1.000
    N55      N        0.81350    0.60560    0.12550    1.000
    C113     C        0.77650    0.60020    0.13370    1.000
    H74      H        0.77110    0.58340    0.14550    1.000
    N56      N        0.80200    0.61610    0.13620    1.000
    C114     C        0.71710    0.61600    0.07710    1.000
    H75      H        0.72590    0.63340    0.06880    1.000
    H76      H        0.78310    0.57240    0.13430    1.000
    N57      N        0.78800    0.62310    0.08980    1.000
    O39      O        0.68761    0.14409    0.53066    1.000
    O40      O        0.65170    0.10851    0.53121    1.000
    C115     C        0.67559    0.11934    0.54073    1.000
    C116     C        0.69177    0.10341    0.56450    1.000
    C117     C        0.72272    0.10840    0.57180    1.000
    H77      H        0.73300    0.12320    0.56060    1.000
    C118     C        0.78800    0.08980    0.62310    1.000
    N58      N        0.81350    0.10560    0.62550    1.000
    C119     C        0.77650    0.10020    0.63370    1.000
    H78      H        0.77110    0.08340    0.64550    1.000
    N59      N        0.80200    0.11610    0.63620    1.000
    C120     C        0.71710    0.11600    0.57710    1.000
    H79      H        0.72590    0.13340    0.56880    1.000
    H80      H        0.78310    0.07240    0.63430    1.000
    N60      N        0.78800    0.12310    0.58980    1.000
    O41      O        0.18761    0.35591    0.46934    1.000
    O42      O        0.15170    0.39149    0.46879    1.000
    C121     C        0.17559    0.38066    0.45927    1.000
    C122     C        0.19177    0.39659    0.43550    1.000
    C123     C        0.22272    0.39160    0.42820    1.000
    H81      H        0.23300    0.37680    0.43940    1.000
    C124     C        0.28800    0.41020    0.37690    1.000
    N61      N        0.31350    0.39440    0.37450    1.000
    C125     C        0.27650    0.39980    0.36630    1.000
    H82      H        0.27110    0.41660    0.35450    1.000
    N62      N        0.30200    0.38390    0.36380    1.000
    C126     C        0.21710    0.38400    0.42290    1.000
    H83      H        0.22590    0.36660    0.43120    1.000
    H84      H        0.28310    0.42760    0.36570    1.000
    N63      N        0.28800    0.37690    0.41020    1.000
    O43      O        0.18761    0.85591    0.96934    1.000
    O44      O        0.15170    0.89149    0.96879    1.000
    C127     C        0.17559    0.88066    0.95927    1.000
    C128     C        0.19177    0.89659    0.93550    1.000
    C129     C        0.22272    0.89160    0.92820    1.000
    H85      H        0.23300    0.87680    0.93940    1.000
    C130     C        0.28800    0.91020    0.87690    1.000
    N64      N        0.31350    0.89440    0.87450    1.000
    C131     C        0.27650    0.89980    0.86630    1.000
    H86      H        0.27110    0.91660    0.85450    1.000
    N65      N        0.30200    0.88390    0.86380    1.000
    C132     C        0.21710    0.88400    0.92290    1.000
    H87      H        0.22590    0.86660    0.93120    1.000
    H88      H        0.28310    0.92760    0.86570    1.000
    N66      N        0.28800    0.87690    0.91020    1.000
    O45      O        0.68761    0.35591    0.96934    1.000
    O46      O        0.65170    0.39149    0.96879    1.000
    C133     C        0.67559    0.38066    0.95927    1.000
    C134     C        0.69177    0.39659    0.93550    1.000
    C135     C        0.72272    0.39160    0.92820    1.000
    H89      H        0.73300    0.37680    0.93940    1.000
    C136     C        0.78800    0.41020    0.87690    1.000
    N67      N        0.81350    0.39440    0.87450    1.000
    C137     C        0.77650    0.39980    0.86630    1.000
    H90      H        0.77110    0.41660    0.85450    1.000
    N68      N        0.80200    0.38390    0.86380    1.000
    C138     C        0.71710    0.38400    0.92290    1.000
    H91      H        0.72590    0.36660    0.93120    1.000
    H92      H        0.78310    0.42760    0.86570    1.000
    N69      N        0.78800    0.37690    0.91020    1.000
    O47      O        0.68761    0.85591    0.46934    1.000
    O48      O        0.65170    0.89149    0.46879    1.000
    C139     C        0.67559    0.88066    0.45927    1.000
    C140     C        0.69177    0.89659    0.43550    1.000
    C141     C        0.72272    0.89160    0.42820    1.000
    H93      H        0.73300    0.87680    0.43940    1.000
    C142     C        0.78800    0.91020    0.37690    1.000
    N70      N        0.81350    0.89440    0.37450    1.000
    C143     C        0.77650    0.89980    0.36630    1.000
    H94      H        0.77110    0.91660    0.35450    1.000
    N71      N        0.80200    0.88390    0.36380    1.000
    C144     C        0.71710    0.88400    0.42290    1.000
    H95      H        0.72590    0.86660    0.43120    1.000
    H96      H        0.78310    0.92760    0.36570    1.000
    N72      N        0.78800    0.87690    0.41020    1.000
    O49      O        0.81239    0.35591    0.53066    1.000
    O50      O        0.84830    0.39149    0.53121    1.000
    C145     C        0.82441    0.38066    0.54073    1.000
    C146     C        0.80823    0.39659    0.56450    1.000
    C147     C        0.77728    0.39160    0.57180    1.000
    H97      H        0.76700    0.37680    0.56060    1.000
    C148     C        0.71200    0.41020    0.62310    1.000
    N73      N        0.68650    0.39440    0.62550    1.000
    C149     C        0.72350    0.39980    0.63370    1.000
    H98      H        0.72890    0.41660    0.64550    1.000
    N74      N        0.69800    0.38390    0.63620    1.000
    C150     C        0.78290    0.38400    0.57710    1.000
    H99      H        0.77410    0.36660    0.56880    1.000
    H100     H        0.71690    0.42760    0.63430    1.000
    N75      N        0.71200    0.37690    0.58980    1.000
    O51      O        0.81239    0.85591    0.03066    1.000
    O52      O        0.84830    0.89149    0.03121    1.000
    C151     C        0.82441    0.88066    0.04073    1.000
    C152     C        0.80823    0.89659    0.06450    1.000
    C153     C        0.77728    0.89160    0.07180    1.000
    H101     H        0.76700    0.87680    0.06060    1.000
    C154     C        0.71200    0.91020    0.12310    1.000
    N76      N        0.68650    0.89440    0.12550    1.000
    C155     C        0.72350    0.89980    0.13370    1.000
    H102     H        0.72890    0.91660    0.14550    1.000
    N77      N        0.69800    0.88390    0.13620    1.000
    C156     C        0.78290    0.88400    0.07710    1.000
    H103     H        0.77410    0.86660    0.06880    1.000
    H104     H        0.71690    0.92760    0.13430    1.000
    N78      N        0.71200    0.87690    0.08980    1.000
    O53      O        0.31239    0.35591    0.03066    1.000
    O54      O        0.34830    0.39149    0.03121    1.000
    C157     C        0.32441    0.38066    0.04073    1.000
    C158     C        0.30823    0.39659    0.06450    1.000
    C159     C        0.27728    0.39160    0.07180    1.000
    H105     H        0.26700    0.37680    0.06060    1.000
    C160     C        0.21200    0.41020    0.12310    1.000
    N79      N        0.18650    0.39440    0.12550    1.000
    C161     C        0.22350    0.39980    0.13370    1.000
    H106     H        0.22890    0.41660    0.14550    1.000
    N80      N        0.19800    0.38390    0.13620    1.000
    C162     C        0.28290    0.38400    0.07710    1.000
    H107     H        0.27410    0.36660    0.06880    1.000
    H108     H        0.21690    0.42760    0.13430    1.000
    N81      N        0.21200    0.37690    0.08980    1.000
    O55      O        0.31239    0.85591    0.53066    1.000
    O56      O        0.34830    0.89149    0.53121    1.000
    C163     C        0.32441    0.88066    0.54073    1.000
    C164     C        0.30823    0.89659    0.56450    1.000
    C165     C        0.27728    0.89160    0.57180    1.000
    H109     H        0.26700    0.87680    0.56060    1.000
    C166     C        0.21200    0.91020    0.62310    1.000
    N82      N        0.18650    0.89440    0.62550    1.000
    C167     C        0.22350    0.89980    0.63370    1.000
    H110     H        0.22890    0.91660    0.64550    1.000
    N83      N        0.19800    0.88390    0.63620    1.000
    C168     C        0.28290    0.88400    0.57710    1.000
    H111     H        0.27410    0.86660    0.56880    1.000
    H112     H        0.21690    0.92760    0.63430    1.000
    N84      N        0.21200    0.87690    0.58980    1.000
    O57      O        0.81239    0.64409    0.46934    1.000
    O58      O        0.84830    0.60851    0.46879    1.000
    C169     C        0.82441    0.61934    0.45927    1.000
    C170     C        0.80823    0.60341    0.43550    1.000
    C171     C        0.77728    0.60840    0.42820    1.000
    H113     H        0.76700    0.62320    0.43940    1.000
    C172     C        0.71200    0.58980    0.37690    1.000
    N85      N        0.68650    0.60560    0.37450    1.000
    C173     C        0.72350    0.60020    0.36630    1.000
    H114     H        0.72890    0.58340    0.35450    1.000
    N86      N        0.69800    0.61610    0.36380    1.000
    C174     C        0.78290    0.61600    0.42290    1.000
    H115     H        0.77410    0.63340    0.43120    1.000
    H116     H        0.71690    0.57240    0.36570    1.000
    N87      N        0.71200    0.62310    0.41020    1.000
    O59      O        0.81239    0.14409    0.96934    1.000
    O60      O        0.84830    0.10851    0.96879    1.000
    C175     C        0.82441    0.11934    0.95927    1.000
    C176     C        0.80823    0.10341    0.93550    1.000
    C177     C        0.77728    0.10840    0.92820    1.000
    H117     H        0.76700    0.12320    0.93940    1.000
    C178     C        0.71200    0.08980    0.87690    1.000
    N88      N        0.68650    0.10560    0.87450    1.000
    C179     C        0.72350    0.10020    0.86630    1.000
    H118     H        0.72890    0.08340    0.85450    1.000
    N89      N        0.69800    0.11610    0.86380    1.000
    C180     C        0.78290    0.11600    0.92290    1.000
    H119     H        0.77410    0.13340    0.93120    1.000
    H120     H        0.71690    0.07240    0.86570    1.000
    N90      N        0.71200    0.12310    0.91020    1.000
    O61      O        0.31239    0.64409    0.96934    1.000
    O62      O        0.34830    0.60851    0.96879    1.000
    C181     C        0.32441    0.61934    0.95927    1.000
    C182     C        0.30823    0.60341    0.93550    1.000
    C183     C        0.27728    0.60840    0.92820    1.000
    H121     H        0.26700    0.62320    0.93940    1.000
    C184     C        0.21200    0.58980    0.87690    1.000
    N91      N        0.18650    0.60560    0.87450    1.000
    C185     C        0.22350    0.60020    0.86630    1.000
    H122     H        0.22890    0.58340    0.85450    1.000
    N92      N        0.19800    0.61610    0.86380    1.000
    C186     C        0.28290    0.61600    0.92290    1.000
    H123     H        0.27410    0.63340    0.93120    1.000
    H124     H        0.21690    0.57240    0.86570    1.000
    N93      N        0.21200    0.62310    0.91020    1.000
    O63      O        0.31239    0.14409    0.46934    1.000
    O64      O        0.34830    0.10851    0.46879    1.000
    C187     C        0.32441    0.11934    0.45927    1.000
    C188     C        0.30823    0.10341    0.43550    1.000
    C189     C        0.27728    0.10840    0.42820    1.000
    H125     H        0.26700    0.12320    0.43940    1.000
    C190     C        0.21200    0.08980    0.37690    1.000
    N94      N        0.18650    0.10560    0.37450    1.000
    C191     C        0.22350    0.10020    0.36630    1.000
    H126     H        0.22890    0.08340    0.35450    1.000
    N95      N        0.19800    0.11610    0.36380    1.000
    C192     C        0.28290    0.11600    0.42290    1.000
    H127     H        0.27410    0.13340    0.43120    1.000
    H128     H        0.21690    0.07240    0.36570    1.000
    N96      N        0.21200    0.12310    0.41020    1.000
    O65      O        0.53066    0.18761    0.64409    1.000
    O66      O        0.53121    0.15170    0.60851    1.000
    C193     C        0.54073    0.17559    0.61934    1.000
    C194     C        0.56450    0.19177    0.60341    1.000
    C195     C        0.57180    0.22272    0.60840    1.000
    H129     H        0.56060    0.23300    0.62320    1.000
    C196     C        0.62310    0.28800    0.58980    1.000
    N97      N        0.62550    0.31350    0.60560    1.000
    C197     C        0.63370    0.27650    0.60020    1.000
    H130     H        0.64550    0.27110    0.58340    1.000
    N98      N        0.63620    0.30200    0.61610    1.000
    C198     C        0.57710    0.21710    0.61600    1.000
    H131     H        0.56880    0.22590    0.63340    1.000
    H132     H        0.63430    0.28310    0.57240    1.000
    N99      N        0.58980    0.28800    0.62310    1.000
    O67      O        0.53066    0.68761    0.14409    1.000
    O68      O        0.53121    0.65170    0.10851    1.000
    C199     C        0.54073    0.67559    0.11934    1.000
    C200     C        0.56450    0.69177    0.10341    1.000
    C201     C        0.57180    0.72272    0.10840    1.000
    H133     H        0.56060    0.73300    0.12320    1.000
    C202     C        0.62310    0.78800    0.08980    1.000
    N100     N        0.62550    0.81350    0.10560    1.000
    C203     C        0.63370    0.77650    0.10020    1.000
    H134     H        0.64550    0.77110    0.08340    1.000
    N101     N        0.63620    0.80200    0.11610    1.000
    C204     C        0.57710    0.71710    0.11600    1.000
    H135     H        0.56880    0.72590    0.13340    1.000
    H136     H        0.63430    0.78310    0.07240    1.000
    N102     N        0.58980    0.78800    0.12310    1.000
    O69      O        0.03066    0.18761    0.14409    1.000
    O70      O        0.03121    0.15170    0.10851    1.000
    C205     C        0.04073    0.17559    0.11934    1.000
    C206     C        0.06450    0.19177    0.10341    1.000
    C207     C        0.07180    0.22272    0.10840    1.000
    H137     H        0.06060    0.23300    0.12320    1.000
    C208     C        0.12310    0.28800    0.08980    1.000
    N103     N        0.12550    0.31350    0.10560    1.000
    C209     C        0.13370    0.27650    0.10020    1.000
    H138     H        0.14550    0.27110    0.08340    1.000
    N104     N        0.13620    0.30200    0.11610    1.000
    C210     C        0.07710    0.21710    0.11600    1.000
    H139     H        0.06880    0.22590    0.13340    1.000
    H140     H        0.13430    0.28310    0.07240    1.000
    N105     N        0.08980    0.28800    0.12310    1.000
    O71      O        0.03066    0.68761    0.64409    1.000
    O72      O        0.03121    0.65170    0.60851    1.000
    C211     C        0.04073    0.67559    0.61934    1.000
    C212     C        0.06450    0.69177    0.60341    1.000
    C213     C        0.07180    0.72272    0.60840    1.000
    H141     H        0.06060    0.73300    0.62320    1.000
    C214     C        0.12310    0.78800    0.58980    1.000
    N106     N        0.12550    0.81350    0.60560    1.000
    C215     C        0.13370    0.77650    0.60020    1.000
    H142     H        0.14550    0.77110    0.58340    1.000
    N107     N        0.13620    0.80200    0.61610    1.000
    C216     C        0.07710    0.71710    0.61600    1.000
    H143     H        0.06880    0.72590    0.63340    1.000
    H144     H        0.13430    0.78310    0.57240    1.000
    N108     N        0.08980    0.78800    0.62310    1.000
    O73      O        0.46934    0.18761    0.35591    1.000
    O74      O        0.46879    0.15170    0.39149    1.000
    C217     C        0.45927    0.17559    0.38066    1.000
    C218     C        0.43550    0.19177    0.39659    1.000
    C219     C        0.42820    0.22272    0.39160    1.000
    H145     H        0.43940    0.23300    0.37680    1.000
    C220     C        0.37690    0.28800    0.41020    1.000
    N109     N        0.37450    0.31350    0.39440    1.000
    C221     C        0.36630    0.27650    0.39980    1.000
    H146     H        0.35450    0.27110    0.41660    1.000
    N110     N        0.36380    0.30200    0.38390    1.000
    C222     C        0.42290    0.21710    0.38400    1.000
    H147     H        0.43120    0.22590    0.36660    1.000
    H148     H        0.36570    0.28310    0.42760    1.000
    N111     N        0.41020    0.28800    0.37690    1.000
    O75      O        0.46934    0.68761    0.85591    1.000
    O76      O        0.46879    0.65170    0.89149    1.000
    C223     C        0.45927    0.67559    0.88066    1.000
    C224     C        0.43550    0.69177    0.89659    1.000
    C225     C        0.42820    0.72272    0.89160    1.000
    H149     H        0.43940    0.73300    0.87680    1.000
    C226     C        0.37690    0.78800    0.91020    1.000
    N112     N        0.37450    0.81350    0.89440    1.000
    C227     C        0.36630    0.77650    0.89980    1.000
    H150     H        0.35450    0.77110    0.91660    1.000
    N113     N        0.36380    0.80200    0.88390    1.000
    C228     C        0.42290    0.71710    0.88400    1.000
    H151     H        0.43120    0.72590    0.86660    1.000
    H152     H        0.36570    0.78310    0.92760    1.000
    N114     N        0.41020    0.78800    0.87690    1.000
    O77      O        0.96934    0.18761    0.85591    1.000
    O78      O        0.96879    0.15170    0.89149    1.000
    C229     C        0.95927    0.17559    0.88066    1.000
    C230     C        0.93550    0.19177    0.89659    1.000
    C231     C        0.92820    0.22272    0.89160    1.000
    H153     H        0.93940    0.23300    0.87680    1.000
    C232     C        0.87690    0.28800    0.91020    1.000
    N115     N        0.87450    0.31350    0.89440    1.000
    C233     C        0.86630    0.27650    0.89980    1.000
    H154     H        0.85450    0.27110    0.91660    1.000
    N116     N        0.86380    0.30200    0.88390    1.000
    C234     C        0.92290    0.21710    0.88400    1.000
    H155     H        0.93120    0.22590    0.86660    1.000
    H156     H        0.86570    0.28310    0.92760    1.000
    N117     N        0.91020    0.28800    0.87690    1.000
    O79      O        0.96934    0.68761    0.35591    1.000
    O80      O        0.96879    0.65170    0.39149    1.000
    C235     C        0.95927    0.67559    0.38066    1.000
    C236     C        0.93550    0.69177    0.39659    1.000
    C237     C        0.92820    0.72272    0.39160    1.000
    H157     H        0.93940    0.73300    0.37680    1.000
    C238     C        0.87690    0.78800    0.41020    1.000
    N118     N        0.87450    0.81350    0.39440    1.000
    C239     C        0.86630    0.77650    0.39980    1.000
    H158     H        0.85450    0.77110    0.41660    1.000
    N119     N        0.86380    0.80200    0.38390    1.000
    C240     C        0.92290    0.71710    0.38400    1.000
    H159     H        0.93120    0.72590    0.36660    1.000
    H160     H        0.86570    0.78310    0.42760    1.000
    N120     N        0.91020    0.78800    0.37690    1.000
    O81      O        0.53066    0.81239    0.35591    1.000
    O82      O        0.53121    0.84830    0.39149    1.000
    C241     C        0.54073    0.82441    0.38066    1.000
    C242     C        0.56450    0.80823    0.39659    1.000
    C243     C        0.57180    0.77728    0.39160    1.000
    H161     H        0.56060    0.76700    0.37680    1.000
    C244     C        0.62310    0.71200    0.41020    1.000
    N121     N        0.62550    0.68650    0.39440    1.000
    C245     C        0.63370    0.72350    0.39980    1.000
    H162     H        0.64550    0.72890    0.41660    1.000
    N122     N        0.63620    0.69800    0.38390    1.000
    C246     C        0.57710    0.78290    0.38400    1.000
    H163     H        0.56880    0.77410    0.36660    1.000
    H164     H        0.63430    0.71690    0.42760    1.000
    N123     N        0.58980    0.71200    0.37690    1.000
    O83      O        0.53066    0.31239    0.85591    1.000
    O84      O        0.53121    0.34830    0.89149    1.000
    C247     C        0.54073    0.32441    0.88066    1.000
    C248     C        0.56450    0.30823    0.89659    1.000
    C249     C        0.57180    0.27728    0.89160    1.000
    H165     H        0.56060    0.26700    0.87680    1.000
    C250     C        0.62310    0.21200    0.91020    1.000
    N124     N        0.62550    0.18650    0.89440    1.000
    C251     C        0.63370    0.22350    0.89980    1.000
    H166     H        0.64550    0.22890    0.91660    1.000
    N125     N        0.63620    0.19800    0.88390    1.000
    C252     C        0.57710    0.28290    0.88400    1.000
    H167     H        0.56880    0.27410    0.86660    1.000
    H168     H        0.63430    0.21690    0.92760    1.000
    N126     N        0.58980    0.21200    0.87690    1.000
    O85      O        0.03066    0.81239    0.85591    1.000
    O86      O        0.03121    0.84830    0.89149    1.000
    C253     C        0.04073    0.82441    0.88066    1.000
    C254     C        0.06450    0.80823    0.89659    1.000
    C255     C        0.07180    0.77728    0.89160    1.000
    H169     H        0.06060    0.76700    0.87680    1.000
    C256     C        0.12310    0.71200    0.91020    1.000
    N127     N        0.12550    0.68650    0.89440    1.000
    C257     C        0.13370    0.72350    0.89980    1.000
    H170     H        0.14550    0.72890    0.91660    1.000
    N128     N        0.13620    0.69800    0.88390    1.000
    C258     C        0.07710    0.78290    0.88400    1.000
    H171     H        0.06880    0.77410    0.86660    1.000
    H172     H        0.13430    0.71690    0.92760    1.000
    N129     N        0.08980    0.71200    0.87690    1.000
    O87      O        0.03066    0.31239    0.35591    1.000
    O88      O        0.03121    0.34830    0.39149    1.000
    C259     C        0.04073    0.32441    0.38066    1.000
    C260     C        0.06450    0.30823    0.39659    1.000
    C261     C        0.07180    0.27728    0.39160    1.000
    H173     H        0.06060    0.26700    0.37680    1.000
    C262     C        0.12310    0.21200    0.41020    1.000
    N130     N        0.12550    0.18650    0.39440    1.000
    C263     C        0.13370    0.22350    0.39980    1.000
    H174     H        0.14550    0.22890    0.41660    1.000
    N131     N        0.13620    0.19800    0.38390    1.000
    C264     C        0.07710    0.28290    0.38400    1.000
    H175     H        0.06880    0.27410    0.36660    1.000
    H176     H        0.13430    0.21690    0.42760    1.000
    N132     N        0.08980    0.21200    0.37690    1.000
    O89      O        0.46934    0.81239    0.64409    1.000
    O90      O        0.46879    0.84830    0.60851    1.000
    C265     C        0.45927    0.82441    0.61934    1.000
    C266     C        0.43550    0.80823    0.60341    1.000
    C267     C        0.42820    0.77728    0.60840    1.000
    H177     H        0.43940    0.76700    0.62320    1.000
    C268     C        0.37690    0.71200    0.58980    1.000
    N133     N        0.37450    0.68650    0.60560    1.000
    C269     C        0.36630    0.72350    0.60020    1.000
    H178     H        0.35450    0.72890    0.58340    1.000
    N134     N        0.36380    0.69800    0.61610    1.000
    C270     C        0.42290    0.78290    0.61600    1.000
    H179     H        0.43120    0.77410    0.63340    1.000
    H180     H        0.36570    0.71690    0.57240    1.000
    N135     N        0.41020    0.71200    0.62310    1.000
    O91      O        0.46934    0.31239    0.14409    1.000
    O92      O        0.46879    0.34830    0.10851    1.000
    C271     C        0.45927    0.32441    0.11934    1.000
    C272     C        0.43550    0.30823    0.10341    1.000
    C273     C        0.42820    0.27728    0.10840    1.000
    H181     H        0.43940    0.26700    0.12320    1.000
    C274     C        0.37690    0.21200    0.08980    1.000
    N136     N        0.37450    0.18650    0.10560    1.000
    C275     C        0.36630    0.22350    0.10020    1.000
    H182     H        0.35450    0.22890    0.08340    1.000
    N137     N        0.36380    0.19800    0.11610    1.000
    C276     C        0.42290    0.28290    0.11600    1.000
    H183     H        0.43120    0.27410    0.13340    1.000
    H184     H        0.36570    0.21690    0.07240    1.000
    N138     N        0.41020    0.21200    0.12310    1.000
    O93      O        0.96934    0.81239    0.14409    1.000
    O94      O        0.96879    0.84830    0.10851    1.000
    C277     C        0.95927    0.82441    0.11934    1.000
    C278     C        0.93550    0.80823    0.10341    1.000
    C279     C        0.92820    0.77728    0.10840    1.000
    H185     H        0.93940    0.76700    0.12320    1.000
    C280     C        0.87690    0.71200    0.08980    1.000
    N139     N        0.87450    0.68650    0.10560    1.000
    C281     C        0.86630    0.72350    0.10020    1.000
    H186     H        0.85450    0.72890    0.08340    1.000
    N140     N        0.86380    0.69800    0.11610    1.000
    C282     C        0.92290    0.78290    0.11600    1.000
    H187     H        0.93120    0.77410    0.13340    1.000
    H188     H        0.86570    0.71690    0.07240    1.000
    N141     N        0.91020    0.71200    0.12310    1.000
    O95      O        0.96934    0.31239    0.64409    1.000
    O96      O        0.96879    0.34830    0.60851    1.000
    C283     C        0.95927    0.32441    0.61934    1.000
    C284     C        0.93550    0.30823    0.60341    1.000
    C285     C        0.92820    0.27728    0.60840    1.000
    H189     H        0.93940    0.26700    0.62320    1.000
    C286     C        0.87690    0.21200    0.58980    1.000
    N142     N        0.87450    0.18650    0.60560    1.000
    C287     C        0.86630    0.22350    0.60020    1.000
    H190     H        0.85450    0.22890    0.58340    1.000
    N143     N        0.86380    0.19800    0.61610    1.000
    C288     C        0.92290    0.28290    0.61600    1.000
    H191     H        0.93120    0.27410    0.63340    1.000
    H192     H        0.86570    0.21690    0.57240    1.000
    N144     N        0.91020    0.21200    0.62310    1.000
    O97      O        0.53066    0.64409    0.81239    1.000
    O98      O        0.53121    0.60851    0.84830    1.000
    C289     C        0.54073    0.61934    0.82441    1.000
    C290     C        0.56450    0.60341    0.80823    1.000
    C291     C        0.57180    0.60840    0.77728    1.000
    H193     H        0.56060    0.62320    0.76700    1.000
    C292     C        0.62310    0.58980    0.71200    1.000
    N145     N        0.62550    0.60560    0.68650    1.000
    C293     C        0.63370    0.60020    0.72350    1.000
    H194     H        0.64550    0.58340    0.72890    1.000
    N146     N        0.63620    0.61610    0.69800    1.000
    C294     C        0.57710    0.61600    0.78290    1.000
    H195     H        0.56880    0.63340    0.77410    1.000
    H196     H        0.63430    0.57240    0.71690    1.000
    N147     N        0.58980    0.62310    0.71200    1.000
    O99      O        0.53066    0.14409    0.31239    1.000
    O100     O        0.53121    0.10851    0.34830    1.000
    C295     C        0.54073    0.11934    0.32441    1.000
    C296     C        0.56450    0.10341    0.30823    1.000
    C297     C        0.57180    0.10840    0.27728    1.000
    H197     H        0.56060    0.12320    0.26700    1.000
    C298     C        0.62310    0.08980    0.21200    1.000
    N148     N        0.62550    0.10560    0.18650    1.000
    C299     C        0.63370    0.10020    0.22350    1.000
    H198     H        0.64550    0.08340    0.22890    1.000
    N149     N        0.63620    0.11610    0.19800    1.000
    C300     C        0.57710    0.11600    0.28290    1.000
    H199     H        0.56880    0.13340    0.27410    1.000
    H200     H        0.63430    0.07240    0.21690    1.000
    N150     N        0.58980    0.12310    0.21200    1.000
    O101     O        0.03066    0.64409    0.31239    1.000
    O102     O        0.03121    0.60851    0.34830    1.000
    C301     C        0.04073    0.61934    0.32441    1.000
    C302     C        0.06450    0.60341    0.30823    1.000
    C303     C        0.07180    0.60840    0.27728    1.000
    H201     H        0.06060    0.62320    0.26700    1.000
    C304     C        0.12310    0.58980    0.21200    1.000
    N151     N        0.12550    0.60560    0.18650    1.000
    C305     C        0.13370    0.60020    0.22350    1.000
    H202     H        0.14550    0.58340    0.22890    1.000
    N152     N        0.13620    0.61610    0.19800    1.000
    C306     C        0.07710    0.61600    0.28290    1.000
    H203     H        0.06880    0.63340    0.27410    1.000
    H204     H        0.13430    0.57240    0.21690    1.000
    N153     N        0.08980    0.62310    0.21200    1.000
    O103     O        0.03066    0.14409    0.81239    1.000
    O104     O        0.03121    0.10851    0.84830    1.000
    C307     C        0.04073    0.11934    0.82441    1.000
    C308     C        0.06450    0.10341    0.80823    1.000
    C309     C        0.07180    0.10840    0.77728    1.000
    H205     H        0.06060    0.12320    0.76700    1.000
    C310     C        0.12310    0.08980    0.71200    1.000
    N154     N        0.12550    0.10560    0.68650    1.000
    C311     C        0.13370    0.10020    0.72350    1.000
    H206     H        0.14550    0.08340    0.72890    1.000
    N155     N        0.13620    0.11610    0.69800    1.000
    C312     C        0.07710    0.11600    0.78290    1.000
    H207     H        0.06880    0.13340    0.77410    1.000
    H208     H        0.13430    0.07240    0.71690    1.000
    N156     N        0.08980    0.12310    0.71200    1.000
    O105     O        0.46934    0.35591    0.81239    1.000
    O106     O        0.46879    0.39149    0.84830    1.000
    C313     C        0.45927    0.38066    0.82441    1.000
    C314     C        0.43550    0.39659    0.80823    1.000
    C315     C        0.42820    0.39160    0.77728    1.000
    H209     H        0.43940    0.37680    0.76700    1.000
    C316     C        0.37690    0.41020    0.71200    1.000
    N157     N        0.37450    0.39440    0.68650    1.000
    C317     C        0.36630    0.39980    0.72350    1.000
    H210     H        0.35450    0.41660    0.72890    1.000
    N158     N        0.36380    0.38390    0.69800    1.000
    C318     C        0.42290    0.38400    0.78290    1.000
    H211     H        0.43120    0.36660    0.77410    1.000
    H212     H        0.36570    0.42760    0.71690    1.000
    N159     N        0.41020    0.37690    0.71200    1.000
    O107     O        0.46934    0.85591    0.31239    1.000
    O108     O        0.46879    0.89149    0.34830    1.000
    C319     C        0.45927    0.88066    0.32441    1.000
    C320     C        0.43550    0.89659    0.30823    1.000
    C321     C        0.42820    0.89160    0.27728    1.000
    H213     H        0.43940    0.87680    0.26700    1.000
    C322     C        0.37690    0.91020    0.21200    1.000
    N160     N        0.37450    0.89440    0.18650    1.000
    C323     C        0.36630    0.89980    0.22350    1.000
    H214     H        0.35450    0.91660    0.22890    1.000
    N161     N        0.36380    0.88390    0.19800    1.000
    C324     C        0.42290    0.88400    0.28290    1.000
    H215     H        0.43120    0.86660    0.27410    1.000
    H216     H        0.36570    0.92760    0.21690    1.000
    N162     N        0.41020    0.87690    0.21200    1.000
    O109     O        0.96934    0.35591    0.31239    1.000
    O110     O        0.96879    0.39149    0.34830    1.000
    C325     C        0.95927    0.38066    0.32441    1.000
    C326     C        0.93550    0.39659    0.30823    1.000
    C327     C        0.92820    0.39160    0.27728    1.000
    H217     H        0.93940    0.37680    0.26700    1.000
    C328     C        0.87690    0.41020    0.21200    1.000
    N163     N        0.87450    0.39440    0.18650    1.000
    C329     C        0.86630    0.39980    0.22350    1.000
    H218     H        0.85450    0.41660    0.22890    1.000
    N164     N        0.86380    0.38390    0.19800    1.000
    C330     C        0.92290    0.38400    0.28290    1.000
    H219     H        0.93120    0.36660    0.27410    1.000
    H220     H        0.86570    0.42760    0.21690    1.000
    N165     N        0.91020    0.37690    0.21200    1.000
    O111     O        0.96934    0.85591    0.81239    1.000
    O112     O        0.96879    0.89149    0.84830    1.000
    C331     C        0.95927    0.88066    0.82441    1.000
    C332     C        0.93550    0.89659    0.80823    1.000
    C333     C        0.92820    0.89160    0.77728    1.000
    H221     H        0.93940    0.87680    0.76700    1.000
    C334     C        0.87690    0.91020    0.71200    1.000
    N166     N        0.87450    0.89440    0.68650    1.000
    C335     C        0.86630    0.89980    0.72350    1.000
    H222     H        0.85450    0.91660    0.72890    1.000
    N167     N        0.86380    0.88390    0.69800    1.000
    C336     C        0.92290    0.88400    0.78290    1.000
    H223     H        0.93120    0.86660    0.77410    1.000
    H224     H        0.86570    0.92760    0.71690    1.000
    N168     N        0.91020    0.87690    0.71200    1.000
    O113     O        0.53066    0.35591    0.18761    1.000
    O114     O        0.53121    0.39149    0.15170    1.000
    C337     C        0.54073    0.38066    0.17559    1.000
    C338     C        0.56450    0.39659    0.19177    1.000
    C339     C        0.57180    0.39160    0.22272    1.000
    H225     H        0.56060    0.37680    0.23300    1.000
    C340     C        0.62310    0.41020    0.28800    1.000
    N169     N        0.62550    0.39440    0.31350    1.000
    C341     C        0.63370    0.39980    0.27650    1.000
    H226     H        0.64550    0.41660    0.27110    1.000
    N170     N        0.63620    0.38390    0.30200    1.000
    C342     C        0.57710    0.38400    0.21710    1.000
    H227     H        0.56880    0.36660    0.22590    1.000
    H228     H        0.63430    0.42760    0.28310    1.000
    N171     N        0.58980    0.37690    0.28800    1.000
    O115     O        0.53066    0.85591    0.68761    1.000
    O116     O        0.53121    0.89149    0.65170    1.000
    C343     C        0.54073    0.88066    0.67559    1.000
    C344     C        0.56450    0.89659    0.69177    1.000
    C345     C        0.57180    0.89160    0.72272    1.000
    H229     H        0.56060    0.87680    0.73300    1.000
    C346     C        0.62310    0.91020    0.78800    1.000
    N172     N        0.62550    0.89440    0.81350    1.000
    C347     C        0.63370    0.89980    0.77650    1.000
    H230     H        0.64550    0.91660    0.77110    1.000
    N173     N        0.63620    0.88390    0.80200    1.000
    C348     C        0.57710    0.88400    0.71710    1.000
    H231     H        0.56880    0.86660    0.72590    1.000
    H232     H        0.63430    0.92760    0.78310    1.000
    N174     N        0.58980    0.87690    0.78800    1.000
    O117     O        0.03066    0.35591    0.68761    1.000
    O118     O        0.03121    0.39149    0.65170    1.000
    C349     C        0.04073    0.38066    0.67559    1.000
    C350     C        0.06450    0.39659    0.69177    1.000
    C351     C        0.07180    0.39160    0.72272    1.000
    H233     H        0.06060    0.37680    0.73300    1.000
    C352     C        0.12310    0.41020    0.78800    1.000
    N175     N        0.12550    0.39440    0.81350    1.000
    C353     C        0.13370    0.39980    0.77650    1.000
    H234     H        0.14550    0.41660    0.77110    1.000
    N176     N        0.13620    0.38390    0.80200    1.000
    C354     C        0.07710    0.38400    0.71710    1.000
    H235     H        0.06880    0.36660    0.72590    1.000
    H236     H        0.13430    0.42760    0.78310    1.000
    N177     N        0.08980    0.37690    0.78800    1.000
    O119     O        0.03066    0.85591    0.18761    1.000
    O120     O        0.03121    0.89149    0.15170    1.000
    C355     C        0.04073    0.88066    0.17559    1.000
    C356     C        0.06450    0.89659    0.19177    1.000
    C357     C        0.07180    0.89160    0.22272    1.000
    H237     H        0.06060    0.87680    0.23300    1.000
    C358     C        0.12310    0.91020    0.28800    1.000
    N178     N        0.12550    0.89440    0.31350    1.000
    C359     C        0.13370    0.89980    0.27650    1.000
    H238     H        0.14550    0.91660    0.27110    1.000
    N179     N        0.13620    0.88390    0.30200    1.000
    C360     C        0.07710    0.88400    0.21710    1.000
    H239     H        0.06880    0.86660    0.22590    1.000
    H240     H        0.13430    0.92760    0.28310    1.000
    N180     N        0.08980    0.87690    0.28800    1.000
    O121     O        0.46934    0.64409    0.18761    1.000
    O122     O        0.46879    0.60851    0.15170    1.000
    C361     C        0.45927    0.61934    0.17559    1.000
    C362     C        0.43550    0.60341    0.19177    1.000
    C363     C        0.42820    0.60840    0.22272    1.000
    H241     H        0.43940    0.62320    0.23300    1.000
    C364     C        0.37690    0.58980    0.28800    1.000
    N181     N        0.37450    0.60560    0.31350    1.000
    C365     C        0.36630    0.60020    0.27650    1.000
    H242     H        0.35450    0.58340    0.27110    1.000
    N182     N        0.36380    0.61610    0.30200    1.000
    C366     C        0.42290    0.61600    0.21710    1.000
    H243     H        0.43120    0.63340    0.22590    1.000
    H244     H        0.36570    0.57240    0.28310    1.000
    N183     N        0.41020    0.62310    0.28800    1.000
    O123     O        0.46934    0.14409    0.68761    1.000
    O124     O        0.46879    0.10851    0.65170    1.000
    C367     C        0.45927    0.11934    0.67559    1.000
    C368     C        0.43550    0.10341    0.69177    1.000
    C369     C        0.42820    0.10840    0.72272    1.000
    H245     H        0.43940    0.12320    0.73300    1.000
    C370     C        0.37690    0.08980    0.78800    1.000
    N184     N        0.37450    0.10560    0.81350    1.000
    C371     C        0.36630    0.10020    0.77650    1.000
    H246     H        0.35450    0.08340    0.77110    1.000
    N185     N        0.36380    0.11610    0.80200    1.000
    C372     C        0.42290    0.11600    0.71710    1.000
    H247     H        0.43120    0.13340    0.72590    1.000
    H248     H        0.36570    0.07240    0.78310    1.000
    N186     N        0.41020    0.12310    0.78800    1.000
    O125     O        0.96934    0.64409    0.68761    1.000
    O126     O        0.96879    0.60851    0.65170    1.000
    C373     C        0.95927    0.61934    0.67559    1.000
    C374     C        0.93550    0.60341    0.69177    1.000
    C375     C        0.92820    0.60840    0.72272    1.000
    H249     H        0.93940    0.62320    0.73300    1.000
    C376     C        0.87690    0.58980    0.78800    1.000
    N187     N        0.87450    0.60560    0.81350    1.000
    C377     C        0.86630    0.60020    0.77650    1.000
    H250     H        0.85450    0.58340    0.77110    1.000
    N188     N        0.86380    0.61610    0.80200    1.000
    C378     C        0.92290    0.61600    0.71710    1.000
    H251     H        0.93120    0.63340    0.72590    1.000
    H252     H        0.86570    0.57240    0.78310    1.000
    N189     N        0.91020    0.62310    0.78800    1.000
    O127     O        0.96934    0.14409    0.18761    1.000
    O128     O        0.96879    0.10851    0.15170    1.000
    C379     C        0.95927    0.11934    0.17559    1.000
    C380     C        0.93550    0.10341    0.19177    1.000
    C381     C        0.92820    0.10840    0.22272    1.000
    H253     H        0.93940    0.12320    0.23300    1.000
    C382     C        0.87690    0.08980    0.28800    1.000
    N190     N        0.87450    0.10560    0.31350    1.000
    C383     C        0.86630    0.10020    0.27650    1.000
    H254     H        0.85450    0.08340    0.27110    1.000
    N191     N        0.86380    0.11610    0.30200    1.000
    C384     C        0.92290    0.11600    0.21710    1.000
    H255     H        0.93120    0.13340    0.22590    1.000
    H256     H        0.86570    0.07240    0.28310    1.000
    N192     N        0.91020    0.12310    0.28800    1.000
    O129     O        0.64409    0.18761    0.46934    1.000
    O130     O        0.60851    0.15170    0.46879    1.000
    C385     C        0.61934    0.17559    0.45927    1.000
    C386     C        0.60341    0.19177    0.43550    1.000
    C387     C        0.60840    0.22272    0.42820    1.000
    H257     H        0.62320    0.23300    0.43940    1.000
    C388     C        0.58980    0.28800    0.37690    1.000
    N193     N        0.60560    0.31350    0.37450    1.000
    C389     C        0.60020    0.27650    0.36630    1.000
    H258     H        0.58340    0.27110    0.35450    1.000
    N194     N        0.61610    0.30200    0.36380    1.000
    C390     C        0.61600    0.21710    0.42290    1.000
    H259     H        0.63340    0.22590    0.43120    1.000
    H260     H        0.57240    0.28310    0.36570    1.000
    N195     N        0.62310    0.28800    0.41020    1.000
    O131     O        0.64409    0.68761    0.96934    1.000
    O132     O        0.60851    0.65170    0.96879    1.000
    C391     C        0.61934    0.67559    0.95927    1.000
    C392     C        0.60341    0.69177    0.93550    1.000
    C393     C        0.60840    0.72272    0.92820    1.000
    H261     H        0.62320    0.73300    0.93940    1.000
    C394     C        0.58980    0.78800    0.87690    1.000
    N196     N        0.60560    0.81350    0.87450    1.000
    C395     C        0.60020    0.77650    0.86630    1.000
    H262     H        0.58340    0.77110    0.85450    1.000
    N197     N        0.61610    0.80200    0.86380    1.000
    C396     C        0.61600    0.71710    0.92290    1.000
    H263     H        0.63340    0.72590    0.93120    1.000
    H264     H        0.57240    0.78310    0.86570    1.000
    N198     N        0.62310    0.78800    0.91020    1.000
    O133     O        0.14409    0.18761    0.96934    1.000
    O134     O        0.10851    0.15170    0.96879    1.000
    C397     C        0.11934    0.17559    0.95927    1.000
    C398     C        0.10341    0.19177    0.93550    1.000
    C399     C        0.10840    0.22272    0.92820    1.000
    H265     H        0.12320    0.23300    0.93940    1.000
    C400     C        0.08980    0.28800    0.87690    1.000
    N199     N        0.10560    0.31350    0.87450    1.000
    C401     C        0.10020    0.27650    0.86630    1.000
    H266     H        0.08340    0.27110    0.85450    1.000
    N200     N        0.11610    0.30200    0.86380    1.000
    C402     C        0.11600    0.21710    0.92290    1.000
    H267     H        0.13340    0.22590    0.93120    1.000
    H268     H        0.07240    0.28310    0.86570    1.000
    N201     N        0.12310    0.28800    0.91020    1.000
    O135     O        0.14409    0.68761    0.46934    1.000
    O136     O        0.10851    0.65170    0.46879    1.000
    C403     C        0.11934    0.67559    0.45927    1.000
    C404     C        0.10341    0.69177    0.43550    1.000
    C405     C        0.10840    0.72272    0.42820    1.000
    H269     H        0.12320    0.73300    0.43940    1.000
    C406     C        0.08980    0.78800    0.37690    1.000
    N202     N        0.10560    0.81350    0.37450    1.000
    C407     C        0.10020    0.77650    0.36630    1.000
    H270     H        0.08340    0.77110    0.35450    1.000
    N203     N        0.11610    0.80200    0.36380    1.000
    C408     C        0.11600    0.71710    0.42290    1.000
    H271     H        0.13340    0.72590    0.43120    1.000
    H272     H        0.07240    0.78310    0.36570    1.000
    N204     N        0.12310    0.78800    0.41020    1.000
    O137     O        0.35591    0.18761    0.53066    1.000
    O138     O        0.39149    0.15170    0.53121    1.000
    C409     C        0.38066    0.17559    0.54073    1.000
    C410     C        0.39659    0.19177    0.56450    1.000
    C411     C        0.39160    0.22272    0.57180    1.000
    H273     H        0.37680    0.23300    0.56060    1.000
    C412     C        0.41020    0.28800    0.62310    1.000
    N205     N        0.39440    0.31350    0.62550    1.000
    C413     C        0.39980    0.27650    0.63370    1.000
    H274     H        0.41660    0.27110    0.64550    1.000
    N206     N        0.38390    0.30200    0.63620    1.000
    C414     C        0.38400    0.21710    0.57710    1.000
    H275     H        0.36660    0.22590    0.56880    1.000
    H276     H        0.42760    0.28310    0.63430    1.000
    N207     N        0.37690    0.28800    0.58980    1.000
    O139     O        0.35591    0.68761    0.03066    1.000
    O140     O        0.39149    0.65170    0.03121    1.000
    C415     C        0.38066    0.67559    0.04073    1.000
    C416     C        0.39659    0.69177    0.06450    1.000
    C417     C        0.39160    0.72272    0.07180    1.000
    H277     H        0.37680    0.73300    0.06060    1.000
    C418     C        0.41020    0.78800    0.12310    1.000
    N208     N        0.39440    0.81350    0.12550    1.000
    C419     C        0.39980    0.77650    0.13370    1.000
    H278     H        0.41660    0.77110    0.14550    1.000
    N209     N        0.38390    0.80200    0.13620    1.000
    C420     C        0.38400    0.71710    0.07710    1.000
    H279     H        0.36660    0.72590    0.06880    1.000
    H280     H        0.42760    0.78310    0.13430    1.000
    N210     N        0.37690    0.78800    0.08980    1.000
    O141     O        0.85591    0.18761    0.03066    1.000
    O142     O        0.89149    0.15170    0.03121    1.000
    C421     C        0.88066    0.17559    0.04073    1.000
    C422     C        0.89659    0.19177    0.06450    1.000
    C423     C        0.89160    0.22272    0.07180    1.000
    H281     H        0.87680    0.23300    0.06060    1.000
    C424     C        0.91020    0.28800    0.12310    1.000
    N211     N        0.89440    0.31350    0.12550    1.000
    C425     C        0.89980    0.27650    0.13370    1.000
    H282     H        0.91660    0.27110    0.14550    1.000
    N212     N        0.88390    0.30200    0.13620    1.000
    C426     C        0.88400    0.21710    0.07710    1.000
    H283     H        0.86660    0.22590    0.06880    1.000
    H284     H        0.92760    0.28310    0.13430    1.000
    N213     N        0.87690    0.28800    0.08980    1.000
    O143     O        0.85591    0.68761    0.53066    1.000
    O144     O        0.89149    0.65170    0.53121    1.000
    C427     C        0.88066    0.67559    0.54073    1.000
    C428     C        0.89659    0.69177    0.56450    1.000
    C429     C        0.89160    0.72272    0.57180    1.000
    H285     H        0.87680    0.73300    0.56060    1.000
    C430     C        0.91020    0.78800    0.62310    1.000
    N214     N        0.89440    0.81350    0.62550    1.000
    C431     C        0.89980    0.77650    0.63370    1.000
    H286     H        0.91660    0.77110    0.64550    1.000
    N215     N        0.88390    0.80200    0.63620    1.000
    C432     C        0.88400    0.71710    0.57710    1.000
    H287     H        0.86660    0.72590    0.56880    1.000
    H288     H        0.92760    0.78310    0.63430    1.000
    N216     N        0.87690    0.78800    0.58980    1.000
    O145     O        0.35591    0.81239    0.46934    1.000
    O146     O        0.39149    0.84830    0.46879    1.000
    C433     C        0.38066    0.82441    0.45927    1.000
    C434     C        0.39659    0.80823    0.43550    1.000
    C435     C        0.39160    0.77728    0.42820    1.000
    H289     H        0.37680    0.76700    0.43940    1.000
    C436     C        0.41020    0.71200    0.37690    1.000
    N217     N        0.39440    0.68650    0.37450    1.000
    C437     C        0.39980    0.72350    0.36630    1.000
    H290     H        0.41660    0.72890    0.35450    1.000
    N218     N        0.38390    0.69800    0.36380    1.000
    C438     C        0.38400    0.78290    0.42290    1.000
    H291     H        0.36660    0.77410    0.43120    1.000
    H292     H        0.42760    0.71690    0.36570    1.000
    N219     N        0.37690    0.71200    0.41020    1.000
    O147     O        0.35591    0.31239    0.96934    1.000
    O148     O        0.39149    0.34830    0.96879    1.000
    C439     C        0.38066    0.32441    0.95927    1.000
    C440     C        0.39659    0.30823    0.93550    1.000
    C441     C        0.39160    0.27728    0.92820    1.000
    H293     H        0.37680    0.26700    0.93940    1.000
    C442     C        0.41020    0.21200    0.87690    1.000
    N220     N        0.39440    0.18650    0.87450    1.000
    C443     C        0.39980    0.22350    0.86630    1.000
    H294     H        0.41660    0.22890    0.85450    1.000
    N221     N        0.38390    0.19800    0.86380    1.000
    C444     C        0.38400    0.28290    0.92290    1.000
    H295     H        0.36660    0.27410    0.93120    1.000
    H296     H        0.42760    0.21690    0.86570    1.000
    N222     N        0.37690    0.21200    0.91020    1.000
    O149     O        0.85591    0.81239    0.96934    1.000
    O150     O        0.89149    0.84830    0.96879    1.000
    C445     C        0.88066    0.82441    0.95927    1.000
    C446     C        0.89659    0.80823    0.93550    1.000
    C447     C        0.89160    0.77728    0.92820    1.000
    H297     H        0.87680    0.76700    0.93940    1.000
    C448     C        0.91020    0.71200    0.87690    1.000
    N223     N        0.89440    0.68650    0.87450    1.000
    C449     C        0.89980    0.72350    0.86630    1.000
    H298     H        0.91660    0.72890    0.85450    1.000
    N224     N        0.88390    0.69800    0.86380    1.000
    C450     C        0.88400    0.78290    0.92290    1.000
    H299     H        0.86660    0.77410    0.93120    1.000
    H300     H        0.92760    0.71690    0.86570    1.000
    N225     N        0.87690    0.71200    0.91020    1.000
    O151     O        0.85591    0.31239    0.46934    1.000
    O152     O        0.89149    0.34830    0.46879    1.000
    C451     C        0.88066    0.32441    0.45927    1.000
    C452     C        0.89659    0.30823    0.43550    1.000
    C453     C        0.89160    0.27728    0.42820    1.000
    H301     H        0.87680    0.26700    0.43940    1.000
    C454     C        0.91020    0.21200    0.37690    1.000
    N226     N        0.89440    0.18650    0.37450    1.000
    C455     C        0.89980    0.22350    0.36630    1.000
    H302     H        0.91660    0.22890    0.35450    1.000
    N227     N        0.88390    0.19800    0.36380    1.000
    C456     C        0.88400    0.28290    0.42290    1.000
    H303     H        0.86660    0.27410    0.43120    1.000
    H304     H        0.92760    0.21690    0.36570    1.000
    N228     N        0.87690    0.21200    0.41020    1.000
    O153     O        0.64409    0.81239    0.53066    1.000
    O154     O        0.60851    0.84830    0.53121    1.000
    C457     C        0.61934    0.82441    0.54073    1.000
    C458     C        0.60341    0.80823    0.56450    1.000
    C459     C        0.60840    0.77728    0.57180    1.000
    H305     H        0.62320    0.76700    0.56060    1.000
    C460     C        0.58980    0.71200    0.62310    1.000
    N229     N        0.60560    0.68650    0.62550    1.000
    C461     C        0.60020    0.72350    0.63370    1.000
    H306     H        0.58340    0.72890    0.64550    1.000
    N230     N        0.61610    0.69800    0.63620    1.000
    C462     C        0.61600    0.78290    0.57710    1.000
    H307     H        0.63340    0.77410    0.56880    1.000
    H308     H        0.57240    0.71690    0.63430    1.000
    N231     N        0.62310    0.71200    0.58980    1.000
    O155     O        0.64409    0.31239    0.03066    1.000
    O156     O        0.60851    0.34830    0.03121    1.000
    C463     C        0.61934    0.32441    0.04073    1.000
    C464     C        0.60341    0.30823    0.06450    1.000
    C465     C        0.60840    0.27728    0.07180    1.000
    H309     H        0.62320    0.26700    0.06060    1.000
    C466     C        0.58980    0.21200    0.12310    1.000
    N232     N        0.60560    0.18650    0.12550    1.000
    C467     C        0.60020    0.22350    0.13370    1.000
    H310     H        0.58340    0.22890    0.14550    1.000
    N233     N        0.61610    0.19800    0.13620    1.000
    C468     C        0.61600    0.28290    0.07710    1.000
    H311     H        0.63340    0.27410    0.06880    1.000
    H312     H        0.57240    0.21690    0.13430    1.000
    N234     N        0.62310    0.21200    0.08980    1.000
    O157     O        0.14409    0.81239    0.03066    1.000
    O158     O        0.10851    0.84830    0.03121    1.000
    C469     C        0.11934    0.82441    0.04073    1.000
    C470     C        0.10341    0.80823    0.06450    1.000
    C471     C        0.10840    0.77728    0.07180    1.000
    H313     H        0.12320    0.76700    0.06060    1.000
    C472     C        0.08980    0.71200    0.12310    1.000
    N235     N        0.10560    0.68650    0.12550    1.000
    C473     C        0.10020    0.72350    0.13370    1.000
    H314     H        0.08340    0.72890    0.14550    1.000
    N236     N        0.11610    0.69800    0.13620    1.000
    C474     C        0.11600    0.78290    0.07710    1.000
    H315     H        0.13340    0.77410    0.06880    1.000
    H316     H        0.07240    0.71690    0.13430    1.000
    N237     N        0.12310    0.71200    0.08980    1.000
    O159     O        0.14409    0.31239    0.53066    1.000
    O160     O        0.10851    0.34830    0.53121    1.000
    C475     C        0.11934    0.32441    0.54073    1.000
    C476     C        0.10341    0.30823    0.56450    1.000
    C477     C        0.10840    0.27728    0.57180    1.000
    H317     H        0.12320    0.26700    0.56060    1.000
    C478     C        0.08980    0.21200    0.62310    1.000
    N238     N        0.10560    0.18650    0.62550    1.000
    C479     C        0.10020    0.22350    0.63370    1.000
    H318     H        0.08340    0.22890    0.64550    1.000
    N239     N        0.11610    0.19800    0.63620    1.000
    C480     C        0.11600    0.28290    0.57710    1.000
    H319     H        0.13340    0.27410    0.56880    1.000
    H320     H        0.07240    0.21690    0.63430    1.000
    N240     N        0.12310    0.21200    0.58980    1.000
    O161     O        0.18761    0.53066    0.35591    1.000
    O162     O        0.15170    0.53121    0.39149    1.000
    C481     C        0.17559    0.54073    0.38066    1.000
    C482     C        0.19177    0.56450    0.39659    1.000
    C483     C        0.22272    0.57180    0.39160    1.000
    H321     H        0.23300    0.56060    0.37680    1.000
    C484     C        0.28800    0.62310    0.41020    1.000
    N241     N        0.31350    0.62550    0.39440    1.000
    C485     C        0.27650    0.63370    0.39980    1.000
    H322     H        0.27110    0.64550    0.41660    1.000
    N242     N        0.30200    0.63620    0.38390    1.000
    C486     C        0.21710    0.57710    0.38400    1.000
    H323     H        0.22590    0.56880    0.36660    1.000
    H324     H        0.28310    0.63430    0.42760    1.000
    N243     N        0.28800    0.58980    0.37690    1.000
    O163     O        0.18761    0.03066    0.85591    1.000
    O164     O        0.15170    0.03121    0.89149    1.000
    C487     C        0.17559    0.04073    0.88066    1.000
    C488     C        0.19177    0.06450    0.89659    1.000
    C489     C        0.22272    0.07180    0.89160    1.000
    H325     H        0.23300    0.06060    0.87680    1.000
    C490     C        0.28800    0.12310    0.91020    1.000
    N244     N        0.31350    0.12550    0.89440    1.000
    C491     C        0.27650    0.13370    0.89980    1.000
    H326     H        0.27110    0.14550    0.91660    1.000
    N245     N        0.30200    0.13620    0.88390    1.000
    C492     C        0.21710    0.07710    0.88400    1.000
    H327     H        0.22590    0.06880    0.86660    1.000
    H328     H        0.28310    0.13430    0.92760    1.000
    N246     N        0.28800    0.08980    0.87690    1.000
    O165     O        0.68761    0.53066    0.85591    1.000
    O166     O        0.65170    0.53121    0.89149    1.000
    C493     C        0.67559    0.54073    0.88066    1.000
    C494     C        0.69177    0.56450    0.89659    1.000
    C495     C        0.72272    0.57180    0.89160    1.000
    H329     H        0.73300    0.56060    0.87680    1.000
    C496     C        0.78800    0.62310    0.91020    1.000
    N247     N        0.81350    0.62550    0.89440    1.000
    C497     C        0.77650    0.63370    0.89980    1.000
    H330     H        0.77110    0.64550    0.91660    1.000
    N248     N        0.80200    0.63620    0.88390    1.000
    C498     C        0.71710    0.57710    0.88400    1.000
    H331     H        0.72590    0.56880    0.86660    1.000
    H332     H        0.78310    0.63430    0.92760    1.000
    N249     N        0.78800    0.58980    0.87690    1.000
    O167     O        0.68761    0.03066    0.35591    1.000
    O168     O        0.65170    0.03121    0.39149    1.000
    C499     C        0.67559    0.04073    0.38066    1.000
    C500     C        0.69177    0.06450    0.39659    1.000
    C501     C        0.72272    0.07180    0.39160    1.000
    H333     H        0.73300    0.06060    0.37680    1.000
    C502     C        0.78800    0.12310    0.41020    1.000
    N250     N        0.81350    0.12550    0.39440    1.000
    C503     C        0.77650    0.13370    0.39980    1.000
    H334     H        0.77110    0.14550    0.41660    1.000
    N251     N        0.80200    0.13620    0.38390    1.000
    C504     C        0.71710    0.07710    0.38400    1.000
    H335     H        0.72590    0.06880    0.36660    1.000
    H336     H        0.78310    0.13430    0.42760    1.000
    N252     N        0.78800    0.08980    0.37690    1.000
    O169     O        0.18761    0.46934    0.64409    1.000
    O170     O        0.15170    0.46879    0.60851    1.000
    C505     C        0.17559    0.45927    0.61934    1.000
    C506     C        0.19177    0.43550    0.60341    1.000
    C507     C        0.22272    0.42820    0.60840    1.000
    H337     H        0.23300    0.43940    0.62320    1.000
    C508     C        0.28800    0.37690    0.58980    1.000
    N253     N        0.31350    0.37450    0.60560    1.000
    C509     C        0.27650    0.36630    0.60020    1.000
    H338     H        0.27110    0.35450    0.58340    1.000
    N254     N        0.30200    0.36380    0.61610    1.000
    C510     C        0.21710    0.42290    0.61600    1.000
    H339     H        0.22590    0.43120    0.63340    1.000
    H340     H        0.28310    0.36570    0.57240    1.000
    N255     N        0.28800    0.41020    0.62310    1.000
    O171     O        0.18761    0.96934    0.14409    1.000
    O172     O        0.15170    0.96879    0.10851    1.000
    C511     C        0.17559    0.95927    0.11934    1.000
    C512     C        0.19177    0.93550    0.10341    1.000
    C513     C        0.22272    0.92820    0.10840    1.000
    H341     H        0.23300    0.93940    0.12320    1.000
    C514     C        0.28800    0.87690    0.08980    1.000
    N256     N        0.31350    0.87450    0.10560    1.000
    C515     C        0.27650    0.86630    0.10020    1.000
    H342     H        0.27110    0.85450    0.08340    1.000
    N257     N        0.30200    0.86380    0.11610    1.000
    C516     C        0.21710    0.92290    0.11600    1.000
    H343     H        0.22590    0.93120    0.13340    1.000
    H344     H        0.28310    0.86570    0.07240    1.000
    N258     N        0.28800    0.91020    0.12310    1.000
    O173     O        0.68761    0.46934    0.14409    1.000
    O174     O        0.65170    0.46879    0.10851    1.000
    C517     C        0.67559    0.45927    0.11934    1.000
    C518     C        0.69177    0.43550    0.10341    1.000
    C519     C        0.72272    0.42820    0.10840    1.000
    H345     H        0.73300    0.43940    0.12320    1.000
    C520     C        0.78800    0.37690    0.08980    1.000
    N259     N        0.81350    0.37450    0.10560    1.000
    C521     C        0.77650    0.36630    0.10020    1.000
    H346     H        0.77110    0.35450    0.08340    1.000
    N260     N        0.80200    0.36380    0.11610    1.000
    C522     C        0.71710    0.42290    0.11600    1.000
    H347     H        0.72590    0.43120    0.13340    1.000
    H348     H        0.78310    0.36570    0.07240    1.000
    N261     N        0.78800    0.41020    0.12310    1.000
    O175     O        0.68761    0.96934    0.64409    1.000
    O176     O        0.65170    0.96879    0.60851    1.000
    C523     C        0.67559    0.95927    0.61934    1.000
    C524     C        0.69177    0.93550    0.60341    1.000
    C525     C        0.72272    0.92820    0.60840    1.000
    H349     H        0.73300    0.93940    0.62320    1.000
    C526     C        0.78800    0.87690    0.58980    1.000
    N262     N        0.81350    0.87450    0.60560    1.000
    C527     C        0.77650    0.86630    0.60020    1.000
    H350     H        0.77110    0.85450    0.58340    1.000
    N263     N        0.80200    0.86380    0.61610    1.000
    C528     C        0.71710    0.92290    0.61600    1.000
    H351     H        0.72590    0.93120    0.63340    1.000
    H352     H        0.78310    0.86570    0.57240    1.000
    N264     N        0.78800    0.91020    0.62310    1.000
    O177     O        0.81239    0.53066    0.64409    1.000
    O178     O        0.84830    0.53121    0.60851    1.000
    C529     C        0.82441    0.54073    0.61934    1.000
    C530     C        0.80823    0.56450    0.60341    1.000
    C531     C        0.77728    0.57180    0.60840    1.000
    H353     H        0.76700    0.56060    0.62320    1.000
    C532     C        0.71200    0.62310    0.58980    1.000
    N265     N        0.68650    0.62550    0.60560    1.000
    C533     C        0.72350    0.63370    0.60020    1.000
    H354     H        0.72890    0.64550    0.58340    1.000
    N266     N        0.69800    0.63620    0.61610    1.000
    C534     C        0.78290    0.57710    0.61600    1.000
    H355     H        0.77410    0.56880    0.63340    1.000
    H356     H        0.71690    0.63430    0.57240    1.000
    N267     N        0.71200    0.58980    0.62310    1.000
    O179     O        0.81239    0.03066    0.14409    1.000
    O180     O        0.84830    0.03121    0.10851    1.000
    C535     C        0.82441    0.04073    0.11934    1.000
    C536     C        0.80823    0.06450    0.10341    1.000
    C537     C        0.77728    0.07180    0.10840    1.000
    H357     H        0.76700    0.06060    0.12320    1.000
    C538     C        0.71200    0.12310    0.08980    1.000
    N268     N        0.68650    0.12550    0.10560    1.000
    C539     C        0.72350    0.13370    0.10020    1.000
    H358     H        0.72890    0.14550    0.08340    1.000
    N269     N        0.69800    0.13620    0.11610    1.000
    C540     C        0.78290    0.07710    0.11600    1.000
    H359     H        0.77410    0.06880    0.13340    1.000
    H360     H        0.71690    0.13430    0.07240    1.000
    N270     N        0.71200    0.08980    0.12310    1.000
    O181     O        0.31239    0.53066    0.14409    1.000
    O182     O        0.34830    0.53121    0.10851    1.000
    C541     C        0.32441    0.54073    0.11934    1.000
    C542     C        0.30823    0.56450    0.10341    1.000
    C543     C        0.27728    0.57180    0.10840    1.000
    H361     H        0.26700    0.56060    0.12320    1.000
    C544     C        0.21200    0.62310    0.08980    1.000
    N271     N        0.18650    0.62550    0.10560    1.000
    C545     C        0.22350    0.63370    0.10020    1.000
    H362     H        0.22890    0.64550    0.08340    1.000
    N272     N        0.19800    0.63620    0.11610    1.000
    C546     C        0.28290    0.57710    0.11600    1.000
    H363     H        0.27410    0.56880    0.13340    1.000
    H364     H        0.21690    0.63430    0.07240    1.000
    N273     N        0.21200    0.58980    0.12310    1.000
    O183     O        0.31239    0.03066    0.64409    1.000
    O184     O        0.34830    0.03121    0.60851    1.000
    C547     C        0.32441    0.04073    0.61934    1.000
    C548     C        0.30823    0.06450    0.60341    1.000
    C549     C        0.27728    0.07180    0.60840    1.000
    H365     H        0.26700    0.06060    0.62320    1.000
    C550     C        0.21200    0.12310    0.58980    1.000
    N274     N        0.18650    0.12550    0.60560    1.000
    C551     C        0.22350    0.13370    0.60020    1.000
    H366     H        0.22890    0.14550    0.58340    1.000
    N275     N        0.19800    0.13620    0.61610    1.000
    C552     C        0.28290    0.07710    0.61600    1.000
    H367     H        0.27410    0.06880    0.63340    1.000
    H368     H        0.21690    0.13430    0.57240    1.000
    N276     N        0.21200    0.08980    0.62310    1.000
    O185     O        0.81239    0.46934    0.35591    1.000
    O186     O        0.84830    0.46879    0.39149    1.000
    C553     C        0.82441    0.45927    0.38066    1.000
    C554     C        0.80823    0.43550    0.39659    1.000
    C555     C        0.77728    0.42820    0.39160    1.000
    H369     H        0.76700    0.43940    0.37680    1.000
    C556     C        0.71200    0.37690    0.41020    1.000
    N277     N        0.68650    0.37450    0.39440    1.000
    C557     C        0.72350    0.36630    0.39980    1.000
    H370     H        0.72890    0.35450    0.41660    1.000
    N278     N        0.69800    0.36380    0.38390    1.000
    C558     C        0.78290    0.42290    0.38400    1.000
    H371     H        0.77410    0.43120    0.36660    1.000
    H372     H        0.71690    0.36570    0.42760    1.000
    N279     N        0.71200    0.41020    0.37690    1.000
    O187     O        0.81239    0.96934    0.85591    1.000
    O188     O        0.84830    0.96879    0.89149    1.000
    C559     C        0.82441    0.95927    0.88066    1.000
    C560     C        0.80823    0.93550    0.89659    1.000
    C561     C        0.77728    0.92820    0.89160    1.000
    H373     H        0.76700    0.93940    0.87680    1.000
    C562     C        0.71200    0.87690    0.91020    1.000
    N280     N        0.68650    0.87450    0.89440    1.000
    C563     C        0.72350    0.86630    0.89980    1.000
    H374     H        0.72890    0.85450    0.91660    1.000
    N281     N        0.69800    0.86380    0.88390    1.000
    C564     C        0.78290    0.92290    0.88400    1.000
    H375     H        0.77410    0.93120    0.86660    1.000
    H376     H        0.71690    0.86570    0.92760    1.000
    N282     N        0.71200    0.91020    0.87690    1.000
    O189     O        0.31239    0.46934    0.85591    1.000
    O190     O        0.34830    0.46879    0.89149    1.000
    C565     C        0.32441    0.45927    0.88066    1.000
    C566     C        0.30823    0.43550    0.89659    1.000
    C567     C        0.27728    0.42820    0.89160    1.000
    H377     H        0.26700    0.43940    0.87680    1.000
    C568     C        0.21200    0.37690    0.91020    1.000
    N283     N        0.18650    0.37450    0.89440    1.000
    C569     C        0.22350    0.36630    0.89980    1.000
    H378     H        0.22890    0.35450    0.91660    1.000
    N284     N        0.19800    0.36380    0.88390    1.000
    C570     C        0.28290    0.42290    0.88400    1.000
    H379     H        0.27410    0.43120    0.86660    1.000
    H380     H        0.21690    0.36570    0.92760    1.000
    N285     N        0.21200    0.41020    0.87690    1.000
    O191     O        0.31239    0.96934    0.35591    1.000
    O192     O        0.34830    0.96879    0.39149    1.000
    C571     C        0.32441    0.95927    0.38066    1.000
    C572     C        0.30823    0.93550    0.39659    1.000
    C573     C        0.27728    0.92820    0.39160    1.000
    H381     H        0.26700    0.93940    0.37680    1.000
    C574     C        0.21200    0.87690    0.41020    1.000
    N286     N        0.18650    0.87450    0.39440    1.000
    C575     C        0.22350    0.86630    0.39980    1.000
    H382     H        0.22890    0.85450    0.41660    1.000
    N287     N        0.19800    0.86380    0.38390    1.000
    C576     C        0.28290    0.92290    0.38400    1.000
    H383     H        0.27410    0.93120    0.36660    1.000
    H384     H        0.21690    0.86570    0.42760    1.000
    N288     N        0.21200    0.91020    0.37690    1.000
    O193     O        0.35591    0.46934    0.81239    1.000
    O194     O        0.39149    0.46879    0.84830    1.000
    C577     C        0.38066    0.45927    0.82441    1.000
    C578     C        0.39659    0.43550    0.80823    1.000
    C579     C        0.39160    0.42820    0.77728    1.000
    H385     H        0.37680    0.43940    0.76700    1.000
    N289     N        0.39440    0.37450    0.68650    1.000
    C580     C        0.39980    0.36630    0.72350    1.000
    H386     H        0.41660    0.35450    0.72890    1.000
    N290     N        0.38390    0.36380    0.69800    1.000
    C581     C        0.38400    0.42290    0.78290    1.000
    H387     H        0.36660    0.43120    0.77410    1.000
    H388     H        0.42760    0.36570    0.71690    1.000
    O195     O        0.35591    0.96934    0.31239    1.000
    O196     O        0.39149    0.96879    0.34830    1.000
    C582     C        0.38066    0.95927    0.32441    1.000
    C583     C        0.39659    0.93550    0.30823    1.000
    C584     C        0.39160    0.92820    0.27728    1.000
    H389     H        0.37680    0.93940    0.26700    1.000
    N291     N        0.39440    0.87450    0.18650    1.000
    C585     C        0.39980    0.86630    0.22350    1.000
    H390     H        0.41660    0.85450    0.22890    1.000
    N292     N        0.38390    0.86380    0.19800    1.000
    C586     C        0.38400    0.92290    0.28290    1.000
    H391     H        0.36660    0.93120    0.27410    1.000
    H392     H        0.42760    0.86570    0.21690    1.000
    O197     O        0.85591    0.46934    0.31239    1.000
    O198     O        0.89149    0.46879    0.34830    1.000
    C587     C        0.88066    0.45927    0.32441    1.000
    C588     C        0.89659    0.43550    0.30823    1.000
    C589     C        0.89160    0.42820    0.27728    1.000
    H393     H        0.87680    0.43940    0.26700    1.000
    N293     N        0.89440    0.37450    0.18650    1.000
    C590     C        0.89980    0.36630    0.22350    1.000
    H394     H        0.91660    0.35450    0.22890    1.000
    N294     N        0.88390    0.36380    0.19800    1.000
    C591     C        0.88400    0.42290    0.28290    1.000
    H395     H        0.86660    0.43120    0.27410    1.000
    H396     H        0.92760    0.36570    0.21690    1.000
    O199     O        0.85591    0.96934    0.81239    1.000
    O200     O        0.89149    0.96879    0.84830    1.000
    C592     C        0.88066    0.95927    0.82441    1.000
    C593     C        0.89659    0.93550    0.80823    1.000
    C594     C        0.89160    0.92820    0.77728    1.000
    H397     H        0.87680    0.93940    0.76700    1.000
    N295     N        0.89440    0.87450    0.68650    1.000
    C595     C        0.89980    0.86630    0.72350    1.000
    H398     H        0.91660    0.85450    0.72890    1.000
    N296     N        0.88390    0.86380    0.69800    1.000
    C596     C        0.88400    0.92290    0.78290    1.000
    H399     H        0.86660    0.93120    0.77410    1.000
    H400     H        0.92760    0.86570    0.71690    1.000
    O201     O        0.64409    0.53066    0.81239    1.000
    O202     O        0.60851    0.53121    0.84830    1.000
    C597     C        0.61934    0.54073    0.82441    1.000
    C598     C        0.60341    0.56450    0.80823    1.000
    C599     C        0.60840    0.57180    0.77728    1.000
    H401     H        0.62320    0.56060    0.76700    1.000
    N297     N        0.60560    0.62550    0.68650    1.000
    C600     C        0.60020    0.63370    0.72350    1.000
    H402     H        0.58340    0.64550    0.72890    1.000
    N298     N        0.61610    0.63620    0.69800    1.000
    C601     C        0.61600    0.57710    0.78290    1.000
    H403     H        0.63340    0.56880    0.77410    1.000
    H404     H        0.57240    0.63430    0.71690    1.000
    O203     O        0.64409    0.03066    0.31239    1.000
    O204     O        0.60851    0.03121    0.34830    1.000
    C602     C        0.61934    0.04073    0.32441    1.000
    C603     C        0.60341    0.06450    0.30823    1.000
    C604     C        0.60840    0.07180    0.27728    1.000
    H405     H        0.62320    0.06060    0.26700    1.000
    N299     N        0.60560    0.12550    0.18650    1.000
    C605     C        0.60020    0.13370    0.22350    1.000
    H406     H        0.58340    0.14550    0.22890    1.000
    N300     N        0.61610    0.13620    0.19800    1.000
    C606     C        0.61600    0.07710    0.28290    1.000
    H407     H        0.63340    0.06880    0.27410    1.000
    H408     H        0.57240    0.13430    0.21690    1.000
    O205     O        0.14409    0.53066    0.31239    1.000
    O206     O        0.10851    0.53121    0.34830    1.000
    C607     C        0.11934    0.54073    0.32441    1.000
    C608     C        0.10341    0.56450    0.30823    1.000
    C609     C        0.10840    0.57180    0.27728    1.000
    H409     H        0.12320    0.56060    0.26700    1.000
    N301     N        0.10560    0.62550    0.18650    1.000
    C610     C        0.10020    0.63370    0.22350    1.000
    H410     H        0.08340    0.64550    0.22890    1.000
    N302     N        0.11610    0.63620    0.19800    1.000
    C611     C        0.11600    0.57710    0.28290    1.000
    H411     H        0.13340    0.56880    0.27410    1.000
    H412     H        0.07240    0.63430    0.21690    1.000
    O207     O        0.14409    0.03066    0.81239    1.000
    O208     O        0.10851    0.03121    0.84830    1.000
    C612     C        0.11934    0.04073    0.82441    1.000
    C613     C        0.10341    0.06450    0.80823    1.000
    C614     C        0.10840    0.07180    0.77728    1.000
    H413     H        0.12320    0.06060    0.76700    1.000
    N303     N        0.10560    0.12550    0.68650    1.000
    C615     C        0.10020    0.13370    0.72350    1.000
    H414     H        0.08340    0.14550    0.72890    1.000
    N304     N        0.11610    0.13620    0.69800    1.000
    C616     C        0.11600    0.07710    0.78290    1.000
    H415     H        0.13340    0.06880    0.77410    1.000
    H416     H        0.07240    0.13430    0.71690    1.000
    O209     O        0.64409    0.46934    0.18761    1.000
    O210     O        0.60851    0.46879    0.15170    1.000
    C617     C        0.61934    0.45927    0.17559    1.000
    C618     C        0.60341    0.43550    0.19177    1.000
    C619     C        0.60840    0.42820    0.22272    1.000
    H417     H        0.62320    0.43940    0.23300    1.000
    N305     N        0.60560    0.37450    0.31350    1.000
    C620     C        0.60020    0.36630    0.27650    1.000
    H418     H        0.58340    0.35450    0.27110    1.000
    N306     N        0.61610    0.36380    0.30200    1.000
    C621     C        0.61600    0.42290    0.21710    1.000
    H419     H        0.63340    0.43120    0.22590    1.000
    H420     H        0.57240    0.36570    0.28310    1.000
    O211     O        0.64409    0.96934    0.68761    1.000
    O212     O        0.60851    0.96879    0.65170    1.000
    C622     C        0.61934    0.95927    0.67559    1.000
    C623     C        0.60341    0.93550    0.69177    1.000
    C624     C        0.60840    0.92820    0.72272    1.000
    H421     H        0.62320    0.93940    0.73300    1.000
    N307     N        0.60560    0.87450    0.81350    1.000
    C625     C        0.60020    0.86630    0.77650    1.000
    H422     H        0.58340    0.85450    0.77110    1.000
    N308     N        0.61610    0.86380    0.80200    1.000
    C626     C        0.61600    0.92290    0.71710    1.000
    H423     H        0.63340    0.93120    0.72590    1.000
    H424     H        0.57240    0.86570    0.78310    1.000
    O213     O        0.14409    0.46934    0.68761    1.000
    O214     O        0.10851    0.46879    0.65170    1.000
    C627     C        0.11934    0.45927    0.67559    1.000
    C628     C        0.10341    0.43550    0.69177    1.000
    C629     C        0.10840    0.42820    0.72272    1.000
    H425     H        0.12320    0.43940    0.73300    1.000
    N309     N        0.10560    0.37450    0.81350    1.000
    C630     C        0.10020    0.36630    0.77650    1.000
    H426     H        0.08340    0.35450    0.77110    1.000
    N310     N        0.11610    0.36380    0.80200    1.000
    C631     C        0.11600    0.42290    0.71710    1.000
    H427     H        0.13340    0.43120    0.72590    1.000
    H428     H        0.07240    0.36570    0.78310    1.000
    O215     O        0.14409    0.96934    0.18761    1.000
    O216     O        0.10851    0.96879    0.15170    1.000
    C632     C        0.11934    0.95927    0.17559    1.000
    C633     C        0.10341    0.93550    0.19177    1.000
    C634     C        0.10840    0.92820    0.22272    1.000
    H429     H        0.12320    0.93940    0.23300    1.000
    N311     N        0.10560    0.87450    0.31350    1.000
    C635     C        0.10020    0.86630    0.27650    1.000
    H430     H        0.08340    0.85450    0.27110    1.000
    N312     N        0.11610    0.86380    0.30200    1.000
    C636     C        0.11600    0.92290    0.21710    1.000
    H431     H        0.13340    0.93120    0.22590    1.000
    H432     H        0.07240    0.86570    0.28310    1.000
    O217     O        0.35591    0.53066    0.18761    1.000
    O218     O        0.39149    0.53121    0.15170    1.000
    C637     C        0.38066    0.54073    0.17559    1.000
    C638     C        0.39659    0.56450    0.19177    1.000
    C639     C        0.39160    0.57180    0.22272    1.000
    H433     H        0.37680    0.56060    0.23300    1.000
    N313     N        0.39440    0.62550    0.31350    1.000
    C640     C        0.39980    0.63370    0.27650    1.000
    H434     H        0.41660    0.64550    0.27110    1.000
    N314     N        0.38390    0.63620    0.30200    1.000
    C641     C        0.38400    0.57710    0.21710    1.000
    H435     H        0.36660    0.56880    0.22590    1.000
    H436     H        0.42760    0.63430    0.28310    1.000
    O219     O        0.35591    0.03066    0.68761    1.000
    O220     O        0.39149    0.03121    0.65170    1.000
    C642     C        0.38066    0.04073    0.67559    1.000
    C643     C        0.39659    0.06450    0.69177    1.000
    C644     C        0.39160    0.07180    0.72272    1.000
    H437     H        0.37680    0.06060    0.73300    1.000
    N315     N        0.39440    0.12550    0.81350    1.000
    C645     C        0.39980    0.13370    0.77650    1.000
    H438     H        0.41660    0.14550    0.77110    1.000
    N316     N        0.38390    0.13620    0.80200    1.000
    C646     C        0.38400    0.07710    0.71710    1.000
    H439     H        0.36660    0.06880    0.72590    1.000
    H440     H        0.42760    0.13430    0.78310    1.000
    O221     O        0.85591    0.53066    0.68761    1.000
    O222     O        0.89149    0.53121    0.65170    1.000
    C647     C        0.88066    0.54073    0.67559    1.000
    C648     C        0.89659    0.56450    0.69177    1.000
    C649     C        0.89160    0.57180    0.72272    1.000
    H441     H        0.87680    0.56060    0.73300    1.000
    N317     N        0.89440    0.62550    0.81350    1.000
    C650     C        0.89980    0.63370    0.77650    1.000
    H442     H        0.91660    0.64550    0.77110    1.000
    N318     N        0.88390    0.63620    0.80200    1.000
    C651     C        0.88400    0.57710    0.71710    1.000
    H443     H        0.86660    0.56880    0.72590    1.000
    H444     H        0.92760    0.63430    0.78310    1.000
    O223     O        0.85591    0.03066    0.18761    1.000
    O224     O        0.89149    0.03121    0.15170    1.000
    C652     C        0.88066    0.04073    0.17559    1.000
    C653     C        0.89659    0.06450    0.19177    1.000
    C654     C        0.89160    0.07180    0.22272    1.000
    H445     H        0.87680    0.06060    0.23300    1.000
    N319     N        0.89440    0.12550    0.31350    1.000
    C655     C        0.89980    0.13370    0.27650    1.000
    H446     H        0.91660    0.14550    0.27110    1.000
    N320     N        0.88390    0.13620    0.30200    1.000
    C656     C        0.88400    0.07710    0.21710    1.000
    H447     H        0.86660    0.06880    0.22590    1.000
    H448     H        0.92760    0.13430    0.28310    1.000
    O225     O        0.81239    0.35591    0.46934    1.000
    O226     O        0.84830    0.39149    0.46879    1.000
    C657     C        0.82441    0.38066    0.45927    1.000
    C658     C        0.80823    0.39659    0.43550    1.000
    C659     C        0.77728    0.39160    0.42820    1.000
    H449     H        0.76700    0.37680    0.43940    1.000
    N321     N        0.68650    0.39440    0.37450    1.000
    C660     C        0.72350    0.39980    0.36630    1.000
    H450     H        0.72890    0.41660    0.35450    1.000
    N322     N        0.69800    0.38390    0.36380    1.000
    C661     C        0.78290    0.38400    0.42290    1.000
    H451     H        0.77410    0.36660    0.43120    1.000
    H452     H        0.71690    0.42760    0.36570    1.000
    O227     O        0.81239    0.85591    0.96934    1.000
    O228     O        0.84830    0.89149    0.96879    1.000
    C662     C        0.82441    0.88066    0.95927    1.000
    C663     C        0.80823    0.89659    0.93550    1.000
    C664     C        0.77728    0.89160    0.92820    1.000
    H453     H        0.76700    0.87680    0.93940    1.000
    N323     N        0.68650    0.89440    0.87450    1.000
    C665     C        0.72350    0.89980    0.86630    1.000
    H454     H        0.72890    0.91660    0.85450    1.000
    N324     N        0.69800    0.88390    0.86380    1.000
    C666     C        0.78290    0.88400    0.92290    1.000
    H455     H        0.77410    0.86660    0.93120    1.000
    H456     H        0.71690    0.92760    0.86570    1.000
    O229     O        0.31239    0.35591    0.96934    1.000
    O230     O        0.34830    0.39149    0.96879    1.000
    C667     C        0.32441    0.38066    0.95927    1.000
    C668     C        0.30823    0.39659    0.93550    1.000
    C669     C        0.27728    0.39160    0.92820    1.000
    H457     H        0.26700    0.37680    0.93940    1.000
    N325     N        0.18650    0.39440    0.87450    1.000
    C670     C        0.22350    0.39980    0.86630    1.000
    H458     H        0.22890    0.41660    0.85450    1.000
    N326     N        0.19800    0.38390    0.86380    1.000
    C671     C        0.28290    0.38400    0.92290    1.000
    H459     H        0.27410    0.36660    0.93120    1.000
    H460     H        0.21690    0.42760    0.86570    1.000
    O231     O        0.31239    0.85591    0.46934    1.000
    O232     O        0.34830    0.89149    0.46879    1.000
    C672     C        0.32441    0.88066    0.45927    1.000
    C673     C        0.30823    0.89659    0.43550    1.000
    C674     C        0.27728    0.89160    0.42820    1.000
    H461     H        0.26700    0.87680    0.43940    1.000
    N327     N        0.18650    0.89440    0.37450    1.000
    C675     C        0.22350    0.89980    0.36630    1.000
    H462     H        0.22890    0.91660    0.35450    1.000
    N328     N        0.19800    0.88390    0.36380    1.000
    C676     C        0.28290    0.88400    0.42290    1.000
    H463     H        0.27410    0.86660    0.43120    1.000
    H464     H        0.21690    0.92760    0.36570    1.000
    O233     O        0.81239    0.64409    0.53066    1.000
    O234     O        0.84830    0.60851    0.53121    1.000
    C677     C        0.82441    0.61934    0.54073    1.000
    C678     C        0.80823    0.60341    0.56450    1.000
    C679     C        0.77728    0.60840    0.57180    1.000
    H465     H        0.76700    0.62320    0.56060    1.000
    N329     N        0.68650    0.60560    0.62550    1.000
    C680     C        0.72350    0.60020    0.63370    1.000
    H466     H        0.72890    0.58340    0.64550    1.000
    N330     N        0.69800    0.61610    0.63620    1.000
    C681     C        0.78290    0.61600    0.57710    1.000
    H467     H        0.77410    0.63340    0.56880    1.000
    H468     H        0.71690    0.57240    0.63430    1.000
    O235     O        0.81239    0.14409    0.03066    1.000
    O236     O        0.84830    0.10851    0.03121    1.000
    C682     C        0.82441    0.11934    0.04073    1.000
    C683     C        0.80823    0.10341    0.06450    1.000
    C684     C        0.77728    0.10840    0.07180    1.000
    H469     H        0.76700    0.12320    0.06060    1.000
    N331     N        0.68650    0.10560    0.12550    1.000
    C685     C        0.72350    0.10020    0.13370    1.000
    H470     H        0.72890    0.08340    0.14550    1.000
    N332     N        0.69800    0.11610    0.13620    1.000
    C686     C        0.78290    0.11600    0.07710    1.000
    H471     H        0.77410    0.13340    0.06880    1.000
    H472     H        0.71690    0.07240    0.13430    1.000
    O237     O        0.31239    0.64409    0.03066    1.000
    O238     O        0.34830    0.60851    0.03121    1.000
    C687     C        0.32441    0.61934    0.04073    1.000
    C688     C        0.30823    0.60341    0.06450    1.000
    C689     C        0.27728    0.60840    0.07180    1.000
    H473     H        0.26700    0.62320    0.06060    1.000
    N333     N        0.18650    0.60560    0.12550    1.000
    C690     C        0.22350    0.60020    0.13370    1.000
    H474     H        0.22890    0.58340    0.14550    1.000
    N334     N        0.19800    0.61610    0.13620    1.000
    C691     C        0.28290    0.61600    0.07710    1.000
    H475     H        0.27410    0.63340    0.06880    1.000
    H476     H        0.21690    0.57240    0.13430    1.000
    O239     O        0.31239    0.14409    0.53066    1.000
    O240     O        0.34830    0.10851    0.53121    1.000
    C692     C        0.32441    0.11934    0.54073    1.000
    C693     C        0.30823    0.10341    0.56450    1.000
    C694     C        0.27728    0.10840    0.57180    1.000
    H477     H        0.26700    0.12320    0.56060    1.000
    N335     N        0.18650    0.10560    0.62550    1.000
    C695     C        0.22350    0.10020    0.63370    1.000
    H478     H        0.22890    0.08340    0.64550    1.000
    N336     N        0.19800    0.11610    0.63620    1.000
    C696     C        0.28290    0.11600    0.57710    1.000
    H479     H        0.27410    0.13340    0.56880    1.000
    H480     H        0.21690    0.07240    0.63430    1.000
    O241     O        0.18761    0.64409    0.46934    1.000
    O242     O        0.15170    0.60851    0.46879    1.000
    C697     C        0.17559    0.61934    0.45927    1.000
    C698     C        0.19177    0.60341    0.43550    1.000
    C699     C        0.22272    0.60840    0.42820    1.000
    H481     H        0.23300    0.62320    0.43940    1.000
    N337     N        0.31350    0.60560    0.37450    1.000
    C700     C        0.27650    0.60020    0.36630    1.000
    H482     H        0.27110    0.58340    0.35450    1.000
    N338     N        0.30200    0.61610    0.36380    1.000
    C701     C        0.21710    0.61600    0.42290    1.000
    H483     H        0.22590    0.63340    0.43120    1.000
    H484     H        0.28310    0.57240    0.36570    1.000
    O243     O        0.18761    0.14409    0.96934    1.000
    O244     O        0.15170    0.10851    0.96879    1.000
    C702     C        0.17559    0.11934    0.95927    1.000
    C703     C        0.19177    0.10341    0.93550    1.000
    C704     C        0.22272    0.10840    0.92820    1.000
    H485     H        0.23300    0.12320    0.93940    1.000
    N339     N        0.31350    0.10560    0.87450    1.000
    C705     C        0.27650    0.10020    0.86630    1.000
    H486     H        0.27110    0.08340    0.85450    1.000
    N340     N        0.30200    0.11610    0.86380    1.000
    C706     C        0.21710    0.11600    0.92290    1.000
    H487     H        0.22590    0.13340    0.93120    1.000
    H488     H        0.28310    0.07240    0.86570    1.000
    O245     O        0.68761    0.64409    0.96934    1.000
    O246     O        0.65170    0.60851    0.96879    1.000
    C707     C        0.67559    0.61934    0.95927    1.000
    C708     C        0.69177    0.60341    0.93550    1.000
    C709     C        0.72272    0.60840    0.92820    1.000
    H489     H        0.73300    0.62320    0.93940    1.000
    N341     N        0.81350    0.60560    0.87450    1.000
    C710     C        0.77650    0.60020    0.86630    1.000
    H490     H        0.77110    0.58340    0.85450    1.000
    N342     N        0.80200    0.61610    0.86380    1.000
    C711     C        0.71710    0.61600    0.92290    1.000
    H491     H        0.72590    0.63340    0.93120    1.000
    H492     H        0.78310    0.57240    0.86570    1.000
    O247     O        0.68761    0.14409    0.46934    1.000
    O248     O        0.65170    0.10851    0.46879    1.000
    C712     C        0.67559    0.11934    0.45927    1.000
    C713     C        0.69177    0.10341    0.43550    1.000
    C714     C        0.72272    0.10840    0.42820    1.000
    H493     H        0.73300    0.12320    0.43940    1.000
    N343     N        0.81350    0.10560    0.37450    1.000
    C715     C        0.77650    0.10020    0.36630    1.000
    H494     H        0.77110    0.08340    0.35450    1.000
    N344     N        0.80200    0.11610    0.36380    1.000
    C716     C        0.71710    0.11600    0.42290    1.000
    H495     H        0.72590    0.13340    0.43120    1.000
    H496     H        0.78310    0.07240    0.36570    1.000
    O249     O        0.18761    0.35591    0.53066    1.000
    O250     O        0.15170    0.39149    0.53121    1.000
    C717     C        0.17559    0.38066    0.54073    1.000
    C718     C        0.19177    0.39659    0.56450    1.000
    C719     C        0.22272    0.39160    0.57180    1.000
    H497     H        0.23300    0.37680    0.56060    1.000
    N345     N        0.31350    0.39440    0.62550    1.000
    C720     C        0.27650    0.39980    0.63370    1.000
    H498     H        0.27110    0.41660    0.64550    1.000
    N346     N        0.30200    0.38390    0.63620    1.000
    C721     C        0.21710    0.38400    0.57710    1.000
    H499     H        0.22590    0.36660    0.56880    1.000
    H500     H        0.28310    0.42760    0.63430    1.000
    O251     O        0.18761    0.85591    0.03066    1.000
    O252     O        0.15170    0.89149    0.03121    1.000
    C722     C        0.17559    0.88066    0.04073    1.000
    C723     C        0.19177    0.89659    0.06450    1.000
    C724     C        0.22272    0.89160    0.07180    1.000
    H501     H        0.23300    0.87680    0.06060    1.000
    N347     N        0.31350    0.89440    0.12550    1.000
    C725     C        0.27650    0.89980    0.13370    1.000
    H502     H        0.27110    0.91660    0.14550    1.000
    N348     N        0.30200    0.88390    0.13620    1.000
    C726     C        0.21710    0.88400    0.07710    1.000
    H503     H        0.22590    0.86660    0.06880    1.000
    H504     H        0.28310    0.92760    0.13430    1.000
    O253     O        0.68761    0.35591    0.03066    1.000
    O254     O        0.65170    0.39149    0.03121    1.000
    C727     C        0.67559    0.38066    0.04073    1.000
    C728     C        0.69177    0.39659    0.06450    1.000
    C729     C        0.72272    0.39160    0.07180    1.000
    H505     H        0.73300    0.37680    0.06060    1.000
    N349     N        0.81350    0.39440    0.12550    1.000
    C730     C        0.77650    0.39980    0.13370    1.000
    H506     H        0.77110    0.41660    0.14550    1.000
    N350     N        0.80200    0.38390    0.13620    1.000
    C731     C        0.71710    0.38400    0.07710    1.000
    H507     H        0.72590    0.36660    0.06880    1.000
    H508     H        0.78310    0.42760    0.13430    1.000
    O255     O        0.68761    0.85591    0.53066    1.000
    O256     O        0.65170    0.89149    0.53121    1.000
    C732     C        0.67559    0.88066    0.54073    1.000
    C733     C        0.69177    0.89659    0.56450    1.000
    C734     C        0.72272    0.89160    0.57180    1.000
    H509     H        0.73300    0.87680    0.56060    1.000
    N351     N        0.81350    0.89440    0.62550    1.000
    C735     C        0.77650    0.89980    0.63370    1.000
    H510     H        0.77110    0.91660    0.64550    1.000
    N352     N        0.80200    0.88390    0.63620    1.000
    C736     C        0.71710    0.88400    0.57710    1.000
    H511     H        0.72590    0.86660    0.56880    1.000
    H512     H        0.78310    0.92760    0.63430    1.000
    O257     O        0.46934    0.81239    0.35591    1.000
    O258     O        0.46879    0.84830    0.39149    1.000
    C737     C        0.45927    0.82441    0.38066    1.000
    C738     C        0.43550    0.80823    0.39659    1.000
    C739     C        0.42820    0.77728    0.39160    1.000
    H513     H        0.43940    0.76700    0.37680    1.000
    N353     N        0.37450    0.68650    0.39440    1.000
    C740     C        0.36630    0.72350    0.39980    1.000
    H514     H        0.35450    0.72890    0.41660    1.000
    N354     N        0.36380    0.69800    0.38390    1.000
    C741     C        0.42290    0.78290    0.38400    1.000
    H515     H        0.43120    0.77410    0.36660    1.000
    H516     H        0.36570    0.71690    0.42760    1.000
    O259     O        0.46934    0.31239    0.85591    1.000
    O260     O        0.46879    0.34830    0.89149    1.000
    C742     C        0.45927    0.32441    0.88066    1.000
    C743     C        0.43550    0.30823    0.89659    1.000
    C744     C        0.42820    0.27728    0.89160    1.000
    H517     H        0.43940    0.26700    0.87680    1.000
    N355     N        0.37450    0.18650    0.89440    1.000
    C745     C        0.36630    0.22350    0.89980    1.000
    H518     H        0.35450    0.22890    0.91660    1.000
    N356     N        0.36380    0.19800    0.88390    1.000
    C746     C        0.42290    0.28290    0.88400    1.000
    H519     H        0.43120    0.27410    0.86660    1.000
    H520     H        0.36570    0.21690    0.92760    1.000
    O261     O        0.96934    0.81239    0.85591    1.000
    O262     O        0.96879    0.84830    0.89149    1.000
    C747     C        0.95927    0.82441    0.88066    1.000
    C748     C        0.93550    0.80823    0.89659    1.000
    C749     C        0.92820    0.77728    0.89160    1.000
    H521     H        0.93940    0.76700    0.87680    1.000
    N357     N        0.87450    0.68650    0.89440    1.000
    C750     C        0.86630    0.72350    0.89980    1.000
    H522     H        0.85450    0.72890    0.91660    1.000
    N358     N        0.86380    0.69800    0.88390    1.000
    C751     C        0.92290    0.78290    0.88400    1.000
    H523     H        0.93120    0.77410    0.86660    1.000
    H524     H        0.86570    0.71690    0.92760    1.000
    O263     O        0.96934    0.31239    0.35591    1.000
    O264     O        0.96879    0.34830    0.39149    1.000
    C752     C        0.95927    0.32441    0.38066    1.000
    C753     C        0.93550    0.30823    0.39659    1.000
    C754     C        0.92820    0.27728    0.39160    1.000
    H525     H        0.93940    0.26700    0.37680    1.000
    N359     N        0.87450    0.18650    0.39440    1.000
    C755     C        0.86630    0.22350    0.39980    1.000
    H526     H        0.85450    0.22890    0.41660    1.000
    N360     N        0.86380    0.19800    0.38390    1.000
    C756     C        0.92290    0.28290    0.38400    1.000
    H527     H        0.93120    0.27410    0.36660    1.000
    H528     H        0.86570    0.21690    0.42760    1.000
    O265     O        0.53066    0.81239    0.64409    1.000
    O266     O        0.53121    0.84830    0.60851    1.000
    C757     C        0.54073    0.82441    0.61934    1.000
    C758     C        0.56450    0.80823    0.60341    1.000
    C759     C        0.57180    0.77728    0.60840    1.000
    H529     H        0.56060    0.76700    0.62320    1.000
    N361     N        0.62550    0.68650    0.60560    1.000
    C760     C        0.63370    0.72350    0.60020    1.000
    H530     H        0.64550    0.72890    0.58340    1.000
    N362     N        0.63620    0.69800    0.61610    1.000
    C761     C        0.57710    0.78290    0.61600    1.000
    H531     H        0.56880    0.77410    0.63340    1.000
    H532     H        0.63430    0.71690    0.57240    1.000
    O267     O        0.53066    0.31239    0.14409    1.000
    O268     O        0.53121    0.34830    0.10851    1.000
    C762     C        0.54073    0.32441    0.11934    1.000
    C763     C        0.56450    0.30823    0.10341    1.000
    C764     C        0.57180    0.27728    0.10840    1.000
    H533     H        0.56060    0.26700    0.12320    1.000
    N363     N        0.62550    0.18650    0.10560    1.000
    C765     C        0.63370    0.22350    0.10020    1.000
    H534     H        0.64550    0.22890    0.08340    1.000
    N364     N        0.63620    0.19800    0.11610    1.000
    C766     C        0.57710    0.28290    0.11600    1.000
    H535     H        0.56880    0.27410    0.13340    1.000
    H536     H        0.63430    0.21690    0.07240    1.000
    O269     O        0.03066    0.81239    0.14409    1.000
    O270     O        0.03121    0.84830    0.10851    1.000
    C767     C        0.04073    0.82441    0.11934    1.000
    C768     C        0.06450    0.80823    0.10341    1.000
    C769     C        0.07180    0.77728    0.10840    1.000
    H537     H        0.06060    0.76700    0.12320    1.000
    N365     N        0.12550    0.68650    0.10560    1.000
    C770     C        0.13370    0.72350    0.10020    1.000
    H538     H        0.14550    0.72890    0.08340    1.000
    N366     N        0.13620    0.69800    0.11610    1.000
    C771     C        0.07710    0.78290    0.11600    1.000
    H539     H        0.06880    0.77410    0.13340    1.000
    H540     H        0.13430    0.71690    0.07240    1.000
    O271     O        0.03066    0.31239    0.64409    1.000
    O272     O        0.03121    0.34830    0.60851    1.000
    C772     C        0.04073    0.32441    0.61934    1.000
    C773     C        0.06450    0.30823    0.60341    1.000
    C774     C        0.07180    0.27728    0.60840    1.000
    H541     H        0.06060    0.26700    0.62320    1.000
    N367     N        0.12550    0.18650    0.60560    1.000
    C775     C        0.13370    0.22350    0.60020    1.000
    H542     H        0.14550    0.22890    0.58340    1.000
    N368     N        0.13620    0.19800    0.61610    1.000
    C776     C        0.07710    0.28290    0.61600    1.000
    H543     H        0.06880    0.27410    0.63340    1.000
    H544     H        0.13430    0.21690    0.57240    1.000
    O273     O        0.46934    0.18761    0.64409    1.000
    O274     O        0.46879    0.15170    0.60851    1.000
    C777     C        0.45927    0.17559    0.61934    1.000
    C778     C        0.43550    0.19177    0.60341    1.000
    C779     C        0.42820    0.22272    0.60840    1.000
    H545     H        0.43940    0.23300    0.62320    1.000
    N369     N        0.37450    0.31350    0.60560    1.000
    C780     C        0.36630    0.27650    0.60020    1.000
    H546     H        0.35450    0.27110    0.58340    1.000
    N370     N        0.36380    0.30200    0.61610    1.000
    C781     C        0.42290    0.21710    0.61600    1.000
    H547     H        0.43120    0.22590    0.63340    1.000
    H548     H        0.36570    0.28310    0.57240    1.000
    O275     O        0.46934    0.68761    0.14409    1.000
    O276     O        0.46879    0.65170    0.10851    1.000
    C782     C        0.45927    0.67559    0.11934    1.000
    C783     C        0.43550    0.69177    0.10341    1.000
    C784     C        0.42820    0.72272    0.10840    1.000
    H549     H        0.43940    0.73300    0.12320    1.000
    N371     N        0.37450    0.81350    0.10560    1.000
    C785     C        0.36630    0.77650    0.10020    1.000
    H550     H        0.35450    0.77110    0.08340    1.000
    N372     N        0.36380    0.80200    0.11610    1.000
    C786     C        0.42290    0.71710    0.11600    1.000
    H551     H        0.43120    0.72590    0.13340    1.000
    H552     H        0.36570    0.78310    0.07240    1.000
    O277     O        0.96934    0.18761    0.14409    1.000
    O278     O        0.96879    0.15170    0.10851    1.000
    C787     C        0.95927    0.17559    0.11934    1.000
    C788     C        0.93550    0.19177    0.10341    1.000
    C789     C        0.92820    0.22272    0.10840    1.000
    H553     H        0.93940    0.23300    0.12320    1.000
    N373     N        0.87450    0.31350    0.10560    1.000
    C790     C        0.86630    0.27650    0.10020    1.000
    H554     H        0.85450    0.27110    0.08340    1.000
    N374     N        0.86380    0.30200    0.11610    1.000
    C791     C        0.92290    0.21710    0.11600    1.000
    H555     H        0.93120    0.22590    0.13340    1.000
    H556     H        0.86570    0.28310    0.07240    1.000
    O279     O        0.96934    0.68761    0.64409    1.000
    O280     O        0.96879    0.65170    0.60851    1.000
    C792     C        0.95927    0.67559    0.61934    1.000
    C793     C        0.93550    0.69177    0.60341    1.000
    C794     C        0.92820    0.72272    0.60840    1.000
    H557     H        0.93940    0.73300    0.62320    1.000
    N375     N        0.87450    0.81350    0.60560    1.000
    C795     C        0.86630    0.77650    0.60020    1.000
    H558     H        0.85450    0.77110    0.58340    1.000
    N376     N        0.86380    0.80200    0.61610    1.000
    C796     C        0.92290    0.71710    0.61600    1.000
    H559     H        0.93120    0.72590    0.63340    1.000
    H560     H        0.86570    0.78310    0.57240    1.000
    O281     O        0.53066    0.18761    0.35591    1.000
    O282     O        0.53121    0.15170    0.39149    1.000
    C797     C        0.54073    0.17559    0.38066    1.000
    C798     C        0.56450    0.19177    0.39659    1.000
    C799     C        0.57180    0.22272    0.39160    1.000
    H561     H        0.56060    0.23300    0.37680    1.000
    N377     N        0.62550    0.31350    0.39440    1.000
    C800     C        0.63370    0.27650    0.39980    1.000
    H562     H        0.64550    0.27110    0.41660    1.000
    N378     N        0.63620    0.30200    0.38390    1.000
    C801     C        0.57710    0.21710    0.38400    1.000
    H563     H        0.56880    0.22590    0.36660    1.000
    H564     H        0.63430    0.28310    0.42760    1.000
    O283     O        0.53066    0.68761    0.85591    1.000
    O284     O        0.53121    0.65170    0.89149    1.000
    C802     C        0.54073    0.67559    0.88066    1.000
    C803     C        0.56450    0.69177    0.89659    1.000
    C804     C        0.57180    0.72272    0.89160    1.000
    H565     H        0.56060    0.73300    0.87680    1.000
    N379     N        0.62550    0.81350    0.89440    1.000
    C805     C        0.63370    0.77650    0.89980    1.000
    H566     H        0.64550    0.77110    0.91660    1.000
    N380     N        0.63620    0.80200    0.88390    1.000
    C806     C        0.57710    0.71710    0.88400    1.000
    H567     H        0.56880    0.72590    0.86660    1.000
    H568     H        0.63430    0.78310    0.92760    1.000
    O285     O        0.03066    0.18761    0.85591    1.000
    O286     O        0.03121    0.15170    0.89149    1.000
    C807     C        0.04073    0.17559    0.88066    1.000
    C808     C        0.06450    0.19177    0.89659    1.000
    C809     C        0.07180    0.22272    0.89160    1.000
    H569     H        0.06060    0.23300    0.87680    1.000
    N381     N        0.12550    0.31350    0.89440    1.000
    C810     C        0.13370    0.27650    0.89980    1.000
    H570     H        0.14550    0.27110    0.91660    1.000
    N382     N        0.13620    0.30200    0.88390    1.000
    C811     C        0.07710    0.21710    0.88400    1.000
    H571     H        0.06880    0.22590    0.86660    1.000
    H572     H        0.13430    0.28310    0.92760    1.000
    O287     O        0.03066    0.68761    0.35591    1.000
    O288     O        0.03121    0.65170    0.39149    1.000
    C812     C        0.04073    0.67559    0.38066    1.000
    C813     C        0.06450    0.69177    0.39659    1.000
    C814     C        0.07180    0.72272    0.39160    1.000
    H573     H        0.06060    0.73300    0.37680    1.000
    N383     N        0.12550    0.81350    0.39440    1.000
    C815     C        0.13370    0.77650    0.39980    1.000
    H574     H        0.14550    0.77110    0.41660    1.000
    N384     N        0.13620    0.80200    0.38390    1.000
    C816     C        0.07710    0.71710    0.38400    1.000
    H575     H        0.06880    0.72590    0.36660    1.000
    H576     H        0.13430    0.78310    0.42760    1.000
    O289     O        0.46934    0.35591    0.18761    1.000
    O290     O        0.46879    0.39149    0.15170    1.000
    C817     C        0.45927    0.38066    0.17559    1.000
    C818     C        0.43550    0.39659    0.19177    1.000
    C819     C        0.42820    0.39160    0.22272    1.000
    H577     H        0.43940    0.37680    0.23300    1.000
    N385     N        0.37450    0.39440    0.31350    1.000
    C820     C        0.36630    0.39980    0.27650    1.000
    H578     H        0.35450    0.41660    0.27110    1.000
    N386     N        0.36380    0.38390    0.30200    1.000
    C821     C        0.42290    0.38400    0.21710    1.000
    H579     H        0.43120    0.36660    0.22590    1.000
    H580     H        0.36570    0.42760    0.28310    1.000
    O291     O        0.46934    0.85591    0.68761    1.000
    O292     O        0.46879    0.89149    0.65170    1.000
    C822     C        0.45927    0.88066    0.67559    1.000
    C823     C        0.43550    0.89659    0.69177    1.000
    C824     C        0.42820    0.89160    0.72272    1.000
    H581     H        0.43940    0.87680    0.73300    1.000
    N387     N        0.37450    0.89440    0.81350    1.000
    C825     C        0.36630    0.89980    0.77650    1.000
    H582     H        0.35450    0.91660    0.77110    1.000
    N388     N        0.36380    0.88390    0.80200    1.000
    C826     C        0.42290    0.88400    0.71710    1.000
    H583     H        0.43120    0.86660    0.72590    1.000
    H584     H        0.36570    0.92760    0.78310    1.000
    O293     O        0.96934    0.35591    0.68761    1.000
    O294     O        0.96879    0.39149    0.65170    1.000
    C827     C        0.95927    0.38066    0.67559    1.000
    C828     C        0.93550    0.39659    0.69177    1.000
    C829     C        0.92820    0.39160    0.72272    1.000
    H585     H        0.93940    0.37680    0.73300    1.000
    N389     N        0.87450    0.39440    0.81350    1.000
    C830     C        0.86630    0.39980    0.77650    1.000
    H586     H        0.85450    0.41660    0.77110    1.000
    N390     N        0.86380    0.38390    0.80200    1.000
    C831     C        0.92290    0.38400    0.71710    1.000
    H587     H        0.93120    0.36660    0.72590    1.000
    H588     H        0.86570    0.42760    0.78310    1.000
    O295     O        0.96934    0.85591    0.18761    1.000
    O296     O        0.96879    0.89149    0.15170    1.000
    C832     C        0.95927    0.88066    0.17559    1.000
    C833     C        0.93550    0.89659    0.19177    1.000
    C834     C        0.92820    0.89160    0.22272    1.000
    H589     H        0.93940    0.87680    0.23300    1.000
    N391     N        0.87450    0.89440    0.31350    1.000
    C835     C        0.86630    0.89980    0.27650    1.000
    H590     H        0.85450    0.91660    0.27110    1.000
    N392     N        0.86380    0.88390    0.30200    1.000
    C836     C        0.92290    0.88400    0.21710    1.000
    H591     H        0.93120    0.86660    0.22590    1.000
    H592     H        0.86570    0.92760    0.28310    1.000
    O297     O        0.53066    0.64409    0.18761    1.000
    O298     O        0.53121    0.60851    0.15170    1.000
    C837     C        0.54073    0.61934    0.17559    1.000
    C838     C        0.56450    0.60341    0.19177    1.000
    C839     C        0.57180    0.60840    0.22272    1.000
    H593     H        0.56060    0.62320    0.23300    1.000
    N393     N        0.62550    0.60560    0.31350    1.000
    C840     C        0.63370    0.60020    0.27650    1.000
    H594     H        0.64550    0.58340    0.27110    1.000
    N394     N        0.63620    0.61610    0.30200    1.000
    C841     C        0.57710    0.61600    0.21710    1.000
    H595     H        0.56880    0.63340    0.22590    1.000
    H596     H        0.63430    0.57240    0.28310    1.000
    O299     O        0.53066    0.14409    0.68761    1.000
    O300     O        0.53121    0.10851    0.65170    1.000
    C842     C        0.54073    0.11934    0.67559    1.000
    C843     C        0.56450    0.10341    0.69177    1.000
    C844     C        0.57180    0.10840    0.72272    1.000
    H597     H        0.56060    0.12320    0.73300    1.000
    N395     N        0.62550    0.10560    0.81350    1.000
    C845     C        0.63370    0.10020    0.77650    1.000
    H598     H        0.64550    0.08340    0.77110    1.000
    N396     N        0.63620    0.11610    0.80200    1.000
    C846     C        0.57710    0.11600    0.71710    1.000
    H599     H        0.56880    0.13340    0.72590    1.000
    H600     H        0.63430    0.07240    0.78310    1.000
    O301     O        0.03066    0.64409    0.68761    1.000
    O302     O        0.03121    0.60851    0.65170    1.000
    C847     C        0.04073    0.61934    0.67559    1.000
    C848     C        0.06450    0.60341    0.69177    1.000
    C849     C        0.07180    0.60840    0.72272    1.000
    H601     H        0.06060    0.62320    0.73300    1.000
    N397     N        0.12550    0.60560    0.81350    1.000
    C850     C        0.13370    0.60020    0.77650    1.000
    H602     H        0.14550    0.58340    0.77110    1.000
    N398     N        0.13620    0.61610    0.80200    1.000
    C851     C        0.07710    0.61600    0.71710    1.000
    H603     H        0.06880    0.63340    0.72590    1.000
    H604     H        0.13430    0.57240    0.78310    1.000
    O303     O        0.03066    0.14409    0.18761    1.000
    O304     O        0.03121    0.10851    0.15170    1.000
    C852     C        0.04073    0.11934    0.17559    1.000
    C853     C        0.06450    0.10341    0.19177    1.000
    C854     C        0.07180    0.10840    0.22272    1.000
    H605     H        0.06060    0.12320    0.23300    1.000
    N399     N        0.12550    0.10560    0.31350    1.000
    C855     C        0.13370    0.10020    0.27650    1.000
    H606     H        0.14550    0.08340    0.27110    1.000
    N400     N        0.13620    0.11610    0.30200    1.000
    C856     C        0.07710    0.11600    0.21710    1.000
    H607     H        0.06880    0.13340    0.22590    1.000
    H608     H        0.13430    0.07240    0.28310    1.000
    O305     O        0.46934    0.64409    0.81239    1.000
    O306     O        0.46879    0.60851    0.84830    1.000
    C857     C        0.45927    0.61934    0.82441    1.000
    C858     C        0.43550    0.60341    0.80823    1.000
    C859     C        0.42820    0.60840    0.77728    1.000
    H609     H        0.43940    0.62320    0.76700    1.000
    N401     N        0.37450    0.60560    0.68650    1.000
    C860     C        0.36630    0.60020    0.72350    1.000
    H610     H        0.35450    0.58340    0.72890    1.000
    N402     N        0.36380    0.61610    0.69800    1.000
    C861     C        0.42290    0.61600    0.78290    1.000
    H611     H        0.43120    0.63340    0.77410    1.000
    H612     H        0.36570    0.57240    0.71690    1.000
    O307     O        0.46934    0.14409    0.31239    1.000
    O308     O        0.46879    0.10851    0.34830    1.000
    C862     C        0.45927    0.11934    0.32441    1.000
    C863     C        0.43550    0.10341    0.30823    1.000
    C864     C        0.42820    0.10840    0.27728    1.000
    H613     H        0.43940    0.12320    0.26700    1.000
    N403     N        0.37450    0.10560    0.18650    1.000
    C865     C        0.36630    0.10020    0.22350    1.000
    H614     H        0.35450    0.08340    0.22890    1.000
    N404     N        0.36380    0.11610    0.19800    1.000
    C866     C        0.42290    0.11600    0.28290    1.000
    H615     H        0.43120    0.13340    0.27410    1.000
    H616     H        0.36570    0.07240    0.21690    1.000
    O309     O        0.96934    0.64409    0.31239    1.000
    O310     O        0.96879    0.60851    0.34830    1.000
    C867     C        0.95927    0.61934    0.32441    1.000
    C868     C        0.93550    0.60341    0.30823    1.000
    C869     C        0.92820    0.60840    0.27728    1.000
    H617     H        0.93940    0.62320    0.26700    1.000
    N405     N        0.87450    0.60560    0.18650    1.000
    C870     C        0.86630    0.60020    0.22350    1.000
    H618     H        0.85450    0.58340    0.22890    1.000
    N406     N        0.86380    0.61610    0.19800    1.000
    C871     C        0.92290    0.61600    0.28290    1.000
    H619     H        0.93120    0.63340    0.27410    1.000
    H620     H        0.86570    0.57240    0.21690    1.000
    O311     O        0.96934    0.14409    0.81239    1.000
    O312     O        0.96879    0.10851    0.84830    1.000
    C872     C        0.95927    0.11934    0.82441    1.000
    C873     C        0.93550    0.10341    0.80823    1.000
    C874     C        0.92820    0.10840    0.77728    1.000
    H621     H        0.93940    0.12320    0.76700    1.000
    N407     N        0.87450    0.10560    0.68650    1.000
    C875     C        0.86630    0.10020    0.72350    1.000
    H622     H        0.85450    0.08340    0.72890    1.000
    N408     N        0.86380    0.11610    0.69800    1.000
    C876     C        0.92290    0.11600    0.78290    1.000
    H623     H        0.93120    0.13340    0.77410    1.000
    H624     H        0.86570    0.07240    0.71690    1.000
    O313     O        0.53066    0.35591    0.81239    1.000
    O314     O        0.53121    0.39149    0.84830    1.000
    C877     C        0.54073    0.38066    0.82441    1.000
    C878     C        0.56450    0.39659    0.80823    1.000
    C879     C        0.57180    0.39160    0.77728    1.000
    H625     H        0.56060    0.37680    0.76700    1.000
    N409     N        0.62550    0.39440    0.68650    1.000
    C880     C        0.63370    0.39980    0.72350    1.000
    H626     H        0.64550    0.41660    0.72890    1.000
    N410     N        0.63620    0.38390    0.69800    1.000
    C881     C        0.57710    0.38400    0.78290    1.000
    H627     H        0.56880    0.36660    0.77410    1.000
    H628     H        0.63430    0.42760    0.71690    1.000
    O315     O        0.53066    0.85591    0.31239    1.000
    O316     O        0.53121    0.89149    0.34830    1.000
    C882     C        0.54073    0.88066    0.32441    1.000
    C883     C        0.56450    0.89659    0.30823    1.000
    C884     C        0.57180    0.89160    0.27728    1.000
    H629     H        0.56060    0.87680    0.26700    1.000
    N411     N        0.62550    0.89440    0.18650    1.000
    C885     C        0.63370    0.89980    0.22350    1.000
    H630     H        0.64550    0.91660    0.22890    1.000
    N412     N        0.63620    0.88390    0.19800    1.000
    C886     C        0.57710    0.88400    0.28290    1.000
    H631     H        0.56880    0.86660    0.27410    1.000
    H632     H        0.63430    0.92760    0.21690    1.000
    O317     O        0.03066    0.35591    0.31239    1.000
    O318     O        0.03121    0.39149    0.34830    1.000
    C887     C        0.04073    0.38066    0.32441    1.000
    C888     C        0.06450    0.39659    0.30823    1.000
    C889     C        0.07180    0.39160    0.27728    1.000
    H633     H        0.06060    0.37680    0.26700    1.000
    N413     N        0.12550    0.39440    0.18650    1.000
    C890     C        0.13370    0.39980    0.22350    1.000
    H634     H        0.14550    0.41660    0.22890    1.000
    N414     N        0.13620    0.38390    0.19800    1.000
    C891     C        0.07710    0.38400    0.28290    1.000
    H635     H        0.06880    0.36660    0.27410    1.000
    H636     H        0.13430    0.42760    0.21690    1.000
    O319     O        0.03066    0.85591    0.81239    1.000
    O320     O        0.03121    0.89149    0.84830    1.000
    C892     C        0.04073    0.88066    0.82441    1.000
    C893     C        0.06450    0.89659    0.80823    1.000
    C894     C        0.07180    0.89160    0.77728    1.000
    H637     H        0.06060    0.87680    0.76700    1.000
    N415     N        0.12550    0.89440    0.68650    1.000
    C895     C        0.13370    0.89980    0.72350    1.000
    H638     H        0.14550    0.91660    0.72890    1.000
    N416     N        0.13620    0.88390    0.69800    1.000
    C896     C        0.07710    0.88400    0.78290    1.000
    H639     H        0.06880    0.86660    0.77410    1.000
    H640     H        0.13430    0.92760    0.71690    1.000
    O321     O        0.35591    0.81239    0.53066    1.000
    O322     O        0.39149    0.84830    0.53121    1.000
    C897     C        0.38066    0.82441    0.54073    1.000
    C898     C        0.39659    0.80823    0.56450    1.000
    C899     C        0.39160    0.77728    0.57180    1.000
    H641     H        0.37680    0.76700    0.56060    1.000
    N417     N        0.39440    0.68650    0.62550    1.000
    C900     C        0.39980    0.72350    0.63370    1.000
    H642     H        0.41660    0.72890    0.64550    1.000
    N418     N        0.38390    0.69800    0.63620    1.000
    C901     C        0.38400    0.78290    0.57710    1.000
    H643     H        0.36660    0.77410    0.56880    1.000
    H644     H        0.42760    0.71690    0.63430    1.000
    O323     O        0.35591    0.31239    0.03066    1.000
    O324     O        0.39149    0.34830    0.03121    1.000
    C902     C        0.38066    0.32441    0.04073    1.000
    C903     C        0.39659    0.30823    0.06450    1.000
    C904     C        0.39160    0.27728    0.07180    1.000
    H645     H        0.37680    0.26700    0.06060    1.000
    N419     N        0.39440    0.18650    0.12550    1.000
    C905     C        0.39980    0.22350    0.13370    1.000
    H646     H        0.41660    0.22890    0.14550    1.000
    N420     N        0.38390    0.19800    0.13620    1.000
    C906     C        0.38400    0.28290    0.07710    1.000
    H647     H        0.36660    0.27410    0.06880    1.000
    H648     H        0.42760    0.21690    0.13430    1.000
    O325     O        0.85591    0.81239    0.03066    1.000
    O326     O        0.89149    0.84830    0.03121    1.000
    C907     C        0.88066    0.82441    0.04073    1.000
    C908     C        0.89659    0.80823    0.06450    1.000
    C909     C        0.89160    0.77728    0.07180    1.000
    H649     H        0.87680    0.76700    0.06060    1.000
    N421     N        0.89440    0.68650    0.12550    1.000
    C910     C        0.89980    0.72350    0.13370    1.000
    H650     H        0.91660    0.72890    0.14550    1.000
    N422     N        0.88390    0.69800    0.13620    1.000
    C911     C        0.88400    0.78290    0.07710    1.000
    H651     H        0.86660    0.77410    0.06880    1.000
    H652     H        0.92760    0.71690    0.13430    1.000
    O327     O        0.85591    0.31239    0.53066    1.000
    O328     O        0.89149    0.34830    0.53121    1.000
    C912     C        0.88066    0.32441    0.54073    1.000
    C913     C        0.89659    0.30823    0.56450    1.000
    C914     C        0.89160    0.27728    0.57180    1.000
    H653     H        0.87680    0.26700    0.56060    1.000
    N423     N        0.89440    0.18650    0.62550    1.000
    C915     C        0.89980    0.22350    0.63370    1.000
    H654     H        0.91660    0.22890    0.64550    1.000
    N424     N        0.88390    0.19800    0.63620    1.000
    C916     C        0.88400    0.28290    0.57710    1.000
    H655     H        0.86660    0.27410    0.56880    1.000
    H656     H        0.92760    0.21690    0.63430    1.000
    O329     O        0.64409    0.81239    0.46934    1.000
    O330     O        0.60851    0.84830    0.46879    1.000
    C917     C        0.61934    0.82441    0.45927    1.000
    C918     C        0.60341    0.80823    0.43550    1.000
    C919     C        0.60840    0.77728    0.42820    1.000
    H657     H        0.62320    0.76700    0.43940    1.000
    N425     N        0.60560    0.68650    0.37450    1.000
    C920     C        0.60020    0.72350    0.36630    1.000
    H658     H        0.58340    0.72890    0.35450    1.000
    N426     N        0.61610    0.69800    0.36380    1.000
    C921     C        0.61600    0.78290    0.42290    1.000
    H659     H        0.63340    0.77410    0.43120    1.000
    H660     H        0.57240    0.71690    0.36570    1.000
    O331     O        0.64409    0.31239    0.96934    1.000
    O332     O        0.60851    0.34830    0.96879    1.000
    C922     C        0.61934    0.32441    0.95927    1.000
    C923     C        0.60341    0.30823    0.93550    1.000
    C924     C        0.60840    0.27728    0.92820    1.000
    H661     H        0.62320    0.26700    0.93940    1.000
    N427     N        0.60560    0.18650    0.87450    1.000
    C925     C        0.60020    0.22350    0.86630    1.000
    H662     H        0.58340    0.22890    0.85450    1.000
    N428     N        0.61610    0.19800    0.86380    1.000
    C926     C        0.61600    0.28290    0.92290    1.000
    H663     H        0.63340    0.27410    0.93120    1.000
    H664     H        0.57240    0.21690    0.86570    1.000
    O333     O        0.14409    0.81239    0.96934    1.000
    O334     O        0.10851    0.84830    0.96879    1.000
    C927     C        0.11934    0.82441    0.95927    1.000
    C928     C        0.10341    0.80823    0.93550    1.000
    C929     C        0.10840    0.77728    0.92820    1.000
    H665     H        0.12320    0.76700    0.93940    1.000
    N429     N        0.10560    0.68650    0.87450    1.000
    C930     C        0.10020    0.72350    0.86630    1.000
    H666     H        0.08340    0.72890    0.85450    1.000
    N430     N        0.11610    0.69800    0.86380    1.000
    C931     C        0.11600    0.78290    0.92290    1.000
    H667     H        0.13340    0.77410    0.93120    1.000
    H668     H        0.07240    0.71690    0.86570    1.000
    O335     O        0.14409    0.31239    0.46934    1.000
    O336     O        0.10851    0.34830    0.46879    1.000
    C932     C        0.11934    0.32441    0.45927    1.000
    C933     C        0.10341    0.30823    0.43550    1.000
    C934     C        0.10840    0.27728    0.42820    1.000
    H669     H        0.12320    0.26700    0.43940    1.000
    N431     N        0.10560    0.18650    0.37450    1.000
    C935     C        0.10020    0.22350    0.36630    1.000
    H670     H        0.08340    0.22890    0.35450    1.000
    N432     N        0.11610    0.19800    0.36380    1.000
    C936     C        0.11600    0.28290    0.42290    1.000
    H671     H        0.13340    0.27410    0.43120    1.000
    H672     H        0.07240    0.21690    0.36570    1.000
    O337     O        0.64409    0.18761    0.53066    1.000
    O338     O        0.60851    0.15170    0.53121    1.000
    C937     C        0.61934    0.17559    0.54073    1.000
    C938     C        0.60341    0.19177    0.56450    1.000
    C939     C        0.60840    0.22272    0.57180    1.000
    H673     H        0.62320    0.23300    0.56060    1.000
    N433     N        0.60560    0.31350    0.62550    1.000
    C940     C        0.60020    0.27650    0.63370    1.000
    H674     H        0.58340    0.27110    0.64550    1.000
    N434     N        0.61610    0.30200    0.63620    1.000
    C941     C        0.61600    0.21710    0.57710    1.000
    H675     H        0.63340    0.22590    0.56880    1.000
    H676     H        0.57240    0.28310    0.63430    1.000
    O339     O        0.64409    0.68761    0.03066    1.000
    O340     O        0.60851    0.65170    0.03121    1.000
    C942     C        0.61934    0.67559    0.04073    1.000
    C943     C        0.60341    0.69177    0.06450    1.000
    C944     C        0.60840    0.72272    0.07180    1.000
    H677     H        0.62320    0.73300    0.06060    1.000
    N435     N        0.60560    0.81350    0.12550    1.000
    C945     C        0.60020    0.77650    0.13370    1.000
    H678     H        0.58340    0.77110    0.14550    1.000
    N436     N        0.61610    0.80200    0.13620    1.000
    C946     C        0.61600    0.71710    0.07710    1.000
    H679     H        0.63340    0.72590    0.06880    1.000
    H680     H        0.57240    0.78310    0.13430    1.000
    O341     O        0.14409    0.18761    0.03066    1.000
    O342     O        0.10851    0.15170    0.03121    1.000
    C947     C        0.11934    0.17559    0.04073    1.000
    C948     C        0.10341    0.19177    0.06450    1.000
    C949     C        0.10840    0.22272    0.07180    1.000
    H681     H        0.12320    0.23300    0.06060    1.000
    N437     N        0.10560    0.31350    0.12550    1.000
    C950     C        0.10020    0.27650    0.13370    1.000
    H682     H        0.08340    0.27110    0.14550    1.000
    N438     N        0.11610    0.30200    0.13620    1.000
    C951     C        0.11600    0.21710    0.07710    1.000
    H683     H        0.13340    0.22590    0.06880    1.000
    H684     H        0.07240    0.28310    0.13430    1.000
    O343     O        0.14409    0.68761    0.53066    1.000
    O344     O        0.10851    0.65170    0.53121    1.000
    C952     C        0.11934    0.67559    0.54073    1.000
    C953     C        0.10341    0.69177    0.56450    1.000
    C954     C        0.10840    0.72272    0.57180    1.000
    H685     H        0.12320    0.73300    0.56060    1.000
    N439     N        0.10560    0.81350    0.62550    1.000
    C955     C        0.10020    0.77650    0.63370    1.000
    H686     H        0.08340    0.77110    0.64550    1.000
    N440     N        0.11610    0.80200    0.63620    1.000
    C956     C        0.11600    0.71710    0.57710    1.000
    H687     H        0.13340    0.72590    0.56880    1.000
    H688     H        0.07240    0.78310    0.63430    1.000
    O345     O        0.35591    0.18761    0.46934    1.000
    O346     O        0.39149    0.15170    0.46879    1.000
    C957     C        0.38066    0.17559    0.45927    1.000
    C958     C        0.39659    0.19177    0.43550    1.000
    C959     C        0.39160    0.22272    0.42820    1.000
    H689     H        0.37680    0.23300    0.43940    1.000
    N441     N        0.39440    0.31350    0.37450    1.000
    C960     C        0.39980    0.27650    0.36630    1.000
    H690     H        0.41660    0.27110    0.35450    1.000
    N442     N        0.38390    0.30200    0.36380    1.000
    C961     C        0.38400    0.21710    0.42290    1.000
    H691     H        0.36660    0.22590    0.43120    1.000
    H692     H        0.42760    0.28310    0.36570    1.000
    O347     O        0.35591    0.68761    0.96934    1.000
    O348     O        0.39149    0.65170    0.96879    1.000
    C962     C        0.38066    0.67559    0.95927    1.000
    C963     C        0.39659    0.69177    0.93550    1.000
    C964     C        0.39160    0.72272    0.92820    1.000
    H693     H        0.37680    0.73300    0.93940    1.000
    N443     N        0.39440    0.81350    0.87450    1.000
    C965     C        0.39980    0.77650    0.86630    1.000
    H694     H        0.41660    0.77110    0.85450    1.000
    N444     N        0.38390    0.80200    0.86380    1.000
    C966     C        0.38400    0.71710    0.92290    1.000
    H695     H        0.36660    0.72590    0.93120    1.000
    H696     H        0.42760    0.78310    0.86570    1.000
    O349     O        0.85591    0.18761    0.96934    1.000
    O350     O        0.89149    0.15170    0.96879    1.000
    C967     C        0.88066    0.17559    0.95927    1.000
    C968     C        0.89659    0.19177    0.93550    1.000
    C969     C        0.89160    0.22272    0.92820    1.000
    H697     H        0.87680    0.23300    0.93940    1.000
    N445     N        0.89440    0.31350    0.87450    1.000
    C970     C        0.89980    0.27650    0.86630    1.000
    H698     H        0.91660    0.27110    0.85450    1.000
    N446     N        0.88390    0.30200    0.86380    1.000
    C971     C        0.88400    0.21710    0.92290    1.000
    H699     H        0.86660    0.22590    0.93120    1.000
    H700     H        0.92760    0.28310    0.86570    1.000
    O351     O        0.85591    0.68761    0.46934    1.000
    O352     O        0.89149    0.65170    0.46879    1.000
    C972     C        0.88066    0.67559    0.45927    1.000
    C973     C        0.89659    0.69177    0.43550    1.000
    C974     C        0.89160    0.72272    0.42820    1.000
    H701     H        0.87680    0.73300    0.43940    1.000
    N447     N        0.89440    0.81350    0.37450    1.000
    C975     C        0.89980    0.77650    0.36630    1.000
    H702     H        0.91660    0.77110    0.35450    1.000
    N448     N        0.88390    0.80200    0.36380    1.000
    C976     C        0.88400    0.71710    0.42290    1.000
    H703     H        0.86660    0.72590    0.43120    1.000
    H704     H        0.92760    0.78310    0.36570    1.000
    O353     O        0.81239    0.46934    0.64409    1.000
    O354     O        0.84830    0.46879    0.60851    1.000
    C977     C        0.82441    0.45927    0.61934    1.000
    C978     C        0.80823    0.43550    0.60341    1.000
    C979     C        0.77728    0.42820    0.60840    1.000
    H705     H        0.76700    0.43940    0.62320    1.000
    N449     N        0.68650    0.37450    0.60560    1.000
    C980     C        0.72350    0.36630    0.60020    1.000
    H706     H        0.72890    0.35450    0.58340    1.000
    N450     N        0.69800    0.36380    0.61610    1.000
    C981     C        0.78290    0.42290    0.61600    1.000
    H707     H        0.77410    0.43120    0.63340    1.000
    H708     H        0.71690    0.36570    0.57240    1.000
    O355     O        0.81239    0.96934    0.14409    1.000
    O356     O        0.84830    0.96879    0.10851    1.000
    C982     C        0.82441    0.95927    0.11934    1.000
    C983     C        0.80823    0.93550    0.10341    1.000
    C984     C        0.77728    0.92820    0.10840    1.000
    H709     H        0.76700    0.93940    0.12320    1.000
    N451     N        0.68650    0.87450    0.10560    1.000
    C985     C        0.72350    0.86630    0.10020    1.000
    H710     H        0.72890    0.85450    0.08340    1.000
    N452     N        0.69800    0.86380    0.11610    1.000
    C986     C        0.78290    0.92290    0.11600    1.000
    H711     H        0.77410    0.93120    0.13340    1.000
    H712     H        0.71690    0.86570    0.07240    1.000
    O357     O        0.31239    0.46934    0.14409    1.000
    O358     O        0.34830    0.46879    0.10851    1.000
    C987     C        0.32441    0.45927    0.11934    1.000
    C988     C        0.30823    0.43550    0.10341    1.000
    C989     C        0.27728    0.42820    0.10840    1.000
    H713     H        0.26700    0.43940    0.12320    1.000
    N453     N        0.18650    0.37450    0.10560    1.000
    C990     C        0.22350    0.36630    0.10020    1.000
    H714     H        0.22890    0.35450    0.08340    1.000
    N454     N        0.19800    0.36380    0.11610    1.000
    C991     C        0.28290    0.42290    0.11600    1.000
    H715     H        0.27410    0.43120    0.13340    1.000
    H716     H        0.21690    0.36570    0.07240    1.000
    O359     O        0.31239    0.96934    0.64409    1.000
    O360     O        0.34830    0.96879    0.60851    1.000
    C992     C        0.32441    0.95927    0.61934    1.000
    C993     C        0.30823    0.93550    0.60341    1.000
    C994     C        0.27728    0.92820    0.60840    1.000
    H717     H        0.26700    0.93940    0.62320    1.000
    N455     N        0.18650    0.87450    0.60560    1.000
    C995     C        0.22350    0.86630    0.60020    1.000
    H718     H        0.22890    0.85450    0.58340    1.000
    N456     N        0.19800    0.86380    0.61610    1.000
    C996     C        0.28290    0.92290    0.61600    1.000
    H719     H        0.27410    0.93120    0.63340    1.000
    H720     H        0.21690    0.86570    0.57240    1.000
    O361     O        0.81239    0.53066    0.35591    1.000
    O362     O        0.84830    0.53121    0.39149    1.000
    C997     C        0.82441    0.54073    0.38066    1.000
    C998     C        0.80823    0.56450    0.39659    1.000
    C999     C        0.77728    0.57180    0.39160    1.000
    H721     H        0.76700    0.56060    0.37680    1.000
    N457     N        0.68650    0.62550    0.39440    1.000
    C1000    C        0.72350    0.63370    0.39980    1.000
    H722     H        0.72890    0.64550    0.41660    1.000
    N458     N        0.69800    0.63620    0.38390    1.000
    C1001    C        0.78290    0.57710    0.38400    1.000
    H723     H        0.77410    0.56880    0.36660    1.000
    H724     H        0.71690    0.63430    0.42760    1.000
    O363     O        0.81239    0.03066    0.85591    1.000
    O364     O        0.84830    0.03121    0.89149    1.000
    C1002    C        0.82441    0.04073    0.88066    1.000
    C1003    C        0.80823    0.06450    0.89659    1.000
    C1004    C        0.77728    0.07180    0.89160    1.000
    H725     H        0.76700    0.06060    0.87680    1.000
    N459     N        0.68650    0.12550    0.89440    1.000
    C1005    C        0.72350    0.13370    0.89980    1.000
    H726     H        0.72890    0.14550    0.91660    1.000
    N460     N        0.69800    0.13620    0.88390    1.000
    C1006    C        0.78290    0.07710    0.88400    1.000
    H727     H        0.77410    0.06880    0.86660    1.000
    H728     H        0.71690    0.13430    0.92760    1.000
    O365     O        0.31239    0.53066    0.85591    1.000
    O366     O        0.34830    0.53121    0.89149    1.000
    C1007    C        0.32441    0.54073    0.88066    1.000
    C1008    C        0.30823    0.56450    0.89659    1.000
    C1009    C        0.27728    0.57180    0.89160    1.000
    H729     H        0.26700    0.56060    0.87680    1.000
    N461     N        0.18650    0.62550    0.89440    1.000
    C1010    C        0.22350    0.63370    0.89980    1.000
    H730     H        0.22890    0.64550    0.91660    1.000
    N462     N        0.19800    0.63620    0.88390    1.000
    C1011    C        0.28290    0.57710    0.88400    1.000
    H731     H        0.27410    0.56880    0.86660    1.000
    H732     H        0.21690    0.63430    0.92760    1.000
    O367     O        0.31239    0.03066    0.35591    1.000
    O368     O        0.34830    0.03121    0.39149    1.000
    C1012    C        0.32441    0.04073    0.38066    1.000
    C1013    C        0.30823    0.06450    0.39659    1.000
    C1014    C        0.27728    0.07180    0.39160    1.000
    H733     H        0.26700    0.06060    0.37680    1.000
    N463     N        0.18650    0.12550    0.39440    1.000
    C1015    C        0.22350    0.13370    0.39980    1.000
    H734     H        0.22890    0.14550    0.41660    1.000
    N464     N        0.19800    0.13620    0.38390    1.000
    C1016    C        0.28290    0.07710    0.38400    1.000
    H735     H        0.27410    0.06880    0.36660    1.000
    H736     H        0.21690    0.13430    0.42760    1.000
    O369     O        0.18761    0.46934    0.35591    1.000
    O370     O        0.15170    0.46879    0.39149    1.000
    C1017    C        0.17559    0.45927    0.38066    1.000
    C1018    C        0.19177    0.43550    0.39659    1.000
    C1019    C        0.22272    0.42820    0.39160    1.000
    H737     H        0.23300    0.43940    0.37680    1.000
    N465     N        0.31350    0.37450    0.39440    1.000
    C1020    C        0.27650    0.36630    0.39980    1.000
    H738     H        0.27110    0.35450    0.41660    1.000
    N466     N        0.30200    0.36380    0.38390    1.000
    C1021    C        0.21710    0.42290    0.38400    1.000
    H739     H        0.22590    0.43120    0.36660    1.000
    H740     H        0.28310    0.36570    0.42760    1.000
    O371     O        0.18761    0.96934    0.85591    1.000
    O372     O        0.15170    0.96879    0.89149    1.000
    C1022    C        0.17559    0.95927    0.88066    1.000
    C1023    C        0.19177    0.93550    0.89659    1.000
    C1024    C        0.22272    0.92820    0.89160    1.000
    H741     H        0.23300    0.93940    0.87680    1.000
    N467     N        0.31350    0.87450    0.89440    1.000
    C1025    C        0.27650    0.86630    0.89980    1.000
    H742     H        0.27110    0.85450    0.91660    1.000
    N468     N        0.30200    0.86380    0.88390    1.000
    C1026    C        0.21710    0.92290    0.88400    1.000
    H743     H        0.22590    0.93120    0.86660    1.000
    H744     H        0.28310    0.86570    0.92760    1.000
    O373     O        0.68761    0.46934    0.85591    1.000
    O374     O        0.65170    0.46879    0.89149    1.000
    C1027    C        0.67559    0.45927    0.88066    1.000
    C1028    C        0.69177    0.43550    0.89659    1.000
    C1029    C        0.72272    0.42820    0.89160    1.000
    H745     H        0.73300    0.43940    0.87680    1.000
    N469     N        0.81350    0.37450    0.89440    1.000
    C1030    C        0.77650    0.36630    0.89980    1.000
    H746     H        0.77110    0.35450    0.91660    1.000
    N470     N        0.80200    0.36380    0.88390    1.000
    C1031    C        0.71710    0.42290    0.88400    1.000
    H747     H        0.72590    0.43120    0.86660    1.000
    H748     H        0.78310    0.36570    0.92760    1.000
    O375     O        0.68761    0.96934    0.35591    1.000
    O376     O        0.65170    0.96879    0.39149    1.000
    C1032    C        0.67559    0.95927    0.38066    1.000
    C1033    C        0.69177    0.93550    0.39659    1.000
    C1034    C        0.72272    0.92820    0.39160    1.000
    H749     H        0.73300    0.93940    0.37680    1.000
    N471     N        0.81350    0.87450    0.39440    1.000
    C1035    C        0.77650    0.86630    0.39980    1.000
    H750     H        0.77110    0.85450    0.41660    1.000
    N472     N        0.80200    0.86380    0.38390    1.000
    C1036    C        0.71710    0.92290    0.38400    1.000
    H751     H        0.72590    0.93120    0.36660    1.000
    H752     H        0.78310    0.86570    0.42760    1.000
    O377     O        0.18761    0.53066    0.64409    1.000
    O378     O        0.15170    0.53121    0.60851    1.000
    C1037    C        0.17559    0.54073    0.61934    1.000
    C1038    C        0.19177    0.56450    0.60341    1.000
    C1039    C        0.22272    0.57180    0.60840    1.000
    H753     H        0.23300    0.56060    0.62320    1.000
    N473     N        0.31350    0.62550    0.60560    1.000
    C1040    C        0.27650    0.63370    0.60020    1.000
    H754     H        0.27110    0.64550    0.58340    1.000
    N474     N        0.30200    0.63620    0.61610    1.000
    C1041    C        0.21710    0.57710    0.61600    1.000
    H755     H        0.22590    0.56880    0.63340    1.000
    H756     H        0.28310    0.63430    0.57240    1.000
    O379     O        0.18761    0.03066    0.14409    1.000
    O380     O        0.15170    0.03121    0.10851    1.000
    C1042    C        0.17559    0.04073    0.11934    1.000
    C1043    C        0.19177    0.06450    0.10341    1.000
    C1044    C        0.22272    0.07180    0.10840    1.000
    H757     H        0.23300    0.06060    0.12320    1.000
    N475     N        0.31350    0.12550    0.10560    1.000
    C1045    C        0.27650    0.13370    0.10020    1.000
    H758     H        0.27110    0.14550    0.08340    1.000
    N476     N        0.30200    0.13620    0.11610    1.000
    C1046    C        0.21710    0.07710    0.11600    1.000
    H759     H        0.22590    0.06880    0.13340    1.000
    H760     H        0.28310    0.13430    0.07240    1.000
    O381     O        0.68761    0.53066    0.14409    1.000
    O382     O        0.65170    0.53121    0.10851    1.000
    C1047    C        0.67559    0.54073    0.11934    1.000
    C1048    C        0.69177    0.56450    0.10341    1.000
    C1049    C        0.72272    0.57180    0.10840    1.000
    H761     H        0.73300    0.56060    0.12320    1.000
    N477     N        0.81350    0.62550    0.10560    1.000
    C1050    C        0.77650    0.63370    0.10020    1.000
    H762     H        0.77110    0.64550    0.08340    1.000
    N478     N        0.80200    0.63620    0.11610    1.000
    C1051    C        0.71710    0.57710    0.11600    1.000
    H763     H        0.72590    0.56880    0.13340    1.000
    H764     H        0.78310    0.63430    0.07240    1.000
    O383     O        0.68761    0.03066    0.64409    1.000
    O384     O        0.65170    0.03121    0.60851    1.000
    C1052    C        0.67559    0.04073    0.61934    1.000
    C1053    C        0.69177    0.06450    0.60341    1.000
    C1054    C        0.72272    0.07180    0.60840    1.000
    H765     H        0.73300    0.06060    0.62320    1.000
    N479     N        0.81350    0.12550    0.60560    1.000
    C1055    C        0.77650    0.13370    0.60020    1.000
    H766     H        0.77110    0.14550    0.58340    1.000
    N480     N        0.80200    0.13620    0.61610    1.000
    C1056    C        0.71710    0.07710    0.61600    1.000
    H767     H        0.72590    0.06880    0.63340    1.000
    H768     H        0.78310    0.13430    0.57240    1.000
    Cu1      Cu       0.66919    0.50000    0.16919    1.000
    Cu2      Cu       0.62670    0.50000    0.12670    1.000
    Cu3      Cu       0.66919    0.00000    0.66919    1.000
    Cu4      Cu       0.62670    0.00000    0.62670    1.000
    Cu5      Cu       0.33081    0.50000    0.16919    1.000
    Cu6      Cu       0.37330    0.50000    0.12670    1.000
    Cu7      Cu       0.33081    0.00000    0.66919    1.000
    Cu8      Cu       0.37330    0.00000    0.62670    1.000
    Cu9      Cu       0.33081    0.50000    0.83081    1.000
    Cu10     Cu       0.37330    0.50000    0.87330    1.000
    Cu11     Cu       0.33081    0.00000    0.33081    1.000
    Cu12     Cu       0.37330    0.00000    0.37330    1.000
    Cu13     Cu       0.66919    0.50000    0.83081    1.000
    Cu14     Cu       0.62670    0.50000    0.87330    1.000
    Cu15     Cu       0.66919    0.00000    0.33081    1.000
    Cu16     Cu       0.62670    0.00000    0.37330    1.000
    Cu17     Cu       0.16919    0.66919    0.50000    1.000
    Cu18     Cu       0.12670    0.62670    0.50000    1.000
    Cu19     Cu       0.16919    0.16919    0.00000    1.000
    Cu20     Cu       0.12670    0.12670    0.00000    1.000
    Cu21     Cu       0.16919    0.33081    0.50000    1.000
    Cu22     Cu       0.12670    0.37330    0.50000    1.000
    Cu23     Cu       0.16919    0.83081    0.00000    1.000
    Cu24     Cu       0.12670    0.87330    0.00000    1.000
    Cu25     Cu       0.83081    0.33081    0.50000    1.000
    Cu26     Cu       0.87330    0.37330    0.50000    1.000
    Cu27     Cu       0.83081    0.83081    0.00000    1.000
    Cu28     Cu       0.87330    0.87330    0.00000    1.000
    Cu29     Cu       0.83081    0.66919    0.50000    1.000
    Cu30     Cu       0.87330    0.62670    0.50000    1.000
    Cu31     Cu       0.83081    0.16919    0.00000    1.000
    Cu32     Cu       0.87330    0.12670    0.00000    1.000
    Cu33     Cu       0.50000    0.16919    0.66919    1.000
    Cu34     Cu       0.50000    0.12670    0.62670    1.000
    Cu35     Cu       0.00000    0.16919    0.16919    1.000
    Cu36     Cu       0.00000    0.12670    0.12670    1.000
    Cu37     Cu       0.50000    0.16919    0.33081    1.000
    Cu38     Cu       0.50000    0.12670    0.37330    1.000
    Cu39     Cu       0.00000    0.16919    0.83081    1.000
    Cu40     Cu       0.00000    0.12670    0.87330    1.000
    Cu41     Cu       0.50000    0.83081    0.33081    1.000
    Cu42     Cu       0.50000    0.87330    0.37330    1.000
    Cu43     Cu       0.00000    0.83081    0.83081    1.000
    Cu44     Cu       0.00000    0.87330    0.87330    1.000
    Cu45     Cu       0.50000    0.83081    0.66919    1.000
    Cu46     Cu       0.50000    0.87330    0.62670    1.000
    Cu47     Cu       0.00000    0.83081    0.16919    1.000
    Cu48     Cu       0.00000    0.87330    0.12670    1.000
    Cu49     Cu       0.50000    0.66919    0.83081    1.000
    Cu50     Cu       0.50000    0.62670    0.87330    1.000
    Cu51     Cu       0.00000    0.66919    0.33081    1.000
    Cu52     Cu       0.00000    0.62670    0.37330    1.000
    Cu53     Cu       0.50000    0.33081    0.83081    1.000
    Cu54     Cu       0.50000    0.37330    0.87330    1.000
    Cu55     Cu       0.00000    0.33081    0.33081    1.000
    Cu56     Cu       0.00000    0.37330    0.37330    1.000
    Cu57     Cu       0.50000    0.33081    0.16919    1.000
    Cu58     Cu       0.50000    0.37330    0.12670    1.000
    Cu59     Cu       0.00000    0.33081    0.66919    1.000
    Cu60     Cu       0.00000    0.37330    0.62670    1.000
    Cu61     Cu       0.50000    0.66919    0.16919    1.000
    Cu62     Cu       0.50000    0.62670    0.12670    1.000
    Cu63     Cu       0.00000    0.66919    0.66919    1.000
    Cu64     Cu       0.00000    0.62670    0.62670    1.000
    Cu65     Cu       0.66919    0.16919    0.50000    1.000
    Cu66     Cu       0.62670    0.12670    0.50000    1.000
    Cu67     Cu       0.66919    0.66919    0.00000    1.000
    Cu68     Cu       0.62670    0.62670    0.00000    1.000
    Cu69     Cu       0.33081    0.16919    0.50000    1.000
    Cu70     Cu       0.37330    0.12670    0.50000    1.000
    Cu71     Cu       0.33081    0.66919    0.00000    1.000
    Cu72     Cu       0.37330    0.62670    0.00000    1.000
    Cu73     Cu       0.33081    0.83081    0.50000    1.000
    Cu74     Cu       0.37330    0.87330    0.50000    1.000
    Cu75     Cu       0.33081    0.33081    0.00000    1.000
    Cu76     Cu       0.37330    0.37330    0.00000    1.000
    Cu77     Cu       0.66919    0.83081    0.50000    1.000
    Cu78     Cu       0.62670    0.87330    0.50000    1.000
    Cu79     Cu       0.66919    0.33081    0.00000    1.000
    Cu80     Cu       0.62670    0.37330    0.00000    1.000
    Cu81     Cu       0.16919    0.50000    0.33081    1.000
    Cu82     Cu       0.12670    0.50000    0.37330    1.000
    Cu83     Cu       0.16919    0.00000    0.83081    1.000
    Cu84     Cu       0.12670    0.00000    0.87330    1.000
    Cu85     Cu       0.16919    0.50000    0.66919    1.000
    Cu86     Cu       0.12670    0.50000    0.62670    1.000
    Cu87     Cu       0.16919    0.00000    0.16919    1.000
    Cu88     Cu       0.12670    0.00000    0.12670    1.000
    Cu89     Cu       0.83081    0.50000    0.66919    1.000
    Cu90     Cu       0.87330    0.50000    0.62670    1.000
    Cu91     Cu       0.83081    0.00000    0.16919    1.000
    Cu92     Cu       0.87330    0.00000    0.12670    1.000
    Cu93     Cu       0.83081    0.50000    0.33081    1.000
    Cu94     Cu       0.87330    0.50000    0.37330    1.000
    Cu95     Cu       0.83081    0.00000    0.83081    1.000
    Cu96     Cu       0.87330    0.00000    0.87330    1.000
    O385     O        0.70800    0.50000    0.19950    1.000
    O386     O        0.70800    0.00000    0.69950    1.000
    O387     O        0.20800    0.50000    0.69950    1.000
    O388     O        0.20800    0.00000    0.19950    1.000
    O389     O        0.29200    0.50000    0.19950    1.000
    O390     O        0.29200    0.00000    0.69950    1.000
    O391     O        0.79200    0.50000    0.69950    1.000
    O392     O        0.79200    0.00000    0.19950    1.000
    O393     O        0.29200    0.50000    0.80050    1.000
    O394     O        0.29200    0.00000    0.30050    1.000
    O395     O        0.79200    0.50000    0.30050    1.000
    O396     O        0.79200    0.00000    0.80050    1.000
    O397     O        0.70800    0.50000    0.80050    1.000
    O398     O        0.70800    0.00000    0.30050    1.000
    O399     O        0.20800    0.50000    0.30050    1.000
    O400     O        0.20800    0.00000    0.80050    1.000
    O401     O        0.19950    0.70800    0.50000    1.000
    O402     O        0.19950    0.20800    0.00000    1.000
    O403     O        0.69950    0.70800    0.00000    1.000
    O404     O        0.69950    0.20800    0.50000    1.000
    O405     O        0.19950    0.29200    0.50000    1.000
    O406     O        0.19950    0.79200    0.00000    1.000
    O407     O        0.69950    0.29200    0.00000    1.000
    O408     O        0.69950    0.79200    0.50000    1.000
    O409     O        0.80050    0.29200    0.50000    1.000
    O410     O        0.80050    0.79200    0.00000    1.000
    O411     O        0.30050    0.29200    0.00000    1.000
    O412     O        0.30050    0.79200    0.50000    1.000
    O413     O        0.80050    0.70800    0.50000    1.000
    O414     O        0.80050    0.20800    0.00000    1.000
    O415     O        0.30050    0.70800    0.00000    1.000
    O416     O        0.30050    0.20800    0.50000    1.000
    O417     O        0.50000    0.19950    0.70800    1.000
    O418     O        0.50000    0.69950    0.20800    1.000
    O419     O        0.00000    0.19950    0.20800    1.000
    O420     O        0.00000    0.69950    0.70800    1.000
    O421     O        0.50000    0.19950    0.29200    1.000
    O422     O        0.50000    0.69950    0.79200    1.000
    O423     O        0.00000    0.19950    0.79200    1.000
    O424     O        0.00000    0.69950    0.29200    1.000
    O425     O        0.50000    0.80050    0.29200    1.000
    O426     O        0.50000    0.30050    0.79200    1.000
    O427     O        0.00000    0.80050    0.79200    1.000
    O428     O        0.00000    0.30050    0.29200    1.000
    O429     O        0.50000    0.80050    0.70800    1.000
    O430     O        0.50000    0.30050    0.20800    1.000
    O431     O        0.00000    0.80050    0.20800    1.000
    O432     O        0.00000    0.30050    0.70800    1.000
    O433     O        0.50000    0.70800    0.80050    1.000
    O434     O        0.50000    0.20800    0.30050    1.000
    O435     O        0.00000    0.70800    0.30050    1.000
    O436     O        0.00000    0.20800    0.80050    1.000
    O437     O        0.50000    0.29200    0.80050    1.000
    O438     O        0.50000    0.79200    0.30050    1.000
    O439     O        0.00000    0.29200    0.30050    1.000
    O440     O        0.00000    0.79200    0.80050    1.000
    O441     O        0.50000    0.29200    0.19950    1.000
    O442     O        0.50000    0.79200    0.69950    1.000
    O443     O        0.00000    0.29200    0.69950    1.000
    O444     O        0.00000    0.79200    0.19950    1.000
    O445     O        0.50000    0.70800    0.19950    1.000
    O446     O        0.50000    0.20800    0.69950    1.000
    O447     O        0.00000    0.70800    0.69950    1.000
    O448     O        0.00000    0.20800    0.19950    1.000
    O449     O        0.70800    0.19950    0.50000    1.000
    O450     O        0.70800    0.69950    0.00000    1.000
    O451     O        0.20800    0.19950    0.00000    1.000
    O452     O        0.20800    0.69950    0.50000    1.000
    O453     O        0.29200    0.19950    0.50000    1.000
    O454     O        0.29200    0.69950    0.00000    1.000
    O455     O        0.79200    0.19950    0.00000    1.000
    O456     O        0.79200    0.69950    0.50000    1.000
    O457     O        0.29200    0.80050    0.50000    1.000
    O458     O        0.29200    0.30050    0.00000    1.000
    O459     O        0.79200    0.80050    0.00000    1.000
    O460     O        0.79200    0.30050    0.50000    1.000
    O461     O        0.70800    0.80050    0.50000    1.000
    O462     O        0.70800    0.30050    0.00000    1.000
    O463     O        0.20800    0.80050    0.00000    1.000
    O464     O        0.20800    0.30050    0.50000    1.000
    O465     O        0.19950    0.50000    0.29200    1.000
    O466     O        0.19950    0.00000    0.79200    1.000
    O467     O        0.69950    0.50000    0.79200    1.000
    O468     O        0.69950    0.00000    0.29200    1.000
    O469     O        0.19950    0.50000    0.70800    1.000
    O470     O        0.19950    0.00000    0.20800    1.000
    O471     O        0.69950    0.50000    0.20800    1.000
    O472     O        0.69950    0.00000    0.70800    1.000
    O473     O        0.80050    0.50000    0.70800    1.000
    O474     O        0.80050    0.00000    0.20800    1.000
    O475     O        0.30050    0.50000    0.20800    1.000
    O476     O        0.30050    0.00000    0.70800    1.000
    O477     O        0.80050    0.50000    0.29200    1.000
    O478     O        0.80050    0.00000    0.79200    1.000
    O479     O        0.30050    0.50000    0.79200    1.000
    O480     O        0.30050    0.00000    0.29200    1.000
    O481     O        0.59169    0.50782    0.09169    1.000
    O482     O        0.59169    0.00782    0.59169    1.000
    O483     O        0.40831    0.49218    0.09169    1.000
    O484     O        0.40831    0.99218    0.59169    1.000
    O485     O        0.90831    0.49218    0.59169    1.000
    O486     O        0.40831    0.50782    0.90831    1.000
    O487     O        0.40831    0.00782    0.40831    1.000
    O488     O        0.90831    0.00782    0.90831    1.000
    O489     O        0.59169    0.49218    0.90831    1.000
    O490     O        0.59169    0.99218    0.40831    1.000
    O491     O        0.09169    0.59169    0.50782    1.000
    O492     O        0.09169    0.09169    0.00782    1.000
    O493     O        0.59169    0.59169    0.00782    1.000
    O494     O        0.09169    0.40831    0.49218    1.000
    O495     O        0.09169    0.90831    0.99218    1.000
    O496     O        0.59169    0.90831    0.49218    1.000
    O497     O        0.90831    0.40831    0.50782    1.000
    O498     O        0.90831    0.90831    0.00782    1.000
    O499     O        0.90831    0.59169    0.49218    1.000
    O500     O        0.90831    0.09169    0.99218    1.000
    O501     O        0.50782    0.09169    0.59169    1.000
    O502     O        0.00782    0.09169    0.09169    1.000
    O503     O        0.00782    0.59169    0.59169    1.000
    O504     O        0.49218    0.09169    0.40831    1.000
    O505     O        0.49218    0.59169    0.90831    1.000
    O506     O        0.99218    0.09169    0.90831    1.000
    O507     O        0.50782    0.90831    0.40831    1.000
    O508     O        0.00782    0.90831    0.90831    1.000
    O509     O        0.49218    0.90831    0.59169    1.000
    O510     O        0.99218    0.90831    0.09169    1.000
    O511     O        0.50782    0.59169    0.90831    1.000
    O512     O        0.00782    0.59169    0.40831    1.000
    O513     O        0.49218    0.40831    0.90831    1.000
    O514     O        0.99218    0.40831    0.40831    1.000
    O515     O        0.99218    0.90831    0.90831    1.000
    O516     O        0.50782    0.40831    0.09169    1.000
    O517     O        0.50782    0.90831    0.59169    1.000
    O518     O        0.00782    0.40831    0.59169    1.000
    O519     O        0.49218    0.59169    0.09169    1.000
    O520     O        0.99218    0.59169    0.59169    1.000
    O521     O        0.59169    0.09169    0.49218    1.000
    O522     O        0.59169    0.59169    0.99218    1.000
    O523     O        0.40831    0.09169    0.50782    1.000
    O524     O        0.40831    0.59169    0.00782    1.000
    O525     O        0.90831    0.59169    0.50782    1.000
    O526     O        0.40831    0.90831    0.49218    1.000
    O527     O        0.40831    0.40831    0.99218    1.000
    O528     O        0.90831    0.90831    0.99218    1.000
    O529     O        0.59169    0.90831    0.50782    1.000
    O530     O        0.59169    0.40831    0.00782    1.000
    O531     O        0.09169    0.50782    0.40831    1.000
    O532     O        0.09169    0.00782    0.90831    1.000
    O533     O        0.59169    0.50782    0.90831    1.000
    O534     O        0.09169    0.49218    0.59169    1.000
    O535     O        0.09169    0.99218    0.09169    1.000
    O536     O        0.59169    0.99218    0.59169    1.000
    O537     O        0.90831    0.50782    0.59169    1.000
    O538     O        0.90831    0.00782    0.09169    1.000
    O539     O        0.90831    0.49218    0.40831    1.000
    O540     O        0.90831    0.99218    0.90831    1.000
    O541     O        0.40831    0.49218    0.90831    1.000
    O542     O        0.40831    0.99218    0.40831    1.000
    O543     O        0.59169    0.00782    0.40831    1.000
    O544     O        0.59169    0.49218    0.09169    1.000
    O545     O        0.40831    0.50782    0.09169    1.000
    O546     O        0.40831    0.00782    0.59169    1.000
    O547     O        0.90831    0.40831    0.49218    1.000
    O548     O        0.90831    0.09169    0.00782    1.000
    O549     O        0.09169    0.59169    0.49218    1.000
    O550     O        0.09169    0.09169    0.99218    1.000
    O551     O        0.09169    0.40831    0.50782    1.000
    O552     O        0.09169    0.90831    0.00782    1.000
    O553     O        0.49218    0.90831    0.40831    1.000
    O554     O        0.00782    0.90831    0.09169    1.000
    O555     O        0.49218    0.09169    0.59169    1.000
    O556     O        0.99218    0.09169    0.09169    1.000
    O557     O        0.50782    0.09169    0.40831    1.000
    O558     O        0.00782    0.09169    0.90831    1.000
    O559     O        0.49218    0.40831    0.09169    1.000
    O560     O        0.99218    0.40831    0.59169    1.000
    O561     O        0.50782    0.59169    0.09169    1.000
    O562     O        0.99218    0.59169    0.40831    1.000
    O563     O        0.50782    0.40831    0.90831    1.000
    O564     O        0.00782    0.40831    0.40831    1.000
    O565     O        0.40831    0.90831    0.50782    1.000
    O566     O        0.40831    0.40831    0.00782    1.000
    O567     O        0.59169    0.40831    0.99218    1.000
    O568     O        0.59169    0.09169    0.50782    1.000
    O569     O        0.40831    0.09169    0.49218    1.000
    O570     O        0.40831    0.59169    0.99218    1.000
    O571     O        0.90831    0.99218    0.09169    1.000
    O572     O        0.90831    0.50782    0.40831    1.000
    O573     O        0.09169    0.49218    0.40831    1.000
    O574     O        0.09169    0.99218    0.90831    1.000
    O575     O        0.09169    0.50782    0.59169    1.000
    O576     O        0.09169    0.00782    0.09169    1.000
    C1057    C        0.57905    0.57905    0.17714    1.000
    H769     H        0.57260    0.57260    0.15800    1.000
    C1058    C        0.59370    0.59370    0.23900    1.000
    C1059    C        0.60250    0.60250    0.27090    1.000
    C1060    C        0.60250    0.60250    0.22920    1.000
    C1061    C        0.61200    0.61200    0.26040    1.000
    C1062    C        0.57905    0.07905    0.67714    1.000
    H770     H        0.57260    0.07260    0.65800    1.000
    C1063    C        0.59370    0.09370    0.73900    1.000
    C1064    C        0.60250    0.10250    0.77090    1.000
    C1065    C        0.60250    0.10250    0.72920    1.000
    C1066    C        0.61200    0.11200    0.76040    1.000
    C1067    C        0.07905    0.57905    0.67714    1.000
    H771     H        0.07260    0.57260    0.65800    1.000
    C1068    C        0.09370    0.59370    0.73900    1.000
    C1069    C        0.10250    0.60250    0.77090    1.000
    C1070    C        0.10250    0.60250    0.72920    1.000
    C1071    C        0.11200    0.61200    0.76040    1.000
    C1072    C        0.07905    0.07905    0.17714    1.000
    H772     H        0.07260    0.07260    0.15800    1.000
    C1073    C        0.09370    0.09370    0.23900    1.000
    C1074    C        0.10250    0.10250    0.27090    1.000
    C1075    C        0.10250    0.10250    0.22920    1.000
    C1076    C        0.11200    0.11200    0.26040    1.000
    C1077    C        0.42095    0.42095    0.17714    1.000
    H773     H        0.42740    0.42740    0.15800    1.000
    C1078    C        0.40630    0.40630    0.23900    1.000
    C1079    C        0.39750    0.39750    0.27090    1.000
    C1080    C        0.39750    0.39750    0.22920    1.000
    C1081    C        0.38800    0.38800    0.26040    1.000
    C1082    C        0.42095    0.92095    0.67714    1.000
    H774     H        0.42740    0.92740    0.65800    1.000
    C1083    C        0.40630    0.90630    0.73900    1.000
    C1084    C        0.39750    0.89750    0.77090    1.000
    C1085    C        0.39750    0.89750    0.72920    1.000
    C1086    C        0.38800    0.88800    0.76040    1.000
    C1087    C        0.92095    0.42095    0.67714    1.000
    H775     H        0.92740    0.42740    0.65800    1.000
    C1088    C        0.90630    0.40630    0.73900    1.000
    C1089    C        0.89750    0.39750    0.77090    1.000
    C1090    C        0.89750    0.39750    0.72920    1.000
    C1091    C        0.88800    0.38800    0.76040    1.000
    C1092    C        0.92095    0.92095    0.17714    1.000
    H776     H        0.92740    0.92740    0.15800    1.000
    C1093    C        0.90630    0.90630    0.23900    1.000
    C1094    C        0.89750    0.89750    0.27090    1.000
    C1095    C        0.89750    0.89750    0.22920    1.000
    C1096    C        0.88800    0.88800    0.26040    1.000
    C1097    C        0.42095    0.57905    0.82286    1.000
    H777     H        0.42740    0.57260    0.84200    1.000
    C1098    C        0.40630    0.59370    0.76100    1.000
    C1099    C        0.39750    0.60250    0.72910    1.000
    C1100    C        0.39750    0.60250    0.77080    1.000
    C1101    C        0.38800    0.61200    0.73960    1.000
    C1102    C        0.42095    0.07905    0.32286    1.000
    H778     H        0.42740    0.07260    0.34200    1.000
    C1103    C        0.40630    0.09370    0.26100    1.000
    C1104    C        0.39750    0.10250    0.22910    1.000
    C1105    C        0.39750    0.10250    0.27080    1.000
    C1106    C        0.38800    0.11200    0.23960    1.000
    C1107    C        0.92095    0.57905    0.32286    1.000
    H779     H        0.92740    0.57260    0.34200    1.000
    C1108    C        0.90630    0.59370    0.26100    1.000
    C1109    C        0.89750    0.60250    0.22910    1.000
    C1110    C        0.89750    0.60250    0.27080    1.000
    C1111    C        0.88800    0.61200    0.23960    1.000
    C1112    C        0.92095    0.07905    0.82286    1.000
    H780     H        0.92740    0.07260    0.84200    1.000
    C1113    C        0.90630    0.09370    0.76100    1.000
    C1114    C        0.89750    0.10250    0.72910    1.000
    C1115    C        0.89750    0.10250    0.77080    1.000
    C1116    C        0.88800    0.11200    0.73960    1.000
    C1117    C        0.57905    0.42095    0.82286    1.000
    H781     H        0.57260    0.42740    0.84200    1.000
    C1118    C        0.59370    0.40630    0.76100    1.000
    C1119    C        0.60250    0.39750    0.72910    1.000
    C1120    C        0.60250    0.39750    0.77080    1.000
    C1121    C        0.61200    0.38800    0.73960    1.000
    C1122    C        0.57905    0.92095    0.32286    1.000
    H782     H        0.57260    0.92740    0.34200    1.000
    C1123    C        0.59370    0.90630    0.26100    1.000
    C1124    C        0.60250    0.89750    0.22910    1.000
    C1125    C        0.60250    0.89750    0.27080    1.000
    C1126    C        0.61200    0.88800    0.23960    1.000
    C1127    C        0.07905    0.42095    0.32286    1.000
    H783     H        0.07260    0.42740    0.34200    1.000
    C1128    C        0.09370    0.40630    0.26100    1.000
    C1129    C        0.10250    0.39750    0.22910    1.000
    C1130    C        0.10250    0.39750    0.27080    1.000
    C1131    C        0.11200    0.38800    0.23960    1.000
    C1132    C        0.07905    0.92095    0.82286    1.000
    H784     H        0.07260    0.92740    0.84200    1.000
    C1133    C        0.09370    0.90630    0.76100    1.000
    C1134    C        0.10250    0.89750    0.72910    1.000
    C1135    C        0.10250    0.89750    0.77080    1.000
    C1136    C        0.11200    0.88800    0.73960    1.000
    C1137    C        0.17714    0.57905    0.57905    1.000
    H785     H        0.15800    0.57260    0.57260    1.000
    C1138    C        0.23900    0.59370    0.59370    1.000
    C1139    C        0.27090    0.60250    0.60250    1.000
    C1140    C        0.22920    0.60250    0.60250    1.000
    C1141    C        0.26040    0.61200    0.61200    1.000
    C1142    C        0.17714    0.07905    0.07905    1.000
    H786     H        0.15800    0.07260    0.07260    1.000
    C1143    C        0.23900    0.09370    0.09370    1.000
    C1144    C        0.27090    0.10250    0.10250    1.000
    C1145    C        0.22920    0.10250    0.10250    1.000
    C1146    C        0.26040    0.11200    0.11200    1.000
    C1147    C        0.67714    0.57905    0.07905    1.000
    H787     H        0.65800    0.57260    0.07260    1.000
    C1148    C        0.73900    0.59370    0.09370    1.000
    C1149    C        0.77090    0.60250    0.10250    1.000
    C1150    C        0.72920    0.60250    0.10250    1.000
    C1151    C        0.76040    0.61200    0.11200    1.000
    C1152    C        0.67714    0.07905    0.57905    1.000
    H788     H        0.65800    0.07260    0.57260    1.000
    C1153    C        0.73900    0.09370    0.59370    1.000
    C1154    C        0.77090    0.10250    0.60250    1.000
    C1155    C        0.72920    0.10250    0.60250    1.000
    C1156    C        0.76040    0.11200    0.61200    1.000
    C1157    C        0.17714    0.42095    0.42095    1.000
    H789     H        0.15800    0.42740    0.42740    1.000
    C1158    C        0.23900    0.40630    0.40630    1.000
    C1159    C        0.27090    0.39750    0.39750    1.000
    C1160    C        0.22920    0.39750    0.39750    1.000
    C1161    C        0.26040    0.38800    0.38800    1.000
    C1162    C        0.17714    0.92095    0.92095    1.000
    H790     H        0.15800    0.92740    0.92740    1.000
    C1163    C        0.23900    0.90630    0.90630    1.000
    C1164    C        0.27090    0.89750    0.89750    1.000
    C1165    C        0.22920    0.89750    0.89750    1.000
    C1166    C        0.26040    0.88800    0.88800    1.000
    C1167    C        0.67714    0.42095    0.92095    1.000
    H791     H        0.65800    0.42740    0.92740    1.000
    C1168    C        0.73900    0.40630    0.90630    1.000
    C1169    C        0.77090    0.39750    0.89750    1.000
    C1170    C        0.72920    0.39750    0.89750    1.000
    C1171    C        0.76040    0.38800    0.88800    1.000
    C1172    C        0.67714    0.92095    0.42095    1.000
    H792     H        0.65800    0.92740    0.42740    1.000
    C1173    C        0.73900    0.90630    0.40630    1.000
    C1174    C        0.77090    0.89750    0.39750    1.000
    C1175    C        0.72920    0.89750    0.39750    1.000
    C1176    C        0.76040    0.88800    0.38800    1.000
    C1177    C        0.82286    0.42095    0.57905    1.000
    H793     H        0.84200    0.42740    0.57260    1.000
    C1178    C        0.76100    0.40630    0.59370    1.000
    C1179    C        0.72910    0.39750    0.60250    1.000
    C1180    C        0.77080    0.39750    0.60250    1.000
    C1181    C        0.73960    0.38800    0.61200    1.000
    C1182    C        0.82286    0.92095    0.07905    1.000
    H794     H        0.84200    0.92740    0.07260    1.000
    C1183    C        0.76100    0.90630    0.09370    1.000
    C1184    C        0.72910    0.89750    0.10250    1.000
    C1185    C        0.77080    0.89750    0.10250    1.000
    C1186    C        0.73960    0.88800    0.11200    1.000
    C1187    C        0.32286    0.42095    0.07905    1.000
    H795     H        0.34200    0.42740    0.07260    1.000
    C1188    C        0.26100    0.40630    0.09370    1.000
    C1189    C        0.22910    0.39750    0.10250    1.000
    C1190    C        0.27080    0.39750    0.10250    1.000
    C1191    C        0.23960    0.38800    0.11200    1.000
    C1192    C        0.32286    0.92095    0.57905    1.000
    H796     H        0.34200    0.92740    0.57260    1.000
    C1193    C        0.26100    0.90630    0.59370    1.000
    C1194    C        0.22910    0.89750    0.60250    1.000
    C1195    C        0.27080    0.89750    0.60250    1.000
    C1196    C        0.23960    0.88800    0.61200    1.000
    C1197    C        0.82286    0.57905    0.42095    1.000
    H797     H        0.84200    0.57260    0.42740    1.000
    C1198    C        0.76100    0.59370    0.40630    1.000
    C1199    C        0.72910    0.60250    0.39750    1.000
    C1200    C        0.77080    0.60250    0.39750    1.000
    C1201    C        0.73960    0.61200    0.38800    1.000
    C1202    C        0.82286    0.07905    0.92095    1.000
    H798     H        0.84200    0.07260    0.92740    1.000
    C1203    C        0.76100    0.09370    0.90630    1.000
    C1204    C        0.72910    0.10250    0.89750    1.000
    C1205    C        0.77080    0.10250    0.89750    1.000
    C1206    C        0.73960    0.11200    0.88800    1.000
    C1207    C        0.32286    0.57905    0.92095    1.000
    H799     H        0.34200    0.57260    0.92740    1.000
    C1208    C        0.26100    0.59370    0.90630    1.000
    C1209    C        0.22910    0.60250    0.89750    1.000
    C1210    C        0.27080    0.60250    0.89750    1.000
    C1211    C        0.23960    0.61200    0.88800    1.000
    C1212    C        0.32286    0.07905    0.42095    1.000
    H800     H        0.34200    0.07260    0.42740    1.000
    C1213    C        0.26100    0.09370    0.40630    1.000
    C1214    C        0.22910    0.10250    0.39750    1.000
    C1215    C        0.27080    0.10250    0.39750    1.000
    C1216    C        0.23960    0.11200    0.38800    1.000
    C1217    C        0.57905    0.17714    0.57905    1.000
    H801     H        0.57260    0.15800    0.57260    1.000
    C1218    C        0.59370    0.23900    0.59370    1.000
    C1219    C        0.60250    0.27090    0.60250    1.000
    C1220    C        0.60250    0.22920    0.60250    1.000
    C1221    C        0.61200    0.26040    0.61200    1.000
    C1222    C        0.57905    0.67714    0.07905    1.000
    H802     H        0.57260    0.65800    0.07260    1.000
    C1223    C        0.59370    0.73900    0.09370    1.000
    C1224    C        0.60250    0.77090    0.10250    1.000
    C1225    C        0.60250    0.72920    0.10250    1.000
    C1226    C        0.61200    0.76040    0.11200    1.000
    C1227    C        0.07905    0.17714    0.07905    1.000
    H803     H        0.07260    0.15800    0.07260    1.000
    C1228    C        0.09370    0.23900    0.09370    1.000
    C1229    C        0.10250    0.27090    0.10250    1.000
    C1230    C        0.10250    0.22920    0.10250    1.000
    C1231    C        0.11200    0.26040    0.11200    1.000
    C1232    C        0.07905    0.67714    0.57905    1.000
    H804     H        0.07260    0.65800    0.57260    1.000
    C1233    C        0.09370    0.73900    0.59370    1.000
    C1234    C        0.10250    0.77090    0.60250    1.000
    C1235    C        0.10250    0.72920    0.60250    1.000
    C1236    C        0.11200    0.76040    0.61200    1.000
    C1237    C        0.42095    0.17714    0.42095    1.000
    H805     H        0.42740    0.15800    0.42740    1.000
    C1238    C        0.40630    0.23900    0.40630    1.000
    C1239    C        0.39750    0.27090    0.39750    1.000
    C1240    C        0.39750    0.22920    0.39750    1.000
    C1241    C        0.38800    0.26040    0.38800    1.000
    C1242    C        0.42095    0.67714    0.92095    1.000
    H806     H        0.42740    0.65800    0.92740    1.000
    C1243    C        0.40630    0.73900    0.90630    1.000
    C1244    C        0.39750    0.77090    0.89750    1.000
    C1245    C        0.39750    0.72920    0.89750    1.000
    C1246    C        0.38800    0.76040    0.88800    1.000
    C1247    C        0.92095    0.17714    0.92095    1.000
    H807     H        0.92740    0.15800    0.92740    1.000
    C1248    C        0.90630    0.23900    0.90630    1.000
    C1249    C        0.89750    0.27090    0.89750    1.000
    C1250    C        0.89750    0.22920    0.89750    1.000
    C1251    C        0.88800    0.26040    0.88800    1.000
    C1252    C        0.92095    0.67714    0.42095    1.000
    H808     H        0.92740    0.65800    0.42740    1.000
    C1253    C        0.90630    0.73900    0.40630    1.000
    C1254    C        0.89750    0.77090    0.39750    1.000
    C1255    C        0.89750    0.72920    0.39750    1.000
    C1256    C        0.88800    0.76040    0.38800    1.000
    C1257    C        0.57905    0.82286    0.42095    1.000
    H809     H        0.57260    0.84200    0.42740    1.000
    C1258    C        0.59370    0.76100    0.40630    1.000
    C1259    C        0.60250    0.72910    0.39750    1.000
    C1260    C        0.60250    0.77080    0.39750    1.000
    C1261    C        0.61200    0.73960    0.38800    1.000
    C1262    C        0.57905    0.32286    0.92095    1.000
    H810     H        0.57260    0.34200    0.92740    1.000
    C1263    C        0.59370    0.26100    0.90630    1.000
    C1264    C        0.60250    0.22910    0.89750    1.000
    C1265    C        0.60250    0.27080    0.89750    1.000
    C1266    C        0.61200    0.23960    0.88800    1.000
    C1267    C        0.07905    0.82286    0.92095    1.000
    H811     H        0.07260    0.84200    0.92740    1.000
    C1268    C        0.09370    0.76100    0.90630    1.000
    C1269    C        0.10250    0.72910    0.89750    1.000
    C1270    C        0.10250    0.77080    0.89750    1.000
    C1271    C        0.11200    0.73960    0.88800    1.000
    C1272    C        0.07905    0.32286    0.42095    1.000
    H812     H        0.07260    0.34200    0.42740    1.000
    C1273    C        0.09370    0.26100    0.40630    1.000
    C1274    C        0.10250    0.22910    0.39750    1.000
    C1275    C        0.10250    0.27080    0.39750    1.000
    C1276    C        0.11200    0.23960    0.38800    1.000
    C1277    C        0.42095    0.82286    0.57905    1.000
    H813     H        0.42740    0.84200    0.57260    1.000
    C1278    C        0.40630    0.76100    0.59370    1.000
    C1279    C        0.39750    0.72910    0.60250    1.000
    C1280    C        0.39750    0.77080    0.60250    1.000
    C1281    C        0.38800    0.73960    0.61200    1.000
    C1282    C        0.42095    0.32286    0.07905    1.000
    H814     H        0.42740    0.34200    0.07260    1.000
    C1283    C        0.40630    0.26100    0.09370    1.000
    C1284    C        0.39750    0.22910    0.10250    1.000
    C1285    C        0.39750    0.27080    0.10250    1.000
    C1286    C        0.38800    0.23960    0.11200    1.000
    C1287    C        0.92095    0.82286    0.07905    1.000
    H815     H        0.92740    0.84200    0.07260    1.000
    C1288    C        0.90630    0.76100    0.09370    1.000
    C1289    C        0.89750    0.72910    0.10250    1.000
    C1290    C        0.89750    0.77080    0.10250    1.000
    C1291    C        0.88800    0.73960    0.11200    1.000
    C1292    C        0.92095    0.32286    0.57905    1.000
    H816     H        0.92740    0.34200    0.57260    1.000
    C1293    C        0.90630    0.26100    0.59370    1.000
    C1294    C        0.89750    0.22910    0.60250    1.000
    C1295    C        0.89750    0.27080    0.60250    1.000
    C1296    C        0.88800    0.23960    0.61200    1.000
    C1297    C        0.57905    0.57905    0.82286    1.000
    H817     H        0.57260    0.57260    0.84200    1.000
    C1298    C        0.59370    0.59370    0.76100    1.000
    C1299    C        0.60250    0.60250    0.72910    1.000
    C1300    C        0.60250    0.60250    0.77080    1.000
    C1301    C        0.61200    0.61200    0.73960    1.000
    C1302    C        0.57905    0.07905    0.32286    1.000
    H818     H        0.57260    0.07260    0.34200    1.000
    C1303    C        0.59370    0.09370    0.26100    1.000
    C1304    C        0.60250    0.10250    0.22910    1.000
    C1305    C        0.60250    0.10250    0.27080    1.000
    C1306    C        0.61200    0.11200    0.23960    1.000
    C1307    C        0.07905    0.57905    0.32286    1.000
    H819     H        0.07260    0.57260    0.34200    1.000
    C1308    C        0.09370    0.59370    0.26100    1.000
    C1309    C        0.10250    0.60250    0.22910    1.000
    C1310    C        0.10250    0.60250    0.27080    1.000
    C1311    C        0.11200    0.61200    0.23960    1.000
    C1312    C        0.07905    0.07905    0.82286    1.000
    H820     H        0.07260    0.07260    0.84200    1.000
    C1313    C        0.09370    0.09370    0.76100    1.000
    C1314    C        0.10250    0.10250    0.72910    1.000
    C1315    C        0.10250    0.10250    0.77080    1.000
    C1316    C        0.11200    0.11200    0.73960    1.000
    C1317    C        0.42095    0.42095    0.82286    1.000
    H821     H        0.42740    0.42740    0.84200    1.000
    C1318    C        0.40630    0.40630    0.76100    1.000
    C1319    C        0.39750    0.39750    0.72910    1.000
    C1320    C        0.39750    0.39750    0.77080    1.000
    C1321    C        0.38800    0.38800    0.73960    1.000
    C1322    C        0.42095    0.92095    0.32286    1.000
    H822     H        0.42740    0.92740    0.34200    1.000
    C1323    C        0.40630    0.90630    0.26100    1.000
    C1324    C        0.39750    0.89750    0.22910    1.000
    C1325    C        0.39750    0.89750    0.27080    1.000
    C1326    C        0.38800    0.88800    0.23960    1.000
    C1327    C        0.92095    0.42095    0.32286    1.000
    H823     H        0.92740    0.42740    0.34200    1.000
    C1328    C        0.90630    0.40630    0.26100    1.000
    C1329    C        0.89750    0.39750    0.22910    1.000
    C1330    C        0.89750    0.39750    0.27080    1.000
    C1331    C        0.88800    0.38800    0.23960    1.000
    C1332    C        0.92095    0.92095    0.82286    1.000
    H824     H        0.92740    0.92740    0.84200    1.000
    C1333    C        0.90630    0.90630    0.76100    1.000
    C1334    C        0.89750    0.89750    0.72910    1.000
    C1335    C        0.89750    0.89750    0.77080    1.000
    C1336    C        0.88800    0.88800    0.73960    1.000
    C1337    C        0.57905    0.42095    0.17714    1.000
    H825     H        0.57260    0.42740    0.15800    1.000
    C1338    C        0.59370    0.40630    0.23900    1.000
    C1339    C        0.60250    0.39750    0.27090    1.000
    C1340    C        0.60250    0.39750    0.22920    1.000
    C1341    C        0.61200    0.38800    0.26040    1.000
    C1342    C        0.57905    0.92095    0.67714    1.000
    H826     H        0.57260    0.92740    0.65800    1.000
    C1343    C        0.59370    0.90630    0.73900    1.000
    C1344    C        0.60250    0.89750    0.77090    1.000
    C1345    C        0.60250    0.89750    0.72920    1.000
    C1346    C        0.61200    0.88800    0.76040    1.000
    C1347    C        0.07905    0.42095    0.67714    1.000
    H827     H        0.07260    0.42740    0.65800    1.000
    C1348    C        0.09370    0.40630    0.73900    1.000
    C1349    C        0.10250    0.39750    0.77090    1.000
    C1350    C        0.10250    0.39750    0.72920    1.000
    C1351    C        0.11200    0.38800    0.76040    1.000
    C1352    C        0.07905    0.92095    0.17714    1.000
    H828     H        0.07260    0.92740    0.15800    1.000
    C1353    C        0.09370    0.90630    0.23900    1.000
    C1354    C        0.10250    0.89750    0.27090    1.000
    C1355    C        0.10250    0.89750    0.22920    1.000
    C1356    C        0.11200    0.88800    0.26040    1.000
    C1357    C        0.42095    0.57905    0.17714    1.000
    H829     H        0.42740    0.57260    0.15800    1.000
    C1358    C        0.40630    0.59370    0.23900    1.000
    C1359    C        0.39750    0.60250    0.27090    1.000
    C1360    C        0.39750    0.60250    0.22920    1.000
    C1361    C        0.38800    0.61200    0.26040    1.000
    C1362    C        0.42095    0.07905    0.67714    1.000
    H830     H        0.42740    0.07260    0.65800    1.000
    C1363    C        0.40630    0.09370    0.73900    1.000
    C1364    C        0.39750    0.10250    0.77090    1.000
    C1365    C        0.39750    0.10250    0.72920    1.000
    C1366    C        0.38800    0.11200    0.76040    1.000
    C1367    C        0.92095    0.57905    0.67714    1.000
    H831     H        0.92740    0.57260    0.65800    1.000
    C1368    C        0.90630    0.59370    0.73900    1.000
    C1369    C        0.89750    0.60250    0.77090    1.000
    C1370    C        0.89750    0.60250    0.72920    1.000
    C1371    C        0.88800    0.61200    0.76040    1.000
    C1372    C        0.92095    0.07905    0.17714    1.000
    H832     H        0.92740    0.07260    0.15800    1.000
    C1373    C        0.90630    0.09370    0.23900    1.000
    C1374    C        0.89750    0.10250    0.27090    1.000
    C1375    C        0.89750    0.10250    0.22920    1.000
    C1376    C        0.88800    0.11200    0.26040    1.000
    C1377    C        0.57905    0.17714    0.42095    1.000
    H833     H        0.57260    0.15800    0.42740    1.000
    C1378    C        0.59370    0.23900    0.40630    1.000
    C1379    C        0.60250    0.27090    0.39750    1.000
    C1380    C        0.60250    0.22920    0.39750    1.000
    C1381    C        0.61200    0.26040    0.38800    1.000
    C1382    C        0.57905    0.67714    0.92095    1.000
    H834     H        0.57260    0.65800    0.92740    1.000
    C1383    C        0.59370    0.73900    0.90630    1.000
    C1384    C        0.60250    0.77090    0.89750    1.000
    C1385    C        0.60250    0.72920    0.89750    1.000
    C1386    C        0.61200    0.76040    0.88800    1.000
    C1387    C        0.07905    0.17714    0.92095    1.000
    H835     H        0.07260    0.15800    0.92740    1.000
    C1388    C        0.09370    0.23900    0.90630    1.000
    C1389    C        0.10250    0.27090    0.89750    1.000
    C1390    C        0.10250    0.22920    0.89750    1.000
    C1391    C        0.11200    0.26040    0.88800    1.000
    C1392    C        0.07905    0.67714    0.42095    1.000
    H836     H        0.07260    0.65800    0.42740    1.000
    C1393    C        0.09370    0.73900    0.40630    1.000
    C1394    C        0.10250    0.77090    0.39750    1.000
    C1395    C        0.10250    0.72920    0.39750    1.000
    C1396    C        0.11200    0.76040    0.38800    1.000
    C1397    C        0.42095    0.17714    0.57905    1.000
    H837     H        0.42740    0.15800    0.57260    1.000
    C1398    C        0.40630    0.23900    0.59370    1.000
    C1399    C        0.39750    0.27090    0.60250    1.000
    C1400    C        0.39750    0.22920    0.60250    1.000
    C1401    C        0.38800    0.26040    0.61200    1.000
    C1402    C        0.42095    0.67714    0.07905    1.000
    H838     H        0.42740    0.65800    0.07260    1.000
    C1403    C        0.40630    0.73900    0.09370    1.000
    C1404    C        0.39750    0.77090    0.10250    1.000
    C1405    C        0.39750    0.72920    0.10250    1.000
    C1406    C        0.38800    0.76040    0.11200    1.000
    C1407    C        0.92095    0.17714    0.07905    1.000
    H839     H        0.92740    0.15800    0.07260    1.000
    C1408    C        0.90630    0.23900    0.09370    1.000
    C1409    C        0.89750    0.27090    0.10250    1.000
    C1410    C        0.89750    0.22920    0.10250    1.000
    C1411    C        0.88800    0.26040    0.11200    1.000
    C1412    C        0.92095    0.67714    0.57905    1.000
    H840     H        0.92740    0.65800    0.57260    1.000
    C1413    C        0.90630    0.73900    0.59370    1.000
    C1414    C        0.89750    0.77090    0.60250    1.000
    C1415    C        0.89750    0.72920    0.60250    1.000
    C1416    C        0.88800    0.76040    0.61200    1.000
    C1417    C        0.42095    0.82286    0.42095    1.000
    H841     H        0.42740    0.84200    0.42740    1.000
    C1418    C        0.40630    0.76100    0.40630    1.000
    C1419    C        0.39750    0.72910    0.39750    1.000
    C1420    C        0.39750    0.77080    0.39750    1.000
    C1421    C        0.38800    0.73960    0.38800    1.000
    C1422    C        0.42095    0.32286    0.92095    1.000
    H842     H        0.42740    0.34200    0.92740    1.000
    C1423    C        0.40630    0.26100    0.90630    1.000
    C1424    C        0.39750    0.22910    0.89750    1.000
    C1425    C        0.39750    0.27080    0.89750    1.000
    C1426    C        0.38800    0.23960    0.88800    1.000
    C1427    C        0.92095    0.82286    0.92095    1.000
    H843     H        0.92740    0.84200    0.92740    1.000
    C1428    C        0.90630    0.76100    0.90630    1.000
    C1429    C        0.89750    0.72910    0.89750    1.000
    C1430    C        0.89750    0.77080    0.89750    1.000
    C1431    C        0.88800    0.73960    0.88800    1.000
    C1432    C        0.92095    0.32286    0.42095    1.000
    H844     H        0.92740    0.34200    0.42740    1.000
    C1433    C        0.90630    0.26100    0.40630    1.000
    C1434    C        0.89750    0.22910    0.39750    1.000
    C1435    C        0.89750    0.27080    0.39750    1.000
    C1436    C        0.88800    0.23960    0.38800    1.000
    C1437    C        0.57905    0.82286    0.57905    1.000
    H845     H        0.57260    0.84200    0.57260    1.000
    C1438    C        0.59370    0.76100    0.59370    1.000
    C1439    C        0.60250    0.72910    0.60250    1.000
    C1440    C        0.60250    0.77080    0.60250    1.000
    C1441    C        0.61200    0.73960    0.61200    1.000
    C1442    C        0.57905    0.32286    0.07905    1.000
    H846     H        0.57260    0.34200    0.07260    1.000
    C1443    C        0.59370    0.26100    0.09370    1.000
    C1444    C        0.60250    0.22910    0.10250    1.000
    C1445    C        0.60250    0.27080    0.10250    1.000
    C1446    C        0.61200    0.23960    0.11200    1.000
    C1447    C        0.07905    0.82286    0.07905    1.000
    H847     H        0.07260    0.84200    0.07260    1.000
    C1448    C        0.09370    0.76100    0.09370    1.000
    C1449    C        0.10250    0.72910    0.10250    1.000
    C1450    C        0.10250    0.77080    0.10250    1.000
    C1451    C        0.11200    0.73960    0.11200    1.000
    C1452    C        0.07905    0.32286    0.57905    1.000
    H848     H        0.07260    0.34200    0.57260    1.000
    C1453    C        0.09370    0.26100    0.59370    1.000
    C1454    C        0.10250    0.22910    0.60250    1.000
    C1455    C        0.10250    0.27080    0.60250    1.000
    C1456    C        0.11200    0.23960    0.61200    1.000
    C1457    C        0.17714    0.57905    0.42095    1.000
    H849     H        0.15800    0.57260    0.42740    1.000
    C1458    C        0.23900    0.59370    0.40630    1.000
    C1459    C        0.27090    0.60250    0.39750    1.000
    C1460    C        0.22920    0.60250    0.39750    1.000
    C1461    C        0.26040    0.61200    0.38800    1.000
    C1462    C        0.17714    0.07905    0.92095    1.000
    H850     H        0.15800    0.07260    0.92740    1.000
    C1463    C        0.23900    0.09370    0.90630    1.000
    C1464    C        0.27090    0.10250    0.89750    1.000
    C1465    C        0.22920    0.10250    0.89750    1.000
    C1466    C        0.26040    0.11200    0.88800    1.000
    C1467    C        0.67714    0.57905    0.92095    1.000
    H851     H        0.65800    0.57260    0.92740    1.000
    C1468    C        0.73900    0.59370    0.90630    1.000
    C1469    C        0.77090    0.60250    0.89750    1.000
    C1470    C        0.72920    0.60250    0.89750    1.000
    C1471    C        0.76040    0.61200    0.88800    1.000
    C1472    C        0.67714    0.07905    0.42095    1.000
    H852     H        0.65800    0.07260    0.42740    1.000
    C1473    C        0.73900    0.09370    0.40630    1.000
    C1474    C        0.77090    0.10250    0.39750    1.000
    C1475    C        0.72920    0.10250    0.39750    1.000
    C1476    C        0.76040    0.11200    0.38800    1.000
    C1477    C        0.17714    0.42095    0.57905    1.000
    H853     H        0.15800    0.42740    0.57260    1.000
    C1478    C        0.23900    0.40630    0.59370    1.000
    C1479    C        0.27090    0.39750    0.60250    1.000
    C1480    C        0.22920    0.39750    0.60250    1.000
    C1481    C        0.26040    0.38800    0.61200    1.000
    C1482    C        0.17714    0.92095    0.07905    1.000
    H854     H        0.15800    0.92740    0.07260    1.000
    C1483    C        0.23900    0.90630    0.09370    1.000
    C1484    C        0.27090    0.89750    0.10250    1.000
    C1485    C        0.22920    0.89750    0.10250    1.000
    C1486    C        0.26040    0.88800    0.11200    1.000
    C1487    C        0.67714    0.42095    0.07905    1.000
    H855     H        0.65800    0.42740    0.07260    1.000
    C1488    C        0.73900    0.40630    0.09370    1.000
    C1489    C        0.77090    0.39750    0.10250    1.000
    C1490    C        0.72920    0.39750    0.10250    1.000
    C1491    C        0.76040    0.38800    0.11200    1.000
    C1492    C        0.67714    0.92095    0.57905    1.000
    H856     H        0.65800    0.92740    0.57260    1.000
    C1493    C        0.73900    0.90630    0.59370    1.000
    C1494    C        0.77090    0.89750    0.60250    1.000
    C1495    C        0.72920    0.89750    0.60250    1.000
    C1496    C        0.76040    0.88800    0.61200    1.000
    C1497    C        0.82286    0.57905    0.57905    1.000
    H857     H        0.84200    0.57260    0.57260    1.000
    C1498    C        0.76100    0.59370    0.59370    1.000
    C1499    C        0.72910    0.60250    0.60250    1.000
    C1500    C        0.77080    0.60250    0.60250    1.000
    C1501    C        0.73960    0.61200    0.61200    1.000
    C1502    C        0.82286    0.07905    0.07905    1.000
    H858     H        0.84200    0.07260    0.07260    1.000
    C1503    C        0.76100    0.09370    0.09370    1.000
    C1504    C        0.72910    0.10250    0.10250    1.000
    C1505    C        0.77080    0.10250    0.10250    1.000
    C1506    C        0.73960    0.11200    0.11200    1.000
    C1507    C        0.32286    0.57905    0.07905    1.000
    H859     H        0.34200    0.57260    0.07260    1.000
    C1508    C        0.26100    0.59370    0.09370    1.000
    C1509    C        0.22910    0.60250    0.10250    1.000
    C1510    C        0.27080    0.60250    0.10250    1.000
    C1511    C        0.23960    0.61200    0.11200    1.000
    C1512    C        0.32286    0.07905    0.57905    1.000
    H860     H        0.34200    0.07260    0.57260    1.000
    C1513    C        0.26100    0.09370    0.59370    1.000
    C1514    C        0.22910    0.10250    0.60250    1.000
    C1515    C        0.27080    0.10250    0.60250    1.000
    C1516    C        0.23960    0.11200    0.61200    1.000
    C1517    C        0.82286    0.42095    0.42095    1.000
    H861     H        0.84200    0.42740    0.42740    1.000
    C1518    C        0.76100    0.40630    0.40630    1.000
    C1519    C        0.72910    0.39750    0.39750    1.000
    C1520    C        0.77080    0.39750    0.39750    1.000
    C1521    C        0.73960    0.38800    0.38800    1.000
    C1522    C        0.82286    0.92095    0.92095    1.000
    H862     H        0.84200    0.92740    0.92740    1.000
    C1523    C        0.76100    0.90630    0.90630    1.000
    C1524    C        0.72910    0.89750    0.89750    1.000
    C1525    C        0.77080    0.89750    0.89750    1.000
    C1526    C        0.73960    0.88800    0.88800    1.000
    C1527    C        0.32286    0.42095    0.92095    1.000
    H863     H        0.34200    0.42740    0.92740    1.000
    C1528    C        0.26100    0.40630    0.90630    1.000
    C1529    C        0.22910    0.39750    0.89750    1.000
    C1530    C        0.27080    0.39750    0.89750    1.000
    C1531    C        0.23960    0.38800    0.88800    1.000
    C1532    C        0.32286    0.92095    0.42095    1.000
    H864     H        0.34200    0.92740    0.42740    1.000
    C1533    C        0.26100    0.90630    0.40630    1.000
    C1534    C        0.22910    0.89750    0.39750    1.000
    C1535    C        0.27080    0.89750    0.39750    1.000
    C1536    C        0.23960    0.88800    0.38800    1.000
    Cu97     Cu       0.60030    0.65383    0.34617    1.000
    O577     O        0.56880    0.67690    0.32310    1.000
    Cu98     Cu       0.61300    0.66472    0.33528    1.000
    Cu99     Cu       0.60030    0.15383    0.84617    1.000
    O578     O        0.56880    0.17690    0.82310    1.000
    Cu100    Cu       0.61300    0.16472    0.83528    1.000
    Cu101    Cu       0.10030    0.65383    0.84617    1.000
    O579     O        0.06880    0.67690    0.82310    1.000
    Cu102    Cu       0.11300    0.66472    0.83528    1.000
    Cu103    Cu       0.10030    0.15383    0.34617    1.000
    O580     O        0.06880    0.17690    0.32310    1.000
    Cu104    Cu       0.11300    0.16472    0.33528    1.000
    Cu105    Cu       0.39970    0.34617    0.34617    1.000
    O581     O        0.43120    0.32310    0.32310    1.000
    Cu106    Cu       0.38700    0.33528    0.33528    1.000
    Cu107    Cu       0.39970    0.84617    0.84617    1.000
    O582     O        0.43120    0.82310    0.82310    1.000
    Cu108    Cu       0.38700    0.83528    0.83528    1.000
    Cu109    Cu       0.89970    0.34617    0.84617    1.000
    O583     O        0.93120    0.32310    0.82310    1.000
    Cu110    Cu       0.88700    0.33528    0.83528    1.000
    Cu111    Cu       0.89970    0.84617    0.34617    1.000
    O584     O        0.93120    0.82310    0.32310    1.000
    Cu112    Cu       0.88700    0.83528    0.33528    1.000
    Cu113    Cu       0.39970    0.65383    0.65383    1.000
    O585     O        0.43120    0.67690    0.67690    1.000
    Cu114    Cu       0.38700    0.66472    0.66472    1.000
    Cu115    Cu       0.39970    0.15383    0.15383    1.000
    O586     O        0.43120    0.17690    0.17690    1.000
    Cu116    Cu       0.38700    0.16472    0.16472    1.000
    Cu117    Cu       0.89970    0.65383    0.15383    1.000
    O587     O        0.93120    0.67690    0.17690    1.000
    Cu118    Cu       0.88700    0.66472    0.16472    1.000
    Cu119    Cu       0.89970    0.15383    0.65383    1.000
    O588     O        0.93120    0.17690    0.67690    1.000
    Cu120    Cu       0.88700    0.16472    0.66472    1.000
    Cu121    Cu       0.60030    0.34617    0.65383    1.000
    O589     O        0.56880    0.32310    0.67690    1.000
    Cu122    Cu       0.61300    0.33528    0.66472    1.000
    Cu123    Cu       0.60030    0.84617    0.15383    1.000
    O590     O        0.56880    0.82310    0.17690    1.000
    Cu124    Cu       0.61300    0.83528    0.16472    1.000
    Cu125    Cu       0.10030    0.34617    0.15383    1.000
    O591     O        0.06880    0.32310    0.17690    1.000
    Cu126    Cu       0.11300    0.33528    0.16472    1.000
    Cu127    Cu       0.10030    0.84617    0.65383    1.000
    O592     O        0.06880    0.82310    0.67690    1.000
    Cu128    Cu       0.11300    0.83528    0.66472    1.000
    Cu129    Cu       0.34617    0.60030    0.65383    1.000
    O593     O        0.32310    0.56880    0.67690    1.000
    Cu130    Cu       0.33528    0.61300    0.66472    1.000
    Cu131    Cu       0.34617    0.10030    0.15383    1.000
    O594     O        0.32310    0.06880    0.17690    1.000
    Cu132    Cu       0.33528    0.11300    0.16472    1.000
    Cu133    Cu       0.84617    0.60030    0.15383    1.000
    O595     O        0.82310    0.56880    0.17690    1.000
    Cu134    Cu       0.83528    0.61300    0.16472    1.000
    Cu135    Cu       0.84617    0.10030    0.65383    1.000
    O596     O        0.82310    0.06880    0.67690    1.000
    Cu136    Cu       0.83528    0.11300    0.66472    1.000
    Cu137    Cu       0.34617    0.39970    0.34617    1.000
    O597     O        0.32310    0.43120    0.32310    1.000
    Cu138    Cu       0.33528    0.38700    0.33528    1.000
    Cu139    Cu       0.34617    0.89970    0.84617    1.000
    O598     O        0.32310    0.93120    0.82310    1.000
    Cu140    Cu       0.33528    0.88700    0.83528    1.000
    Cu141    Cu       0.84617    0.39970    0.84617    1.000
    O599     O        0.82310    0.43120    0.82310    1.000
    Cu142    Cu       0.83528    0.38700    0.83528    1.000
    Cu143    Cu       0.84617    0.89970    0.34617    1.000
    O600     O        0.82310    0.93120    0.32310    1.000
    Cu144    Cu       0.83528    0.88700    0.33528    1.000
    Cu145    Cu       0.65383    0.39970    0.65383    1.000
    O601     O        0.67690    0.43120    0.67690    1.000
    Cu146    Cu       0.66472    0.38700    0.66472    1.000
    Cu147    Cu       0.65383    0.89970    0.15383    1.000
    O602     O        0.67690    0.93120    0.17690    1.000
    Cu148    Cu       0.66472    0.88700    0.16472    1.000
    Cu149    Cu       0.15383    0.39970    0.15383    1.000
    O603     O        0.17690    0.43120    0.17690    1.000
    Cu150    Cu       0.16472    0.38700    0.16472    1.000
    Cu151    Cu       0.15383    0.89970    0.65383    1.000
    O604     O        0.17690    0.93120    0.67690    1.000
    Cu152    Cu       0.16472    0.88700    0.66472    1.000
    Cu153    Cu       0.65383    0.60030    0.34617    1.000
    O605     O        0.67690    0.56880    0.32310    1.000
    Cu154    Cu       0.66472    0.61300    0.33528    1.000
    Cu155    Cu       0.65383    0.10030    0.84617    1.000
    O606     O        0.67690    0.06880    0.82310    1.000
    Cu156    Cu       0.66472    0.11300    0.83528    1.000
    Cu157    Cu       0.15383    0.60030    0.84617    1.000
    O607     O        0.17690    0.56880    0.82310    1.000
    Cu158    Cu       0.16472    0.61300    0.83528    1.000
    Cu159    Cu       0.15383    0.10030    0.34617    1.000
    O608     O        0.17690    0.06880    0.32310    1.000
    Cu160    Cu       0.16472    0.11300    0.33528    1.000
    Cu161    Cu       0.65383    0.34617    0.60030    1.000
    O609     O        0.67690    0.32310    0.56880    1.000
    Cu162    Cu       0.66472    0.33528    0.61300    1.000
    Cu163    Cu       0.65383    0.84617    0.10030    1.000
    O610     O        0.67690    0.82310    0.06880    1.000
    Cu164    Cu       0.66472    0.83528    0.11300    1.000
    Cu165    Cu       0.15383    0.34617    0.10030    1.000
    O611     O        0.17690    0.32310    0.06880    1.000
    Cu166    Cu       0.16472    0.33528    0.11300    1.000
    Cu167    Cu       0.15383    0.84617    0.60030    1.000
    O612     O        0.17690    0.82310    0.56880    1.000
    Cu168    Cu       0.16472    0.83528    0.61300    1.000
    Cu169    Cu       0.34617    0.34617    0.39970    1.000
    O613     O        0.32310    0.32310    0.43120    1.000
    Cu170    Cu       0.33528    0.33528    0.38700    1.000
    Cu171    Cu       0.34617    0.84617    0.89970    1.000
    O614     O        0.32310    0.82310    0.93120    1.000
    Cu172    Cu       0.33528    0.83528    0.88700    1.000
    Cu173    Cu       0.84617    0.34617    0.89970    1.000
    O615     O        0.82310    0.32310    0.93120    1.000
    Cu174    Cu       0.83528    0.33528    0.88700    1.000
    Cu175    Cu       0.84617    0.84617    0.39970    1.000
    O616     O        0.82310    0.82310    0.43120    1.000
    Cu176    Cu       0.83528    0.83528    0.38700    1.000
    Cu177    Cu       0.65383    0.65383    0.39970    1.000
    O617     O        0.67690    0.67690    0.43120    1.000
    Cu178    Cu       0.66472    0.66472    0.38700    1.000
    Cu179    Cu       0.65383    0.15383    0.89970    1.000
    O618     O        0.67690    0.17690    0.93120    1.000
    Cu180    Cu       0.66472    0.16472    0.88700    1.000
    Cu181    Cu       0.15383    0.65383    0.89970    1.000
    O619     O        0.17690    0.67690    0.93120    1.000
    Cu182    Cu       0.16472    0.66472    0.88700    1.000
    Cu183    Cu       0.15383    0.15383    0.39970    1.000
    O620     O        0.17690    0.17690    0.43120    1.000
    Cu184    Cu       0.16472    0.16472    0.38700    1.000
    Cu185    Cu       0.34617    0.65383    0.60030    1.000
    O621     O        0.32310    0.67690    0.56880    1.000
    Cu186    Cu       0.33528    0.66472    0.61300    1.000
    Cu187    Cu       0.34617    0.15383    0.10030    1.000
    O622     O        0.32310    0.17690    0.06880    1.000
    Cu188    Cu       0.33528    0.16472    0.11300    1.000
    Cu189    Cu       0.84617    0.65383    0.10030    1.000
    O623     O        0.82310    0.67690    0.06880    1.000
    Cu190    Cu       0.83528    0.66472    0.11300    1.000
    Cu191    Cu       0.84617    0.15383    0.60030    1.000
    O624     O        0.82310    0.17690    0.56880    1.000
    Cu192    Cu       0.83528    0.16472    0.61300    1.000
    Cu193    Cu       0.65383    0.60030    0.65383    1.000
    O625     O        0.67690    0.56880    0.67690    1.000
    Cu194    Cu       0.66472    0.61300    0.66472    1.000
    Cu195    Cu       0.65383    0.10030    0.15383    1.000
    O626     O        0.67690    0.06880    0.17690    1.000
    Cu196    Cu       0.66472    0.11300    0.16472    1.000
    Cu197    Cu       0.15383    0.60030    0.15383    1.000
    O627     O        0.17690    0.56880    0.17690    1.000
    Cu198    Cu       0.16472    0.61300    0.16472    1.000
    Cu199    Cu       0.15383    0.10030    0.65383    1.000
    O628     O        0.17690    0.06880    0.67690    1.000
    Cu200    Cu       0.16472    0.11300    0.66472    1.000
    Cu201    Cu       0.34617    0.39970    0.65383    1.000
    O629     O        0.32310    0.43120    0.67690    1.000
    Cu202    Cu       0.33528    0.38700    0.66472    1.000
    Cu203    Cu       0.34617    0.89970    0.15383    1.000
    O630     O        0.32310    0.93120    0.17690    1.000
    Cu204    Cu       0.33528    0.88700    0.16472    1.000
    Cu205    Cu       0.84617    0.39970    0.15383    1.000
    O631     O        0.82310    0.43120    0.17690    1.000
    Cu206    Cu       0.83528    0.38700    0.16472    1.000
    Cu207    Cu       0.84617    0.89970    0.65383    1.000
    O632     O        0.82310    0.93120    0.67690    1.000
    Cu208    Cu       0.83528    0.88700    0.66472    1.000
    Cu209    Cu       0.65383    0.39970    0.34617    1.000
    O633     O        0.67690    0.43120    0.32310    1.000
    Cu210    Cu       0.66472    0.38700    0.33528    1.000
    Cu211    Cu       0.65383    0.89970    0.84617    1.000
    O634     O        0.67690    0.93120    0.82310    1.000
    Cu212    Cu       0.66472    0.88700    0.83528    1.000
    Cu213    Cu       0.15383    0.39970    0.84617    1.000
    O635     O        0.17690    0.43120    0.82310    1.000
    Cu214    Cu       0.16472    0.38700    0.83528    1.000
    Cu215    Cu       0.15383    0.89970    0.34617    1.000
    O636     O        0.17690    0.93120    0.32310    1.000
    Cu216    Cu       0.16472    0.88700    0.33528    1.000
    Cu217    Cu       0.34617    0.60030    0.34617    1.000
    O637     O        0.32310    0.56880    0.32310    1.000
    Cu218    Cu       0.33528    0.61300    0.33528    1.000
    Cu219    Cu       0.34617    0.10030    0.84617    1.000
    O638     O        0.32310    0.06880    0.82310    1.000
    Cu220    Cu       0.33528    0.11300    0.83528    1.000
    Cu221    Cu       0.84617    0.60030    0.84617    1.000
    O639     O        0.82310    0.56880    0.82310    1.000
    Cu222    Cu       0.83528    0.61300    0.83528    1.000
    Cu223    Cu       0.84617    0.10030    0.34617    1.000
    O640     O        0.82310    0.06880    0.32310    1.000
    Cu224    Cu       0.83528    0.11300    0.33528    1.000
    Cu225    Cu       0.60030    0.34617    0.34617    1.000
    O641     O        0.56880    0.32310    0.32310    1.000
    Cu226    Cu       0.61300    0.33528    0.33528    1.000
    Cu227    Cu       0.60030    0.84617    0.84617    1.000
    O642     O        0.56880    0.82310    0.82310    1.000
    Cu228    Cu       0.61300    0.83528    0.83528    1.000
    Cu229    Cu       0.10030    0.34617    0.84617    1.000
    O643     O        0.06880    0.32310    0.82310    1.000
    Cu230    Cu       0.11300    0.33528    0.83528    1.000
    Cu231    Cu       0.10030    0.84617    0.34617    1.000
    O644     O        0.06880    0.82310    0.32310    1.000
    Cu232    Cu       0.11300    0.83528    0.33528    1.000
    Cu233    Cu       0.39970    0.34617    0.65383    1.000
    O645     O        0.43120    0.32310    0.67690    1.000
    Cu234    Cu       0.38700    0.33528    0.66472    1.000
    Cu235    Cu       0.39970    0.84617    0.15383    1.000
    O646     O        0.43120    0.82310    0.17690    1.000
    Cu236    Cu       0.38700    0.83528    0.16472    1.000
    Cu237    Cu       0.89970    0.34617    0.15383    1.000
    O647     O        0.93120    0.32310    0.17690    1.000
    Cu238    Cu       0.88700    0.33528    0.16472    1.000
    Cu239    Cu       0.89970    0.84617    0.65383    1.000
    O648     O        0.93120    0.82310    0.67690    1.000
    Cu240    Cu       0.88700    0.83528    0.66472    1.000
    Cu241    Cu       0.39970    0.65383    0.34617    1.000
    O649     O        0.43120    0.67690    0.32310    1.000
    Cu242    Cu       0.38700    0.66472    0.33528    1.000
    Cu243    Cu       0.39970    0.15383    0.84617    1.000
    O650     O        0.43120    0.17690    0.82310    1.000
    Cu244    Cu       0.38700    0.16472    0.83528    1.000
    Cu245    Cu       0.89970    0.65383    0.84617    1.000
    O651     O        0.93120    0.67690    0.82310    1.000
    Cu246    Cu       0.88700    0.66472    0.83528    1.000
    Cu247    Cu       0.89970    0.15383    0.34617    1.000
    O652     O        0.93120    0.17690    0.32310    1.000
    Cu248    Cu       0.88700    0.16472    0.33528    1.000
    Cu249    Cu       0.60030    0.65383    0.65383    1.000
    O653     O        0.56880    0.67690    0.67690    1.000
    Cu250    Cu       0.61300    0.66472    0.66472    1.000
    Cu251    Cu       0.60030    0.15383    0.15383    1.000
    O654     O        0.56880    0.17690    0.17690    1.000
    Cu252    Cu       0.61300    0.16472    0.16472    1.000
    Cu253    Cu       0.10030    0.65383    0.15383    1.000
    O655     O        0.06880    0.67690    0.17690    1.000
    Cu254    Cu       0.11300    0.66472    0.16472    1.000
    Cu255    Cu       0.10030    0.15383    0.65383    1.000
    O656     O        0.06880    0.17690    0.67690    1.000
    Cu256    Cu       0.11300    0.16472    0.66472    1.000
    Cu257    Cu       0.34617    0.65383    0.39970    1.000
    O657     O        0.32310    0.67690    0.43120    1.000
    Cu258    Cu       0.33528    0.66472    0.38700    1.000
    Cu259    Cu       0.34617    0.15383    0.89970    1.000
    O658     O        0.32310    0.17690    0.93120    1.000
    Cu260    Cu       0.33528    0.16472    0.88700    1.000
    Cu261    Cu       0.84617    0.65383    0.89970    1.000
    O659     O        0.82310    0.67690    0.93120    1.000
    Cu262    Cu       0.83528    0.66472    0.88700    1.000
    Cu263    Cu       0.84617    0.15383    0.39970    1.000
    O660     O        0.82310    0.17690    0.43120    1.000
    Cu264    Cu       0.83528    0.16472    0.38700    1.000
    Cu265    Cu       0.34617    0.34617    0.60030    1.000
    O661     O        0.32310    0.32310    0.56880    1.000
    Cu266    Cu       0.33528    0.33528    0.61300    1.000
    Cu267    Cu       0.34617    0.84617    0.10030    1.000
    O662     O        0.32310    0.82310    0.06880    1.000
    Cu268    Cu       0.33528    0.83528    0.11300    1.000
    Cu269    Cu       0.84617    0.34617    0.10030    1.000
    O663     O        0.82310    0.32310    0.06880    1.000
    Cu270    Cu       0.83528    0.33528    0.11300    1.000
    Cu271    Cu       0.84617    0.84617    0.60030    1.000
    O664     O        0.82310    0.82310    0.56880    1.000
    Cu272    Cu       0.83528    0.83528    0.61300    1.000
    Cu273    Cu       0.65383    0.65383    0.60030    1.000
    O665     O        0.67690    0.67690    0.56880    1.000
    Cu274    Cu       0.66472    0.66472    0.61300    1.000
    Cu275    Cu       0.65383    0.15383    0.10030    1.000
    O666     O        0.67690    0.17690    0.06880    1.000
    Cu276    Cu       0.66472    0.16472    0.11300    1.000
    Cu277    Cu       0.15383    0.65383    0.10030    1.000
    O667     O        0.17690    0.67690    0.06880    1.000
    Cu278    Cu       0.16472    0.66472    0.11300    1.000
    Cu279    Cu       0.15383    0.15383    0.60030    1.000
    O668     O        0.17690    0.17690    0.56880    1.000
    Cu280    Cu       0.16472    0.16472    0.61300    1.000
    Cu281    Cu       0.65383    0.34617    0.39970    1.000
    O669     O        0.67690    0.32310    0.43120    1.000
    Cu282    Cu       0.66472    0.33528    0.38700    1.000
    Cu283    Cu       0.65383    0.84617    0.89970    1.000
    O670     O        0.67690    0.82310    0.93120    1.000
    Cu284    Cu       0.66472    0.83528    0.88700    1.000
    Cu285    Cu       0.15383    0.34617    0.89970    1.000
    O671     O        0.17690    0.32310    0.93120    1.000
    Cu286    Cu       0.16472    0.33528    0.88700    1.000
    Cu287    Cu       0.15383    0.84617    0.39970    1.000
    O672     O        0.17690    0.82310    0.43120    1.000
    Cu288    Cu       0.16472    0.83528    0.38700    1.000
    O673     O        0.63360    0.63360    0.36640    1.000
    O674     O        0.64420    0.64420    0.35580    1.000
    O675     O        0.63360    0.13360    0.86640    1.000
    O676     O        0.64420    0.14420    0.85580    1.000
    O677     O        0.13360    0.63360    0.86640    1.000
    O678     O        0.14420    0.64420    0.85580    1.000
    O679     O        0.13360    0.13360    0.36640    1.000
    O680     O        0.14420    0.14420    0.35580    1.000
    O681     O        0.36640    0.36640    0.36640    1.000
    O682     O        0.35580    0.35580    0.35580    1.000
    O683     O        0.36640    0.86640    0.86640    1.000
    O684     O        0.35580    0.85580    0.85580    1.000
    O685     O        0.86640    0.36640    0.86640    1.000
    O686     O        0.85580    0.35580    0.85580    1.000
    O687     O        0.86640    0.86640    0.36640    1.000
    O688     O        0.85580    0.85580    0.35580    1.000
    O689     O        0.36640    0.63360    0.63360    1.000
    O690     O        0.35580    0.64420    0.64420    1.000
    O691     O        0.36640    0.13360    0.13360    1.000
    O692     O        0.35580    0.14420    0.14420    1.000
    O693     O        0.86640    0.63360    0.13360    1.000
    O694     O        0.85580    0.64420    0.14420    1.000
    O695     O        0.86640    0.13360    0.63360    1.000
    O696     O        0.85580    0.14420    0.64420    1.000
    O697     O        0.63360    0.36640    0.63360    1.000
    O698     O        0.64420    0.35580    0.64420    1.000
    O699     O        0.63360    0.86640    0.13360    1.000
    O700     O        0.64420    0.85580    0.14420    1.000
    O701     O        0.13360    0.36640    0.13360    1.000
    O702     O        0.14420    0.35580    0.14420    1.000
    O703     O        0.13360    0.86640    0.63360    1.000
    O704     O        0.14420    0.85580    0.64420    1.000
    O705     O        0.63360    0.63360    0.63360    1.000
    O706     O        0.64420    0.64420    0.64420    1.000
    O707     O        0.63360    0.13360    0.13360    1.000
    O708     O        0.64420    0.14420    0.14420    1.000
    O709     O        0.13360    0.63360    0.13360    1.000
    O710     O        0.14420    0.64420    0.14420    1.000
    O711     O        0.13360    0.13360    0.63360    1.000
    O712     O        0.14420    0.14420    0.64420    1.000
    O713     O        0.36640    0.36640    0.63360    1.000
    O714     O        0.35580    0.35580    0.64420    1.000
    O715     O        0.36640    0.86640    0.13360    1.000
    O716     O        0.35580    0.85580    0.14420    1.000
    O717     O        0.86640    0.36640    0.13360    1.000
    O718     O        0.85580    0.35580    0.14420    1.000
    O719     O        0.86640    0.86640    0.63360    1.000
    O720     O        0.85580    0.85580    0.64420    1.000
    O721     O        0.63360    0.36640    0.36640    1.000
    O722     O        0.64420    0.35580    0.35580    1.000
    O723     O        0.63360    0.86640    0.86640    1.000
    O724     O        0.64420    0.85580    0.85580    1.000
    O725     O        0.13360    0.36640    0.86640    1.000
    O726     O        0.14420    0.35580    0.85580    1.000
    O727     O        0.13360    0.86640    0.36640    1.000
    O728     O        0.14420    0.85580    0.35580    1.000
    O729     O        0.36640    0.63360    0.36640    1.000
    O730     O        0.35580    0.64420    0.35580    1.000
    O731     O        0.36640    0.13360    0.86640    1.000
    O732     O        0.35580    0.14420    0.85580    1.000
    O733     O        0.86640    0.63360    0.86640    1.000
    O734     O        0.85580    0.64420    0.85580    1.000
    O735     O        0.86640    0.13360    0.36640    1.000
    O736     O        0.85580    0.14420    0.35580    1.000
