data_functionalizedCrystal
_audit_creation_method	'EQeq! by Chris Wilmer'
_symmetry_space_group_name_H-M	'P1'
_symmetry_Int_Tables_number	1
_symmetry_cell_setting	triclinic
loop_
_symmetry_equiv_pos_as_xyz
  x,y,z
_cell_length_a	9.9725
_cell_length_b	10.5369
_cell_length_c	14.1184
_cell_angle_alpha	90.477
_cell_angle_beta	109.924
_cell_angle_gamma	98.596
loop_
_atom_site_label
_atom_site_type_symbol
_atom_site_fract_x
_atom_site_fract_y
_atom_site_fract_z
_atom_site_charge
Mof_Co	Co	0.58392	0.27034	0.00512	1.156
Mof_Co	Co	0.04168	0.17515	0.89916	1.176
Mof_Co	Co	0.13496	0.31672	0.12657	1.141
Mof_P 	P 	0.83849	0.0971	0.03292	0.456
Mof_P 	P 	0.31476	0.41666	0.9845	0.451
Mof_O 	O 	0.9965	0.1551	0.0483	-0.487
Mof_O 	O 	0.8281	0.9601	0.0664	-0.38
Mof_O 	O 	0.7604	0.1807	0.0743	-0.428
Mof_O 	O 	0.8452	0.0374	0.8493	-0.24
Mof_O 	O 	0.8683	0.2843	0.851	-0.399
Mof_O 	O 	0.6558	0.2869	0.8698	-0.365
Mof_O 	O 	0.1692	0.3354	0.9773	-0.511
Mof_O 	O 	0.4008	0.3518	0.9352	-0.419
Mof_O 	O 	0.2903	0.5504	0.95	-0.406
Mof_O 	O 	0.3164	0.4686	0.17	-0.226
Mof_O 	O 	0.3144	0.2221	0.17	-0.42
Mof_O 	O 	0.5148	0.2334	0.1318	-0.415
Mof_C 	C 	0.7555	0.0909	0.8946	-0.219
Mof_H 	H 	0.6568	0.043	0.8712	0.105
Mof_C 	C 	0.7585	0.2311	0.8683	0.344
Mof_C 	C 	0.4071	0.4218	0.1218	-0.24
Mof_H 	H 	0.5034	0.4743	0.1429	0.123
Mof_C 	C 	0.4145	0.2816	0.1444	0.375
Mof_N 	N 	0.0654	0.1979	0.7563	-0.207
Mof_C 	C 	0.0927	0.1078	0.706	0.12
Mof_H 	H 	0.1084	0.0306	0.7361	0.017
Mof_C 	C 	0.0999	0.1192	0.6107	-0.195
Mof_H 	H 	0.1188	0.0499	0.5788	0.02
Mof_C 	C 	0.0805	0.2267	0.5634	-0.093
Mof_C 	C 	0.0578	0.3276	0.6181	-0.109
Mof_H 	H 	0.0487	0.4073	0.591	0.065
Mof_C 	C 	0.0489	0.3085	0.712	0.109
Mof_H 	H 	0.0305	0.3759	0.7463	-0.015
Mof_N 	N 	0.1073	0.2788	0.2682	-0.243
Mof_C 	C 	0.9996	0.3156	0.293	-1.962
Mof_H 	H 	0.9298	0.3531	0.245	0.715
Mof_C 	C 	0.9889	0.2994	0.388	1.661
Mof_H 	H 	0.9133	0.3272	0.4023	-0.568
Mof_C 	C 	0.0891	0.2426	0.4613	0.334
Mof_C 	C 	0.1807	0.1843	0.4279	2.458
Mof_H 	H 	0.2388	0.131	0.4692	-0.85
Mof_C 	C 	0.1861	0.2056	0.3316	-2.77
Mof_H 	H 	0.2495	0.1655	0.3112	1.03
Mof_C 	C 	0.955	0.8231	0.7061	3.342
Mof_C 	C 	0.964	0.8404	0.6112	-3.255
Mof_C 	C 	0.833	0.634	0.5588	-1.412
Mof_C 	C 	0.834	0.621	0.6567	1.473
Mof_C 	C 	0.1878	0.203	0.7386	-0.118
Mof_C 	C 	0.1943	0.211	0.6419	0.128
Mof_C 	C 	0.9481	0.204	0.5784	0.039
Mof_C 	C 	0.942	0.19	0.673	-0.088
Mof_H 	H 	0.9974	0.8908	0.7548	-1.144
Mof_H 	H 	0.9868	0.0817	0.3993	1.16
Mof_H 	H 	0.786	0.5692	0.5083	0.532
Mof_H 	H 	0.7931	0.543	0.673	-0.495
Mof_H 	H 	0.2726	0.2007	0.7927	0.066
Mof_H 	H 	0.2809	0.2046	0.6322	-0.01
Mof_H 	H 	0.8628	0.1983	0.5233	0.026
Mof_H 	H 	0.8526	0.1752	0.6813	0.066
Mof_Co	Co	0.41608	0.72966	0.99488	1.157
Mof_Co	Co	0.95832	0.82485	0.10084	1.177
Mof_Co	Co	0.86504	0.68328	0.87343	1.141
Mof_P 	P 	0.16151	0.9029	0.96708	0.456
Mof_P 	P 	0.68524	0.58334	0.0155	0.451
Mof_O 	O 	0.0035	0.8449	0.9517	-0.487
Mof_O 	O 	0.1719	0.0399	0.9336	-0.38
Mof_O 	O 	0.2396	0.8193	0.9257	-0.428
Mof_O 	O 	0.1548	0.9626	0.1507	-0.24
Mof_O 	O 	0.1317	0.7157	0.149	-0.399
Mof_O 	O 	0.3442	0.7131	0.1302	-0.365
Mof_O 	O 	0.8308	0.6646	0.0227	-0.511
Mof_O 	O 	0.5992	0.6482	0.0648	-0.419
Mof_O 	O 	0.7097	0.4496	0.05	-0.406
Mof_O 	O 	0.6836	0.5314	0.83	-0.226
Mof_O 	O 	0.6856	0.7779	0.83	-0.42
Mof_O 	O 	0.4852	0.7666	0.8682	-0.415
Mof_C 	C 	0.2445	0.9091	0.1054	-0.219
Mof_H 	H 	0.3432	0.957	0.1288	0.105
Mof_C 	C 	0.2415	0.7689	0.1317	0.344
Mof_C 	C 	0.5929	0.5782	0.8782	-0.24
Mof_H 	H 	0.4966	0.5257	0.8571	0.123
Mof_C 	C 	0.5855	0.7184	0.8556	0.375
Mof_N 	N 	0.9346	0.8021	0.2437	-0.207
Mof_C 	C 	0.9073	0.8922	0.294	0.12
Mof_H 	H 	0.8916	0.9694	0.2639	0.017
Mof_C 	C 	0.9001	0.8808	0.3893	-0.195
Mof_H 	H 	0.8812	0.9501	0.4212	0.02
Mof_C 	C 	0.9195	0.7733	0.4366	-0.093
Mof_C 	C 	0.9422	0.6724	0.3819	-0.109
Mof_H 	H 	0.9513	0.5927	0.409	0.065
Mof_C 	C 	0.9511	0.6915	0.288	0.109
Mof_H 	H 	0.9695	0.6241	0.2537	-0.015
Mof_N 	N 	0.8927	0.7212	0.7318	-0.243
Mof_C 	C 	0.0004	0.6844	0.707	-1.962
Mof_H 	H 	0.0702	0.6469	0.755	0.715
Mof_C 	C 	0.0111	0.7006	0.612	1.661
Mof_H 	H 	0.0867	0.6728	0.5977	-0.568
Mof_C 	C 	0.9109	0.7574	0.5387	0.334
Mof_C 	C 	0.8193	0.8157	0.5721	2.458
Mof_H 	H 	0.7612	0.869	0.5308	-0.85
Mof_C 	C 	0.8139	0.7944	0.6684	-2.77
Mof_H 	H 	0.7505	0.8345	0.6888	1.03
Mof_C 	C 	0.045	0.1769	0.2939	3.342
Mof_C 	C 	0.036	0.1596	0.3888	-3.255
Mof_C 	C 	0.167	0.366	0.4412	-1.412
Mof_C 	C 	0.166	0.379	0.3433	1.473
Mof_C 	C 	0.8122	0.797	0.2614	-0.118
Mof_C 	C 	0.8057	0.789	0.3581	0.128
Mof_C 	C 	0.0519	0.796	0.4216	0.039
Mof_C 	C 	0.058	0.81	0.327	-0.088
Mof_H 	H 	0.0026	0.1092	0.2452	-1.144
Mof_H 	H 	0.0132	0.9183	0.6007	1.16
Mof_H 	H 	0.214	0.4308	0.4917	0.532
Mof_H 	H 	0.2069	0.457	0.327	-0.495
Mof_H 	H 	0.7274	0.7993	0.2073	0.066
Mof_H 	H 	0.7191	0.7954	0.3678	-0.01
Mof_H 	H 	0.1372	0.8017	0.4767	0.026
Mof_H 	H 	0.1474	0.8248	0.3187	0.066
_end
