data_functionalizedCrystal
_audit_creation_method	'EQeq! by Chris Wilmer'
_symmetry_space_group_name_H-M	'P1'
_symmetry_Int_Tables_number	1
_symmetry_cell_setting	triclinic
loop_
_symmetry_equiv_pos_as_xyz
  x,y,z
_cell_length_a	29.0191
_cell_length_b	29.0191
_cell_length_c	29.0191
_cell_angle_alpha	90
_cell_angle_beta	90
_cell_angle_gamma	90
loop_
_atom_site_label
_atom_site_type_symbol
_atom_site_fract_x
_atom_site_fract_y
_atom_site_fract_z
_atom_site_charge
Mof_O 	O 	0.7428	0.62581	0.79786	-0.459
Mof_C 	C 	0.78715	0.62475	0.79251	0.702
Mof_O 	O 	0.8046	0.62433	0.75177	-0.489
Mof_O 	O 	0.81155	0.62423	0.8289	-0.907
Mof_O 	O 	0.7428	0.12581	0.29786	-0.462
Mof_C 	C 	0.78715	0.12475	0.29251	0.698
Mof_O 	O 	0.8046	0.12433	0.25177	-0.491
Mof_O 	O 	0.81155	0.12423	0.3289	-0.904
Mof_O 	O 	0.2428	0.62581	0.29786	-0.46
Mof_C 	C 	0.28715	0.62475	0.29251	0.698
Mof_O 	O 	0.3046	0.62433	0.25177	-0.489
Mof_O 	O 	0.31155	0.62423	0.3289	-0.902
Mof_O 	O 	0.2428	0.12581	0.79786	-0.462
Mof_C 	C 	0.28715	0.12475	0.79251	0.698
Mof_O 	O 	0.3046	0.12433	0.75177	-0.49
Mof_O 	O 	0.31155	0.12423	0.8289	-0.904
Mof_O 	O 	0.5072	0.12419	0.29786	-0.462
Mof_C 	C 	0.46285	0.12525	0.29251	0.697
Mof_O 	O 	0.4454	0.12567	0.25177	-0.49
Mof_O 	O 	0.43845	0.12577	0.3289	-0.902
Mof_O 	O 	0.5072	0.62419	0.79786	-0.46
Mof_C 	C 	0.46285	0.62525	0.79251	0.7
Mof_O 	O 	0.4454	0.62567	0.75177	-0.489
Mof_O 	O 	0.43845	0.62577	0.8289	-0.905
Mof_O 	O 	0.0072	0.12419	0.79786	-0.487
Mof_C 	C 	0.96285	0.12525	0.79251	0.732
Mof_O 	O 	0.9454	0.12567	0.75177	-0.492
Mof_O 	O 	0.93845	0.12577	0.8289	-0.904
Mof_O 	O 	0.0072	0.62419	0.29786	-0.485
Mof_C 	C 	0.96285	0.62525	0.29251	0.733
Mof_O 	O 	0.9454	0.62567	0.25177	-0.491
Mof_O 	O 	0.93845	0.62577	0.3289	-0.902
Mof_O 	O 	0.0072	0.12581	0.45214	-0.486
Mof_C 	C 	0.96285	0.12475	0.45749	0.731
Mof_O 	O 	0.9454	0.12433	0.49823	-0.491
Mof_O 	O 	0.93845	0.12423	0.4211	-0.901
Mof_O 	O 	0.0072	0.62581	0.95214	-0.478
Mof_C 	C 	0.96285	0.62475	0.95749	0.731
Mof_O 	O 	0.9454	0.62433	0.99823	-0.468
Mof_O 	O 	0.93845	0.62423	0.9211	-0.899
Mof_O 	O 	0.5072	0.12581	0.95214	-0.455
Mof_C 	C 	0.46285	0.12475	0.95749	0.696
Mof_O 	O 	0.4454	0.12433	0.99823	-0.468
Mof_O 	O 	0.43845	0.12423	0.9211	-0.899
Mof_O 	O 	0.5072	0.62581	0.45214	-0.459
Mof_C 	C 	0.46285	0.62475	0.45749	0.698
Mof_O 	O 	0.4454	0.62433	0.49823	-0.488
Mof_O 	O 	0.43845	0.62423	0.4211	-0.902
Mof_O 	O 	0.2428	0.62419	0.95214	-0.453
Mof_C 	C 	0.28715	0.62525	0.95749	0.697
Mof_O 	O 	0.3046	0.62567	0.99823	-0.467
Mof_O 	O 	0.31155	0.62577	0.9211	-0.899
Mof_O 	O 	0.2428	0.12419	0.45214	-0.461
Mof_C 	C 	0.28715	0.12525	0.45749	0.697
Mof_O 	O 	0.3046	0.12567	0.49823	-0.49
Mof_O 	O 	0.31155	0.12577	0.4211	-0.902
Mof_O 	O 	0.7428	0.62419	0.45214	-0.46
Mof_C 	C 	0.78715	0.62525	0.45749	0.7
Mof_O 	O 	0.8046	0.62567	0.49823	-0.489
Mof_O 	O 	0.81155	0.62577	0.4211	-0.905
Mof_O 	O 	0.7428	0.12419	0.95214	-0.455
Mof_C 	C 	0.78715	0.12525	0.95749	0.697
Mof_O 	O 	0.8046	0.12567	0.99823	-0.469
Mof_O 	O 	0.81155	0.12577	0.9211	-0.901
Mof_O 	O 	0.79786	0.7428	0.62581	-0.46
Mof_C 	C 	0.79251	0.78715	0.62475	0.701
Mof_O 	O 	0.75177	0.8046	0.62433	-0.49
Mof_O 	O 	0.8289	0.81155	0.62423	-0.907
Mof_O 	O 	0.79786	0.2428	0.12581	-0.462
Mof_C 	C 	0.79251	0.28715	0.12475	0.698
Mof_O 	O 	0.75177	0.3046	0.12433	-0.49
Mof_O 	O 	0.8289	0.31155	0.12423	-0.904
Mof_O 	O 	0.29786	0.7428	0.12581	-0.462
Mof_C 	C 	0.29251	0.78715	0.12475	0.698
Mof_O 	O 	0.25177	0.8046	0.12433	-0.491
Mof_O 	O 	0.3289	0.81155	0.12423	-0.904
Mof_O 	O 	0.29786	0.2428	0.62581	-0.46
Mof_C 	C 	0.29251	0.28715	0.62475	0.698
Mof_O 	O 	0.25177	0.3046	0.62433	-0.489
Mof_O 	O 	0.3289	0.31155	0.62423	-0.902
Mof_O 	O 	0.29786	0.5072	0.12419	-0.462
Mof_C 	C 	0.29251	0.46285	0.12525	0.697
Mof_O 	O 	0.25177	0.4454	0.12567	-0.49
Mof_O 	O 	0.3289	0.43845	0.12577	-0.902
Mof_O 	O 	0.29786	0.0072	0.62419	-0.485
Mof_C 	C 	0.29251	0.96285	0.62525	0.733
Mof_O 	O 	0.25177	0.9454	0.62567	-0.491
Mof_O 	O 	0.3289	0.93845	0.62577	-0.902
Mof_O 	O 	0.79786	0.5072	0.62419	-0.46
Mof_C 	C 	0.79251	0.46285	0.62525	0.7
Mof_O 	O 	0.75177	0.4454	0.62567	-0.489
Mof_O 	O 	0.8289	0.43845	0.62577	-0.905
Mof_O 	O 	0.79786	0.0072	0.12419	-0.487
Mof_C 	C 	0.79251	0.96285	0.12525	0.732
Mof_O 	O 	0.75177	0.9454	0.12567	-0.492
Mof_O 	O 	0.8289	0.93845	0.12577	-0.904
Mof_O 	O 	0.45214	0.0072	0.12581	-0.486
Mof_C 	C 	0.45749	0.96285	0.12475	0.731
Mof_O 	O 	0.49823	0.9454	0.12433	-0.491
Mof_O 	O 	0.4211	0.93845	0.12423	-0.901
Mof_O 	O 	0.45214	0.5072	0.62581	-0.459
Mof_C 	C 	0.45749	0.46285	0.62475	0.698
Mof_O 	O 	0.49823	0.4454	0.62433	-0.488
Mof_O 	O 	0.4211	0.43845	0.62423	-0.902
Mof_O 	O 	0.95214	0.0072	0.62581	-0.478
Mof_C 	C 	0.95749	0.96285	0.62475	0.731
Mof_O 	O 	0.99823	0.9454	0.62433	-0.468
Mof_O 	O 	0.9211	0.93845	0.62423	-0.899
Mof_O 	O 	0.95214	0.5072	0.12581	-0.455
Mof_C 	C 	0.95749	0.46285	0.12475	0.696
Mof_O 	O 	0.99823	0.4454	0.12433	-0.468
Mof_O 	O 	0.9211	0.43845	0.12423	-0.899
Mof_O 	O 	0.95214	0.2428	0.62419	-0.453
Mof_C 	C 	0.95749	0.28715	0.62525	0.697
Mof_O 	O 	0.99823	0.3046	0.62567	-0.467
Mof_O 	O 	0.9211	0.31155	0.62577	-0.899
Mof_O 	O 	0.95214	0.7428	0.12419	-0.455
Mof_C 	C 	0.95749	0.78715	0.12525	0.697
Mof_O 	O 	0.99823	0.8046	0.12567	-0.469
Mof_O 	O 	0.9211	0.81155	0.12577	-0.901
Mof_O 	O 	0.45214	0.2428	0.12419	-0.461
Mof_C 	C 	0.45749	0.28715	0.12525	0.697
Mof_O 	O 	0.49823	0.3046	0.12567	-0.49
Mof_O 	O 	0.4211	0.31155	0.12577	-0.902
Mof_O 	O 	0.45214	0.7428	0.62419	-0.46
Mof_C 	C 	0.45749	0.78715	0.62525	0.7
Mof_O 	O 	0.49823	0.8046	0.62567	-0.489
Mof_O 	O 	0.4211	0.81155	0.62577	-0.905
Mof_O 	O 	0.62581	0.79786	0.7428	-0.46
Mof_C 	C 	0.62475	0.79251	0.78715	0.701
Mof_O 	O 	0.62433	0.75177	0.8046	-0.49
Mof_O 	O 	0.62423	0.8289	0.81155	-0.907
Mof_O 	O 	0.62581	0.29786	0.2428	-0.46
Mof_C 	C 	0.62475	0.29251	0.28715	0.698
Mof_O 	O 	0.62433	0.25177	0.3046	-0.489
Mof_O 	O 	0.62423	0.3289	0.31155	-0.902
Mof_O 	O 	0.12581	0.79786	0.2428	-0.462
Mof_C 	C 	0.12475	0.79251	0.28715	0.698
Mof_O 	O 	0.12433	0.75177	0.3046	-0.49
Mof_O 	O 	0.12423	0.8289	0.31155	-0.904
Mof_O 	O 	0.12581	0.29786	0.7428	-0.462
Mof_C 	C 	0.12475	0.29251	0.78715	0.698
Mof_O 	O 	0.12433	0.25177	0.8046	-0.491
Mof_O 	O 	0.12423	0.3289	0.81155	-0.904
Mof_O 	O 	0.12419	0.29786	0.5072	-0.462
Mof_C 	C 	0.12525	0.29251	0.46285	0.697
Mof_O 	O 	0.12567	0.25177	0.4454	-0.49
Mof_O 	O 	0.12577	0.3289	0.43845	-0.902
Mof_O 	O 	0.12419	0.79786	0.0072	-0.487
Mof_C 	C 	0.12525	0.79251	0.96285	0.732
Mof_O 	O 	0.12567	0.75177	0.9454	-0.492
Mof_O 	O 	0.12577	0.8289	0.93845	-0.904
Mof_O 	O 	0.62419	0.29786	0.0072	-0.485
Mof_C 	C 	0.62525	0.29251	0.96285	0.733
Mof_O 	O 	0.62567	0.25177	0.9454	-0.491
Mof_O 	O 	0.62577	0.3289	0.93845	-0.902
Mof_O 	O 	0.62419	0.79786	0.5072	-0.46
Mof_C 	C 	0.62525	0.79251	0.46285	0.7
Mof_O 	O 	0.62567	0.75177	0.4454	-0.489
Mof_O 	O 	0.62577	0.8289	0.43845	-0.905
Mof_O 	O 	0.12581	0.45214	0.0072	-0.486
Mof_C 	C 	0.12475	0.45749	0.96285	0.731
Mof_O 	O 	0.12433	0.49823	0.9454	-0.491
Mof_O 	O 	0.12423	0.4211	0.93845	-0.901
Mof_O 	O 	0.12581	0.95214	0.5072	-0.455
Mof_C 	C 	0.12475	0.95749	0.46285	0.696
Mof_O 	O 	0.12433	0.99823	0.4454	-0.468
Mof_O 	O 	0.12423	0.9211	0.43845	-0.899
Mof_O 	O 	0.62581	0.45214	0.5072	-0.459
Mof_C 	C 	0.62475	0.45749	0.46285	0.698
Mof_O 	O 	0.62433	0.49823	0.4454	-0.488
Mof_O 	O 	0.62423	0.4211	0.43845	-0.902
Mof_O 	O 	0.62581	0.95214	0.0072	-0.478
Mof_C 	C 	0.62475	0.95749	0.96285	0.731
Mof_O 	O 	0.62433	0.99823	0.9454	-0.468
Mof_O 	O 	0.62423	0.9211	0.93845	-0.899
Mof_O 	O 	0.62419	0.95214	0.2428	-0.453
Mof_C 	C 	0.62525	0.95749	0.28715	0.697
Mof_O 	O 	0.62567	0.99823	0.3046	-0.467
Mof_O 	O 	0.62577	0.9211	0.31155	-0.899
Mof_O 	O 	0.62419	0.45214	0.7428	-0.46
Mof_C 	C 	0.62525	0.45749	0.78715	0.7
Mof_O 	O 	0.62567	0.49823	0.8046	-0.489
Mof_O 	O 	0.62577	0.4211	0.81155	-0.905
Mof_O 	O 	0.12419	0.95214	0.7428	-0.455
Mof_C 	C 	0.12525	0.95749	0.78715	0.697
Mof_O 	O 	0.12567	0.99823	0.8046	-0.469
Mof_O 	O 	0.12577	0.9211	0.81155	-0.901
Mof_O 	O 	0.12419	0.45214	0.2428	-0.461
Mof_C 	C 	0.12525	0.45749	0.28715	0.697
Mof_O 	O 	0.12567	0.49823	0.3046	-0.49
Mof_O 	O 	0.12577	0.4211	0.31155	-0.902
Mof_O 	O 	0.37581	0.9928	0.20214	-0.423
Mof_C 	C 	0.37475	0.03715	0.20749	0.662
Mof_O 	O 	0.37433	0.0546	0.24823	-0.486
Mof_O 	O 	0.37423	0.06155	0.1711	-0.892
Mof_O 	O 	0.37581	0.4928	0.70214	-0.459
Mof_C 	C 	0.37475	0.53715	0.70749	0.698
Mof_O 	O 	0.37433	0.5546	0.74823	-0.488
Mof_O 	O 	0.37423	0.56155	0.6711	-0.902
Mof_O 	O 	0.87581	0.9928	0.70214	-0.422
Mof_C 	C 	0.87475	0.03715	0.70749	0.664
Mof_O 	O 	0.87433	0.0546	0.74823	-0.485
Mof_O 	O 	0.87423	0.06155	0.6711	-0.894
Mof_O 	O 	0.87581	0.4928	0.20214	-0.456
Mof_C 	C 	0.87475	0.53715	0.20749	0.699
Mof_O 	O 	0.87433	0.5546	0.24823	-0.487
Mof_O 	O 	0.87423	0.56155	0.1711	-0.901
Mof_O 	O 	0.87419	0.7572	0.70214	-0.457
Mof_C 	C 	0.87525	0.71285	0.70749	0.699
Mof_O 	O 	0.87567	0.6954	0.74823	-0.487
Mof_O 	O 	0.87577	0.68845	0.6711	-0.903
Mof_O 	O 	0.87419	0.2572	0.20214	-0.456
Mof_C 	C 	0.87525	0.21285	0.20749	0.698
Mof_O 	O 	0.87567	0.1954	0.24823	-0.486
Mof_O 	O 	0.87577	0.18845	0.1711	-0.9
Mof_O 	O 	0.37419	0.7572	0.20214	-0.458
Mof_C 	C 	0.37525	0.71285	0.20749	0.697
Mof_O 	O 	0.37567	0.6954	0.24823	-0.488
Mof_O 	O 	0.37577	0.68845	0.1711	-0.901
Mof_O 	O 	0.37419	0.2572	0.70214	-0.458
Mof_C 	C 	0.37525	0.21285	0.70749	0.697
Mof_O 	O 	0.37567	0.1954	0.74823	-0.488
Mof_O 	O 	0.37577	0.18845	0.6711	-0.901
Mof_O 	O 	0.87581	0.2572	0.54786	-0.457
Mof_C 	C 	0.87475	0.21285	0.54251	0.699
Mof_O 	O 	0.87433	0.1954	0.50177	-0.487
Mof_O 	O 	0.87423	0.18845	0.5789	-0.901
Mof_O 	O 	0.87581	0.7572	0.04786	-0.463
Mof_C 	C 	0.87475	0.71285	0.04251	0.699
Mof_O 	O 	0.87433	0.6954	0.00177	-0.497
Mof_O 	O 	0.87423	0.68845	0.0789	-0.902
Mof_O 	O 	0.37581	0.2572	0.04786	-0.465
Mof_C 	C 	0.37475	0.21285	0.04251	0.696
Mof_O 	O 	0.37433	0.1954	0.00177	-0.497
Mof_O 	O 	0.37423	0.18845	0.0789	-0.9
Mof_O 	O 	0.37581	0.7572	0.54786	-0.459
Mof_C 	C 	0.37475	0.71285	0.54251	0.698
Mof_O 	O 	0.37433	0.6954	0.50177	-0.488
Mof_O 	O 	0.37423	0.68845	0.5789	-0.902
Mof_O 	O 	0.37419	0.4928	0.04786	-0.465
Mof_C 	C 	0.37525	0.53715	0.04251	0.697
Mof_O 	O 	0.37567	0.5546	0.00177	-0.498
Mof_O 	O 	0.37577	0.56155	0.0789	-0.902
Mof_O 	O 	0.37419	0.9928	0.54786	-0.424
Mof_C 	C 	0.37525	0.03715	0.54251	0.662
Mof_O 	O 	0.37567	0.0546	0.50177	-0.487
Mof_O 	O 	0.37577	0.06155	0.5789	-0.893
Mof_O 	O 	0.87419	0.4928	0.54786	-0.457
Mof_C 	C 	0.87525	0.53715	0.54251	0.699
Mof_O 	O 	0.87567	0.5546	0.50177	-0.487
Mof_O 	O 	0.87577	0.56155	0.5789	-0.903
Mof_O 	O 	0.87419	0.9928	0.04786	-0.429
Mof_C 	C 	0.87525	0.03715	0.04251	0.663
Mof_O 	O 	0.87567	0.0546	0.00177	-0.495
Mof_O 	O 	0.87577	0.06155	0.0789	-0.893
Mof_O 	O 	0.4928	0.04786	0.37419	-0.465
Mof_C 	C 	0.53715	0.04251	0.37525	0.697
Mof_O 	O 	0.5546	0.00177	0.37567	-0.498
Mof_O 	O 	0.56155	0.0789	0.37577	-0.902
Mof_O 	O 	0.4928	0.54786	0.87419	-0.457
Mof_C 	C 	0.53715	0.54251	0.87525	0.699
Mof_O 	O 	0.5546	0.50177	0.87567	-0.487
Mof_O 	O 	0.56155	0.5789	0.87577	-0.903
Mof_O 	O 	0.9928	0.04786	0.87419	-0.429
Mof_C 	C 	0.03715	0.04251	0.87525	0.663
Mof_O 	O 	0.0546	0.00177	0.87567	-0.495
Mof_O 	O 	0.06155	0.0789	0.87577	-0.893
Mof_O 	O 	0.9928	0.54786	0.37419	-0.424
Mof_C 	C 	0.03715	0.54251	0.37525	0.662
Mof_O 	O 	0.0546	0.50177	0.37567	-0.487
Mof_O 	O 	0.06155	0.5789	0.37577	-0.893
Mof_O 	O 	0.2572	0.54786	0.87581	-0.457
Mof_C 	C 	0.21285	0.54251	0.87475	0.699
Mof_O 	O 	0.1954	0.50177	0.87433	-0.487
Mof_O 	O 	0.18845	0.5789	0.87423	-0.901
Mof_O 	O 	0.2572	0.04786	0.37581	-0.465
Mof_C 	C 	0.21285	0.04251	0.37475	0.696
Mof_O 	O 	0.1954	0.00177	0.37433	-0.497
Mof_O 	O 	0.18845	0.0789	0.37423	-0.9
Mof_O 	O 	0.7572	0.54786	0.37581	-0.459
Mof_C 	C 	0.71285	0.54251	0.37475	0.698
Mof_O 	O 	0.6954	0.50177	0.37433	-0.488
Mof_O 	O 	0.68845	0.5789	0.37423	-0.902
Mof_O 	O 	0.7572	0.04786	0.87581	-0.463
Mof_C 	C 	0.71285	0.04251	0.87475	0.699
Mof_O 	O 	0.6954	0.00177	0.87433	-0.497
Mof_O 	O 	0.68845	0.0789	0.87423	-0.902
Mof_O 	O 	0.7572	0.70214	0.87419	-0.457
Mof_C 	C 	0.71285	0.70749	0.87525	0.699
Mof_O 	O 	0.6954	0.74823	0.87567	-0.487
Mof_O 	O 	0.68845	0.6711	0.87577	-0.903
Mof_O 	O 	0.7572	0.20214	0.37419	-0.458
Mof_C 	C 	0.71285	0.20749	0.37525	0.697
Mof_O 	O 	0.6954	0.24823	0.37567	-0.488
Mof_O 	O 	0.68845	0.1711	0.37577	-0.901
Mof_O 	O 	0.2572	0.70214	0.37419	-0.458
Mof_C 	C 	0.21285	0.70749	0.37525	0.697
Mof_O 	O 	0.1954	0.74823	0.37567	-0.488
Mof_O 	O 	0.18845	0.6711	0.37577	-0.901
Mof_O 	O 	0.2572	0.20214	0.87419	-0.456
Mof_C 	C 	0.21285	0.20749	0.87525	0.698
Mof_O 	O 	0.1954	0.24823	0.87567	-0.486
Mof_O 	O 	0.18845	0.1711	0.87577	-0.9
Mof_O 	O 	0.9928	0.20214	0.37581	-0.423
Mof_C 	C 	0.03715	0.20749	0.37475	0.662
Mof_O 	O 	0.0546	0.24823	0.37433	-0.486
Mof_O 	O 	0.06155	0.1711	0.37423	-0.892
Mof_O 	O 	0.9928	0.70214	0.87581	-0.422
Mof_C 	C 	0.03715	0.70749	0.87475	0.664
Mof_O 	O 	0.0546	0.74823	0.87433	-0.485
Mof_O 	O 	0.06155	0.6711	0.87423	-0.894
Mof_O 	O 	0.4928	0.20214	0.87581	-0.456
Mof_C 	C 	0.53715	0.20749	0.87475	0.699
Mof_O 	O 	0.5546	0.24823	0.87433	-0.487
Mof_O 	O 	0.56155	0.1711	0.87423	-0.901
Mof_O 	O 	0.4928	0.70214	0.37581	-0.459
Mof_C 	C 	0.53715	0.70749	0.37475	0.698
Mof_O 	O 	0.5546	0.74823	0.37433	-0.488
Mof_O 	O 	0.56155	0.6711	0.37423	-0.902
Mof_O 	O 	0.54786	0.87581	0.2572	-0.457
Mof_C 	C 	0.54251	0.87475	0.21285	0.699
Mof_O 	O 	0.50177	0.87433	0.1954	-0.487
Mof_O 	O 	0.5789	0.87423	0.18845	-0.901
Mof_O 	O 	0.54786	0.37581	0.7572	-0.459
Mof_C 	C 	0.54251	0.37475	0.71285	0.698
Mof_O 	O 	0.50177	0.37433	0.6954	-0.488
Mof_O 	O 	0.5789	0.37423	0.68845	-0.902
Mof_O 	O 	0.04786	0.87581	0.7572	-0.463
Mof_C 	C 	0.04251	0.87475	0.71285	0.699
Mof_O 	O 	0.00177	0.87433	0.6954	-0.497
Mof_O 	O 	0.0789	0.87423	0.68845	-0.902
Mof_O 	O 	0.04786	0.37581	0.2572	-0.465
Mof_C 	C 	0.04251	0.37475	0.21285	0.696
Mof_O 	O 	0.00177	0.37433	0.1954	-0.497
Mof_O 	O 	0.0789	0.37423	0.18845	-0.9
Mof_O 	O 	0.04786	0.37419	0.4928	-0.465
Mof_C 	C 	0.04251	0.37525	0.53715	0.697
Mof_O 	O 	0.00177	0.37567	0.5546	-0.498
Mof_O 	O 	0.0789	0.37577	0.56155	-0.902
Mof_O 	O 	0.04786	0.87419	0.9928	-0.429
Mof_C 	C 	0.04251	0.87525	0.03715	0.663
Mof_O 	O 	0.00177	0.87567	0.0546	-0.495
Mof_O 	O 	0.0789	0.87577	0.06155	-0.893
Mof_O 	O 	0.54786	0.37419	0.9928	-0.424
Mof_C 	C 	0.54251	0.37525	0.03715	0.662
Mof_O 	O 	0.50177	0.37567	0.0546	-0.487
Mof_O 	O 	0.5789	0.37577	0.06155	-0.893
Mof_O 	O 	0.54786	0.87419	0.4928	-0.457
Mof_C 	C 	0.54251	0.87525	0.53715	0.699
Mof_O 	O 	0.50177	0.87567	0.5546	-0.487
Mof_O 	O 	0.5789	0.87577	0.56155	-0.903
Mof_O 	O 	0.20214	0.37581	0.9928	-0.423
Mof_C 	C 	0.20749	0.37475	0.03715	0.662
Mof_O 	O 	0.24823	0.37433	0.0546	-0.486
Mof_O 	O 	0.1711	0.37423	0.06155	-0.892
Mof_O 	O 	0.20214	0.87581	0.4928	-0.456
Mof_C 	C 	0.20749	0.87475	0.53715	0.699
Mof_O 	O 	0.24823	0.87433	0.5546	-0.487
Mof_O 	O 	0.1711	0.87423	0.56155	-0.901
Mof_O 	O 	0.70214	0.37581	0.4928	-0.459
Mof_C 	C 	0.70749	0.37475	0.53715	0.698
Mof_O 	O 	0.74823	0.37433	0.5546	-0.488
Mof_O 	O 	0.6711	0.37423	0.56155	-0.902
Mof_O 	O 	0.70214	0.87581	0.9928	-0.422
Mof_C 	C 	0.70749	0.87475	0.03715	0.664
Mof_O 	O 	0.74823	0.87433	0.0546	-0.485
Mof_O 	O 	0.6711	0.87423	0.06155	-0.894
Mof_O 	O 	0.70214	0.87419	0.7572	-0.457
Mof_C 	C 	0.70749	0.87525	0.71285	0.699
Mof_O 	O 	0.74823	0.87567	0.6954	-0.487
Mof_O 	O 	0.6711	0.87577	0.68845	-0.903
Mof_O 	O 	0.70214	0.37419	0.2572	-0.458
Mof_C 	C 	0.70749	0.37525	0.21285	0.697
Mof_O 	O 	0.74823	0.37567	0.1954	-0.488
Mof_O 	O 	0.6711	0.37577	0.18845	-0.901
Mof_O 	O 	0.20214	0.87419	0.2572	-0.456
Mof_C 	C 	0.20749	0.87525	0.21285	0.698
Mof_O 	O 	0.24823	0.87567	0.1954	-0.486
Mof_O 	O 	0.1711	0.87577	0.18845	-0.9
Mof_O 	O 	0.20214	0.37419	0.7572	-0.458
Mof_C 	C 	0.20749	0.37525	0.71285	0.697
Mof_O 	O 	0.24823	0.37567	0.6954	-0.488
Mof_O 	O 	0.1711	0.37577	0.68845	-0.901
Mof_O 	O 	0.2572	0.37419	0.20214	-0.458
Mof_C 	C 	0.21285	0.37525	0.20749	0.696
Mof_O 	O 	0.1954	0.37567	0.24823	-0.488
Mof_O 	O 	0.18845	0.37577	0.1711	-0.899
Mof_O 	O 	0.2572	0.87419	0.70214	-0.456
Mof_C 	C 	0.21285	0.87525	0.70749	0.698
Mof_O 	O 	0.1954	0.87567	0.74823	-0.486
Mof_O 	O 	0.18845	0.87577	0.6711	-0.901
Mof_O 	O 	0.7572	0.37419	0.70214	-0.459
Mof_C 	C 	0.71285	0.37525	0.70749	0.698
Mof_O 	O 	0.6954	0.37567	0.74823	-0.488
Mof_O 	O 	0.68845	0.37577	0.6711	-0.902
Mof_O 	O 	0.7572	0.87419	0.20214	-0.456
Mof_C 	C 	0.71285	0.87525	0.20749	0.699
Mof_O 	O 	0.6954	0.87567	0.24823	-0.487
Mof_O 	O 	0.68845	0.87577	0.1711	-0.901
Mof_O 	O 	0.4928	0.87581	0.70214	-0.457
Mof_C 	C 	0.53715	0.87475	0.70749	0.699
Mof_O 	O 	0.5546	0.87433	0.74823	-0.487
Mof_O 	O 	0.56155	0.87423	0.6711	-0.903
Mof_O 	O 	0.4928	0.37581	0.20214	-0.458
Mof_C 	C 	0.53715	0.37475	0.20749	0.697
Mof_O 	O 	0.5546	0.37433	0.24823	-0.488
Mof_O 	O 	0.56155	0.37423	0.1711	-0.901
Mof_O 	O 	0.9928	0.87581	0.20214	-0.422
Mof_C 	C 	0.03715	0.87475	0.20749	0.663
Mof_O 	O 	0.0546	0.87433	0.24823	-0.485
Mof_O 	O 	0.06155	0.87423	0.1711	-0.892
Mof_O 	O 	0.9928	0.37581	0.70214	-0.424
Mof_C 	C 	0.03715	0.37475	0.70749	0.662
Mof_O 	O 	0.0546	0.37433	0.74823	-0.486
Mof_O 	O 	0.06155	0.37423	0.6711	-0.893
Mof_O 	O 	0.9928	0.87419	0.54786	-0.422
Mof_C 	C 	0.03715	0.87525	0.54251	0.664
Mof_O 	O 	0.0546	0.87567	0.50177	-0.485
Mof_O 	O 	0.06155	0.87577	0.5789	-0.894
Mof_O 	O 	0.9928	0.37419	0.04786	-0.43
Mof_C 	C 	0.03715	0.37525	0.04251	0.662
Mof_O 	O 	0.0546	0.37567	0.00177	-0.496
Mof_O 	O 	0.06155	0.37577	0.0789	-0.893
Mof_O 	O 	0.4928	0.87419	0.04786	-0.463
Mof_C 	C 	0.53715	0.87525	0.04251	0.699
Mof_O 	O 	0.5546	0.87567	0.00177	-0.497
Mof_O 	O 	0.56155	0.87577	0.0789	-0.902
Mof_O 	O 	0.4928	0.37419	0.54786	-0.459
Mof_C 	C 	0.53715	0.37525	0.54251	0.698
Mof_O 	O 	0.5546	0.37567	0.50177	-0.488
Mof_O 	O 	0.56155	0.37577	0.5789	-0.902
Mof_O 	O 	0.7572	0.37581	0.04786	-0.465
Mof_C 	C 	0.71285	0.37475	0.04251	0.697
Mof_O 	O 	0.6954	0.37433	0.00177	-0.498
Mof_O 	O 	0.68845	0.37423	0.0789	-0.902
Mof_O 	O 	0.7572	0.87581	0.54786	-0.457
Mof_C 	C 	0.71285	0.87475	0.54251	0.699
Mof_O 	O 	0.6954	0.87433	0.50177	-0.487
Mof_O 	O 	0.68845	0.87423	0.5789	-0.903
Mof_O 	O 	0.2572	0.37581	0.54786	-0.459
Mof_C 	C 	0.21285	0.37475	0.54251	0.697
Mof_O 	O 	0.1954	0.37433	0.50177	-0.488
Mof_O 	O 	0.18845	0.37423	0.5789	-0.901
Mof_O 	O 	0.2572	0.87581	0.04786	-0.463
Mof_C 	C 	0.21285	0.87475	0.04251	0.698
Mof_O 	O 	0.1954	0.87433	0.00177	-0.496
Mof_O 	O 	0.18845	0.87423	0.0789	-0.901
Mof_O 	O 	0.20214	0.2572	0.37419	-0.458
Mof_C 	C 	0.20749	0.21285	0.37525	0.696
Mof_O 	O 	0.24823	0.1954	0.37567	-0.488
Mof_O 	O 	0.1711	0.18845	0.37577	-0.899
Mof_O 	O 	0.20214	0.7572	0.87419	-0.456
Mof_C 	C 	0.20749	0.71285	0.87525	0.699
Mof_O 	O 	0.24823	0.6954	0.87567	-0.487
Mof_O 	O 	0.1711	0.68845	0.87577	-0.901
Mof_O 	O 	0.70214	0.2572	0.87419	-0.456
Mof_C 	C 	0.70749	0.21285	0.87525	0.698
Mof_O 	O 	0.74823	0.1954	0.87567	-0.486
Mof_O 	O 	0.6711	0.18845	0.87577	-0.901
Mof_O 	O 	0.70214	0.7572	0.37419	-0.459
Mof_C 	C 	0.70749	0.71285	0.37525	0.698
Mof_O 	O 	0.74823	0.6954	0.37567	-0.488
Mof_O 	O 	0.6711	0.68845	0.37577	-0.902
Mof_O 	O 	0.70214	0.4928	0.87581	-0.457
Mof_C 	C 	0.70749	0.53715	0.87475	0.699
Mof_O 	O 	0.74823	0.5546	0.87433	-0.487
Mof_O 	O 	0.6711	0.56155	0.87423	-0.903
Mof_O 	O 	0.70214	0.9928	0.37581	-0.424
Mof_C 	C 	0.70749	0.03715	0.37475	0.662
Mof_O 	O 	0.74823	0.0546	0.37433	-0.486
Mof_O 	O 	0.6711	0.06155	0.37423	-0.893
Mof_O 	O 	0.20214	0.4928	0.37581	-0.458
Mof_C 	C 	0.20749	0.53715	0.37475	0.697
Mof_O 	O 	0.24823	0.5546	0.37433	-0.488
Mof_O 	O 	0.1711	0.56155	0.37423	-0.901
Mof_O 	O 	0.20214	0.9928	0.87581	-0.422
Mof_C 	C 	0.20749	0.03715	0.87475	0.663
Mof_O 	O 	0.24823	0.0546	0.87433	-0.485
Mof_O 	O 	0.1711	0.06155	0.87423	-0.892
Mof_O 	O 	0.54786	0.9928	0.87419	-0.422
Mof_C 	C 	0.54251	0.03715	0.87525	0.664
Mof_O 	O 	0.50177	0.0546	0.87567	-0.485
Mof_O 	O 	0.5789	0.06155	0.87577	-0.894
Mof_O 	O 	0.54786	0.4928	0.37419	-0.459
Mof_C 	C 	0.54251	0.53715	0.37525	0.698
Mof_O 	O 	0.50177	0.5546	0.37567	-0.488
Mof_O 	O 	0.5789	0.56155	0.37577	-0.902
Mof_O 	O 	0.04786	0.9928	0.37419	-0.43
Mof_C 	C 	0.04251	0.03715	0.37525	0.662
Mof_O 	O 	0.00177	0.0546	0.37567	-0.496
Mof_O 	O 	0.0789	0.06155	0.37577	-0.893
Mof_O 	O 	0.04786	0.4928	0.87419	-0.463
Mof_C 	C 	0.04251	0.53715	0.87525	0.699
Mof_O 	O 	0.00177	0.5546	0.87567	-0.497
Mof_O 	O 	0.0789	0.56155	0.87577	-0.902
Mof_O 	O 	0.04786	0.7572	0.37581	-0.465
Mof_C 	C 	0.04251	0.71285	0.37475	0.697
Mof_O 	O 	0.00177	0.6954	0.37433	-0.498
Mof_O 	O 	0.0789	0.68845	0.37423	-0.902
Mof_O 	O 	0.04786	0.2572	0.87581	-0.463
Mof_C 	C 	0.04251	0.21285	0.87475	0.698
Mof_O 	O 	0.00177	0.1954	0.87433	-0.496
Mof_O 	O 	0.0789	0.18845	0.87423	-0.901
Mof_O 	O 	0.54786	0.7572	0.87581	-0.457
Mof_C 	C 	0.54251	0.71285	0.87475	0.699
Mof_O 	O 	0.50177	0.6954	0.87433	-0.487
Mof_O 	O 	0.5789	0.68845	0.87423	-0.903
Mof_O 	O 	0.54786	0.2572	0.37581	-0.459
Mof_C 	C 	0.54251	0.21285	0.37475	0.697
Mof_O 	O 	0.50177	0.1954	0.37433	-0.488
Mof_O 	O 	0.5789	0.18845	0.37423	-0.901
Mof_O 	O 	0.37419	0.20214	0.2572	-0.458
Mof_C 	C 	0.37525	0.20749	0.21285	0.696
Mof_O 	O 	0.37567	0.24823	0.1954	-0.488
Mof_O 	O 	0.37577	0.1711	0.18845	-0.899
Mof_O 	O 	0.37419	0.70214	0.7572	-0.459
Mof_C 	C 	0.37525	0.70749	0.71285	0.698
Mof_O 	O 	0.37567	0.74823	0.6954	-0.488
Mof_O 	O 	0.37577	0.6711	0.68845	-0.902
Mof_O 	O 	0.87419	0.20214	0.7572	-0.456
Mof_C 	C 	0.87525	0.20749	0.71285	0.699
Mof_O 	O 	0.87567	0.24823	0.6954	-0.487
Mof_O 	O 	0.87577	0.1711	0.68845	-0.901
Mof_O 	O 	0.87419	0.70214	0.2572	-0.456
Mof_C 	C 	0.87525	0.70749	0.21285	0.698
Mof_O 	O 	0.87567	0.74823	0.1954	-0.486
Mof_O 	O 	0.87577	0.6711	0.18845	-0.901
Mof_O 	O 	0.87581	0.70214	0.4928	-0.457
Mof_C 	C 	0.87475	0.70749	0.53715	0.699
Mof_O 	O 	0.87433	0.74823	0.5546	-0.487
Mof_O 	O 	0.87423	0.6711	0.56155	-0.903
Mof_O 	O 	0.87581	0.20214	0.9928	-0.422
Mof_C 	C 	0.87475	0.20749	0.03715	0.663
Mof_O 	O 	0.87433	0.24823	0.0546	-0.485
Mof_O 	O 	0.87423	0.1711	0.06155	-0.892
Mof_O 	O 	0.37581	0.70214	0.9928	-0.424
Mof_C 	C 	0.37475	0.70749	0.03715	0.662
Mof_O 	O 	0.37433	0.74823	0.0546	-0.486
Mof_O 	O 	0.37423	0.6711	0.06155	-0.893
Mof_O 	O 	0.37581	0.20214	0.4928	-0.458
Mof_C 	C 	0.37475	0.20749	0.53715	0.697
Mof_O 	O 	0.37433	0.24823	0.5546	-0.488
Mof_O 	O 	0.37423	0.1711	0.56155	-0.901
Mof_O 	O 	0.87419	0.54786	0.9928	-0.422
Mof_C 	C 	0.87525	0.54251	0.03715	0.664
Mof_O 	O 	0.87567	0.50177	0.0546	-0.485
Mof_O 	O 	0.87577	0.5789	0.06155	-0.894
Mof_O 	O 	0.87419	0.04786	0.4928	-0.463
Mof_C 	C 	0.87525	0.04251	0.53715	0.699
Mof_O 	O 	0.87567	0.00177	0.5546	-0.497
Mof_O 	O 	0.87577	0.0789	0.56155	-0.902
Mof_O 	O 	0.37419	0.54786	0.4928	-0.459
Mof_C 	C 	0.37525	0.54251	0.53715	0.698
Mof_O 	O 	0.37567	0.50177	0.5546	-0.488
Mof_O 	O 	0.37577	0.5789	0.56155	-0.902
Mof_O 	O 	0.37419	0.04786	0.9928	-0.43
Mof_C 	C 	0.37525	0.04251	0.03715	0.662
Mof_O 	O 	0.37567	0.00177	0.0546	-0.496
Mof_O 	O 	0.37577	0.0789	0.06155	-0.893
Mof_O 	O 	0.37581	0.04786	0.7572	-0.465
Mof_C 	C 	0.37475	0.04251	0.71285	0.697
Mof_O 	O 	0.37433	0.00177	0.6954	-0.498
Mof_O 	O 	0.37423	0.0789	0.68845	-0.902
Mof_O 	O 	0.37581	0.54786	0.2572	-0.459
Mof_C 	C 	0.37475	0.54251	0.21285	0.697
Mof_O 	O 	0.37433	0.50177	0.1954	-0.488
Mof_O 	O 	0.37423	0.5789	0.18845	-0.901
Mof_O 	O 	0.87581	0.04786	0.2572	-0.463
Mof_C 	C 	0.87475	0.04251	0.21285	0.698
Mof_O 	O 	0.87433	0.00177	0.1954	-0.496
Mof_O 	O 	0.87423	0.0789	0.18845	-0.901
Mof_O 	O 	0.87581	0.54786	0.7572	-0.457
Mof_C 	C 	0.87475	0.54251	0.71285	0.699
Mof_O 	O 	0.87433	0.50177	0.6954	-0.487
Mof_O 	O 	0.87423	0.5789	0.68845	-0.903
Mof_O 	O 	0.62419	0.0072	0.79786	-0.485
Mof_C 	C 	0.62525	0.96285	0.79251	0.734
Mof_O 	O 	0.62567	0.9454	0.75177	-0.491
Mof_O 	O 	0.62577	0.93845	0.8289	-0.904
Mof_O 	O 	0.62419	0.5072	0.29786	-0.46
Mof_C 	C 	0.62525	0.46285	0.29251	0.698
Mof_O 	O 	0.62567	0.4454	0.25177	-0.489
Mof_O 	O 	0.62577	0.43845	0.3289	-0.902
Mof_O 	O 	0.12419	0.0072	0.29786	-0.487
Mof_C 	C 	0.12525	0.96285	0.29251	0.731
Mof_O 	O 	0.12567	0.9454	0.25177	-0.492
Mof_O 	O 	0.12577	0.93845	0.3289	-0.901
Mof_O 	O 	0.12419	0.5072	0.79786	-0.462
Mof_C 	C 	0.12525	0.46285	0.79251	0.698
Mof_O 	O 	0.12567	0.4454	0.75177	-0.49
Mof_O 	O 	0.12577	0.43845	0.8289	-0.904
Mof_O 	O 	0.12581	0.2428	0.29786	-0.462
Mof_C 	C 	0.12475	0.28715	0.29251	0.697
Mof_O 	O 	0.12433	0.3046	0.25177	-0.49
Mof_O 	O 	0.12423	0.31155	0.3289	-0.902
Mof_O 	O 	0.12581	0.7428	0.79786	-0.462
Mof_C 	C 	0.12475	0.78715	0.79251	0.699
Mof_O 	O 	0.12433	0.8046	0.75177	-0.491
Mof_O 	O 	0.12423	0.81155	0.8289	-0.907
Mof_O 	O 	0.62581	0.2428	0.79786	-0.46
Mof_C 	C 	0.62475	0.28715	0.79251	0.7
Mof_O 	O 	0.62433	0.3046	0.75177	-0.489
Mof_O 	O 	0.62423	0.31155	0.8289	-0.905
Mof_O 	O 	0.62581	0.7428	0.29786	-0.46
Mof_C 	C 	0.62475	0.78715	0.29251	0.7
Mof_O 	O 	0.62433	0.8046	0.25177	-0.49
Mof_O 	O 	0.62423	0.81155	0.3289	-0.905
Mof_O 	O 	0.12419	0.7428	0.45214	-0.462
Mof_C 	C 	0.12525	0.78715	0.45749	0.698
Mof_O 	O 	0.12567	0.8046	0.49823	-0.49
Mof_O 	O 	0.12577	0.81155	0.4211	-0.904
Mof_O 	O 	0.12419	0.2428	0.95214	-0.455
Mof_C 	C 	0.12525	0.28715	0.95749	0.696
Mof_O 	O 	0.12567	0.3046	0.99823	-0.468
Mof_O 	O 	0.12577	0.31155	0.9211	-0.899
Mof_O 	O 	0.62419	0.7428	0.95214	-0.453
Mof_C 	C 	0.62525	0.78715	0.95749	0.698
Mof_O 	O 	0.62567	0.8046	0.99823	-0.467
Mof_O 	O 	0.62577	0.81155	0.9211	-0.902
Mof_O 	O 	0.62419	0.2428	0.45214	-0.459
Mof_C 	C 	0.62525	0.28715	0.45749	0.698
Mof_O 	O 	0.62567	0.3046	0.49823	-0.489
Mof_O 	O 	0.62577	0.31155	0.4211	-0.902
Mof_O 	O 	0.62581	0.5072	0.95214	-0.453
Mof_C 	C 	0.62475	0.46285	0.95749	0.697
Mof_O 	O 	0.62433	0.4454	0.99823	-0.466
Mof_O 	O 	0.62423	0.43845	0.9211	-0.899
Mof_O 	O 	0.62581	0.0072	0.45214	-0.484
Mof_C 	C 	0.62475	0.96285	0.45749	0.733
Mof_O 	O 	0.62433	0.9454	0.49823	-0.49
Mof_O 	O 	0.62423	0.93845	0.4211	-0.902
Mof_O 	O 	0.12581	0.5072	0.45214	-0.461
Mof_C 	C 	0.12475	0.46285	0.45749	0.697
Mof_O 	O 	0.12433	0.4454	0.49823	-0.49
Mof_O 	O 	0.12423	0.43845	0.4211	-0.902
Mof_O 	O 	0.12581	0.0072	0.95214	-0.48
Mof_C 	C 	0.12475	0.96285	0.95749	0.729
Mof_O 	O 	0.12433	0.9454	0.99823	-0.47
Mof_O 	O 	0.12423	0.93845	0.9211	-0.898
Mof_O 	O 	0.5072	0.95214	0.62581	-0.453
Mof_C 	C 	0.46285	0.95749	0.62475	0.697
Mof_O 	O 	0.4454	0.99823	0.62433	-0.466
Mof_O 	O 	0.43845	0.9211	0.62423	-0.899
Mof_O 	O 	0.5072	0.45214	0.12581	-0.461
Mof_C 	C 	0.46285	0.45749	0.12475	0.697
Mof_O 	O 	0.4454	0.49823	0.12433	-0.49
Mof_O 	O 	0.43845	0.4211	0.12423	-0.902
Mof_O 	O 	0.0072	0.95214	0.12581	-0.48
Mof_C 	C 	0.96285	0.95749	0.12475	0.729
Mof_O 	O 	0.9454	0.99823	0.12433	-0.47
Mof_O 	O 	0.93845	0.9211	0.12423	-0.898
Mof_O 	O 	0.0072	0.45214	0.62581	-0.484
Mof_C 	C 	0.96285	0.45749	0.62475	0.733
Mof_O 	O 	0.9454	0.49823	0.62433	-0.49
Mof_O 	O 	0.93845	0.4211	0.62423	-0.902
Mof_O 	O 	0.7428	0.45214	0.12419	-0.462
Mof_C 	C 	0.78715	0.45749	0.12525	0.698
Mof_O 	O 	0.8046	0.49823	0.12567	-0.49
Mof_O 	O 	0.81155	0.4211	0.12577	-0.904
Mof_O 	O 	0.7428	0.95214	0.62419	-0.453
Mof_C 	C 	0.78715	0.95749	0.62525	0.698
Mof_O 	O 	0.8046	0.99823	0.62567	-0.467
Mof_O 	O 	0.81155	0.9211	0.62577	-0.902
Mof_O 	O 	0.2428	0.45214	0.62419	-0.459
Mof_C 	C 	0.28715	0.45749	0.62525	0.698
Mof_O 	O 	0.3046	0.49823	0.62567	-0.489
Mof_O 	O 	0.31155	0.4211	0.62577	-0.902
Mof_O 	O 	0.2428	0.95214	0.12419	-0.455
Mof_C 	C 	0.28715	0.95749	0.12525	0.696
Mof_O 	O 	0.3046	0.99823	0.12567	-0.468
Mof_O 	O 	0.31155	0.9211	0.12577	-0.899
Mof_O 	O 	0.2428	0.29786	0.12581	-0.462
Mof_C 	C 	0.28715	0.29251	0.12475	0.697
Mof_O 	O 	0.3046	0.25177	0.12433	-0.49
Mof_O 	O 	0.31155	0.3289	0.12423	-0.902
Mof_O 	O 	0.2428	0.79786	0.62581	-0.46
Mof_C 	C 	0.28715	0.79251	0.62475	0.7
Mof_O 	O 	0.3046	0.75177	0.62433	-0.489
Mof_O 	O 	0.31155	0.8289	0.62423	-0.905
Mof_O 	O 	0.7428	0.29786	0.62581	-0.46
Mof_C 	C 	0.78715	0.29251	0.62475	0.7
Mof_O 	O 	0.8046	0.25177	0.62433	-0.49
Mof_O 	O 	0.81155	0.3289	0.62423	-0.905
Mof_O 	O 	0.7428	0.79786	0.12581	-0.462
Mof_C 	C 	0.78715	0.79251	0.12475	0.699
Mof_O 	O 	0.8046	0.75177	0.12433	-0.491
Mof_O 	O 	0.81155	0.8289	0.12423	-0.907
Mof_O 	O 	0.0072	0.79786	0.62419	-0.485
Mof_C 	C 	0.96285	0.79251	0.62525	0.734
Mof_O 	O 	0.9454	0.75177	0.62567	-0.491
Mof_O 	O 	0.93845	0.8289	0.62577	-0.904
Mof_O 	O 	0.0072	0.29786	0.12419	-0.487
Mof_C 	C 	0.96285	0.29251	0.12525	0.731
Mof_O 	O 	0.9454	0.25177	0.12567	-0.492
Mof_O 	O 	0.93845	0.3289	0.12577	-0.901
Mof_O 	O 	0.5072	0.79786	0.12419	-0.462
Mof_C 	C 	0.46285	0.79251	0.12525	0.698
Mof_O 	O 	0.4454	0.75177	0.12567	-0.49
Mof_O 	O 	0.43845	0.8289	0.12577	-0.904
Mof_O 	O 	0.5072	0.29786	0.62419	-0.46
Mof_C 	C 	0.46285	0.29251	0.62525	0.698
Mof_O 	O 	0.4454	0.25177	0.62567	-0.489
Mof_O 	O 	0.43845	0.3289	0.62577	-0.902
Mof_O 	O 	0.45214	0.12419	0.7428	-0.462
Mof_C 	C 	0.45749	0.12525	0.78715	0.698
Mof_O 	O 	0.49823	0.12567	0.8046	-0.49
Mof_O 	O 	0.4211	0.12577	0.81155	-0.904
Mof_O 	O 	0.45214	0.62419	0.2428	-0.459
Mof_C 	C 	0.45749	0.62525	0.28715	0.698
Mof_O 	O 	0.49823	0.62567	0.3046	-0.489
Mof_O 	O 	0.4211	0.62577	0.31155	-0.902
Mof_O 	O 	0.95214	0.12419	0.2428	-0.455
Mof_C 	C 	0.95749	0.12525	0.28715	0.696
Mof_O 	O 	0.99823	0.12567	0.3046	-0.468
Mof_O 	O 	0.9211	0.12577	0.31155	-0.899
Mof_O 	O 	0.95214	0.62419	0.7428	-0.453
Mof_C 	C 	0.95749	0.62525	0.78715	0.698
Mof_O 	O 	0.99823	0.62567	0.8046	-0.467
Mof_O 	O 	0.9211	0.62577	0.81155	-0.902
Mof_O 	O 	0.95214	0.62581	0.5072	-0.453
Mof_C 	C 	0.95749	0.62475	0.46285	0.697
Mof_O 	O 	0.99823	0.62433	0.4454	-0.466
Mof_O 	O 	0.9211	0.62423	0.43845	-0.899
Mof_O 	O 	0.95214	0.12581	0.0072	-0.48
Mof_C 	C 	0.95749	0.12475	0.96285	0.729
Mof_O 	O 	0.99823	0.12433	0.9454	-0.47
Mof_O 	O 	0.9211	0.12423	0.93845	-0.898
Mof_O 	O 	0.45214	0.62581	0.0072	-0.484
Mof_C 	C 	0.45749	0.62475	0.96285	0.733
Mof_O 	O 	0.49823	0.62433	0.9454	-0.49
Mof_O 	O 	0.4211	0.62423	0.93845	-0.902
Mof_O 	O 	0.45214	0.12581	0.5072	-0.461
Mof_C 	C 	0.45749	0.12475	0.46285	0.697
Mof_O 	O 	0.49823	0.12433	0.4454	-0.49
Mof_O 	O 	0.4211	0.12423	0.43845	-0.902
Mof_O 	O 	0.79786	0.62419	0.0072	-0.485
Mof_C 	C 	0.79251	0.62525	0.96285	0.734
Mof_O 	O 	0.75177	0.62567	0.9454	-0.491
Mof_O 	O 	0.8289	0.62577	0.93845	-0.904
Mof_O 	O 	0.79786	0.12419	0.5072	-0.462
Mof_C 	C 	0.79251	0.12525	0.46285	0.698
Mof_O 	O 	0.75177	0.12567	0.4454	-0.49
Mof_O 	O 	0.8289	0.12577	0.43845	-0.904
Mof_O 	O 	0.29786	0.62419	0.5072	-0.46
Mof_C 	C 	0.29251	0.62525	0.46285	0.698
Mof_O 	O 	0.25177	0.62567	0.4454	-0.489
Mof_O 	O 	0.3289	0.62577	0.43845	-0.902
Mof_O 	O 	0.29786	0.12419	0.0072	-0.487
Mof_C 	C 	0.29251	0.12525	0.96285	0.731
Mof_O 	O 	0.25177	0.12567	0.9454	-0.492
Mof_O 	O 	0.3289	0.12577	0.93845	-0.901
Mof_O 	O 	0.29786	0.12581	0.2428	-0.462
Mof_C 	C 	0.29251	0.12475	0.28715	0.697
Mof_O 	O 	0.25177	0.12433	0.3046	-0.49
Mof_O 	O 	0.3289	0.12423	0.31155	-0.902
Mof_O 	O 	0.29786	0.62581	0.7428	-0.46
Mof_C 	C 	0.29251	0.62475	0.78715	0.7
Mof_O 	O 	0.25177	0.62433	0.8046	-0.49
Mof_O 	O 	0.3289	0.62423	0.81155	-0.905
Mof_O 	O 	0.79786	0.12581	0.7428	-0.462
Mof_C 	C 	0.79251	0.12475	0.78715	0.699
Mof_O 	O 	0.75177	0.12433	0.8046	-0.491
Mof_O 	O 	0.8289	0.12423	0.81155	-0.907
Mof_O 	O 	0.79786	0.62581	0.2428	-0.46
Mof_C 	C 	0.79251	0.62475	0.28715	0.7
Mof_O 	O 	0.75177	0.62433	0.3046	-0.489
Mof_O 	O 	0.8289	0.62423	0.31155	-0.905
Mof_Fe	Fe	0.75	0.6265	0.8735	0.718
Mof_Fe	Fe	0.75	0.1265	0.3735	0.715
Mof_Fe	Fe	0.25	0.6265	0.3735	0.717
Mof_Fe	Fe	0.25	0.1265	0.8735	0.717
Mof_Fe	Fe	0.5	0.1235	0.3735	0.716
Mof_Fe	Fe	0.5	0.6235	0.8735	0.718
Mof_Fe	Fe	3.2751e-33	0.1235	0.8735	0.678
Mof_Fe	Fe	1.4004e-33	0.6235	0.3735	0.676
Mof_Fe	Fe	1.41165e-33	0.1265	0.3765	0.675
Mof_Fe	Fe	3.28635e-33	0.6265	0.8765	0.677
Mof_Fe	Fe	0.5	0.1265	0.8765	0.716
Mof_Fe	Fe	0.5	0.6265	0.3765	0.717
Mof_Fe	Fe	0.25	0.6235	0.8765	0.717
Mof_Fe	Fe	0.25	0.1235	0.3765	0.717
Mof_Fe	Fe	0.75	0.6235	0.3765	0.717
Mof_Fe	Fe	0.75	0.1235	0.8765	0.717
Mof_Fe	Fe	0.8735	0.75	0.6265	0.718
Mof_Fe	Fe	0.8735	0.25	0.1265	0.717
Mof_Fe	Fe	0.3735	0.75	0.1265	0.715
Mof_Fe	Fe	0.3735	0.25	0.6265	0.717
Mof_Fe	Fe	0.3735	0.5	0.1235	0.716
Mof_Fe	Fe	0.3735	0	0.6235	0.676
Mof_Fe	Fe	0.8735	0.5	0.6235	0.718
Mof_Fe	Fe	0.8735	0	0.1235	0.678
Mof_Fe	Fe	0.3765	0	0.1265	0.675
Mof_Fe	Fe	0.3765	0.5	0.6265	0.717
Mof_Fe	Fe	0.8765	-8.26397e-33	0.6265	0.677
Mof_Fe	Fe	0.8765	0.5	0.1265	0.716
Mof_Fe	Fe	0.8765	0.25	0.6235	0.717
Mof_Fe	Fe	0.8765	0.75	0.1235	0.717
Mof_Fe	Fe	0.3765	0.25	0.1235	0.717
Mof_Fe	Fe	0.3765	0.75	0.6235	0.717
Mof_Fe	Fe	0.6265	0.8735	0.75	0.718
Mof_Fe	Fe	0.6265	0.3735	0.25	0.717
Mof_Fe	Fe	0.1265	0.8735	0.25	0.717
Mof_Fe	Fe	0.1265	0.3735	0.75	0.715
Mof_Fe	Fe	0.1235	0.3735	0.5	0.716
Mof_Fe	Fe	0.1235	0.8735	-0	0.678
Mof_Fe	Fe	0.6235	0.3735	-0	0.676
Mof_Fe	Fe	0.6235	0.8735	0.5	0.718
Mof_Fe	Fe	0.1265	0.3765	-0	0.675
Mof_Fe	Fe	0.1265	0.8765	0.5	0.716
Mof_Fe	Fe	0.6265	0.3765	0.5	0.717
Mof_Fe	Fe	0.6265	0.8765	-0	0.677
Mof_Fe	Fe	0.6235	0.8765	0.25	0.717
Mof_Fe	Fe	0.6235	0.3765	0.75	0.717
Mof_Fe	Fe	0.1235	0.8765	0.75	0.717
Mof_Fe	Fe	0.1235	0.3765	0.25	0.717
Mof_Fe	Fe	0.25	0.3735	0.1265	0.716
Mof_Fe	Fe	0.25	0.8735	0.6265	0.718
Mof_Fe	Fe	0.75	0.3735	0.6265	0.717
Mof_Fe	Fe	0.75	0.8735	0.1265	0.717
Mof_Fe	Fe	0.5	0.8765	0.6265	0.717
Mof_Fe	Fe	0.5	0.3765	0.1265	0.716
Mof_Fe	Fe	4.60628e-33	0.8765	0.1265	0.676
Mof_Fe	Fe	-5.91497e-33	0.3765	0.6265	0.676
Mof_Fe	Fe	1.06017e-32	0.8735	0.6235	0.678
Mof_Fe	Fe	-5.69945e-34	0.3735	0.1235	0.676
Mof_Fe	Fe	0.5	0.8735	0.1235	0.718
Mof_Fe	Fe	0.5	0.3735	0.6235	0.717
Mof_Fe	Fe	0.75	0.3765	0.1235	0.716
Mof_Fe	Fe	0.75	0.8765	0.6235	0.717
Mof_Fe	Fe	0.25	0.3765	0.6235	0.717
Mof_Fe	Fe	0.25	0.8765	0.1235	0.717
Mof_Fe	Fe	0.1265	0.25	0.3735	0.716
Mof_Fe	Fe	0.1265	0.75	0.8735	0.717
Mof_Fe	Fe	0.6265	0.25	0.8735	0.718
Mof_Fe	Fe	0.6265	0.75	0.3735	0.717
Mof_Fe	Fe	0.6265	0.5	0.8765	0.717
Mof_Fe	Fe	0.6265	0	0.3765	0.676
Mof_Fe	Fe	0.1265	0.5	0.3765	0.716
Mof_Fe	Fe	0.1265	8.26397e-33	0.8765	0.676
Mof_Fe	Fe	0.6235	8.26397e-33	0.8735	0.678
Mof_Fe	Fe	0.6235	0.5	0.3735	0.717
Mof_Fe	Fe	0.1235	-4.13198e-33	0.3735	0.676
Mof_Fe	Fe	0.1235	0.5	0.8735	0.718
Mof_Fe	Fe	0.1235	0.75	0.3765	0.716
Mof_Fe	Fe	0.1235	0.25	0.8765	0.717
Mof_Fe	Fe	0.6235	0.75	0.8765	0.717
Mof_Fe	Fe	0.6235	0.25	0.3765	0.717
Mof_Fe	Fe	0.3735	0.1265	0.25	0.716
Mof_Fe	Fe	0.3735	0.6265	0.75	0.717
Mof_Fe	Fe	0.8735	0.1265	0.75	0.717
Mof_Fe	Fe	0.8735	0.6265	0.25	0.718
Mof_Fe	Fe	0.8765	0.6265	0.5	0.717
Mof_Fe	Fe	0.8765	0.1265	-0	0.676
Mof_Fe	Fe	0.3765	0.6265	-0	0.676
Mof_Fe	Fe	0.3765	0.1265	0.5	0.716
Mof_Fe	Fe	0.8735	0.6235	-0	0.678
Mof_Fe	Fe	0.8735	0.1235	0.5	0.718
Mof_Fe	Fe	0.3735	0.6235	0.5	0.717
Mof_Fe	Fe	0.3735	0.1235	-0	0.676
Mof_Fe	Fe	0.3765	0.1235	0.75	0.716
Mof_Fe	Fe	0.3765	0.6235	0.25	0.717
Mof_Fe	Fe	0.8765	0.1235	0.25	0.717
Mof_Fe	Fe	0.8765	0.6235	0.75	0.717
Mof_Na	Na	0.625	0.625	0.875	3.185
Mof_Na	Na	0.625	0.125	0.375	3.162
Mof_Na	Na	0.125	0.125	0.375	3.149
Mof_Na	Na	0.125	0.625	0.875	3.173
Mof_Na	Na	0.875	0.625	0.625	3.185
Mof_Na	Na	0.875	0.125	0.125	3.16
Mof_Na	Na	0.375	0.625	0.125	3.162
Mof_Na	Na	0.375	0.125	0.125	3.149
Mof_Na	Na	0.375	0.625	0.625	3.174
Mof_Na	Na	0.875	0.125	0.625	3.173
Mof_Na	Na	0.625	0.875	0.625	3.185
Mof_Na	Na	0.125	0.375	0.625	3.162
Mof_Na	Na	0.125	0.875	0.125	3.16
Mof_Na	Na	0.125	0.375	0.125	3.149
Mof_Na	Na	0.625	0.875	0.125	3.173
Mof_Na	Na	0.625	0.375	0.625	3.174
Mof_Na	Na	0.375	0.875	0.125	3.183
Mof_Na	Na	0.375	0.375	0.625	3.176
Mof_Na	Na	0.875	0.875	0.625	3.213
Mof_Na	Na	0.875	0.375	0.625	3.195
Mof_Na	Na	0.875	0.875	0.125	3.201
Mof_Na	Na	0.375	0.375	0.125	3.165
Mof_Na	Na	0.375	0.125	0.375	3.165
Mof_Na	Na	0.375	0.625	0.875	3.195
Mof_Na	Na	0.875	0.625	0.875	3.213
Mof_Na	Na	0.875	0.125	0.375	3.183
Mof_Na	Na	0.625	0.875	0.375	3.195
Mof_Na	Na	0.125	0.375	0.375	3.165
Mof_Na	Na	0.125	0.875	0.875	3.201
Mof_Na	Na	0.125	0.375	0.875	3.183
Mof_Na	Na	0.625	0.875	0.875	3.213
Mof_Na	Na	0.625	0.375	0.375	3.176
Mof_Na	Na	0.375	0.875	0.625	3.195
Mof_Na	Na	0.875	0.375	0.125	3.183
Mof_Na	Na	0.625	0.375	0.875	3.195
Mof_Na	Na	0.125	0.875	0.375	3.183
Mof_Na	Na	0.875	0.625	0.375	3.195
Mof_Na	Na	0.875	0.125	0.875	3.201
Mof_Na	Na	0.375	0.125	0.875	3.183
Mof_Na	Na	0.375	0.625	0.375	3.176
Mof_Na	Na	0.625	0.125	0.875	3.173
Mof_Na	Na	0.625	0.625	0.375	3.174
Mof_Na	Na	0.125	0.625	0.375	3.162
Mof_Na	Na	0.125	0.125	0.875	3.16
Mof_Na	Na	0.625	0.375	0.125	3.162
Mof_Na	Na	0.125	0.875	0.625	3.173
Mof_Na	Na	0.375	0.125	0.625	3.162
Mof_Na	Na	0.875	0.625	0.125	3.173
_end
