data_functionalizedCrystal
_audit_creation_method	'EQeq! by Chris Wilmer'
_symmetry_space_group_name_H-M	'P1'
_symmetry_Int_Tables_number	1
_symmetry_cell_setting	triclinic
loop_
_symmetry_equiv_pos_as_xyz
  x,y,z
_cell_length_a	17.927
_cell_length_b	12.869
_cell_length_c	11.055
_cell_angle_alpha	90
_cell_angle_beta	93.14
_cell_angle_gamma	90
loop_
_atom_site_label
_atom_site_type_symbol
_atom_site_fract_x
_atom_site_fract_y
_atom_site_fract_z
_atom_site_charge
Mof_Zn	Zn	0.41923	0.05185	0.99894	1.192
Mof_C 	C 	0.3651	0.2256	0.8297	0.374
Mof_C 	C 	0.3012	0.293	0.779	-0.095
Mof_C 	C 	0.2472	0.3292	0.8522	-0.06
Mof_H 	H 	0.2491	0.3154	0.9348	0.063
Mof_C 	C 	0.1889	0.3884	0.7953	0.035
Mof_C 	C 	0.1875	0.4101	0.6715	0.077
Mof_C 	C 	0.2431	0.3747	0.599	-0.154
Mof_H 	H 	0.2421	0.39	0.5167	0.066
Mof_C 	C 	0.2988	0.3169	0.653	0.04
Mof_H 	H 	0.3366	0.2922	0.6064	0.016
Mof_H 	H 	0.538	0.14	0.967	0.27
Mof_N 	N 	0.12728	0.4352	0.8389	-0.238
Mof_N 	N 	0.09047	0.4824	0.7461	-0.208
Mof_N 	N 	0.12593	0.4687	0.6444	-0.25
Mof_O 	O 	0.35978	0.187	0.9331	-0.456
Mof_O 	O 	0.41789	0.2123	0.761	-0.466
Mof_O 	O 	0.5172	0.0854	0.9349	-0.863
Mof_Zn	Zn	0.91923	0.55185	0.99894	1.21
Mof_C 	C 	0.8651	0.7256	0.8297	0.371
Mof_C 	C 	0.8012	0.793	0.779	-0.081
Mof_C 	C 	0.7472	0.8292	0.8522	-0.061
Mof_H 	H 	0.7491	0.8154	0.9348	0.069
Mof_C 	C 	0.6889	0.8884	0.7953	0.043
Mof_C 	C 	0.6875	0.9101	0.6715	0.078
Mof_C 	C 	0.7431	0.8747	0.599	-0.144
Mof_H 	H 	0.7421	0.89	0.5167	0.067
Mof_C 	C 	0.7988	0.8169	0.653	0.036
Mof_H 	H 	0.8366	0.7922	0.6064	0.027
Mof_H 	H 	0.038	0.64	0.967	0.266
Mof_N 	N 	0.62728	0.9352	0.8389	-0.23
Mof_N 	N 	0.59047	0.9824	0.7461	-0.19
Mof_N 	N 	0.62593	0.9687	0.6444	-0.241
Mof_O 	O 	0.85978	0.687	0.9331	-0.434
Mof_O 	O 	0.91789	0.7123	0.761	-0.421
Mof_O 	O 	0.0172	0.5854	0.9349	-0.918
Mof_Zn	Zn	0.58077	0.05185	0.50106	1.194
Mof_C 	C 	0.6349	0.2256	0.6703	0.376
Mof_C 	C 	0.6988	0.293	0.721	-0.092
Mof_C 	C 	0.7528	0.3292	0.6478	-0.056
Mof_H 	H 	0.7509	0.3154	0.5652	0.064
Mof_C 	C 	0.8111	0.3884	0.7047	0.043
Mof_C 	C 	0.8125	0.4101	0.8285	0.081
Mof_C 	C 	0.7569	0.3747	0.901	-0.15
Mof_H 	H 	0.7579	0.39	0.9833	0.065
Mof_C 	C 	0.7012	0.3169	0.847	0.041
Mof_H 	H 	0.6634	0.2922	0.8936	0.016
Mof_H 	H 	0.462	0.14	0.533	0.27
Mof_N 	N 	0.87272	0.4352	0.6611	-0.224
Mof_N 	N 	0.90953	0.4824	0.7539	-0.168
Mof_N 	N 	0.87407	0.4687	0.8556	-0.234
Mof_O 	O 	0.64022	0.187	0.5669	-0.454
Mof_O 	O 	0.58211	0.2123	0.739	-0.466
Mof_O 	O 	0.4828	0.0854	0.5651	-0.862
Mof_Zn	Zn	0.08077	0.55185	0.50106	1.177
Mof_C 	C 	0.1349	0.7256	0.6703	0.378
Mof_C 	C 	0.1988	0.793	0.721	-0.103
Mof_C 	C 	0.2528	0.8292	0.6478	-0.055
Mof_H 	H 	0.2509	0.8154	0.5652	0.059
Mof_C 	C 	0.3111	0.8884	0.7047	0.035
Mof_C 	C 	0.3125	0.9101	0.8285	0.082
Mof_C 	C 	0.2569	0.8747	0.901	-0.158
Mof_H 	H 	0.2579	0.89	0.9833	0.066
Mof_C 	C 	0.2012	0.8169	0.847	0.044
Mof_H 	H 	0.1634	0.7922	0.8936	0.007
Mof_H 	H 	0.962	0.64	0.533	0.275
Mof_N 	N 	0.37272	0.9352	0.6611	-0.232
Mof_N 	N 	0.40953	0.9824	0.7539	-0.19
Mof_N 	N 	0.37407	0.9687	0.8556	-0.241
Mof_O 	O 	0.14022	0.687	0.5669	-0.473
Mof_O 	O 	0.08211	0.7123	0.739	-0.498
Mof_O 	O 	0.9828	0.5854	0.5651	-0.788
Mof_Zn	Zn	0.58077	0.94815	0.00106	1.192
Mof_C 	C 	0.6349	0.7744	0.1703	0.377
Mof_C 	C 	0.6988	0.707	0.221	-0.092
Mof_C 	C 	0.7528	0.6708	0.1478	-0.055
Mof_H 	H 	0.7509	0.6846	0.0652	0.063
Mof_C 	C 	0.8111	0.6116	0.2047	0.043
Mof_C 	C 	0.8125	0.5899	0.3285	0.082
Mof_C 	C 	0.7569	0.6253	0.401	-0.15
Mof_H 	H 	0.7579	0.61	0.4833	0.066
Mof_C 	C 	0.7012	0.6831	0.347	0.042
Mof_H 	H 	0.6634	0.7078	0.3936	0.016
Mof_H 	H 	0.462	0.86	0.033	0.269
Mof_N 	N 	0.87272	0.5648	0.1611	-0.224
Mof_N 	N 	0.90953	0.5176	0.2539	-0.166
Mof_N 	N 	0.87407	0.5313	0.3556	-0.233
Mof_O 	O 	0.64022	0.813	0.0669	-0.455
Mof_O 	O 	0.58211	0.7877	0.239	-0.466
Mof_O 	O 	0.4828	0.9146	0.0651	-0.864
Mof_Zn	Zn	0.08077	0.44815	0.00106	1.176
Mof_C 	C 	0.1349	0.2744	0.1703	0.378
Mof_C 	C 	0.1988	0.207	0.221	-0.103
Mof_C 	C 	0.2528	0.1708	0.1478	-0.056
Mof_H 	H 	0.2509	0.1846	0.0652	0.059
Mof_C 	C 	0.3111	0.1116	0.2047	0.035
Mof_C 	C 	0.3125	0.0899	0.3285	0.08
Mof_C 	C 	0.2569	0.1253	0.401	-0.158
Mof_H 	H 	0.2579	0.11	0.4833	0.063
Mof_C 	C 	0.2012	0.1831	0.347	0.043
Mof_H 	H 	0.1634	0.2078	0.3936	0.006
Mof_H 	H 	0.962	0.36	0.033	0.276
Mof_N 	N 	0.37272	0.0648	0.1611	-0.231
Mof_N 	N 	0.40953	0.0176	0.2539	-0.19
Mof_N 	N 	0.37407	0.0313	0.3556	-0.242
Mof_O 	O 	0.14022	0.313	0.0669	-0.473
Mof_O 	O 	0.08211	0.2877	0.239	-0.499
Mof_O 	O 	0.9828	0.4146	0.0651	-0.786
Mof_Zn	Zn	0.41923	0.94815	0.49894	1.194
Mof_C 	C 	0.3651	0.7744	0.3297	0.375
Mof_C 	C 	0.3012	0.707	0.279	-0.095
Mof_C 	C 	0.2472	0.6708	0.3522	-0.061
Mof_H 	H 	0.2491	0.6846	0.4348	0.062
Mof_C 	C 	0.1889	0.6116	0.2953	0.034
Mof_C 	C 	0.1875	0.5899	0.1715	0.076
Mof_C 	C 	0.2431	0.6253	0.099	-0.154
Mof_H 	H 	0.2421	0.61	0.0167	0.064
Mof_C 	C 	0.2988	0.6831	0.153	0.039
Mof_H 	H 	0.3366	0.7078	0.1064	0.015
Mof_H 	H 	0.538	0.86	0.467	0.271
Mof_N 	N 	0.12728	0.5648	0.3389	-0.239
Mof_N 	N 	0.09047	0.5176	0.2461	-0.208
Mof_N 	N 	0.12593	0.5313	0.1444	-0.25
Mof_O 	O 	0.35978	0.813	0.4331	-0.456
Mof_O 	O 	0.41789	0.7877	0.261	-0.467
Mof_O 	O 	0.5172	0.9146	0.4349	-0.862
Mof_Zn	Zn	0.91923	0.44815	0.49894	1.212
Mof_C 	C 	0.8651	0.2744	0.3297	0.371
Mof_C 	C 	0.8012	0.207	0.279	-0.081
Mof_C 	C 	0.7472	0.1708	0.3522	-0.061
Mof_H 	H 	0.7491	0.1846	0.4348	0.068
Mof_C 	C 	0.6889	0.1116	0.2953	0.043
Mof_C 	C 	0.6875	0.0899	0.1715	0.079
Mof_C 	C 	0.7431	0.1253	0.099	-0.144
Mof_H 	H 	0.7421	0.11	0.0167	0.069
Mof_C 	C 	0.7988	0.1831	0.153	0.037
Mof_H 	H 	0.8366	0.2078	0.1064	0.028
Mof_H 	H 	0.038	0.36	0.467	0.264
Mof_N 	N 	0.62728	0.0648	0.3389	-0.232
Mof_N 	N 	0.59047	0.0176	0.2461	-0.19
Mof_N 	N 	0.62593	0.0313	0.1444	-0.239
Mof_O 	O 	0.85978	0.313	0.4331	-0.434
Mof_O 	O 	0.91789	0.2877	0.261	-0.419
Mof_O 	O 	0.0172	0.4146	0.4349	-0.922
Mof_Zn	Zn	0.5	0.10186	0.75	1.211
Mof_Zn	Zn	1.82909e-33	0.60186	0.75	1.175
Mof_Zn	Zn	0.5	0.89814	0.25	1.211
Mof_Zn	Zn	-1.39509e-18	0.39814	0.25	1.174
_end
