# CIF file generated by openbabel 3.1.0, see https://openbabel.org
data_I
_chemical_name_common 'image0'
_cell_length_a 24.308
_cell_length_b 9.364
_cell_length_c 19.1309
_cell_angle_alpha 90
_cell_angle_beta 125.636
_cell_angle_gamma 90
_space_group_name_H-M_alt 'P 1'
_space_group_name_Hall 'P 1'
loop_
    _symmetry_equiv_pos_as_xyz
    x,y,z
loop_
    _atom_site_label
    _atom_site_type_symbol
    _atom_site_fract_x
    _atom_site_fract_y
    _atom_site_fract_z
    _atom_site_occupancy
    O1       O        0.62315    0.46520    0.37229    1.000
    O2       O        0.57286    0.67580    0.34033    1.000
    O3       O        0.53089    0.54050    0.66387    1.000
    O4       O        0.54353    0.76820    0.70250    1.000
    C1       C        0.62379    0.59690    0.38313    1.000
    C2       C        0.55090    0.66610    0.66683    1.000
    C3       C        0.73495    0.68560    0.42668    1.000
    H1       H        0.72460    0.64090    0.37690    1.000
    C4       C        0.69011    0.67130    0.44869    1.000
    C5       C        0.70520    0.73630    0.52448    1.000
    C6       C        0.66134    0.72130    0.55521    1.000
    C7       C        0.62844    0.59320    0.54605    1.000
    H2       H        0.63120    0.51750    0.51680    1.000
    C8       C        0.59180    0.57760    0.57998    1.000
    H3       H        0.56960    0.49190    0.57240    1.000
    C9       C        0.58755    0.68790    0.62525    1.000
    C10      C        0.61882    0.81670    0.63275    1.000
    H4       H        0.61510    0.89280    0.66100    1.000
    C11      C        0.65549    0.83340    0.59862    1.000
    H5       H        0.67640    0.92020    0.60470    1.000
    O5       O        0.12315    0.96520    0.37229    1.000
    O6       O        0.07286    0.17580    0.34033    1.000
    O7       O        0.03089    0.04050    0.66387    1.000
    O8       O        0.04353    0.26820    0.70250    1.000
    C12      C        0.12379    0.09690    0.38313    1.000
    C13      C        0.05090    0.16610    0.66683    1.000
    C14      C        0.23495    0.18560    0.42668    1.000
    H6       H        0.22460    0.14090    0.37690    1.000
    C15      C        0.19011    0.17130    0.44869    1.000
    C16      C        0.20520    0.23630    0.52448    1.000
    C17      C        0.16134    0.22130    0.55521    1.000
    C18      C        0.12844    0.09320    0.54605    1.000
    H7       H        0.13120    0.01750    0.51680    1.000
    C19      C        0.09180    0.07760    0.57998    1.000
    H8       H        0.06960    0.99190    0.57240    1.000
    C20      C        0.08755    0.18790    0.62525    1.000
    C21      C        0.11882    0.31670    0.63275    1.000
    H9       H        0.11510    0.39280    0.66100    1.000
    C22      C        0.15549    0.33340    0.59862    1.000
    H10      H        0.17640    0.42020    0.60470    1.000
    O9       O        0.37685    0.46520    0.12771    1.000
    O10      O        0.42714    0.67580    0.15967    1.000
    O11      O        0.46911    0.54050    0.83613    1.000
    O12      O        0.45647    0.76820    0.79750    1.000
    C23      C        0.37621    0.59690    0.11687    1.000
    C24      C        0.44910    0.66610    0.83317    1.000
    C25      C        0.26505    0.68560    0.07332    1.000
    H11      H        0.27540    0.64090    0.12310    1.000
    C26      C        0.30989    0.67130    0.05131    1.000
    C27      C        0.29480    0.73630    0.97552    1.000
    C28      C        0.33866    0.72130    0.94479    1.000
    C29      C        0.37156    0.59320    0.95395    1.000
    H12      H        0.36880    0.51750    0.98320    1.000
    C30      C        0.40820    0.57760    0.92002    1.000
    H13      H        0.43040    0.49190    0.92760    1.000
    C31      C        0.41245    0.68790    0.87475    1.000
    C32      C        0.38118    0.81670    0.86725    1.000
    H14      H        0.38490    0.89280    0.83900    1.000
    C33      C        0.34451    0.83340    0.90138    1.000
    H15      H        0.32360    0.92020    0.89530    1.000
    O13      O        0.87685    0.96520    0.12771    1.000
    O14      O        0.92714    0.17580    0.15967    1.000
    O15      O        0.96911    0.04050    0.83613    1.000
    O16      O        0.95647    0.26820    0.79750    1.000
    C34      C        0.87621    0.09690    0.11687    1.000
    C35      C        0.94910    0.16610    0.83317    1.000
    C36      C        0.76505    0.18560    0.07332    1.000
    H16      H        0.77540    0.14090    0.12310    1.000
    C37      C        0.80989    0.17130    0.05131    1.000
    C38      C        0.79480    0.23630    0.97552    1.000
    C39      C        0.83866    0.22130    0.94479    1.000
    C40      C        0.87156    0.09320    0.95395    1.000
    H17      H        0.86880    0.01750    0.98320    1.000
    C41      C        0.90820    0.07760    0.92002    1.000
    H18      H        0.93040    0.99190    0.92760    1.000
    C42      C        0.91245    0.18790    0.87475    1.000
    C43      C        0.88118    0.31670    0.86725    1.000
    H19      H        0.88490    0.39280    0.83900    1.000
    C44      C        0.84451    0.33340    0.90138    1.000
    H20      H        0.82360    0.42020    0.89530    1.000
    O17      O        0.37685    0.53480    0.62771    1.000
    O18      O        0.42714    0.32420    0.65967    1.000
    O19      O        0.46911    0.45950    0.33613    1.000
    O20      O        0.45647    0.23180    0.29750    1.000
    C45      C        0.37621    0.40310    0.61687    1.000
    C46      C        0.44910    0.33390    0.33317    1.000
    C47      C        0.26505    0.31440    0.57332    1.000
    H21      H        0.27540    0.35910    0.62310    1.000
    C48      C        0.30989    0.32870    0.55131    1.000
    C49      C        0.29480    0.26370    0.47552    1.000
    C50      C        0.33866    0.27870    0.44479    1.000
    C51      C        0.37156    0.40680    0.45395    1.000
    H22      H        0.36880    0.48250    0.48320    1.000
    C52      C        0.40820    0.42240    0.42002    1.000
    H23      H        0.43040    0.50810    0.42760    1.000
    C53      C        0.41245    0.31210    0.37475    1.000
    C54      C        0.38118    0.18330    0.36725    1.000
    H24      H        0.38490    0.10720    0.33900    1.000
    C55      C        0.34451    0.16660    0.40138    1.000
    H25      H        0.32360    0.07980    0.39530    1.000
    O21      O        0.87685    0.03480    0.62771    1.000
    O22      O        0.92714    0.82420    0.65967    1.000
    O23      O        0.96911    0.95950    0.33613    1.000
    O24      O        0.95647    0.73180    0.29750    1.000
    C56      C        0.87621    0.90310    0.61687    1.000
    C57      C        0.94910    0.83390    0.33317    1.000
    C58      C        0.76505    0.81440    0.57332    1.000
    H26      H        0.77540    0.85910    0.62310    1.000
    C59      C        0.80989    0.82870    0.55131    1.000
    C60      C        0.79480    0.76370    0.47552    1.000
    C61      C        0.83866    0.77870    0.44479    1.000
    C62      C        0.87156    0.90680    0.45395    1.000
    H27      H        0.86880    0.98250    0.48320    1.000
    C63      C        0.90820    0.92240    0.42002    1.000
    H28      H        0.93040    0.00810    0.42760    1.000
    C64      C        0.91245    0.81210    0.37475    1.000
    C65      C        0.88118    0.68330    0.36725    1.000
    H29      H        0.88490    0.60720    0.33900    1.000
    C66      C        0.84451    0.66660    0.40138    1.000
    H30      H        0.82360    0.57980    0.39530    1.000
    O25      O        0.62315    0.53480    0.87229    1.000
    O26      O        0.57286    0.32420    0.84033    1.000
    O27      O        0.53089    0.45950    0.16387    1.000
    O28      O        0.54353    0.23180    0.20250    1.000
    C67      C        0.62379    0.40310    0.88313    1.000
    C68      C        0.55090    0.33390    0.16683    1.000
    C69      C        0.73495    0.31440    0.92668    1.000
    H31      H        0.72460    0.35910    0.87690    1.000
    C70      C        0.69011    0.32870    0.94869    1.000
    C71      C        0.70520    0.26370    0.02448    1.000
    C72      C        0.66134    0.27870    0.05521    1.000
    C73      C        0.62844    0.40680    0.04605    1.000
    H32      H        0.63120    0.48250    0.01680    1.000
    C74      C        0.59180    0.42240    0.07998    1.000
    H33      H        0.56960    0.50810    0.07240    1.000
    C75      C        0.58755    0.31210    0.12525    1.000
    C76      C        0.61882    0.18330    0.13275    1.000
    H34      H        0.61510    0.10720    0.16100    1.000
    C77      C        0.65549    0.16660    0.09862    1.000
    H35      H        0.67640    0.07980    0.10470    1.000
    O29      O        0.12315    0.03480    0.87229    1.000
    O30      O        0.07286    0.82420    0.84033    1.000
    O31      O        0.03089    0.95950    0.16387    1.000
    O32      O        0.04353    0.73180    0.20250    1.000
    C78      C        0.12379    0.90310    0.88313    1.000
    C79      C        0.05090    0.83390    0.16683    1.000
    C80      C        0.23495    0.81440    0.92668    1.000
    H36      H        0.22460    0.85910    0.87690    1.000
    C81      C        0.19011    0.82870    0.94869    1.000
    C82      C        0.20520    0.76370    0.02448    1.000
    C83      C        0.16134    0.77870    0.05521    1.000
    C84      C        0.12844    0.90680    0.04605    1.000
    H37      H        0.13120    0.98250    0.01680    1.000
    C85      C        0.09180    0.92240    0.07998    1.000
    H38      H        0.06960    0.00810    0.07240    1.000
    C86      C        0.08755    0.81210    0.12525    1.000
    C87      C        0.11882    0.68330    0.13275    1.000
    H39      H        0.11510    0.60720    0.16100    1.000
    C88      C        0.15549    0.66660    0.09862    1.000
    H40      H        0.17640    0.57980    0.10470    1.000
    Cd1      Cd       0.50000    0.49656    0.25000    1.000
    Cd2      Cd       0.00000    0.99656    0.25000    1.000
    Cd3      Cd       0.50000    0.50344    0.75000    1.000
    Cd4      Cd       0.00000    0.00344    0.75000    1.000
