data_functionalizedCrystal
_audit_creation_method	'EQeq! by Chris Wilmer'
_symmetry_space_group_name_H-M	'P1'
_symmetry_Int_Tables_number	1
_symmetry_cell_setting	triclinic
loop_
_symmetry_equiv_pos_as_xyz
  x,y,z
_cell_length_a	10.7448
_cell_length_b	19.2009
_cell_length_c	30.6914
_cell_angle_alpha	87.1926
_cell_angle_beta	79.9186
_cell_angle_gamma	73.7515
loop_
_atom_site_label
_atom_site_type_symbol
_atom_site_fract_x
_atom_site_fract_y
_atom_site_fract_z
_atom_site_charge
Mof_Zn	Zn	0.51165	0.42417	0.48733	1.214
Mof_Zn	Zn	0.07685	0.92417	0.98733	1.214
Mof_Zn	Zn	0.48835	0.57583	0.51267	1.214
Mof_Zn	Zn	0.43582	0.57583	0.98733	1.214
Mof_Zn	Zn	0.56418	0.42417	0.01267	1.214
Mof_Zn	Zn	0.92315	0.07583	0.01267	1.214
Mof_Zn	Zn	0.50102	0.07583	0.48733	1.215
Mof_Zn	Zn	0.49898	0.92417	0.51267	1.215
Mof_H 	H 	0.043	0.567	0.0334	0.043
Mof_H 	H 	0.595	0.0556	0.0926	0.058
Mof_H 	H 	0.753	0.83	0.3958	0.04
Mof_H 	H 	0.5229	0.1728	0.547	-0.06
Mof_H 	H 	0.6704	0.1788	0.4428	-0.022
Mof_H 	H 	0.3316	0.3222	0.5142	0
Mof_H 	H 	0.8124	0.4444	0.0926	0.058
Mof_H 	H 	0.2758	0.7148	0.3306	0.042
Mof_H 	H 	0.0756	0.5924	0.7176	0.043
Mof_H 	H 	0.2597	0.9664	0.8512	0.051
Mof_H 	H 	0.1957	0.8272	0.047	-0.059
Mof_H 	H 	0.8508	0.8206	0.8322	0.052
Mof_H 	H 	0.6555	0.2718	0.5164	0.004
Mof_H 	H 	0.4227	0.4664	0.3512	0.055
Mof_H 	H 	0.3512	0.67	0.3958	0.04
Mof_H 	H 	0.9199	0.2014	0.9582	0.06
Mof_H 	H 	0.2987	0.7134	0.535	0.079
Mof_H 	H 	0.5329	0.2682	0.0368	-0.064
Mof_H 	H 	0.5727	0.6996	0.4536	0.103
Mof_H 	H 	0.6719	0.7718	0.4836	0.004
Mof_H 	H 	0.11	0.433	0.5334	0.051
Mof_H 	H 	0.1876	0.5556	0.9074	0.058
Mof_H 	H 	0.6002	0.6936	0.74	0.023
Mof_H 	H 	0.3451	0.8468	0.9922	0.038
Mof_H 	H 	0.3422	0.7378	0.6578	0.046
Mof_H 	H 	0.4671	0.7318	0.9632	-0.064
Mof_H 	H 	0.3296	0.8212	0.5572	-0.022
Mof_H 	H 	0.6508	0.1788	0.0572	-0.025
Mof_H 	H 	0.9303	0.2318	0.0368	-0.064
Mof_H 	H 	0.6628	0.1622	0.0584	0.056
Mof_H 	H 	0.8441	0.1978	0.0756	0.024
Mof_H 	H 	0.353	0.282	0.2878	0.058
Mof_H 	H 	0.675	0.1622	0.4416	0.057
Mof_H 	H 	0.5727	0.2718	0.9836	0.002
Mof_H 	H 	0.3081	0.8468	0.5078	0.04
Mof_H 	H 	0.3492	0.8212	0.9428	-0.025
Mof_H 	H 	0.3983	0.0528	0.9374	0.048
Mof_H 	H 	0.8462	0.3222	0.9858	0.002
Mof_H 	H 	0.7741	0.1996	0.9536	0.102
Mof_H 	H 	0.957	0.433	0.9666	0.043
Mof_H 	H 	0.9887	0.8632	0.8856	0.056
Mof_H 	H 	0.7824	0.8636	0.9252	0.051
Mof_H 	H 	0.668	0.1778	0.9858	0.003
Mof_H 	H 	0.6684	0.6778	0.4858	0
Mof_H 	H 	0.083	0.17	0.8958	0.039
Mof_H 	H 	0.8936	0.7852	0.3306	0.042
Mof_H 	H 	0.6257	0.6368	0.8856	0.056
Mof_H 	H 	0.2663	0.8578	0.7922	0.045
Mof_H 	H 	0.168	0.4076	0.2176	0.045
Mof_H 	H 	0.7427	0.3272	0.953	-0.059
Mof_H 	H 	0.1492	0.1794	0.1678	0.052
Mof_H 	H 	0.4415	0.6422	0.7922	0.046
Mof_H 	H 	0.247	0.17	0.6042	0.04
Mof_H 	H 	0.9964	0.3206	0.3322	0.055
Mof_H 	H 	0.9425	0.8628	0.275	0.053
Mof_H 	H 	0.5263	0.1996	0.5464	0.102
Mof_H 	H 	0.4684	0.7018	0.5806	0.014
Mof_H 	H 	0.792	0.3212	0.0572	-0.025
Mof_H 	H 	0.7723	0.3004	0.9536	0.103
Mof_H 	H 	0.3781	0.7014	0.0418	0.061
Mof_H 	H 	0.1788	0.2148	0.8306	0.042
Mof_H 	H 	0.3787	0.2014	0.5418	0.062
Mof_H 	H 	0.6132	0.6788	0.5572	-0.022
Mof_H 	H 	0.3891	0.5336	0.8512	0.052
Mof_H 	H 	0.2259	0.8004	0.0464	0.102
Mof_H 	H 	0.6989	0.2682	0.4632	-0.061
Mof_H 	H 	0.2277	0.6996	0.0464	0.103
Mof_H 	H 	0.3868	0.3212	0.4428	-0.022
Mof_H 	H 	0.647	0.718	0.7122	0.058
Mof_H 	H 	0.5803	0.3022	0.0756	0.025
Mof_H 	H 	0.7622	0.2378	0.1578	0.04
Mof_H 	H 	0.89	0.567	0.4666	0.051
Mof_H 	H 	0.3998	0.3064	0.26	0.023
Mof_H 	H 	0.7068	0.9076	0.7176	0.052
Mof_H 	H 	0.4205	0.7014	0.4582	0.062
Mof_H 	H 	0.6219	0.2986	0.9582	0.061
Mof_H 	H 	0.6481	0.8632	0.6144	0.063
Mof_H 	H 	0.2076	0.3636	0.0748	0.051
Mof_H 	H 	0.1627	0.6532	0.9922	0.038
Mof_H 	H 	0.9842	0.044	0.1632	0.05
Mof_H 	H 	0.6488	0.33	0.6042	0.04
Mof_H 	H 	0.4163	0.6422	0.7078	0.044
Mof_H 	H 	0.208	0.6788	0.9428	-0.025
Mof_H 	H 	0.2573	0.6728	0.047	-0.059
Mof_H 	H 	0.4737	0.8004	0.4536	0.102
Mof_H 	H 	0.6549	0.1532	0.0078	0.038
Mof_H 	H 	0.5837	0.3578	0.2922	0.044
Mof_H 	H 	0.1714	0.1794	0.3322	0.045
Mof_H 	H 	0.6166	0.6622	0.5584	0.057
Mof_H 	H 	0.1064	0.2148	0.6694	0.042
Mof_H 	H 	0.8856	0.9076	0.7824	0.044
Mof_H 	H 	0.2062	0.6936	0.76	0.029
Mof_H 	H 	0.3337	0.2134	0.465	0.079
Mof_H 	H 	0.8212	0.7852	0.1694	0.042
Mof_H 	H 	0.9437	0.2282	0.9836	0.004
Mof_H 	H 	0.3281	0.2282	0.5164	0.004
Mof_H 	H 	0.4273	0.7282	0.0164	0.002
Mof_H 	H 	0.8373	0.3468	0.0078	0.038
Mof_H 	H 	0.832	0.5924	0.7824	0.045
Mof_H 	H 	0.5699	0.6728	0.453	-0.06
Mof_H 	H 	0.4879	0.7134	0.965	0.081
Mof_H 	H 	0.7492	0.2018	0.0806	0.01
Mof_H 	H 	0.0801	0.7986	0.0418	0.06
Mof_H 	H 	0.6017	0.9472	0.0626	0.048
Mof_H 	H 	0.8402	0.1936	0.26	0.029
Mof_H 	H 	0.58	0.2622	0.1578	0.039
Mof_H 	H 	0.4197	0.6978	0.9244	0.025
Mof_H 	H 	0.5212	0.33	0.8958	0.039
Mof_H 	H 	0.4788	0.67	0.1042	0.039
Mof_H 	H 	0.7924	0.6364	0.9252	0.051
Mof_H 	H 	0.8357	0.5528	0.0626	0.048
Mof_H 	H 	0.7261	0.0336	0.3512	0.055
Mof_H 	H 	0.3519	0.1368	0.3856	0.063
Mof_H 	H 	0.3743	0.3632	0.1144	0.056
Mof_H 	H 	0.5585	0.3578	0.2078	0.046
Mof_H 	H 	0.6474	0.544	0.8368	0.049
Mof_H 	H 	0.3298	0.7018	0.9194	0.01
Mof_H 	H 	0.0563	0.7718	0.0164	0.004
Mof_H 	H 	0.3759	0.8578	0.7078	0.06
Mof_H 	H 	0.5795	0.2986	0.5418	0.062
Mof_H 	H 	0.2508	0.7982	0.9194	0.01
Mof_H 	H 	0.5773	0.5336	0.6488	0.055
Mof_H 	H 	0.0471	0.7866	0.965	0.082
Mof_H 	H 	0.0712	0.6364	0.5748	0.048
Mof_H 	H 	0.5764	0.067	0.9666	0.043
Mof_H 	H 	0.5282	0.956	0.6632	0.044
Mof_H 	H 	0.6109	0.4664	0.1488	0.052
Mof_H 	H 	0.5772	0.782	0.7878	0.049
Mof_H 	H 	0.5316	0.2982	0.4194	0.014
Mof_H 	H 	0.451	0.7982	0.5806	0.014
Mof_H 	H 	0.1408	0.782	0.7122	0.044
Mof_H 	H 	0.865	0.282	0.2122	0.043
Mof_H 	H 	0.183	0.3206	0.1678	0.052
Mof_H 	H 	0.3053	0.1372	0.775	0.052
Mof_H 	H 	0.8043	0.1728	0.953	-0.059
Mof_H 	H 	0.3372	0.8378	0.9416	0.056
Mof_H 	H 	0.6919	0.1532	0.4922	0.04
Mof_H 	H 	0.3086	0.544	0.6632	0.05
Mof_H 	H 	0.2212	0.6622	0.9416	0.056
Mof_H 	H 	0.1434	0.933	0.4666	0.051
Mof_H 	H 	0.42	0.7378	0.8422	0.039
Mof_H 	H 	0.0036	0.6794	0.6678	0.055
Mof_H 	H 	0.6175	0.3022	0.4244	0.023
Mof_H 	H 	0.8566	0.067	0.5334	0.051
Mof_H 	H 	0.1538	0.6778	0.0142	0.002
Mof_H 	H 	0.4228	0.218	0.2122	0.049
Mof_H 	H 	0.7242	0.2852	0.6694	0.042
Mof_H 	H 	0.7175	0.3628	0.725	0.052
Mof_H 	H 	0.3834	0.3378	0.4416	0.057
Mof_H 	H 	0.6578	0.2622	0.3422	0.046
Mof_H 	H 	0.4301	0.3272	0.547	-0.06
Mof_H 	H 	0.2932	0.0924	0.2824	0.052
Mof_H 	H 	0.9244	0.4076	0.2824	0.043
Mof_H 	H 	0.1598	0.8064	0.74	0.029
Mof_H 	H 	0.3011	0.7318	0.5368	-0.061
Mof_H 	H 	0.2378	0.7622	0.8422	0.04
Mof_H 	H 	0.854	0.8636	0.5748	0.048
Mof_H 	H 	0.549	0.2018	0.4194	0.014
Mof_H 	H 	0.405	0.9444	0.9074	0.058
Mof_H 	H 	0.7403	0.0336	0.1488	0.051
Mof_H 	H 	0.2825	0.6372	0.275	0.052
Mof_H 	H 	0.0575	0.1372	0.725	0.053
Mof_H 	H 	0.7013	0.2866	0.465	0.079
Mof_H 	H 	0.0113	0.1368	0.1144	0.056
Mof_H 	H 	0.817	0.6794	0.8322	0.052
Mof_H 	H 	0.3379	0.2318	0.4632	-0.061
Mof_H 	H 	0.1144	0.0924	0.2176	0.044
Mof_H 	H 	0.332	0.8222	0.0142	0.003
Mof_H 	H 	0.5419	0.8022	0.5756	0.023
Mof_H 	H 	0.7788	0.3378	0.0584	0.056
Mof_H 	H 	0.8592	0.218	0.2878	0.044
Mof_H 	H 	0.6702	0.2982	0.0806	0.01
Mof_H 	H 	0.5338	0.8064	0.76	0.016
Mof_H 	H 	0.6841	0.6532	0.5078	0.039
Mof_H 	H 	0.917	0.83	0.1042	0.039
Mof_H 	H 	0.4718	0.044	0.3368	0.044
Mof_H 	H 	0.6241	0.1422	0.2922	0.06
Mof_H 	H 	0.4273	0.3004	0.5464	0.103
Mof_H 	H 	0.4581	0.1978	0.4244	0.023
Mof_H 	H 	0.0697	0.7682	0.9632	-0.064
Mof_H 	H 	0.146	0.1364	0.4252	0.048
Mof_H 	H 	0.6914	0.456	0.3368	0.05
Mof_H 	H 	0.3526	0.456	0.1632	0.049
Mof_H 	H 	0.0158	0.956	0.8368	0.05
Mof_H 	H 	0.6621	0.7682	0.5368	-0.061
Mof_H 	H 	0.6663	0.7866	0.535	0.079
Mof_H 	H 	0.1643	0.4472	0.9374	0.048
Mof_H 	H 	0.5094	0.7148	0.1694	0.042
Mof_H 	H 	0.4236	0.933	0.0334	0.043
Mof_H 	H 	0.1559	0.8022	0.9244	0.024
Mof_H 	H 	0.9529	0.2134	0.035	0.082
Mof_H 	H 	0.3159	0.3468	0.4922	0.039
Mof_H 	H 	0.4771	0.8272	0.453	-0.06
Mof_H 	H 	0.7938	0.3064	0.24	0.029
Mof_H 	H 	0.2176	0.1364	0.0748	0.051
Mof_H 	H 	0.3825	0.6978	0.5756	0.023
Mof_H 	H 	0.135	0.718	0.7878	0.043
Mof_H 	H 	0.4197	0.3628	0.775	0.052
Mof_H 	H 	0.3458	0.8222	0.4858	-0
Mof_H 	H 	0.2739	0.9664	0.6488	0.055
Mof_H 	H 	0.6542	0.1778	0.5142	-0
Mof_H 	H 	0.4662	0.1936	0.24	0.016
Mof_H 	H 	0.6213	0.7986	0.4582	0.062
Mof_H 	H 	0.7337	0.1422	0.2078	0.045
Mof_H 	H 	0.325	0.8378	0.5584	0.057
Mof_H 	H 	0.8286	0.8206	0.6678	0.045
Mof_H 	H 	0.6947	0.8628	0.225	0.052
Mof_H 	H 	0.7625	0.3632	0.3856	0.056
Mof_H 	H 	0.9288	0.3636	0.4252	0.048
Mof_H 	H 	0.4906	0.2852	0.8306	0.042
Mof_H 	H 	0.5803	0.6372	0.225	0.052
Mof_H 	H 	0.2375	0.6368	0.6144	0.056
Mof_H 	H 	0.3445	0.7282	0.4836	0.004
Mof_H 	H 	0.5121	0.2866	0.035	0.081
Mof_C 	C 	0.94187	0.52276	0.4527	-0.018
Mof_C 	C 	0.2013	0.689	0.9746	-0.069
Mof_C 	C 	0.3726	0.3528	0.145	-0.056
Mof_C 	C 	0.29643	0.09768	0.07146	-0.024
Mof_C 	C 	0.3696	0.233	0.2978	-0.093
Mof_C 	C 	0.5777	0.6968	0.4798	0.053
Mof_C 	C 	0.39171	0.4557	0.80748	0.02
Mof_C 	C 	0.52394	0.98642	0.0641	-0.035
Mof_C 	C 	0.28202	0.47404	0.03292	0.403
Mof_C 	C 	0.41733	0.97724	0.0473	-0.001
Mof_C 	C 	0.74646	0.394	0.28228	0.037
Mof_C 	C 	0.39749	0.17118	0.11044	-0.008
Mof_C 	C 	0.60718	0.48258	0.65286	-0.029
Mof_C 	C 	0.5044	0.708	0.8298	-0.045
Mof_C 	C 	0.65088	0.5074	0.72504	-0.013
Mof_C 	C 	0.4578	0.208	0.3298	0.016
Mof_C 	C 	0.5425	0.7844	0.4726	-0.138
Mof_C 	C 	0.7457	0.1968	0.9798	0.049
Mof_C 	C 	0.63955	0.592	0.8261	-0.035
Mof_C 	C 	0.12408	0.9926	0.72504	-0.013
Mof_C 	C 	0.91196	0.51358	0.0641	-0.037
Mof_C 	C 	0.8974	0.233	0.2022	-0.055
Mof_C 	C 	0.10522	0.03304	0.92232	0.39
Mof_C 	C 	0.5422	0.563	0.1202	-0.088
Mof_C 	C 	0.24262	0.01742	0.84714	-0.026
Mof_C 	C 	0.3862	0.7244	0.5472	-0.044
Mof_C 	C 	0.9583	0.8788	0.7948	-0.038
Mof_C 	C 	0.3317	0.6502	0.7	-0.041
Mof_C 	C 	0.2603	0.3262	0.1764	-0.057
Mof_C 	C 	0.02214	0.7223	0.86862	-0.048
Mof_C 	C 	0.15489	0.0443	0.69252	0.022
Mof_C 	C 	0.72873	0.8822	0.19794	-0.058
Mof_C 	C 	0.88694	0.2223	0.36862	-0.057
Mof_C 	C 	0.1026	0.767	0.7978	-0.055
Mof_C 	C 	0.6629	0.8788	0.7052	-0.061
Mof_C 	C 	0.3649	0.811	0.5254	-0.069
Mof_C 	C 	0.8326	0.267	0.2978	-0.056
Mof_C 	C 	0.26845	0.592	0.6739	-0.039
Mof_C 	C 	0.28898	0.02596	0.46708	0.403
Mof_C 	C 	0.6052	0.437	0.6202	-0.084
Mof_C 	C 	0.39282	0.51742	0.34714	-0.029
Mof_C 	C 	0.7397	0.6738	0.8236	-0.057
Mof_C 	C 	0.55765	0.908	0.6739	-0.02
Mof_C 	C 	0.0417	0.1212	0.2052	-0.038
Mof_C 	C 	0.1578	0.7756	0.9528	-0.048
Mof_C 	C 	0.47126	0.106	0.28228	0.046
Mof_C 	C 	0.1086	0.7708	0.9864	0.046
Mof_C 	C 	0.65828	0.4926	0.22504	-0.013
Mof_C 	C 	0.9824	0.1472	0.145	-0.053
Mof_C 	C 	0.76004	0.98258	0.34714	-0.028
Mof_C 	C 	0.6683	0.3498	0.3	-0.041
Mof_C 	C 	0.59565	0.89356	0.91274	0.013
Mof_C 	C 	0.3948	0.563	0.3798	-0.084
Mof_C 	C 	0.4101	0.7998	0.554	0.016
Mof_C 	C 	0.34741	0.5443	0.30748	0.022
Mof_C 	C 	0.60924	0.7777	0.86862	-0.049
Mof_C 	C 	0.4956	0.292	0.1702	-0.045
Mof_C 	C 	0.1624	0.063	0.8798	-0.089
Mof_C 	C 	0.7371	0.8262	0.6764	-0.034
Mof_C 	C 	0.5422	0.792	0.6702	0.016
Mof_C 	C 	0.1731	0.7844	0.0274	-0.131
Mof_C 	C 	0.61738	0.71908	0.84016	0.07
Mof_C 	C 	0.4223	0.3032	0.5202	0.053
Mof_C 	C 	0.73155	0.408	0.3261	-0.039
Mof_C 	C 	0.77555	0.86248	0.37342	-0.004
Mof_C 	C 	0.7469	0.6212	0.7948	-0.04
Mof_C 	C 	0.11306	0.7777	0.63138	-0.057
Mof_C 	C 	0.63826	0.96696	0.42232	0.389
Mof_C 	C 	0.52884	0.6638	0.16532	-0.041
Mof_C 	C 	0.5359	0.7002	0.554	0.015
Mof_C 	C 	0.2995	0.7156	0.0274	-0.135
Mof_C 	C 	0.56058	0.46696	0.57768	0.389
Mof_C 	C 	0.93133	0.17118	0.38956	0.008
Mof_C 	C 	0.86789	0.59768	0.92854	-0.024
Mof_C 	C 	0.44235	0.092	0.3261	-0.02
Mof_C 	C 	0.38332	0.9926	0.77496	-0.012
Mof_C 	C 	0.1658	0.792	0.8298	-0.048
Mof_C 	C 	0.13211	0.40232	0.07146	-0.024
Mof_C 	C 	0.7745	0.3032	0.9798	0.05
Mof_C 	C 	0.1187	0.819	0.7696	-0.026
Mof_C 	C 	0.1674	0.733	0.7022	-0.056
Mof_C 	C 	0.4425	0.8032	0.4798	0.055
Mof_C 	C 	0.3704	0.1472	0.355	-0.074
Mof_C 	C 	0.0633	0.1738	0.1764	-0.057
Mof_C 	C 	0.2255	0.6968	0.0202	0.05
Mof_C 	C 	0.35954	0.394	0.21772	0.037
Mof_C 	C 	0.5151	0.2844	0.5274	-0.137
Mof_C 	C 	0.34172	0.5074	0.77496	-0.013
Mof_C 	C 	0.64046	0.606	0.78228	0.037
Mof_C 	C 	0.4575	0.2156	0.5274	-0.138
Mof_C 	C 	0.2073	0.681	0.7304	-0.025
Mof_C 	C 	0.11494	0.53398	0.55094	-0.091
Mof_C 	C 	0.89411	0.90232	0.57146	-0.014
Mof_C 	C 	0.2876	0.708	0.6702	-0.054
Mof_C 	C 	0.58267	0.02276	0.9527	-0.001
Mof_C 	C 	0.5575	0.1968	0.5202	0.055
Mof_C 	C 	0.97786	0.2777	0.13138	-0.048
Mof_C 	C 	0.67662	0.78092	0.65984	0.06
Mof_C 	C 	0.83412	0.96602	0.55094	-0.091
Mof_C 	C 	0.13803	0.13752	0.87342	-0.003
Mof_C 	C 	0.6342	0.2708	0.4864	0.046
Mof_C 	C 	0.6097	0.689	0.5254	-0.068
Mof_C 	C 	0.7927	0.319	0.2696	-0.025
Mof_C 	C 	0.89478	0.96696	0.07768	0.39
Mof_C 	C 	0.23996	0.01742	0.65286	-0.028
Mof_C 	C 	0.69113	0.3822	0.69794	-0.06
Mof_C 	C 	0.30014	0.03398	0.05094	-0.094
Mof_C 	C 	0.4819	0.3498	0.2	-0.049
Mof_C 	C 	0.3371	0.1212	0.2948	-0.061
Mof_C 	C 	0.7361	0.2998	0.054	0.022
Mof_C 	C 	0.71102	0.97404	0.53292	0.403
Mof_C 	C 	0.87592	0.0074	0.27496	-0.013
Mof_C 	C 	0.4377	0.181	0.2696	0.007
Mof_C 	C 	0.595	0.2708	0.0136	0.052
Mof_C 	C 	0.6304	0.767	0.7022	-0.093
Mof_C 	C 	0.52874	0.894	0.71772	0.046
Mof_C 	C 	0.2629	0.1738	0.3236	-0.034
Mof_C 	C 	0.39076	0.2223	0.13138	-0.049
Mof_C 	C 	0.58976	0.51742	0.15286	-0.029
Mof_C 	C 	0.09891	0.94894	0.75124	-0.033
Mof_C 	C 	0.10213	0.5498	0.91734	-0.058
Mof_C 	C 	0.9367	0.8262	0.8236	-0.057
Mof_C 	C 	0.6138	0.2756	0.4528	-0.044
Mof_C 	C 	0.16588	0.03398	0.44906	-0.091
Mof_C 	C 	0.30887	0.6178	0.30206	-0.06
Mof_C 	C 	0.7254	0.937	0.3798	-0.084
Mof_C 	C 	0.18506	0.02596	0.03292	0.402
Mof_C 	C 	0.52754	0.53304	0.07768	0.388
Mof_C 	C 	0.1319	0.6212	0.7052	-0.034
Mof_C 	C 	0.6759	0.189	0.0254	-0.071
Mof_C 	C 	0.04246	0.78092	0.84016	0.066
Mof_C 	C 	0.35015	0.44894	0.24876	-0.032
Mof_C 	C 	0.8422	0.2244	0.0472	-0.048
Mof_C 	C 	0.25354	0.606	0.71772	0.037
Mof_C 	C 	0.6351	0.189	0.4746	-0.069
Mof_C 	C 	0.5666	0.7756	0.5472	-0.045
Mof_C 	C 	0.8181	0.1502	0.2	-0.045
Mof_C 	C 	0.96463	0.47724	0.9527	-0.001
Mof_C 	C 	0.00793	0.67118	0.88956	-0.009
Mof_C 	C 	0.25606	0.52596	0.53292	0.403
Mof_C 	C 	0.11093	0.1178	0.69794	-0.06
Mof_C 	C 	0.0176	0.8528	0.855	-0.053
Mof_C 	C 	0.51145	0.63752	0.12658	-0.004
Mof_C 	C 	0.0865	0.6738	0.6764	-0.063
Mof_C 	C 	0.48053	0.9502	0.91734	-0.059
Mof_C 	C 	0.95754	0.21908	0.15984	0.066
Mof_C 	C 	0.65259	0.4557	0.69252	0.022
Mof_C 	C 	0.16354	0.71908	0.65984	0.074
Mof_C 	C 	0.4683	0.8498	0.7	-0.086
Mof_C 	C 	0.69919	0.9557	0.19252	0.019
Mof_C 	C 	0.85796	0.8362	0.33468	-0.04
Mof_C 	C 	0.19416	0.1638	0.83468	-0.042
Mof_C 	C 	0.36045	0.408	0.1739	-0.035
Mof_C 	C 	0.22445	0.13752	0.62658	-0.004
Mof_C 	C 	0.8914	0.2292	0.0136	0.046
Mof_C 	C 	0.8342	0.208	0.1702	-0.048
Mof_C 	C 	0.84511	0.9557	0.30748	0.022
Mof_C 	C 	0.6106	0.2756	0.0472	-0.051
Mof_C 	C 	0.3894	0.7244	0.9528	-0.051
Mof_C 	C 	0.85108	0.53398	0.94906	-0.093
Mof_C 	C 	0.3794	0.2292	0.4864	0.047
Mof_C 	C 	0.60251	0.82882	0.88956	-0.008
Mof_C 	C 	0.1819	0.8498	0.8	-0.045
Mof_C 	C 	0.47246	0.46696	0.92232	0.388
Mof_C 	C 	0.8813	0.181	0.2304	-0.026
Mof_C 	C 	0.30736	0.6638	0.33468	-0.039
Mof_C 	C 	0.2531	0.3788	0.2052	-0.04
Mof_C 	C 	0.82089	0.67118	0.61044	0.003
Mof_C 	C 	0.88907	0.8822	0.30206	-0.06
Mof_C 	C 	0.4849	0.7156	0.4726	-0.137
Mof_C 	C 	0.86197	0.86248	0.12658	-0.003
Mof_C 	C 	0.98921	0.10644	0.41274	-0.012
Mof_C 	C 	0.36174	0.03304	0.57768	0.389
Mof_C 	C 	0.89787	0.4502	0.08266	-0.058
Mof_C 	C 	0.2639	0.7002	0.946	0.022
Mof_C 	C 	0.69264	0.3362	0.66532	-0.039
Mof_C 	C 	0.03537	0.52276	0.0473	-0.001
Mof_C 	C 	0.24444	0.2777	0.36862	-0.049
Mof_C 	C 	0.5899	0.2002	0.446	0.016
Mof_C 	C 	0.43942	0.53304	0.42232	0.389
Mof_C 	C 	0.57333	0.6178	0.19794	-0.06
Mof_C 	C 	0.99161	0.60644	0.91274	0.014
Mof_C 	C 	0.2543	0.8032	0.0202	0.049
Mof_C 	C 	0.38262	0.28092	0.15984	0.07
Mof_C 	C 	0.41024	0.48258	0.84714	-0.029
Mof_C 	C 	0.89457	0.02276	0.5473	-0.018
Mof_C 	C 	0.7746	0.3528	0.355	-0.053
Mof_C 	C 	0.4334	0.2244	0.4528	-0.045
Mof_C 	C 	0.74394	0.47404	0.46708	0.403
Mof_C 	C 	0.00839	0.39356	0.08726	0.014
Mof_C 	C 	0.3241	0.811	0.9746	-0.071
Mof_C 	C 	0.14204	0.1638	0.66532	-0.04
Mof_C 	C 	0.47116	0.3362	0.83468	-0.041
Mof_C 	C 	0.8376	0.937	0.1202	-0.089
Mof_C 	C 	0.3883	0.319	0.2304	-0.016
Mof_C 	C 	0.4578	0.437	0.8798	-0.088
Mof_C 	C 	0.6296	0.8528	0.645	-0.074
Mof_C 	C 	0.34912	0.4926	0.27496	-0.013
Mof_C 	C 	0.03435	0.908	0.8261	-0.04
Mof_C 	C 	0.7005	0.2844	0.9726	-0.135
Mof_C 	C 	0.7987	0.311	0.0254	-0.069
Mof_C 	C 	0.4641	0.2998	0.446	0.015
Mof_C 	C 	0.48855	0.36248	0.87342	-0.004
Mof_C 	C 	0.42667	0.3822	0.80206	-0.06
Mof_C 	C 	0.96557	0.40232	0.42854	-0.015
Mof_C 	C 	0.01079	0.89356	0.58726	-0.012
Mof_C 	C 	0.96565	0.092	0.1739	-0.04
Mof_C 	C 	0.90109	0.05106	0.24876	-0.033
Mof_C 	C 	0.30081	0.0443	0.80748	0.019
Mof_C 	C 	0.27127	0.1178	0.80206	-0.058
Mof_C 	C 	0.88506	0.46602	0.44906	-0.091
Mof_C 	C 	0.99207	0.32882	0.11044	-0.009
Mof_C 	C 	0.5181	0.6502	0.8	-0.049
Mof_C 	C 	0.47606	0.01358	0.9359	-0.035
Mof_C 	C 	0.7124	0.292	0.3298	-0.054
Mof_C 	C 	0.64985	0.55106	0.75124	-0.032
Mof_C 	C 	0.5623	0.819	0.7304	0.007
Mof_C 	C 	0.70357	0.90232	0.92854	-0.024
Mof_C 	C 	0.2254	0.6472	0.645	-0.053
Mof_C 	C 	0.83646	0.28092	0.34016	0.074
Mof_C 	C 	0.61668	0.0074	0.22504	-0.012
Mof_C 	C 	0.71798	0.52596	0.96708	0.403
Mof_C 	C 	0.40435	0.10644	0.08726	0.013
Mof_C 	C 	0.60829	0.5443	0.19252	0.02
Mof_C 	C 	0.6206	0.7708	0.5136	0.047
Mof_C 	C 	0.03443	0.59768	0.57146	-0.015
Mof_C 	C 	0.6117	0.681	0.7696	-0.016
Mof_C 	C 	0.64897	0.36248	0.62658	-0.004
Mof_C 	C 	0.6274	0.6472	0.855	-0.056
Mof_C 	C 	0.2746	0.063	0.6202	-0.084
Mof_C 	C 	0.2901	0.7998	0.946	0.024
Mof_C 	C 	0.70091	0.44894	0.25124	-0.032
Mof_C 	C 	0.75556	0.7223	0.63138	-0.049
Mof_C 	C 	0.45215	0.94894	0.74876	-0.036
Mof_C 	C 	0.9135	0.3262	0.3236	-0.063
Mof_C 	C 	0.29909	0.55106	0.74876	-0.032
Mof_C 	C 	0.7099	0.2002	0.054	0.024
Mof_C 	C 	0.51947	0.0498	0.08266	-0.059
Mof_C 	C 	0.07726	0.894	0.78228	0.04
Mof_C 	C 	0.05813	0.47724	0.5473	-0.018
Mof_C 	C 	0.4004	0.267	0.2022	-0.065
Mof_C 	C 	0.8269	0.2156	0.9726	-0.131
Mof_C 	C 	0.75738	0.98258	0.15286	-0.026
Mof_C 	C 	0.5996	0.733	0.7978	-0.065
Mof_C 	C 	0.3658	0.7292	0.5136	0.046
Mof_C 	C 	0.81494	0.97404	0.96708	0.402
Mof_C 	C 	0.80584	0.8362	0.16532	-0.042
Mof_C 	C 	0.90195	0.60644	0.58726	-0.01
Mof_C 	C 	0.35103	0.63752	0.37342	-0.004
Mof_C 	C 	0.10543	0.97724	0.4527	-0.018
Mof_C 	C 	0.54785	0.05106	0.25124	-0.036
Mof_C 	C 	0.08804	0.48642	0.9359	-0.037
Mof_C 	C 	0.8681	0.3788	0.2948	-0.034
Mof_C 	C 	0.09805	0.39356	0.41274	-0.01
Mof_C 	C 	0.405	0.7292	0.9864	0.052
Mof_C 	C 	0.17911	0.32882	0.38956	0.003
Mof_C 	C 	0.14892	0.46602	0.05094	-0.093
Mof_C 	C 	0.10589	0.09768	0.42854	-0.014
Mof_C 	C 	0.06867	0.82882	0.61044	0.008
Mof_C 	C 	0.5317	0.1502	0.3	-0.086
Mof_C 	C 	0.69986	0.96602	0.94906	-0.094
Mof_C 	C 	0.92274	0.106	0.21772	0.04
Mof_C 	C 	0.32338	0.21908	0.34016	0.06
Mof_C 	C 	0.3903	0.311	0.4746	-0.068
Mof_N 	N 	0.32752	0.68328	0.98448	-0.202
Mof_N 	N 	0.67248	0.31672	0.01552	-0.202
Mof_N 	N 	0.5108	0.31672	0.48448	-0.201
Mof_N 	N 	0.49528	0.81672	0.51552	-0.202
Mof_N 	N 	0.812	0.18328	0.01552	-0.202
Mof_N 	N 	0.4892	0.68328	0.51552	-0.201
Mof_N 	N 	0.188	0.81672	0.98448	-0.202
Mof_N 	N 	0.50472	0.18328	0.48448	-0.202
Mof_O 	O 	0.29832	0.57954	0.53582	-0.471
Mof_O 	O 	0.44129	0.57854	0.45028	-0.469
Mof_O 	O 	0.37786	0.42046	0.03582	-0.472
Mof_O 	O 	0.02989	0.07854	0.95028	-0.47
Mof_O 	O 	0.32126	0.46682	0.51546	-0.481
Mof_O 	O 	0.28808	0.53318	0.01546	-0.482
Mof_O 	O 	0.33672	0.96682	0.48454	-0.481
Mof_O 	O 	0.70168	0.42046	0.46418	-0.471
Mof_O 	O 	0.62214	0.57954	0.96418	-0.472
Mof_O 	O 	0.53588	0.53346	0.57178	-0.46
Mof_O 	O 	0.85888	0.03346	0.07178	-0.465
Mof_O 	O 	0.51983	0.42146	0.95028	-0.47
Mof_O 	O 	0.33414	0.07954	0.46418	-0.471
Mof_O 	O 	0.46412	0.46654	0.42822	-0.46
Mof_O 	O 	0.67874	0.53318	0.48454	-0.481
Mof_O 	O 	0.39157	0.07854	0.54972	-0.469
Mof_O 	O 	0.60766	0.03346	0.42822	-0.46
Mof_O 	O 	0.43066	0.53346	0.92822	-0.464
Mof_O 	O 	0.19646	0.96682	0.01546	-0.481
Mof_O 	O 	0.08632	0.07954	0.03582	-0.471
Mof_O 	O 	0.71192	0.46682	0.98454	-0.482
Mof_O 	O 	0.80354	0.03318	0.98454	-0.481
Mof_O 	O 	0.56934	0.46654	0.07178	-0.464
Mof_O 	O 	0.48017	0.57854	0.04972	-0.47
Mof_O 	O 	0.66586	0.92046	0.53582	-0.471
Mof_O 	O 	0.97011	0.92146	0.04972	-0.47
Mof_O 	O 	0.55871	0.42146	0.54972	-0.469
Mof_O 	O 	0.60843	0.92146	0.45028	-0.469
Mof_O 	O 	0.91368	0.92046	0.96418	-0.471
Mof_O 	O 	0.14112	0.96654	0.92822	-0.465
Mof_O 	O 	0.66328	0.03318	0.51546	-0.481
Mof_O 	O 	0.39234	0.96654	0.57178	-0.46
_end
