data_functionalizedCrystal
_audit_creation_method	'EQeq! by Chris Wilmer'
_symmetry_space_group_name_H-M	'P1'
_symmetry_Int_Tables_number	1
_symmetry_cell_setting	triclinic
loop_
_symmetry_equiv_pos_as_xyz
  x,y,z
_cell_length_a	28.8037
_cell_length_b	28.8037
_cell_length_c	28.8037
_cell_angle_alpha	90
_cell_angle_beta	90
_cell_angle_gamma	90
loop_
_atom_site_label
_atom_site_type_symbol
_atom_site_fract_x
_atom_site_fract_y
_atom_site_fract_z
_atom_site_charge
Mof_C 	C 	0.965	0.5735	0.9015	0.34
Mof_C 	C 	0.0062	0.5589	0.9295	-0.112
Mof_C 	C 	0.0196	0.5839	0.9678	0.045
Mof_H 	H 	0.0026	0.6098	0.9767	0.04
Mof_C 	C 	0.8393	0.5834	0.8472	0.09
Mof_H 	H 	0.8169	0.6041	0.832	0.022
Mof_C 	C 	0.8349	0.5354	0.8251	-0.017
Mof_C 	C 	0.8389	0.532	0.7717	0.013
Mof_C 	C 	0.877	0.532	0.7352	0
Mof_C 	C 	0.9245	0.694	0.9663	0.085
Mof_H 	H 	0.9211	0.6629	0.9743	0.014
Mof_C 	C 	0.9342	0.7264	0.003	-0.155
Mof_H 	H 	0.9361	0.7171	0.0338	0.097
Mof_C 	C 	0.9404	0.7705	0.9905	0.098
Mof_H 	H 	0.948	0.7924	0.0129	0.013
Mof_C 	C 	0.936	0.7832	0.9479	-0.159
Mof_H 	H 	0.9394	0.8144	0.9401	0.089
Mof_C 	C 	0.9256	0.7488	0.9113	0.091
Mof_H 	H 	0.923	0.7583	0.8806	-0.008
Mof_N 	N 	0.9201	0.7053	0.9217	-0.235
Mof_O 	O 	0.94836	0.6124	0.91144	-0.405
Mof_O 	O 	0.94951	0.5471	0.8699	-0.295
Mof_O 	O 	0.8835	0.59721	0.8344	-0.508
Mof_H 	H 	0.9026	0.5798	0.8463	0.275
Mof_C 	C 	0.535	0.4265	0.4015	0.34
Mof_C 	C 	0.4938	0.4411	0.4295	-0.112
Mof_C 	C 	0.4804	0.4161	0.4678	0.045
Mof_H 	H 	0.4974	0.3902	0.4767	0.04
Mof_C 	C 	0.6607	0.4166	0.3472	0.09
Mof_H 	H 	0.6831	0.3959	0.332	0.022
Mof_C 	C 	0.6651	0.4646	0.3251	-0.017
Mof_C 	C 	0.6611	0.468	0.2717	0.013
Mof_C 	C 	0.623	0.468	0.2352	0
Mof_C 	C 	0.5755	0.306	0.4663	0.085
Mof_H 	H 	0.5789	0.3371	0.4743	0.014
Mof_C 	C 	0.5658	0.2736	0.503	-0.154
Mof_H 	H 	0.5639	0.2829	0.5338	0.097
Mof_C 	C 	0.5596	0.2295	0.4905	0.098
Mof_H 	H 	0.552	0.2076	0.5129	0.014
Mof_C 	C 	0.564	0.2168	0.4479	-0.159
Mof_H 	H 	0.5606	0.1856	0.4401	0.089
Mof_C 	C 	0.5744	0.2512	0.4113	0.091
Mof_H 	H 	0.577	0.2417	0.3806	-0.008
Mof_N 	N 	0.5799	0.2947	0.4217	-0.235
Mof_O 	O 	0.55164	0.3876	0.41144	-0.405
Mof_O 	O 	0.55049	0.4529	0.3699	-0.295
Mof_O 	O 	0.6165	0.40279	0.3344	-0.508
Mof_H 	H 	0.5974	0.4202	0.3463	0.275
Mof_C 	C 	0.035	0.0735	0.5985	0.34
Mof_C 	C 	0.9938	0.0589	0.5705	-0.112
Mof_C 	C 	0.9804	0.0839	0.5322	0.045
Mof_H 	H 	0.9974	0.1098	0.5233	0.04
Mof_C 	C 	0.1607	0.0834	0.6528	0.09
Mof_H 	H 	0.1831	0.1041	0.668	0.022
Mof_C 	C 	0.1651	0.0354	0.6749	-0.017
Mof_C 	C 	0.1611	0.032	0.7283	0.013
Mof_C 	C 	0.123	0.032	0.7648	0
Mof_C 	C 	0.0755	0.194	0.5337	0.085
Mof_H 	H 	0.0789	0.1629	0.5257	0.014
Mof_C 	C 	0.0658	0.2264	0.497	-0.154
Mof_H 	H 	0.0639	0.2171	0.4662	0.097
Mof_C 	C 	0.0596	0.2705	0.5095	0.098
Mof_H 	H 	0.052	0.2924	0.4871	0.014
Mof_C 	C 	0.064	0.2832	0.5521	-0.159
Mof_H 	H 	0.0606	0.3144	0.5599	0.089
Mof_C 	C 	0.0744	0.2488	0.5887	0.091
Mof_H 	H 	0.077	0.2583	0.6194	-0.008
Mof_N 	N 	0.0799	0.2053	0.5783	-0.235
Mof_O 	O 	0.05164	0.1124	0.58856	-0.405
Mof_O 	O 	0.05049	0.0471	0.6301	-0.295
Mof_O 	O 	0.1165	0.09721	0.6656	-0.508
Mof_H 	H 	0.0974	0.0798	0.6537	0.275
Mof_C 	C 	0.465	0.9265	0.0985	0.341
Mof_C 	C 	0.5062	0.9411	0.0705	-0.111
Mof_C 	C 	0.5196	0.9161	0.0322	0.046
Mof_H 	H 	0.5026	0.8902	0.0233	0.041
Mof_C 	C 	0.3393	0.9166	0.1528	0.091
Mof_H 	H 	0.3169	0.8959	0.168	0.023
Mof_C 	C 	0.3349	0.9646	0.1749	-0.016
Mof_C 	C 	0.3389	0.968	0.2283	0.014
Mof_C 	C 	0.377	0.968	0.2648	0.001
Mof_C 	C 	0.4245	0.806	0.0337	0.086
Mof_H 	H 	0.4211	0.8371	0.0257	0.015
Mof_C 	C 	0.4342	0.7736	0.997	-0.153
Mof_H 	H 	0.4361	0.7829	0.9662	0.098
Mof_C 	C 	0.4404	0.7295	0.0095	0.099
Mof_H 	H 	0.448	0.7076	0.9871	0.015
Mof_C 	C 	0.436	0.7168	0.0521	-0.158
Mof_H 	H 	0.4394	0.6856	0.0599	0.09
Mof_C 	C 	0.4256	0.7512	0.0887	0.091
Mof_H 	H 	0.423	0.7417	0.1194	-0.007
Mof_N 	N 	0.4201	0.7947	0.0783	-0.234
Mof_O 	O 	0.44836	0.8876	0.08856	-0.404
Mof_O 	O 	0.44951	0.9529	0.1301	-0.294
Mof_O 	O 	0.3835	0.90279	0.1656	-0.507
Mof_H 	H 	0.4026	0.9202	0.1537	0.276
Mof_C 	C 	0.9015	0.965	0.5735	0.341
Mof_C 	C 	0.9295	0.0062	0.5589	-0.111
Mof_C 	C 	0.9678	0.0196	0.5839	0.046
Mof_H 	H 	0.9767	0.0026	0.6098	0.041
Mof_C 	C 	0.8472	0.8393	0.5834	0.091
Mof_H 	H 	0.832	0.8169	0.6041	0.023
Mof_C 	C 	0.8251	0.8349	0.5354	-0.016
Mof_C 	C 	0.7717	0.8389	0.532	0.014
Mof_C 	C 	0.7352	0.877	0.532	0.001
Mof_C 	C 	0.9663	0.9245	0.694	0.086
Mof_H 	H 	0.9743	0.9211	0.6629	0.015
Mof_C 	C 	0.003	0.9342	0.7264	-0.154
Mof_H 	H 	0.0338	0.9361	0.7171	0.098
Mof_C 	C 	0.9905	0.9404	0.7705	0.099
Mof_H 	H 	0.0129	0.948	0.7924	0.014
Mof_C 	C 	0.9479	0.936	0.7832	-0.158
Mof_H 	H 	0.9401	0.9394	0.8144	0.09
Mof_C 	C 	0.9113	0.9256	0.7488	0.092
Mof_H 	H 	0.8806	0.923	0.7583	-0.007
Mof_N 	N 	0.9217	0.9201	0.7053	-0.234
Mof_O 	O 	0.91144	0.94836	0.6124	-0.404
Mof_O 	O 	0.8699	0.94951	0.5471	-0.294
Mof_O 	O 	0.8344	0.8835	0.59721	-0.507
Mof_H 	H 	0.8463	0.9026	0.5798	0.276
Mof_C 	C 	0.4015	0.535	0.4265	0.341
Mof_C 	C 	0.4295	0.4938	0.4411	-0.111
Mof_C 	C 	0.4678	0.4804	0.4161	0.046
Mof_H 	H 	0.4767	0.4974	0.3902	0.041
Mof_C 	C 	0.3472	0.6607	0.4166	0.091
Mof_H 	H 	0.332	0.6831	0.3959	0.023
Mof_C 	C 	0.3251	0.6651	0.4646	-0.016
Mof_C 	C 	0.2717	0.6611	0.468	0.014
Mof_C 	C 	0.2352	0.623	0.468	0.001
Mof_C 	C 	0.4663	0.5755	0.306	0.086
Mof_H 	H 	0.4743	0.5789	0.3371	0.015
Mof_C 	C 	0.503	0.5658	0.2736	-0.153
Mof_H 	H 	0.5338	0.5639	0.2829	0.098
Mof_C 	C 	0.4905	0.5596	0.2295	0.099
Mof_H 	H 	0.5129	0.552	0.2076	0.015
Mof_C 	C 	0.4479	0.564	0.2168	-0.158
Mof_H 	H 	0.4401	0.5606	0.1856	0.09
Mof_C 	C 	0.4113	0.5744	0.2512	0.092
Mof_H 	H 	0.3806	0.577	0.2417	-0.007
Mof_N 	N 	0.4217	0.5799	0.2947	-0.234
Mof_O 	O 	0.41144	0.55164	0.3876	-0.404
Mof_O 	O 	0.3699	0.55049	0.4529	-0.294
Mof_O 	O 	0.3344	0.6165	0.40279	-0.507
Mof_H 	H 	0.3463	0.5974	0.4202	0.276
Mof_C 	C 	0.5985	0.035	0.0735	0.341
Mof_C 	C 	0.5705	0.9938	0.0589	-0.111
Mof_C 	C 	0.5322	0.9804	0.0839	0.046
Mof_H 	H 	0.5233	0.9974	0.1098	0.041
Mof_C 	C 	0.6528	0.1607	0.0834	0.091
Mof_H 	H 	0.668	0.1831	0.1041	0.023
Mof_C 	C 	0.6749	0.1651	0.0354	-0.016
Mof_C 	C 	0.7283	0.1611	0.032	0.014
Mof_C 	C 	0.7648	0.123	0.032	0.001
Mof_C 	C 	0.5337	0.0755	0.194	0.086
Mof_H 	H 	0.5257	0.0789	0.1629	0.015
Mof_C 	C 	0.497	0.0658	0.2264	-0.153
Mof_H 	H 	0.4662	0.0639	0.2171	0.098
Mof_C 	C 	0.5095	0.0596	0.2705	0.099
Mof_H 	H 	0.4871	0.052	0.2924	0.015
Mof_C 	C 	0.5521	0.064	0.2832	-0.158
Mof_H 	H 	0.5599	0.0606	0.3144	0.09
Mof_C 	C 	0.5887	0.0744	0.2488	0.092
Mof_H 	H 	0.6194	0.077	0.2583	-0.007
Mof_N 	N 	0.5783	0.0799	0.2053	-0.234
Mof_O 	O 	0.58856	0.05164	0.1124	-0.404
Mof_O 	O 	0.6301	0.05049	0.0471	-0.294
Mof_O 	O 	0.6656	0.1165	0.09721	-0.507
Mof_H 	H 	0.6537	0.0974	0.0798	0.276
Mof_C 	C 	0.0985	0.465	0.9265	0.341
Mof_C 	C 	0.0705	0.5062	0.9411	-0.111
Mof_C 	C 	0.0322	0.5196	0.9161	0.046
Mof_H 	H 	0.0233	0.5026	0.8902	0.041
Mof_C 	C 	0.1528	0.3393	0.9166	0.091
Mof_H 	H 	0.168	0.3169	0.8959	0.023
Mof_C 	C 	0.1749	0.3349	0.9646	-0.016
Mof_C 	C 	0.2283	0.3389	0.968	0.014
Mof_C 	C 	0.2648	0.377	0.968	0.001
Mof_C 	C 	0.0337	0.4245	0.806	0.086
Mof_H 	H 	0.0257	0.4211	0.8371	0.015
Mof_C 	C 	0.997	0.4342	0.7736	-0.153
Mof_H 	H 	0.9662	0.4361	0.7829	0.098
Mof_C 	C 	0.0095	0.4404	0.7295	0.099
Mof_H 	H 	0.9871	0.448	0.7076	0.015
Mof_C 	C 	0.0521	0.436	0.7168	-0.158
Mof_H 	H 	0.0599	0.4394	0.6856	0.09
Mof_C 	C 	0.0887	0.4256	0.7512	0.091
Mof_H 	H 	0.1194	0.423	0.7417	-0.007
Mof_N 	N 	0.0783	0.4201	0.7947	-0.234
Mof_O 	O 	0.08856	0.44836	0.8876	-0.404
Mof_O 	O 	0.1301	0.44951	0.9529	-0.294
Mof_O 	O 	0.1656	0.3835	0.90279	-0.507
Mof_H 	H 	0.1537	0.4026	0.9202	0.276
Mof_C 	C 	0.5735	0.9015	0.965	0.341
Mof_C 	C 	0.5589	0.9295	0.0062	-0.111
Mof_C 	C 	0.5839	0.9678	0.0196	0.046
Mof_H 	H 	0.6098	0.9767	0.0026	0.041
Mof_C 	C 	0.5834	0.8472	0.8393	0.091
Mof_H 	H 	0.6041	0.832	0.8169	0.023
Mof_C 	C 	0.5354	0.8251	0.8349	-0.016
Mof_C 	C 	0.532	0.7717	0.8389	0.014
Mof_C 	C 	0.532	0.7352	0.877	0.001
Mof_C 	C 	0.694	0.9663	0.9245	0.086
Mof_H 	H 	0.6629	0.9743	0.9211	0.015
Mof_C 	C 	0.7264	0.003	0.9342	-0.154
Mof_H 	H 	0.7171	0.0338	0.9361	0.098
Mof_C 	C 	0.7705	0.9905	0.9404	0.099
Mof_H 	H 	0.7924	0.0129	0.948	0.014
Mof_C 	C 	0.7832	0.9479	0.936	-0.158
Mof_H 	H 	0.8144	0.9401	0.9394	0.09
Mof_C 	C 	0.7488	0.9113	0.9256	0.092
Mof_H 	H 	0.7583	0.8806	0.923	-0.007
Mof_N 	N 	0.7053	0.9217	0.9201	-0.234
Mof_O 	O 	0.6124	0.91144	0.94836	-0.404
Mof_O 	O 	0.5471	0.8699	0.94951	-0.294
Mof_O 	O 	0.59721	0.8344	0.8835	-0.507
Mof_H 	H 	0.5798	0.8463	0.9026	0.276
Mof_C 	C 	0.4265	0.4015	0.535	0.341
Mof_C 	C 	0.4411	0.4295	0.4938	-0.111
Mof_C 	C 	0.4161	0.4678	0.4804	0.046
Mof_H 	H 	0.3902	0.4767	0.4974	0.041
Mof_C 	C 	0.4166	0.3472	0.6607	0.091
Mof_H 	H 	0.3959	0.332	0.6831	0.023
Mof_C 	C 	0.4646	0.3251	0.6651	-0.016
Mof_C 	C 	0.468	0.2717	0.6611	0.014
Mof_C 	C 	0.468	0.2352	0.623	0.001
Mof_C 	C 	0.306	0.4663	0.5755	0.086
Mof_H 	H 	0.3371	0.4743	0.5789	0.015
Mof_C 	C 	0.2736	0.503	0.5658	-0.153
Mof_H 	H 	0.2829	0.5338	0.5639	0.098
Mof_C 	C 	0.2295	0.4905	0.5596	0.099
Mof_H 	H 	0.2076	0.5129	0.552	0.015
Mof_C 	C 	0.2168	0.4479	0.564	-0.158
Mof_H 	H 	0.1856	0.4401	0.5606	0.09
Mof_C 	C 	0.2512	0.4113	0.5744	0.092
Mof_H 	H 	0.2417	0.3806	0.577	-0.007
Mof_N 	N 	0.2947	0.4217	0.5799	-0.234
Mof_O 	O 	0.3876	0.41144	0.55164	-0.404
Mof_O 	O 	0.4529	0.3699	0.55049	-0.294
Mof_O 	O 	0.40279	0.3344	0.6165	-0.507
Mof_H 	H 	0.4202	0.3463	0.5974	0.276
Mof_C 	C 	0.0735	0.5985	0.035	0.341
Mof_C 	C 	0.0589	0.5705	0.9938	-0.111
Mof_C 	C 	0.0839	0.5322	0.9804	0.046
Mof_H 	H 	0.1098	0.5233	0.9974	0.041
Mof_C 	C 	0.0834	0.6528	0.1607	0.091
Mof_H 	H 	0.1041	0.668	0.1831	0.023
Mof_C 	C 	0.0354	0.6749	0.1651	-0.016
Mof_C 	C 	0.032	0.7283	0.1611	0.014
Mof_C 	C 	0.032	0.7648	0.123	0.001
Mof_C 	C 	0.194	0.5337	0.0755	0.086
Mof_H 	H 	0.1629	0.5257	0.0789	0.015
Mof_C 	C 	0.2264	0.497	0.0658	-0.153
Mof_H 	H 	0.2171	0.4662	0.0639	0.098
Mof_C 	C 	0.2705	0.5095	0.0596	0.099
Mof_H 	H 	0.2924	0.4871	0.052	0.015
Mof_C 	C 	0.2832	0.5521	0.064	-0.158
Mof_H 	H 	0.3144	0.5599	0.0606	0.09
Mof_C 	C 	0.2488	0.5887	0.0744	0.092
Mof_H 	H 	0.2583	0.6194	0.077	-0.007
Mof_N 	N 	0.2053	0.5783	0.0799	-0.234
Mof_O 	O 	0.1124	0.58856	0.05164	-0.404
Mof_O 	O 	0.0471	0.6301	0.05049	-0.294
Mof_O 	O 	0.09721	0.6656	0.1165	-0.507
Mof_H 	H 	0.0798	0.6537	0.0974	0.276
Mof_C 	C 	0.9265	0.0985	0.465	0.341
Mof_C 	C 	0.9411	0.0705	0.5062	-0.111
Mof_C 	C 	0.9161	0.0322	0.5196	0.046
Mof_H 	H 	0.8902	0.0233	0.5026	0.041
Mof_C 	C 	0.9166	0.1528	0.3393	0.091
Mof_H 	H 	0.8959	0.168	0.3169	0.023
Mof_C 	C 	0.9646	0.1749	0.3349	-0.016
Mof_C 	C 	0.968	0.2283	0.3389	0.014
Mof_C 	C 	0.968	0.2648	0.377	0.001
Mof_C 	C 	0.806	0.0337	0.4245	0.086
Mof_H 	H 	0.8371	0.0257	0.4211	0.015
Mof_C 	C 	0.7736	0.997	0.4342	-0.153
Mof_H 	H 	0.7829	0.9662	0.4361	0.098
Mof_C 	C 	0.7295	0.0095	0.4404	0.099
Mof_H 	H 	0.7076	0.9871	0.448	0.015
Mof_C 	C 	0.7168	0.0521	0.436	-0.158
Mof_H 	H 	0.6856	0.0599	0.4394	0.09
Mof_C 	C 	0.7512	0.0887	0.4256	0.091
Mof_H 	H 	0.7417	0.1194	0.423	-0.007
Mof_N 	N 	0.7947	0.0783	0.4201	-0.234
Mof_O 	O 	0.8876	0.08856	0.44836	-0.404
Mof_O 	O 	0.9529	0.1301	0.44951	-0.294
Mof_O 	O 	0.90279	0.1656	0.3835	-0.507
Mof_H 	H 	0.9202	0.1537	0.4026	0.276
Mof_C 	C 	0.8235	0.715	0.8485	0.341
Mof_C 	C 	0.8089	0.7562	0.8205	-0.111
Mof_C 	C 	0.8339	0.7696	0.7822	0.046
Mof_H 	H 	0.8598	0.7526	0.7733	0.041
Mof_C 	C 	0.8334	0.5893	0.9028	0.091
Mof_H 	H 	0.8541	0.5669	0.918	0.023
Mof_C 	C 	0.7854	0.5849	0.9249	-0.016
Mof_C 	C 	0.782	0.5889	0.9783	0.014
Mof_C 	C 	0.782	0.627	0.0148	0.001
Mof_C 	C 	0.944	0.6745	0.7837	0.086
Mof_H 	H 	0.9129	0.6711	0.7757	0.015
Mof_C 	C 	0.9764	0.6842	0.747	-0.153
Mof_H 	H 	0.9671	0.6861	0.7162	0.098
Mof_C 	C 	0.0205	0.6904	0.7595	0.099
Mof_H 	H 	0.0424	0.698	0.7371	0.015
Mof_C 	C 	0.0332	0.686	0.8021	-0.158
Mof_H 	H 	0.0644	0.6894	0.8099	0.09
Mof_C 	C 	0.9988	0.6756	0.8387	0.092
Mof_H 	H 	0.0083	0.673	0.8694	-0.007
Mof_N 	N 	0.9553	0.6701	0.8283	-0.234
Mof_O 	O 	0.8624	0.69836	0.83856	-0.404
Mof_O 	O 	0.7971	0.69951	0.8801	-0.294
Mof_O 	O 	0.84721	0.6335	0.9156	-0.507
Mof_H 	H 	0.8298	0.6526	0.9037	0.276
Mof_C 	C 	0.6765	0.285	0.3485	0.341
Mof_C 	C 	0.6911	0.2438	0.3205	-0.111
Mof_C 	C 	0.6661	0.2304	0.2822	0.046
Mof_H 	H 	0.6402	0.2474	0.2733	0.041
Mof_C 	C 	0.6666	0.4107	0.4028	0.091
Mof_H 	H 	0.6459	0.4331	0.418	0.023
Mof_C 	C 	0.7146	0.4151	0.4249	-0.016
Mof_C 	C 	0.718	0.4111	0.4783	0.014
Mof_C 	C 	0.718	0.373	0.5148	0.001
Mof_C 	C 	0.556	0.3255	0.2837	0.086
Mof_H 	H 	0.5871	0.3289	0.2757	0.015
Mof_C 	C 	0.5236	0.3158	0.247	-0.153
Mof_H 	H 	0.5329	0.3139	0.2162	0.098
Mof_C 	C 	0.4795	0.3096	0.2595	0.099
Mof_H 	H 	0.4576	0.302	0.2371	0.015
Mof_C 	C 	0.4668	0.314	0.3021	-0.158
Mof_H 	H 	0.4356	0.3106	0.3099	0.09
Mof_C 	C 	0.5012	0.3244	0.3387	0.092
Mof_H 	H 	0.4917	0.327	0.3694	-0.007
Mof_N 	N 	0.5447	0.3299	0.3283	-0.234
Mof_O 	O 	0.6376	0.30164	0.33856	-0.404
Mof_O 	O 	0.7029	0.30049	0.3801	-0.294
Mof_O 	O 	0.65279	0.3665	0.4156	-0.507
Mof_H 	H 	0.6702	0.3474	0.4037	0.276
Mof_C 	C 	0.3235	0.785	0.1515	0.341
Mof_C 	C 	0.3089	0.7438	0.1795	-0.111
Mof_C 	C 	0.3339	0.7304	0.2178	0.046
Mof_H 	H 	0.3598	0.7474	0.2267	0.041
Mof_C 	C 	0.3334	0.9107	0.0972	0.091
Mof_H 	H 	0.3541	0.9331	0.082	0.023
Mof_C 	C 	0.2854	0.9151	0.0751	-0.016
Mof_C 	C 	0.282	0.9111	0.0217	0.014
Mof_C 	C 	0.282	0.873	0.9852	0.001
Mof_C 	C 	0.444	0.8255	0.2163	0.086
Mof_H 	H 	0.4129	0.8289	0.2243	0.015
Mof_C 	C 	0.4764	0.8158	0.253	-0.153
Mof_H 	H 	0.4671	0.8139	0.2838	0.098
Mof_C 	C 	0.5205	0.8096	0.2405	0.099
Mof_H 	H 	0.5424	0.802	0.2629	0.015
Mof_C 	C 	0.5332	0.814	0.1979	-0.158
Mof_H 	H 	0.5644	0.8106	0.1901	0.09
Mof_C 	C 	0.4988	0.8244	0.1613	0.092
Mof_H 	H 	0.5083	0.827	0.1306	-0.007
Mof_N 	N 	0.4553	0.8299	0.1717	-0.234
Mof_O 	O 	0.3624	0.80164	0.16144	-0.404
Mof_O 	O 	0.2971	0.80049	0.1199	-0.294
Mof_O 	O 	0.34721	0.8665	0.0844	-0.507
Mof_H 	H 	0.3298	0.8474	0.0963	0.276
Mof_C 	C 	0.1765	0.215	0.6515	0.341
Mof_C 	C 	0.1911	0.2562	0.6795	-0.111
Mof_C 	C 	0.1661	0.2696	0.7178	0.046
Mof_H 	H 	0.1402	0.2526	0.7267	0.041
Mof_C 	C 	0.1666	0.0893	0.5972	0.091
Mof_H 	H 	0.1459	0.0669	0.582	0.023
Mof_C 	C 	0.2146	0.0849	0.5751	-0.016
Mof_C 	C 	0.218	0.0889	0.5217	0.014
Mof_C 	C 	0.218	0.127	0.4852	0.001
Mof_C 	C 	0.056	0.1745	0.7163	0.086
Mof_H 	H 	0.0871	0.1711	0.7243	0.015
Mof_C 	C 	0.0236	0.1842	0.753	-0.153
Mof_H 	H 	0.0329	0.1861	0.7838	0.098
Mof_C 	C 	0.9795	0.1904	0.7405	0.099
Mof_H 	H 	0.9576	0.198	0.7629	0.015
Mof_C 	C 	0.9668	0.186	0.6979	-0.158
Mof_H 	H 	0.9356	0.1894	0.6901	0.09
Mof_C 	C 	0.0012	0.1756	0.6613	0.091
Mof_H 	H 	0.9917	0.173	0.6306	-0.007
Mof_N 	N 	0.0447	0.1701	0.6717	-0.234
Mof_O 	O 	0.1376	0.19836	0.66144	-0.404
Mof_O 	O 	0.2029	0.19951	0.6199	-0.294
Mof_O 	O 	0.15279	0.1335	0.5844	-0.507
Mof_H 	H 	0.1702	0.1526	0.5963	0.276
Mof_C 	C 	0.215	0.6515	0.1765	0.341
Mof_C 	C 	0.2562	0.6795	0.1911	-0.111
Mof_C 	C 	0.2696	0.7178	0.1661	0.046
Mof_H 	H 	0.2526	0.7267	0.1402	0.041
Mof_C 	C 	0.0893	0.5972	0.1666	0.091
Mof_H 	H 	0.0669	0.582	0.1459	0.023
Mof_C 	C 	0.0849	0.5751	0.2146	-0.016
Mof_C 	C 	0.0889	0.5217	0.218	0.014
Mof_C 	C 	0.127	0.4852	0.218	0.001
Mof_C 	C 	0.1745	0.7163	0.056	0.086
Mof_H 	H 	0.1711	0.7243	0.0871	0.015
Mof_C 	C 	0.1842	0.753	0.0236	-0.153
Mof_H 	H 	0.1861	0.7838	0.0329	0.098
Mof_C 	C 	0.1904	0.7405	0.9795	0.099
Mof_H 	H 	0.198	0.7629	0.9576	0.015
Mof_C 	C 	0.186	0.6979	0.9668	-0.158
Mof_H 	H 	0.1894	0.6901	0.9356	0.09
Mof_C 	C 	0.1756	0.6613	0.0012	0.091
Mof_H 	H 	0.173	0.6306	0.9917	-0.007
Mof_N 	N 	0.1701	0.6717	0.0447	-0.234
Mof_O 	O 	0.19836	0.66144	0.1376	-0.404
Mof_O 	O 	0.19951	0.6199	0.2029	-0.294
Mof_O 	O 	0.1335	0.5844	0.15279	-0.507
Mof_H 	H 	0.1526	0.5963	0.1702	0.276
Mof_C 	C 	0.785	0.1515	0.3235	0.341
Mof_C 	C 	0.7438	0.1795	0.3089	-0.111
Mof_C 	C 	0.7304	0.2178	0.3339	0.046
Mof_H 	H 	0.7474	0.2267	0.3598	0.041
Mof_C 	C 	0.9107	0.0972	0.3334	0.091
Mof_H 	H 	0.9331	0.082	0.3541	0.023
Mof_C 	C 	0.9151	0.0751	0.2854	-0.016
Mof_C 	C 	0.9111	0.0217	0.282	0.014
Mof_C 	C 	0.873	0.9852	0.282	0.001
Mof_C 	C 	0.8255	0.2163	0.444	0.086
Mof_H 	H 	0.8289	0.2243	0.4129	0.015
Mof_C 	C 	0.8158	0.253	0.4764	-0.153
Mof_H 	H 	0.8139	0.2838	0.4671	0.098
Mof_C 	C 	0.8096	0.2405	0.5205	0.099
Mof_H 	H 	0.802	0.2629	0.5424	0.015
Mof_C 	C 	0.814	0.1979	0.5332	-0.158
Mof_H 	H 	0.8106	0.1901	0.5644	0.09
Mof_C 	C 	0.8244	0.1613	0.4988	0.092
Mof_H 	H 	0.827	0.1306	0.5083	-0.007
Mof_N 	N 	0.8299	0.1717	0.4553	-0.234
Mof_O 	O 	0.80164	0.16144	0.3624	-0.404
Mof_O 	O 	0.80049	0.1199	0.2971	-0.294
Mof_O 	O 	0.8665	0.0844	0.34721	-0.507
Mof_H 	H 	0.8474	0.0963	0.3298	0.276
Mof_C 	C 	0.285	0.3485	0.6765	0.341
Mof_C 	C 	0.2438	0.3205	0.6911	-0.111
Mof_C 	C 	0.2304	0.2822	0.6661	0.046
Mof_H 	H 	0.2474	0.2733	0.6402	0.041
Mof_C 	C 	0.4107	0.4028	0.6666	0.091
Mof_H 	H 	0.4331	0.418	0.6459	0.023
Mof_C 	C 	0.4151	0.4249	0.7146	-0.016
Mof_C 	C 	0.4111	0.4783	0.718	0.014
Mof_C 	C 	0.373	0.5148	0.718	0.001
Mof_C 	C 	0.3255	0.2837	0.556	0.086
Mof_H 	H 	0.3289	0.2757	0.5871	0.015
Mof_C 	C 	0.3158	0.247	0.5236	-0.153
Mof_H 	H 	0.3139	0.2162	0.5329	0.098
Mof_C 	C 	0.3096	0.2595	0.4795	0.099
Mof_H 	H 	0.302	0.2371	0.4576	0.015
Mof_C 	C 	0.314	0.3021	0.4668	-0.158
Mof_H 	H 	0.3106	0.3099	0.4356	0.09
Mof_C 	C 	0.3244	0.3387	0.5012	0.092
Mof_H 	H 	0.327	0.3694	0.4917	-0.007
Mof_N 	N 	0.3299	0.3283	0.5447	-0.234
Mof_O 	O 	0.30164	0.33856	0.6376	-0.404
Mof_O 	O 	0.30049	0.3801	0.7029	-0.294
Mof_O 	O 	0.3665	0.4156	0.65279	-0.507
Mof_H 	H 	0.3474	0.4037	0.6702	0.276
Mof_C 	C 	0.715	0.8485	0.8235	0.341
Mof_C 	C 	0.7562	0.8205	0.8089	-0.111
Mof_C 	C 	0.7696	0.7822	0.8339	0.046
Mof_H 	H 	0.7526	0.7733	0.8598	0.041
Mof_C 	C 	0.5893	0.9028	0.8334	0.091
Mof_H 	H 	0.5669	0.918	0.8541	0.023
Mof_C 	C 	0.5849	0.9249	0.7854	-0.016
Mof_C 	C 	0.5889	0.9783	0.782	0.014
Mof_C 	C 	0.627	0.0148	0.782	0.001
Mof_C 	C 	0.6745	0.7837	0.944	0.086
Mof_H 	H 	0.6711	0.7757	0.9129	0.015
Mof_C 	C 	0.6842	0.747	0.9764	-0.153
Mof_H 	H 	0.6861	0.7162	0.9671	0.098
Mof_C 	C 	0.6904	0.7595	0.0205	0.099
Mof_H 	H 	0.698	0.7371	0.0424	0.015
Mof_C 	C 	0.686	0.8021	0.0332	-0.158
Mof_H 	H 	0.6894	0.8099	0.0644	0.09
Mof_C 	C 	0.6756	0.8387	0.9988	0.092
Mof_H 	H 	0.673	0.8694	0.0083	-0.007
Mof_N 	N 	0.6701	0.8283	0.9553	-0.234
Mof_O 	O 	0.69836	0.83856	0.8624	-0.404
Mof_O 	O 	0.69951	0.8801	0.7971	-0.294
Mof_O 	O 	0.6335	0.9156	0.84721	-0.507
Mof_H 	H 	0.6526	0.9037	0.8298	0.276
Mof_C 	C 	0.1515	0.3235	0.785	0.341
Mof_C 	C 	0.1795	0.3089	0.7438	-0.111
Mof_C 	C 	0.2178	0.3339	0.7304	0.046
Mof_H 	H 	0.2267	0.3598	0.7474	0.041
Mof_C 	C 	0.0972	0.3334	0.9107	0.091
Mof_H 	H 	0.082	0.3541	0.9331	0.023
Mof_C 	C 	0.0751	0.2854	0.9151	-0.016
Mof_C 	C 	0.0217	0.282	0.9111	0.014
Mof_C 	C 	0.9852	0.282	0.873	0.001
Mof_C 	C 	0.2163	0.444	0.8255	0.086
Mof_H 	H 	0.2243	0.4129	0.8289	0.015
Mof_C 	C 	0.253	0.4764	0.8158	-0.153
Mof_H 	H 	0.2838	0.4671	0.8139	0.098
Mof_C 	C 	0.2405	0.5205	0.8096	0.099
Mof_H 	H 	0.2629	0.5424	0.802	0.015
Mof_C 	C 	0.1979	0.5332	0.814	-0.158
Mof_H 	H 	0.1901	0.5644	0.8106	0.09
Mof_C 	C 	0.1613	0.4988	0.8244	0.092
Mof_H 	H 	0.1306	0.5083	0.827	-0.007
Mof_N 	N 	0.1717	0.4553	0.8299	-0.234
Mof_O 	O 	0.16144	0.3624	0.80164	-0.404
Mof_O 	O 	0.1199	0.2971	0.80049	-0.294
Mof_O 	O 	0.0844	0.34721	0.8665	-0.507
Mof_H 	H 	0.0963	0.3298	0.8474	0.276
Mof_C 	C 	0.6515	0.1765	0.215	0.341
Mof_C 	C 	0.6795	0.1911	0.2562	-0.111
Mof_C 	C 	0.7178	0.1661	0.2696	0.046
Mof_H 	H 	0.7267	0.1402	0.2526	0.041
Mof_C 	C 	0.5972	0.1666	0.0893	0.091
Mof_H 	H 	0.582	0.1459	0.0669	0.023
Mof_C 	C 	0.5751	0.2146	0.0849	-0.016
Mof_C 	C 	0.5217	0.218	0.0889	0.014
Mof_C 	C 	0.4852	0.218	0.127	0.001
Mof_C 	C 	0.7163	0.056	0.1745	0.086
Mof_H 	H 	0.7243	0.0871	0.1711	0.015
Mof_C 	C 	0.753	0.0236	0.1842	-0.153
Mof_H 	H 	0.7838	0.0329	0.1861	0.098
Mof_C 	C 	0.7405	0.9795	0.1904	0.099
Mof_H 	H 	0.7629	0.9576	0.198	0.015
Mof_C 	C 	0.6979	0.9668	0.186	-0.158
Mof_H 	H 	0.6901	0.9356	0.1894	0.09
Mof_C 	C 	0.6613	0.0012	0.1756	0.091
Mof_H 	H 	0.6306	0.9917	0.173	-0.007
Mof_N 	N 	0.6717	0.0447	0.1701	-0.234
Mof_O 	O 	0.66144	0.1376	0.19836	-0.404
Mof_O 	O 	0.6199	0.2029	0.19951	-0.294
Mof_O 	O 	0.5844	0.15279	0.1335	-0.507
Mof_H 	H 	0.5963	0.1702	0.1526	0.276
Mof_C 	C 	0.8485	0.8235	0.715	0.341
Mof_C 	C 	0.8205	0.8089	0.7562	-0.111
Mof_C 	C 	0.7822	0.8339	0.7696	0.046
Mof_H 	H 	0.7733	0.8598	0.7526	0.041
Mof_C 	C 	0.9028	0.8334	0.5893	0.091
Mof_H 	H 	0.918	0.8541	0.5669	0.023
Mof_C 	C 	0.9249	0.7854	0.5849	-0.016
Mof_C 	C 	0.9783	0.782	0.5889	0.014
Mof_C 	C 	0.0148	0.782	0.627	0.001
Mof_C 	C 	0.7837	0.944	0.6745	0.086
Mof_H 	H 	0.7757	0.9129	0.6711	0.015
Mof_C 	C 	0.747	0.9764	0.6842	-0.153
Mof_H 	H 	0.7162	0.9671	0.6861	0.098
Mof_C 	C 	0.7595	0.0205	0.6904	0.099
Mof_H 	H 	0.7371	0.0424	0.698	0.015
Mof_C 	C 	0.8021	0.0332	0.686	-0.158
Mof_H 	H 	0.8099	0.0644	0.6894	0.09
Mof_C 	C 	0.8387	0.9988	0.6756	0.092
Mof_H 	H 	0.8694	0.0083	0.673	-0.007
Mof_N 	N 	0.8283	0.9553	0.6701	-0.234
Mof_O 	O 	0.83856	0.8624	0.69836	-0.404
Mof_O 	O 	0.8801	0.7971	0.69951	-0.294
Mof_O 	O 	0.9156	0.84721	0.6335	-0.507
Mof_H 	H 	0.9037	0.8298	0.6526	0.276
Mof_C 	C 	0.3485	0.6765	0.285	0.341
Mof_C 	C 	0.3205	0.6911	0.2438	-0.111
Mof_C 	C 	0.2822	0.6661	0.2304	0.046
Mof_H 	H 	0.2733	0.6402	0.2474	0.041
Mof_C 	C 	0.4028	0.6666	0.4107	0.091
Mof_H 	H 	0.418	0.6459	0.4331	0.023
Mof_C 	C 	0.4249	0.7146	0.4151	-0.016
Mof_C 	C 	0.4783	0.718	0.4111	0.014
Mof_C 	C 	0.5148	0.718	0.373	0.001
Mof_C 	C 	0.2837	0.556	0.3255	0.086
Mof_H 	H 	0.2757	0.5871	0.3289	0.015
Mof_C 	C 	0.247	0.5236	0.3158	-0.153
Mof_H 	H 	0.2162	0.5329	0.3139	0.098
Mof_C 	C 	0.2595	0.4795	0.3096	0.099
Mof_H 	H 	0.2371	0.4576	0.302	0.015
Mof_C 	C 	0.3021	0.4668	0.314	-0.158
Mof_H 	H 	0.3099	0.4356	0.3106	0.09
Mof_C 	C 	0.3387	0.5012	0.3244	0.092
Mof_H 	H 	0.3694	0.4917	0.327	-0.007
Mof_N 	N 	0.3283	0.5447	0.3299	-0.234
Mof_O 	O 	0.33856	0.6376	0.30164	-0.404
Mof_O 	O 	0.3801	0.7029	0.30049	-0.294
Mof_O 	O 	0.4156	0.65279	0.3665	-0.507
Mof_H 	H 	0.4037	0.6702	0.3474	0.276
Mof_Ni	Ni	0.90407	0.65407	0.875	1.116
Mof_Ni	Ni	0.59593	0.34593	0.375	1.116
Mof_Ni	Ni	0.09593	0.15407	0.625	1.116
Mof_Ni	Ni	0.40407	0.84593	0.125	1.116
Mof_Ni	Ni	0.875	0.90407	0.65407	1.116
Mof_Ni	Ni	0.375	0.59593	0.34593	1.116
Mof_Ni	Ni	0.625	0.09593	0.15407	1.116
Mof_Ni	Ni	0.125	0.40407	0.84593	1.116
Mof_Ni	Ni	0.65407	0.875	0.90407	1.116
Mof_Ni	Ni	0.34593	0.375	0.59593	1.116
Mof_Ni	Ni	0.15407	0.625	0.09593	1.116
Mof_Ni	Ni	0.84593	0.125	0.40407	1.116
Mof_C 	C 	0.465	0.0735	0.4015	0.341
Mof_C 	C 	0.5062	0.0589	0.4295	-0.111
Mof_C 	C 	0.5196	0.0839	0.4678	0.046
Mof_H 	H 	0.5026	0.1098	0.4767	0.041
Mof_C 	C 	0.3393	0.0834	0.3472	0.091
Mof_H 	H 	0.3169	0.1041	0.332	0.023
Mof_C 	C 	0.3349	0.0354	0.3251	-0.016
Mof_C 	C 	0.3389	0.032	0.2717	0.014
Mof_C 	C 	0.377	0.032	0.2352	0.001
Mof_C 	C 	0.4245	0.194	0.4663	0.086
Mof_H 	H 	0.4211	0.1629	0.4743	0.015
Mof_C 	C 	0.4342	0.2264	0.503	-0.153
Mof_H 	H 	0.4361	0.2171	0.5338	0.098
Mof_C 	C 	0.4404	0.2705	0.4905	0.099
Mof_H 	H 	0.448	0.2924	0.5129	0.015
Mof_C 	C 	0.436	0.2832	0.4479	-0.158
Mof_H 	H 	0.4394	0.3144	0.4401	0.09
Mof_C 	C 	0.4256	0.2488	0.4113	0.092
Mof_H 	H 	0.423	0.2583	0.3806	-0.007
Mof_N 	N 	0.4201	0.2053	0.4217	-0.234
Mof_O 	O 	0.44836	0.1124	0.41144	-0.404
Mof_O 	O 	0.44951	0.0471	0.3699	-0.294
Mof_O 	O 	0.3835	0.09721	0.3344	-0.507
Mof_H 	H 	0.4026	0.0798	0.3463	0.276
Mof_C 	C 	0.035	0.9265	0.9015	0.341
Mof_C 	C 	0.9938	0.9411	0.9295	-0.111
Mof_C 	C 	0.9804	0.9161	0.9678	0.046
Mof_H 	H 	0.9974	0.8902	0.9767	0.041
Mof_C 	C 	0.1607	0.9166	0.8472	0.091
Mof_H 	H 	0.1831	0.8959	0.832	0.023
Mof_C 	C 	0.1651	0.9646	0.8251	-0.016
Mof_C 	C 	0.1611	0.968	0.7717	0.014
Mof_C 	C 	0.123	0.968	0.7352	0.001
Mof_C 	C 	0.0755	0.806	0.9663	0.086
Mof_H 	H 	0.0789	0.8371	0.9743	0.015
Mof_C 	C 	0.0658	0.7736	0.003	-0.154
Mof_H 	H 	0.0639	0.7829	0.0338	0.098
Mof_C 	C 	0.0596	0.7295	0.9905	0.099
Mof_H 	H 	0.052	0.7076	0.0129	0.014
Mof_C 	C 	0.064	0.7168	0.9479	-0.158
Mof_H 	H 	0.0606	0.6856	0.9401	0.09
Mof_C 	C 	0.0744	0.7512	0.9113	0.092
Mof_H 	H 	0.077	0.7417	0.8806	-0.007
Mof_N 	N 	0.0799	0.7947	0.9217	-0.234
Mof_O 	O 	0.05164	0.8876	0.91144	-0.404
Mof_O 	O 	0.05049	0.9529	0.8699	-0.294
Mof_O 	O 	0.1165	0.90279	0.8344	-0.507
Mof_H 	H 	0.0974	0.9202	0.8463	0.276
Mof_C 	C 	0.535	0.5735	0.0985	0.341
Mof_C 	C 	0.4938	0.5589	0.0705	-0.111
Mof_C 	C 	0.4804	0.5839	0.0322	0.046
Mof_H 	H 	0.4974	0.6098	0.0233	0.041
Mof_C 	C 	0.6607	0.5834	0.1528	0.091
Mof_H 	H 	0.6831	0.6041	0.168	0.023
Mof_C 	C 	0.6651	0.5354	0.1749	-0.016
Mof_C 	C 	0.6611	0.532	0.2283	0.014
Mof_C 	C 	0.623	0.532	0.2648	0.001
Mof_C 	C 	0.5755	0.694	0.0337	0.086
Mof_H 	H 	0.5789	0.6629	0.0257	0.015
Mof_C 	C 	0.5658	0.7264	0.997	-0.153
Mof_H 	H 	0.5639	0.7171	0.9662	0.098
Mof_C 	C 	0.5596	0.7705	0.0095	0.099
Mof_H 	H 	0.552	0.7924	0.9871	0.015
Mof_C 	C 	0.564	0.7832	0.0521	-0.158
Mof_H 	H 	0.5606	0.8144	0.0599	0.09
Mof_C 	C 	0.5744	0.7488	0.0887	0.091
Mof_H 	H 	0.577	0.7583	0.1194	-0.007
Mof_N 	N 	0.5799	0.7053	0.0783	-0.234
Mof_O 	O 	0.55164	0.6124	0.08856	-0.404
Mof_O 	O 	0.55049	0.5471	0.1301	-0.294
Mof_O 	O 	0.6165	0.59721	0.1656	-0.507
Mof_H 	H 	0.5974	0.5798	0.1537	0.276
Mof_C 	C 	0.965	0.4265	0.5985	0.341
Mof_C 	C 	0.0062	0.4411	0.5705	-0.111
Mof_C 	C 	0.0196	0.4161	0.5322	0.046
Mof_H 	H 	0.0026	0.3902	0.5233	0.041
Mof_C 	C 	0.8393	0.4166	0.6528	0.091
Mof_H 	H 	0.8169	0.3959	0.668	0.023
Mof_C 	C 	0.8349	0.4646	0.6749	-0.016
Mof_C 	C 	0.8389	0.468	0.7283	0.014
Mof_C 	C 	0.877	0.468	0.7648	0.001
Mof_C 	C 	0.9245	0.306	0.5337	0.086
Mof_H 	H 	0.9211	0.3371	0.5257	0.015
Mof_C 	C 	0.9342	0.2736	0.497	-0.153
Mof_H 	H 	0.9361	0.2829	0.4662	0.098
Mof_C 	C 	0.9404	0.2295	0.5095	0.099
Mof_H 	H 	0.948	0.2076	0.4871	0.015
Mof_C 	C 	0.936	0.2168	0.5521	-0.158
Mof_H 	H 	0.9394	0.1856	0.5599	0.09
Mof_C 	C 	0.9256	0.2512	0.5887	0.092
Mof_H 	H 	0.923	0.2417	0.6194	-0.007
Mof_N 	N 	0.9201	0.2947	0.5783	-0.234
Mof_O 	O 	0.94836	0.3876	0.58856	-0.404
Mof_O 	O 	0.94951	0.4529	0.6301	-0.294
Mof_O 	O 	0.8835	0.40279	0.6656	-0.507
Mof_H 	H 	0.9026	0.4202	0.6537	0.276
Mof_C 	C 	0.4015	0.465	0.0735	0.341
Mof_C 	C 	0.4295	0.5062	0.0589	-0.111
Mof_C 	C 	0.4678	0.5196	0.0839	0.046
Mof_H 	H 	0.4767	0.5026	0.1098	0.041
Mof_C 	C 	0.3472	0.3393	0.0834	0.091
Mof_H 	H 	0.332	0.3169	0.1041	0.023
Mof_C 	C 	0.3251	0.3349	0.0354	-0.016
Mof_C 	C 	0.2717	0.3389	0.032	0.014
Mof_C 	C 	0.2352	0.377	0.032	0.001
Mof_C 	C 	0.4663	0.4245	0.194	0.086
Mof_H 	H 	0.4743	0.4211	0.1629	0.015
Mof_C 	C 	0.503	0.4342	0.2264	-0.153
Mof_H 	H 	0.5338	0.4361	0.2171	0.098
Mof_C 	C 	0.4905	0.4404	0.2705	0.099
Mof_H 	H 	0.5129	0.448	0.2924	0.015
Mof_C 	C 	0.4479	0.436	0.2832	-0.158
Mof_H 	H 	0.4401	0.4394	0.3144	0.09
Mof_C 	C 	0.4113	0.4256	0.2488	0.092
Mof_H 	H 	0.3806	0.423	0.2583	-0.007
Mof_N 	N 	0.4217	0.4201	0.2053	-0.234
Mof_O 	O 	0.41144	0.44836	0.1124	-0.404
Mof_O 	O 	0.3699	0.44951	0.0471	-0.294
Mof_O 	O 	0.3344	0.3835	0.09721	-0.507
Mof_H 	H 	0.3463	0.4026	0.0798	0.276
Mof_C 	C 	0.9015	0.035	0.9265	0.341
Mof_C 	C 	0.9295	0.9938	0.9411	-0.111
Mof_C 	C 	0.9678	0.9804	0.9161	0.046
Mof_H 	H 	0.9767	0.9974	0.8902	0.041
Mof_C 	C 	0.8472	0.1607	0.9166	0.091
Mof_H 	H 	0.832	0.1831	0.8959	0.023
Mof_C 	C 	0.8251	0.1651	0.9646	-0.016
Mof_C 	C 	0.7717	0.1611	0.968	0.014
Mof_C 	C 	0.7352	0.123	0.968	0.001
Mof_C 	C 	0.9663	0.0755	0.806	0.086
Mof_H 	H 	0.9743	0.0789	0.8371	0.015
Mof_C 	C 	0.003	0.0658	0.7736	-0.154
Mof_H 	H 	0.0338	0.0639	0.7829	0.098
Mof_C 	C 	0.9905	0.0596	0.7295	0.099
Mof_H 	H 	0.0129	0.052	0.7076	0.014
Mof_C 	C 	0.9479	0.064	0.7168	-0.158
Mof_H 	H 	0.9401	0.0606	0.6856	0.09
Mof_C 	C 	0.9113	0.0744	0.7512	0.092
Mof_H 	H 	0.8806	0.077	0.7417	-0.007
Mof_N 	N 	0.9217	0.0799	0.7947	-0.234
Mof_O 	O 	0.91144	0.05164	0.8876	-0.404
Mof_O 	O 	0.8699	0.05049	0.9529	-0.294
Mof_O 	O 	0.8344	0.1165	0.90279	-0.507
Mof_H 	H 	0.8463	0.0974	0.9202	0.276
Mof_C 	C 	0.0985	0.535	0.5735	0.341
Mof_C 	C 	0.0705	0.4938	0.5589	-0.111
Mof_C 	C 	0.0322	0.4804	0.5839	0.046
Mof_H 	H 	0.0233	0.4974	0.6098	0.041
Mof_C 	C 	0.1528	0.6607	0.5834	0.091
Mof_H 	H 	0.168	0.6831	0.6041	0.023
Mof_C 	C 	0.1749	0.6651	0.5354	-0.016
Mof_C 	C 	0.2283	0.6611	0.532	0.014
Mof_C 	C 	0.2648	0.623	0.532	0.001
Mof_C 	C 	0.0337	0.5755	0.694	0.086
Mof_H 	H 	0.0257	0.5789	0.6629	0.015
Mof_C 	C 	0.997	0.5658	0.7264	-0.153
Mof_H 	H 	0.9662	0.5639	0.7171	0.098
Mof_C 	C 	0.0095	0.5596	0.7705	0.099
Mof_H 	H 	0.9871	0.552	0.7924	0.015
Mof_C 	C 	0.0521	0.564	0.7832	-0.158
Mof_H 	H 	0.0599	0.5606	0.8144	0.09
Mof_C 	C 	0.0887	0.5744	0.7488	0.091
Mof_H 	H 	0.1194	0.577	0.7583	-0.007
Mof_N 	N 	0.0783	0.5799	0.7053	-0.234
Mof_O 	O 	0.08856	0.55164	0.6124	-0.404
Mof_O 	O 	0.1301	0.55049	0.5471	-0.294
Mof_O 	O 	0.1656	0.6165	0.59721	-0.507
Mof_H 	H 	0.1537	0.5974	0.5798	0.276
Mof_C 	C 	0.5985	0.965	0.4265	0.341
Mof_C 	C 	0.5705	0.0062	0.4411	-0.111
Mof_C 	C 	0.5322	0.0196	0.4161	0.046
Mof_H 	H 	0.5233	0.0026	0.3902	0.041
Mof_C 	C 	0.6528	0.8393	0.4166	0.091
Mof_H 	H 	0.668	0.8169	0.3959	0.023
Mof_C 	C 	0.6749	0.8349	0.4646	-0.016
Mof_C 	C 	0.7283	0.8389	0.468	0.014
Mof_C 	C 	0.7648	0.877	0.468	0.001
Mof_C 	C 	0.5337	0.9245	0.306	0.086
Mof_H 	H 	0.5257	0.9211	0.3371	0.015
Mof_C 	C 	0.497	0.9342	0.2736	-0.153
Mof_H 	H 	0.4662	0.9361	0.2829	0.098
Mof_C 	C 	0.5095	0.9404	0.2295	0.099
Mof_H 	H 	0.4871	0.948	0.2076	0.015
Mof_C 	C 	0.5521	0.936	0.2168	-0.158
Mof_H 	H 	0.5599	0.9394	0.1856	0.09
Mof_C 	C 	0.5887	0.9256	0.2512	0.092
Mof_H 	H 	0.6194	0.923	0.2417	-0.007
Mof_N 	N 	0.5783	0.9201	0.2947	-0.234
Mof_O 	O 	0.58856	0.94836	0.3876	-0.404
Mof_O 	O 	0.6301	0.94951	0.4529	-0.294
Mof_O 	O 	0.6656	0.8835	0.40279	-0.507
Mof_H 	H 	0.6537	0.9026	0.4202	0.276
Mof_C 	C 	0.0735	0.4015	0.465	0.341
Mof_C 	C 	0.0589	0.4295	0.5062	-0.111
Mof_C 	C 	0.0839	0.4678	0.5196	0.046
Mof_H 	H 	0.1098	0.4767	0.5026	0.041
Mof_C 	C 	0.0834	0.3472	0.3393	0.091
Mof_H 	H 	0.1041	0.332	0.3169	0.023
Mof_C 	C 	0.0354	0.3251	0.3349	-0.016
Mof_C 	C 	0.032	0.2717	0.3389	0.014
Mof_C 	C 	0.032	0.2352	0.377	0.001
Mof_C 	C 	0.194	0.4663	0.4245	0.086
Mof_H 	H 	0.1629	0.4743	0.4211	0.015
Mof_C 	C 	0.2264	0.503	0.4342	-0.153
Mof_H 	H 	0.2171	0.5338	0.4361	0.098
Mof_C 	C 	0.2705	0.4905	0.4404	0.099
Mof_H 	H 	0.2924	0.5129	0.448	0.015
Mof_C 	C 	0.2832	0.4479	0.436	-0.158
Mof_H 	H 	0.3144	0.4401	0.4394	0.09
Mof_C 	C 	0.2488	0.4113	0.4256	0.092
Mof_H 	H 	0.2583	0.3806	0.423	-0.007
Mof_N 	N 	0.2053	0.4217	0.4201	-0.234
Mof_O 	O 	0.1124	0.41144	0.44836	-0.404
Mof_O 	O 	0.0471	0.3699	0.44951	-0.294
Mof_O 	O 	0.09721	0.3344	0.3835	-0.507
Mof_H 	H 	0.0798	0.3463	0.4026	0.276
Mof_C 	C 	0.9265	0.9015	0.035	0.341
Mof_C 	C 	0.9411	0.9295	0.9938	-0.111
Mof_C 	C 	0.9161	0.9678	0.9804	0.046
Mof_H 	H 	0.8902	0.9767	0.9974	0.041
Mof_C 	C 	0.9166	0.8472	0.1607	0.091
Mof_H 	H 	0.8959	0.832	0.1831	0.023
Mof_C 	C 	0.9646	0.8251	0.1651	-0.016
Mof_C 	C 	0.968	0.7717	0.1611	0.014
Mof_C 	C 	0.968	0.7352	0.123	0.001
Mof_C 	C 	0.806	0.9663	0.0755	0.086
Mof_H 	H 	0.8371	0.9743	0.0789	0.015
Mof_C 	C 	0.7736	0.003	0.0658	-0.154
Mof_H 	H 	0.7829	0.0338	0.0639	0.098
Mof_C 	C 	0.7295	0.9905	0.0596	0.099
Mof_H 	H 	0.7076	0.0129	0.052	0.014
Mof_C 	C 	0.7168	0.9479	0.064	-0.158
Mof_H 	H 	0.6856	0.9401	0.0606	0.09
Mof_C 	C 	0.7512	0.9113	0.0744	0.092
Mof_H 	H 	0.7417	0.8806	0.077	-0.007
Mof_N 	N 	0.7947	0.9217	0.0799	-0.234
Mof_O 	O 	0.8876	0.91144	0.05164	-0.404
Mof_O 	O 	0.9529	0.8699	0.05049	-0.294
Mof_O 	O 	0.90279	0.8344	0.1165	-0.507
Mof_H 	H 	0.9202	0.8463	0.0974	0.276
Mof_C 	C 	0.5735	0.0985	0.535	0.341
Mof_C 	C 	0.5589	0.0705	0.4938	-0.111
Mof_C 	C 	0.5839	0.0322	0.4804	0.046
Mof_H 	H 	0.6098	0.0233	0.4974	0.041
Mof_C 	C 	0.5834	0.1528	0.6607	0.091
Mof_H 	H 	0.6041	0.168	0.6831	0.023
Mof_C 	C 	0.5354	0.1749	0.6651	-0.016
Mof_C 	C 	0.532	0.2283	0.6611	0.014
Mof_C 	C 	0.532	0.2648	0.623	0.001
Mof_C 	C 	0.694	0.0337	0.5755	0.086
Mof_H 	H 	0.6629	0.0257	0.5789	0.015
Mof_C 	C 	0.7264	0.997	0.5658	-0.153
Mof_H 	H 	0.7171	0.9662	0.5639	0.098
Mof_C 	C 	0.7705	0.0095	0.5596	0.099
Mof_H 	H 	0.7924	0.9871	0.552	0.015
Mof_C 	C 	0.7832	0.0521	0.564	-0.158
Mof_H 	H 	0.8144	0.0599	0.5606	0.09
Mof_C 	C 	0.7488	0.0887	0.5744	0.091
Mof_H 	H 	0.7583	0.1194	0.577	-0.007
Mof_N 	N 	0.7053	0.0783	0.5799	-0.234
Mof_O 	O 	0.6124	0.08856	0.55164	-0.404
Mof_O 	O 	0.5471	0.1301	0.55049	-0.294
Mof_O 	O 	0.59721	0.1656	0.6165	-0.507
Mof_H 	H 	0.5798	0.1537	0.5974	0.276
Mof_C 	C 	0.4265	0.5985	0.965	0.341
Mof_C 	C 	0.4411	0.5705	0.0062	-0.111
Mof_C 	C 	0.4161	0.5322	0.0196	0.046
Mof_H 	H 	0.3902	0.5233	0.0026	0.041
Mof_C 	C 	0.4166	0.6528	0.8393	0.091
Mof_H 	H 	0.3959	0.668	0.8169	0.023
Mof_C 	C 	0.4646	0.6749	0.8349	-0.016
Mof_C 	C 	0.468	0.7283	0.8389	0.014
Mof_C 	C 	0.468	0.7648	0.877	0.001
Mof_C 	C 	0.306	0.5337	0.9245	0.086
Mof_H 	H 	0.3371	0.5257	0.9211	0.015
Mof_C 	C 	0.2736	0.497	0.9342	-0.153
Mof_H 	H 	0.2829	0.4662	0.9361	0.098
Mof_C 	C 	0.2295	0.5095	0.9404	0.099
Mof_H 	H 	0.2076	0.4871	0.948	0.015
Mof_C 	C 	0.2168	0.5521	0.936	-0.158
Mof_H 	H 	0.1856	0.5599	0.9394	0.09
Mof_C 	C 	0.2512	0.5887	0.9256	0.092
Mof_H 	H 	0.2417	0.6194	0.923	-0.007
Mof_N 	N 	0.2947	0.5783	0.9201	-0.234
Mof_O 	O 	0.3876	0.58856	0.94836	-0.404
Mof_O 	O 	0.4529	0.6301	0.94951	-0.294
Mof_O 	O 	0.40279	0.6656	0.8835	-0.507
Mof_H 	H 	0.4202	0.6537	0.9026	0.276
Mof_C 	C 	0.3235	0.215	0.3485	0.341
Mof_C 	C 	0.3089	0.2562	0.3205	-0.111
Mof_C 	C 	0.3339	0.2696	0.2822	0.046
Mof_H 	H 	0.3598	0.2526	0.2733	0.041
Mof_C 	C 	0.3334	0.0893	0.4028	0.091
Mof_H 	H 	0.3541	0.0669	0.418	0.023
Mof_C 	C 	0.2854	0.0849	0.4249	-0.016
Mof_C 	C 	0.282	0.0889	0.4783	0.014
Mof_C 	C 	0.282	0.127	0.5148	0.001
Mof_C 	C 	0.444	0.1745	0.2837	0.086
Mof_H 	H 	0.4129	0.1711	0.2757	0.015
Mof_C 	C 	0.4764	0.1842	0.247	-0.153
Mof_H 	H 	0.4671	0.1861	0.2162	0.098
Mof_C 	C 	0.5205	0.1904	0.2595	0.099
Mof_H 	H 	0.5424	0.198	0.2371	0.015
Mof_C 	C 	0.5332	0.186	0.3021	-0.158
Mof_H 	H 	0.5644	0.1894	0.3099	0.09
Mof_C 	C 	0.4988	0.1756	0.3387	0.092
Mof_H 	H 	0.5083	0.173	0.3694	-0.007
Mof_N 	N 	0.4553	0.1701	0.3283	-0.234
Mof_O 	O 	0.3624	0.19836	0.33856	-0.404
Mof_O 	O 	0.2971	0.19951	0.3801	-0.294
Mof_O 	O 	0.34721	0.1335	0.4156	-0.507
Mof_H 	H 	0.3298	0.1526	0.4037	0.276
Mof_C 	C 	0.1765	0.785	0.8485	0.341
Mof_C 	C 	0.1911	0.7438	0.8205	-0.111
Mof_C 	C 	0.1661	0.7304	0.7822	0.046
Mof_H 	H 	0.1402	0.7474	0.7733	0.041
Mof_C 	C 	0.1666	0.9107	0.9028	0.091
Mof_H 	H 	0.1459	0.9331	0.918	0.023
Mof_C 	C 	0.2146	0.9151	0.9249	-0.016
Mof_C 	C 	0.218	0.9111	0.9783	0.014
Mof_C 	C 	0.218	0.873	0.0148	0.001
Mof_C 	C 	0.056	0.8255	0.7837	0.086
Mof_H 	H 	0.0871	0.8289	0.7757	0.015
Mof_C 	C 	0.0236	0.8158	0.747	-0.153
Mof_H 	H 	0.0329	0.8139	0.7162	0.098
Mof_C 	C 	0.9795	0.8096	0.7595	0.099
Mof_H 	H 	0.9576	0.802	0.7371	0.015
Mof_C 	C 	0.9668	0.814	0.8021	-0.158
Mof_H 	H 	0.9356	0.8106	0.8099	0.09
Mof_C 	C 	0.0012	0.8244	0.8387	0.091
Mof_H 	H 	0.9917	0.827	0.8694	-0.007
Mof_N 	N 	0.0447	0.8299	0.8283	-0.234
Mof_O 	O 	0.1376	0.80164	0.83856	-0.404
Mof_O 	O 	0.2029	0.80049	0.8801	-0.294
Mof_O 	O 	0.15279	0.8665	0.9156	-0.507
Mof_H 	H 	0.1702	0.8474	0.9037	0.276
Mof_C 	C 	0.8235	0.285	0.6515	0.341
Mof_C 	C 	0.8089	0.2438	0.6795	-0.111
Mof_C 	C 	0.8339	0.2304	0.7178	0.046
Mof_H 	H 	0.8598	0.2474	0.7267	0.041
Mof_C 	C 	0.8334	0.4107	0.5972	0.091
Mof_H 	H 	0.8541	0.4331	0.582	0.023
Mof_C 	C 	0.7854	0.4151	0.5751	-0.016
Mof_C 	C 	0.782	0.4111	0.5217	0.014
Mof_C 	C 	0.782	0.373	0.4852	0.001
Mof_C 	C 	0.944	0.3255	0.7163	0.086
Mof_H 	H 	0.9129	0.3289	0.7243	0.015
Mof_C 	C 	0.9764	0.3158	0.753	-0.153
Mof_H 	H 	0.9671	0.3139	0.7838	0.098
Mof_C 	C 	0.0205	0.3096	0.7405	0.099
Mof_H 	H 	0.0424	0.302	0.7629	0.015
Mof_C 	C 	0.0332	0.314	0.6979	-0.158
Mof_H 	H 	0.0644	0.3106	0.6901	0.09
Mof_C 	C 	0.9988	0.3244	0.6613	0.092
Mof_H 	H 	0.0083	0.327	0.6306	-0.007
Mof_N 	N 	0.9553	0.3299	0.6717	-0.234
Mof_O 	O 	0.8624	0.30164	0.66144	-0.404
Mof_O 	O 	0.7971	0.30049	0.6199	-0.294
Mof_O 	O 	0.84721	0.3665	0.5844	-0.507
Mof_H 	H 	0.8298	0.3474	0.5963	0.276
Mof_C 	C 	0.6765	0.715	0.1515	0.341
Mof_C 	C 	0.6911	0.7562	0.1795	-0.111
Mof_C 	C 	0.6661	0.7696	0.2178	0.046
Mof_H 	H 	0.6402	0.7526	0.2267	0.041
Mof_C 	C 	0.6666	0.5893	0.0972	0.091
Mof_H 	H 	0.6459	0.5669	0.082	0.023
Mof_C 	C 	0.7146	0.5849	0.0751	-0.016
Mof_C 	C 	0.718	0.5889	0.0217	0.014
Mof_C 	C 	0.718	0.627	0.9852	0.001
Mof_C 	C 	0.556	0.6745	0.2163	0.086
Mof_H 	H 	0.5871	0.6711	0.2243	0.015
Mof_C 	C 	0.5236	0.6842	0.253	-0.153
Mof_H 	H 	0.5329	0.6861	0.2838	0.098
Mof_C 	C 	0.4795	0.6904	0.2405	0.099
Mof_H 	H 	0.4576	0.698	0.2629	0.015
Mof_C 	C 	0.4668	0.686	0.1979	-0.158
Mof_H 	H 	0.4356	0.6894	0.1901	0.09
Mof_C 	C 	0.5012	0.6756	0.1613	0.092
Mof_H 	H 	0.4917	0.673	0.1306	-0.007
Mof_N 	N 	0.5447	0.6701	0.1717	-0.234
Mof_O 	O 	0.6376	0.69836	0.16144	-0.404
Mof_O 	O 	0.7029	0.69951	0.1199	-0.294
Mof_O 	O 	0.65279	0.6335	0.0844	-0.507
Mof_H 	H 	0.6702	0.6526	0.0963	0.276
Mof_C 	C 	0.715	0.1515	0.6765	0.341
Mof_C 	C 	0.7562	0.1795	0.6911	-0.111
Mof_C 	C 	0.7696	0.2178	0.6661	0.046
Mof_H 	H 	0.7526	0.2267	0.6402	0.041
Mof_C 	C 	0.5893	0.0972	0.6666	0.091
Mof_H 	H 	0.5669	0.082	0.6459	0.023
Mof_C 	C 	0.5849	0.0751	0.7146	-0.016
Mof_C 	C 	0.5889	0.0217	0.718	0.014
Mof_C 	C 	0.627	0.9852	0.718	0.001
Mof_C 	C 	0.6745	0.2163	0.556	0.086
Mof_H 	H 	0.6711	0.2243	0.5871	0.015
Mof_C 	C 	0.6842	0.253	0.5236	-0.153
Mof_H 	H 	0.6861	0.2838	0.5329	0.098
Mof_C 	C 	0.6904	0.2405	0.4795	0.099
Mof_H 	H 	0.698	0.2629	0.4576	0.015
Mof_C 	C 	0.686	0.1979	0.4668	-0.158
Mof_H 	H 	0.6894	0.1901	0.4356	0.09
Mof_C 	C 	0.6756	0.1613	0.5012	0.092
Mof_H 	H 	0.673	0.1306	0.4917	-0.007
Mof_N 	N 	0.6701	0.1717	0.5447	-0.234
Mof_O 	O 	0.69836	0.16144	0.6376	-0.404
Mof_O 	O 	0.69951	0.1199	0.7029	-0.294
Mof_O 	O 	0.6335	0.0844	0.65279	-0.507
Mof_H 	H 	0.6526	0.0963	0.6702	0.276
Mof_C 	C 	0.285	0.6515	0.8235	0.341
Mof_C 	C 	0.2438	0.6795	0.8089	-0.111
Mof_C 	C 	0.2304	0.7178	0.8339	0.046
Mof_H 	H 	0.2474	0.7267	0.8598	0.041
Mof_C 	C 	0.4107	0.5972	0.8334	0.091
Mof_H 	H 	0.4331	0.582	0.8541	0.023
Mof_C 	C 	0.4151	0.5751	0.7854	-0.016
Mof_C 	C 	0.4111	0.5217	0.782	0.014
Mof_C 	C 	0.373	0.4852	0.782	0.001
Mof_C 	C 	0.3255	0.7163	0.944	0.086
Mof_H 	H 	0.3289	0.7243	0.9129	0.015
Mof_C 	C 	0.3158	0.753	0.9764	-0.153
Mof_H 	H 	0.3139	0.7838	0.9671	0.098
Mof_C 	C 	0.3096	0.7405	0.0205	0.099
Mof_H 	H 	0.302	0.7629	0.0424	0.015
Mof_C 	C 	0.314	0.6979	0.0332	-0.158
Mof_H 	H 	0.3106	0.6901	0.0644	0.09
Mof_C 	C 	0.3244	0.6613	0.9988	0.092
Mof_H 	H 	0.327	0.6306	0.0083	-0.007
Mof_N 	N 	0.3299	0.6717	0.9553	-0.234
Mof_O 	O 	0.30164	0.66144	0.8624	-0.404
Mof_O 	O 	0.30049	0.6199	0.7971	-0.294
Mof_O 	O 	0.3665	0.5844	0.84721	-0.507
Mof_H 	H 	0.3474	0.5963	0.8298	0.276
Mof_C 	C 	0.785	0.8485	0.1765	0.341
Mof_C 	C 	0.7438	0.8205	0.1911	-0.111
Mof_C 	C 	0.7304	0.7822	0.1661	0.046
Mof_H 	H 	0.7474	0.7733	0.1402	0.041
Mof_C 	C 	0.9107	0.9028	0.1666	0.091
Mof_H 	H 	0.9331	0.918	0.1459	0.023
Mof_C 	C 	0.9151	0.9249	0.2146	-0.016
Mof_C 	C 	0.9111	0.9783	0.218	0.014
Mof_C 	C 	0.873	0.0148	0.218	0.001
Mof_C 	C 	0.8255	0.7837	0.056	0.086
Mof_H 	H 	0.8289	0.7757	0.0871	0.015
Mof_C 	C 	0.8158	0.747	0.0236	-0.153
Mof_H 	H 	0.8139	0.7162	0.0329	0.098
Mof_C 	C 	0.8096	0.7595	0.9795	0.099
Mof_H 	H 	0.802	0.7371	0.9576	0.015
Mof_C 	C 	0.814	0.8021	0.9668	-0.158
Mof_H 	H 	0.8106	0.8099	0.9356	0.09
Mof_C 	C 	0.8244	0.8387	0.0012	0.091
Mof_H 	H 	0.827	0.8694	0.9917	-0.007
Mof_N 	N 	0.8299	0.8283	0.0447	-0.234
Mof_O 	O 	0.80164	0.83856	0.1376	-0.404
Mof_O 	O 	0.80049	0.8801	0.2029	-0.294
Mof_O 	O 	0.8665	0.9156	0.15279	-0.507
Mof_H 	H 	0.8474	0.9037	0.1702	0.276
Mof_C 	C 	0.215	0.3485	0.3235	0.341
Mof_C 	C 	0.2562	0.3205	0.3089	-0.111
Mof_C 	C 	0.2696	0.2822	0.3339	0.046
Mof_H 	H 	0.2526	0.2733	0.3598	0.041
Mof_C 	C 	0.0893	0.4028	0.3334	0.091
Mof_H 	H 	0.0669	0.418	0.3541	0.023
Mof_C 	C 	0.0849	0.4249	0.2854	-0.016
Mof_C 	C 	0.0889	0.4783	0.282	0.014
Mof_C 	C 	0.127	0.5148	0.282	0.001
Mof_C 	C 	0.1745	0.2837	0.444	0.086
Mof_H 	H 	0.1711	0.2757	0.4129	0.015
Mof_C 	C 	0.1842	0.247	0.4764	-0.153
Mof_H 	H 	0.1861	0.2162	0.4671	0.098
Mof_C 	C 	0.1904	0.2595	0.5205	0.099
Mof_H 	H 	0.198	0.2371	0.5424	0.015
Mof_C 	C 	0.186	0.3021	0.5332	-0.158
Mof_H 	H 	0.1894	0.3099	0.5644	0.09
Mof_C 	C 	0.1756	0.3387	0.4988	0.092
Mof_H 	H 	0.173	0.3694	0.5083	-0.007
Mof_N 	N 	0.1701	0.3283	0.4553	-0.234
Mof_O 	O 	0.19836	0.33856	0.3624	-0.404
Mof_O 	O 	0.19951	0.3801	0.2971	-0.294
Mof_O 	O 	0.1335	0.4156	0.34721	-0.507
Mof_H 	H 	0.1526	0.4037	0.3298	0.276
Mof_C 	C 	0.6515	0.8235	0.285	0.341
Mof_C 	C 	0.6795	0.8089	0.2438	-0.111
Mof_C 	C 	0.7178	0.8339	0.2304	0.046
Mof_H 	H 	0.7267	0.8598	0.2474	0.041
Mof_C 	C 	0.5972	0.8334	0.4107	0.091
Mof_H 	H 	0.582	0.8541	0.4331	0.023
Mof_C 	C 	0.5751	0.7854	0.4151	-0.016
Mof_C 	C 	0.5217	0.782	0.4111	0.014
Mof_C 	C 	0.4852	0.782	0.373	0.001
Mof_C 	C 	0.7163	0.944	0.3255	0.086
Mof_H 	H 	0.7243	0.9129	0.3289	0.015
Mof_C 	C 	0.753	0.9764	0.3158	-0.153
Mof_H 	H 	0.7838	0.9671	0.3139	0.098
Mof_C 	C 	0.7405	0.0205	0.3096	0.099
Mof_H 	H 	0.7629	0.0424	0.302	0.015
Mof_C 	C 	0.6979	0.0332	0.314	-0.158
Mof_H 	H 	0.6901	0.0644	0.3106	0.09
Mof_C 	C 	0.6613	0.9988	0.3244	0.092
Mof_H 	H 	0.6306	0.0083	0.327	-0.007
Mof_N 	N 	0.6717	0.9553	0.3299	-0.234
Mof_O 	O 	0.66144	0.8624	0.30164	-0.404
Mof_O 	O 	0.6199	0.7971	0.30049	-0.294
Mof_O 	O 	0.5844	0.84721	0.3665	-0.507
Mof_H 	H 	0.5963	0.8298	0.3474	0.276
Mof_C 	C 	0.1515	0.6765	0.715	0.341
Mof_C 	C 	0.1795	0.6911	0.7562	-0.111
Mof_C 	C 	0.2178	0.6661	0.7696	0.046
Mof_H 	H 	0.2267	0.6402	0.7526	0.041
Mof_C 	C 	0.0972	0.6666	0.5893	0.091
Mof_H 	H 	0.082	0.6459	0.5669	0.023
Mof_C 	C 	0.0751	0.7146	0.5849	-0.016
Mof_C 	C 	0.0217	0.718	0.5889	0.014
Mof_C 	C 	0.9852	0.718	0.627	0.001
Mof_C 	C 	0.2163	0.556	0.6745	0.086
Mof_H 	H 	0.2243	0.5871	0.6711	0.015
Mof_C 	C 	0.253	0.5236	0.6842	-0.153
Mof_H 	H 	0.2838	0.5329	0.6861	0.098
Mof_C 	C 	0.2405	0.4795	0.6904	0.099
Mof_H 	H 	0.2629	0.4576	0.698	0.015
Mof_C 	C 	0.1979	0.4668	0.686	-0.158
Mof_H 	H 	0.1901	0.4356	0.6894	0.09
Mof_C 	C 	0.1613	0.5012	0.6756	0.092
Mof_H 	H 	0.1306	0.4917	0.673	-0.007
Mof_N 	N 	0.1717	0.5447	0.6701	-0.234
Mof_O 	O 	0.16144	0.6376	0.69836	-0.404
Mof_O 	O 	0.1199	0.7029	0.69951	-0.294
Mof_O 	O 	0.0844	0.65279	0.6335	-0.507
Mof_H 	H 	0.0963	0.6702	0.6526	0.276
Mof_C 	C 	0.3485	0.3235	0.215	0.341
Mof_C 	C 	0.3205	0.3089	0.2562	-0.111
Mof_C 	C 	0.2822	0.3339	0.2696	0.046
Mof_H 	H 	0.2733	0.3598	0.2526	0.041
Mof_C 	C 	0.4028	0.3334	0.0893	0.091
Mof_H 	H 	0.418	0.3541	0.0669	0.023
Mof_C 	C 	0.4249	0.2854	0.0849	-0.016
Mof_C 	C 	0.4783	0.282	0.0889	0.014
Mof_C 	C 	0.5148	0.282	0.127	0.001
Mof_C 	C 	0.2837	0.444	0.1745	0.086
Mof_H 	H 	0.2757	0.4129	0.1711	0.015
Mof_C 	C 	0.247	0.4764	0.1842	-0.153
Mof_H 	H 	0.2162	0.4671	0.1861	0.098
Mof_C 	C 	0.2595	0.5205	0.1904	0.099
Mof_H 	H 	0.2371	0.5424	0.198	0.015
Mof_C 	C 	0.3021	0.5332	0.186	-0.158
Mof_H 	H 	0.3099	0.5644	0.1894	0.09
Mof_C 	C 	0.3387	0.4988	0.1756	0.092
Mof_H 	H 	0.3694	0.5083	0.173	-0.007
Mof_N 	N 	0.3283	0.4553	0.1701	-0.234
Mof_O 	O 	0.33856	0.3624	0.19836	-0.404
Mof_O 	O 	0.3801	0.2971	0.19951	-0.294
Mof_O 	O 	0.4156	0.34721	0.1335	-0.507
Mof_H 	H 	0.4037	0.3298	0.1526	0.276
Mof_C 	C 	0.8485	0.1765	0.785	0.341
Mof_C 	C 	0.8205	0.1911	0.7438	-0.111
Mof_C 	C 	0.7822	0.1661	0.7304	0.046
Mof_H 	H 	0.7733	0.1402	0.7474	0.041
Mof_C 	C 	0.9028	0.1666	0.9107	0.091
Mof_H 	H 	0.918	0.1459	0.9331	0.023
Mof_C 	C 	0.9249	0.2146	0.9151	-0.016
Mof_C 	C 	0.9783	0.218	0.9111	0.014
Mof_C 	C 	0.0148	0.218	0.873	0.001
Mof_C 	C 	0.7837	0.056	0.8255	0.086
Mof_H 	H 	0.7757	0.0871	0.8289	0.015
Mof_C 	C 	0.747	0.0236	0.8158	-0.153
Mof_H 	H 	0.7162	0.0329	0.8139	0.098
Mof_C 	C 	0.7595	0.9795	0.8096	0.099
Mof_H 	H 	0.7371	0.9576	0.802	0.015
Mof_C 	C 	0.8021	0.9668	0.814	-0.158
Mof_H 	H 	0.8099	0.9356	0.8106	0.09
Mof_C 	C 	0.8387	0.0012	0.8244	0.091
Mof_H 	H 	0.8694	0.9917	0.827	-0.007
Mof_N 	N 	0.8283	0.0447	0.8299	-0.234
Mof_O 	O 	0.83856	0.1376	0.80164	-0.404
Mof_O 	O 	0.8801	0.2029	0.80049	-0.294
Mof_O 	O 	0.9156	0.15279	0.8665	-0.507
Mof_H 	H 	0.9037	0.1702	0.8474	0.276
Mof_Ni	Ni	0.40407	0.15407	0.375	1.116
Mof_Ni	Ni	0.09593	0.84593	0.875	1.116
Mof_Ni	Ni	0.90407	0.34593	0.625	1.116
Mof_Ni	Ni	0.59593	0.65407	0.125	1.116
Mof_Ni	Ni	0.65407	0.125	0.59593	1.116
Mof_Ni	Ni	0.34593	0.625	0.90407	1.116
Mof_Ni	Ni	0.84593	0.875	0.09593	1.116
Mof_Ni	Ni	0.15407	0.375	0.40407	1.116
Mof_Ni	Ni	0.625	0.90407	0.34593	1.116
Mof_Ni	Ni	0.125	0.59593	0.65407	1.116
Mof_Ni	Ni	0.375	0.40407	0.15407	1.116
Mof_Ni	Ni	0.875	0.09593	0.84593	1.116
_end
