# CIF file generated by openbabel 3.1.0, see https://openbabel.org
data_I
_chemical_name_common 'image0'
_cell_length_a 16.965
_cell_length_b 15.5171
_cell_length_c 14.0726
_cell_angle_alpha 90
_cell_angle_beta 108.119
_cell_angle_gamma 90
_space_group_name_H-M_alt 'P 1'
_space_group_name_Hall 'P 1'
loop_
    _symmetry_equiv_pos_as_xyz
    x,y,z
loop_
    _atom_site_label
    _atom_site_type_symbol
    _atom_site_fract_x
    _atom_site_fract_y
    _atom_site_fract_z
    _atom_site_occupancy
    Zn1      Zn       0.51225    0.70437    0.63636    1.000
    O1       O        0.48060    0.31930    0.49330    1.000
    O2       O        0.49880    0.19470    0.56770    1.000
    O3       O        0.51010    0.58480    0.67620    1.000
    O4       O        0.40540    0.75400    0.62490    1.000
    O5       O        0.39540    0.76630    0.77790    1.000
    O6       O        0.05560    0.88360    0.36280    1.000
    O7       O        0.17090    0.84070    0.33160    1.000
    O8       O        0.06580    0.97850    0.68750    1.000
    O9       O        0.15380    0.92270    0.82510    1.000
    C1       C        0.49730    0.40690    0.66410    1.000
    H1       H        0.49630    0.43700    0.60650    1.000
    C2       C        0.49590    0.31830    0.66200    1.000
    C3       C        0.49120    0.27230    0.56850    1.000
    C4       C        0.13390    0.89180    0.56310    1.000
    H2       H        0.08330    0.91960    0.53600    1.000
    C5       C        0.17000    0.85460    0.49990    1.000
    C6       C        0.24560    0.81640    0.53960    1.000
    H3       H        0.27090    0.79140    0.49650    1.000
    C7       C        0.28680    0.81360    0.64300    1.000
    C8       C        0.24380    0.85020    0.70550    1.000
    H4       H        0.26700    0.84690    0.77460    1.000
    C9       C        0.16840    0.89060    0.66520    1.000
    C10      C        0.36790    0.77460    0.68500    1.000
    C11      C        0.13130    0.85980    0.39110    1.000
    C12      C        0.12960    0.93430    0.73350    1.000
    Zn2      Zn       0.48775    0.70437    0.86364    1.000
    O10      O        0.51940    0.31930    0.00670    1.000
    O11      O        0.50120    0.19470    0.93230    1.000
    O12      O        0.48990    0.58480    0.82380    1.000
    O13      O        0.59460    0.75400    0.87510    1.000
    O14      O        0.60460    0.76630    0.72210    1.000
    O15      O        0.94440    0.88360    0.13720    1.000
    O16      O        0.82910    0.84070    0.16840    1.000
    O17      O        0.93420    0.97850    0.81250    1.000
    O18      O        0.84620    0.92270    0.67490    1.000
    C13      C        0.50270    0.40690    0.83590    1.000
    H5       H        0.50370    0.43700    0.89350    1.000
    C14      C        0.50410    0.31830    0.83800    1.000
    C15      C        0.50880    0.27230    0.93150    1.000
    C16      C        0.86610    0.89180    0.93690    1.000
    H6       H        0.91670    0.91960    0.96400    1.000
    C17      C        0.83000    0.85460    0.00010    1.000
    C18      C        0.75440    0.81640    0.96040    1.000
    H7       H        0.72910    0.79140    0.00350    1.000
    C19      C        0.71320    0.81360    0.85700    1.000
    C20      C        0.75620    0.85020    0.79450    1.000
    H8       H        0.73300    0.84690    0.72540    1.000
    C21      C        0.83160    0.89060    0.83480    1.000
    C22      C        0.63210    0.77460    0.81500    1.000
    C23      C        0.86870    0.85980    0.10890    1.000
    C24      C        0.87040    0.93430    0.76650    1.000
    Zn3      Zn       0.48775    0.29563    0.36364    1.000
    O19      O        0.51940    0.68070    0.50670    1.000
    O20      O        0.50120    0.80530    0.43230    1.000
    O21      O        0.48990    0.41520    0.32380    1.000
    O22      O        0.59460    0.24600    0.37510    1.000
    O23      O        0.60460    0.23370    0.22210    1.000
    O24      O        0.94440    0.11640    0.63720    1.000
    O25      O        0.82910    0.15930    0.66840    1.000
    O26      O        0.93420    0.02150    0.31250    1.000
    O27      O        0.84620    0.07730    0.17490    1.000
    C25      C        0.50270    0.59310    0.33590    1.000
    H9       H        0.50370    0.56300    0.39350    1.000
    C26      C        0.50410    0.68170    0.33800    1.000
    C27      C        0.50880    0.72770    0.43150    1.000
    C28      C        0.86610    0.10820    0.43690    1.000
    H10      H        0.91670    0.08040    0.46400    1.000
    C29      C        0.83000    0.14540    0.50010    1.000
    C30      C        0.75440    0.18360    0.46040    1.000
    H11      H        0.72910    0.20860    0.50350    1.000
    C31      C        0.71320    0.18640    0.35700    1.000
    C32      C        0.75620    0.14980    0.29450    1.000
    H12      H        0.73300    0.15310    0.22540    1.000
    C33      C        0.83160    0.10940    0.33480    1.000
    C34      C        0.63210    0.22540    0.31500    1.000
    C35      C        0.86870    0.14020    0.60890    1.000
    C36      C        0.87040    0.06570    0.26650    1.000
    Zn4      Zn       0.51225    0.29563    0.13636    1.000
    O28      O        0.48060    0.68070    0.99330    1.000
    O29      O        0.49880    0.80530    0.06770    1.000
    O30      O        0.51010    0.41520    0.17620    1.000
    O31      O        0.40540    0.24600    0.12490    1.000
    O32      O        0.39540    0.23370    0.27790    1.000
    O33      O        0.05560    0.11640    0.86280    1.000
    O34      O        0.17090    0.15930    0.83160    1.000
    O35      O        0.06580    0.02150    0.18750    1.000
    O36      O        0.15380    0.07730    0.32510    1.000
    C37      C        0.49730    0.59310    0.16410    1.000
    H13      H        0.49630    0.56300    0.10650    1.000
    C38      C        0.49590    0.68170    0.16200    1.000
    C39      C        0.49120    0.72770    0.06850    1.000
    C40      C        0.13390    0.10820    0.06310    1.000
    H14      H        0.08330    0.08040    0.03600    1.000
    C41      C        0.17000    0.14540    0.99990    1.000
    C42      C        0.24560    0.18360    0.03960    1.000
    H15      H        0.27090    0.20860    0.99650    1.000
    C43      C        0.28680    0.18640    0.14300    1.000
    C44      C        0.24380    0.14980    0.20550    1.000
    H16      H        0.26700    0.15310    0.27460    1.000
    C45      C        0.16840    0.10940    0.16520    1.000
    C46      C        0.36790    0.22540    0.18500    1.000
    C47      C        0.13130    0.14020    0.89110    1.000
    C48      C        0.12960    0.06570    0.23350    1.000
    Zn5      Zn       0.00000    0.95650    0.25000    1.000
    Zn6      Zn       0.00000    0.04350    0.75000    1.000
    C49      C        0.50000    0.27400    0.75000    1.000
    H17      H        0.50000    0.21400    0.75000    1.000
    C50      C        0.50000    0.45260    0.75000    1.000
    C51      C        0.50000    0.54840    0.75000    1.000
    C52      C        0.50000    0.72600    0.25000    1.000
    H18      H        0.50000    0.78600    0.25000    1.000
    C53      C        0.50000    0.54740    0.25000    1.000
    C54      C        0.50000    0.45160    0.25000    1.000
