data_functionalizedCrystal
_audit_creation_method	'EQeq! by Chris Wilmer'
_symmetry_space_group_name_H-M	'P1'
_symmetry_Int_Tables_number	1
_symmetry_cell_setting	triclinic
loop_
_symmetry_equiv_pos_as_xyz
  x,y,z
_cell_length_a	15.165
_cell_length_b	26.907
_cell_length_c	23.715
_cell_angle_alpha	90
_cell_angle_beta	106.91
_cell_angle_gamma	90
loop_
_atom_site_label
_atom_site_type_symbol
_atom_site_fract_x
_atom_site_fract_y
_atom_site_fract_z
_atom_site_charge
Mof_W 	W 	0.36878	0.62042	0.54343	0.397
Mof_Cu	Cu	0.27167	0.55	0.57722	0.757
Mof_Cu	Cu	0.26015	0.65649	0.6051	0.759
Mof_Cu	Cu	0.19231	0.62327	0.48064	0.764
Mof_S 	S 	0.2835	0.55822	0.48705	-0.588
Mof_Cu	Cu	0.16079	0.76883	0.74164	0.811
Mof_S 	S 	0.37164	0.60023	0.63817	-0.564
Mof_S 	S 	0.27451	0.68886	0.52167	-0.56
Mof_Cu	Cu	0.13589	0.39661	0.63495	0.806
Mof_N 	N 	0.5756	0.5855	0.554	-0.291
Mof_N 	N 	0.4852	0.6767	0.5856	-0.168
Mof_N 	N 	0.5116	0.6429	0.4695	-0.297
Mof_N 	N 	0.4927	0.5685	0.5578	-0.166
Mof_C 	C 	0.0693	0.6199	0.431	-0.28
Mof_N 	N 	0.2166	0.4918	0.5981	-0.241
Mof_C 	C 	0.1845	0.456	0.6114	-0.269
Mof_N 	N 	0.4185	0.6395	0.464	-0.165
Mof_N 	N 	0.5675	0.6761	0.5712	-0.297
Mof_N 	N 	0.2416	0.8208	0.7842	-0.222
Mof_N 	N 	0.995	0.6136	0.4033	-0.223
Mof_N 	N 	0.1979	0.7218	0.6921	-0.221
Mof_C 	C 	0.219	0.6952	0.6591	-0.267
Mof_C 	C 	0.6424	0.5513	0.573	0.359
Mof_C 	C 	0.2893	0.8507	0.8125	-0.264
Mof_C 	C 	0.6013	0.5093	0.5879	-0.456
Mof_H 	H 	0.6299	0.4791	0.6011	0.183
Mof_C 	C 	0.5093	0.5208	0.579	0.385
Mof_C 	C 	0.6239	0.7121	0.6015	0.346
Mof_C 	C 	0.5234	0.6516	0.4162	0.335
Mof_C 	C 	0.4404	0.486	0.59	-0.867
Mof_H 	H 	0.4146	0.4999	0.6189	0.232
Mof_H 	H 	0.4697	0.4549	0.6041	0.269
Mof_H 	H 	0.3923	0.4805	0.5539	0.248
Mof_C 	C 	0.3738	0.647	0.4067	0.327
Mof_C 	C 	0.4378	0.6554	0.3761	-0.432
Mof_H 	H 	0.4251	0.6623	0.3361	0.117
Mof_C 	C 	0.4938	0.7145	0.6248	0.369
Mof_C 	C 	0.7408	0.5589	0.575	-0.802
Mof_H 	H 	0.7452	0.5617	0.5355	0.209
Mof_H 	H 	0.7768	0.531	0.5942	0.233
Mof_H 	H 	0.7636	0.5887	0.5964	0.208
Mof_C 	C 	0.4229	0.7304	0.6544	-0.84
Mof_H 	H 	0.3716	0.7455	0.6258	0.241
Mof_H 	H 	0.4499	0.754	0.6849	0.246
Mof_H 	H 	0.402	0.7019	0.6712	0.236
Mof_C 	C 	0.0373	0.7684	0.7479	-0.243
Mof_B 	B 	0.5844	0.6376	0.5286	0.713
Mof_C 	C 	0.2718	0.6491	0.3796	-0.775
Mof_H 	H 	0.2465	0.6163	0.3783	0.21
Mof_H 	H 	0.2583	0.662	0.3402	0.213
Mof_H 	H 	0.245	0.6703	0.4027	0.204
Mof_C 	C 	0.5791	0.7356	0.6352	-0.481
Mof_H 	H 	0.6021	0.7617	0.661	0.158
Mof_C 	C 	0.6158	0.6596	0.4072	-0.784
Mof_H 	H 	0.6422	0.6898	0.4264	0.202
Mof_H 	H 	0.6092	0.6621	0.3658	0.219
Mof_H 	H 	0.6554	0.6322	0.4235	0.198
Mof_C 	C 	0.7179	0.721	0.5938	-0.765
Mof_H 	H 	0.7387	0.7537	0.6075	0.201
Mof_H 	H 	0.7145	0.718	0.5529	0.191
Mof_H 	H 	0.7605	0.6968	0.6162	0.19
Mof_W 	W 	0.86878	0.12042	0.54343	0.395
Mof_Cu	Cu	0.77167	0.05	0.57722	0.756
Mof_Cu	Cu	0.76015	0.15649	0.6051	0.758
Mof_Cu	Cu	0.69231	0.12327	0.48064	0.763
Mof_S 	S 	0.7835	0.05822	0.48705	-0.589
Mof_Cu	Cu	0.66079	0.26883	0.74164	0.81
Mof_S 	S 	0.87164	0.10023	0.63817	-0.565
Mof_S 	S 	0.77451	0.18886	0.52167	-0.56
Mof_Cu	Cu	0.63589	0.89661	0.63495	0.806
Mof_N 	N 	0.0756	0.0855	0.554	-0.291
Mof_N 	N 	0.9852	0.1767	0.5856	-0.168
Mof_N 	N 	0.0116	0.1429	0.4695	-0.297
Mof_N 	N 	0.9927	0.0685	0.5578	-0.166
Mof_C 	C 	0.5693	0.1199	0.431	-0.279
Mof_N 	N 	0.7166	0.9918	0.5981	-0.241
Mof_C 	C 	0.6845	0.956	0.6114	-0.269
Mof_N 	N 	0.9185	0.1395	0.464	-0.165
Mof_N 	N 	0.0675	0.1761	0.5712	-0.297
Mof_N 	N 	0.7416	0.3208	0.7842	-0.222
Mof_N 	N 	0.495	0.1136	0.4033	-0.223
Mof_N 	N 	0.6979	0.2218	0.6921	-0.221
Mof_C 	C 	0.719	0.1952	0.6591	-0.267
Mof_C 	C 	0.1424	0.0513	0.573	0.36
Mof_C 	C 	0.7893	0.3507	0.8125	-0.264
Mof_C 	C 	0.1013	0.0093	0.5879	-0.457
Mof_H 	H 	0.1299	0.9791	0.6011	0.183
Mof_C 	C 	0.0093	0.0208	0.579	0.385
Mof_C 	C 	0.1239	0.2121	0.6015	0.346
Mof_C 	C 	0.0234	0.1516	0.4162	0.334
Mof_C 	C 	0.9404	0.986	0.59	-0.867
Mof_H 	H 	0.9146	0.9999	0.6189	0.232
Mof_H 	H 	0.9697	0.9549	0.6041	0.269
Mof_H 	H 	0.8923	0.9805	0.5539	0.248
Mof_C 	C 	0.8738	0.147	0.4067	0.327
Mof_C 	C 	0.9378	0.1554	0.3761	-0.432
Mof_H 	H 	0.9251	0.1623	0.3361	0.117
Mof_C 	C 	0.9938	0.2145	0.6248	0.369
Mof_C 	C 	0.2408	0.0589	0.575	-0.803
Mof_H 	H 	0.2452	0.0617	0.5355	0.209
Mof_H 	H 	0.2768	0.031	0.5942	0.233
Mof_H 	H 	0.2636	0.0887	0.5964	0.208
Mof_C 	C 	0.9229	0.2304	0.6544	-0.839
Mof_H 	H 	0.8716	0.2455	0.6258	0.241
Mof_H 	H 	0.9499	0.254	0.6849	0.246
Mof_H 	H 	0.902	0.2019	0.6712	0.236
Mof_C 	C 	0.5373	0.2684	0.7479	-0.244
Mof_B 	B 	0.0844	0.1376	0.5286	0.712
Mof_C 	C 	0.7718	0.1491	0.3796	-0.775
Mof_H 	H 	0.7465	0.1163	0.3783	0.21
Mof_H 	H 	0.7583	0.162	0.3402	0.213
Mof_H 	H 	0.745	0.1703	0.4027	0.204
Mof_C 	C 	0.0791	0.2356	0.6352	-0.48
Mof_H 	H 	0.1021	0.2617	0.661	0.157
Mof_C 	C 	0.1158	0.1596	0.4072	-0.783
Mof_H 	H 	0.1422	0.1898	0.4264	0.201
Mof_H 	H 	0.1092	0.1621	0.3658	0.219
Mof_H 	H 	0.1554	0.1322	0.4235	0.198
Mof_C 	C 	0.2179	0.221	0.5938	-0.765
Mof_H 	H 	0.2387	0.2537	0.6075	0.201
Mof_H 	H 	0.2145	0.218	0.5529	0.19
Mof_H 	H 	0.2605	0.1968	0.6162	0.19
Mof_W 	W 	0.63122	0.62042	0.95657	0.396
Mof_Cu	Cu	0.72833	0.55	0.92278	0.756
Mof_Cu	Cu	0.73985	0.65649	0.8949	0.758
Mof_Cu	Cu	0.80769	0.62327	0.01936	0.763
Mof_S 	S 	0.7165	0.55822	0.01295	-0.589
Mof_Cu	Cu	0.83921	0.76883	0.75836	0.81
Mof_S 	S 	0.62836	0.60023	0.86183	-0.565
Mof_S 	S 	0.72549	0.68886	0.97833	-0.56
Mof_Cu	Cu	0.86411	0.39661	0.86505	0.806
Mof_N 	N 	0.4244	0.5855	0.946	-0.291
Mof_N 	N 	0.5148	0.6767	0.9144	-0.168
Mof_N 	N 	0.4884	0.6429	0.0305	-0.297
Mof_N 	N 	0.5073	0.5685	0.9422	-0.166
Mof_C 	C 	0.9307	0.6199	0.069	-0.279
Mof_N 	N 	0.7834	0.4918	0.9019	-0.241
Mof_C 	C 	0.8155	0.456	0.8886	-0.269
Mof_N 	N 	0.5815	0.6395	0.036	-0.165
Mof_N 	N 	0.4325	0.6761	0.9288	-0.297
Mof_N 	N 	0.7584	0.8208	0.7158	-0.222
Mof_N 	N 	0.005	0.6136	0.0967	-0.223
Mof_N 	N 	0.8021	0.7218	0.8079	-0.221
Mof_C 	C 	0.781	0.6952	0.8409	-0.267
Mof_C 	C 	0.3576	0.5513	0.927	0.36
Mof_C 	C 	0.7107	0.8507	0.6875	-0.264
Mof_C 	C 	0.3987	0.5093	0.9121	-0.456
Mof_H 	H 	0.3701	0.4791	0.8989	0.183
Mof_C 	C 	0.4907	0.5208	0.921	0.385
Mof_C 	C 	0.3761	0.7121	0.8985	0.347
Mof_C 	C 	0.4766	0.6516	0.0838	0.335
Mof_C 	C 	0.5596	0.486	0.91	-0.867
Mof_H 	H 	0.5854	0.4999	0.8811	0.232
Mof_H 	H 	0.5303	0.4549	0.8959	0.269
Mof_H 	H 	0.6077	0.4805	0.9461	0.248
Mof_C 	C 	0.6262	0.647	0.0933	0.327
Mof_C 	C 	0.5622	0.6554	0.1239	-0.432
Mof_H 	H 	0.5749	0.6623	0.1639	0.117
Mof_C 	C 	0.5062	0.7145	0.8752	0.369
Mof_C 	C 	0.2592	0.5589	0.925	-0.803
Mof_H 	H 	0.2548	0.5617	0.9645	0.21
Mof_H 	H 	0.2232	0.531	0.9058	0.233
Mof_H 	H 	0.2364	0.5887	0.9036	0.208
Mof_C 	C 	0.5771	0.7304	0.8456	-0.84
Mof_H 	H 	0.6284	0.7455	0.8742	0.241
Mof_H 	H 	0.5501	0.754	0.8151	0.246
Mof_H 	H 	0.598	0.7019	0.8288	0.236
Mof_C 	C 	0.9627	0.7684	0.7521	-0.244
Mof_B 	B 	0.4156	0.6376	0.9714	0.713
Mof_C 	C 	0.7282	0.6491	0.1204	-0.775
Mof_H 	H 	0.7535	0.6163	0.1217	0.21
Mof_H 	H 	0.7417	0.662	0.1598	0.213
Mof_H 	H 	0.755	0.6703	0.0973	0.204
Mof_C 	C 	0.4209	0.7356	0.8648	-0.481
Mof_H 	H 	0.3979	0.7617	0.839	0.158
Mof_C 	C 	0.3842	0.6596	0.0928	-0.783
Mof_H 	H 	0.3578	0.6898	0.0736	0.201
Mof_H 	H 	0.3908	0.6621	0.1342	0.219
Mof_H 	H 	0.3446	0.6322	0.0765	0.198
Mof_C 	C 	0.2821	0.721	0.9062	-0.766
Mof_H 	H 	0.2613	0.7537	0.8925	0.201
Mof_H 	H 	0.2855	0.718	0.9471	0.191
Mof_H 	H 	0.2395	0.6968	0.8838	0.191
Mof_W 	W 	0.13122	0.12042	0.95657	0.395
Mof_Cu	Cu	0.22833	0.05	0.92278	0.756
Mof_Cu	Cu	0.23985	0.15649	0.8949	0.758
Mof_Cu	Cu	0.30769	0.12327	0.01936	0.763
Mof_S 	S 	0.2165	0.05822	0.01295	-0.588
Mof_Cu	Cu	0.33921	0.26883	0.75836	0.81
Mof_S 	S 	0.12836	0.10023	0.86183	-0.565
Mof_S 	S 	0.22549	0.18886	0.97833	-0.561
Mof_Cu	Cu	0.36411	0.89661	0.86505	0.806
Mof_N 	N 	0.9244	0.0855	0.946	-0.291
Mof_N 	N 	0.0148	0.1767	0.9144	-0.168
Mof_N 	N 	0.9884	0.1429	0.0305	-0.296
Mof_N 	N 	0.0073	0.0685	0.9422	-0.166
Mof_C 	C 	0.4307	0.1199	0.069	-0.279
Mof_N 	N 	0.2834	0.9918	0.9019	-0.241
Mof_C 	C 	0.3155	0.956	0.8886	-0.269
Mof_N 	N 	0.0815	0.1395	0.036	-0.165
Mof_N 	N 	0.9325	0.1761	0.9288	-0.297
Mof_N 	N 	0.2584	0.3208	0.7158	-0.222
Mof_N 	N 	0.505	0.1136	0.0967	-0.223
Mof_N 	N 	0.3021	0.2218	0.8079	-0.221
Mof_C 	C 	0.281	0.1952	0.8409	-0.267
Mof_C 	C 	0.8576	0.0513	0.927	0.359
Mof_C 	C 	0.2107	0.3507	0.6875	-0.264
Mof_C 	C 	0.8987	0.0093	0.9121	-0.457
Mof_H 	H 	0.8701	0.9791	0.8989	0.183
Mof_C 	C 	0.9907	0.0208	0.921	0.383
Mof_C 	C 	0.8761	0.2121	0.8985	0.346
Mof_C 	C 	0.9766	0.1516	0.0838	0.336
Mof_C 	C 	0.0596	0.986	0.91	-0.863
Mof_H 	H 	0.0854	0.9999	0.8811	0.231
Mof_H 	H 	0.0303	0.9549	0.8959	0.268
Mof_H 	H 	0.1077	0.9805	0.9461	0.247
Mof_C 	C 	0.1262	0.147	0.0933	0.328
Mof_C 	C 	0.0622	0.1554	0.1239	-0.434
Mof_H 	H 	0.0749	0.1623	0.1639	0.117
Mof_C 	C 	0.0062	0.2145	0.8752	0.37
Mof_C 	C 	0.7592	0.0589	0.925	-0.802
Mof_H 	H 	0.7548	0.0617	0.9645	0.209
Mof_H 	H 	0.7232	0.031	0.9058	0.232
Mof_H 	H 	0.7364	0.0887	0.9036	0.207
Mof_C 	C 	0.0771	0.2304	0.8456	-0.84
Mof_H 	H 	0.1284	0.2455	0.8742	0.241
Mof_H 	H 	0.0501	0.254	0.8151	0.246
Mof_H 	H 	0.098	0.2019	0.8288	0.236
Mof_C 	C 	0.4627	0.2684	0.7521	-0.244
Mof_B 	B 	0.9156	0.1376	0.9714	0.711
Mof_C 	C 	0.2282	0.1491	0.1204	-0.776
Mof_H 	H 	0.2535	0.1163	0.1217	0.21
Mof_H 	H 	0.2417	0.162	0.1598	0.213
Mof_H 	H 	0.255	0.1703	0.0973	0.204
Mof_C 	C 	0.9209	0.2356	0.8648	-0.481
Mof_H 	H 	0.8979	0.2617	0.839	0.158
Mof_C 	C 	0.8842	0.1596	0.0928	-0.785
Mof_H 	H 	0.8578	0.1898	0.0736	0.202
Mof_H 	H 	0.8908	0.1621	0.1342	0.22
Mof_H 	H 	0.8446	0.1322	0.0765	0.199
Mof_C 	C 	0.7821	0.221	0.9062	-0.765
Mof_H 	H 	0.7613	0.2537	0.8925	0.201
Mof_H 	H 	0.7855	0.218	0.9471	0.19
Mof_H 	H 	0.7395	0.1968	0.8838	0.19
Mof_W 	W 	0.63122	0.37958	0.45657	0.396
Mof_Cu	Cu	0.72833	0.45	0.42278	0.756
Mof_Cu	Cu	0.73985	0.34351	0.3949	0.758
Mof_Cu	Cu	0.80769	0.37673	0.51936	0.763
Mof_S 	S 	0.7165	0.44178	0.51295	-0.589
Mof_Cu	Cu	0.83921	0.23117	0.25836	0.81
Mof_S 	S 	0.62836	0.39977	0.36183	-0.564
Mof_S 	S 	0.72549	0.31114	0.47833	-0.56
Mof_Cu	Cu	0.86411	0.60339	0.36505	0.806
Mof_N 	N 	0.4244	0.4145	0.446	-0.291
Mof_N 	N 	0.5148	0.3233	0.4144	-0.168
Mof_N 	N 	0.4884	0.3571	0.5305	-0.297
Mof_N 	N 	0.5073	0.4315	0.4422	-0.166
Mof_C 	C 	0.9307	0.3801	0.569	-0.28
Mof_N 	N 	0.7834	0.5082	0.4019	-0.241
Mof_C 	C 	0.8155	0.544	0.3886	-0.269
Mof_N 	N 	0.5815	0.3605	0.536	-0.165
Mof_N 	N 	0.4325	0.3239	0.4288	-0.297
Mof_N 	N 	0.7584	0.1792	0.2158	-0.222
Mof_N 	N 	0.005	0.3864	0.5967	-0.223
Mof_N 	N 	0.8021	0.2782	0.3079	-0.221
Mof_C 	C 	0.781	0.3048	0.3409	-0.267
Mof_C 	C 	0.3576	0.4487	0.427	0.359
Mof_C 	C 	0.7107	0.1493	0.1875	-0.264
Mof_C 	C 	0.3987	0.4907	0.4121	-0.456
Mof_H 	H 	0.3701	0.5209	0.3989	0.183
Mof_C 	C 	0.4907	0.4792	0.421	0.385
Mof_C 	C 	0.3761	0.2879	0.3985	0.346
Mof_C 	C 	0.4766	0.3484	0.5838	0.335
Mof_C 	C 	0.5596	0.514	0.41	-0.867
Mof_H 	H 	0.5854	0.5001	0.3811	0.232
Mof_H 	H 	0.5303	0.5451	0.3959	0.269
Mof_H 	H 	0.6077	0.5195	0.4461	0.248
Mof_C 	C 	0.6262	0.353	0.5933	0.327
Mof_C 	C 	0.5622	0.3446	0.6239	-0.432
Mof_H 	H 	0.5749	0.3377	0.6639	0.117
Mof_C 	C 	0.5062	0.2855	0.3752	0.369
Mof_C 	C 	0.2592	0.4411	0.425	-0.802
Mof_H 	H 	0.2548	0.4383	0.4645	0.209
Mof_H 	H 	0.2232	0.469	0.4058	0.233
Mof_H 	H 	0.2364	0.4113	0.4036	0.208
Mof_C 	C 	0.5771	0.2696	0.3456	-0.84
Mof_H 	H 	0.6284	0.2545	0.3742	0.241
Mof_H 	H 	0.5501	0.246	0.3151	0.246
Mof_H 	H 	0.598	0.2981	0.3288	0.236
Mof_C 	C 	0.9627	0.2316	0.2521	-0.243
Mof_B 	B 	0.4156	0.3624	0.4714	0.713
Mof_C 	C 	0.7282	0.3509	0.6204	-0.775
Mof_H 	H 	0.7535	0.3837	0.6217	0.21
Mof_H 	H 	0.7417	0.338	0.6598	0.213
Mof_H 	H 	0.755	0.3297	0.5973	0.204
Mof_C 	C 	0.4209	0.2644	0.3648	-0.481
Mof_H 	H 	0.3979	0.2383	0.339	0.158
Mof_C 	C 	0.3842	0.3404	0.5928	-0.784
Mof_H 	H 	0.3578	0.3102	0.5736	0.202
Mof_H 	H 	0.3908	0.3379	0.6342	0.219
Mof_H 	H 	0.3446	0.3678	0.5765	0.198
Mof_C 	C 	0.2821	0.279	0.4062	-0.765
Mof_H 	H 	0.2613	0.2463	0.3925	0.201
Mof_H 	H 	0.2855	0.282	0.4471	0.191
Mof_H 	H 	0.2395	0.3032	0.3838	0.19
Mof_W 	W 	0.13122	0.87958	0.45657	0.395
Mof_Cu	Cu	0.22833	0.95	0.42278	0.756
Mof_Cu	Cu	0.23985	0.84351	0.3949	0.758
Mof_Cu	Cu	0.30769	0.87673	0.51936	0.763
Mof_S 	S 	0.2165	0.94178	0.51295	-0.589
Mof_Cu	Cu	0.33921	0.73117	0.25836	0.81
Mof_S 	S 	0.12836	0.89977	0.36183	-0.565
Mof_S 	S 	0.22549	0.81114	0.47833	-0.56
Mof_Cu	Cu	0.36411	0.10339	0.36505	0.806
Mof_N 	N 	0.9244	0.9145	0.446	-0.291
Mof_N 	N 	0.0148	0.8233	0.4144	-0.168
Mof_N 	N 	0.9884	0.8571	0.5305	-0.297
Mof_N 	N 	0.0073	0.9315	0.4422	-0.166
Mof_C 	C 	0.4307	0.8801	0.569	-0.279
Mof_N 	N 	0.2834	0.0082	0.4019	-0.241
Mof_C 	C 	0.3155	0.044	0.3886	-0.269
Mof_N 	N 	0.0815	0.8605	0.536	-0.165
Mof_N 	N 	0.9325	0.8239	0.4288	-0.297
Mof_N 	N 	0.2584	0.6792	0.2158	-0.222
Mof_N 	N 	0.505	0.8864	0.5967	-0.223
Mof_N 	N 	0.3021	0.7782	0.3079	-0.221
Mof_C 	C 	0.281	0.8048	0.3409	-0.267
Mof_C 	C 	0.8576	0.9487	0.427	0.36
Mof_C 	C 	0.2107	0.6493	0.1875	-0.264
Mof_C 	C 	0.8987	0.9907	0.4121	-0.457
Mof_H 	H 	0.8701	0.0209	0.3989	0.183
Mof_C 	C 	0.9907	0.9792	0.421	0.385
Mof_C 	C 	0.8761	0.7879	0.3985	0.346
Mof_C 	C 	0.9766	0.8484	0.5838	0.334
Mof_C 	C 	0.0596	0.014	0.41	-0.867
Mof_H 	H 	0.0854	0.0001	0.3811	0.232
Mof_H 	H 	0.0303	0.0451	0.3959	0.269
Mof_H 	H 	0.1077	0.0195	0.4461	0.248
Mof_C 	C 	0.1262	0.853	0.5933	0.327
Mof_C 	C 	0.0622	0.8446	0.6239	-0.432
Mof_H 	H 	0.0749	0.8377	0.6639	0.117
Mof_C 	C 	0.0062	0.7855	0.3752	0.369
Mof_C 	C 	0.7592	0.9411	0.425	-0.803
Mof_H 	H 	0.7548	0.9383	0.4645	0.209
Mof_H 	H 	0.7232	0.969	0.4058	0.233
Mof_H 	H 	0.7364	0.9113	0.4036	0.208
Mof_C 	C 	0.0771	0.7696	0.3456	-0.839
Mof_H 	H 	0.1284	0.7545	0.3742	0.241
Mof_H 	H 	0.0501	0.746	0.3151	0.246
Mof_H 	H 	0.098	0.7981	0.3288	0.236
Mof_C 	C 	0.4627	0.7316	0.2521	-0.244
Mof_B 	B 	0.9156	0.8624	0.4714	0.712
Mof_C 	C 	0.2282	0.8509	0.6204	-0.775
Mof_H 	H 	0.2535	0.8837	0.6217	0.21
Mof_H 	H 	0.2417	0.838	0.6598	0.213
Mof_H 	H 	0.255	0.8297	0.5973	0.204
Mof_C 	C 	0.9209	0.7644	0.3648	-0.48
Mof_H 	H 	0.8979	0.7383	0.339	0.157
Mof_C 	C 	0.8842	0.8404	0.5928	-0.783
Mof_H 	H 	0.8578	0.8102	0.5736	0.201
Mof_H 	H 	0.8908	0.8379	0.6342	0.219
Mof_H 	H 	0.8446	0.8678	0.5765	0.198
Mof_C 	C 	0.7821	0.779	0.4062	-0.765
Mof_H 	H 	0.7613	0.7463	0.3925	0.201
Mof_H 	H 	0.7855	0.782	0.4471	0.19
Mof_H 	H 	0.7395	0.8032	0.3838	0.19
Mof_W 	W 	0.36878	0.37958	0.04343	0.396
Mof_Cu	Cu	0.27167	0.45	0.07722	0.756
Mof_Cu	Cu	0.26015	0.34351	0.1051	0.758
Mof_Cu	Cu	0.19231	0.37673	0.98064	0.763
Mof_S 	S 	0.2835	0.44178	0.98705	-0.589
Mof_Cu	Cu	0.16079	0.23117	0.24164	0.81
Mof_S 	S 	0.37164	0.39977	0.13817	-0.565
Mof_S 	S 	0.27451	0.31114	0.02167	-0.56
Mof_Cu	Cu	0.13589	0.60339	0.13495	0.806
Mof_N 	N 	0.5756	0.4145	0.054	-0.291
Mof_N 	N 	0.4852	0.3233	0.0856	-0.168
Mof_N 	N 	0.5116	0.3571	0.9695	-0.297
Mof_N 	N 	0.4927	0.4315	0.0578	-0.166
Mof_C 	C 	0.0693	0.3801	0.931	-0.279
Mof_N 	N 	0.2166	0.5082	0.0981	-0.241
Mof_C 	C 	0.1845	0.544	0.1114	-0.269
Mof_N 	N 	0.4185	0.3605	0.964	-0.165
Mof_N 	N 	0.5675	0.3239	0.0712	-0.297
Mof_N 	N 	0.2416	0.1792	0.2842	-0.222
Mof_N 	N 	0.995	0.3864	0.9033	-0.223
Mof_N 	N 	0.1979	0.2782	0.1921	-0.221
Mof_C 	C 	0.219	0.3048	0.1591	-0.267
Mof_C 	C 	0.6424	0.4487	0.073	0.36
Mof_C 	C 	0.2893	0.1493	0.3125	-0.264
Mof_C 	C 	0.6013	0.4907	0.0879	-0.456
Mof_H 	H 	0.6299	0.5209	0.1011	0.183
Mof_C 	C 	0.5093	0.4792	0.079	0.385
Mof_C 	C 	0.6239	0.2879	0.1015	0.347
Mof_C 	C 	0.5234	0.3484	0.9162	0.335
Mof_C 	C 	0.4404	0.514	0.09	-0.867
Mof_H 	H 	0.4146	0.5001	0.1189	0.232
Mof_H 	H 	0.4697	0.5451	0.1041	0.269
Mof_H 	H 	0.3923	0.5195	0.0539	0.248
Mof_C 	C 	0.3738	0.353	0.9067	0.327
Mof_C 	C 	0.4378	0.3446	0.8761	-0.432
Mof_H 	H 	0.4251	0.3377	0.8361	0.117
Mof_C 	C 	0.4938	0.2855	0.1248	0.369
Mof_C 	C 	0.7408	0.4411	0.075	-0.803
Mof_H 	H 	0.7452	0.4383	0.0355	0.21
Mof_H 	H 	0.7768	0.469	0.0942	0.233
Mof_H 	H 	0.7636	0.4113	0.0964	0.208
Mof_C 	C 	0.4229	0.2696	0.1544	-0.84
Mof_H 	H 	0.3716	0.2545	0.1258	0.241
Mof_H 	H 	0.4499	0.246	0.1849	0.246
Mof_H 	H 	0.402	0.2981	0.1712	0.236
Mof_C 	C 	0.0373	0.2316	0.2479	-0.244
Mof_B 	B 	0.5844	0.3624	0.0286	0.713
Mof_C 	C 	0.2718	0.3509	0.8796	-0.775
Mof_H 	H 	0.2465	0.3837	0.8783	0.21
Mof_H 	H 	0.2583	0.338	0.8402	0.213
Mof_H 	H 	0.245	0.3297	0.9027	0.204
Mof_C 	C 	0.5791	0.2644	0.1352	-0.481
Mof_H 	H 	0.6021	0.2383	0.161	0.158
Mof_C 	C 	0.6158	0.3404	0.9072	-0.783
Mof_H 	H 	0.6422	0.3102	0.9264	0.201
Mof_H 	H 	0.6092	0.3379	0.8658	0.219
Mof_H 	H 	0.6554	0.3678	0.9235	0.198
Mof_C 	C 	0.7179	0.279	0.0938	-0.766
Mof_H 	H 	0.7387	0.2463	0.1075	0.201
Mof_H 	H 	0.7145	0.282	0.0529	0.191
Mof_H 	H 	0.7605	0.3032	0.1162	0.191
Mof_W 	W 	0.86878	0.87958	0.04343	0.395
Mof_Cu	Cu	0.77167	0.95	0.07722	0.756
Mof_Cu	Cu	0.76015	0.84351	0.1051	0.758
Mof_Cu	Cu	0.69231	0.87673	0.98064	0.763
Mof_S 	S 	0.7835	0.94178	0.98705	-0.588
Mof_Cu	Cu	0.66079	0.73117	0.24164	0.81
Mof_S 	S 	0.87164	0.89977	0.13817	-0.565
Mof_S 	S 	0.77451	0.81114	0.02167	-0.561
Mof_Cu	Cu	0.63589	0.10339	0.13495	0.806
Mof_N 	N 	0.0756	0.9145	0.054	-0.291
Mof_N 	N 	0.9852	0.8233	0.0856	-0.168
Mof_N 	N 	0.0116	0.8571	0.9695	-0.296
Mof_N 	N 	0.9927	0.9315	0.0578	-0.166
Mof_C 	C 	0.5693	0.8801	0.931	-0.279
Mof_N 	N 	0.7166	0.0082	0.0981	-0.241
Mof_C 	C 	0.6845	0.044	0.1114	-0.269
Mof_N 	N 	0.9185	0.8605	0.964	-0.165
Mof_N 	N 	0.0675	0.8239	0.0712	-0.297
Mof_N 	N 	0.7416	0.6792	0.2842	-0.222
Mof_N 	N 	0.495	0.8864	0.9033	-0.223
Mof_N 	N 	0.6979	0.7782	0.1921	-0.221
Mof_C 	C 	0.719	0.8048	0.1591	-0.267
Mof_C 	C 	0.1424	0.9487	0.073	0.359
Mof_C 	C 	0.7893	0.6493	0.3125	-0.264
Mof_C 	C 	0.1013	0.9907	0.0879	-0.457
Mof_H 	H 	0.1299	0.0209	0.1011	0.183
Mof_C 	C 	0.0093	0.9792	0.079	0.383
Mof_C 	C 	0.1239	0.7879	0.1015	0.346
Mof_C 	C 	0.0234	0.8484	0.9162	0.336
Mof_C 	C 	0.9404	0.014	0.09	-0.863
Mof_H 	H 	0.9146	0.0001	0.1189	0.231
Mof_H 	H 	0.9697	0.0451	0.1041	0.268
Mof_H 	H 	0.8923	0.0195	0.0539	0.247
Mof_C 	C 	0.8738	0.853	0.9067	0.328
Mof_C 	C 	0.9378	0.8446	0.8761	-0.434
Mof_H 	H 	0.9251	0.8377	0.8361	0.117
Mof_C 	C 	0.9938	0.7855	0.1248	0.37
Mof_C 	C 	0.2408	0.9411	0.075	-0.802
Mof_H 	H 	0.2452	0.9383	0.0355	0.209
Mof_H 	H 	0.2768	0.969	0.0942	0.232
Mof_H 	H 	0.2636	0.9113	0.0964	0.207
Mof_C 	C 	0.9229	0.7696	0.1544	-0.84
Mof_H 	H 	0.8716	0.7545	0.1258	0.241
Mof_H 	H 	0.9499	0.746	0.1849	0.246
Mof_H 	H 	0.902	0.7981	0.1712	0.236
Mof_C 	C 	0.5373	0.7316	0.2479	-0.244
Mof_B 	B 	0.0844	0.8624	0.0286	0.711
Mof_C 	C 	0.7718	0.8509	0.8796	-0.776
Mof_H 	H 	0.7465	0.8837	0.8783	0.21
Mof_H 	H 	0.7583	0.838	0.8402	0.213
Mof_H 	H 	0.745	0.8297	0.9027	0.204
Mof_C 	C 	0.0791	0.7644	0.1352	-0.481
Mof_H 	H 	0.1021	0.7383	0.161	0.158
Mof_C 	C 	0.1158	0.8404	0.9072	-0.785
Mof_H 	H 	0.1422	0.8102	0.9264	0.202
Mof_H 	H 	0.1092	0.8379	0.8658	0.22
Mof_H 	H 	0.1554	0.8678	0.9235	0.199
Mof_C 	C 	0.2179	0.779	0.0938	-0.765
Mof_H 	H 	0.2387	0.7463	0.1075	0.201
Mof_H 	H 	0.2145	0.782	0.0529	0.19
Mof_H 	H 	0.2605	0.8032	0.1162	0.19
_end
