# CIF file generated by openbabel 3.1.0, see https://openbabel.org
data_I
_chemical_name_common 'image0'
_cell_length_a 25.384
_cell_length_b 25.384
_cell_length_c 25.384
_cell_angle_alpha 90
_cell_angle_beta 90
_cell_angle_gamma 90
_space_group_name_H-M_alt 'P 1'
_space_group_name_Hall 'P 1'
loop_
    _symmetry_equiv_pos_as_xyz
    x,y,z
loop_
    _atom_site_label
    _atom_site_type_symbol
    _atom_site_fract_x
    _atom_site_fract_y
    _atom_site_fract_z
    _atom_site_occupancy
    O1       O        0.18310    0.18890    0.09800    1.000
    O2       O        0.18780    0.22980    0.82770    1.000
    O3       O        0.23680    0.30210    0.84400    1.000
    O4       O        0.26620    0.24510    0.10320    1.000
    C1       C        0.18360    0.19640    0.99000    1.000
    H1       H        0.16180    0.17100    0.00490    1.000
    C2       C        0.25100    0.27220    0.00320    1.000
    H2       H        0.27080    0.29400    0.02500    1.000
    C3       C        0.21180    0.26090    0.85600    1.000
    C4       C        0.22040    0.22870    0.02120    1.000
    C5       C        0.22190    0.22270    0.08060    1.000
    C6       C        0.21300    0.24640    0.91550    1.000
    C7       C        0.24730    0.27800    0.94540    1.000
    H3       H        0.26810    0.30310    0.92850    1.000
    C8       C        0.18460    0.20730    0.93660    1.000
    N1       N        0.15830    0.16790    0.90650    1.000
    H4       H        0.14390    0.18320    0.87990    1.000
    O5       O        0.16760    0.08800    0.94370    1.000
    C9       C        0.09750    0.11720    0.82340    1.000
    H5       H        0.10360    0.15330    0.82210    1.000
    C10      C        0.11810    0.09220    0.86470    1.000
    C11      C        0.12100    0.04060    0.88100    1.000
    H6       H        0.13820    0.02580    0.91020    1.000
    C12      C        0.06830    0.09680    0.78230    1.000
    H7       H        0.05190    0.11160    0.75310    1.000
    C13      C        0.09220    0.01800    0.84300    1.000
    H8       H        0.08520    0.98250    0.84460    1.000
    C14      C        0.07250    0.04700    0.80100    1.000
    C15      C        0.14710    0.11600    0.90330    1.000
    Zn1      Zn       0.25066    0.17647    0.27217    1.000
    O6       O        0.31690    0.81110    0.59800    1.000
    O7       O        0.31220    0.77020    0.32770    1.000
    O8       O        0.26320    0.69790    0.34400    1.000
    O9       O        0.23380    0.75490    0.60320    1.000
    C16      C        0.31640    0.80360    0.49000    1.000
    H9       H        0.33820    0.82900    0.50490    1.000
    C17      C        0.24900    0.72780    0.50320    1.000
    H10      H        0.22920    0.70600    0.52500    1.000
    C18      C        0.28820    0.73910    0.35600    1.000
    C19      C        0.27960    0.77130    0.52120    1.000
    C20      C        0.27810    0.77730    0.58060    1.000
    C21      C        0.28700    0.75360    0.41550    1.000
    C22      C        0.25270    0.72200    0.44540    1.000
    H11      H        0.23190    0.69690    0.42850    1.000
    C23      C        0.31540    0.79270    0.43660    1.000
    N2       N        0.34170    0.83210    0.40650    1.000
    H12      H        0.35610    0.81680    0.37990    1.000
    O10      O        0.33240    0.91200    0.44370    1.000
    C24      C        0.40250    0.88280    0.32340    1.000
    H13      H        0.39640    0.84670    0.32210    1.000
    C25      C        0.38190    0.90780    0.36470    1.000
    C26      C        0.37900    0.95940    0.38100    1.000
    H14      H        0.36180    0.97420    0.41020    1.000
    C27      C        0.43170    0.90320    0.28230    1.000
    H15      H        0.44810    0.88840    0.25310    1.000
    C28      C        0.40780    0.98200    0.34300    1.000
    H16      H        0.41480    0.01750    0.34460    1.000
    C29      C        0.42750    0.95300    0.30100    1.000
    C30      C        0.35290    0.88400    0.40330    1.000
    Zn2      Zn       0.24934    0.82353    0.77217    1.000
    O11      O        0.81690    0.68890    0.40200    1.000
    O12      O        0.81220    0.72980    0.67230    1.000
    O13      O        0.76320    0.80210    0.65600    1.000
    O14      O        0.73380    0.74510    0.39680    1.000
    C31      C        0.81640    0.69640    0.51000    1.000
    H17      H        0.83820    0.67100    0.49510    1.000
    C32      C        0.74900    0.77220    0.49680    1.000
    H18      H        0.72920    0.79400    0.47500    1.000
    C33      C        0.78820    0.76090    0.64400    1.000
    C34      C        0.77960    0.72870    0.47880    1.000
    C35      C        0.77810    0.72270    0.41940    1.000
    C36      C        0.78700    0.74640    0.58450    1.000
    C37      C        0.75270    0.77800    0.55460    1.000
    H19      H        0.73190    0.80310    0.57150    1.000
    C38      C        0.81540    0.70730    0.56340    1.000
    N3       N        0.84170    0.66790    0.59350    1.000
    H20      H        0.85610    0.68320    0.62010    1.000
    O15      O        0.83240    0.58800    0.55630    1.000
    C39      C        0.90250    0.61720    0.67660    1.000
    H21      H        0.89640    0.65330    0.67790    1.000
    C40      C        0.88190    0.59220    0.63530    1.000
    C41      C        0.87900    0.54060    0.61900    1.000
    H22      H        0.86180    0.52580    0.58980    1.000
    C42      C        0.93170    0.59680    0.71770    1.000
    H23      H        0.94810    0.61160    0.74690    1.000
    C43      C        0.90780    0.51800    0.65700    1.000
    H24      H        0.91480    0.48250    0.65540    1.000
    C44      C        0.92750    0.54700    0.69900    1.000
    C45      C        0.85290    0.61600    0.59670    1.000
    Zn3      Zn       0.74934    0.67647    0.22783    1.000
    O16      O        0.68310    0.31110    0.90200    1.000
    O17      O        0.68780    0.27020    0.17230    1.000
    O18      O        0.73680    0.19790    0.15600    1.000
    O19      O        0.76620    0.25490    0.89680    1.000
    C46      C        0.68360    0.30360    0.01000    1.000
    H25      H        0.66180    0.32900    0.99510    1.000
    C47      C        0.75100    0.22780    0.99680    1.000
    H26      H        0.77080    0.20600    0.97500    1.000
    C48      C        0.71180    0.23910    0.14400    1.000
    C49      C        0.72040    0.27130    0.97880    1.000
    C50      C        0.72190    0.27730    0.91940    1.000
    C51      C        0.71300    0.25360    0.08450    1.000
    C52      C        0.74730    0.22200    0.05460    1.000
    H27      H        0.76810    0.19690    0.07150    1.000
    C53      C        0.68460    0.29270    0.06340    1.000
    N4       N        0.65830    0.33210    0.09350    1.000
    H28      H        0.64390    0.31680    0.12010    1.000
    O20      O        0.66760    0.41200    0.05630    1.000
    C54      C        0.59750    0.38280    0.17660    1.000
    H29      H        0.60360    0.34670    0.17790    1.000
    C55      C        0.61810    0.40780    0.13530    1.000
    C56      C        0.62100    0.45940    0.11900    1.000
    H30      H        0.63820    0.47420    0.08980    1.000
    C57      C        0.56830    0.40320    0.21770    1.000
    H31      H        0.55190    0.38840    0.24690    1.000
    C58      C        0.59220    0.48200    0.15700    1.000
    H32      H        0.58520    0.51750    0.15540    1.000
    C59      C        0.57250    0.45300    0.19900    1.000
    C60      C        0.64710    0.38400    0.09670    1.000
    Zn4      Zn       0.75066    0.32353    0.72783    1.000
    O21      O        0.09800    0.18310    0.18890    1.000
    O22      O        0.82770    0.18780    0.22980    1.000
    O23      O        0.84400    0.23680    0.30210    1.000
    O24      O        0.10320    0.26620    0.24510    1.000
    C61      C        0.99000    0.18360    0.19640    1.000
    H33      H        0.00490    0.16180    0.17100    1.000
    C62      C        0.00320    0.25100    0.27220    1.000
    H34      H        0.02500    0.27080    0.29400    1.000
    C63      C        0.85600    0.21180    0.26090    1.000
    C64      C        0.02120    0.22040    0.22870    1.000
    C65      C        0.08060    0.22190    0.22270    1.000
    C66      C        0.91550    0.21300    0.24640    1.000
    C67      C        0.94540    0.24730    0.27800    1.000
    H35      H        0.92850    0.26810    0.30310    1.000
    C68      C        0.93660    0.18460    0.20730    1.000
    N5       N        0.90650    0.15830    0.16790    1.000
    H36      H        0.87990    0.14390    0.18320    1.000
    O25      O        0.94370    0.16760    0.08800    1.000
    C69      C        0.82340    0.09750    0.11720    1.000
    H37      H        0.82210    0.10360    0.15330    1.000
    C70      C        0.86470    0.11810    0.09220    1.000
    C71      C        0.88100    0.12100    0.04060    1.000
    H38      H        0.91020    0.13820    0.02580    1.000
    C72      C        0.78230    0.06830    0.09680    1.000
    H39      H        0.75310    0.05190    0.11160    1.000
    C73      C        0.84300    0.09220    0.01800    1.000
    H40      H        0.84460    0.08520    0.98250    1.000
    C74      C        0.80100    0.07250    0.04700    1.000
    C75      C        0.90330    0.14710    0.11600    1.000
    Zn5      Zn       0.27217    0.25066    0.17647    1.000
    O26      O        0.59800    0.31690    0.81110    1.000
    O27      O        0.32770    0.31220    0.77020    1.000
    O28      O        0.34400    0.26320    0.69790    1.000
    O29      O        0.60320    0.23380    0.75490    1.000
    C76      C        0.49000    0.31640    0.80360    1.000
    H41      H        0.50490    0.33820    0.82900    1.000
    C77      C        0.50320    0.24900    0.72780    1.000
    H42      H        0.52500    0.22920    0.70600    1.000
    C78      C        0.35600    0.28820    0.73910    1.000
    C79      C        0.52120    0.27960    0.77130    1.000
    C80      C        0.58060    0.27810    0.77730    1.000
    C81      C        0.41550    0.28700    0.75360    1.000
    C82      C        0.44540    0.25270    0.72200    1.000
    H43      H        0.42850    0.23190    0.69690    1.000
    C83      C        0.43660    0.31540    0.79270    1.000
    N6       N        0.40650    0.34170    0.83210    1.000
    H44      H        0.37990    0.35610    0.81680    1.000
    O30      O        0.44370    0.33240    0.91200    1.000
    C84      C        0.32340    0.40250    0.88280    1.000
    H45      H        0.32210    0.39640    0.84670    1.000
    C85      C        0.36470    0.38190    0.90780    1.000
    C86      C        0.38100    0.37900    0.95940    1.000
    H46      H        0.41020    0.36180    0.97420    1.000
    C87      C        0.28230    0.43170    0.90320    1.000
    H47      H        0.25310    0.44810    0.88840    1.000
    C88      C        0.34300    0.40780    0.98200    1.000
    H48      H        0.34460    0.41480    0.01750    1.000
    C89      C        0.30100    0.42750    0.95300    1.000
    C90      C        0.40330    0.35290    0.88400    1.000
    Zn6      Zn       0.77217    0.24934    0.82353    1.000
    O31      O        0.40200    0.81690    0.68890    1.000
    O32      O        0.67230    0.81220    0.72980    1.000
    O33      O        0.65600    0.76320    0.80210    1.000
    O34      O        0.39680    0.73380    0.74510    1.000
    C91      C        0.51000    0.81640    0.69640    1.000
    H49      H        0.49510    0.83820    0.67100    1.000
    C92      C        0.49680    0.74900    0.77220    1.000
    H50      H        0.47500    0.72920    0.79400    1.000
    C93      C        0.64400    0.78820    0.76090    1.000
    C94      C        0.47880    0.77960    0.72870    1.000
    C95      C        0.41940    0.77810    0.72270    1.000
    C96      C        0.58450    0.78700    0.74640    1.000
    C97      C        0.55460    0.75270    0.77800    1.000
    H51      H        0.57150    0.73190    0.80310    1.000
    C98      C        0.56340    0.81540    0.70730    1.000
    N7       N        0.59350    0.84170    0.66790    1.000
    H52      H        0.62010    0.85610    0.68320    1.000
    O35      O        0.55630    0.83240    0.58800    1.000
    C99      C        0.67660    0.90250    0.61720    1.000
    H53      H        0.67790    0.89640    0.65330    1.000
    C100     C        0.63530    0.88190    0.59220    1.000
    C101     C        0.61900    0.87900    0.54060    1.000
    H54      H        0.58980    0.86180    0.52580    1.000
    C102     C        0.71770    0.93170    0.59680    1.000
    H55      H        0.74690    0.94810    0.61160    1.000
    C103     C        0.65700    0.90780    0.51800    1.000
    H56      H        0.65540    0.91480    0.48250    1.000
    C104     C        0.69900    0.92750    0.54700    1.000
    C105     C        0.59670    0.85290    0.61600    1.000
    Zn7      Zn       0.22783    0.74934    0.67647    1.000
    O36      O        0.90200    0.68310    0.31110    1.000
    O37      O        0.17230    0.68780    0.27020    1.000
    O38      O        0.15600    0.73680    0.19790    1.000
    O39      O        0.89680    0.76620    0.25490    1.000
    C106     C        0.01000    0.68360    0.30360    1.000
    H57      H        0.99510    0.66180    0.32900    1.000
    C107     C        0.99680    0.75100    0.22780    1.000
    H58      H        0.97500    0.77080    0.20600    1.000
    C108     C        0.14400    0.71180    0.23910    1.000
    C109     C        0.97880    0.72040    0.27130    1.000
    C110     C        0.91940    0.72190    0.27730    1.000
    C111     C        0.08450    0.71300    0.25360    1.000
    C112     C        0.05460    0.74730    0.22200    1.000
    H59      H        0.07150    0.76810    0.19690    1.000
    C113     C        0.06340    0.68460    0.29270    1.000
    N8       N        0.09350    0.65830    0.33210    1.000
    H60      H        0.12010    0.64390    0.31680    1.000
    O40      O        0.05630    0.66760    0.41200    1.000
    C114     C        0.17660    0.59750    0.38280    1.000
    H61      H        0.17790    0.60360    0.34670    1.000
    C115     C        0.13530    0.61810    0.40780    1.000
    C116     C        0.11900    0.62100    0.45940    1.000
    H62      H        0.08980    0.63820    0.47420    1.000
    C117     C        0.21770    0.56830    0.40320    1.000
    H63      H        0.24690    0.55190    0.38840    1.000
    C118     C        0.15700    0.59220    0.48200    1.000
    H64      H        0.15540    0.58520    0.51750    1.000
    C119     C        0.19900    0.57250    0.45300    1.000
    C120     C        0.09670    0.64710    0.38400    1.000
    Zn8      Zn       0.72783    0.75066    0.32353    1.000
    O41      O        0.18890    0.09800    0.18310    1.000
    O42      O        0.22980    0.82770    0.18780    1.000
    O43      O        0.30210    0.84400    0.23680    1.000
    O44      O        0.24510    0.10320    0.26620    1.000
    C121     C        0.19640    0.99000    0.18360    1.000
    H65      H        0.17100    0.00490    0.16180    1.000
    C122     C        0.27220    0.00320    0.25100    1.000
    H66      H        0.29400    0.02500    0.27080    1.000
    C123     C        0.26090    0.85600    0.21180    1.000
    C124     C        0.22870    0.02120    0.22040    1.000
    C125     C        0.22270    0.08060    0.22190    1.000
    C126     C        0.24640    0.91550    0.21300    1.000
    C127     C        0.27800    0.94540    0.24730    1.000
    H67      H        0.30310    0.92850    0.26810    1.000
    C128     C        0.20730    0.93660    0.18460    1.000
    N9       N        0.16790    0.90650    0.15830    1.000
    H68      H        0.18320    0.87990    0.14390    1.000
    O45      O        0.08800    0.94370    0.16760    1.000
    C129     C        0.11720    0.82340    0.09750    1.000
    H69      H        0.15330    0.82210    0.10360    1.000
    C130     C        0.09220    0.86470    0.11810    1.000
    C131     C        0.04060    0.88100    0.12100    1.000
    H70      H        0.02580    0.91020    0.13820    1.000
    C132     C        0.09680    0.78230    0.06830    1.000
    H71      H        0.11160    0.75310    0.05190    1.000
    C133     C        0.01800    0.84300    0.09220    1.000
    H72      H        0.98250    0.84460    0.08520    1.000
    C134     C        0.04700    0.80100    0.07250    1.000
    C135     C        0.11600    0.90330    0.14710    1.000
    Zn9      Zn       0.17647    0.27217    0.25066    1.000
    O46      O        0.81110    0.59800    0.31690    1.000
    O47      O        0.77020    0.32770    0.31220    1.000
    O48      O        0.69790    0.34400    0.26320    1.000
    O49      O        0.75490    0.60320    0.23380    1.000
    C136     C        0.80360    0.49000    0.31640    1.000
    H73      H        0.82900    0.50490    0.33820    1.000
    C137     C        0.72780    0.50320    0.24900    1.000
    H74      H        0.70600    0.52500    0.22920    1.000
    C138     C        0.73910    0.35600    0.28820    1.000
    C139     C        0.77130    0.52120    0.27960    1.000
    C140     C        0.77730    0.58060    0.27810    1.000
    C141     C        0.75360    0.41550    0.28700    1.000
    C142     C        0.72200    0.44540    0.25270    1.000
    H75      H        0.69690    0.42850    0.23190    1.000
    C143     C        0.79270    0.43660    0.31540    1.000
    N10      N        0.83210    0.40650    0.34170    1.000
    H76      H        0.81680    0.37990    0.35610    1.000
    O50      O        0.91200    0.44370    0.33240    1.000
    C144     C        0.88280    0.32340    0.40250    1.000
    H77      H        0.84670    0.32210    0.39640    1.000
    C145     C        0.90780    0.36470    0.38190    1.000
    C146     C        0.95940    0.38100    0.37900    1.000
    H78      H        0.97420    0.41020    0.36180    1.000
    C147     C        0.90320    0.28230    0.43170    1.000
    H79      H        0.88840    0.25310    0.44810    1.000
    C148     C        0.98200    0.34300    0.40780    1.000
    H80      H        0.01750    0.34460    0.41480    1.000
    C149     C        0.95300    0.30100    0.42750    1.000
    C150     C        0.88400    0.40330    0.35290    1.000
    Zn10     Zn       0.82353    0.77217    0.24934    1.000
    O51      O        0.68890    0.40200    0.81690    1.000
    O52      O        0.72980    0.67230    0.81220    1.000
    O53      O        0.80210    0.65600    0.76320    1.000
    O54      O        0.74510    0.39680    0.73380    1.000
    C151     C        0.69640    0.51000    0.81640    1.000
    H81      H        0.67100    0.49510    0.83820    1.000
    C152     C        0.77220    0.49680    0.74900    1.000
    H82      H        0.79400    0.47500    0.72920    1.000
    C153     C        0.76090    0.64400    0.78820    1.000
    C154     C        0.72870    0.47880    0.77960    1.000
    C155     C        0.72270    0.41940    0.77810    1.000
    C156     C        0.74640    0.58450    0.78700    1.000
    C157     C        0.77800    0.55460    0.75270    1.000
    H83      H        0.80310    0.57150    0.73190    1.000
    C158     C        0.70730    0.56340    0.81540    1.000
    N11      N        0.66790    0.59350    0.84170    1.000
    H84      H        0.68320    0.62010    0.85610    1.000
    O55      O        0.58800    0.55630    0.83240    1.000
    C159     C        0.61720    0.67660    0.90250    1.000
    H85      H        0.65330    0.67790    0.89640    1.000
    C160     C        0.59220    0.63530    0.88190    1.000
    C161     C        0.54060    0.61900    0.87900    1.000
    H86      H        0.52580    0.58980    0.86180    1.000
    C162     C        0.59680    0.71770    0.93170    1.000
    H87      H        0.61160    0.74690    0.94810    1.000
    C163     C        0.51800    0.65700    0.90780    1.000
    H88      H        0.48250    0.65540    0.91480    1.000
    C164     C        0.54700    0.69900    0.92750    1.000
    C165     C        0.61600    0.59670    0.85290    1.000
    Zn11     Zn       0.67647    0.22783    0.74934    1.000
    O56      O        0.31110    0.90200    0.68310    1.000
    O57      O        0.27020    0.17230    0.68780    1.000
    O58      O        0.19790    0.15600    0.73680    1.000
    O59      O        0.25490    0.89680    0.76620    1.000
    C166     C        0.30360    0.01000    0.68360    1.000
    H89      H        0.32900    0.99510    0.66180    1.000
    C167     C        0.22780    0.99680    0.75100    1.000
    H90      H        0.20600    0.97500    0.77080    1.000
    C168     C        0.23910    0.14400    0.71180    1.000
    C169     C        0.27130    0.97880    0.72040    1.000
    C170     C        0.27730    0.91940    0.72190    1.000
    C171     C        0.25360    0.08450    0.71300    1.000
    C172     C        0.22200    0.05460    0.74730    1.000
    H91      H        0.19690    0.07150    0.76810    1.000
    C173     C        0.29270    0.06340    0.68460    1.000
    N12      N        0.33210    0.09350    0.65830    1.000
    H92      H        0.31680    0.12010    0.64390    1.000
    O60      O        0.41200    0.05630    0.66760    1.000
    C174     C        0.38280    0.17660    0.59750    1.000
    H93      H        0.34670    0.17790    0.60360    1.000
    C175     C        0.40780    0.13530    0.61810    1.000
    C176     C        0.45940    0.11900    0.62100    1.000
    H94      H        0.47420    0.08980    0.63820    1.000
    C177     C        0.40320    0.21770    0.56830    1.000
    H95      H        0.38840    0.24690    0.55190    1.000
    C178     C        0.48200    0.15700    0.59220    1.000
    H96      H        0.51750    0.15540    0.58520    1.000
    C179     C        0.45300    0.19900    0.57250    1.000
    C180     C        0.38400    0.09670    0.64710    1.000
    Zn12     Zn       0.32353    0.72783    0.75066    1.000
    O61      O        0.81690    0.81110    0.90200    1.000
    O62      O        0.81220    0.77020    0.17230    1.000
    O63      O        0.76320    0.69790    0.15600    1.000
    O64      O        0.73380    0.75490    0.89680    1.000
    C181     C        0.81640    0.80360    0.01000    1.000
    H97      H        0.83820    0.82900    0.99510    1.000
    C182     C        0.74900    0.72780    0.99680    1.000
    H98      H        0.72920    0.70600    0.97500    1.000
    C183     C        0.78820    0.73910    0.14400    1.000
    C184     C        0.77960    0.77130    0.97880    1.000
    C185     C        0.77810    0.77730    0.91940    1.000
    C186     C        0.78700    0.75360    0.08450    1.000
    C187     C        0.75270    0.72200    0.05460    1.000
    H99      H        0.73190    0.69690    0.07150    1.000
    C188     C        0.81540    0.79270    0.06340    1.000
    N13      N        0.84170    0.83210    0.09350    1.000
    H100     H        0.85610    0.81680    0.12010    1.000
    O65      O        0.83240    0.91200    0.05630    1.000
    C189     C        0.90250    0.88280    0.17660    1.000
    H101     H        0.89640    0.84670    0.17790    1.000
    C190     C        0.88190    0.90780    0.13530    1.000
    C191     C        0.87900    0.95940    0.11900    1.000
    H102     H        0.86180    0.97420    0.08980    1.000
    C192     C        0.93170    0.90320    0.21770    1.000
    H103     H        0.94810    0.88840    0.24690    1.000
    C193     C        0.90780    0.98200    0.15700    1.000
    H104     H        0.91480    0.01750    0.15540    1.000
    C194     C        0.92750    0.95300    0.19900    1.000
    C195     C        0.85290    0.88400    0.09670    1.000
    Zn13     Zn       0.74934    0.82353    0.72783    1.000
    O66      O        0.68310    0.18890    0.40200    1.000
    O67      O        0.68780    0.22980    0.67230    1.000
    O68      O        0.73680    0.30210    0.65600    1.000
    O69      O        0.76620    0.24510    0.39680    1.000
    C196     C        0.68360    0.19640    0.51000    1.000
    H105     H        0.66180    0.17100    0.49510    1.000
    C197     C        0.75100    0.27220    0.49680    1.000
    H106     H        0.77080    0.29400    0.47500    1.000
    C198     C        0.71180    0.26090    0.64400    1.000
    C199     C        0.72040    0.22870    0.47880    1.000
    C200     C        0.72190    0.22270    0.41940    1.000
    C201     C        0.71300    0.24640    0.58450    1.000
    C202     C        0.74730    0.27800    0.55460    1.000
    H107     H        0.76810    0.30310    0.57150    1.000
    C203     C        0.68460    0.20730    0.56340    1.000
    N14      N        0.65830    0.16790    0.59350    1.000
    H108     H        0.64390    0.18320    0.62010    1.000
    O70      O        0.66760    0.08800    0.55630    1.000
    C204     C        0.59750    0.11720    0.67660    1.000
    H109     H        0.60360    0.15330    0.67790    1.000
    C205     C        0.61810    0.09220    0.63530    1.000
    C206     C        0.62100    0.04060    0.61900    1.000
    H110     H        0.63820    0.02580    0.58980    1.000
    C207     C        0.56830    0.09680    0.71770    1.000
    H111     H        0.55190    0.11160    0.74690    1.000
    C208     C        0.59220    0.01800    0.65700    1.000
    H112     H        0.58520    0.98250    0.65540    1.000
    C209     C        0.57250    0.04700    0.69900    1.000
    C210     C        0.64710    0.11600    0.59670    1.000
    Zn14     Zn       0.75066    0.17647    0.22783    1.000
    O71      O        0.18310    0.31110    0.59800    1.000
    O72      O        0.18780    0.27020    0.32770    1.000
    O73      O        0.23680    0.19790    0.34400    1.000
    O74      O        0.26620    0.25490    0.60320    1.000
    C211     C        0.18360    0.30360    0.49000    1.000
    H113     H        0.16180    0.32900    0.50490    1.000
    C212     C        0.25100    0.22780    0.50320    1.000
    H114     H        0.27080    0.20600    0.52500    1.000
    C213     C        0.21180    0.23910    0.35600    1.000
    C214     C        0.22040    0.27130    0.52120    1.000
    C215     C        0.22190    0.27730    0.58060    1.000
    C216     C        0.21300    0.25360    0.41550    1.000
    C217     C        0.24730    0.22200    0.44540    1.000
    H115     H        0.26810    0.19690    0.42850    1.000
    C218     C        0.18460    0.29270    0.43660    1.000
    N15      N        0.15830    0.33210    0.40650    1.000
    H116     H        0.14390    0.31680    0.37990    1.000
    O75      O        0.16760    0.41200    0.44370    1.000
    C219     C        0.09750    0.38280    0.32340    1.000
    H117     H        0.10360    0.34670    0.32210    1.000
    C220     C        0.11810    0.40780    0.36470    1.000
    C221     C        0.12100    0.45940    0.38100    1.000
    H118     H        0.13820    0.47420    0.41020    1.000
    C222     C        0.06830    0.40320    0.28230    1.000
    H119     H        0.05190    0.38840    0.25310    1.000
    C223     C        0.09220    0.48200    0.34300    1.000
    H120     H        0.08520    0.51750    0.34460    1.000
    C224     C        0.07250    0.45300    0.30100    1.000
    C225     C        0.14710    0.38400    0.40330    1.000
    Zn15     Zn       0.25066    0.32353    0.77217    1.000
    O76      O        0.31690    0.68890    0.09800    1.000
    O77      O        0.31220    0.72980    0.82770    1.000
    O78      O        0.26320    0.80210    0.84400    1.000
    O79      O        0.23380    0.74510    0.10320    1.000
    C226     C        0.31640    0.69640    0.99000    1.000
    H121     H        0.33820    0.67100    0.00490    1.000
    C227     C        0.24900    0.77220    0.00320    1.000
    H122     H        0.22920    0.79400    0.02500    1.000
    C228     C        0.28820    0.76090    0.85600    1.000
    C229     C        0.27960    0.72870    0.02120    1.000
    C230     C        0.27810    0.72270    0.08060    1.000
    C231     C        0.28700    0.74640    0.91550    1.000
    C232     C        0.25270    0.77800    0.94540    1.000
    H123     H        0.23190    0.80310    0.92850    1.000
    C233     C        0.31540    0.70730    0.93660    1.000
    N16      N        0.34170    0.66790    0.90650    1.000
    H124     H        0.35610    0.68320    0.87990    1.000
    O80      O        0.33240    0.58800    0.94370    1.000
    C234     C        0.40250    0.61720    0.82340    1.000
    H125     H        0.39640    0.65330    0.82210    1.000
    C235     C        0.38190    0.59220    0.86470    1.000
    C236     C        0.37900    0.54060    0.88100    1.000
    H126     H        0.36180    0.52580    0.91020    1.000
    C237     C        0.43170    0.59680    0.78230    1.000
    H127     H        0.44810    0.61160    0.75310    1.000
    C238     C        0.40780    0.51800    0.84300    1.000
    H128     H        0.41480    0.48250    0.84460    1.000
    C239     C        0.42750    0.54700    0.80100    1.000
    C240     C        0.35290    0.61600    0.90330    1.000
    Zn16     Zn       0.24934    0.67647    0.27217    1.000
    O81      O        0.90200    0.81690    0.81110    1.000
    O82      O        0.17230    0.81220    0.77020    1.000
    O83      O        0.15600    0.76320    0.69790    1.000
    O84      O        0.89680    0.73380    0.75490    1.000
    C241     C        0.01000    0.81640    0.80360    1.000
    H129     H        0.99510    0.83820    0.82900    1.000
    C242     C        0.99680    0.74900    0.72780    1.000
    H130     H        0.97500    0.72920    0.70600    1.000
    C243     C        0.14400    0.78820    0.73910    1.000
    C244     C        0.97880    0.77960    0.77130    1.000
    C245     C        0.91940    0.77810    0.77730    1.000
    C246     C        0.08450    0.78700    0.75360    1.000
    C247     C        0.05460    0.75270    0.72200    1.000
    H131     H        0.07150    0.73190    0.69690    1.000
    C248     C        0.06340    0.81540    0.79270    1.000
    N17      N        0.09350    0.84170    0.83210    1.000
    H132     H        0.12010    0.85610    0.81680    1.000
    O85      O        0.05630    0.83240    0.91200    1.000
    C249     C        0.17660    0.90250    0.88280    1.000
    H133     H        0.17790    0.89640    0.84670    1.000
    C250     C        0.13530    0.88190    0.90780    1.000
    C251     C        0.11900    0.87900    0.95940    1.000
    H134     H        0.08980    0.86180    0.97420    1.000
    C252     C        0.21770    0.93170    0.90320    1.000
    H135     H        0.24690    0.94810    0.88840    1.000
    C253     C        0.15700    0.90780    0.98200    1.000
    H136     H        0.15540    0.91480    0.01750    1.000
    C254     C        0.19900    0.92750    0.95300    1.000
    C255     C        0.09670    0.85290    0.88400    1.000
    Zn17     Zn       0.72783    0.74934    0.82353    1.000
    O86      O        0.40200    0.68310    0.18890    1.000
    O87      O        0.67230    0.68780    0.22980    1.000
    O88      O        0.65600    0.73680    0.30210    1.000
    O89      O        0.39680    0.76620    0.24510    1.000
    C256     C        0.51000    0.68360    0.19640    1.000
    H137     H        0.49510    0.66180    0.17100    1.000
    C257     C        0.49680    0.75100    0.27220    1.000
    H138     H        0.47500    0.77080    0.29400    1.000
    C258     C        0.64400    0.71180    0.26090    1.000
    C259     C        0.47880    0.72040    0.22870    1.000
    C260     C        0.41940    0.72190    0.22270    1.000
    C261     C        0.58450    0.71300    0.24640    1.000
    C262     C        0.55460    0.74730    0.27800    1.000
    H139     H        0.57150    0.76810    0.30310    1.000
    C263     C        0.56340    0.68460    0.20730    1.000
    N18      N        0.59350    0.65830    0.16790    1.000
    H140     H        0.62010    0.64390    0.18320    1.000
    O90      O        0.55630    0.66760    0.08800    1.000
    C264     C        0.67660    0.59750    0.11720    1.000
    H141     H        0.67790    0.60360    0.15330    1.000
    C265     C        0.63530    0.61810    0.09220    1.000
    C266     C        0.61900    0.62100    0.04060    1.000
    H142     H        0.58980    0.63820    0.02580    1.000
    C267     C        0.71770    0.56830    0.09680    1.000
    H143     H        0.74690    0.55190    0.11160    1.000
    C268     C        0.65700    0.59220    0.01800    1.000
    H144     H        0.65540    0.58520    0.98250    1.000
    C269     C        0.69900    0.57250    0.04700    1.000
    C270     C        0.59670    0.64710    0.11600    1.000
    Zn18     Zn       0.22783    0.75066    0.17647    1.000
    O91      O        0.59800    0.18310    0.31110    1.000
    O92      O        0.32770    0.18780    0.27020    1.000
    O93      O        0.34400    0.23680    0.19790    1.000
    O94      O        0.60320    0.26620    0.25490    1.000
    C271     C        0.49000    0.18360    0.30360    1.000
    H145     H        0.50490    0.16180    0.32900    1.000
    C272     C        0.50320    0.25100    0.22780    1.000
    H146     H        0.52500    0.27080    0.20600    1.000
    C273     C        0.35600    0.21180    0.23910    1.000
    C274     C        0.52120    0.22040    0.27130    1.000
    C275     C        0.58060    0.22190    0.27730    1.000
    C276     C        0.41550    0.21300    0.25360    1.000
    C277     C        0.44540    0.24730    0.22200    1.000
    H147     H        0.42850    0.26810    0.19690    1.000
    C278     C        0.43660    0.18460    0.29270    1.000
    N19      N        0.40650    0.15830    0.33210    1.000
    H148     H        0.37990    0.14390    0.31680    1.000
    O95      O        0.44370    0.16760    0.41200    1.000
    C279     C        0.32340    0.09750    0.38280    1.000
    H149     H        0.32210    0.10360    0.34670    1.000
    C280     C        0.36470    0.11810    0.40780    1.000
    C281     C        0.38100    0.12100    0.45940    1.000
    H150     H        0.41020    0.13820    0.47420    1.000
    C282     C        0.28230    0.06830    0.40320    1.000
    H151     H        0.25310    0.05190    0.38840    1.000
    C283     C        0.34300    0.09220    0.48200    1.000
    H152     H        0.34460    0.08520    0.51750    1.000
    C284     C        0.30100    0.07250    0.45300    1.000
    C285     C        0.40330    0.14710    0.38400    1.000
    Zn19     Zn       0.77217    0.25066    0.32353    1.000
    O96      O        0.09800    0.31690    0.68890    1.000
    O97      O        0.82770    0.31220    0.72980    1.000
    O98      O        0.84400    0.26320    0.80210    1.000
    O99      O        0.10320    0.23380    0.74510    1.000
    C286     C        0.99000    0.31640    0.69640    1.000
    H153     H        0.00490    0.33820    0.67100    1.000
    C287     C        0.00320    0.24900    0.77220    1.000
    H154     H        0.02500    0.22920    0.79400    1.000
    C288     C        0.85600    0.28820    0.76090    1.000
    C289     C        0.02120    0.27960    0.72870    1.000
    C290     C        0.08060    0.27810    0.72270    1.000
    C291     C        0.91550    0.28700    0.74640    1.000
    C292     C        0.94540    0.25270    0.77800    1.000
    H155     H        0.92850    0.23190    0.80310    1.000
    C293     C        0.93660    0.31540    0.70730    1.000
    N20      N        0.90650    0.34170    0.66790    1.000
    H156     H        0.87990    0.35610    0.68320    1.000
    O100     O        0.94370    0.33240    0.58800    1.000
    C294     C        0.82340    0.40250    0.61720    1.000
    H157     H        0.82210    0.39640    0.65330    1.000
    C295     C        0.86470    0.38190    0.59220    1.000
    C296     C        0.88100    0.37900    0.54060    1.000
    H158     H        0.91020    0.36180    0.52580    1.000
    C297     C        0.78230    0.43170    0.59680    1.000
    H159     H        0.75310    0.44810    0.61160    1.000
    C298     C        0.84300    0.40780    0.51800    1.000
    H160     H        0.84460    0.41480    0.48250    1.000
    C299     C        0.80100    0.42750    0.54700    1.000
    C300     C        0.90330    0.35290    0.61600    1.000
    Zn20     Zn       0.27217    0.24934    0.67647    1.000
    O101     O        0.81110    0.90200    0.81690    1.000
    O102     O        0.77020    0.17230    0.81220    1.000
    O103     O        0.69790    0.15600    0.76320    1.000
    O104     O        0.75490    0.89680    0.73380    1.000
    C301     C        0.80360    0.01000    0.81640    1.000
    H161     H        0.82900    0.99510    0.83820    1.000
    C302     C        0.72780    0.99680    0.74900    1.000
    H162     H        0.70600    0.97500    0.72920    1.000
    C303     C        0.73910    0.14400    0.78820    1.000
    C304     C        0.77130    0.97880    0.77960    1.000
    C305     C        0.77730    0.91940    0.77810    1.000
    C306     C        0.75360    0.08450    0.78700    1.000
    C307     C        0.72200    0.05460    0.75270    1.000
    H163     H        0.69690    0.07150    0.73190    1.000
    C308     C        0.79270    0.06340    0.81540    1.000
    N21      N        0.83210    0.09350    0.84170    1.000
    H164     H        0.81680    0.12010    0.85610    1.000
    O105     O        0.91200    0.05630    0.83240    1.000
    C309     C        0.88280    0.17660    0.90250    1.000
    H165     H        0.84670    0.17790    0.89640    1.000
    C310     C        0.90780    0.13530    0.88190    1.000
    C311     C        0.95940    0.11900    0.87900    1.000
    H166     H        0.97420    0.08980    0.86180    1.000
    C312     C        0.90320    0.21770    0.93170    1.000
    H167     H        0.88840    0.24690    0.94810    1.000
    C313     C        0.98200    0.15700    0.90780    1.000
    H168     H        0.01750    0.15540    0.91480    1.000
    C314     C        0.95300    0.19900    0.92750    1.000
    C315     C        0.88400    0.09670    0.85290    1.000
    Zn21     Zn       0.82353    0.72783    0.74934    1.000
    O106     O        0.18890    0.40200    0.68310    1.000
    O107     O        0.22980    0.67230    0.68780    1.000
    O108     O        0.30210    0.65600    0.73680    1.000
    O109     O        0.24510    0.39680    0.76620    1.000
    C316     C        0.19640    0.51000    0.68360    1.000
    H169     H        0.17100    0.49510    0.66180    1.000
    C317     C        0.27220    0.49680    0.75100    1.000
    H170     H        0.29400    0.47500    0.77080    1.000
    C318     C        0.26090    0.64400    0.71180    1.000
    C319     C        0.22870    0.47880    0.72040    1.000
    C320     C        0.22270    0.41940    0.72190    1.000
    C321     C        0.24640    0.58450    0.71300    1.000
    C322     C        0.27800    0.55460    0.74730    1.000
    H171     H        0.30310    0.57150    0.76810    1.000
    C323     C        0.20730    0.56340    0.68460    1.000
    N22      N        0.16790    0.59350    0.65830    1.000
    H172     H        0.18320    0.62010    0.64390    1.000
    O110     O        0.08800    0.55630    0.66760    1.000
    C324     C        0.11720    0.67660    0.59750    1.000
    H173     H        0.15330    0.67790    0.60360    1.000
    C325     C        0.09220    0.63530    0.61810    1.000
    C326     C        0.04060    0.61900    0.62100    1.000
    H174     H        0.02580    0.58980    0.63820    1.000
    C327     C        0.09680    0.71770    0.56830    1.000
    H175     H        0.11160    0.74690    0.55190    1.000
    C328     C        0.01800    0.65700    0.59220    1.000
    H176     H        0.98250    0.65540    0.58520    1.000
    C329     C        0.04700    0.69900    0.57250    1.000
    C330     C        0.11600    0.59670    0.64710    1.000
    Zn22     Zn       0.17647    0.22783    0.75066    1.000
    O111     O        0.31110    0.59800    0.18310    1.000
    O112     O        0.27020    0.32770    0.18780    1.000
    O113     O        0.19790    0.34400    0.23680    1.000
    O114     O        0.25490    0.60320    0.26620    1.000
    C331     C        0.30360    0.49000    0.18360    1.000
    H177     H        0.32900    0.50490    0.16180    1.000
    C332     C        0.22780    0.50320    0.25100    1.000
    H178     H        0.20600    0.52500    0.27080    1.000
    C333     C        0.23910    0.35600    0.21180    1.000
    C334     C        0.27130    0.52120    0.22040    1.000
    C335     C        0.27730    0.58060    0.22190    1.000
    C336     C        0.25360    0.41550    0.21300    1.000
    C337     C        0.22200    0.44540    0.24730    1.000
    H179     H        0.19690    0.42850    0.26810    1.000
    C338     C        0.29270    0.43660    0.18460    1.000
    N23      N        0.33210    0.40650    0.15830    1.000
    H180     H        0.31680    0.37990    0.14390    1.000
    O115     O        0.41200    0.44370    0.16760    1.000
    C339     C        0.38280    0.32340    0.09750    1.000
    H181     H        0.34670    0.32210    0.10360    1.000
    C340     C        0.40780    0.36470    0.11810    1.000
    C341     C        0.45940    0.38100    0.12100    1.000
    H182     H        0.47420    0.41020    0.13820    1.000
    C342     C        0.40320    0.28230    0.06830    1.000
    H183     H        0.38840    0.25310    0.05190    1.000
    C343     C        0.48200    0.34300    0.09220    1.000
    H184     H        0.51750    0.34460    0.08520    1.000
    C344     C        0.45300    0.30100    0.07250    1.000
    C345     C        0.38400    0.40330    0.14710    1.000
    Zn23     Zn       0.32353    0.77217    0.25066    1.000
    O116     O        0.68890    0.09800    0.31690    1.000
    O117     O        0.72980    0.82770    0.31220    1.000
    O118     O        0.80210    0.84400    0.26320    1.000
    O119     O        0.74510    0.10320    0.23380    1.000
    C346     C        0.69640    0.99000    0.31640    1.000
    H185     H        0.67100    0.00490    0.33820    1.000
    C347     C        0.77220    0.00320    0.24900    1.000
    H186     H        0.79400    0.02500    0.22920    1.000
    C348     C        0.76090    0.85600    0.28820    1.000
    C349     C        0.72870    0.02120    0.27960    1.000
    C350     C        0.72270    0.08060    0.27810    1.000
    C351     C        0.74640    0.91550    0.28700    1.000
    C352     C        0.77800    0.94540    0.25270    1.000
    H187     H        0.80310    0.92850    0.23190    1.000
    C353     C        0.70730    0.93660    0.31540    1.000
    N24      N        0.66790    0.90650    0.34170    1.000
    H188     H        0.68320    0.87990    0.35610    1.000
    O120     O        0.58800    0.94370    0.33240    1.000
    C354     C        0.61720    0.82340    0.40250    1.000
    H189     H        0.65330    0.82210    0.39640    1.000
    C355     C        0.59220    0.86470    0.38190    1.000
    C356     C        0.54060    0.88100    0.37900    1.000
    H190     H        0.52580    0.91020    0.36180    1.000
    C357     C        0.59680    0.78230    0.43170    1.000
    H191     H        0.61160    0.75310    0.44810    1.000
    C358     C        0.51800    0.84300    0.40780    1.000
    H192     H        0.48250    0.84460    0.41480    1.000
    C359     C        0.54700    0.80100    0.42750    1.000
    C360     C        0.61600    0.90330    0.35290    1.000
    Zn24     Zn       0.67647    0.27217    0.24934    1.000
    O121     O        0.21800    0.21800    0.21800    1.000
    Zn25     Zn       0.17336    0.17336    0.17336    1.000
    O122     O        0.28200    0.78200    0.71800    1.000
    Zn26     Zn       0.32664    0.82664    0.67336    1.000
    O123     O        0.78200    0.71800    0.28200    1.000
    Zn27     Zn       0.82664    0.67336    0.32664    1.000
    O124     O        0.71800    0.28200    0.78200    1.000
    Zn28     Zn       0.67336    0.32664    0.82664    1.000
    O125     O        0.78200    0.78200    0.78200    1.000
    Zn29     Zn       0.82664    0.82664    0.82664    1.000
    O126     O        0.71800    0.21800    0.28200    1.000
    Zn30     Zn       0.67336    0.17336    0.32664    1.000
    O127     O        0.21800    0.28200    0.71800    1.000
    Zn31     Zn       0.17336    0.32664    0.67336    1.000
    O128     O        0.28200    0.71800    0.21800    1.000
    Zn32     Zn       0.32664    0.67336    0.17336    1.000
