# CIF file generated by openbabel 3.1.0, see https://openbabel.org
data_I
_chemical_name_common 'image0'
_cell_length_a 10.7326
_cell_length_b 23.2562
_cell_length_c 9.7635
_cell_angle_alpha 90
_cell_angle_beta 105.392
_cell_angle_gamma 90
_space_group_name_H-M_alt 'P 1'
_space_group_name_Hall 'P 1'
loop_
    _symmetry_equiv_pos_as_xyz
    x,y,z
loop_
    _atom_site_label
    _atom_site_type_symbol
    _atom_site_fract_x
    _atom_site_fract_y
    _atom_site_fract_z
    _atom_site_occupancy
    Zn1      Zn       0.32959    0.10066    0.96839    1.000
    O1       O        0.40038    0.05229    0.13505    1.000
    O2       O        0.26170    0.08560    0.23870    1.000
    C1       C        0.36561    0.06196    0.24440    1.000
    C2       C        0.43555    0.02944    0.37701    1.000
    C3       C        0.42158    0.04654    0.50908    1.000
    H1       H        0.36820    0.07850    0.51550    1.000
    C4       C        0.51446    0.98296    0.36862    1.000
    H2       H        0.52480    0.97130    0.27900    1.000
    O3       O        0.20189    0.04966    0.84342    1.000
    O4       O        0.23223    0.10991    0.67895    1.000
    C5       C        0.18044    0.06701    0.71436    1.000
    C6       C        0.08696    0.03222    0.60389    1.000
    C7       C        0.08403    0.03845    0.46020    1.000
    H3       H        0.14100    0.06470    0.43300    1.000
    C8       C        0.00239    0.99383    0.64239    1.000
    H4       H        0.00380    0.98970    0.73960    1.000
    N1       N        0.50307    0.11060    0.92546    1.000
    N2       N        0.70333    0.09420    0.92016    1.000
    N3       N        0.14021    0.24236    0.42133    1.000
    N4       N        0.26240    0.31933    0.47139    1.000
    C9       C        0.60756    0.07871    0.97698    1.000
    H5       H        0.61370    0.04890    0.04500    1.000
    C10      C        0.53481    0.14817    0.83110    1.000
    H6       H        0.47870    0.17630    0.77690    1.000
    C11      C        0.65880    0.13869    0.82760    1.000
    H7       H        0.70540    0.15880    0.77240    1.000
    C12      C        0.83288    0.06813    0.95210    1.000
    H8       H        0.84680    0.05130    0.86420    1.000
    H9       H        0.83840    0.03670    0.02180    1.000
    C13      C        0.93836    0.11220    0.01190    1.000
    H10      H        0.93560    0.14230    0.93940    1.000
    H11      H        0.02350    0.09300    0.03100    1.000
    C14      C        0.92610    0.14087    0.14830    1.000
    H12      H        0.92140    0.11080    0.21860    1.000
    H13      H        0.84470    0.16320    0.12770    1.000
    C15      C        0.03958    0.18090    0.21250    1.000
    H14      H        0.12170    0.15950    0.22590    1.000
    H15      H        0.03990    0.21310    0.14610    1.000
    C16      C        0.03080    0.20478    0.35410    1.000
    H16      H        0.94940    0.22680    0.33960    1.000
    H17      H        0.02760    0.17240    0.41890    1.000
    C17      C        0.24140    0.22841    0.53450    1.000
    H18      H        0.25680    0.19240    0.58210    1.000
    C18      C        0.31550    0.27645    0.56490    1.000
    H19      H        0.39250    0.27980    0.63970    1.000
    C19      C        0.15598    0.29731    0.38620    1.000
    H20      H        0.09870    0.31750    0.31070    1.000
    O5       O        0.31850    0.11100    0.26500    1.000
    Zn2      Zn       0.67041    0.60066    0.53161    1.000
    O6       O        0.59962    0.55229    0.36495    1.000
    O7       O        0.73830    0.58560    0.26130    1.000
    C20      C        0.63439    0.56196    0.25560    1.000
    C21      C        0.56445    0.52944    0.12299    1.000
    C22      C        0.57842    0.54654    0.99092    1.000
    H21      H        0.63180    0.57850    0.98450    1.000
    C23      C        0.48554    0.48296    0.13138    1.000
    H22      H        0.47520    0.47130    0.22100    1.000
    O8       O        0.79811    0.54966    0.65658    1.000
    O9       O        0.76777    0.60991    0.82105    1.000
    C24      C        0.81956    0.56701    0.78564    1.000
    C25      C        0.91304    0.53222    0.89611    1.000
    C26      C        0.91597    0.53845    0.03980    1.000
    H23      H        0.85900    0.56470    0.06700    1.000
    C27      C        0.99761    0.49383    0.85761    1.000
    H24      H        0.99620    0.48970    0.76040    1.000
    N5       N        0.49693    0.61060    0.57454    1.000
    N6       N        0.29667    0.59420    0.57984    1.000
    N7       N        0.85979    0.74236    0.07867    1.000
    N8       N        0.73760    0.81933    0.02861    1.000
    C28      C        0.39244    0.57871    0.52302    1.000
    H25      H        0.38630    0.54890    0.45500    1.000
    C29      C        0.46519    0.64817    0.66890    1.000
    H26      H        0.52130    0.67630    0.72310    1.000
    C30      C        0.34120    0.63869    0.67240    1.000
    H27      H        0.29460    0.65880    0.72760    1.000
    C31      C        0.16712    0.56813    0.54790    1.000
    H28      H        0.15320    0.55130    0.63580    1.000
    H29      H        0.16160    0.53670    0.47820    1.000
    C32      C        0.06164    0.61220    0.48810    1.000
    H30      H        0.06440    0.64230    0.56060    1.000
    H31      H        0.97650    0.59300    0.46900    1.000
    C33      C        0.07390    0.64087    0.35170    1.000
    H32      H        0.07860    0.61080    0.28140    1.000
    H33      H        0.15530    0.66320    0.37230    1.000
    C34      C        0.96042    0.68090    0.28750    1.000
    H34      H        0.87830    0.65950    0.27410    1.000
    H35      H        0.96010    0.71310    0.35390    1.000
    C35      C        0.96920    0.70478    0.14590    1.000
    H36      H        0.05060    0.72680    0.16040    1.000
    H37      H        0.97240    0.67240    0.08110    1.000
    C36      C        0.75860    0.72841    0.96550    1.000
    H38      H        0.74320    0.69240    0.91790    1.000
    C37      C        0.68450    0.77645    0.93510    1.000
    H39      H        0.60750    0.77980    0.86030    1.000
    C38      C        0.84402    0.79731    0.11380    1.000
    H40      H        0.90130    0.81750    0.18930    1.000
    O10      O        0.68150    0.61100    0.23500    1.000
    Zn3      Zn       0.67041    0.89934    0.03161    1.000
    O11      O        0.59962    0.94771    0.86495    1.000
    O12      O        0.73830    0.91440    0.76130    1.000
    C39      C        0.63439    0.93804    0.75560    1.000
    C40      C        0.56445    0.97056    0.62299    1.000
    C41      C        0.57842    0.95346    0.49092    1.000
    H41      H        0.63180    0.92150    0.48450    1.000
    C42      C        0.48554    0.01704    0.63138    1.000
    H42      H        0.47520    0.02870    0.72100    1.000
    O13      O        0.79811    0.95034    0.15658    1.000
    O14      O        0.76777    0.89009    0.32105    1.000
    C43      C        0.81956    0.93299    0.28564    1.000
    C44      C        0.91304    0.96778    0.39611    1.000
    C45      C        0.91597    0.96155    0.53980    1.000
    H43      H        0.85900    0.93530    0.56700    1.000
    C46      C        0.99761    0.00617    0.35761    1.000
    H44      H        0.99620    0.01030    0.26040    1.000
    N9       N        0.49693    0.88940    0.07454    1.000
    N10      N        0.29667    0.90580    0.07984    1.000
    N11      N        0.85979    0.75764    0.57867    1.000
    N12      N        0.73760    0.68067    0.52861    1.000
    C47      C        0.39244    0.92129    0.02302    1.000
    H45      H        0.38630    0.95110    0.95500    1.000
    C48      C        0.46519    0.85183    0.16890    1.000
    H46      H        0.52130    0.82370    0.22310    1.000
    C49      C        0.34120    0.86131    0.17240    1.000
    H47      H        0.29460    0.84120    0.22760    1.000
    C50      C        0.16712    0.93187    0.04790    1.000
    H48      H        0.15320    0.94870    0.13580    1.000
    H49      H        0.16160    0.96330    0.97820    1.000
    C51      C        0.06164    0.88780    0.98810    1.000
    H50      H        0.06440    0.85770    0.06060    1.000
    H51      H        0.97650    0.90700    0.96900    1.000
    C52      C        0.07390    0.85913    0.85170    1.000
    H52      H        0.07860    0.88920    0.78140    1.000
    H53      H        0.15530    0.83680    0.87230    1.000
    C53      C        0.96042    0.81910    0.78750    1.000
    H54      H        0.87830    0.84050    0.77410    1.000
    H55      H        0.96010    0.78690    0.85390    1.000
    C54      C        0.96920    0.79522    0.64590    1.000
    H56      H        0.05060    0.77320    0.66040    1.000
    H57      H        0.97240    0.82760    0.58110    1.000
    C55      C        0.75860    0.77159    0.46550    1.000
    H58      H        0.74320    0.80760    0.41790    1.000
    C56      C        0.68450    0.72355    0.43510    1.000
    H59      H        0.60750    0.72020    0.36030    1.000
    C57      C        0.84402    0.70269    0.61380    1.000
    H60      H        0.90130    0.68250    0.68930    1.000
    O15      O        0.68150    0.88900    0.73500    1.000
    Zn4      Zn       0.32959    0.39934    0.46839    1.000
    O16      O        0.40038    0.44771    0.63505    1.000
    O17      O        0.26170    0.41440    0.73870    1.000
    C58      C        0.36561    0.43804    0.74440    1.000
    C59      C        0.43555    0.47056    0.87701    1.000
    C60      C        0.42158    0.45346    0.00908    1.000
    H61      H        0.36820    0.42150    0.01550    1.000
    C61      C        0.51446    0.51704    0.86862    1.000
    H62      H        0.52480    0.52870    0.77900    1.000
    O18      O        0.20189    0.45034    0.34342    1.000
    O19      O        0.23223    0.39009    0.17895    1.000
    C62      C        0.18044    0.43299    0.21436    1.000
    C63      C        0.08696    0.46778    0.10389    1.000
    C64      C        0.08403    0.46155    0.96020    1.000
    H63      H        0.14100    0.43530    0.93300    1.000
    C65      C        0.00239    0.50617    0.14239    1.000
    H64      H        0.00380    0.51030    0.23960    1.000
    N13      N        0.50307    0.38940    0.42546    1.000
    N14      N        0.70333    0.40580    0.42016    1.000
    N15      N        0.14021    0.25764    0.92133    1.000
    N16      N        0.26240    0.18067    0.97139    1.000
    C66      C        0.60756    0.42129    0.47698    1.000
    H65      H        0.61370    0.45110    0.54500    1.000
    C67      C        0.53481    0.35183    0.33110    1.000
    H66      H        0.47870    0.32370    0.27690    1.000
    C68      C        0.65880    0.36131    0.32760    1.000
    H67      H        0.70540    0.34120    0.27240    1.000
    C69      C        0.83288    0.43187    0.45210    1.000
    H68      H        0.84680    0.44870    0.36420    1.000
    H69      H        0.83840    0.46330    0.52180    1.000
    C70      C        0.93836    0.38780    0.51190    1.000
    H70      H        0.93560    0.35770    0.43940    1.000
    H71      H        0.02350    0.40700    0.53100    1.000
    C71      C        0.92610    0.35913    0.64830    1.000
    H72      H        0.92140    0.38920    0.71860    1.000
    H73      H        0.84470    0.33680    0.62770    1.000
    C72      C        0.03958    0.31910    0.71250    1.000
    H74      H        0.12170    0.34050    0.72590    1.000
    H75      H        0.03990    0.28690    0.64610    1.000
    C73      C        0.03080    0.29522    0.85410    1.000
    H76      H        0.94940    0.27320    0.83960    1.000
    H77      H        0.02760    0.32760    0.91890    1.000
    C74      C        0.24140    0.27159    0.03450    1.000
    H78      H        0.25680    0.30760    0.08210    1.000
    C75      C        0.31550    0.22355    0.06490    1.000
    H79      H        0.39250    0.22020    0.13970    1.000
    C76      C        0.15598    0.20269    0.88620    1.000
    H80      H        0.09870    0.18250    0.81070    1.000
    O20      O        0.31850    0.38900    0.76500    1.000
