# CIF file generated by openbabel 3.1.0, see https://openbabel.org
data_I
_chemical_name_common 'image0'
_cell_length_a 24.641
_cell_length_b 12.468
_cell_length_c 15.427
_cell_angle_alpha 90
_cell_angle_beta 90
_cell_angle_gamma 90
_space_group_name_H-M_alt 'P 1'
_space_group_name_Hall 'P 1'
loop_
    _symmetry_equiv_pos_as_xyz
    x,y,z
loop_
    _atom_site_label
    _atom_site_type_symbol
    _atom_site_fract_x
    _atom_site_fract_y
    _atom_site_fract_z
    _atom_site_occupancy
    Cd1      Cd       0.23602    0.82527    0.57756    1.000
    N1       N        0.23210    0.43140    0.32500    1.000
    N2       N        0.32080    0.51990    0.46250    1.000
    N3       N        0.32532    0.88350    0.57270    1.000
    O1       O        0.17381    0.73510    0.48380    1.000
    O2       O        0.26063    0.72050    0.45320    1.000
    O3       O        0.34820    0.66640    0.18210    1.000
    O4       O        0.27020    0.59790    0.21130    1.000
    O5       O        0.27370    0.36810    0.30480    1.000
    O6       O        0.28452    0.49280    0.52420    1.000
    C1       C        0.18070    0.40170    0.30680    1.000
    H1       H        0.17410    0.33590    0.28060    1.000
    C2       C        0.13910    0.46700    0.32660    1.000
    H2       H        0.10400    0.44820    0.31010    1.000
    C3       C        0.14790    0.56410    0.37210    1.000
    H3       H        0.11890    0.60760    0.38830    1.000
    C4       C        0.20030    0.59220    0.39170    1.000
    C5       C        0.24280    0.52480    0.36650    1.000
    C6       C        0.30130    0.54520    0.38230    1.000
    C7       C        0.33790    0.58380    0.32050    1.000
    C8       C        0.39190    0.59540    0.34270    1.000
    H4       H        0.41630    0.62310    0.30250    1.000
    C9       C        0.40990    0.56590    0.42440    1.000
    H5       H        0.44650    0.57120    0.43870    1.000
    C10      C        0.37290    0.52890    0.48410    1.000
    H6       H        0.38430    0.51010    0.53950    1.000
    C11      C        0.21280    0.69140    0.44490    1.000
    C12      C        0.31700    0.61720    0.23080    1.000
    C13      C        0.36340    0.82390    0.53420    1.000
    H7       H        0.35450    0.75500    0.51580    1.000
    C14      C        0.41570    0.86110    0.52080    1.000
    H8       H        0.44150    0.81700    0.49510    1.000
    C15      C        0.42930    0.96440    0.54600    1.000
    C16      C        0.39060    0.02450    0.58530    1.000
    H9       H        0.39840    0.09380    0.60360    1.000
    C17      C        0.34000    0.98210    0.59780    1.000
    H10      H        0.31410    0.02450    0.62540    1.000
    C18      C        0.48340    0.01600    0.52520    1.000
    H11      H        0.49170    0.07900    0.55460    1.000
    Cd2      Cd       0.26398    0.67473    0.07756    1.000
    N4       N        0.26790    0.06860    0.82500    1.000
    N5       N        0.17920    0.98010    0.96250    1.000
    N6       N        0.17468    0.61650    0.07270    1.000
    O7       O        0.32619    0.76490    0.98380    1.000
    O8       O        0.23937    0.77950    0.95320    1.000
    O9       O        0.15180    0.83360    0.68210    1.000
    O10      O        0.22980    0.90210    0.71130    1.000
    O11      O        0.22630    0.13190    0.80480    1.000
    O12      O        0.21548    0.00720    0.02420    1.000
    C19      C        0.31930    0.09830    0.80680    1.000
    H12      H        0.32590    0.16410    0.78060    1.000
    C20      C        0.36090    0.03300    0.82660    1.000
    H13      H        0.39600    0.05180    0.81010    1.000
    C21      C        0.35210    0.93590    0.87210    1.000
    H14      H        0.38110    0.89240    0.88830    1.000
    C22      C        0.29970    0.90780    0.89170    1.000
    C23      C        0.25720    0.97520    0.86650    1.000
    C24      C        0.19870    0.95480    0.88230    1.000
    C25      C        0.16210    0.91620    0.82050    1.000
    C26      C        0.10810    0.90460    0.84270    1.000
    H15      H        0.08370    0.87690    0.80250    1.000
    C27      C        0.09010    0.93410    0.92440    1.000
    H16      H        0.05350    0.92880    0.93870    1.000
    C28      C        0.12710    0.97110    0.98410    1.000
    H17      H        0.11570    0.98990    0.03950    1.000
    C29      C        0.28720    0.80860    0.94490    1.000
    C30      C        0.18300    0.88280    0.73080    1.000
    C31      C        0.13660    0.67610    0.03420    1.000
    H18      H        0.14550    0.74500    0.01580    1.000
    C32      C        0.08430    0.63890    0.02080    1.000
    H19      H        0.05850    0.68300    0.99510    1.000
    C33      C        0.07070    0.53560    0.04600    1.000
    C34      C        0.10940    0.47550    0.08530    1.000
    H20      H        0.10160    0.40620    0.10360    1.000
    C35      C        0.16000    0.51790    0.09780    1.000
    H21      H        0.18590    0.47550    0.12540    1.000
    C36      C        0.01660    0.48400    0.02520    1.000
    H22      H        0.00830    0.42100    0.05460    1.000
    Cd3      Cd       0.76398    0.82527    0.92244    1.000
    N7       N        0.76790    0.43140    0.17500    1.000
    N8       N        0.67920    0.51990    0.03750    1.000
    N9       N        0.67468    0.88350    0.92730    1.000
    O13      O        0.82619    0.73510    0.01620    1.000
    O14      O        0.73937    0.72050    0.04680    1.000
    O15      O        0.65180    0.66640    0.31790    1.000
    O16      O        0.72980    0.59790    0.28870    1.000
    O17      O        0.72630    0.36810    0.19520    1.000
    O18      O        0.71548    0.49280    0.97580    1.000
    C37      C        0.81930    0.40170    0.19320    1.000
    H23      H        0.82590    0.33590    0.21940    1.000
    C38      C        0.86090    0.46700    0.17340    1.000
    H24      H        0.89600    0.44820    0.18990    1.000
    C39      C        0.85210    0.56410    0.12790    1.000
    H25      H        0.88110    0.60760    0.11170    1.000
    C40      C        0.79970    0.59220    0.10830    1.000
    C41      C        0.75720    0.52480    0.13350    1.000
    C42      C        0.69870    0.54520    0.11770    1.000
    C43      C        0.66210    0.58380    0.17950    1.000
    C44      C        0.60810    0.59540    0.15730    1.000
    H26      H        0.58370    0.62310    0.19750    1.000
    C45      C        0.59010    0.56590    0.07560    1.000
    H27      H        0.55350    0.57120    0.06130    1.000
    C46      C        0.62710    0.52890    0.01590    1.000
    H28      H        0.61570    0.51010    0.96050    1.000
    C47      C        0.78720    0.69140    0.05510    1.000
    C48      C        0.68300    0.61720    0.26920    1.000
    C49      C        0.63660    0.82390    0.96580    1.000
    H29      H        0.64550    0.75500    0.98420    1.000
    C50      C        0.58430    0.86110    0.97920    1.000
    H30      H        0.55850    0.81700    0.00490    1.000
    C51      C        0.57070    0.96440    0.95400    1.000
    C52      C        0.60940    0.02450    0.91470    1.000
    H31      H        0.60160    0.09380    0.89640    1.000
    C53      C        0.66000    0.98210    0.90220    1.000
    H32      H        0.68590    0.02450    0.87460    1.000
    C54      C        0.51660    0.01600    0.97480    1.000
    H33      H        0.50830    0.07900    0.94540    1.000
    Cd4      Cd       0.73602    0.67473    0.42244    1.000
    N10      N        0.73210    0.06860    0.67500    1.000
    N11      N        0.82080    0.98010    0.53750    1.000
    N12      N        0.82532    0.61650    0.42730    1.000
    O19      O        0.67381    0.76490    0.51620    1.000
    O20      O        0.76063    0.77950    0.54680    1.000
    O21      O        0.84820    0.83360    0.81790    1.000
    O22      O        0.77020    0.90210    0.78870    1.000
    O23      O        0.77370    0.13190    0.69520    1.000
    O24      O        0.78452    0.00720    0.47580    1.000
    C55      C        0.68070    0.09830    0.69320    1.000
    H34      H        0.67410    0.16410    0.71940    1.000
    C56      C        0.63910    0.03300    0.67340    1.000
    H35      H        0.60400    0.05180    0.68990    1.000
    C57      C        0.64790    0.93590    0.62790    1.000
    H36      H        0.61890    0.89240    0.61170    1.000
    C58      C        0.70030    0.90780    0.60830    1.000
    C59      C        0.74280    0.97520    0.63350    1.000
    C60      C        0.80130    0.95480    0.61770    1.000
    C61      C        0.83790    0.91620    0.67950    1.000
    C62      C        0.89190    0.90460    0.65730    1.000
    H37      H        0.91630    0.87690    0.69750    1.000
    C63      C        0.90990    0.93410    0.57560    1.000
    H38      H        0.94650    0.92880    0.56130    1.000
    C64      C        0.87290    0.97110    0.51590    1.000
    H39      H        0.88430    0.98990    0.46050    1.000
    C65      C        0.71280    0.80860    0.55510    1.000
    C66      C        0.81700    0.88280    0.76920    1.000
    C67      C        0.86340    0.67610    0.46580    1.000
    H40      H        0.85450    0.74500    0.48420    1.000
    C68      C        0.91570    0.63890    0.47920    1.000
    H41      H        0.94150    0.68300    0.50490    1.000
    C69      C        0.92930    0.53560    0.45400    1.000
    C70      C        0.89060    0.47550    0.41470    1.000
    H42      H        0.89840    0.40620    0.39640    1.000
    C71      C        0.84000    0.51790    0.40220    1.000
    H43      H        0.81410    0.47550    0.37460    1.000
    C72      C        0.98340    0.48400    0.47480    1.000
    H44      H        0.99170    0.42100    0.44540    1.000
    Cd5      Cd       0.76398    0.17473    0.42244    1.000
    N13      N        0.76790    0.56860    0.67500    1.000
    N14      N        0.67920    0.48010    0.53750    1.000
    N15      N        0.67468    0.11650    0.42730    1.000
    O25      O        0.82619    0.26490    0.51620    1.000
    O26      O        0.73937    0.27950    0.54680    1.000
    O27      O        0.65180    0.33360    0.81790    1.000
    O28      O        0.72980    0.40210    0.78870    1.000
    O29      O        0.72630    0.63190    0.69520    1.000
    O30      O        0.71548    0.50720    0.47580    1.000
    C73      C        0.81930    0.59830    0.69320    1.000
    H45      H        0.82590    0.66410    0.71940    1.000
    C74      C        0.86090    0.53300    0.67340    1.000
    H46      H        0.89600    0.55180    0.68990    1.000
    C75      C        0.85210    0.43590    0.62790    1.000
    H47      H        0.88110    0.39240    0.61170    1.000
    C76      C        0.79970    0.40780    0.60830    1.000
    C77      C        0.75720    0.47520    0.63350    1.000
    C78      C        0.69870    0.45480    0.61770    1.000
    C79      C        0.66210    0.41620    0.67950    1.000
    C80      C        0.60810    0.40460    0.65730    1.000
    H48      H        0.58370    0.37690    0.69750    1.000
    C81      C        0.59010    0.43410    0.57560    1.000
    H49      H        0.55350    0.42880    0.56130    1.000
    C82      C        0.62710    0.47110    0.51590    1.000
    H50      H        0.61570    0.48990    0.46050    1.000
    C83      C        0.78720    0.30860    0.55510    1.000
    C84      C        0.68300    0.38280    0.76920    1.000
    C85      C        0.63660    0.17610    0.46580    1.000
    H51      H        0.64550    0.24500    0.48420    1.000
    C86      C        0.58430    0.13890    0.47920    1.000
    H52      H        0.55850    0.18300    0.50490    1.000
    C87      C        0.57070    0.03560    0.45400    1.000
    C88      C        0.60940    0.97550    0.41470    1.000
    H53      H        0.60160    0.90620    0.39640    1.000
    C89      C        0.66000    0.01790    0.40220    1.000
    H54      H        0.68590    0.97550    0.37460    1.000
    C90      C        0.51660    0.98400    0.47480    1.000
    H55      H        0.50830    0.92100    0.44540    1.000
    Cd6      Cd       0.73602    0.32527    0.92244    1.000
    N16      N        0.73210    0.93140    0.17500    1.000
    N17      N        0.82080    0.01990    0.03750    1.000
    N18      N        0.82532    0.38350    0.92730    1.000
    O31      O        0.67381    0.23510    0.01620    1.000
    O32      O        0.76063    0.22050    0.04680    1.000
    O33      O        0.84820    0.16640    0.31790    1.000
    O34      O        0.77020    0.09790    0.28870    1.000
    O35      O        0.77370    0.86810    0.19520    1.000
    O36      O        0.78452    0.99280    0.97580    1.000
    C91      C        0.68070    0.90170    0.19320    1.000
    H56      H        0.67410    0.83590    0.21940    1.000
    C92      C        0.63910    0.96700    0.17340    1.000
    H57      H        0.60400    0.94820    0.18990    1.000
    C93      C        0.64790    0.06410    0.12790    1.000
    H58      H        0.61890    0.10760    0.11170    1.000
    C94      C        0.70030    0.09220    0.10830    1.000
    C95      C        0.74280    0.02480    0.13350    1.000
    C96      C        0.80130    0.04520    0.11770    1.000
    C97      C        0.83790    0.08380    0.17950    1.000
    C98      C        0.89190    0.09540    0.15730    1.000
    H59      H        0.91630    0.12310    0.19750    1.000
    C99      C        0.90990    0.06590    0.07560    1.000
    H60      H        0.94650    0.07120    0.06130    1.000
    C100     C        0.87290    0.02890    0.01590    1.000
    H61      H        0.88430    0.01010    0.96050    1.000
    C101     C        0.71280    0.19140    0.05510    1.000
    C102     C        0.81700    0.11720    0.26920    1.000
    C103     C        0.86340    0.32390    0.96580    1.000
    H62      H        0.85450    0.25500    0.98420    1.000
    C104     C        0.91570    0.36110    0.97920    1.000
    H63      H        0.94150    0.31700    0.00490    1.000
    C105     C        0.92930    0.46440    0.95400    1.000
    C106     C        0.89060    0.52450    0.91470    1.000
    H64      H        0.89840    0.59380    0.89640    1.000
    C107     C        0.84000    0.48210    0.90220    1.000
    H65      H        0.81410    0.52450    0.87460    1.000
    C108     C        0.98340    0.51600    0.97480    1.000
    H66      H        0.99170    0.57900    0.94540    1.000
    Cd7      Cd       0.23602    0.17473    0.07756    1.000
    N19      N        0.23210    0.56860    0.82500    1.000
    N20      N        0.32080    0.48010    0.96250    1.000
    N21      N        0.32532    0.11650    0.07270    1.000
    O37      O        0.17381    0.26490    0.98380    1.000
    O38      O        0.26063    0.27950    0.95320    1.000
    O39      O        0.34820    0.33360    0.68210    1.000
    O40      O        0.27020    0.40210    0.71130    1.000
    O41      O        0.27370    0.63190    0.80480    1.000
    O42      O        0.28452    0.50720    0.02420    1.000
    C109     C        0.18070    0.59830    0.80680    1.000
    H67      H        0.17410    0.66410    0.78060    1.000
    C110     C        0.13910    0.53300    0.82660    1.000
    H68      H        0.10400    0.55180    0.81010    1.000
    C111     C        0.14790    0.43590    0.87210    1.000
    H69      H        0.11890    0.39240    0.88830    1.000
    C112     C        0.20030    0.40780    0.89170    1.000
    C113     C        0.24280    0.47520    0.86650    1.000
    C114     C        0.30130    0.45480    0.88230    1.000
    C115     C        0.33790    0.41620    0.82050    1.000
    C116     C        0.39190    0.40460    0.84270    1.000
    H70      H        0.41630    0.37690    0.80250    1.000
    C117     C        0.40990    0.43410    0.92440    1.000
    H71      H        0.44650    0.42880    0.93870    1.000
    C118     C        0.37290    0.47110    0.98410    1.000
    H72      H        0.38430    0.48990    0.03950    1.000
    C119     C        0.21280    0.30860    0.94490    1.000
    C120     C        0.31700    0.38280    0.73080    1.000
    C121     C        0.36340    0.17610    0.03420    1.000
    H73      H        0.35450    0.24500    0.01580    1.000
    C122     C        0.41570    0.13890    0.02080    1.000
    H74      H        0.44150    0.18300    0.99510    1.000
    C123     C        0.42930    0.03560    0.04600    1.000
    C124     C        0.39060    0.97550    0.08530    1.000
    H75      H        0.39840    0.90620    0.10360    1.000
    C125     C        0.34000    0.01790    0.09780    1.000
    H76      H        0.31410    0.97550    0.12540    1.000
    C126     C        0.48340    0.98400    0.02520    1.000
    H77      H        0.49170    0.92100    0.05460    1.000
    Cd8      Cd       0.26398    0.32527    0.57756    1.000
    N22      N        0.26790    0.93140    0.32500    1.000
    N23      N        0.17920    0.01990    0.46250    1.000
    N24      N        0.17468    0.38350    0.57270    1.000
    O43      O        0.32619    0.23510    0.48380    1.000
    O44      O        0.23937    0.22050    0.45320    1.000
    O45      O        0.15180    0.16640    0.18210    1.000
    O46      O        0.22980    0.09790    0.21130    1.000
    O47      O        0.22630    0.86810    0.30480    1.000
    O48      O        0.21548    0.99280    0.52420    1.000
    C127     C        0.31930    0.90170    0.30680    1.000
    H78      H        0.32590    0.83590    0.28060    1.000
    C128     C        0.36090    0.96700    0.32660    1.000
    H79      H        0.39600    0.94820    0.31010    1.000
    C129     C        0.35210    0.06410    0.37210    1.000
    H80      H        0.38110    0.10760    0.38830    1.000
    C130     C        0.29970    0.09220    0.39170    1.000
    C131     C        0.25720    0.02480    0.36650    1.000
    C132     C        0.19870    0.04520    0.38230    1.000
    C133     C        0.16210    0.08380    0.32050    1.000
    C134     C        0.10810    0.09540    0.34270    1.000
    H81      H        0.08370    0.12310    0.30250    1.000
    C135     C        0.09010    0.06590    0.42440    1.000
    H82      H        0.05350    0.07120    0.43870    1.000
    C136     C        0.12710    0.02890    0.48410    1.000
    H83      H        0.11570    0.01010    0.53950    1.000
    C137     C        0.28720    0.19140    0.44490    1.000
    C138     C        0.18300    0.11720    0.23080    1.000
    C139     C        0.13660    0.32390    0.53420    1.000
    H84      H        0.14550    0.25500    0.51580    1.000
    C140     C        0.08430    0.36110    0.52080    1.000
    H85      H        0.05850    0.31700    0.49510    1.000
    C141     C        0.07070    0.46440    0.54600    1.000
    C142     C        0.10940    0.52450    0.58530    1.000
    H86      H        0.10160    0.59380    0.60360    1.000
    C143     C        0.16000    0.48210    0.59780    1.000
    H87      H        0.18590    0.52450    0.62540    1.000
    C144     C        0.01660    0.51600    0.52520    1.000
    H88      H        0.00830    0.57900    0.55460    1.000
