data_functionalizedCrystal
_audit_creation_method	'EQeq! by Chris Wilmer'
_symmetry_space_group_name_H-M	'P1'
_symmetry_Int_Tables_number	1
_symmetry_cell_setting	triclinic
loop_
_symmetry_equiv_pos_as_xyz
  x,y,z
_cell_length_a	15.6019
_cell_length_b	15.6019
_cell_length_c	15.6019
_cell_angle_alpha	90
_cell_angle_beta	90
_cell_angle_gamma	90
loop_
_atom_site_label
_atom_site_type_symbol
_atom_site_fract_x
_atom_site_fract_y
_atom_site_fract_z
_atom_site_charge
Mof_C 	C 	0.2687	0.5037	0.0115	0.304
Mof_C 	C 	0.2703	0.4073	0.0192	-0.449
Mof_H 	H 	0.2121	0.3865	0.0264	0.157
Mof_H 	H 	0.3026	0.3914	0.0698	0.157
Mof_C 	C 	0.3104	0.364	0.9405	0.331
Mof_H 	H 	0.3709	0.3804	0.9364	-0.082
Mof_C 	C 	0.2639	0.3929	0.8601	-0.016
Mof_H 	H 	0.2047	0.3722	0.8626	0.01
Mof_C 	C 	0.2626	0.4907	0.8511	0.221
Mof_H 	H 	0.2293	0.5058	0.8	-0.03
Mof_C 	C 	0.2194	0.5307	0.9301	-0.418
Mof_H 	H 	0.1604	0.5115	0.9338	0.15
Mof_H 	H 	0.2194	0.5927	0.925	0.15
Mof_C 	C 	0.2235	0.5406	0.0922	0.209
Mof_O 	O 	0.3527	0.5376	0.0078	-0.609
Mof_H 	H 	0.3685	0.54	0.9577	0.286
Mof_O 	O 	0.2716	0.584	0.1419	-0.363
Mof_O 	O 	0.1465	0.5268	0.104	-0.263
Mof_O 	O 	0.304	0.2723	0.9439	-0.852
Mof_H 	H 	0.3209	0.2553	0.9907	0.338
Mof_O 	O 	0.3059	0.3534	0.7881	-0.746
Mof_H 	H 	0.2844	0.3709	0.7435	0.351
Mof_O 	O 	0.3488	0.5231	0.841	-0.362
Mof_H 	H 	0.3689	0.5343	0.8882	0.156
Mof_C 	C 	0.2313	0.4963	0.5115	0.302
Mof_C 	C 	0.2297	0.5927	0.5192	-0.452
Mof_H 	H 	0.2879	0.6135	0.5264	0.156
Mof_H 	H 	0.1974	0.6086	0.5698	0.157
Mof_C 	C 	0.1896	0.636	0.4405	0.332
Mof_H 	H 	0.1291	0.6196	0.4364	-0.082
Mof_C 	C 	0.2361	0.6071	0.3601	-0.016
Mof_H 	H 	0.2953	0.6278	0.3626	0.01
Mof_C 	C 	0.2374	0.5093	0.3511	0.221
Mof_H 	H 	0.2707	0.4942	0.3	-0.03
Mof_C 	C 	0.2806	0.4693	0.4301	-0.417
Mof_H 	H 	0.3396	0.4885	0.4338	0.15
Mof_H 	H 	0.2806	0.4073	0.425	0.15
Mof_C 	C 	0.2765	0.4594	0.5922	0.209
Mof_O 	O 	0.1473	0.4624	0.5078	-0.61
Mof_H 	H 	0.1315	0.46	0.4577	0.287
Mof_O 	O 	0.2284	0.416	0.6419	-0.363
Mof_O 	O 	0.3535	0.4732	0.604	-0.263
Mof_O 	O 	0.196	0.7277	0.4439	-0.853
Mof_H 	H 	0.1791	0.7447	0.4907	0.339
Mof_O 	O 	0.1941	0.6466	0.2881	-0.746
Mof_H 	H 	0.2156	0.6291	0.2435	0.351
Mof_O 	O 	0.1512	0.4769	0.341	-0.362
Mof_H 	H 	0.1311	0.4657	0.3882	0.155
Mof_C 	C 	0.7313	0.0037	0.4885	0.303
Mof_C 	C 	0.7297	0.9073	0.4808	-0.453
Mof_H 	H 	0.7879	0.8865	0.4736	0.156
Mof_H 	H 	0.6974	0.8914	0.4302	0.157
Mof_C 	C 	0.6896	0.864	0.5595	0.333
Mof_H 	H 	0.6291	0.8804	0.5636	-0.082
Mof_C 	C 	0.7361	0.8929	0.6399	-0.017
Mof_H 	H 	0.7953	0.8722	0.6374	0.011
Mof_C 	C 	0.7374	0.9907	0.6489	0.223
Mof_H 	H 	0.7707	0.0058	0.7	-0.031
Mof_C 	C 	0.7806	0.0307	0.5699	-0.418
Mof_H 	H 	0.8396	0.0115	0.5662	0.15
Mof_H 	H 	0.7806	0.0927	0.575	0.15
Mof_C 	C 	0.7765	0.0406	0.4078	0.209
Mof_O 	O 	0.6473	0.0376	0.4922	-0.61
Mof_H 	H 	0.6315	0.04	0.5423	0.287
Mof_O 	O 	0.7284	0.084	0.3581	-0.363
Mof_O 	O 	0.8535	0.0268	0.396	-0.264
Mof_O 	O 	0.696	0.7723	0.5561	-0.853
Mof_H 	H 	0.6791	0.7553	0.5093	0.339
Mof_O 	O 	0.6941	0.8534	0.7119	-0.746
Mof_H 	H 	0.7156	0.8709	0.7565	0.351
Mof_O 	O 	0.6512	0.0231	0.659	-0.363
Mof_H 	H 	0.6311	0.0343	0.6118	0.156
Mof_C 	C 	0.7687	0.9963	0.9885	0.306
Mof_C 	C 	0.7703	0.0927	0.9808	-0.457
Mof_H 	H 	0.7121	0.1135	0.9736	0.157
Mof_H 	H 	0.8026	0.1086	0.9302	0.158
Mof_C 	C 	0.8104	0.136	0.0595	0.335
Mof_H 	H 	0.8709	0.1196	0.0636	-0.083
Mof_C 	C 	0.7639	0.1071	0.1399	-0.019
Mof_H 	H 	0.7047	0.1278	0.1374	0.011
Mof_C 	C 	0.7626	0.0093	0.1489	0.227
Mof_H 	H 	0.7293	0.9942	0.2	-0.033
Mof_C 	C 	0.7194	0.9693	0.0699	-0.423
Mof_H 	H 	0.6604	0.9885	0.0662	0.151
Mof_H 	H 	0.7194	0.9073	0.075	0.151
Mof_C 	C 	0.7235	0.9594	0.9078	0.208
Mof_O 	O 	0.8527	0.9624	0.9922	-0.608
Mof_H 	H 	0.8685	0.96	0.0423	0.284
Mof_O 	O 	0.7716	0.916	0.8581	-0.362
Mof_O 	O 	0.6465	0.9732	0.896	-0.263
Mof_O 	O 	0.804	0.2277	0.0561	-0.854
Mof_H 	H 	0.8209	0.2447	0.0093	0.339
Mof_O 	O 	0.8059	0.1466	0.2119	-0.745
Mof_H 	H 	0.7844	0.1291	0.2565	0.35
Mof_O 	O 	0.8488	0.9769	0.159	-0.364
Mof_H 	H 	0.8689	0.9657	0.1118	0.156
Mof_C 	C 	0.0115	0.2687	0.5037	0.303
Mof_C 	C 	0.0192	0.2703	0.4073	-0.45
Mof_H 	H 	0.0264	0.2121	0.3865	0.156
Mof_H 	H 	0.0698	0.3026	0.3914	0.156
Mof_C 	C 	0.9405	0.3104	0.364	0.33
Mof_H 	H 	0.9364	0.3709	0.3804	-0.082
Mof_C 	C 	0.8601	0.2639	0.3929	-0.016
Mof_H 	H 	0.8626	0.2047	0.3722	0.01
Mof_C 	C 	0.8511	0.2626	0.4907	0.221
Mof_H 	H 	0.8	0.2293	0.5058	-0.03
Mof_C 	C 	0.9301	0.2194	0.5307	-0.418
Mof_H 	H 	0.9338	0.1604	0.5115	0.15
Mof_H 	H 	0.925	0.2194	0.5927	0.15
Mof_C 	C 	0.0922	0.2235	0.5406	0.209
Mof_O 	O 	0.0078	0.3527	0.5376	-0.609
Mof_H 	H 	0.9577	0.3685	0.54	0.286
Mof_O 	O 	0.1419	0.2716	0.584	-0.363
Mof_O 	O 	0.104	0.1465	0.5268	-0.263
Mof_O 	O 	0.9439	0.304	0.2723	-0.852
Mof_H 	H 	0.9907	0.3209	0.2553	0.338
Mof_O 	O 	0.7881	0.3059	0.3534	-0.746
Mof_H 	H 	0.7435	0.2844	0.3709	0.351
Mof_O 	O 	0.841	0.3488	0.5231	-0.362
Mof_H 	H 	0.8882	0.3689	0.5343	0.156
Mof_C 	C 	0.5115	0.2313	0.4963	0.302
Mof_C 	C 	0.5192	0.2297	0.5927	-0.452
Mof_H 	H 	0.5264	0.2879	0.6135	0.156
Mof_H 	H 	0.5698	0.1974	0.6086	0.157
Mof_C 	C 	0.4405	0.1896	0.636	0.332
Mof_H 	H 	0.4364	0.1291	0.6196	-0.082
Mof_C 	C 	0.3601	0.2361	0.6071	-0.016
Mof_H 	H 	0.3626	0.2953	0.6278	0.01
Mof_C 	C 	0.3511	0.2374	0.5093	0.221
Mof_H 	H 	0.3	0.2707	0.4942	-0.03
Mof_C 	C 	0.4301	0.2806	0.4693	-0.417
Mof_H 	H 	0.4338	0.3396	0.4885	0.15
Mof_H 	H 	0.425	0.2806	0.4073	0.15
Mof_C 	C 	0.5922	0.2765	0.4594	0.209
Mof_O 	O 	0.5078	0.1473	0.4624	-0.61
Mof_H 	H 	0.4577	0.1315	0.46	0.287
Mof_O 	O 	0.6419	0.2284	0.416	-0.363
Mof_O 	O 	0.604	0.3535	0.4732	-0.263
Mof_O 	O 	0.4439	0.196	0.7277	-0.853
Mof_H 	H 	0.4907	0.1791	0.7447	0.339
Mof_O 	O 	0.2881	0.1941	0.6466	-0.746
Mof_H 	H 	0.2435	0.2156	0.6291	0.351
Mof_O 	O 	0.341	0.1512	0.4769	-0.362
Mof_H 	H 	0.3882	0.1311	0.4657	0.155
Mof_C 	C 	0.4885	0.7313	0.0037	0.303
Mof_C 	C 	0.4808	0.7297	0.9073	-0.453
Mof_H 	H 	0.4736	0.7879	0.8865	0.156
Mof_H 	H 	0.4302	0.6974	0.8914	0.157
Mof_C 	C 	0.5595	0.6896	0.864	0.333
Mof_H 	H 	0.5636	0.6291	0.8804	-0.082
Mof_C 	C 	0.6399	0.7361	0.8929	-0.017
Mof_H 	H 	0.6374	0.7953	0.8722	0.011
Mof_C 	C 	0.6489	0.7374	0.9907	0.223
Mof_H 	H 	0.7	0.7707	0.0058	-0.031
Mof_C 	C 	0.5699	0.7806	0.0307	-0.418
Mof_H 	H 	0.5662	0.8396	0.0115	0.15
Mof_H 	H 	0.575	0.7806	0.0927	0.15
Mof_C 	C 	0.4078	0.7765	0.0406	0.209
Mof_O 	O 	0.4922	0.6473	0.0376	-0.61
Mof_H 	H 	0.5423	0.6315	0.04	0.287
Mof_O 	O 	0.3581	0.7284	0.084	-0.363
Mof_O 	O 	0.396	0.8535	0.0268	-0.264
Mof_O 	O 	0.5561	0.696	0.7723	-0.853
Mof_H 	H 	0.5093	0.6791	0.7553	0.339
Mof_O 	O 	0.7119	0.6941	0.8534	-0.746
Mof_H 	H 	0.7565	0.7156	0.8709	0.351
Mof_O 	O 	0.659	0.6512	0.0231	-0.363
Mof_H 	H 	0.6118	0.6311	0.0343	0.156
Mof_C 	C 	0.9885	0.7687	0.9963	0.306
Mof_C 	C 	0.9808	0.7703	0.0927	-0.457
Mof_H 	H 	0.9736	0.7121	0.1135	0.157
Mof_H 	H 	0.9302	0.8026	0.1086	0.158
Mof_C 	C 	0.0595	0.8104	0.136	0.335
Mof_H 	H 	0.0636	0.8709	0.1196	-0.083
Mof_C 	C 	0.1399	0.7639	0.1071	-0.019
Mof_H 	H 	0.1374	0.7047	0.1278	0.011
Mof_C 	C 	0.1489	0.7626	0.0093	0.227
Mof_H 	H 	0.2	0.7293	0.9942	-0.033
Mof_C 	C 	0.0699	0.7194	0.9693	-0.423
Mof_H 	H 	0.0662	0.6604	0.9885	0.151
Mof_H 	H 	0.075	0.7194	0.9073	0.151
Mof_C 	C 	0.9078	0.7235	0.9594	0.208
Mof_O 	O 	0.9922	0.8527	0.9624	-0.608
Mof_H 	H 	0.0423	0.8685	0.96	0.284
Mof_O 	O 	0.8581	0.7716	0.916	-0.362
Mof_O 	O 	0.896	0.6465	0.9732	-0.263
Mof_O 	O 	0.0561	0.804	0.2277	-0.854
Mof_H 	H 	0.0093	0.8209	0.2447	0.339
Mof_O 	O 	0.2119	0.8059	0.1466	-0.745
Mof_H 	H 	0.2565	0.7844	0.1291	0.35
Mof_O 	O 	0.159	0.8488	0.9769	-0.364
Mof_H 	H 	0.1118	0.8689	0.9657	0.156
Mof_C 	C 	0.5037	0.0115	0.2687	0.303
Mof_C 	C 	0.4073	0.0192	0.2703	-0.45
Mof_H 	H 	0.3865	0.0264	0.2121	0.156
Mof_H 	H 	0.3914	0.0698	0.3026	0.156
Mof_C 	C 	0.364	0.9405	0.3104	0.33
Mof_H 	H 	0.3804	0.9364	0.3709	-0.082
Mof_C 	C 	0.3929	0.8601	0.2639	-0.016
Mof_H 	H 	0.3722	0.8626	0.2047	0.01
Mof_C 	C 	0.4907	0.8511	0.2626	0.221
Mof_H 	H 	0.5058	0.8	0.2293	-0.03
Mof_C 	C 	0.5307	0.9301	0.2194	-0.418
Mof_H 	H 	0.5115	0.9338	0.1604	0.15
Mof_H 	H 	0.5927	0.925	0.2194	0.15
Mof_C 	C 	0.5406	0.0922	0.2235	0.209
Mof_O 	O 	0.5376	0.0078	0.3527	-0.609
Mof_H 	H 	0.54	0.9577	0.3685	0.286
Mof_O 	O 	0.584	0.1419	0.2716	-0.363
Mof_O 	O 	0.5268	0.104	0.1465	-0.263
Mof_O 	O 	0.2723	0.9439	0.304	-0.852
Mof_H 	H 	0.2553	0.9907	0.3209	0.338
Mof_O 	O 	0.3534	0.7881	0.3059	-0.746
Mof_H 	H 	0.3709	0.7435	0.2844	0.351
Mof_O 	O 	0.5231	0.841	0.3488	-0.362
Mof_H 	H 	0.5343	0.8882	0.3689	0.156
Mof_C 	C 	0.4963	0.5115	0.2313	0.302
Mof_C 	C 	0.5927	0.5192	0.2297	-0.452
Mof_H 	H 	0.6135	0.5264	0.2879	0.156
Mof_H 	H 	0.6086	0.5698	0.1974	0.157
Mof_C 	C 	0.636	0.4405	0.1896	0.332
Mof_H 	H 	0.6196	0.4364	0.1291	-0.082
Mof_C 	C 	0.6071	0.3601	0.2361	-0.016
Mof_H 	H 	0.6278	0.3626	0.2953	0.01
Mof_C 	C 	0.5093	0.3511	0.2374	0.221
Mof_H 	H 	0.4942	0.3	0.2707	-0.03
Mof_C 	C 	0.4693	0.4301	0.2806	-0.417
Mof_H 	H 	0.4885	0.4338	0.3396	0.15
Mof_H 	H 	0.4073	0.425	0.2806	0.15
Mof_C 	C 	0.4594	0.5922	0.2765	0.209
Mof_O 	O 	0.4624	0.5078	0.1473	-0.61
Mof_H 	H 	0.46	0.4577	0.1315	0.287
Mof_O 	O 	0.416	0.6419	0.2284	-0.363
Mof_O 	O 	0.4732	0.604	0.3535	-0.263
Mof_O 	O 	0.7277	0.4439	0.196	-0.853
Mof_H 	H 	0.7447	0.4907	0.1791	0.339
Mof_O 	O 	0.6466	0.2881	0.1941	-0.746
Mof_H 	H 	0.6291	0.2435	0.2156	0.351
Mof_O 	O 	0.4769	0.341	0.1512	-0.362
Mof_H 	H 	0.4657	0.3882	0.1311	0.155
Mof_C 	C 	0.0037	0.4885	0.7313	0.303
Mof_C 	C 	0.9073	0.4808	0.7297	-0.453
Mof_H 	H 	0.8865	0.4736	0.7879	0.156
Mof_H 	H 	0.8914	0.4302	0.6974	0.157
Mof_C 	C 	0.864	0.5595	0.6896	0.333
Mof_H 	H 	0.8804	0.5636	0.6291	-0.082
Mof_C 	C 	0.8929	0.6399	0.7361	-0.017
Mof_H 	H 	0.8722	0.6374	0.7953	0.011
Mof_C 	C 	0.9907	0.6489	0.7374	0.223
Mof_H 	H 	0.0058	0.7	0.7707	-0.031
Mof_C 	C 	0.0307	0.5699	0.7806	-0.418
Mof_H 	H 	0.0115	0.5662	0.8396	0.15
Mof_H 	H 	0.0927	0.575	0.7806	0.15
Mof_C 	C 	0.0406	0.4078	0.7765	0.209
Mof_O 	O 	0.0376	0.4922	0.6473	-0.61
Mof_H 	H 	0.04	0.5423	0.6315	0.287
Mof_O 	O 	0.084	0.3581	0.7284	-0.363
Mof_O 	O 	0.0268	0.396	0.8535	-0.264
Mof_O 	O 	0.7723	0.5561	0.696	-0.853
Mof_H 	H 	0.7553	0.5093	0.6791	0.339
Mof_O 	O 	0.8534	0.7119	0.6941	-0.746
Mof_H 	H 	0.8709	0.7565	0.7156	0.351
Mof_O 	O 	0.0231	0.659	0.6512	-0.363
Mof_H 	H 	0.0343	0.6118	0.6311	0.156
Mof_C 	C 	0.9963	0.9885	0.7687	0.306
Mof_C 	C 	0.0927	0.9808	0.7703	-0.457
Mof_H 	H 	0.1135	0.9736	0.7121	0.157
Mof_H 	H 	0.1086	0.9302	0.8026	0.158
Mof_C 	C 	0.136	0.0595	0.8104	0.335
Mof_H 	H 	0.1196	0.0636	0.8709	-0.083
Mof_C 	C 	0.1071	0.1399	0.7639	-0.019
Mof_H 	H 	0.1278	0.1374	0.7047	0.011
Mof_C 	C 	0.0093	0.1489	0.7626	0.227
Mof_H 	H 	0.9942	0.2	0.7293	-0.033
Mof_C 	C 	0.9693	0.0699	0.7194	-0.423
Mof_H 	H 	0.9885	0.0662	0.6604	0.151
Mof_H 	H 	0.9073	0.075	0.7194	0.151
Mof_C 	C 	0.9594	0.9078	0.7235	0.208
Mof_O 	O 	0.9624	0.9922	0.8527	-0.608
Mof_H 	H 	0.96	0.0423	0.8685	0.284
Mof_O 	O 	0.916	0.8581	0.7716	-0.362
Mof_O 	O 	0.9732	0.896	0.6465	-0.263
Mof_O 	O 	0.2277	0.0561	0.804	-0.854
Mof_H 	H 	0.2447	0.0093	0.8209	0.339
Mof_O 	O 	0.1466	0.2119	0.8059	-0.745
Mof_H 	H 	0.1291	0.2565	0.7844	0.35
Mof_O 	O 	0.9769	0.159	0.8488	-0.364
Mof_H 	H 	0.9657	0.1118	0.8689	0.156
Mof_Fe	Fe	0.39758	0.60242	0.10242	1.079
Mof_Fe	Fe	0.10242	0.39758	0.60242	1.079
Mof_Fe	Fe	0.60242	0.10242	0.39758	1.079
Mof_Fe	Fe	0.89758	0.89758	0.89758	1.078
Mof_Na	Na	0.30217	0.19783	0.80217	3.047
Mof_Na	Na	0.19783	0.80217	0.30217	3.047
Mof_Na	Na	0.69783	0.69783	0.69783	3.048
Mof_Na	Na	0.80217	0.30217	0.19783	3.047
_end
