data_functionalizedCrystal
_audit_creation_method	'EQeq! by Chris Wilmer'
_symmetry_space_group_name_H-M	'P1'
_symmetry_Int_Tables_number	1
_symmetry_cell_setting	triclinic
loop_
_symmetry_equiv_pos_as_xyz
  x,y,z
_cell_length_a	6.96
_cell_length_b	7.718
_cell_length_c	9.693
_cell_angle_alpha	90.61
_cell_angle_beta	91.72
_cell_angle_gamma	90.17
loop_
_atom_site_label
_atom_site_type_symbol
_atom_site_fract_x
_atom_site_fract_y
_atom_site_fract_z
_atom_site_charge
Mof_Cd	Cd	-0	0	-0	0.208
Mof_Ni	Ni	0.5	0.5	-0	1.005
Mof_H 	H 	0.959	0.91055	0.28026	0.082
Mof_H 	H 	0.66301	0.80924	0.20662	0.003
Mof_H 	H 	0.59519	0.02472	0.15713	0.004
Mof_H 	H 	0.81172	0.84808	0.4898	0.043
Mof_H 	H 	0.34669	0.11192	0.28713	0.039
Mof_H 	H 	0.041	0.08945	0.71974	0.083
Mof_H 	H 	0.33699	0.19076	0.79338	0.053
Mof_H 	H 	0.40481	0.97528	0.84287	0.091
Mof_H 	H 	0.18828	0.15192	0.5102	0.031
Mof_H 	H 	0.65331	0.88808	0.71287	0.05
Mof_C 	C 	0.6896	0.6603	0.9582	-0.134
Mof_C 	C 	0.3356	0.6827	0.0326	-0.31
Mof_C 	C 	0.6771	0.9477	0.2333	-0.031
Mof_C 	C 	0.5888	0.9765	0.3734	0.036
Mof_C 	C 	0.6755	0.9143	0.4935	-0.054
Mof_C 	C 	0.4142	0.0624	0.3804	-0.076
Mof_C 	C 	0.3104	0.3397	0.0418	-0.31
Mof_C 	C 	0.6644	0.3173	0.9674	-0.139
Mof_C 	C 	0.3229	0.0523	0.7667	-0.062
Mof_C 	C 	0.4112	0.0235	0.6266	0.005
Mof_C 	C 	0.3245	0.0857	0.5065	-0.037
Mof_C 	C 	0.5858	0.9376	0.6196	-0.027
Mof_N 	N 	0.8017	0.7634	0.937	-0.041
Mof_N 	N 	0.2369	0.798	0.0513	-0.083
Mof_N 	N 	0.8816	0.9958	0.2253	-0.163
Mof_N 	N 	0.1983	0.2366	0.063	-0.089
Mof_N 	N 	0.7631	0.202	0.9487	-0.045
Mof_N 	N 	0.1184	0.0042	0.7747	-0.132
_end
