data_functionalizedCrystal
_audit_creation_method	'EQeq! by Chris Wilmer'
_symmetry_space_group_name_H-M	'P1'
_symmetry_Int_Tables_number	1
_symmetry_cell_setting	triclinic
loop_
_symmetry_equiv_pos_as_xyz
  x,y,z
_cell_length_a	11.174
_cell_length_b	12.8365
_cell_length_c	12.8365
_cell_angle_alpha	117.852
_cell_angle_beta	96.1197
_cell_angle_gamma	83.8803
loop_
_atom_site_label
_atom_site_type_symbol
_atom_site_fract_x
_atom_site_fract_y
_atom_site_fract_z
_atom_site_charge
Mof_Zn	Zn	0.86561	0.49841	0.97321	1.22
Mof_Zn	Zn	0.63439	0.97321	0.49841	1.22
Mof_Zn	Zn	0.13439	0.50159	0.02679	1.22
Mof_Zn	Zn	0.36561	0.02679	0.50159	1.22
Mof_H 	H 	0.7651	0.7967	0.3095	0.014
Mof_H 	H 	0.1109	0.7462	0.3978	0.02
Mof_H 	H 	0.0811	0.8892	0.589	0.099
Mof_H 	H 	0.1807	0.8036	0.9616	0.021
Mof_H 	H 	0.8467	0.7408	0.8274	-0.005
Mof_H 	H 	0.8503	0.8798	0.7638	0.118
Mof_H 	H 	0.7349	0.3095	0.7967	0.014
Mof_H 	H 	0.3891	0.3978	0.7462	0.02
Mof_H 	H 	0.4189	0.589	0.8892	0.1
Mof_H 	H 	0.3193	0.9616	0.8036	0.021
Mof_H 	H 	0.6533	0.8274	0.7408	-0.005
Mof_H 	H 	0.6497	0.7638	0.8798	0.116
Mof_H 	H 	0.2349	0.2033	0.6905	0.014
Mof_H 	H 	0.8891	0.2538	0.6022	0.02
Mof_H 	H 	0.9189	0.1108	0.411	0.099
Mof_H 	H 	0.8193	0.1964	0.0384	0.021
Mof_H 	H 	0.1533	0.2592	0.1726	-0.005
Mof_H 	H 	0.1497	0.1202	0.2362	0.118
Mof_H 	H 	0.2651	0.6905	0.2033	0.014
Mof_H 	H 	0.6109	0.6022	0.2538	0.02
Mof_H 	H 	0.5811	0.411	0.1108	0.1
Mof_H 	H 	0.6807	0.0384	0.1964	0.021
Mof_H 	H 	0.3467	0.1726	0.2592	-0.005
Mof_H 	H 	0.3503	0.2362	0.1202	0.116
Mof_C 	C 	0.9548	0.6606	0.21	0.416
Mof_C 	C 	0.94	0.7549	0.3333	-0.155
Mof_C 	C 	0.8297	0.8159	0.3659	0.092
Mof_C 	C 	0.0351	0.7845	0.4177	0.096
Mof_C 	C 	0.018	0.87	0.5312	-0.163
Mof_C 	C 	0.9047	0.9273	0.5575	0.11
Mof_C 	C 	0.012	0.9275	0.8353	0.15
Mof_C 	C 	0.1118	0.8181	0.9217	0.114
Mof_C 	C 	0.0136	0.7521	0.8985	-0.188
Mof_C 	C 	0.9164	0.7806	0.8424	0.145
Mof_C 	C 	0.0142	0.6599	0.9363	0.428
Mof_C 	C 	0.9165	0.8658	0.807	-0.22
Mof_C 	C 	0.5452	0.21	0.6606	0.416
Mof_C 	C 	0.56	0.3333	0.7549	-0.155
Mof_C 	C 	0.6703	0.3659	0.8159	0.092
Mof_C 	C 	0.4649	0.4177	0.7845	0.097
Mof_C 	C 	0.482	0.5312	0.87	-0.166
Mof_C 	C 	0.5953	0.5575	0.9273	0.113
Mof_C 	C 	0.488	0.8353	0.9275	0.145
Mof_C 	C 	0.3882	0.9217	0.8181	0.114
Mof_C 	C 	0.4864	0.8985	0.7521	-0.189
Mof_C 	C 	0.5836	0.8424	0.7806	0.146
Mof_C 	C 	0.4858	0.9363	0.6599	0.426
Mof_C 	C 	0.5835	0.807	0.8658	-0.215
Mof_C 	C 	0.0452	0.3394	0.79	0.416
Mof_C 	C 	0.06	0.2451	0.6667	-0.155
Mof_C 	C 	0.1703	0.1841	0.6341	0.092
Mof_C 	C 	0.9649	0.2155	0.5823	0.096
Mof_C 	C 	0.982	0.13	0.4688	-0.163
Mof_C 	C 	0.0953	0.0727	0.4425	0.11
Mof_C 	C 	0.988	0.0725	0.1647	0.15
Mof_C 	C 	0.8882	0.1819	0.0783	0.114
Mof_C 	C 	0.9864	0.2479	0.1015	-0.188
Mof_C 	C 	0.0836	0.2194	0.1576	0.145
Mof_C 	C 	0.9858	0.3401	0.0637	0.428
Mof_C 	C 	0.0835	0.1342	0.193	-0.22
Mof_C 	C 	0.4548	0.79	0.3394	0.416
Mof_C 	C 	0.44	0.6667	0.2451	-0.155
Mof_C 	C 	0.3297	0.6341	0.1841	0.092
Mof_C 	C 	0.5351	0.5823	0.2155	0.097
Mof_C 	C 	0.518	0.4688	0.13	-0.166
Mof_C 	C 	0.4047	0.4425	0.0727	0.113
Mof_C 	C 	0.512	0.1647	0.0725	0.145
Mof_C 	C 	0.6118	0.0783	0.1819	0.114
Mof_C 	C 	0.5136	0.1015	0.2479	-0.189
Mof_C 	C 	0.4164	0.1576	0.2194	0.146
Mof_C 	C 	0.5142	0.0637	0.3401	0.426
Mof_C 	C 	0.4165	0.193	0.1342	-0.215
Mof_S 	S 	0.02025	0.04631	0.80157	-0.017
Mof_S 	S 	0.86831	0.04051	0.69987	-0.045
Mof_S 	S 	0.47975	0.80157	0.04631	-0.014
Mof_S 	S 	0.63169	0.69987	0.04051	-0.047
Mof_S 	S 	0.97975	0.95369	0.19843	-0.017
Mof_S 	S 	0.13169	0.95949	0.30013	-0.045
Mof_S 	S 	0.52025	0.19843	0.95369	-0.014
Mof_S 	S 	0.36831	0.30013	0.95949	-0.047
Mof_N 	N 	0.1103	0.9049	0.8875	-0.142
Mof_N 	N 	0.8117	0.9023	0.4761	-0.249
Mof_N 	N 	0.3897	0.8875	0.9049	-0.142
Mof_N 	N 	0.6883	0.4761	0.9023	-0.249
Mof_N 	N 	0.8897	0.0951	0.1125	-0.142
Mof_N 	N 	0.1883	0.0977	0.5239	-0.249
Mof_N 	N 	0.6103	0.1125	0.0951	-0.142
Mof_N 	N 	0.3117	0.5239	0.0977	-0.249
Mof_O 	O 	0.1134	0.6274	0.973	-0.463
Mof_O 	O 	0.9142	0.6201	0.9297	-0.475
Mof_O 	O 	0.0609	0.6256	0.1814	-0.462
Mof_O 	O 	0.8617	0.6222	0.1438	-0.46
Mof_O 	O 	0.3866	0.973	0.6274	-0.463
Mof_O 	O 	0.5858	0.9297	0.6201	-0.473
Mof_O 	O 	0.4391	0.1814	0.6256	-0.461
Mof_O 	O 	0.6383	0.1438	0.6222	-0.46
Mof_O 	O 	0.8866	0.3726	0.027	-0.463
Mof_O 	O 	0.0858	0.3799	0.0703	-0.475
Mof_O 	O 	0.9391	0.3744	0.8186	-0.462
Mof_O 	O 	0.1383	0.3778	0.8562	-0.46
Mof_O 	O 	0.6134	0.027	0.3726	-0.463
Mof_O 	O 	0.4142	0.0703	0.3799	-0.473
Mof_O 	O 	0.5609	0.8186	0.3744	-0.461
Mof_O 	O 	0.3617	0.8562	0.3778	-0.46
_end
