# CIF file generated by openbabel 3.1.0, see https://openbabel.org
data_I
_chemical_name_common 'image0'
_cell_length_a 6.0544
_cell_length_b 12.4991
_cell_length_c 14.7539
_cell_angle_alpha 114.462
_cell_angle_beta 93.213
_cell_angle_gamma 100.177
_space_group_name_H-M_alt 'P 1'
_space_group_name_Hall 'P 1'
loop_
    _symmetry_equiv_pos_as_xyz
    x,y,z
loop_
    _atom_site_label
    _atom_site_type_symbol
    _atom_site_fract_x
    _atom_site_fract_y
    _atom_site_fract_z
    _atom_site_occupancy
    Cs1      Cs       0.77078    0.69302    0.12405    1.000
    S1       S        0.34417    0.96919    0.20551    1.000
    O1       O        0.10220    0.95650    0.19562    1.000
    O2       O        0.43560    0.86321    0.16177    1.000
    O3       O        0.64950    0.39751    0.04323    1.000
    O4       O        0.97680    0.34402    0.05781    1.000
    O5       O        0.61140    0.29963    0.70295    1.000
    O6       O        0.91810    0.22160    0.67343    1.000
    C1       C        0.76770    0.33446    0.06175    1.000
    C2       C        0.65310    0.23927    0.09263    1.000
    C3       C        0.76200    0.14883    0.08925    1.000
    H1       H        0.90020    0.14520    0.06480    1.000
    C4       C        0.44430    0.24306    0.12662    1.000
    H2       H        0.36790    0.30120    0.12610    1.000
    C5       C        0.66770    0.06447    0.12170    1.000
    H3       H        0.74040    0.00380    0.11910    1.000
    C6       C        0.46180    0.07201    0.15837    1.000
    C7       C        0.34900    0.16028    0.16152    1.000
    H4       H        0.21160    0.16420    0.18660    1.000
    C8       C        0.45330    0.04352    0.33516    1.000
    C9       C        0.66190    0.02956    0.36737    1.000
    H5       H        0.74160    0.98010    0.32180    1.000
    C10      C        0.74870    0.09080    0.46862    1.000
    H6       H        0.88800    0.08230    0.49140    1.000
    C11      C        0.62970    0.16452    0.53632    1.000
    C12      C        0.42120    0.17750    0.50331    1.000
    H7       H        0.34090    0.22630    0.54910    1.000
    C13      C        0.33250    0.11750    0.40177    1.000
    H8       H        0.19420    0.12690    0.37890    1.000
    C14      C        0.73480    0.23080    0.64461    1.000
    Cs2      Cs       0.22922    0.30698    0.87595    1.000
    S2       S        0.65583    0.03081    0.79449    1.000
    O7       O        0.89780    0.04350    0.80438    1.000
    O8       O        0.56440    0.13679    0.83823    1.000
    O9       O        0.35050    0.60249    0.95677    1.000
    O10      O        0.02320    0.65598    0.94219    1.000
    O11      O        0.38860    0.70037    0.29705    1.000
    O12      O        0.08190    0.77840    0.32657    1.000
    C15      C        0.23230    0.66554    0.93825    1.000
    C16      C        0.34690    0.76073    0.90737    1.000
    C17      C        0.23800    0.85117    0.91075    1.000
    H9       H        0.09980    0.85480    0.93520    1.000
    C18      C        0.55570    0.75694    0.87338    1.000
    H10      H        0.63210    0.69880    0.87390    1.000
    C19      C        0.33230    0.93553    0.87830    1.000
    H11      H        0.25960    0.99620    0.88090    1.000
    C20      C        0.53820    0.92799    0.84163    1.000
    C21      C        0.65100    0.83972    0.83848    1.000
    H12      H        0.78840    0.83580    0.81340    1.000
    C22      C        0.54670    0.95648    0.66484    1.000
    C23      C        0.33810    0.97044    0.63263    1.000
    H13      H        0.25840    0.01990    0.67820    1.000
    C24      C        0.25130    0.90920    0.53138    1.000
    H14      H        0.11200    0.91770    0.50860    1.000
    C25      C        0.37030    0.83548    0.46368    1.000
    C26      C        0.57880    0.82250    0.49669    1.000
    H15      H        0.65910    0.77370    0.45090    1.000
    C27      C        0.66750    0.88250    0.59823    1.000
    H16      H        0.80580    0.87310    0.62110    1.000
    C28      C        0.26520    0.76920    0.35539    1.000
