# CIF file generated by openbabel 3.1.0, see https://openbabel.org
data_I
_chemical_name_common 'image0'
_cell_length_a 7.9341
_cell_length_b 13.8697
_cell_length_c 7.3361
_cell_angle_alpha 90
_cell_angle_beta 90
_cell_angle_gamma 90
_space_group_name_H-M_alt 'P 1'
_space_group_name_Hall 'P 1'
loop_
    _symmetry_equiv_pos_as_xyz
    x,y,z
loop_
    _atom_site_label
    _atom_site_type_symbol
    _atom_site_fract_x
    _atom_site_fract_y
    _atom_site_fract_z
    _atom_site_occupancy
    Co1      Co       0.22306    0.33545    0.75887    1.000
    O1       O        0.10720    0.22871    0.60830    1.000
    O2       O        0.92930    0.16391    0.41330    1.000
    O3       O        0.31280    0.21260    0.90140    1.000
    O4       O        0.50840    0.14626    0.07710    1.000
    O5       O        0.11330    0.45227    0.61780    1.000
    O6       O        0.13060    0.57152    0.41850    1.000
    C1       C        0.98890    0.23298    0.49870    1.000
    H1       H        0.94060    0.29320    0.47880    1.000
    C2       C        0.44520    0.21476    0.99330    1.000
    H2       H        0.50170    0.27340    0.99940    1.000
    C3       C        0.19170    0.50414    0.50730    1.000
    H3       H        0.30560    0.49100    0.49030    1.000
    Co2      Co       0.27694    0.66455    0.25887    1.000
    O7       O        0.39280    0.77129    0.10830    1.000
    O8       O        0.57070    0.83609    0.91330    1.000
    O9       O        0.18720    0.78740    0.40140    1.000
    O10      O        0.99160    0.85374    0.57710    1.000
    O11      O        0.38670    0.54773    0.11780    1.000
    O12      O        0.36940    0.42848    0.91850    1.000
    C4       C        0.51110    0.76702    0.99870    1.000
    H4       H        0.55940    0.70680    0.97880    1.000
    C5       C        0.05480    0.78524    0.49330    1.000
    H5       H        0.99830    0.72660    0.49940    1.000
    C6       C        0.30830    0.49586    0.00730    1.000
    H6       H        0.19440    0.50900    0.99030    1.000
    Co3      Co       0.77694    0.83545    0.74113    1.000
    O13      O        0.89280    0.72871    0.89170    1.000
    O14      O        0.07070    0.66391    0.08670    1.000
    O15      O        0.68720    0.71260    0.59860    1.000
    O16      O        0.49160    0.64626    0.42290    1.000
    O17      O        0.88670    0.95227    0.88220    1.000
    O18      O        0.86940    0.07152    0.08150    1.000
    C7       C        0.01110    0.73298    0.00130    1.000
    H7       H        0.05940    0.79320    0.02120    1.000
    C8       C        0.55480    0.71476    0.50670    1.000
    H8       H        0.49830    0.77340    0.50060    1.000
    C9       C        0.80830    0.00414    0.99270    1.000
    H9       H        0.69440    0.99100    0.00970    1.000
    Co4      Co       0.72306    0.16455    0.24113    1.000
    O19      O        0.60720    0.27129    0.39170    1.000
    O20      O        0.42930    0.33609    0.58670    1.000
    O21      O        0.81280    0.28740    0.09860    1.000
    O22      O        0.00840    0.35374    0.92290    1.000
    O23      O        0.61330    0.04773    0.38220    1.000
    O24      O        0.63060    0.92848    0.58150    1.000
    C10      C        0.48890    0.26702    0.50130    1.000
    H10      H        0.44060    0.20680    0.52120    1.000
    C11      C        0.94520    0.28524    0.00670    1.000
    H11      H        0.00170    0.22660    0.00060    1.000
    C12      C        0.69170    0.99586    0.49270    1.000
    H12      H        0.80560    0.00900    0.50970    1.000
