# CIF file generated by openbabel 3.1.0, see https://openbabel.org
data_I
_chemical_name_common 'image0'
_cell_length_a 16.085
_cell_length_b 16.0849
_cell_length_c 20.246
_cell_angle_alpha 90
_cell_angle_beta 90
_cell_angle_gamma 90
_space_group_name_H-M_alt 'P 1'
_space_group_name_Hall 'P 1'
loop_
    _symmetry_equiv_pos_as_xyz
    x,y,z
loop_
    _atom_site_label
    _atom_site_type_symbol
    _atom_site_fract_x
    _atom_site_fract_y
    _atom_site_fract_z
    _atom_site_occupancy
    C1       C        0.85819    0.43217    0.29320    1.000
    H1       H        0.81340    0.46250    0.27710    1.000
    C2       C        0.85443    0.34658    0.29016    1.000
    H2       H        0.80800    0.32060    0.27230    1.000
    C3       C        0.91986    0.29966    0.31375    1.000
    C4       C        0.98760    0.34279    0.34026    1.000
    H3       H        0.03310    0.31390    0.35700    1.000
    C5       C        0.98635    0.42830    0.34136    1.000
    H4       H        0.03190    0.45600    0.35910    1.000
    C6       C        0.91885    0.20758    0.31166    1.000
    C7       C        0.88352    0.16282    0.25758    1.000
    C8       C        0.88307    0.07368    0.25655    1.000
    C9       C        0.91744    0.02678    0.30989    1.000
    C10      C        0.95120    0.07222    0.36039    1.000
    H5       H        0.97440    0.04400    0.39600    1.000
    C11      C        0.95240    0.16040    0.36083    1.000
    H6       H        0.97730    0.18730    0.39630    1.000
    C12      C        0.98360    0.89116    0.33763    1.000
    H7       H        0.02900    0.91940    0.35530    1.000
    C13      C        0.91687    0.93519    0.31079    1.000
    C14      C        0.85150    0.88875    0.28630    1.000
    H8       H        0.80530    0.91520    0.26840    1.000
    C15      C        0.85490    0.80301    0.28850    1.000
    H9       H        0.81030    0.77300    0.27150    1.000
    C16      C        0.98170    0.80551    0.33775    1.000
    H10      H        0.02680    0.77720    0.35560    1.000
    C17      C        0.13055    0.61707    0.32297    1.000
    C18      C        0.18001    0.61684    0.38638    1.000
    C19      C        0.26580    0.62170    0.38363    1.000
    H11      H        0.29240    0.62440    0.34290    1.000
    C20      C        0.31190    0.62280    0.44123    1.000
    H12      H        0.36950    0.62660    0.43880    1.000
    C21      C        0.27403    0.61817    0.50213    1.000
    C22      C        0.18870    0.61070    0.50485    1.000
    H13      H        0.16240    0.60580    0.54550    1.000
    C23      C        0.14160    0.61060    0.44692    1.000
    H14      H        0.08400    0.60620    0.44930    1.000
    C24      C        0.32560    0.61949    0.56420    1.000
    Cd1      Cd       0.91292    0.61653    0.32093    1.000
    N1       N        0.85073    0.04170    0.20052    1.000
    N2       N        0.85113    0.19663    0.20218    1.000
    N3       N        0.92302    0.47368    0.31816    1.000
    N4       N        0.91891    0.76123    0.31380    1.000
    O1       O        0.05371    0.61850    0.32641    1.000
    O2       O        0.17034    0.61605    0.26977    1.000
    O3       O        0.40220    0.62590    0.56024    1.000
    O4       O        0.29024    0.61410    0.61789    1.000
    S1       S        0.82434    0.12013    0.15550    1.000
    C25      C        0.14181    0.43217    0.20680    1.000
    H15      H        0.18660    0.46250    0.22290    1.000
    C26      C        0.14557    0.34658    0.20984    1.000
    H16      H        0.19200    0.32060    0.22770    1.000
    C27      C        0.08014    0.29966    0.18625    1.000
    C28      C        0.01240    0.34279    0.15974    1.000
    H17      H        0.96690    0.31390    0.14300    1.000
    C29      C        0.01365    0.42830    0.15864    1.000
    H18      H        0.96810    0.45600    0.14090    1.000
    C30      C        0.08115    0.20758    0.18834    1.000
    C31      C        0.11648    0.16282    0.24242    1.000
    C32      C        0.11693    0.07368    0.24345    1.000
    C33      C        0.08256    0.02678    0.19011    1.000
    C34      C        0.04880    0.07222    0.13961    1.000
    H19      H        0.02560    0.04400    0.10400    1.000
    C35      C        0.04760    0.16040    0.13917    1.000
    H20      H        0.02270    0.18730    0.10370    1.000
    C36      C        0.01640    0.89116    0.16237    1.000
    H21      H        0.97100    0.91940    0.14470    1.000
    C37      C        0.08313    0.93519    0.18921    1.000
    C38      C        0.14850    0.88875    0.21370    1.000
    H22      H        0.19470    0.91520    0.23160    1.000
    C39      C        0.14510    0.80301    0.21150    1.000
    H23      H        0.18970    0.77300    0.22850    1.000
    C40      C        0.01830    0.80551    0.16225    1.000
    H24      H        0.97320    0.77720    0.14440    1.000
    C41      C        0.86945    0.61707    0.17703    1.000
    C42      C        0.81999    0.61684    0.11362    1.000
    C43      C        0.73420    0.62170    0.11637    1.000
    H25      H        0.70760    0.62440    0.15710    1.000
    C44      C        0.68810    0.62280    0.05877    1.000
    H26      H        0.63050    0.62660    0.06120    1.000
    C45      C        0.72597    0.61817    0.99787    1.000
    C46      C        0.81130    0.61070    0.99515    1.000
    H27      H        0.83760    0.60580    0.95450    1.000
    C47      C        0.85840    0.61060    0.05308    1.000
    H28      H        0.91600    0.60620    0.05070    1.000
    C48      C        0.67440    0.61949    0.93580    1.000
    Cd2      Cd       0.08708    0.61653    0.17907    1.000
    N5       N        0.14927    0.04170    0.29948    1.000
    N6       N        0.14887    0.19663    0.29782    1.000
    N7       N        0.07698    0.47368    0.18184    1.000
    N8       N        0.08109    0.76123    0.18620    1.000
    O5       O        0.94629    0.61850    0.17359    1.000
    O6       O        0.82966    0.61605    0.23023    1.000
    O7       O        0.59780    0.62590    0.93976    1.000
    O8       O        0.70976    0.61410    0.88211    1.000
    S2       S        0.17566    0.12013    0.34450    1.000
    C49      C        0.35819    0.43217    0.70680    1.000
    H29      H        0.31340    0.46250    0.72290    1.000
    C50      C        0.35443    0.34658    0.70984    1.000
    H30      H        0.30800    0.32060    0.72770    1.000
    C51      C        0.41986    0.29966    0.68625    1.000
    C52      C        0.48760    0.34279    0.65974    1.000
    H31      H        0.53310    0.31390    0.64300    1.000
    C53      C        0.48635    0.42830    0.65864    1.000
    H32      H        0.53190    0.45600    0.64090    1.000
    C54      C        0.41885    0.20758    0.68834    1.000
    C55      C        0.38352    0.16282    0.74242    1.000
    C56      C        0.38307    0.07368    0.74345    1.000
    C57      C        0.41744    0.02678    0.69011    1.000
    C58      C        0.45120    0.07222    0.63961    1.000
    H33      H        0.47440    0.04400    0.60400    1.000
    C59      C        0.45240    0.16040    0.63917    1.000
    H34      H        0.47730    0.18730    0.60370    1.000
    C60      C        0.48360    0.89116    0.66237    1.000
    H35      H        0.52900    0.91940    0.64470    1.000
    C61      C        0.41687    0.93519    0.68921    1.000
    C62      C        0.35150    0.88875    0.71370    1.000
    H36      H        0.30530    0.91520    0.73160    1.000
    C63      C        0.35490    0.80301    0.71150    1.000
    H37      H        0.31030    0.77300    0.72850    1.000
    C64      C        0.48170    0.80551    0.66225    1.000
    H38      H        0.52680    0.77720    0.64440    1.000
    C65      C        0.63055    0.61707    0.67703    1.000
    C66      C        0.68001    0.61684    0.61362    1.000
    C67      C        0.76580    0.62170    0.61637    1.000
    H39      H        0.79240    0.62440    0.65710    1.000
    C68      C        0.81190    0.62280    0.55877    1.000
    H40      H        0.86950    0.62660    0.56120    1.000
    C69      C        0.77403    0.61817    0.49787    1.000
    C70      C        0.68870    0.61070    0.49515    1.000
    H41      H        0.66240    0.60580    0.45450    1.000
    C71      C        0.64160    0.61060    0.55308    1.000
    H42      H        0.58400    0.60620    0.55070    1.000
    C72      C        0.82560    0.61949    0.43580    1.000
    Cd3      Cd       0.41292    0.61653    0.67907    1.000
    N9       N        0.35073    0.04170    0.79948    1.000
    N10      N        0.35113    0.19663    0.79782    1.000
    N11      N        0.42302    0.47368    0.68184    1.000
    N12      N        0.41891    0.76123    0.68620    1.000
    O9       O        0.55371    0.61850    0.67359    1.000
    O10      O        0.67034    0.61605    0.73023    1.000
    O11      O        0.90220    0.62590    0.43976    1.000
    O12      O        0.79024    0.61410    0.38211    1.000
    S3       S        0.32434    0.12013    0.84450    1.000
    C73      C        0.64181    0.43217    0.79320    1.000
    H43      H        0.68660    0.46250    0.77710    1.000
    C74      C        0.64557    0.34658    0.79016    1.000
    H44      H        0.69200    0.32060    0.77230    1.000
    C75      C        0.58014    0.29966    0.81375    1.000
    C76      C        0.51240    0.34279    0.84026    1.000
    H45      H        0.46690    0.31390    0.85700    1.000
    C77      C        0.51365    0.42830    0.84136    1.000
    H46      H        0.46810    0.45600    0.85910    1.000
    C78      C        0.58115    0.20758    0.81166    1.000
    C79      C        0.61648    0.16282    0.75758    1.000
    C80      C        0.61693    0.07368    0.75655    1.000
    C81      C        0.58256    0.02678    0.80989    1.000
    C82      C        0.54880    0.07222    0.86039    1.000
    H47      H        0.52560    0.04400    0.89600    1.000
    C83      C        0.54760    0.16040    0.86083    1.000
    H48      H        0.52270    0.18730    0.89630    1.000
    C84      C        0.51640    0.89116    0.83763    1.000
    H49      H        0.47100    0.91940    0.85530    1.000
    C85      C        0.58313    0.93519    0.81079    1.000
    C86      C        0.64850    0.88875    0.78630    1.000
    H50      H        0.69470    0.91520    0.76840    1.000
    C87      C        0.64510    0.80301    0.78850    1.000
    H51      H        0.68970    0.77300    0.77150    1.000
    C88      C        0.51830    0.80551    0.83775    1.000
    H52      H        0.47320    0.77720    0.85560    1.000
    C89      C        0.36945    0.61707    0.82297    1.000
    C90      C        0.31999    0.61684    0.88638    1.000
    C91      C        0.23420    0.62170    0.88363    1.000
    H53      H        0.20760    0.62440    0.84290    1.000
    C92      C        0.18810    0.62280    0.94123    1.000
    H54      H        0.13050    0.62660    0.93880    1.000
    C93      C        0.22597    0.61817    0.00213    1.000
    C94      C        0.31130    0.61070    0.00485    1.000
    H55      H        0.33760    0.60580    0.04550    1.000
    C95      C        0.35840    0.61060    0.94692    1.000
    H56      H        0.41600    0.60620    0.94930    1.000
    C96      C        0.17440    0.61949    0.06420    1.000
    Cd4      Cd       0.58708    0.61653    0.82093    1.000
    N13      N        0.64927    0.04170    0.70052    1.000
    N14      N        0.64887    0.19663    0.70218    1.000
    N15      N        0.57698    0.47368    0.81816    1.000
    N16      N        0.58109    0.76123    0.81380    1.000
    O13      O        0.44629    0.61850    0.82641    1.000
    O14      O        0.32966    0.61605    0.76977    1.000
    O15      O        0.09780    0.62590    0.06024    1.000
    O16      O        0.20976    0.61410    0.11789    1.000
    S4       S        0.67566    0.12013    0.65550    1.000
    C97      C        0.64181    0.56783    0.29320    1.000
    H57      H        0.68660    0.53750    0.27710    1.000
    C98      C        0.64557    0.65342    0.29016    1.000
    H58      H        0.69200    0.67940    0.27230    1.000
    C99      C        0.58014    0.70034    0.31375    1.000
    C100     C        0.51240    0.65721    0.34026    1.000
    H59      H        0.46690    0.68610    0.35700    1.000
    C101     C        0.51365    0.57170    0.34136    1.000
    H60      H        0.46810    0.54400    0.35910    1.000
    C102     C        0.58115    0.79242    0.31166    1.000
    C103     C        0.61648    0.83718    0.25758    1.000
    C104     C        0.61693    0.92632    0.25655    1.000
    C105     C        0.58256    0.97322    0.30989    1.000
    C106     C        0.54880    0.92778    0.36039    1.000
    H61      H        0.52560    0.95600    0.39600    1.000
    C107     C        0.54760    0.83960    0.36083    1.000
    H62      H        0.52270    0.81270    0.39630    1.000
    C108     C        0.51640    0.10884    0.33763    1.000
    H63      H        0.47100    0.08060    0.35530    1.000
    C109     C        0.58313    0.06481    0.31079    1.000
    C110     C        0.64850    0.11125    0.28630    1.000
    H64      H        0.69470    0.08480    0.26840    1.000
    C111     C        0.64510    0.19699    0.28850    1.000
    H65      H        0.68970    0.22700    0.27150    1.000
    C112     C        0.51830    0.19449    0.33775    1.000
    H66      H        0.47320    0.22280    0.35560    1.000
    C113     C        0.36945    0.38293    0.32297    1.000
    C114     C        0.31999    0.38316    0.38638    1.000
    C115     C        0.23420    0.37830    0.38363    1.000
    H67      H        0.20760    0.37560    0.34290    1.000
    C116     C        0.18810    0.37720    0.44123    1.000
    H68      H        0.13050    0.37340    0.43880    1.000
    C117     C        0.22597    0.38183    0.50213    1.000
    C118     C        0.31130    0.38930    0.50485    1.000
    H69      H        0.33760    0.39420    0.54550    1.000
    C119     C        0.35840    0.38940    0.44692    1.000
    H70      H        0.41600    0.39380    0.44930    1.000
    C120     C        0.17440    0.38051    0.56420    1.000
    Cd5      Cd       0.58708    0.38347    0.32093    1.000
    N17      N        0.64927    0.95830    0.20052    1.000
    N18      N        0.64887    0.80337    0.20218    1.000
    N19      N        0.57698    0.52632    0.31816    1.000
    N20      N        0.58109    0.23877    0.31380    1.000
    O17      O        0.44629    0.38150    0.32641    1.000
    O18      O        0.32966    0.38395    0.26977    1.000
    O19      O        0.09780    0.37410    0.56024    1.000
    O20      O        0.20976    0.38590    0.61789    1.000
    S5       S        0.67566    0.87987    0.15550    1.000
    C121     C        0.35819    0.56783    0.20680    1.000
    H71      H        0.31340    0.53750    0.22290    1.000
    C122     C        0.35443    0.65342    0.20984    1.000
    H72      H        0.30800    0.67940    0.22770    1.000
    C123     C        0.41986    0.70034    0.18625    1.000
    C124     C        0.48760    0.65721    0.15974    1.000
    H73      H        0.53310    0.68610    0.14300    1.000
    C125     C        0.48635    0.57170    0.15864    1.000
    H74      H        0.53190    0.54400    0.14090    1.000
    C126     C        0.41885    0.79242    0.18834    1.000
    C127     C        0.38352    0.83718    0.24242    1.000
    C128     C        0.38307    0.92632    0.24345    1.000
    C129     C        0.41744    0.97322    0.19011    1.000
    C130     C        0.45120    0.92778    0.13961    1.000
    H75      H        0.47440    0.95600    0.10400    1.000
    C131     C        0.45240    0.83960    0.13917    1.000
    H76      H        0.47730    0.81270    0.10370    1.000
    C132     C        0.48360    0.10884    0.16237    1.000
    H77      H        0.52900    0.08060    0.14470    1.000
    C133     C        0.41687    0.06481    0.18921    1.000
    C134     C        0.35150    0.11125    0.21370    1.000
    H78      H        0.30530    0.08480    0.23160    1.000
    C135     C        0.35490    0.19699    0.21150    1.000
    H79      H        0.31030    0.22700    0.22850    1.000
    C136     C        0.48170    0.19449    0.16225    1.000
    H80      H        0.52680    0.22280    0.14440    1.000
    C137     C        0.63055    0.38293    0.17703    1.000
    C138     C        0.68001    0.38316    0.11362    1.000
    C139     C        0.76580    0.37830    0.11637    1.000
    H81      H        0.79240    0.37560    0.15710    1.000
    C140     C        0.81190    0.37720    0.05877    1.000
    H82      H        0.86950    0.37340    0.06120    1.000
    C141     C        0.77403    0.38183    0.99787    1.000
    C142     C        0.68870    0.38930    0.99515    1.000
    H83      H        0.66240    0.39420    0.95450    1.000
    C143     C        0.64160    0.38940    0.05308    1.000
    H84      H        0.58400    0.39380    0.05070    1.000
    C144     C        0.82560    0.38051    0.93580    1.000
    Cd6      Cd       0.41292    0.38347    0.17907    1.000
    N21      N        0.35073    0.95830    0.29948    1.000
    N22      N        0.35113    0.80337    0.29782    1.000
    N23      N        0.42302    0.52632    0.18184    1.000
    N24      N        0.41891    0.23877    0.18620    1.000
    O21      O        0.55371    0.38150    0.17359    1.000
    O22      O        0.67034    0.38395    0.23023    1.000
    O23      O        0.90220    0.37410    0.93976    1.000
    O24      O        0.79024    0.38590    0.88211    1.000
    S6       S        0.32434    0.87987    0.34450    1.000
    C145     C        0.14181    0.56783    0.70680    1.000
    H85      H        0.18660    0.53750    0.72290    1.000
    C146     C        0.14557    0.65342    0.70984    1.000
    H86      H        0.19200    0.67940    0.72770    1.000
    C147     C        0.08014    0.70034    0.68625    1.000
    C148     C        0.01240    0.65721    0.65974    1.000
    H87      H        0.96690    0.68610    0.64300    1.000
    C149     C        0.01365    0.57170    0.65864    1.000
    H88      H        0.96810    0.54400    0.64090    1.000
    C150     C        0.08115    0.79242    0.68834    1.000
    C151     C        0.11648    0.83718    0.74242    1.000
    C152     C        0.11693    0.92632    0.74345    1.000
    C153     C        0.08256    0.97322    0.69011    1.000
    C154     C        0.04880    0.92778    0.63961    1.000
    H89      H        0.02560    0.95600    0.60400    1.000
    C155     C        0.04760    0.83960    0.63917    1.000
    H90      H        0.02270    0.81270    0.60370    1.000
    C156     C        0.01640    0.10884    0.66237    1.000
    H91      H        0.97100    0.08060    0.64470    1.000
    C157     C        0.08313    0.06481    0.68921    1.000
    C158     C        0.14850    0.11125    0.71370    1.000
    H92      H        0.19470    0.08480    0.73160    1.000
    C159     C        0.14510    0.19699    0.71150    1.000
    H93      H        0.18970    0.22700    0.72850    1.000
    C160     C        0.01830    0.19449    0.66225    1.000
    H94      H        0.97320    0.22280    0.64440    1.000
    C161     C        0.86945    0.38293    0.67703    1.000
    C162     C        0.81999    0.38316    0.61362    1.000
    C163     C        0.73420    0.37830    0.61637    1.000
    H95      H        0.70760    0.37560    0.65710    1.000
    C164     C        0.68810    0.37720    0.55877    1.000
    H96      H        0.63050    0.37340    0.56120    1.000
    C165     C        0.72597    0.38183    0.49787    1.000
    C166     C        0.81130    0.38930    0.49515    1.000
    H97      H        0.83760    0.39420    0.45450    1.000
    C167     C        0.85840    0.38940    0.55308    1.000
    H98      H        0.91600    0.39380    0.55070    1.000
    C168     C        0.67440    0.38051    0.43580    1.000
    Cd7      Cd       0.08708    0.38347    0.67907    1.000
    N25      N        0.14927    0.95830    0.79948    1.000
    N26      N        0.14887    0.80337    0.79782    1.000
    N27      N        0.07698    0.52632    0.68184    1.000
    N28      N        0.08109    0.23877    0.68620    1.000
    O25      O        0.94629    0.38150    0.67359    1.000
    O26      O        0.82966    0.38395    0.73023    1.000
    O27      O        0.59780    0.37410    0.43976    1.000
    O28      O        0.70976    0.38590    0.38211    1.000
    S7       S        0.17566    0.87987    0.84450    1.000
    C169     C        0.85819    0.56783    0.79320    1.000
    H99      H        0.81340    0.53750    0.77710    1.000
    C170     C        0.85443    0.65342    0.79016    1.000
    H100     H        0.80800    0.67940    0.77230    1.000
    C171     C        0.91986    0.70034    0.81375    1.000
    C172     C        0.98760    0.65721    0.84026    1.000
    H101     H        0.03310    0.68610    0.85700    1.000
    C173     C        0.98635    0.57170    0.84136    1.000
    H102     H        0.03190    0.54400    0.85910    1.000
    C174     C        0.91885    0.79242    0.81166    1.000
    C175     C        0.88352    0.83718    0.75758    1.000
    C176     C        0.88307    0.92632    0.75655    1.000
    C177     C        0.91744    0.97322    0.80989    1.000
    C178     C        0.95120    0.92778    0.86039    1.000
    H103     H        0.97440    0.95600    0.89600    1.000
    C179     C        0.95240    0.83960    0.86083    1.000
    H104     H        0.97730    0.81270    0.89630    1.000
    C180     C        0.98360    0.10884    0.83763    1.000
    H105     H        0.02900    0.08060    0.85530    1.000
    C181     C        0.91687    0.06481    0.81079    1.000
    C182     C        0.85150    0.11125    0.78630    1.000
    H106     H        0.80530    0.08480    0.76840    1.000
    C183     C        0.85490    0.19699    0.78850    1.000
    H107     H        0.81030    0.22700    0.77150    1.000
    C184     C        0.98170    0.19449    0.83775    1.000
    H108     H        0.02680    0.22280    0.85560    1.000
    C185     C        0.13055    0.38293    0.82297    1.000
    C186     C        0.18001    0.38316    0.88638    1.000
    C187     C        0.26580    0.37830    0.88363    1.000
    H109     H        0.29240    0.37560    0.84290    1.000
    C188     C        0.31190    0.37720    0.94123    1.000
    H110     H        0.36950    0.37340    0.93880    1.000
    C189     C        0.27403    0.38183    0.00213    1.000
    C190     C        0.18870    0.38930    0.00485    1.000
    H111     H        0.16240    0.39420    0.04550    1.000
    C191     C        0.14160    0.38940    0.94692    1.000
    H112     H        0.08400    0.39380    0.94930    1.000
    C192     C        0.32560    0.38051    0.06420    1.000
    Cd8      Cd       0.91292    0.38347    0.82093    1.000
    N29      N        0.85073    0.95830    0.70052    1.000
    N30      N        0.85113    0.80337    0.70218    1.000
    N31      N        0.92302    0.52632    0.81816    1.000
    N32      N        0.91891    0.23877    0.81380    1.000
    O29      O        0.05371    0.38150    0.82641    1.000
    O30      O        0.17034    0.38395    0.76977    1.000
    O31      O        0.40220    0.37410    0.06024    1.000
    O32      O        0.29024    0.38590    0.11789    1.000
    S8       S        0.82434    0.87987    0.65550    1.000
