data_functionalizedCrystal
_audit_creation_method	'EQeq! by Chris Wilmer'
_symmetry_space_group_name_H-M	'P1'
_symmetry_Int_Tables_number	1
_symmetry_cell_setting	triclinic
loop_
_symmetry_equiv_pos_as_xyz
  x,y,z
_cell_length_a	35.0615
_cell_length_b	14.9665
_cell_length_c	30.3099
_cell_angle_alpha	90
_cell_angle_beta	101.487
_cell_angle_gamma	90
loop_
_atom_site_label
_atom_site_type_symbol
_atom_site_fract_x
_atom_site_fract_y
_atom_site_fract_z
_atom_site_charge
Mof_I 	I 	0.35278	0.5869	0.51617	0.452
Mof_Zn	Zn	0.37213	0.59356	0.44379	0.797
Mof_N 	N 	0.3299	0.5313	0.3969	-0.324
Mof_N 	N 	0.4188	0.5104	0.4464	-0.302
Mof_I 	I 	0.38626	0.7363	0.41507	0.009
Mof_C 	C 	0.3059	0.5762	0.365	0.067
Mof_C 	C 	0.3234	0.4449	0.4007	0.066
Mof_H 	H 	0.3092	0.639	0.3631	-0.014
Mof_C 	C 	0.277	0.5364	0.335	-0.118
Mof_C 	C 	0.295	0.3989	0.3713	-0.117
Mof_H 	H 	0.339	0.4129	0.4248	-0.017
Mof_H 	H 	0.2612	0.5709	0.312	0.08
Mof_C 	C 	0.2706	0.4446	0.3378	0.042
Mof_H 	H 	0.2924	0.3361	0.3742	0.083
Mof_C 	C 	0.2395	0.4008	0.3059	0.082
Mof_N 	N 	0.21953	0.4513	0.2728	-0.143
Mof_N 	N 	0.23333	0.3126	0.3115	-0.142
Mof_C 	C 	0.1902	0.4097	0.2458	0.098
Mof_C 	C 	0.2044	0.2782	0.2812	0.094
Mof_C 	C 	0.1666	0.4603	0.2082	0.066
Mof_N 	N 	0.18103	0.3234	0.249	-0.133
Mof_C 	C 	0.1974	0.1796	0.2816	0.068
Mof_C 	C 	0.1747	0.5491	0.2	-0.129
Mof_C 	C 	0.1362	0.4207	0.1798	-0.13
Mof_C 	C 	0.1688	0.1426	0.2497	-0.138
Mof_C 	C 	0.2204	0.1232	0.311	-0.135
Mof_C 	C 	0.1512	0.5921	0.1639	0.079
Mof_H 	H 	0.1958	0.5795	0.2186	0.068
Mof_H 	H 	0.1307	0.3592	0.1831	0.099
Mof_C 	C 	0.114	0.4695	0.1469	0.083
Mof_C 	C 	0.1635	0.0517	0.2493	0.085
Mof_H 	H 	0.1528	0.1792	0.228	0.09
Mof_H 	H 	0.2407	0.1459	0.3338	0.084
Mof_C 	C 	0.2135	0.033	0.307	0.083
Mof_H 	H 	0.1575	0.6518	0.1574	-0.021
Mof_N 	N 	0.12111	0.5548	0.13861	-0.276
Mof_H 	H 	0.0921	0.4415	0.1286	-0.007
Mof_H 	H 	0.1427	0.0273	0.2277	-0.021
Mof_N 	N 	0.1854	0.9967	0.277	-0.282
Mof_H 	H 	0.23	0.9943	0.3271	-0.004
Mof_Zn	Zn	0.08049	0.62609	0.09246	1.16
Mof_Zn	Zn	0.1714	0.8606	0.2699	0.542
Mof_I 	I 	0.02507	0.65405	0.13411	-0.293
Mof_I 	I 	0.11341	0.741	0.0545	-0.115
Mof_N 	N 	0.06331	0.5237	0.04638	-0.275
Mof_N 	N 	0.1394	0.844	0.3203	-0.28
Mof_I 	I 	0.2386	0.7746	0.3036	-0.139
Mof_I 	I 	0.12664	0.8384	0.19357	-0.323
Mof_C 	C 	0.1054	0.8831	0.3149	0.085
Mof_C 	C 	0.1499	0.789	0.3555	0.067
Mof_C 	C 	0.0802	0.8706	0.3445	-0.115
Mof_H 	H 	0.0976	0.9215	0.2898	-0.021
Mof_C 	C 	0.1259	0.7712	0.3856	-0.108
Mof_H 	H 	0.1747	0.7612	0.3599	-0.003
Mof_C 	C 	0.0904	0.8116	0.3804	0.06
Mof_H 	H 	0.0562	0.9022	0.3403	0.083
Mof_H 	H 	0.1341	0.7309	0.4099	0.072
Mof_C 	C 	0.0649	0.7966	0.4121	0.085
Mof_N 	N 	0.0714	0.7229	0.4377	-0.143
Mof_N 	N 	0.0362	0.856	0.4139	-0.136
Mof_C 	C 	0.0474	0.7132	0.4666	0.077
Mof_C 	C 	0.0151	0.8385	0.4447	0.083
Mof_N 	N 	0.01999	0.7702	0.47283	-0.152
Mof_C 	C 	0.0526	0.6292	0.4945	0.056
Mof_C 	C 	0.9825	0.8998	0.4458	0.052
Mof_C 	C 	0.0803	0.5683	0.4891	-0.127
Mof_C 	C 	0.0289	0.6109	0.524	-0.128
Mof_C 	C 	0.9649	0.9466	0.409	-0.134
Mof_C 	C 	0.966	0.908	0.4841	-0.122
Mof_C 	C 	0.085	0.4931	0.5162	0.07
Mof_H 	H 	0.096	0.5773	0.4672	0.079
Mof_H 	H 	0.0084	0.6505	0.5271	0.075
Mof_C 	C 	0.0352	0.5337	0.5494	0.079
Mof_C 	C 	0.9338	0.9995	0.4096	0.085
Mof_H 	H 	0.9747	0.942	0.3821	0.088
Mof_C 	C 	0.935	0.9636	0.483	0.066
Mof_H 	H 	0.9764	0.8752	0.5106	0.077
Mof_H 	H 	0.1047	0.4515	0.5131	-0.016
Mof_H 	H 	0.0187	0.5212	0.57	-0.011
Mof_H 	H 	0.9222	0.0301	0.3828	-0.02
Mof_H 	H 	0.9244	0.9693	0.5093	-0.023
Mof_Zn	Zn	0.3592	0.5886	0.4609	0.782
Mof_Zn	Zn	0.6776	0.3608	0.2794	0.629
Mof_I 	I 	0.3426	0.5592	0.5246	-1.019
Mof_I 	I 	0.392	0.74	0.4018	-0.404
Mof_I 	I 	0.0304	0.6566	0.1282	-0.048
Mof_I 	I 	0.1213	0.7351	0.0535	-0.219
Mof_I 	I 	0.732	0.267	0.29378	0.378
Mof_I 	I 	0.739	0.2912	0.319	-0.604
Mof_I 	I 	0.6358	0.3287	0.2013	-0.056
Mof_I 	I 	0.85278	0.0869	0.51617	0.451
Mof_Zn	Zn	0.87213	0.09356	0.44379	0.796
Mof_N 	N 	0.8299	0.0313	0.3969	-0.325
Mof_N 	N 	0.9188	0.0104	0.4464	-0.303
Mof_I 	I 	0.88626	0.2363	0.41507	0.007
Mof_C 	C 	0.8059	0.0762	0.365	0.066
Mof_C 	C 	0.8234	0.9449	0.4007	0.066
Mof_H 	H 	0.8092	0.139	0.3631	-0.015
Mof_C 	C 	0.777	0.0364	0.335	-0.12
Mof_C 	C 	0.795	0.8989	0.3713	-0.118
Mof_H 	H 	0.839	0.9129	0.4248	-0.018
Mof_H 	H 	0.7612	0.0709	0.312	0.079
Mof_C 	C 	0.7706	0.9446	0.3378	0.042
Mof_H 	H 	0.7924	0.8361	0.3742	0.082
Mof_C 	C 	0.7395	0.9008	0.3059	0.081
Mof_N 	N 	0.71953	0.9513	0.2728	-0.144
Mof_N 	N 	0.73333	0.8126	0.3115	-0.143
Mof_C 	C 	0.6902	0.9097	0.2458	0.097
Mof_C 	C 	0.7044	0.7782	0.2812	0.093
Mof_C 	C 	0.6666	0.9603	0.2082	0.066
Mof_N 	N 	0.68103	0.8234	0.249	-0.134
Mof_C 	C 	0.6974	0.6796	0.2816	0.068
Mof_C 	C 	0.6747	0.0491	0.2	-0.13
Mof_C 	C 	0.6362	0.9207	0.1798	-0.13
Mof_C 	C 	0.6688	0.6426	0.2497	-0.138
Mof_C 	C 	0.7204	0.6232	0.311	-0.135
Mof_C 	C 	0.6512	0.0921	0.1639	0.079
Mof_H 	H 	0.6958	0.0795	0.2186	0.068
Mof_H 	H 	0.6307	0.8592	0.1831	0.099
Mof_C 	C 	0.614	0.9695	0.1469	0.083
Mof_C 	C 	0.6635	0.5517	0.2493	0.086
Mof_H 	H 	0.6528	0.6792	0.228	0.09
Mof_H 	H 	0.7407	0.6459	0.3338	0.084
Mof_C 	C 	0.7135	0.533	0.307	0.083
Mof_H 	H 	0.6575	0.1518	0.1574	-0.022
Mof_N 	N 	0.62111	0.0548	0.13861	-0.276
Mof_H 	H 	0.5921	0.9415	0.1286	-0.008
Mof_H 	H 	0.6427	0.5273	0.2277	-0.021
Mof_N 	N 	0.6854	0.4967	0.277	-0.282
Mof_H 	H 	0.73	0.4943	0.3271	-0.005
Mof_Zn	Zn	0.58049	0.12609	0.09246	1.16
Mof_Zn	Zn	0.6714	0.3606	0.2699	0.542
Mof_I 	I 	0.52507	0.15405	0.13411	-0.293
Mof_I 	I 	0.61341	0.241	0.0545	-0.115
Mof_N 	N 	0.56331	0.0237	0.04638	-0.275
Mof_N 	N 	0.6394	0.344	0.3203	-0.28
Mof_I 	I 	0.7386	0.2746	0.3036	-0.139
Mof_I 	I 	0.62664	0.3384	0.19357	-0.323
Mof_C 	C 	0.6054	0.3831	0.3149	0.085
Mof_C 	C 	0.6499	0.289	0.3555	0.067
Mof_C 	C 	0.5802	0.3706	0.3445	-0.115
Mof_H 	H 	0.5976	0.4215	0.2898	-0.021
Mof_C 	C 	0.6259	0.2712	0.3856	-0.108
Mof_H 	H 	0.6747	0.2612	0.3599	-0.003
Mof_C 	C 	0.5904	0.3116	0.3804	0.06
Mof_H 	H 	0.5562	0.4022	0.3403	0.083
Mof_H 	H 	0.6341	0.2309	0.4099	0.072
Mof_C 	C 	0.5649	0.2966	0.4121	0.085
Mof_N 	N 	0.5714	0.2229	0.4377	-0.143
Mof_N 	N 	0.5362	0.356	0.4139	-0.136
Mof_C 	C 	0.5474	0.2132	0.4666	0.077
Mof_C 	C 	0.5151	0.3385	0.4447	0.083
Mof_N 	N 	0.51999	0.2702	0.47283	-0.152
Mof_C 	C 	0.5526	0.1292	0.4945	0.056
Mof_C 	C 	0.4825	0.3998	0.4458	0.052
Mof_C 	C 	0.5803	0.0683	0.4891	-0.126
Mof_C 	C 	0.5289	0.1109	0.524	-0.128
Mof_C 	C 	0.4649	0.4466	0.409	-0.133
Mof_C 	C 	0.466	0.408	0.4841	-0.122
Mof_C 	C 	0.585	0.9931	0.5162	0.07
Mof_H 	H 	0.596	0.0773	0.4672	0.079
Mof_H 	H 	0.5084	0.1505	0.5271	0.075
Mof_C 	C 	0.5352	0.0337	0.5494	0.079
Mof_C 	C 	0.4338	0.4995	0.4096	0.085
Mof_H 	H 	0.4747	0.442	0.3821	0.088
Mof_C 	C 	0.435	0.4636	0.483	0.066
Mof_H 	H 	0.4764	0.3752	0.5106	0.077
Mof_H 	H 	0.6047	0.9515	0.5131	-0.016
Mof_H 	H 	0.5187	0.0212	0.57	-0.011
Mof_H 	H 	0.4222	0.5301	0.3828	-0.02
Mof_H 	H 	0.4244	0.4693	0.5093	-0.023
Mof_Zn	Zn	0.8592	0.0886	0.4609	0.782
Mof_Zn	Zn	0.1776	0.8608	0.2794	0.629
Mof_I 	I 	0.8426	0.0592	0.5246	-1.019
Mof_I 	I 	0.892	0.24	0.4018	-0.404
Mof_I 	I 	0.5304	0.1566	0.1282	-0.049
Mof_I 	I 	0.6213	0.2351	0.0535	-0.22
Mof_I 	I 	0.232	0.767	0.29378	0.378
Mof_I 	I 	0.239	0.7912	0.319	-0.604
Mof_I 	I 	0.1358	0.8287	0.2013	-0.056
Mof_I 	I 	0.35278	0.4131	0.01617	0.451
Mof_Zn	Zn	0.37213	0.40644	0.94379	0.796
Mof_N 	N 	0.3299	0.4687	0.8969	-0.325
Mof_N 	N 	0.4188	0.4896	0.9464	-0.303
Mof_I 	I 	0.38626	0.2637	0.91507	0.008
Mof_C 	C 	0.3059	0.4238	0.865	0.066
Mof_C 	C 	0.3234	0.5551	0.9007	0.065
Mof_H 	H 	0.3092	0.361	0.8631	-0.015
Mof_C 	C 	0.277	0.4636	0.835	-0.119
Mof_C 	C 	0.295	0.6011	0.8713	-0.118
Mof_H 	H 	0.339	0.5871	0.9248	-0.018
Mof_H 	H 	0.2612	0.4291	0.812	0.079
Mof_C 	C 	0.2706	0.5554	0.8378	0.041
Mof_H 	H 	0.2924	0.6639	0.8742	0.082
Mof_C 	C 	0.2395	0.5992	0.8059	0.081
Mof_N 	N 	0.21953	0.5487	0.7728	-0.144
Mof_N 	N 	0.23333	0.6874	0.8115	-0.143
Mof_C 	C 	0.1902	0.5903	0.7458	0.097
Mof_C 	C 	0.2044	0.7218	0.7812	0.093
Mof_C 	C 	0.1666	0.5397	0.7082	0.065
Mof_N 	N 	0.18103	0.6766	0.749	-0.134
Mof_C 	C 	0.1974	0.8204	0.7816	0.067
Mof_C 	C 	0.1747	0.4509	0.7	-0.129
Mof_C 	C 	0.1362	0.5793	0.6798	-0.13
Mof_C 	C 	0.1688	0.8574	0.7497	-0.138
Mof_C 	C 	0.2204	0.8768	0.811	-0.134
Mof_C 	C 	0.1512	0.4079	0.6639	0.079
Mof_H 	H 	0.1958	0.4205	0.7186	0.068
Mof_H 	H 	0.1307	0.6408	0.6831	0.099
Mof_C 	C 	0.114	0.5305	0.6469	0.083
Mof_C 	C 	0.1635	0.9483	0.7493	0.085
Mof_H 	H 	0.1528	0.8208	0.728	0.09
Mof_H 	H 	0.2407	0.8541	0.8338	0.084
Mof_C 	C 	0.2135	0.967	0.807	0.082
Mof_H 	H 	0.1575	0.3482	0.6574	-0.021
Mof_N 	N 	0.12111	0.4452	0.63861	-0.276
Mof_H 	H 	0.0921	0.5585	0.6286	-0.007
Mof_H 	H 	0.1427	0.9727	0.7277	-0.021
Mof_N 	N 	0.1854	0.0033	0.777	-0.281
Mof_H 	H 	0.23	0.0057	0.8271	-0.004
Mof_Zn	Zn	0.08049	0.37391	0.59246	1.16
Mof_Zn	Zn	0.1714	0.1394	0.7699	0.542
Mof_I 	I 	0.02507	0.34595	0.63411	-0.293
Mof_I 	I 	0.11341	0.259	0.5545	-0.115
Mof_N 	N 	0.06331	0.4763	0.54638	-0.275
Mof_N 	N 	0.1394	0.156	0.8203	-0.28
Mof_I 	I 	0.2386	0.2254	0.8036	-0.139
Mof_I 	I 	0.12664	0.1616	0.69357	-0.323
Mof_C 	C 	0.1054	0.1169	0.8149	0.085
Mof_C 	C 	0.1499	0.211	0.8555	0.067
Mof_C 	C 	0.0802	0.1294	0.8445	-0.115
Mof_H 	H 	0.0976	0.0785	0.7898	-0.021
Mof_C 	C 	0.1259	0.2288	0.8856	-0.108
Mof_H 	H 	0.1747	0.2388	0.8599	-0.003
Mof_C 	C 	0.0904	0.1884	0.8804	0.06
Mof_H 	H 	0.0562	0.0978	0.8403	0.083
Mof_H 	H 	0.1341	0.2691	0.9099	0.072
Mof_C 	C 	0.0649	0.2034	0.9121	0.085
Mof_N 	N 	0.0714	0.2771	0.9377	-0.143
Mof_N 	N 	0.0362	0.144	0.9139	-0.136
Mof_C 	C 	0.0474	0.2868	0.9666	0.077
Mof_C 	C 	0.0151	0.1615	0.9447	0.083
Mof_N 	N 	0.01999	0.2298	0.97283	-0.152
Mof_C 	C 	0.0526	0.3708	0.9945	0.056
Mof_C 	C 	0.9825	0.1002	0.9458	0.053
Mof_C 	C 	0.0803	0.4317	0.9891	-0.126
Mof_C 	C 	0.0289	0.3891	0.024	-0.128
Mof_C 	C 	0.9649	0.0534	0.909	-0.134
Mof_C 	C 	0.966	0.092	0.9841	-0.122
Mof_C 	C 	0.085	0.5069	0.0162	0.07
Mof_H 	H 	0.096	0.4227	0.9672	0.079
Mof_H 	H 	0.0084	0.3495	0.0271	0.076
Mof_C 	C 	0.0352	0.4663	0.0494	0.079
Mof_C 	C 	0.9338	0.0005	0.9096	0.086
Mof_H 	H 	0.9747	0.058	0.8821	0.088
Mof_C 	C 	0.935	0.0364	0.983	0.067
Mof_H 	H 	0.9764	0.1248	0.0106	0.077
Mof_H 	H 	0.1047	0.5485	0.0131	-0.016
Mof_H 	H 	0.0187	0.4788	0.07	-0.011
Mof_H 	H 	0.9222	0.9699	0.8828	-0.021
Mof_H 	H 	0.9244	0.0307	0.0093	-0.024
Mof_Zn	Zn	0.3592	0.4114	0.9609	0.782
Mof_Zn	Zn	0.6776	0.6392	0.7794	0.629
Mof_I 	I 	0.3426	0.4408	0.0246	-1.019
Mof_I 	I 	0.392	0.26	0.9018	-0.403
Mof_I 	I 	0.0304	0.3434	0.6282	-0.048
Mof_I 	I 	0.1213	0.2649	0.5535	-0.219
Mof_I 	I 	0.732	0.733	0.79378	0.378
Mof_I 	I 	0.739	0.7088	0.819	-0.604
Mof_I 	I 	0.6358	0.6713	0.7013	-0.056
Mof_I 	I 	0.85278	0.9131	0.01617	0.451
Mof_Zn	Zn	0.87213	0.90644	0.94379	0.796
Mof_N 	N 	0.8299	0.9687	0.8969	-0.325
Mof_N 	N 	0.9188	0.9896	0.9464	-0.304
Mof_I 	I 	0.88626	0.7637	0.91507	0.007
Mof_C 	C 	0.8059	0.9238	0.865	0.066
Mof_C 	C 	0.8234	0.0551	0.9007	0.066
Mof_H 	H 	0.8092	0.861	0.8631	-0.015
Mof_C 	C 	0.777	0.9636	0.835	-0.12
Mof_C 	C 	0.795	0.1011	0.8713	-0.118
Mof_H 	H 	0.839	0.0871	0.9248	-0.019
Mof_H 	H 	0.7612	0.9291	0.812	0.079
Mof_C 	C 	0.7706	0.0554	0.8378	0.042
Mof_H 	H 	0.7924	0.1639	0.8742	0.082
Mof_C 	C 	0.7395	0.0992	0.8059	0.081
Mof_N 	N 	0.71953	0.0487	0.7728	-0.144
Mof_N 	N 	0.73333	0.1874	0.8115	-0.143
Mof_C 	C 	0.6902	0.0903	0.7458	0.097
Mof_C 	C 	0.7044	0.2218	0.7812	0.093
Mof_C 	C 	0.6666	0.0397	0.7082	0.065
Mof_N 	N 	0.68103	0.1766	0.749	-0.134
Mof_C 	C 	0.6974	0.3204	0.7816	0.068
Mof_C 	C 	0.6747	0.9509	0.7	-0.13
Mof_C 	C 	0.6362	0.0793	0.6798	-0.13
Mof_C 	C 	0.6688	0.3574	0.7497	-0.138
Mof_C 	C 	0.7204	0.3768	0.811	-0.135
Mof_C 	C 	0.6512	0.9079	0.6639	0.079
Mof_H 	H 	0.6958	0.9205	0.7186	0.068
Mof_H 	H 	0.6307	0.1408	0.6831	0.099
Mof_C 	C 	0.614	0.0305	0.6469	0.083
Mof_C 	C 	0.6635	0.4483	0.7493	0.086
Mof_H 	H 	0.6528	0.3208	0.728	0.09
Mof_H 	H 	0.7407	0.3541	0.8338	0.084
Mof_C 	C 	0.7135	0.467	0.807	0.083
Mof_H 	H 	0.6575	0.8482	0.6574	-0.021
Mof_N 	N 	0.62111	0.9452	0.63861	-0.276
Mof_H 	H 	0.5921	0.0585	0.6286	-0.007
Mof_H 	H 	0.6427	0.4727	0.7277	-0.021
Mof_N 	N 	0.6854	0.5033	0.777	-0.282
Mof_H 	H 	0.73	0.5057	0.8271	-0.005
Mof_Zn	Zn	0.58049	0.87391	0.59246	1.16
Mof_Zn	Zn	0.6714	0.6394	0.7699	0.542
Mof_I 	I 	0.52507	0.84595	0.63411	-0.293
Mof_I 	I 	0.61341	0.759	0.5545	-0.115
Mof_N 	N 	0.56331	0.9763	0.54638	-0.275
Mof_N 	N 	0.6394	0.656	0.8203	-0.28
Mof_I 	I 	0.7386	0.7254	0.8036	-0.139
Mof_I 	I 	0.62664	0.6616	0.69357	-0.323
Mof_C 	C 	0.6054	0.6169	0.8149	0.085
Mof_C 	C 	0.6499	0.711	0.8555	0.067
Mof_C 	C 	0.5802	0.6294	0.8445	-0.115
Mof_H 	H 	0.5976	0.5785	0.7898	-0.021
Mof_C 	C 	0.6259	0.7288	0.8856	-0.108
Mof_H 	H 	0.6747	0.7388	0.8599	-0.003
Mof_C 	C 	0.5904	0.6884	0.8804	0.06
Mof_H 	H 	0.5562	0.5978	0.8403	0.083
Mof_H 	H 	0.6341	0.7691	0.9099	0.072
Mof_C 	C 	0.5649	0.7034	0.9121	0.085
Mof_N 	N 	0.5714	0.7771	0.9377	-0.143
Mof_N 	N 	0.5362	0.644	0.9139	-0.136
Mof_C 	C 	0.5474	0.7868	0.9666	0.077
Mof_C 	C 	0.5151	0.6615	0.9447	0.083
Mof_N 	N 	0.51999	0.7298	0.97283	-0.152
Mof_C 	C 	0.5526	0.8708	0.9945	0.055
Mof_C 	C 	0.4825	0.6002	0.9458	0.052
Mof_C 	C 	0.5803	0.9317	0.9891	-0.126
Mof_C 	C 	0.5289	0.8891	0.024	-0.127
Mof_C 	C 	0.4649	0.5534	0.909	-0.133
Mof_C 	C 	0.466	0.592	0.9841	-0.122
Mof_C 	C 	0.585	0.0069	0.0162	0.07
Mof_H 	H 	0.596	0.9227	0.9672	0.079
Mof_H 	H 	0.5084	0.8495	0.0271	0.075
Mof_C 	C 	0.5352	0.9663	0.0494	0.079
Mof_C 	C 	0.4338	0.5005	0.9096	0.085
Mof_H 	H 	0.4747	0.558	0.8821	0.088
Mof_C 	C 	0.435	0.5364	0.983	0.066
Mof_H 	H 	0.4764	0.6248	0.0106	0.077
Mof_H 	H 	0.6047	0.0485	0.0131	-0.016
Mof_H 	H 	0.5187	0.9788	0.07	-0.011
Mof_H 	H 	0.4222	0.4699	0.8828	-0.02
Mof_H 	H 	0.4244	0.5307	0.0093	-0.023
Mof_Zn	Zn	0.8592	0.9114	0.9609	0.782
Mof_Zn	Zn	0.1776	0.1392	0.7794	0.629
Mof_I 	I 	0.8426	0.9408	0.0246	-1.018
Mof_I 	I 	0.892	0.76	0.9018	-0.404
Mof_I 	I 	0.5304	0.8434	0.6282	-0.048
Mof_I 	I 	0.6213	0.7649	0.5535	-0.219
Mof_I 	I 	0.232	0.233	0.79378	0.378
Mof_I 	I 	0.239	0.2088	0.819	-0.604
Mof_I 	I 	0.1358	0.1713	0.7013	-0.056
Mof_I 	I 	0.64722	0.5869	0.98383	0.451
Mof_Zn	Zn	0.62787	0.59356	0.05621	0.796
Mof_N 	N 	0.6701	0.5313	0.1031	-0.325
Mof_N 	N 	0.5812	0.5104	0.0536	-0.303
Mof_I 	I 	0.61374	0.7363	0.08493	0.008
Mof_C 	C 	0.6941	0.5762	0.135	0.066
Mof_C 	C 	0.6766	0.4449	0.0993	0.065
Mof_H 	H 	0.6908	0.639	0.1369	-0.015
Mof_C 	C 	0.723	0.5364	0.165	-0.119
Mof_C 	C 	0.705	0.3989	0.1287	-0.118
Mof_H 	H 	0.661	0.4129	0.0752	-0.018
Mof_H 	H 	0.7388	0.5709	0.188	0.079
Mof_C 	C 	0.7294	0.4446	0.1622	0.041
Mof_H 	H 	0.7076	0.3361	0.1258	0.082
Mof_C 	C 	0.7605	0.4008	0.1941	0.081
Mof_N 	N 	0.78047	0.4513	0.2272	-0.144
Mof_N 	N 	0.76667	0.3126	0.1885	-0.143
Mof_C 	C 	0.8098	0.4097	0.2542	0.097
Mof_C 	C 	0.7956	0.2782	0.2188	0.093
Mof_C 	C 	0.8334	0.4603	0.2918	0.065
Mof_N 	N 	0.81897	0.3234	0.251	-0.134
Mof_C 	C 	0.8026	0.1796	0.2184	0.067
Mof_C 	C 	0.8253	0.5491	0.3	-0.129
Mof_C 	C 	0.8638	0.4207	0.3202	-0.13
Mof_C 	C 	0.8312	0.1426	0.2503	-0.138
Mof_C 	C 	0.7796	0.1232	0.189	-0.134
Mof_C 	C 	0.8488	0.5921	0.3361	0.079
Mof_H 	H 	0.8042	0.5795	0.2814	0.068
Mof_H 	H 	0.8693	0.3592	0.3169	0.099
Mof_C 	C 	0.886	0.4695	0.3531	0.083
Mof_C 	C 	0.8365	0.0517	0.2507	0.085
Mof_H 	H 	0.8472	0.1792	0.272	0.09
Mof_H 	H 	0.7593	0.1459	0.1662	0.084
Mof_C 	C 	0.7865	0.033	0.193	0.082
Mof_H 	H 	0.8425	0.6518	0.3426	-0.021
Mof_N 	N 	0.87889	0.5548	0.36139	-0.276
Mof_H 	H 	0.9079	0.4415	0.3714	-0.007
Mof_H 	H 	0.8573	0.0273	0.2723	-0.021
Mof_N 	N 	0.8146	0.9967	0.223	-0.281
Mof_H 	H 	0.77	0.9943	0.1729	-0.004
Mof_Zn	Zn	0.91951	0.62609	0.40754	1.16
Mof_Zn	Zn	0.8286	0.8606	0.2301	0.542
Mof_I 	I 	0.97493	0.65405	0.36589	-0.293
Mof_I 	I 	0.88659	0.741	0.4455	-0.115
Mof_N 	N 	0.93669	0.5237	0.45362	-0.275
Mof_N 	N 	0.8606	0.844	0.1797	-0.28
Mof_I 	I 	0.7614	0.7746	0.1964	-0.139
Mof_I 	I 	0.87336	0.8384	0.30643	-0.323
Mof_C 	C 	0.8946	0.8831	0.1851	0.085
Mof_C 	C 	0.8501	0.789	0.1445	0.067
Mof_C 	C 	0.9198	0.8706	0.1555	-0.115
Mof_H 	H 	0.9024	0.9215	0.2102	-0.021
Mof_C 	C 	0.8741	0.7712	0.1144	-0.108
Mof_H 	H 	0.8253	0.7612	0.1401	-0.003
Mof_C 	C 	0.9096	0.8116	0.1196	0.06
Mof_H 	H 	0.9438	0.9022	0.1597	0.083
Mof_H 	H 	0.8659	0.7309	0.0901	0.072
Mof_C 	C 	0.9351	0.7966	0.0879	0.085
Mof_N 	N 	0.9286	0.7229	0.0623	-0.143
Mof_N 	N 	0.9638	0.856	0.0861	-0.136
Mof_C 	C 	0.9526	0.7132	0.0334	0.077
Mof_C 	C 	0.9849	0.8385	0.0553	0.083
Mof_N 	N 	0.98001	0.7702	0.02717	-0.152
Mof_C 	C 	0.9474	0.6292	0.0055	0.056
Mof_C 	C 	0.0175	0.8998	0.0542	0.053
Mof_C 	C 	0.9197	0.5683	0.0109	-0.126
Mof_C 	C 	0.9711	0.6109	0.976	-0.128
Mof_C 	C 	0.0351	0.9466	0.091	-0.134
Mof_C 	C 	0.034	0.908	0.0159	-0.122
Mof_C 	C 	0.915	0.4931	0.9838	0.07
Mof_H 	H 	0.904	0.5773	0.0328	0.079
Mof_H 	H 	0.9916	0.6505	0.9729	0.076
Mof_C 	C 	0.9648	0.5337	0.9506	0.079
Mof_C 	C 	0.0662	0.9995	0.0904	0.086
Mof_H 	H 	0.0253	0.942	0.1179	0.088
Mof_C 	C 	0.065	0.9636	0.017	0.067
Mof_H 	H 	0.0236	0.8752	0.9894	0.077
Mof_H 	H 	0.8953	0.4515	0.9869	-0.016
Mof_H 	H 	0.9813	0.5212	0.93	-0.011
Mof_H 	H 	0.0778	0.0301	0.1172	-0.021
Mof_H 	H 	0.0756	0.9693	0.9907	-0.024
Mof_Zn	Zn	0.6408	0.5886	0.0391	0.782
Mof_Zn	Zn	0.3224	0.3608	0.2206	0.629
Mof_I 	I 	0.6574	0.5592	0.9754	-1.019
Mof_I 	I 	0.608	0.74	0.0982	-0.403
Mof_I 	I 	0.9696	0.6566	0.3718	-0.048
Mof_I 	I 	0.8787	0.7351	0.4465	-0.219
Mof_I 	I 	0.268	0.267	0.20622	0.378
Mof_I 	I 	0.261	0.2912	0.181	-0.604
Mof_I 	I 	0.3642	0.3287	0.2987	-0.056
Mof_I 	I 	0.14722	0.0869	0.98383	0.451
Mof_Zn	Zn	0.12787	0.09356	0.05621	0.796
Mof_N 	N 	0.1701	0.0313	0.1031	-0.325
Mof_N 	N 	0.0812	0.0104	0.0536	-0.304
Mof_I 	I 	0.11374	0.2363	0.08493	0.007
Mof_C 	C 	0.1941	0.0762	0.135	0.066
Mof_C 	C 	0.1766	0.9449	0.0993	0.066
Mof_H 	H 	0.1908	0.139	0.1369	-0.015
Mof_C 	C 	0.223	0.0364	0.165	-0.12
Mof_C 	C 	0.205	0.8989	0.1287	-0.118
Mof_H 	H 	0.161	0.9129	0.0752	-0.019
Mof_H 	H 	0.2388	0.0709	0.188	0.079
Mof_C 	C 	0.2294	0.9446	0.1622	0.042
Mof_H 	H 	0.2076	0.8361	0.1258	0.082
Mof_C 	C 	0.2605	0.9008	0.1941	0.081
Mof_N 	N 	0.28047	0.9513	0.2272	-0.144
Mof_N 	N 	0.26667	0.8126	0.1885	-0.143
Mof_C 	C 	0.3098	0.9097	0.2542	0.097
Mof_C 	C 	0.2956	0.7782	0.2188	0.093
Mof_C 	C 	0.3334	0.9603	0.2918	0.065
Mof_N 	N 	0.31897	0.8234	0.251	-0.134
Mof_C 	C 	0.3026	0.6796	0.2184	0.068
Mof_C 	C 	0.3253	0.0491	0.3	-0.13
Mof_C 	C 	0.3638	0.9207	0.3202	-0.13
Mof_C 	C 	0.3312	0.6426	0.2503	-0.138
Mof_C 	C 	0.2796	0.6232	0.189	-0.135
Mof_C 	C 	0.3488	0.0921	0.3361	0.079
Mof_H 	H 	0.3042	0.0795	0.2814	0.068
Mof_H 	H 	0.3693	0.8592	0.3169	0.099
Mof_C 	C 	0.386	0.9695	0.3531	0.083
Mof_C 	C 	0.3365	0.5517	0.2507	0.086
Mof_H 	H 	0.3472	0.6792	0.272	0.09
Mof_H 	H 	0.2593	0.6459	0.1662	0.084
Mof_C 	C 	0.2865	0.533	0.193	0.083
Mof_H 	H 	0.3425	0.1518	0.3426	-0.021
Mof_N 	N 	0.37889	0.0548	0.36139	-0.276
Mof_H 	H 	0.4079	0.9415	0.3714	-0.007
Mof_H 	H 	0.3573	0.5273	0.2723	-0.021
Mof_N 	N 	0.3146	0.4967	0.223	-0.282
Mof_H 	H 	0.27	0.4943	0.1729	-0.005
Mof_Zn	Zn	0.41951	0.12609	0.40754	1.16
Mof_Zn	Zn	0.3286	0.3606	0.2301	0.542
Mof_I 	I 	0.47493	0.15405	0.36589	-0.293
Mof_I 	I 	0.38659	0.241	0.4455	-0.115
Mof_N 	N 	0.43669	0.0237	0.45362	-0.275
Mof_N 	N 	0.3606	0.344	0.1797	-0.28
Mof_I 	I 	0.2614	0.2746	0.1964	-0.139
Mof_I 	I 	0.37336	0.3384	0.30643	-0.323
Mof_C 	C 	0.3946	0.3831	0.1851	0.085
Mof_C 	C 	0.3501	0.289	0.1445	0.067
Mof_C 	C 	0.4198	0.3706	0.1555	-0.115
Mof_H 	H 	0.4024	0.4215	0.2102	-0.021
Mof_C 	C 	0.3741	0.2712	0.1144	-0.108
Mof_H 	H 	0.3253	0.2612	0.1401	-0.003
Mof_C 	C 	0.4096	0.3116	0.1196	0.06
Mof_H 	H 	0.4438	0.4022	0.1597	0.083
Mof_H 	H 	0.3659	0.2309	0.0901	0.072
Mof_C 	C 	0.4351	0.2966	0.0879	0.085
Mof_N 	N 	0.4286	0.2229	0.0623	-0.143
Mof_N 	N 	0.4638	0.356	0.0861	-0.136
Mof_C 	C 	0.4526	0.2132	0.0334	0.077
Mof_C 	C 	0.4849	0.3385	0.0553	0.083
Mof_N 	N 	0.48001	0.2702	0.02717	-0.152
Mof_C 	C 	0.4474	0.1292	0.0055	0.055
Mof_C 	C 	0.5175	0.3998	0.0542	0.052
Mof_C 	C 	0.4197	0.0683	0.0109	-0.126
Mof_C 	C 	0.4711	0.1109	0.976	-0.127
Mof_C 	C 	0.5351	0.4466	0.091	-0.133
Mof_C 	C 	0.534	0.408	0.0159	-0.122
Mof_C 	C 	0.415	0.9931	0.9838	0.07
Mof_H 	H 	0.404	0.0773	0.0328	0.079
Mof_H 	H 	0.4916	0.1505	0.9729	0.075
Mof_C 	C 	0.4648	0.0337	0.9506	0.079
Mof_C 	C 	0.5662	0.4995	0.0904	0.085
Mof_H 	H 	0.5253	0.442	0.1179	0.088
Mof_C 	C 	0.565	0.4636	0.017	0.066
Mof_H 	H 	0.5236	0.3752	0.9894	0.077
Mof_H 	H 	0.3953	0.9515	0.9869	-0.016
Mof_H 	H 	0.4813	0.0212	0.93	-0.011
Mof_H 	H 	0.5778	0.5301	0.1172	-0.02
Mof_H 	H 	0.5756	0.4693	0.9907	-0.023
Mof_Zn	Zn	0.1408	0.0886	0.0391	0.782
Mof_Zn	Zn	0.8224	0.8608	0.2206	0.629
Mof_I 	I 	0.1574	0.0592	0.9754	-1.018
Mof_I 	I 	0.108	0.24	0.0982	-0.404
Mof_I 	I 	0.4696	0.1566	0.3718	-0.048
Mof_I 	I 	0.3787	0.2351	0.4465	-0.219
Mof_I 	I 	0.768	0.767	0.20622	0.378
Mof_I 	I 	0.761	0.7912	0.181	-0.604
Mof_I 	I 	0.8642	0.8287	0.2987	-0.056
Mof_I 	I 	0.64722	0.4131	0.48383	0.451
Mof_Zn	Zn	0.62787	0.40644	0.55621	0.796
Mof_N 	N 	0.6701	0.4687	0.6031	-0.325
Mof_N 	N 	0.5812	0.4896	0.5536	-0.303
Mof_I 	I 	0.61374	0.2637	0.58493	0.008
Mof_C 	C 	0.6941	0.4238	0.635	0.066
Mof_C 	C 	0.6766	0.5551	0.5993	0.065
Mof_H 	H 	0.6908	0.361	0.6369	-0.015
Mof_C 	C 	0.723	0.4636	0.665	-0.119
Mof_C 	C 	0.705	0.6011	0.6287	-0.118
Mof_H 	H 	0.661	0.5871	0.5752	-0.018
Mof_H 	H 	0.7388	0.4291	0.688	0.079
Mof_C 	C 	0.7294	0.5554	0.6622	0.041
Mof_H 	H 	0.7076	0.6639	0.6258	0.082
Mof_C 	C 	0.7605	0.5992	0.6941	0.081
Mof_N 	N 	0.78047	0.5487	0.7272	-0.144
Mof_N 	N 	0.76667	0.6874	0.6885	-0.143
Mof_C 	C 	0.8098	0.5903	0.7542	0.097
Mof_C 	C 	0.7956	0.7218	0.7188	0.093
Mof_C 	C 	0.8334	0.5397	0.7918	0.065
Mof_N 	N 	0.81897	0.6766	0.751	-0.134
Mof_C 	C 	0.8026	0.8204	0.7184	0.067
Mof_C 	C 	0.8253	0.4509	0.8	-0.129
Mof_C 	C 	0.8638	0.5793	0.8202	-0.13
Mof_C 	C 	0.8312	0.8574	0.7503	-0.138
Mof_C 	C 	0.7796	0.8768	0.689	-0.135
Mof_C 	C 	0.8488	0.4079	0.8361	0.079
Mof_H 	H 	0.8042	0.4205	0.7814	0.068
Mof_H 	H 	0.8693	0.6408	0.8169	0.099
Mof_C 	C 	0.886	0.5305	0.8531	0.083
Mof_C 	C 	0.8365	0.9483	0.7507	0.085
Mof_H 	H 	0.8472	0.8208	0.772	0.09
Mof_H 	H 	0.7593	0.8541	0.6662	0.084
Mof_C 	C 	0.7865	0.967	0.693	0.083
Mof_H 	H 	0.8425	0.3482	0.8426	-0.021
Mof_N 	N 	0.87889	0.4452	0.86139	-0.276
Mof_H 	H 	0.9079	0.5585	0.8714	-0.007
Mof_H 	H 	0.8573	0.9727	0.7723	-0.021
Mof_N 	N 	0.8146	0.0033	0.723	-0.282
Mof_H 	H 	0.77	0.0057	0.6729	-0.004
Mof_Zn	Zn	0.91951	0.37391	0.90754	1.16
Mof_Zn	Zn	0.8286	0.1394	0.7301	0.542
Mof_I 	I 	0.97493	0.34595	0.86589	-0.293
Mof_I 	I 	0.88659	0.259	0.9455	-0.115
Mof_N 	N 	0.93669	0.4763	0.95362	-0.275
Mof_N 	N 	0.8606	0.156	0.6797	-0.28
Mof_I 	I 	0.7614	0.2254	0.6964	-0.139
Mof_I 	I 	0.87336	0.1616	0.80643	-0.323
Mof_C 	C 	0.8946	0.1169	0.6851	0.085
Mof_C 	C 	0.8501	0.211	0.6445	0.067
Mof_C 	C 	0.9198	0.1294	0.6555	-0.115
Mof_H 	H 	0.9024	0.0785	0.7102	-0.021
Mof_C 	C 	0.8741	0.2288	0.6144	-0.108
Mof_H 	H 	0.8253	0.2388	0.6401	-0.003
Mof_C 	C 	0.9096	0.1884	0.6196	0.06
Mof_H 	H 	0.9438	0.0978	0.6597	0.083
Mof_H 	H 	0.8659	0.2691	0.5901	0.072
Mof_C 	C 	0.9351	0.2034	0.5879	0.085
Mof_N 	N 	0.9286	0.2771	0.5623	-0.143
Mof_N 	N 	0.9638	0.144	0.5861	-0.136
Mof_C 	C 	0.9526	0.2868	0.5334	0.077
Mof_C 	C 	0.9849	0.1615	0.5553	0.083
Mof_N 	N 	0.98001	0.2298	0.52717	-0.152
Mof_C 	C 	0.9474	0.3708	0.5055	0.056
Mof_C 	C 	0.0175	0.1002	0.5542	0.052
Mof_C 	C 	0.9197	0.4317	0.5109	-0.127
Mof_C 	C 	0.9711	0.3891	0.476	-0.128
Mof_C 	C 	0.0351	0.0534	0.591	-0.134
Mof_C 	C 	0.034	0.092	0.5159	-0.122
Mof_C 	C 	0.915	0.5069	0.4838	0.07
Mof_H 	H 	0.904	0.4227	0.5328	0.079
Mof_H 	H 	0.9916	0.3495	0.4729	0.075
Mof_C 	C 	0.9648	0.4663	0.4506	0.079
Mof_C 	C 	0.0662	0.0005	0.5904	0.085
Mof_H 	H 	0.0253	0.058	0.6179	0.088
Mof_C 	C 	0.065	0.0364	0.517	0.066
Mof_H 	H 	0.0236	0.1248	0.4894	0.077
Mof_H 	H 	0.8953	0.5485	0.4869	-0.016
Mof_H 	H 	0.9813	0.4788	0.43	-0.011
Mof_H 	H 	0.0778	0.9699	0.6172	-0.02
Mof_H 	H 	0.0756	0.0307	0.4907	-0.023
Mof_Zn	Zn	0.6408	0.4114	0.5391	0.782
Mof_Zn	Zn	0.3224	0.6392	0.7206	0.629
Mof_I 	I 	0.6574	0.4408	0.4754	-1.019
Mof_I 	I 	0.608	0.26	0.5982	-0.404
Mof_I 	I 	0.9696	0.3434	0.8718	-0.048
Mof_I 	I 	0.8787	0.2649	0.9465	-0.219
Mof_I 	I 	0.268	0.733	0.70622	0.378
Mof_I 	I 	0.261	0.7088	0.681	-0.604
Mof_I 	I 	0.3642	0.6713	0.7987	-0.056
Mof_I 	I 	0.14722	0.9131	0.48383	0.451
Mof_Zn	Zn	0.12787	0.90644	0.55621	0.796
Mof_N 	N 	0.1701	0.9687	0.6031	-0.325
Mof_N 	N 	0.0812	0.9896	0.5536	-0.303
Mof_I 	I 	0.11374	0.7637	0.58493	0.007
Mof_C 	C 	0.1941	0.9238	0.635	0.066
Mof_C 	C 	0.1766	0.0551	0.5993	0.066
Mof_H 	H 	0.1908	0.861	0.6369	-0.015
Mof_C 	C 	0.223	0.9636	0.665	-0.12
Mof_C 	C 	0.205	0.1011	0.6287	-0.118
Mof_H 	H 	0.161	0.0871	0.5752	-0.018
Mof_H 	H 	0.2388	0.9291	0.688	0.079
Mof_C 	C 	0.2294	0.0554	0.6622	0.042
Mof_H 	H 	0.2076	0.1639	0.6258	0.082
Mof_C 	C 	0.2605	0.0992	0.6941	0.081
Mof_N 	N 	0.28047	0.0487	0.7272	-0.144
Mof_N 	N 	0.26667	0.1874	0.6885	-0.143
Mof_C 	C 	0.3098	0.0903	0.7542	0.097
Mof_C 	C 	0.2956	0.2218	0.7188	0.093
Mof_C 	C 	0.3334	0.0397	0.7918	0.066
Mof_N 	N 	0.31897	0.1766	0.751	-0.134
Mof_C 	C 	0.3026	0.3204	0.7184	0.068
Mof_C 	C 	0.3253	0.9509	0.8	-0.13
Mof_C 	C 	0.3638	0.0793	0.8202	-0.13
Mof_C 	C 	0.3312	0.3574	0.7503	-0.138
Mof_C 	C 	0.2796	0.3768	0.689	-0.135
Mof_C 	C 	0.3488	0.9079	0.8361	0.079
Mof_H 	H 	0.3042	0.9205	0.7814	0.068
Mof_H 	H 	0.3693	0.1408	0.8169	0.099
Mof_C 	C 	0.386	0.0305	0.8531	0.083
Mof_C 	C 	0.3365	0.4483	0.7507	0.086
Mof_H 	H 	0.3472	0.3208	0.772	0.09
Mof_H 	H 	0.2593	0.3541	0.6662	0.084
Mof_C 	C 	0.2865	0.467	0.693	0.083
Mof_H 	H 	0.3425	0.8482	0.8426	-0.022
Mof_N 	N 	0.37889	0.9452	0.86139	-0.276
Mof_H 	H 	0.4079	0.0585	0.8714	-0.008
Mof_H 	H 	0.3573	0.4727	0.7723	-0.021
Mof_N 	N 	0.3146	0.5033	0.723	-0.282
Mof_H 	H 	0.27	0.5057	0.6729	-0.005
Mof_Zn	Zn	0.41951	0.87391	0.90754	1.16
Mof_Zn	Zn	0.3286	0.6394	0.7301	0.542
Mof_I 	I 	0.47493	0.84595	0.86589	-0.293
Mof_I 	I 	0.38659	0.759	0.9455	-0.115
Mof_N 	N 	0.43669	0.9763	0.95362	-0.275
Mof_N 	N 	0.3606	0.656	0.6797	-0.28
Mof_I 	I 	0.2614	0.7254	0.6964	-0.139
Mof_I 	I 	0.37336	0.6616	0.80643	-0.323
Mof_C 	C 	0.3946	0.6169	0.6851	0.085
Mof_C 	C 	0.3501	0.711	0.6445	0.067
Mof_C 	C 	0.4198	0.6294	0.6555	-0.115
Mof_H 	H 	0.4024	0.5785	0.7102	-0.021
Mof_C 	C 	0.3741	0.7288	0.6144	-0.108
Mof_H 	H 	0.3253	0.7388	0.6401	-0.003
Mof_C 	C 	0.4096	0.6884	0.6196	0.06
Mof_H 	H 	0.4438	0.5978	0.6597	0.083
Mof_H 	H 	0.3659	0.7691	0.5901	0.072
Mof_C 	C 	0.4351	0.7034	0.5879	0.085
Mof_N 	N 	0.4286	0.7771	0.5623	-0.143
Mof_N 	N 	0.4638	0.644	0.5861	-0.136
Mof_C 	C 	0.4526	0.7868	0.5334	0.077
Mof_C 	C 	0.4849	0.6615	0.5553	0.083
Mof_N 	N 	0.48001	0.7298	0.52717	-0.152
Mof_C 	C 	0.4474	0.8708	0.5055	0.056
Mof_C 	C 	0.5175	0.6002	0.5542	0.052
Mof_C 	C 	0.4197	0.9317	0.5109	-0.126
Mof_C 	C 	0.4711	0.8891	0.476	-0.128
Mof_C 	C 	0.5351	0.5534	0.591	-0.133
Mof_C 	C 	0.534	0.592	0.5159	-0.122
Mof_C 	C 	0.415	0.0069	0.4838	0.07
Mof_H 	H 	0.404	0.9227	0.5328	0.079
Mof_H 	H 	0.4916	0.8495	0.4729	0.075
Mof_C 	C 	0.4648	0.9663	0.4506	0.079
Mof_C 	C 	0.5662	0.5005	0.5904	0.085
Mof_H 	H 	0.5253	0.558	0.6179	0.088
Mof_C 	C 	0.565	0.5364	0.517	0.066
Mof_H 	H 	0.5236	0.6248	0.4894	0.077
Mof_H 	H 	0.3953	0.0485	0.4869	-0.016
Mof_H 	H 	0.4813	0.9788	0.43	-0.011
Mof_H 	H 	0.5778	0.4699	0.6172	-0.02
Mof_H 	H 	0.5756	0.5307	0.4907	-0.023
Mof_Zn	Zn	0.1408	0.9114	0.5391	0.782
Mof_Zn	Zn	0.8224	0.1392	0.7206	0.629
Mof_I 	I 	0.1574	0.9408	0.4754	-1.019
Mof_I 	I 	0.108	0.76	0.5982	-0.404
Mof_I 	I 	0.4696	0.8434	0.8718	-0.049
Mof_I 	I 	0.3787	0.7649	0.9465	-0.22
Mof_I 	I 	0.768	0.233	0.70622	0.378
Mof_I 	I 	0.761	0.2088	0.681	-0.604
Mof_I 	I 	0.8642	0.1713	0.7987	-0.056
_end
