data_functionalizedCrystal
_audit_creation_method	'EQeq! by Chris Wilmer'
_symmetry_space_group_name_H-M	'P1'
_symmetry_Int_Tables_number	1
_symmetry_cell_setting	triclinic
loop_
_symmetry_equiv_pos_as_xyz
  x,y,z
_cell_length_a	12.806
_cell_length_b	13.809
_cell_length_c	14.508
_cell_angle_alpha	113.57
_cell_angle_beta	96.71
_cell_angle_gamma	106.21
loop_
_atom_site_label
_atom_site_type_symbol
_atom_site_fract_x
_atom_site_fract_y
_atom_site_fract_z
_atom_site_charge
Mof_Mo	Mo	0.05688	0.42496	0.22506	1.121
Mof_Mo	Mo	0.8471	0.40609	0.21016	1.156
Mof_P 	P 	0.02902	0.68339	0.35205	0.57
Mof_P 	P 	0.87117	0.98745	0.36648	0.55
Mof_P 	P 	0.28039	0.59716	0.20117	0.553
Mof_P 	P 	0.68275	0.53818	0.15644	0.554
Mof_O 	O 	0.2353	0.6855	0.1805	-0.206
Mof_O 	O 	0.5605	0.4871	0.0894	-0.294
Mof_O 	O 	0.8378	0.8774	0.2679	-0.271
Mof_O 	O 	0.056	0.7546	0.4713	-0.424
Mof_O 	O 	0.0471	0.7546	0.2955	-0.278
Mof_O 	O 	0.7848	0.0444	0.3657	-0.408
Mof_O 	O 	0.367	0.5809	0.1428	-0.287
Mof_O 	O 	0.8697	0.9648	0.4634	-0.181
Mof_O 	O 	0.3298	0.6501	0.3187	-0.401
Mof_O 	O 	0.71	0.1915	0.5133	-0.508
Mof_O 	O 	0.7474	0.6336	0.1363	-0.293
Mof_O 	O 	0.9053	0.5981	0.3135	-0.417
Mof_O 	O 	0.677	0.5784	0.2713	-0.406
Mof_O 	O 	0.9902	0.0655	0.3818	-0.375
Mof_O 	O 	0.953	0.4519	0.1377	-0.494
Mof_O 	O 	0.7326	0.4435	0.129	-0.398
Mof_O 	O 	0.1784	0.4878	0.161	-0.392
Mof_O 	O 	0.108	0.6141	0.3311	-0.417
Mof_O 	O 	0.1946	0.4743	0.3493	-0.468
Mof_O 	O 	0.7513	0.4321	0.3199	-0.471
Mof_O 	O 	0.1086	0.3966	0.4928	-0.566
Mof_O 	O 	0.921	0.2177	0.3391	-0.458
Mof_O 	O 	0.962	0.4172	0.321	-0.533
Mof_O 	O 	0.1647	0.2358	0.5465	-0.503
Mof_O 	O 	0.8343	0.3682	0.4689	-0.559
Mof_C 	C 	0.3068	0.2748	0.0349	0.046
Mof_H 	H 	0.3139	0.3505	0.0631	0.033
Mof_C 	C 	0.2402	0.2058	0.0692	-0.111
Mof_H 	H 	0.2037	0.2349	0.1197	0.034
Mof_C 	C 	0.2283	0.0917	0.0272	0.034
Mof_C 	C 	0.2794	0.052	0.9482	-0.134
Mof_H 	H 	0.2697	0.9757	0.9149	0.045
Mof_C 	C 	0.3453	0.1281	0.9196	0.075
Mof_H 	H 	0.3797	0.1001	0.867	-0.009
Mof_C 	C 	0.1039	0.8439	0.0818	0.043
Mof_H 	H 	0.1138	0.7762	0.0707	0.013
Mof_C 	C 	0.1729	0.9146	0.0507	-0.12
Mof_H 	H 	0.2289	0.8952	0.0205	0.038
Mof_C 	C 	0.158	0.0152	0.0649	0.022
Mof_C 	C 	0.0759	0.0411	0.113	-0.126
Mof_H 	H 	0.0635	0.1077	0.1241	0.033
Mof_Cd	Cd	0.9152	0.75344	0.1848	0.476
Mof_Cd	Cd	0.51195	0.63929	0.08284	0.425
Mof_C 	C 	0.0117	0.9665	0.1446	0.046
Mof_H 	H 	0.9585	0.9861	0.1794	0.02
Mof_N 	N 	0.3626	0.2367	0.9615	-0.148
Mof_N 	N 	0.0233	0.8683	0.1272	-0.153
Mof_Mo	Mo	0.73082	0.34951	0.55473	1.144
Mof_Mo	Mo	0.78567	0.20238	0.40624	1.182
Mof_Mo	Mo	0.07093	0.23276	0.42877	1.141
Mof_Mo	Mo	0.22675	0.39764	0.59198	1.148
Mof_Mo	Mo	0.94312	0.57504	0.77494	1.187
Mof_Mo	Mo	0.1529	0.59391	0.78984	1.142
Mof_P 	P 	0.97098	0.31661	0.64795	0.592
Mof_P 	P 	0.12883	0.01255	0.63352	0.554
Mof_P 	P 	0.71961	0.40284	0.79883	0.554
Mof_P 	P 	0.31725	0.46182	0.84356	0.553
Mof_O 	O 	0.7647	0.3145	0.8195	-0.204
Mof_O 	O 	0.4395	0.5129	0.9106	-0.295
Mof_O 	O 	0.1622	0.1226	0.7321	-0.274
Mof_O 	O 	0.944	0.2454	0.5287	-0.411
Mof_O 	O 	0.9529	0.2454	0.7045	-0.266
Mof_O 	O 	0.2152	0.9556	0.6343	-0.409
Mof_O 	O 	0.633	0.4191	0.8572	-0.287
Mof_O 	O 	0.1303	0.0352	0.5366	-0.19
Mof_O 	O 	0.6702	0.3499	0.6813	-0.402
Mof_O 	O 	0.29	0.8085	0.4867	-0.507
Mof_O 	O 	0.2526	0.3664	0.8637	-0.294
Mof_O 	O 	0.0947	0.4019	0.6865	-0.435
Mof_O 	O 	0.323	0.4216	0.7287	-0.407
Mof_O 	O 	0.0098	0.9345	0.6182	-0.401
Mof_O 	O 	0.047	0.5481	0.8623	-0.52
Mof_O 	O 	0.2674	0.5565	0.871	-0.398
Mof_O 	O 	0.8216	0.5122	0.839	-0.396
Mof_O 	O 	0.892	0.3859	0.6689	-0.418
Mof_O 	O 	0.8054	0.5257	0.6507	-0.473
Mof_O 	O 	0.2487	0.5679	0.6801	-0.47
Mof_O 	O 	0.8914	0.6034	0.5072	-0.564
Mof_O 	O 	0.079	0.7823	0.6609	-0.478
Mof_O 	O 	0.038	0.5828	0.679	-0.558
Mof_O 	O 	0.8353	0.7642	0.4535	-0.503
Mof_O 	O 	0.1657	0.6318	0.5311	-0.564
Mof_C 	C 	0.6932	0.7252	0.9651	0.038
Mof_H 	H 	0.6861	0.6495	0.9369	0.036
Mof_C 	C 	0.7598	0.7942	0.9308	-0.099
Mof_H 	H 	0.7963	0.7651	0.8803	0.031
Mof_C 	C 	0.7717	0.9083	0.9728	0.021
Mof_C 	C 	0.7206	0.948	0.0518	-0.123
Mof_H 	H 	0.7303	0.0243	0.0851	0.044
Mof_C 	C 	0.6547	0.8719	0.0804	0.071
Mof_H 	H 	0.6203	0.8999	0.133	-0.007
Mof_C 	C 	0.8961	0.1561	0.9182	0.057
Mof_H 	H 	0.8862	0.2238	0.9293	0.014
Mof_C 	C 	0.8271	0.0854	0.9493	-0.135
Mof_H 	H 	0.7711	0.1048	0.9795	0.044
Mof_C 	C 	0.842	0.9848	0.9351	0.048
Mof_C 	C 	0.9241	0.9589	0.887	-0.168
Mof_H 	H 	0.9365	0.8923	0.8759	0.055
Mof_Cd	Cd	0.0848	0.24656	0.8152	0.452
Mof_Cd	Cd	0.48805	0.36071	0.91716	0.423
Mof_C 	C 	0.9883	0.0335	0.8554	0.126
Mof_H 	H 	0.0415	0.0139	0.8206	-0.027
Mof_N 	N 	0.6374	0.7633	0.0385	-0.144
Mof_N 	N 	0.9767	0.1317	0.8728	-0.158
Mof_Mo	Mo	0.26918	0.65049	0.44527	1.142
Mof_Mo	Mo	0.21433	0.79762	0.59376	1.182
Mof_Mo	Mo	0.92907	0.76724	0.57123	1.203
Mof_Mo	Mo	0.77325	0.60236	0.40802	1.14
Mof_Cd	Cd	2.60674e-17	0.5	0.5	0.583
_end
