data_functionalizedCrystal
_audit_creation_method	'EQeq! by Chris Wilmer'
_symmetry_space_group_name_H-M	'P1'
_symmetry_Int_Tables_number	1
_symmetry_cell_setting	triclinic
loop_
_symmetry_equiv_pos_as_xyz
  x,y,z
_cell_length_a	15.3069
_cell_length_b	26.9467
_cell_length_c	31.284
_cell_angle_alpha	90
_cell_angle_beta	90
_cell_angle_gamma	90
loop_
_atom_site_label
_atom_site_type_symbol
_atom_site_fract_x
_atom_site_fract_y
_atom_site_fract_z
_atom_site_charge
Mof_O 	O 	0.3963	0.43611	0.01764	-0.54
Mof_O 	O 	0.2628	0.41161	0.02976	-0.506
Mof_O 	O 	0.104	0.56777	0.86779	-0.5
Mof_O 	O 	0.2383	0.58756	0.85149	-0.498
Mof_C 	C 	0.3151	0.43843	0.00915	0.341
Mof_C 	C 	0.2832	0.472	0.97485	-0.121
Mof_C 	C 	0.2179	0.532	0.90974	-0.026
Mof_C 	C 	0.1851	0.56419	0.87438	0.298
Mof_N 	N 	0.4211	0.5206	0.9705	-0.138
Mof_H 	H 	0.4425	0.4942	0.9838	0.139
Mof_H 	H 	0.4545	0.5272	0.9481	0.19
Mof_C 	C 	0.3369	0.5111	0.9575	0.074
Mof_C 	C 	0.1976	0.4634	0.9588	0.016
Mof_H 	H 	0.1639	0.437	0.9703	0.02
Mof_C 	C 	0.3017	0.541	0.9249	-0.047
Mof_H 	H 	0.3353	0.5674	0.9132	0.051
Mof_C 	C 	0.1619	0.4929	0.9264	-0.011
Mof_H 	H 	0.1044	0.4876	0.916	0.024
Mof_N 	N 	0.4324	0.5001	0.9542	-0.307
Mof_H 	H 	0.4497	0.4778	0.9731	0.069
Mof_H 	H 	0.4609	0.4953	0.93	0.095
Mof_C 	C 	0.3411	0.4982	0.9494	0.063
Mof_C 	C 	0.3061	0.5279	0.9169	-0.05
Mof_H 	H 	0.345	0.546	0.8991	0.041
Mof_C 	C 	0.16	0.5054	0.9349	-0.039
Mof_H 	H 	0.0988	0.5075	0.9304	0.048
Mof_C 	C 	0.1948	0.4753	0.9676	-0.013
Mof_H 	H 	0.1561	0.4567	0.985	0.038
Mof_O 	O 	0.3963	0.93611	0.51764	-0.539
Mof_O 	O 	0.2628	0.91161	0.52976	-0.505
Mof_O 	O 	0.104	0.06777	0.36779	-0.499
Mof_O 	O 	0.2383	0.08756	0.35149	-0.497
Mof_C 	C 	0.3151	0.93843	0.50915	0.343
Mof_C 	C 	0.2832	0.972	0.47485	-0.12
Mof_C 	C 	0.2179	0.032	0.40974	-0.025
Mof_C 	C 	0.1851	0.06419	0.37438	0.299
Mof_N 	N 	0.4211	0.0206	0.4705	-0.137
Mof_H 	H 	0.4425	0.9942	0.4838	0.14
Mof_H 	H 	0.4545	0.0272	0.4481	0.191
Mof_C 	C 	0.3369	0.0111	0.4575	0.076
Mof_C 	C 	0.1976	0.9634	0.4588	0.017
Mof_H 	H 	0.1639	0.937	0.4703	0.021
Mof_C 	C 	0.3017	0.041	0.4249	-0.046
Mof_H 	H 	0.3353	0.0674	0.4132	0.052
Mof_C 	C 	0.1619	0.9929	0.4264	-0.011
Mof_H 	H 	0.1044	0.9876	0.416	0.025
Mof_N 	N 	0.4324	0.0001	0.4542	-0.306
Mof_H 	H 	0.4497	0.9778	0.4731	0.07
Mof_H 	H 	0.4609	0.9953	0.43	0.096
Mof_C 	C 	0.3411	0.9982	0.4494	0.064
Mof_C 	C 	0.3061	0.0279	0.4169	-0.049
Mof_H 	H 	0.345	0.046	0.3991	0.042
Mof_C 	C 	0.16	0.0054	0.4349	-0.039
Mof_H 	H 	0.0988	0.0075	0.4304	0.048
Mof_C 	C 	0.1948	0.9753	0.4676	-0.013
Mof_H 	H 	0.1561	0.9567	0.485	0.038
Mof_O 	O 	0.8963	0.43611	0.51764	-0.539
Mof_O 	O 	0.7628	0.41161	0.52976	-0.505
Mof_O 	O 	0.604	0.56777	0.36779	-0.499
Mof_O 	O 	0.7383	0.58756	0.35149	-0.497
Mof_C 	C 	0.8151	0.43843	0.50915	0.343
Mof_C 	C 	0.7832	0.472	0.47485	-0.12
Mof_C 	C 	0.7179	0.532	0.40974	-0.025
Mof_C 	C 	0.6851	0.56419	0.37438	0.299
Mof_N 	N 	0.9211	0.5206	0.4705	-0.137
Mof_H 	H 	0.9425	0.4942	0.4838	0.14
Mof_H 	H 	0.9545	0.5272	0.4481	0.191
Mof_C 	C 	0.8369	0.5111	0.4575	0.075
Mof_C 	C 	0.6976	0.4634	0.4588	0.017
Mof_H 	H 	0.6639	0.437	0.4703	0.021
Mof_C 	C 	0.8017	0.541	0.4249	-0.046
Mof_H 	H 	0.8353	0.5674	0.4132	0.052
Mof_C 	C 	0.6619	0.4929	0.4264	-0.01
Mof_H 	H 	0.6044	0.4876	0.416	0.025
Mof_N 	N 	0.9324	0.5001	0.4542	-0.306
Mof_H 	H 	0.9497	0.4778	0.4731	0.07
Mof_H 	H 	0.9609	0.4953	0.43	0.096
Mof_C 	C 	0.8411	0.4982	0.4494	0.064
Mof_C 	C 	0.8061	0.5279	0.4169	-0.049
Mof_H 	H 	0.845	0.546	0.3991	0.042
Mof_C 	C 	0.66	0.5054	0.4349	-0.039
Mof_H 	H 	0.5988	0.5075	0.4304	0.048
Mof_C 	C 	0.6948	0.4753	0.4676	-0.013
Mof_H 	H 	0.6561	0.4567	0.485	0.038
Mof_O 	O 	0.8963	0.93611	0.01764	-0.539
Mof_O 	O 	0.7628	0.91161	0.02976	-0.505
Mof_O 	O 	0.604	0.06777	0.86779	-0.499
Mof_O 	O 	0.7383	0.08756	0.85149	-0.497
Mof_C 	C 	0.8151	0.93843	0.00915	0.343
Mof_C 	C 	0.7832	0.972	0.97485	-0.12
Mof_C 	C 	0.7179	0.032	0.90974	-0.025
Mof_C 	C 	0.6851	0.06419	0.87438	0.299
Mof_N 	N 	0.9211	0.0206	0.9705	-0.136
Mof_H 	H 	0.9425	0.9942	0.9838	0.139
Mof_H 	H 	0.9545	0.0272	0.9481	0.191
Mof_C 	C 	0.8369	0.0111	0.9575	0.073
Mof_C 	C 	0.6976	0.9634	0.9588	0.017
Mof_H 	H 	0.6639	0.937	0.9703	0.021
Mof_C 	C 	0.8017	0.041	0.9249	-0.046
Mof_H 	H 	0.8353	0.0674	0.9132	0.053
Mof_C 	C 	0.6619	0.9929	0.9264	-0.009
Mof_H 	H 	0.6044	0.9876	0.916	0.024
Mof_N 	N 	0.9324	0.0001	0.9542	-0.306
Mof_H 	H 	0.9497	0.9778	0.9731	0.07
Mof_H 	H 	0.9609	0.9953	0.93	0.095
Mof_C 	C 	0.8411	0.9982	0.9494	0.067
Mof_C 	C 	0.8061	0.0279	0.9169	-0.048
Mof_H 	H 	0.845	0.046	0.8991	0.041
Mof_C 	C 	0.66	0.0054	0.9349	-0.04
Mof_H 	H 	0.5988	0.0075	0.9304	0.049
Mof_C 	C 	0.6948	0.9753	0.9676	-0.013
Mof_H 	H 	0.6561	0.9567	0.985	0.038
Mof_O 	O 	0.3537	0.31389	0.01764	-0.539
Mof_O 	O 	0.4872	0.33839	0.02976	-0.505
Mof_O 	O 	0.646	0.18223	0.86779	-0.499
Mof_O 	O 	0.5117	0.16244	0.85149	-0.497
Mof_C 	C 	0.4349	0.31157	0.00915	0.342
Mof_C 	C 	0.4668	0.278	0.97485	-0.12
Mof_C 	C 	0.5321	0.218	0.90974	-0.025
Mof_C 	C 	0.5649	0.18581	0.87438	0.299
Mof_N 	N 	0.3289	0.2294	0.9705	-0.137
Mof_H 	H 	0.3075	0.2558	0.9838	0.14
Mof_H 	H 	0.2955	0.2228	0.9481	0.191
Mof_C 	C 	0.4131	0.2389	0.9575	0.075
Mof_C 	C 	0.5524	0.2866	0.9588	0.017
Mof_H 	H 	0.5861	0.313	0.9703	0.021
Mof_C 	C 	0.4483	0.209	0.9249	-0.046
Mof_H 	H 	0.4147	0.1826	0.9132	0.052
Mof_C 	C 	0.5881	0.2571	0.9264	-0.01
Mof_H 	H 	0.6456	0.2624	0.916	0.025
Mof_N 	N 	0.3176	0.2499	0.9542	-0.306
Mof_H 	H 	0.3003	0.2722	0.9731	0.07
Mof_H 	H 	0.2891	0.2547	0.93	0.096
Mof_C 	C 	0.4089	0.2518	0.9494	0.064
Mof_C 	C 	0.4439	0.2221	0.9169	-0.049
Mof_H 	H 	0.405	0.204	0.8991	0.042
Mof_C 	C 	0.59	0.2446	0.9349	-0.039
Mof_H 	H 	0.6512	0.2425	0.9304	0.048
Mof_C 	C 	0.5552	0.2747	0.9676	-0.013
Mof_H 	H 	0.5939	0.2933	0.985	0.038
Mof_O 	O 	0.3537	0.81389	0.51764	-0.539
Mof_O 	O 	0.4872	0.83839	0.52976	-0.505
Mof_O 	O 	0.646	0.68223	0.36779	-0.499
Mof_O 	O 	0.5117	0.66244	0.35149	-0.497
Mof_C 	C 	0.4349	0.81157	0.50915	0.343
Mof_C 	C 	0.4668	0.778	0.47485	-0.12
Mof_C 	C 	0.5321	0.718	0.40974	-0.025
Mof_C 	C 	0.5649	0.68581	0.37438	0.299
Mof_N 	N 	0.3289	0.7294	0.4705	-0.137
Mof_H 	H 	0.3075	0.7558	0.4838	0.14
Mof_H 	H 	0.2955	0.7228	0.4481	0.191
Mof_C 	C 	0.4131	0.7389	0.4575	0.075
Mof_C 	C 	0.5524	0.7866	0.4588	0.017
Mof_H 	H 	0.5861	0.813	0.4703	0.021
Mof_C 	C 	0.4483	0.709	0.4249	-0.046
Mof_H 	H 	0.4147	0.6826	0.4132	0.052
Mof_C 	C 	0.5881	0.7571	0.4264	-0.01
Mof_H 	H 	0.6456	0.7624	0.416	0.025
Mof_N 	N 	0.3176	0.7499	0.4542	-0.306
Mof_H 	H 	0.3003	0.7722	0.4731	0.07
Mof_H 	H 	0.2891	0.7547	0.43	0.096
Mof_C 	C 	0.4089	0.7518	0.4494	0.064
Mof_C 	C 	0.4439	0.7221	0.4169	-0.049
Mof_H 	H 	0.405	0.704	0.3991	0.042
Mof_C 	C 	0.59	0.7446	0.4349	-0.039
Mof_H 	H 	0.6512	0.7425	0.4304	0.048
Mof_C 	C 	0.5552	0.7747	0.4676	-0.013
Mof_H 	H 	0.5939	0.7933	0.485	0.038
Mof_O 	O 	0.8537	0.31389	0.51764	-0.539
Mof_O 	O 	0.9872	0.33839	0.52976	-0.505
Mof_O 	O 	0.146	0.18223	0.36779	-0.499
Mof_O 	O 	0.0117	0.16244	0.35149	-0.497
Mof_C 	C 	0.9349	0.31157	0.50915	0.342
Mof_C 	C 	0.9668	0.278	0.47485	-0.12
Mof_C 	C 	0.0321	0.218	0.40974	-0.025
Mof_C 	C 	0.0649	0.18581	0.37438	0.299
Mof_N 	N 	0.8289	0.2294	0.4705	-0.137
Mof_H 	H 	0.8075	0.2558	0.4838	0.14
Mof_H 	H 	0.7955	0.2228	0.4481	0.191
Mof_C 	C 	0.9131	0.2389	0.4575	0.075
Mof_C 	C 	0.0524	0.2866	0.4588	0.017
Mof_H 	H 	0.0861	0.313	0.4703	0.021
Mof_C 	C 	0.9483	0.209	0.4249	-0.046
Mof_H 	H 	0.9147	0.1826	0.4132	0.052
Mof_C 	C 	0.0881	0.2571	0.4264	-0.01
Mof_H 	H 	0.1456	0.2624	0.416	0.025
Mof_N 	N 	0.8176	0.2499	0.4542	-0.306
Mof_H 	H 	0.8003	0.2722	0.4731	0.07
Mof_H 	H 	0.7891	0.2547	0.43	0.096
Mof_C 	C 	0.9089	0.2518	0.4494	0.064
Mof_C 	C 	0.9439	0.2221	0.4169	-0.049
Mof_H 	H 	0.905	0.204	0.3991	0.042
Mof_C 	C 	0.09	0.2446	0.4349	-0.039
Mof_H 	H 	0.1512	0.2425	0.4304	0.048
Mof_C 	C 	0.0552	0.2747	0.4676	-0.013
Mof_H 	H 	0.0939	0.2933	0.485	0.038
Mof_O 	O 	0.8537	0.81389	0.01764	-0.539
Mof_O 	O 	0.9872	0.83839	0.02976	-0.505
Mof_O 	O 	0.146	0.68223	0.86779	-0.499
Mof_O 	O 	0.0117	0.66244	0.85149	-0.497
Mof_C 	C 	0.9349	0.81157	0.00915	0.343
Mof_C 	C 	0.9668	0.778	0.97485	-0.121
Mof_C 	C 	0.0321	0.718	0.90974	-0.025
Mof_C 	C 	0.0649	0.68581	0.87438	0.299
Mof_N 	N 	0.8289	0.7294	0.9705	-0.137
Mof_H 	H 	0.8075	0.7558	0.9838	0.14
Mof_H 	H 	0.7955	0.7228	0.9481	0.191
Mof_C 	C 	0.9131	0.7389	0.9575	0.075
Mof_C 	C 	0.0524	0.7866	0.9588	0.017
Mof_H 	H 	0.0861	0.813	0.9703	0.021
Mof_C 	C 	0.9483	0.709	0.9249	-0.046
Mof_H 	H 	0.9147	0.6826	0.9132	0.052
Mof_C 	C 	0.0881	0.7571	0.9264	-0.01
Mof_H 	H 	0.1456	0.7624	0.916	0.025
Mof_N 	N 	0.8176	0.7499	0.9542	-0.306
Mof_H 	H 	0.8003	0.7722	0.9731	0.07
Mof_H 	H 	0.7891	0.7547	0.93	0.096
Mof_C 	C 	0.9089	0.7518	0.9494	0.064
Mof_C 	C 	0.9439	0.7221	0.9169	-0.049
Mof_H 	H 	0.905	0.704	0.8991	0.042
Mof_C 	C 	0.09	0.7446	0.9349	-0.039
Mof_H 	H 	0.1512	0.7425	0.9304	0.048
Mof_C 	C 	0.0552	0.7747	0.9676	-0.013
Mof_H 	H 	0.0939	0.7933	0.985	0.038
Mof_O 	O 	0.6463	0.56389	0.26764	-0.539
Mof_O 	O 	0.5128	0.58839	0.27976	-0.505
Mof_O 	O 	0.354	0.43223	0.11779	-0.499
Mof_O 	O 	0.4883	0.41244	0.10149	-0.497
Mof_C 	C 	0.5651	0.56157	0.25915	0.343
Mof_C 	C 	0.5332	0.528	0.22485	-0.12
Mof_C 	C 	0.4679	0.468	0.15974	-0.025
Mof_C 	C 	0.4351	0.43581	0.12438	0.299
Mof_N 	N 	0.6711	0.4794	0.2205	-0.137
Mof_H 	H 	0.6925	0.5058	0.2338	0.14
Mof_H 	H 	0.7045	0.4728	0.1981	0.191
Mof_C 	C 	0.5869	0.4889	0.2075	0.075
Mof_C 	C 	0.4476	0.5366	0.2088	0.017
Mof_H 	H 	0.4139	0.563	0.2203	0.021
Mof_C 	C 	0.5517	0.459	0.1749	-0.046
Mof_H 	H 	0.5853	0.4326	0.1632	0.052
Mof_C 	C 	0.4119	0.5071	0.1764	-0.01
Mof_H 	H 	0.3544	0.5124	0.166	0.025
Mof_N 	N 	0.6824	0.4999	0.2042	-0.306
Mof_H 	H 	0.6997	0.5222	0.2231	0.07
Mof_H 	H 	0.7109	0.5047	0.18	0.096
Mof_C 	C 	0.5911	0.5018	0.1994	0.064
Mof_C 	C 	0.5561	0.4721	0.1669	-0.049
Mof_H 	H 	0.595	0.454	0.1491	0.042
Mof_C 	C 	0.41	0.4946	0.1849	-0.039
Mof_H 	H 	0.3488	0.4925	0.1804	0.048
Mof_C 	C 	0.4448	0.5247	0.2176	-0.013
Mof_H 	H 	0.4061	0.5433	0.235	0.038
Mof_O 	O 	0.6463	0.06389	0.76764	-0.539
Mof_O 	O 	0.5128	0.08839	0.77976	-0.505
Mof_O 	O 	0.354	0.93223	0.61779	-0.499
Mof_O 	O 	0.4883	0.91244	0.60149	-0.497
Mof_C 	C 	0.5651	0.06157	0.75915	0.343
Mof_C 	C 	0.5332	0.028	0.72485	-0.12
Mof_C 	C 	0.4679	0.968	0.65974	-0.025
Mof_C 	C 	0.4351	0.93581	0.62438	0.299
Mof_N 	N 	0.6711	0.9794	0.7205	-0.137
Mof_H 	H 	0.6925	0.0058	0.7338	0.14
Mof_H 	H 	0.7045	0.9728	0.6981	0.191
Mof_C 	C 	0.5869	0.9889	0.7075	0.076
Mof_C 	C 	0.4476	0.0366	0.7088	0.017
Mof_H 	H 	0.4139	0.063	0.7203	0.021
Mof_C 	C 	0.5517	0.959	0.6749	-0.046
Mof_H 	H 	0.5853	0.9326	0.6632	0.052
Mof_C 	C 	0.4119	0.0071	0.6764	-0.011
Mof_H 	H 	0.3544	0.0124	0.666	0.025
Mof_N 	N 	0.6824	0.9999	0.7042	-0.306
Mof_H 	H 	0.6997	0.0222	0.7231	0.07
Mof_H 	H 	0.7109	0.0047	0.68	0.096
Mof_C 	C 	0.5911	0.0018	0.6994	0.064
Mof_C 	C 	0.5561	0.9721	0.6669	-0.049
Mof_H 	H 	0.595	0.954	0.6491	0.042
Mof_C 	C 	0.41	0.9946	0.6849	-0.039
Mof_H 	H 	0.3488	0.9925	0.6804	0.048
Mof_C 	C 	0.4448	0.0247	0.7176	-0.013
Mof_H 	H 	0.4061	0.0433	0.735	0.038
Mof_O 	O 	0.1463	0.56389	0.76764	-0.539
Mof_O 	O 	0.0128	0.58839	0.77976	-0.505
Mof_O 	O 	0.854	0.43223	0.61779	-0.499
Mof_O 	O 	0.9883	0.41244	0.60149	-0.497
Mof_C 	C 	0.0651	0.56157	0.75915	0.343
Mof_C 	C 	0.0332	0.528	0.72485	-0.12
Mof_C 	C 	0.9679	0.468	0.65974	-0.025
Mof_C 	C 	0.9351	0.43581	0.62438	0.299
Mof_N 	N 	0.1711	0.4794	0.7205	-0.137
Mof_H 	H 	0.1925	0.5058	0.7338	0.14
Mof_H 	H 	0.2045	0.4728	0.6981	0.191
Mof_C 	C 	0.0869	0.4889	0.7075	0.075
Mof_C 	C 	0.9476	0.5366	0.7088	0.017
Mof_H 	H 	0.9139	0.563	0.7203	0.021
Mof_C 	C 	0.0517	0.459	0.6749	-0.046
Mof_H 	H 	0.0853	0.4326	0.6632	0.052
Mof_C 	C 	0.9119	0.5071	0.6764	-0.01
Mof_H 	H 	0.8544	0.5124	0.666	0.025
Mof_N 	N 	0.1824	0.4999	0.7042	-0.306
Mof_H 	H 	0.1997	0.5222	0.7231	0.07
Mof_H 	H 	0.2109	0.5047	0.68	0.096
Mof_C 	C 	0.0911	0.5018	0.6994	0.064
Mof_C 	C 	0.0561	0.4721	0.6669	-0.049
Mof_H 	H 	0.095	0.454	0.6491	0.042
Mof_C 	C 	0.91	0.4946	0.6849	-0.039
Mof_H 	H 	0.8488	0.4925	0.6804	0.048
Mof_C 	C 	0.9448	0.5247	0.7176	-0.013
Mof_H 	H 	0.9061	0.5433	0.735	0.038
Mof_O 	O 	0.1463	0.06389	0.26764	-0.539
Mof_O 	O 	0.0128	0.08839	0.27976	-0.505
Mof_O 	O 	0.854	0.93223	0.11779	-0.499
Mof_O 	O 	0.9883	0.91244	0.10149	-0.497
Mof_C 	C 	0.0651	0.06157	0.25915	0.343
Mof_C 	C 	0.0332	0.028	0.22485	-0.12
Mof_C 	C 	0.9679	0.968	0.15974	-0.025
Mof_C 	C 	0.9351	0.93581	0.12438	0.299
Mof_N 	N 	0.1711	0.9794	0.2205	-0.136
Mof_H 	H 	0.1925	0.0058	0.2338	0.139
Mof_H 	H 	0.2045	0.9728	0.1981	0.191
Mof_C 	C 	0.0869	0.9889	0.2075	0.073
Mof_C 	C 	0.9476	0.0366	0.2088	0.017
Mof_H 	H 	0.9139	0.063	0.2203	0.021
Mof_C 	C 	0.0517	0.959	0.1749	-0.046
Mof_H 	H 	0.0853	0.9326	0.1632	0.053
Mof_C 	C 	0.9119	0.0071	0.1764	-0.01
Mof_H 	H 	0.8544	0.0124	0.166	0.024
Mof_N 	N 	0.1824	0.9999	0.2042	-0.306
Mof_H 	H 	0.1997	0.0222	0.2231	0.07
Mof_H 	H 	0.2109	0.0047	0.18	0.095
Mof_C 	C 	0.0911	0.0018	0.1994	0.066
Mof_C 	C 	0.0561	0.9721	0.1669	-0.049
Mof_H 	H 	0.095	0.954	0.1491	0.042
Mof_C 	C 	0.91	0.9946	0.1849	-0.039
Mof_H 	H 	0.8488	0.9925	0.1804	0.048
Mof_C 	C 	0.9448	0.0247	0.2176	-0.013
Mof_H 	H 	0.9061	0.0433	0.235	0.038
Mof_O 	O 	0.6037	0.68611	0.26764	-0.539
Mof_O 	O 	0.7372	0.66161	0.27976	-0.505
Mof_O 	O 	0.896	0.81777	0.11779	-0.499
Mof_O 	O 	0.7617	0.83756	0.10149	-0.497
Mof_C 	C 	0.6849	0.68843	0.25915	0.343
Mof_C 	C 	0.7168	0.722	0.22485	-0.12
Mof_C 	C 	0.7821	0.782	0.15974	-0.025
Mof_C 	C 	0.8149	0.81419	0.12438	0.299
Mof_N 	N 	0.5789	0.7706	0.2205	-0.137
Mof_H 	H 	0.5575	0.7442	0.2338	0.14
Mof_H 	H 	0.5455	0.7772	0.1981	0.191
Mof_C 	C 	0.6631	0.7611	0.2075	0.075
Mof_C 	C 	0.8024	0.7134	0.2088	0.017
Mof_H 	H 	0.8361	0.687	0.2203	0.021
Mof_C 	C 	0.6983	0.791	0.1749	-0.046
Mof_H 	H 	0.6647	0.8174	0.1632	0.052
Mof_C 	C 	0.8381	0.7429	0.1764	-0.01
Mof_H 	H 	0.8956	0.7376	0.166	0.025
Mof_N 	N 	0.5676	0.7501	0.2042	-0.306
Mof_H 	H 	0.5503	0.7278	0.2231	0.07
Mof_H 	H 	0.5391	0.7453	0.18	0.096
Mof_C 	C 	0.6589	0.7482	0.1994	0.064
Mof_C 	C 	0.6939	0.7779	0.1669	-0.049
Mof_H 	H 	0.655	0.796	0.1491	0.042
Mof_C 	C 	0.84	0.7554	0.1849	-0.039
Mof_H 	H 	0.9012	0.7575	0.1804	0.048
Mof_C 	C 	0.8052	0.7253	0.2176	-0.013
Mof_H 	H 	0.8439	0.7067	0.235	0.038
Mof_O 	O 	0.6037	0.18611	0.76764	-0.539
Mof_O 	O 	0.7372	0.16161	0.77976	-0.505
Mof_O 	O 	0.896	0.31777	0.61779	-0.499
Mof_O 	O 	0.7617	0.33756	0.60149	-0.497
Mof_C 	C 	0.6849	0.18843	0.75915	0.343
Mof_C 	C 	0.7168	0.222	0.72485	-0.12
Mof_C 	C 	0.7821	0.282	0.65974	-0.025
Mof_C 	C 	0.8149	0.31419	0.62438	0.299
Mof_N 	N 	0.5789	0.2706	0.7205	-0.137
Mof_H 	H 	0.5575	0.2442	0.7338	0.14
Mof_H 	H 	0.5455	0.2772	0.6981	0.191
Mof_C 	C 	0.6631	0.2611	0.7075	0.075
Mof_C 	C 	0.8024	0.2134	0.7088	0.017
Mof_H 	H 	0.8361	0.187	0.7203	0.021
Mof_C 	C 	0.6983	0.291	0.6749	-0.046
Mof_H 	H 	0.6647	0.3174	0.6632	0.052
Mof_C 	C 	0.8381	0.2429	0.6764	-0.01
Mof_H 	H 	0.8956	0.2376	0.666	0.025
Mof_N 	N 	0.5676	0.2501	0.7042	-0.306
Mof_H 	H 	0.5503	0.2278	0.7231	0.07
Mof_H 	H 	0.5391	0.2453	0.68	0.096
Mof_C 	C 	0.6589	0.2482	0.6994	0.064
Mof_C 	C 	0.6939	0.2779	0.6669	-0.049
Mof_H 	H 	0.655	0.296	0.6491	0.042
Mof_C 	C 	0.84	0.2554	0.6849	-0.039
Mof_H 	H 	0.9012	0.2575	0.6804	0.048
Mof_C 	C 	0.8052	0.2253	0.7176	-0.013
Mof_H 	H 	0.8439	0.2067	0.735	0.038
Mof_O 	O 	0.1037	0.68611	0.76764	-0.539
Mof_O 	O 	0.2372	0.66161	0.77976	-0.505
Mof_O 	O 	0.396	0.81777	0.61779	-0.499
Mof_O 	O 	0.2617	0.83756	0.60149	-0.497
Mof_C 	C 	0.1849	0.68843	0.75915	0.343
Mof_C 	C 	0.2168	0.722	0.72485	-0.12
Mof_C 	C 	0.2821	0.782	0.65974	-0.025
Mof_C 	C 	0.3149	0.81419	0.62438	0.299
Mof_N 	N 	0.0789	0.7706	0.7205	-0.137
Mof_H 	H 	0.0575	0.7442	0.7338	0.14
Mof_H 	H 	0.0455	0.7772	0.6981	0.191
Mof_C 	C 	0.1631	0.7611	0.7075	0.075
Mof_C 	C 	0.3024	0.7134	0.7088	0.017
Mof_H 	H 	0.3361	0.687	0.7203	0.021
Mof_C 	C 	0.1983	0.791	0.6749	-0.046
Mof_H 	H 	0.1647	0.8174	0.6632	0.052
Mof_C 	C 	0.3381	0.7429	0.6764	-0.01
Mof_H 	H 	0.3956	0.7376	0.666	0.025
Mof_N 	N 	0.0676	0.7501	0.7042	-0.306
Mof_H 	H 	0.0503	0.7278	0.7231	0.07
Mof_H 	H 	0.0391	0.7453	0.68	0.096
Mof_C 	C 	0.1589	0.7482	0.6994	0.064
Mof_C 	C 	0.1939	0.7779	0.6669	-0.049
Mof_H 	H 	0.155	0.796	0.6491	0.042
Mof_C 	C 	0.34	0.7554	0.6849	-0.039
Mof_H 	H 	0.4012	0.7575	0.6804	0.048
Mof_C 	C 	0.3052	0.7253	0.7176	-0.013
Mof_H 	H 	0.3439	0.7067	0.735	0.038
Mof_O 	O 	0.1037	0.18611	0.26764	-0.539
Mof_O 	O 	0.2372	0.16161	0.27976	-0.505
Mof_O 	O 	0.396	0.31777	0.11779	-0.499
Mof_O 	O 	0.2617	0.33756	0.10149	-0.497
Mof_C 	C 	0.1849	0.18843	0.25915	0.343
Mof_C 	C 	0.2168	0.222	0.22485	-0.12
Mof_C 	C 	0.2821	0.282	0.15974	-0.025
Mof_C 	C 	0.3149	0.31419	0.12438	0.299
Mof_N 	N 	0.0789	0.2706	0.2205	-0.137
Mof_H 	H 	0.0575	0.2442	0.2338	0.14
Mof_H 	H 	0.0455	0.2772	0.1981	0.191
Mof_C 	C 	0.1631	0.2611	0.2075	0.075
Mof_C 	C 	0.3024	0.2134	0.2088	0.017
Mof_H 	H 	0.3361	0.187	0.2203	0.021
Mof_C 	C 	0.1983	0.291	0.1749	-0.046
Mof_H 	H 	0.1647	0.3174	0.1632	0.052
Mof_C 	C 	0.3381	0.2429	0.1764	-0.01
Mof_H 	H 	0.3956	0.2376	0.166	0.025
Mof_N 	N 	0.0676	0.2501	0.2042	-0.306
Mof_H 	H 	0.0503	0.2278	0.2231	0.07
Mof_H 	H 	0.0391	0.2453	0.18	0.096
Mof_C 	C 	0.1589	0.2482	0.1994	0.064
Mof_C 	C 	0.1939	0.2779	0.1669	-0.049
Mof_H 	H 	0.155	0.296	0.1491	0.042
Mof_C 	C 	0.34	0.2554	0.1849	-0.039
Mof_H 	H 	0.4012	0.2575	0.1804	0.048
Mof_C 	C 	0.3052	0.2253	0.2176	-0.013
Mof_H 	H 	0.3439	0.2067	0.235	0.038
Mof_In	In	0.375	0.375	0.0657	2.53
Mof_In	In	0.375	0.875	0.5657	2.53
Mof_In	In	0.875	0.375	0.5657	2.53
Mof_In	In	0.875	0.875	0.0657	2.53
Mof_In	In	0.625	0.625	0.3157	2.53
Mof_In	In	0.625	0.125	0.8157	2.53
Mof_In	In	0.125	0.625	0.8157	2.53
Mof_In	In	0.125	0.125	0.3157	2.53
Mof_O 	O 	0.3537	0.43611	0.73236	-0.539
Mof_O 	O 	0.4872	0.41161	0.72024	-0.505
Mof_O 	O 	0.646	0.56777	0.88221	-0.499
Mof_O 	O 	0.5117	0.58756	0.89851	-0.497
Mof_C 	C 	0.4349	0.43843	0.74085	0.343
Mof_C 	C 	0.4668	0.472	0.77515	-0.12
Mof_C 	C 	0.5321	0.532	0.84026	-0.025
Mof_C 	C 	0.5649	0.56419	0.87562	0.299
Mof_N 	N 	0.3289	0.5206	0.7795	-0.137
Mof_H 	H 	0.3075	0.4942	0.7662	0.14
Mof_H 	H 	0.2955	0.5272	0.8019	0.191
Mof_C 	C 	0.4131	0.5111	0.7925	0.075
Mof_C 	C 	0.5524	0.4634	0.7912	0.017
Mof_H 	H 	0.5861	0.437	0.7797	0.021
Mof_C 	C 	0.4483	0.541	0.8251	-0.046
Mof_H 	H 	0.4147	0.5674	0.8368	0.052
Mof_C 	C 	0.5881	0.4929	0.8236	-0.01
Mof_H 	H 	0.6456	0.4876	0.834	0.025
Mof_N 	N 	0.3176	0.5001	0.7958	-0.306
Mof_H 	H 	0.3003	0.4778	0.7769	0.07
Mof_H 	H 	0.2891	0.4953	0.82	0.096
Mof_C 	C 	0.4089	0.4982	0.8006	0.064
Mof_C 	C 	0.4439	0.5279	0.8331	-0.049
Mof_H 	H 	0.405	0.546	0.8509	0.042
Mof_C 	C 	0.59	0.5054	0.8151	-0.039
Mof_H 	H 	0.6512	0.5075	0.8196	0.048
Mof_C 	C 	0.5552	0.4753	0.7824	-0.013
Mof_H 	H 	0.5939	0.4567	0.765	0.038
Mof_O 	O 	0.3537	0.93611	0.23236	-0.539
Mof_O 	O 	0.4872	0.91161	0.22024	-0.505
Mof_O 	O 	0.646	0.06777	0.38221	-0.499
Mof_O 	O 	0.5117	0.08756	0.39851	-0.497
Mof_C 	C 	0.4349	0.93843	0.24085	0.343
Mof_C 	C 	0.4668	0.972	0.27515	-0.12
Mof_C 	C 	0.5321	0.032	0.34026	-0.025
Mof_C 	C 	0.5649	0.06419	0.37562	0.299
Mof_N 	N 	0.3289	0.0206	0.2795	-0.137
Mof_H 	H 	0.3075	0.9942	0.2662	0.14
Mof_H 	H 	0.2955	0.0272	0.3019	0.191
Mof_C 	C 	0.4131	0.0111	0.2925	0.076
Mof_C 	C 	0.5524	0.9634	0.2912	0.017
Mof_H 	H 	0.5861	0.937	0.2797	0.021
Mof_C 	C 	0.4483	0.041	0.3251	-0.046
Mof_H 	H 	0.4147	0.0674	0.3368	0.052
Mof_C 	C 	0.5881	0.9929	0.3236	-0.011
Mof_H 	H 	0.6456	0.9876	0.334	0.025
Mof_N 	N 	0.3176	0.0001	0.2958	-0.306
Mof_H 	H 	0.3003	0.9778	0.2769	0.07
Mof_H 	H 	0.2891	0.9953	0.32	0.096
Mof_C 	C 	0.4089	0.9982	0.3006	0.064
Mof_C 	C 	0.4439	0.0279	0.3331	-0.049
Mof_H 	H 	0.405	0.046	0.3509	0.042
Mof_C 	C 	0.59	0.0054	0.3151	-0.039
Mof_H 	H 	0.6512	0.0075	0.3196	0.048
Mof_C 	C 	0.5552	0.9753	0.2824	-0.013
Mof_H 	H 	0.5939	0.9567	0.265	0.038
Mof_O 	O 	0.8537	0.43611	0.23236	-0.539
Mof_O 	O 	0.9872	0.41161	0.22024	-0.505
Mof_O 	O 	0.146	0.56777	0.38221	-0.499
Mof_O 	O 	0.0117	0.58756	0.39851	-0.497
Mof_C 	C 	0.9349	0.43843	0.24085	0.343
Mof_C 	C 	0.9668	0.472	0.27515	-0.12
Mof_C 	C 	0.0321	0.532	0.34026	-0.025
Mof_C 	C 	0.0649	0.56419	0.37562	0.299
Mof_N 	N 	0.8289	0.5206	0.2795	-0.137
Mof_H 	H 	0.8075	0.4942	0.2662	0.14
Mof_H 	H 	0.7955	0.5272	0.3019	0.191
Mof_C 	C 	0.9131	0.5111	0.2925	0.075
Mof_C 	C 	0.0524	0.4634	0.2912	0.017
Mof_H 	H 	0.0861	0.437	0.2797	0.021
Mof_C 	C 	0.9483	0.541	0.3251	-0.046
Mof_H 	H 	0.9147	0.5674	0.3368	0.052
Mof_C 	C 	0.0881	0.4929	0.3236	-0.01
Mof_H 	H 	0.1456	0.4876	0.334	0.025
Mof_N 	N 	0.8176	0.5001	0.2958	-0.306
Mof_H 	H 	0.8003	0.4778	0.2769	0.07
Mof_H 	H 	0.7891	0.4953	0.32	0.096
Mof_C 	C 	0.9089	0.4982	0.3006	0.064
Mof_C 	C 	0.9439	0.5279	0.3331	-0.049
Mof_H 	H 	0.905	0.546	0.3509	0.042
Mof_C 	C 	0.09	0.5054	0.3151	-0.039
Mof_H 	H 	0.1512	0.5075	0.3196	0.048
Mof_C 	C 	0.0552	0.4753	0.2824	-0.013
Mof_H 	H 	0.0939	0.4567	0.265	0.038
Mof_O 	O 	0.8537	0.93611	0.73236	-0.539
Mof_O 	O 	0.9872	0.91161	0.72024	-0.505
Mof_O 	O 	0.146	0.06777	0.88221	-0.499
Mof_O 	O 	0.0117	0.08756	0.89851	-0.497
Mof_C 	C 	0.9349	0.93843	0.74085	0.343
Mof_C 	C 	0.9668	0.972	0.77515	-0.12
Mof_C 	C 	0.0321	0.032	0.84026	-0.025
Mof_C 	C 	0.0649	0.06419	0.87562	0.299
Mof_N 	N 	0.8289	0.0206	0.7795	-0.136
Mof_H 	H 	0.8075	0.9942	0.7662	0.139
Mof_H 	H 	0.7955	0.0272	0.8019	0.191
Mof_C 	C 	0.9131	0.0111	0.7925	0.073
Mof_C 	C 	0.0524	0.9634	0.7912	0.017
Mof_H 	H 	0.0861	0.937	0.7797	0.021
Mof_C 	C 	0.9483	0.041	0.8251	-0.046
Mof_H 	H 	0.9147	0.0674	0.8368	0.053
Mof_C 	C 	0.0881	0.9929	0.8236	-0.01
Mof_H 	H 	0.1456	0.9876	0.834	0.024
Mof_N 	N 	0.8176	0.0001	0.7958	-0.306
Mof_H 	H 	0.8003	0.9778	0.7769	0.07
Mof_H 	H 	0.7891	0.9953	0.82	0.095
Mof_C 	C 	0.9089	0.9982	0.8006	0.066
Mof_C 	C 	0.9439	0.0279	0.8331	-0.049
Mof_H 	H 	0.905	0.046	0.8509	0.042
Mof_C 	C 	0.09	0.0054	0.8151	-0.039
Mof_H 	H 	0.1512	0.0075	0.8196	0.048
Mof_C 	C 	0.0552	0.9753	0.7824	-0.013
Mof_H 	H 	0.0939	0.9567	0.765	0.038
Mof_O 	O 	0.3963	0.31389	0.73236	-0.539
Mof_O 	O 	0.2628	0.33839	0.72024	-0.505
Mof_O 	O 	0.104	0.18223	0.88221	-0.499
Mof_O 	O 	0.2383	0.16244	0.89851	-0.497
Mof_C 	C 	0.3151	0.31157	0.74085	0.343
Mof_C 	C 	0.2832	0.278	0.77515	-0.12
Mof_C 	C 	0.2179	0.218	0.84026	-0.025
Mof_C 	C 	0.1851	0.18581	0.87562	0.299
Mof_N 	N 	0.4211	0.2294	0.7795	-0.137
Mof_H 	H 	0.4425	0.2558	0.7662	0.14
Mof_H 	H 	0.4545	0.2228	0.8019	0.191
Mof_C 	C 	0.3369	0.2389	0.7925	0.075
Mof_C 	C 	0.1976	0.2866	0.7912	0.017
Mof_H 	H 	0.1639	0.313	0.7797	0.021
Mof_C 	C 	0.3017	0.209	0.8251	-0.046
Mof_H 	H 	0.3353	0.1826	0.8368	0.052
Mof_C 	C 	0.1619	0.2571	0.8236	-0.01
Mof_H 	H 	0.1044	0.2624	0.834	0.025
Mof_N 	N 	0.4324	0.2499	0.7958	-0.306
Mof_H 	H 	0.4497	0.2722	0.7769	0.07
Mof_H 	H 	0.4609	0.2547	0.82	0.096
Mof_C 	C 	0.3411	0.2518	0.8006	0.064
Mof_C 	C 	0.3061	0.2221	0.8331	-0.049
Mof_H 	H 	0.345	0.204	0.8509	0.042
Mof_C 	C 	0.16	0.2446	0.8151	-0.039
Mof_H 	H 	0.0988	0.2425	0.8196	0.048
Mof_C 	C 	0.1948	0.2747	0.7824	-0.013
Mof_H 	H 	0.1561	0.2933	0.765	0.038
Mof_O 	O 	0.3963	0.81389	0.23236	-0.539
Mof_O 	O 	0.2628	0.83839	0.22024	-0.505
Mof_O 	O 	0.104	0.68223	0.38221	-0.499
Mof_O 	O 	0.2383	0.66244	0.39851	-0.497
Mof_C 	C 	0.3151	0.81157	0.24085	0.343
Mof_C 	C 	0.2832	0.778	0.27515	-0.12
Mof_C 	C 	0.2179	0.718	0.34026	-0.025
Mof_C 	C 	0.1851	0.68581	0.37562	0.299
Mof_N 	N 	0.4211	0.7294	0.2795	-0.137
Mof_H 	H 	0.4425	0.7558	0.2662	0.14
Mof_H 	H 	0.4545	0.7228	0.3019	0.191
Mof_C 	C 	0.3369	0.7389	0.2925	0.075
Mof_C 	C 	0.1976	0.7866	0.2912	0.017
Mof_H 	H 	0.1639	0.813	0.2797	0.021
Mof_C 	C 	0.3017	0.709	0.3251	-0.046
Mof_H 	H 	0.3353	0.6826	0.3368	0.052
Mof_C 	C 	0.1619	0.7571	0.3236	-0.01
Mof_H 	H 	0.1044	0.7624	0.334	0.025
Mof_N 	N 	0.4324	0.7499	0.2958	-0.306
Mof_H 	H 	0.4497	0.7722	0.2769	0.07
Mof_H 	H 	0.4609	0.7547	0.32	0.096
Mof_C 	C 	0.3411	0.7518	0.3006	0.064
Mof_C 	C 	0.3061	0.7221	0.3331	-0.049
Mof_H 	H 	0.345	0.704	0.3509	0.042
Mof_C 	C 	0.16	0.7446	0.3151	-0.039
Mof_H 	H 	0.0988	0.7425	0.3196	0.048
Mof_C 	C 	0.1948	0.7747	0.2824	-0.013
Mof_H 	H 	0.1561	0.7933	0.265	0.038
Mof_O 	O 	0.8963	0.31389	0.23236	-0.539
Mof_O 	O 	0.7628	0.33839	0.22024	-0.505
Mof_O 	O 	0.604	0.18223	0.38221	-0.499
Mof_O 	O 	0.7383	0.16244	0.39851	-0.497
Mof_C 	C 	0.8151	0.31157	0.24085	0.343
Mof_C 	C 	0.7832	0.278	0.27515	-0.12
Mof_C 	C 	0.7179	0.218	0.34026	-0.025
Mof_C 	C 	0.6851	0.18581	0.37562	0.299
Mof_N 	N 	0.9211	0.2294	0.2795	-0.137
Mof_H 	H 	0.9425	0.2558	0.2662	0.14
Mof_H 	H 	0.9545	0.2228	0.3019	0.191
Mof_C 	C 	0.8369	0.2389	0.2925	0.075
Mof_C 	C 	0.6976	0.2866	0.2912	0.017
Mof_H 	H 	0.6639	0.313	0.2797	0.021
Mof_C 	C 	0.8017	0.209	0.3251	-0.046
Mof_H 	H 	0.8353	0.1826	0.3368	0.052
Mof_C 	C 	0.6619	0.2571	0.3236	-0.01
Mof_H 	H 	0.6044	0.2624	0.334	0.025
Mof_N 	N 	0.9324	0.2499	0.2958	-0.306
Mof_H 	H 	0.9497	0.2722	0.2769	0.07
Mof_H 	H 	0.9609	0.2547	0.32	0.096
Mof_C 	C 	0.8411	0.2518	0.3006	0.064
Mof_C 	C 	0.8061	0.2221	0.3331	-0.049
Mof_H 	H 	0.845	0.204	0.3509	0.042
Mof_C 	C 	0.66	0.2446	0.3151	-0.039
Mof_H 	H 	0.5988	0.2425	0.3196	0.048
Mof_C 	C 	0.6948	0.2747	0.2824	-0.013
Mof_H 	H 	0.6561	0.2933	0.265	0.038
Mof_O 	O 	0.8963	0.81389	0.73236	-0.539
Mof_O 	O 	0.7628	0.83839	0.72024	-0.505
Mof_O 	O 	0.604	0.68223	0.88221	-0.499
Mof_O 	O 	0.7383	0.66244	0.89851	-0.497
Mof_C 	C 	0.8151	0.81157	0.74085	0.343
Mof_C 	C 	0.7832	0.778	0.77515	-0.12
Mof_C 	C 	0.7179	0.718	0.84026	-0.025
Mof_C 	C 	0.6851	0.68581	0.87562	0.299
Mof_N 	N 	0.9211	0.7294	0.7795	-0.137
Mof_H 	H 	0.9425	0.7558	0.7662	0.14
Mof_H 	H 	0.9545	0.7228	0.8019	0.191
Mof_C 	C 	0.8369	0.7389	0.7925	0.075
Mof_C 	C 	0.6976	0.7866	0.7912	0.017
Mof_H 	H 	0.6639	0.813	0.7797	0.021
Mof_C 	C 	0.8017	0.709	0.8251	-0.046
Mof_H 	H 	0.8353	0.6826	0.8368	0.052
Mof_C 	C 	0.6619	0.7571	0.8236	-0.01
Mof_H 	H 	0.6044	0.7624	0.834	0.025
Mof_N 	N 	0.9324	0.7499	0.7958	-0.306
Mof_H 	H 	0.9497	0.7722	0.7769	0.07
Mof_H 	H 	0.9609	0.7547	0.82	0.096
Mof_C 	C 	0.8411	0.7518	0.8006	0.064
Mof_C 	C 	0.8061	0.7221	0.8331	-0.049
Mof_H 	H 	0.845	0.704	0.8509	0.042
Mof_C 	C 	0.66	0.7446	0.8151	-0.039
Mof_H 	H 	0.5988	0.7425	0.8196	0.048
Mof_C 	C 	0.6948	0.7747	0.7824	-0.013
Mof_H 	H 	0.6561	0.7933	0.765	0.038
Mof_O 	O 	0.6037	0.56389	0.98236	-0.539
Mof_O 	O 	0.7372	0.58839	0.97024	-0.505
Mof_O 	O 	0.896	0.43223	0.13221	-0.499
Mof_O 	O 	0.7617	0.41244	0.14851	-0.497
Mof_C 	C 	0.6849	0.56157	0.99085	0.342
Mof_C 	C 	0.7168	0.528	0.02515	-0.12
Mof_C 	C 	0.7821	0.468	0.09026	-0.025
Mof_C 	C 	0.8149	0.43581	0.12562	0.299
Mof_N 	N 	0.5789	0.4794	0.0295	-0.137
Mof_H 	H 	0.5575	0.5058	0.0162	0.14
Mof_H 	H 	0.5455	0.4728	0.0519	0.191
Mof_C 	C 	0.6631	0.4889	0.0425	0.075
Mof_C 	C 	0.8024	0.5366	0.0412	0.017
Mof_H 	H 	0.8361	0.563	0.0297	0.021
Mof_C 	C 	0.6983	0.459	0.0751	-0.046
Mof_H 	H 	0.6647	0.4326	0.0868	0.052
Mof_C 	C 	0.8381	0.5071	0.0736	-0.01
Mof_H 	H 	0.8956	0.5124	0.084	0.025
Mof_N 	N 	0.5676	0.4999	0.0458	-0.306
Mof_H 	H 	0.5503	0.5222	0.0269	0.07
Mof_H 	H 	0.5391	0.5047	0.07	0.096
Mof_C 	C 	0.6589	0.5018	0.0506	0.064
Mof_C 	C 	0.6939	0.4721	0.0831	-0.049
Mof_H 	H 	0.655	0.454	0.1009	0.042
Mof_C 	C 	0.84	0.4946	0.0651	-0.039
Mof_H 	H 	0.9012	0.4925	0.0696	0.048
Mof_C 	C 	0.8052	0.5247	0.0324	-0.013
Mof_H 	H 	0.8439	0.5433	0.015	0.038
Mof_O 	O 	0.6037	0.06389	0.48236	-0.539
Mof_O 	O 	0.7372	0.08839	0.47024	-0.505
Mof_O 	O 	0.896	0.93223	0.63221	-0.499
Mof_O 	O 	0.7617	0.91244	0.64851	-0.497
Mof_C 	C 	0.6849	0.06157	0.49085	0.343
Mof_C 	C 	0.7168	0.028	0.52515	-0.12
Mof_C 	C 	0.7821	0.968	0.59026	-0.025
Mof_C 	C 	0.8149	0.93581	0.62562	0.299
Mof_N 	N 	0.5789	0.9794	0.5295	-0.137
Mof_H 	H 	0.5575	0.0058	0.5162	0.14
Mof_H 	H 	0.5455	0.9728	0.5519	0.191
Mof_C 	C 	0.6631	0.9889	0.5425	0.076
Mof_C 	C 	0.8024	0.0366	0.5412	0.017
Mof_H 	H 	0.8361	0.063	0.5297	0.021
Mof_C 	C 	0.6983	0.959	0.5751	-0.046
Mof_H 	H 	0.6647	0.9326	0.5868	0.052
Mof_C 	C 	0.8381	0.0071	0.5736	-0.011
Mof_H 	H 	0.8956	0.0124	0.584	0.025
Mof_N 	N 	0.5676	0.9999	0.5458	-0.306
Mof_H 	H 	0.5503	0.0222	0.5269	0.07
Mof_H 	H 	0.5391	0.0047	0.57	0.096
Mof_C 	C 	0.6589	0.0018	0.5506	0.064
Mof_C 	C 	0.6939	0.9721	0.5831	-0.049
Mof_H 	H 	0.655	0.954	0.6009	0.042
Mof_C 	C 	0.84	0.9946	0.5651	-0.039
Mof_H 	H 	0.9012	0.9925	0.5696	0.048
Mof_C 	C 	0.8052	0.0247	0.5324	-0.013
Mof_H 	H 	0.8439	0.0433	0.515	0.038
Mof_O 	O 	0.1037	0.56389	0.48236	-0.539
Mof_O 	O 	0.2372	0.58839	0.47024	-0.505
Mof_O 	O 	0.396	0.43223	0.63221	-0.499
Mof_O 	O 	0.2617	0.41244	0.64851	-0.497
Mof_C 	C 	0.1849	0.56157	0.49085	0.343
Mof_C 	C 	0.2168	0.528	0.52515	-0.12
Mof_C 	C 	0.2821	0.468	0.59026	-0.025
Mof_C 	C 	0.3149	0.43581	0.62562	0.299
Mof_N 	N 	0.0789	0.4794	0.5295	-0.137
Mof_H 	H 	0.0575	0.5058	0.5162	0.14
Mof_H 	H 	0.0455	0.4728	0.5519	0.191
Mof_C 	C 	0.1631	0.4889	0.5425	0.075
Mof_C 	C 	0.3024	0.5366	0.5412	0.017
Mof_H 	H 	0.3361	0.563	0.5297	0.021
Mof_C 	C 	0.1983	0.459	0.5751	-0.046
Mof_H 	H 	0.1647	0.4326	0.5868	0.052
Mof_C 	C 	0.3381	0.5071	0.5736	-0.01
Mof_H 	H 	0.3956	0.5124	0.584	0.025
Mof_N 	N 	0.0676	0.4999	0.5458	-0.306
Mof_H 	H 	0.0503	0.5222	0.5269	0.07
Mof_H 	H 	0.0391	0.5047	0.57	0.096
Mof_C 	C 	0.1589	0.5018	0.5506	0.064
Mof_C 	C 	0.1939	0.4721	0.5831	-0.049
Mof_H 	H 	0.155	0.454	0.6009	0.042
Mof_C 	C 	0.34	0.4946	0.5651	-0.039
Mof_H 	H 	0.4012	0.4925	0.5696	0.048
Mof_C 	C 	0.3052	0.5247	0.5324	-0.013
Mof_H 	H 	0.3439	0.5433	0.515	0.038
Mof_O 	O 	0.1037	0.06389	0.98236	-0.539
Mof_O 	O 	0.2372	0.08839	0.97024	-0.505
Mof_O 	O 	0.396	0.93223	0.13221	-0.499
Mof_O 	O 	0.2617	0.91244	0.14851	-0.497
Mof_C 	C 	0.1849	0.06157	0.99085	0.343
Mof_C 	C 	0.2168	0.028	0.02515	-0.12
Mof_C 	C 	0.2821	0.968	0.09026	-0.025
Mof_C 	C 	0.3149	0.93581	0.12562	0.299
Mof_N 	N 	0.0789	0.9794	0.0295	-0.136
Mof_H 	H 	0.0575	0.0058	0.0162	0.139
Mof_H 	H 	0.0455	0.9728	0.0519	0.191
Mof_C 	C 	0.1631	0.9889	0.0425	0.073
Mof_C 	C 	0.3024	0.0366	0.0412	0.017
Mof_H 	H 	0.3361	0.063	0.0297	0.021
Mof_C 	C 	0.1983	0.959	0.0751	-0.046
Mof_H 	H 	0.1647	0.9326	0.0868	0.053
Mof_C 	C 	0.3381	0.0071	0.0736	-0.009
Mof_H 	H 	0.3956	0.0124	0.084	0.024
Mof_N 	N 	0.0676	0.9999	0.0458	-0.306
Mof_H 	H 	0.0503	0.0222	0.0269	0.07
Mof_H 	H 	0.0391	0.0047	0.07	0.095
Mof_C 	C 	0.1589	0.0018	0.0506	0.067
Mof_C 	C 	0.1939	0.9721	0.0831	-0.048
Mof_H 	H 	0.155	0.954	0.1009	0.041
Mof_C 	C 	0.34	0.9946	0.0651	-0.04
Mof_H 	H 	0.4012	0.9925	0.0696	0.049
Mof_C 	C 	0.3052	0.0247	0.0324	-0.013
Mof_H 	H 	0.3439	0.0433	0.015	0.038
Mof_O 	O 	0.6463	0.68611	0.98236	-0.539
Mof_O 	O 	0.5128	0.66161	0.97024	-0.505
Mof_O 	O 	0.354	0.81777	0.13221	-0.499
Mof_O 	O 	0.4883	0.83756	0.14851	-0.497
Mof_C 	C 	0.5651	0.68843	0.99085	0.342
Mof_C 	C 	0.5332	0.722	0.02515	-0.12
Mof_C 	C 	0.4679	0.782	0.09026	-0.025
Mof_C 	C 	0.4351	0.81419	0.12562	0.299
Mof_N 	N 	0.6711	0.7706	0.0295	-0.137
Mof_H 	H 	0.6925	0.7442	0.0162	0.14
Mof_H 	H 	0.7045	0.7772	0.0519	0.191
Mof_C 	C 	0.5869	0.7611	0.0425	0.075
Mof_C 	C 	0.4476	0.7134	0.0412	0.017
Mof_H 	H 	0.4139	0.687	0.0297	0.021
Mof_C 	C 	0.5517	0.791	0.0751	-0.046
Mof_H 	H 	0.5853	0.8174	0.0868	0.052
Mof_C 	C 	0.4119	0.7429	0.0736	-0.01
Mof_H 	H 	0.3544	0.7376	0.084	0.025
Mof_N 	N 	0.6824	0.7501	0.0458	-0.306
Mof_H 	H 	0.6997	0.7278	0.0269	0.07
Mof_H 	H 	0.7109	0.7453	0.07	0.096
Mof_C 	C 	0.5911	0.7482	0.0506	0.064
Mof_C 	C 	0.5561	0.7779	0.0831	-0.049
Mof_H 	H 	0.595	0.796	0.1009	0.042
Mof_C 	C 	0.41	0.7554	0.0651	-0.039
Mof_H 	H 	0.3488	0.7575	0.0696	0.048
Mof_C 	C 	0.4448	0.7253	0.0324	-0.013
Mof_H 	H 	0.4061	0.7067	0.015	0.038
Mof_O 	O 	0.6463	0.18611	0.48236	-0.539
Mof_O 	O 	0.5128	0.16161	0.47024	-0.505
Mof_O 	O 	0.354	0.31777	0.63221	-0.499
Mof_O 	O 	0.4883	0.33756	0.64851	-0.497
Mof_C 	C 	0.5651	0.18843	0.49085	0.343
Mof_C 	C 	0.5332	0.222	0.52515	-0.12
Mof_C 	C 	0.4679	0.282	0.59026	-0.025
Mof_C 	C 	0.4351	0.31419	0.62562	0.299
Mof_N 	N 	0.6711	0.2706	0.5295	-0.137
Mof_H 	H 	0.6925	0.2442	0.5162	0.14
Mof_H 	H 	0.7045	0.2772	0.5519	0.191
Mof_C 	C 	0.5869	0.2611	0.5425	0.075
Mof_C 	C 	0.4476	0.2134	0.5412	0.017
Mof_H 	H 	0.4139	0.187	0.5297	0.021
Mof_C 	C 	0.5517	0.291	0.5751	-0.046
Mof_H 	H 	0.5853	0.3174	0.5868	0.052
Mof_C 	C 	0.4119	0.2429	0.5736	-0.01
Mof_H 	H 	0.3544	0.2376	0.584	0.025
Mof_N 	N 	0.6824	0.2501	0.5458	-0.306
Mof_H 	H 	0.6997	0.2278	0.5269	0.07
Mof_H 	H 	0.7109	0.2453	0.57	0.096
Mof_C 	C 	0.5911	0.2482	0.5506	0.064
Mof_C 	C 	0.5561	0.2779	0.5831	-0.049
Mof_H 	H 	0.595	0.296	0.6009	0.042
Mof_C 	C 	0.41	0.2554	0.5651	-0.039
Mof_H 	H 	0.3488	0.2575	0.5696	0.048
Mof_C 	C 	0.4448	0.2253	0.5324	-0.013
Mof_H 	H 	0.4061	0.2067	0.515	0.038
Mof_O 	O 	0.1463	0.68611	0.48236	-0.539
Mof_O 	O 	0.0128	0.66161	0.47024	-0.505
Mof_O 	O 	0.854	0.81777	0.63221	-0.499
Mof_O 	O 	0.9883	0.83756	0.64851	-0.497
Mof_C 	C 	0.0651	0.68843	0.49085	0.342
Mof_C 	C 	0.0332	0.722	0.52515	-0.12
Mof_C 	C 	0.9679	0.782	0.59026	-0.025
Mof_C 	C 	0.9351	0.81419	0.62562	0.299
Mof_N 	N 	0.1711	0.7706	0.5295	-0.137
Mof_H 	H 	0.1925	0.7442	0.5162	0.14
Mof_H 	H 	0.2045	0.7772	0.5519	0.191
Mof_C 	C 	0.0869	0.7611	0.5425	0.075
Mof_C 	C 	0.9476	0.7134	0.5412	0.017
Mof_H 	H 	0.9139	0.687	0.5297	0.021
Mof_C 	C 	0.0517	0.791	0.5751	-0.046
Mof_H 	H 	0.0853	0.8174	0.5868	0.052
Mof_C 	C 	0.9119	0.7429	0.5736	-0.01
Mof_H 	H 	0.8544	0.7376	0.584	0.025
Mof_N 	N 	0.1824	0.7501	0.5458	-0.306
Mof_H 	H 	0.1997	0.7278	0.5269	0.07
Mof_H 	H 	0.2109	0.7453	0.57	0.096
Mof_C 	C 	0.0911	0.7482	0.5506	0.064
Mof_C 	C 	0.0561	0.7779	0.5831	-0.049
Mof_H 	H 	0.095	0.796	0.6009	0.042
Mof_C 	C 	0.91	0.7554	0.5651	-0.039
Mof_H 	H 	0.8488	0.7575	0.5696	0.048
Mof_C 	C 	0.9448	0.7253	0.5324	-0.013
Mof_H 	H 	0.9061	0.7067	0.515	0.038
Mof_O 	O 	0.1463	0.18611	0.98236	-0.539
Mof_O 	O 	0.0128	0.16161	0.97024	-0.505
Mof_O 	O 	0.854	0.31777	0.13221	-0.499
Mof_O 	O 	0.9883	0.33756	0.14851	-0.497
Mof_C 	C 	0.0651	0.18843	0.99085	0.343
Mof_C 	C 	0.0332	0.222	0.02515	-0.121
Mof_C 	C 	0.9679	0.282	0.09026	-0.025
Mof_C 	C 	0.9351	0.31419	0.12562	0.299
Mof_N 	N 	0.1711	0.2706	0.0295	-0.137
Mof_H 	H 	0.1925	0.2442	0.0162	0.14
Mof_H 	H 	0.2045	0.2772	0.0519	0.191
Mof_C 	C 	0.0869	0.2611	0.0425	0.075
Mof_C 	C 	0.9476	0.2134	0.0412	0.017
Mof_H 	H 	0.9139	0.187	0.0297	0.021
Mof_C 	C 	0.0517	0.291	0.0751	-0.046
Mof_H 	H 	0.0853	0.3174	0.0868	0.052
Mof_C 	C 	0.9119	0.2429	0.0736	-0.01
Mof_H 	H 	0.8544	0.2376	0.084	0.025
Mof_N 	N 	0.1824	0.2501	0.0458	-0.306
Mof_H 	H 	0.1997	0.2278	0.0269	0.07
Mof_H 	H 	0.2109	0.2453	0.07	0.096
Mof_C 	C 	0.0911	0.2482	0.0506	0.064
Mof_C 	C 	0.0561	0.2779	0.0831	-0.049
Mof_H 	H 	0.095	0.296	0.1009	0.042
Mof_C 	C 	0.91	0.2554	0.0651	-0.039
Mof_H 	H 	0.8488	0.2575	0.0696	0.048
Mof_C 	C 	0.9448	0.2253	0.0324	-0.013
Mof_H 	H 	0.9061	0.2067	0.015	0.038
Mof_In	In	0.375	0.375	0.6843	2.53
Mof_In	In	0.375	0.875	0.1843	2.53
Mof_In	In	0.875	0.375	0.1843	2.53
Mof_In	In	0.875	0.875	0.6843	2.53
Mof_In	In	0.625	0.625	0.9343	2.53
Mof_In	In	0.625	0.125	0.4343	2.53
Mof_In	In	0.125	0.625	0.4343	2.53
Mof_In	In	0.125	0.125	0.9343	2.53
_end
