# CIF file generated by openbabel 3.1.0, see https://openbabel.org
data_I
_chemical_name_common 'image0'
_cell_length_a 19.0999
_cell_length_b 22.8762
_cell_length_c 13.3876
_cell_angle_alpha 90
_cell_angle_beta 112.928
_cell_angle_gamma 90
_space_group_name_H-M_alt 'P 1'
_space_group_name_Hall 'P 1'
loop_
    _symmetry_equiv_pos_as_xyz
    x,y,z
loop_
    _atom_site_label
    _atom_site_type_symbol
    _atom_site_fract_x
    _atom_site_fract_y
    _atom_site_fract_z
    _atom_site_occupancy
    Cu1      Cu       0.49754    0.76429    0.55779    1.000
    N1       N        0.46920    0.67879    0.54620    1.000
    N2       N        0.40750    0.76770    0.41670    1.000
    N3       N        0.57440    0.93385    0.80260    1.000
    O1       O        0.51290    0.84840    0.56590    1.000
    O2       O        0.62160    0.84811    0.54100    1.000
    O3       O        0.58100    0.74775    0.69390    1.000
    O4       O        0.57900    0.81081    0.82000    1.000
    C1       C        0.50290    0.63550    0.61290    1.000
    H1       H        0.54210    0.64400    0.67910    1.000
    C2       C        0.48090    0.57710    0.58640    1.000
    H2       H        0.50610    0.54730    0.63430    1.000
    C3       C        0.42410    0.56420    0.49270    1.000
    H3       H        0.40870    0.52560    0.47610    1.000
    C4       C        0.38720    0.60930    0.41890    1.000
    C5       C        0.32510    0.60130    0.31470    1.000
    H4       H        0.30650    0.56390    0.29300    1.000
    C6       C        0.29420    0.64580    0.24980    1.000
    H5       H        0.25520    0.63880    0.18290    1.000
    C7       C        0.31890    0.70440    0.27930    1.000
    C8       C        0.28890    0.75430    0.21650    1.000
    H6       H        0.24960    0.75070    0.14850    1.000
    C9       C        0.31650    0.80680    0.25400    1.000
    H7       H        0.29580    0.83970    0.21220    1.000
    C10      C        0.37530    0.81340    0.35420    1.000
    H8       H        0.39290    0.85070    0.37850    1.000
    C11      C        0.37830    0.71360    0.38050    1.000
    C12      C        0.41220    0.66590    0.45050    1.000
    C13      C        0.64870    0.93200    0.85700    1.000
    H9       H        0.67290    0.89590    0.87410    1.000
    C14      C        0.69180    0.98320    0.88950    1.000
    H10      H        0.74410    0.98080    0.92750    1.000
    C15      C        0.65790    0.03590    0.86610    1.000
    H11      H        0.68660    0.06970    0.88900    1.000
    C16      C        0.58020    0.03960    0.80780    1.000
    C17      C        0.53790    0.09300    0.77790    1.000
    H12      H        0.56340    0.12850    0.79750    1.000
    C18      C        0.53990    0.98730    0.77860    1.000
    C19      C        0.56800    0.87330    0.55260    1.000
    C20      C        0.56580    0.93850    0.54600    1.000
    H13      H        0.61160    0.95870    0.56930    1.000
    C21      C        0.50190    0.96880    0.50880    1.000
    H14      H        0.45650    0.94860    0.49300    1.000
    C22      C        0.60550    0.76840    0.78630    1.000
    C23      C        0.67440    0.74010    0.86670    1.000
    H15      H        0.68910    0.70410    0.84930    1.000
    C24      C        0.71570    0.76330    0.96120    1.000
    H16      H        0.70010    0.79880    0.97940    1.000
    Cu2      Cu       0.99754    0.26429    0.55779    1.000
    N4       N        0.96920    0.17879    0.54620    1.000
    N5       N        0.90750    0.26770    0.41670    1.000
    N6       N        0.07440    0.43385    0.80260    1.000
    O5       O        0.01290    0.34840    0.56590    1.000
    O6       O        0.12160    0.34811    0.54100    1.000
    O7       O        0.08100    0.24775    0.69390    1.000
    O8       O        0.07900    0.31081    0.82000    1.000
    C25      C        0.00290    0.13550    0.61290    1.000
    H17      H        0.04210    0.14400    0.67910    1.000
    C26      C        0.98090    0.07710    0.58640    1.000
    H18      H        0.00610    0.04730    0.63430    1.000
    C27      C        0.92410    0.06420    0.49270    1.000
    H19      H        0.90870    0.02560    0.47610    1.000
    C28      C        0.88720    0.10930    0.41890    1.000
    C29      C        0.82510    0.10130    0.31470    1.000
    H20      H        0.80650    0.06390    0.29300    1.000
    C30      C        0.79420    0.14580    0.24980    1.000
    H21      H        0.75520    0.13880    0.18290    1.000
    C31      C        0.81890    0.20440    0.27930    1.000
    C32      C        0.78890    0.25430    0.21650    1.000
    H22      H        0.74960    0.25070    0.14850    1.000
    C33      C        0.81650    0.30680    0.25400    1.000
    H23      H        0.79580    0.33970    0.21220    1.000
    C34      C        0.87530    0.31340    0.35420    1.000
    H24      H        0.89290    0.35070    0.37850    1.000
    C35      C        0.87830    0.21360    0.38050    1.000
    C36      C        0.91220    0.16590    0.45050    1.000
    C37      C        0.14870    0.43200    0.85700    1.000
    H25      H        0.17290    0.39590    0.87410    1.000
    C38      C        0.19180    0.48320    0.88950    1.000
    H26      H        0.24410    0.48080    0.92750    1.000
    C39      C        0.15790    0.53590    0.86610    1.000
    H27      H        0.18660    0.56970    0.88900    1.000
    C40      C        0.08020    0.53960    0.80780    1.000
    C41      C        0.03790    0.59300    0.77790    1.000
    H28      H        0.06340    0.62850    0.79750    1.000
    C42      C        0.03990    0.48730    0.77860    1.000
    C43      C        0.06800    0.37330    0.55260    1.000
    C44      C        0.06580    0.43850    0.54600    1.000
    H29      H        0.11160    0.45870    0.56930    1.000
    C45      C        0.00190    0.46880    0.50880    1.000
    H30      H        0.95650    0.44860    0.49300    1.000
    C46      C        0.10550    0.26840    0.78630    1.000
    C47      C        0.17440    0.24010    0.86670    1.000
    H31      H        0.18910    0.20410    0.84930    1.000
    C48      C        0.21570    0.26330    0.96120    1.000
    H32      H        0.20010    0.29880    0.97940    1.000
    Cu3      Cu       0.50246    0.76429    0.94221    1.000
    N7       N        0.53080    0.67879    0.95380    1.000
    N8       N        0.59250    0.76770    0.08330    1.000
    N9       N        0.42560    0.93385    0.69740    1.000
    O9       O        0.48710    0.84840    0.93410    1.000
    O10      O        0.37840    0.84811    0.95900    1.000
    O11      O        0.41900    0.74775    0.80610    1.000
    O12      O        0.42100    0.81081    0.68000    1.000
    C49      C        0.49710    0.63550    0.88710    1.000
    H33      H        0.45790    0.64400    0.82090    1.000
    C50      C        0.51910    0.57710    0.91360    1.000
    H34      H        0.49390    0.54730    0.86570    1.000
    C51      C        0.57590    0.56420    0.00730    1.000
    H35      H        0.59130    0.52560    0.02390    1.000
    C52      C        0.61280    0.60930    0.08110    1.000
    C53      C        0.67490    0.60130    0.18530    1.000
    H36      H        0.69350    0.56390    0.20700    1.000
    C54      C        0.70580    0.64580    0.25020    1.000
    H37      H        0.74480    0.63880    0.31710    1.000
    C55      C        0.68110    0.70440    0.22070    1.000
    C56      C        0.71110    0.75430    0.28350    1.000
    H38      H        0.75040    0.75070    0.35150    1.000
    C57      C        0.68350    0.80680    0.24600    1.000
    H39      H        0.70420    0.83970    0.28780    1.000
    C58      C        0.62470    0.81340    0.14580    1.000
    H40      H        0.60710    0.85070    0.12150    1.000
    C59      C        0.62170    0.71360    0.11950    1.000
    C60      C        0.58780    0.66590    0.04950    1.000
    C61      C        0.35130    0.93200    0.64300    1.000
    H41      H        0.32710    0.89590    0.62590    1.000
    C62      C        0.30820    0.98320    0.61050    1.000
    H42      H        0.25590    0.98080    0.57250    1.000
    C63      C        0.34210    0.03590    0.63390    1.000
    H43      H        0.31340    0.06970    0.61100    1.000
    C64      C        0.41980    0.03960    0.69220    1.000
    C65      C        0.46210    0.09300    0.72210    1.000
    H44      H        0.43660    0.12850    0.70250    1.000
    C66      C        0.46010    0.98730    0.72140    1.000
    C67      C        0.43200    0.87330    0.94740    1.000
    C68      C        0.43420    0.93850    0.95400    1.000
    H45      H        0.38840    0.95870    0.93070    1.000
    C69      C        0.49810    0.96880    0.99120    1.000
    H46      H        0.54350    0.94860    0.00700    1.000
    C70      C        0.39450    0.76840    0.71370    1.000
    C71      C        0.32560    0.74010    0.63330    1.000
    H47      H        0.31090    0.70410    0.65070    1.000
    C72      C        0.28430    0.76330    0.53880    1.000
    H48      H        0.29990    0.79880    0.52060    1.000
    Cu4      Cu       0.00246    0.26429    0.94221    1.000
    N10      N        0.03080    0.17879    0.95380    1.000
    N11      N        0.09250    0.26770    0.08330    1.000
    N12      N        0.92560    0.43385    0.69740    1.000
    O13      O        0.98710    0.34840    0.93410    1.000
    O14      O        0.87840    0.34811    0.95900    1.000
    O15      O        0.91900    0.24775    0.80610    1.000
    O16      O        0.92100    0.31081    0.68000    1.000
    C73      C        0.99710    0.13550    0.88710    1.000
    H49      H        0.95790    0.14400    0.82090    1.000
    C74      C        0.01910    0.07710    0.91360    1.000
    H50      H        0.99390    0.04730    0.86570    1.000
    C75      C        0.07590    0.06420    0.00730    1.000
    H51      H        0.09130    0.02560    0.02390    1.000
    C76      C        0.11280    0.10930    0.08110    1.000
    C77      C        0.17490    0.10130    0.18530    1.000
    H52      H        0.19350    0.06390    0.20700    1.000
    C78      C        0.20580    0.14580    0.25020    1.000
    H53      H        0.24480    0.13880    0.31710    1.000
    C79      C        0.18110    0.20440    0.22070    1.000
    C80      C        0.21110    0.25430    0.28350    1.000
    H54      H        0.25040    0.25070    0.35150    1.000
    C81      C        0.18350    0.30680    0.24600    1.000
    H55      H        0.20420    0.33970    0.28780    1.000
    C82      C        0.12470    0.31340    0.14580    1.000
    H56      H        0.10710    0.35070    0.12150    1.000
    C83      C        0.12170    0.21360    0.11950    1.000
    C84      C        0.08780    0.16590    0.04950    1.000
    C85      C        0.85130    0.43200    0.64300    1.000
    H57      H        0.82710    0.39590    0.62590    1.000
    C86      C        0.80820    0.48320    0.61050    1.000
    H58      H        0.75590    0.48080    0.57250    1.000
    C87      C        0.84210    0.53590    0.63390    1.000
    H59      H        0.81340    0.56970    0.61100    1.000
    C88      C        0.91980    0.53960    0.69220    1.000
    C89      C        0.96210    0.59300    0.72210    1.000
    H60      H        0.93660    0.62850    0.70250    1.000
    C90      C        0.96010    0.48730    0.72140    1.000
    C91      C        0.93200    0.37330    0.94740    1.000
    C92      C        0.93420    0.43850    0.95400    1.000
    H61      H        0.88840    0.45870    0.93070    1.000
    C93      C        0.99810    0.46880    0.99120    1.000
    H62      H        0.04350    0.44860    0.00700    1.000
    C94      C        0.89450    0.26840    0.71370    1.000
    C95      C        0.82560    0.24010    0.63330    1.000
    H63      H        0.81090    0.20410    0.65070    1.000
    C96      C        0.78430    0.26330    0.53880    1.000
    H64      H        0.79990    0.29880    0.52060    1.000
    Cu5      Cu       0.50246    0.23571    0.44221    1.000
    N13      N        0.53080    0.32121    0.45380    1.000
    N14      N        0.59250    0.23230    0.58330    1.000
    N15      N        0.42560    0.06615    0.19740    1.000
    O17      O        0.48710    0.15160    0.43410    1.000
    O18      O        0.37840    0.15189    0.45900    1.000
    O19      O        0.41900    0.25225    0.30610    1.000
    O20      O        0.42100    0.18919    0.18000    1.000
    C97      C        0.49710    0.36450    0.38710    1.000
    H65      H        0.45790    0.35600    0.32090    1.000
    C98      C        0.51910    0.42290    0.41360    1.000
    H66      H        0.49390    0.45270    0.36570    1.000
    C99      C        0.57590    0.43580    0.50730    1.000
    H67      H        0.59130    0.47440    0.52390    1.000
    C100     C        0.61280    0.39070    0.58110    1.000
    C101     C        0.67490    0.39870    0.68530    1.000
    H68      H        0.69350    0.43610    0.70700    1.000
    C102     C        0.70580    0.35420    0.75020    1.000
    H69      H        0.74480    0.36120    0.81710    1.000
    C103     C        0.68110    0.29560    0.72070    1.000
    C104     C        0.71110    0.24570    0.78350    1.000
    H70      H        0.75040    0.24930    0.85150    1.000
    C105     C        0.68350    0.19320    0.74600    1.000
    H71      H        0.70420    0.16030    0.78780    1.000
    C106     C        0.62470    0.18660    0.64580    1.000
    H72      H        0.60710    0.14930    0.62150    1.000
    C107     C        0.62170    0.28640    0.61950    1.000
    C108     C        0.58780    0.33410    0.54950    1.000
    C109     C        0.35130    0.06800    0.14300    1.000
    H73      H        0.32710    0.10410    0.12590    1.000
    C110     C        0.30820    0.01680    0.11050    1.000
    H74      H        0.25590    0.01920    0.07250    1.000
    C111     C        0.34210    0.96410    0.13390    1.000
    H75      H        0.31340    0.93030    0.11100    1.000
    C112     C        0.41980    0.96040    0.19220    1.000
    C113     C        0.46210    0.90700    0.22210    1.000
    H76      H        0.43660    0.87150    0.20250    1.000
    C114     C        0.46010    0.01270    0.22140    1.000
    C115     C        0.43200    0.12670    0.44740    1.000
    C116     C        0.43420    0.06150    0.45400    1.000
    H77      H        0.38840    0.04130    0.43070    1.000
    C117     C        0.49810    0.03120    0.49120    1.000
    H78      H        0.54350    0.05140    0.50700    1.000
    C118     C        0.39450    0.23160    0.21370    1.000
    C119     C        0.32560    0.25990    0.13330    1.000
    H79      H        0.31090    0.29590    0.15070    1.000
    C120     C        0.28430    0.23670    0.03880    1.000
    H80      H        0.29990    0.20120    0.02060    1.000
    Cu6      Cu       0.00246    0.73571    0.44221    1.000
    N16      N        0.03080    0.82121    0.45380    1.000
    N17      N        0.09250    0.73230    0.58330    1.000
    N18      N        0.92560    0.56615    0.19740    1.000
    O21      O        0.98710    0.65160    0.43410    1.000
    O22      O        0.87840    0.65189    0.45900    1.000
    O23      O        0.91900    0.75225    0.30610    1.000
    O24      O        0.92100    0.68919    0.18000    1.000
    C121     C        0.99710    0.86450    0.38710    1.000
    H81      H        0.95790    0.85600    0.32090    1.000
    C122     C        0.01910    0.92290    0.41360    1.000
    H82      H        0.99390    0.95270    0.36570    1.000
    C123     C        0.07590    0.93580    0.50730    1.000
    H83      H        0.09130    0.97440    0.52390    1.000
    C124     C        0.11280    0.89070    0.58110    1.000
    C125     C        0.17490    0.89870    0.68530    1.000
    H84      H        0.19350    0.93610    0.70700    1.000
    C126     C        0.20580    0.85420    0.75020    1.000
    H85      H        0.24480    0.86120    0.81710    1.000
    C127     C        0.18110    0.79560    0.72070    1.000
    C128     C        0.21110    0.74570    0.78350    1.000
    H86      H        0.25040    0.74930    0.85150    1.000
    C129     C        0.18350    0.69320    0.74600    1.000
    H87      H        0.20420    0.66030    0.78780    1.000
    C130     C        0.12470    0.68660    0.64580    1.000
    H88      H        0.10710    0.64930    0.62150    1.000
    C131     C        0.12170    0.78640    0.61950    1.000
    C132     C        0.08780    0.83410    0.54950    1.000
    C133     C        0.85130    0.56800    0.14300    1.000
    H89      H        0.82710    0.60410    0.12590    1.000
    C134     C        0.80820    0.51680    0.11050    1.000
    H90      H        0.75590    0.51920    0.07250    1.000
    C135     C        0.84210    0.46410    0.13390    1.000
    H91      H        0.81340    0.43030    0.11100    1.000
    C136     C        0.91980    0.46040    0.19220    1.000
    C137     C        0.96210    0.40700    0.22210    1.000
    H92      H        0.93660    0.37150    0.20250    1.000
    C138     C        0.96010    0.51270    0.22140    1.000
    C139     C        0.93200    0.62670    0.44740    1.000
    C140     C        0.93420    0.56150    0.45400    1.000
    H93      H        0.88840    0.54130    0.43070    1.000
    C141     C        0.99810    0.53120    0.49120    1.000
    H94      H        0.04350    0.55140    0.50700    1.000
    C142     C        0.89450    0.73160    0.21370    1.000
    C143     C        0.82560    0.75990    0.13330    1.000
    H95      H        0.81090    0.79590    0.15070    1.000
    C144     C        0.78430    0.73670    0.03880    1.000
    H96      H        0.79990    0.70120    0.02060    1.000
    Cu7      Cu       0.49754    0.23571    0.05779    1.000
    N19      N        0.46920    0.32121    0.04620    1.000
    N20      N        0.40750    0.23230    0.91670    1.000
    N21      N        0.57440    0.06615    0.30260    1.000
    O25      O        0.51290    0.15160    0.06590    1.000
    O26      O        0.62160    0.15189    0.04100    1.000
    O27      O        0.58100    0.25225    0.19390    1.000
    O28      O        0.57900    0.18919    0.32000    1.000
    C145     C        0.50290    0.36450    0.11290    1.000
    H97      H        0.54210    0.35600    0.17910    1.000
    C146     C        0.48090    0.42290    0.08640    1.000
    H98      H        0.50610    0.45270    0.13430    1.000
    C147     C        0.42410    0.43580    0.99270    1.000
    H99      H        0.40870    0.47440    0.97610    1.000
    C148     C        0.38720    0.39070    0.91890    1.000
    C149     C        0.32510    0.39870    0.81470    1.000
    H100     H        0.30650    0.43610    0.79300    1.000
    C150     C        0.29420    0.35420    0.74980    1.000
    H101     H        0.25520    0.36120    0.68290    1.000
    C151     C        0.31890    0.29560    0.77930    1.000
    C152     C        0.28890    0.24570    0.71650    1.000
    H102     H        0.24960    0.24930    0.64850    1.000
    C153     C        0.31650    0.19320    0.75400    1.000
    H103     H        0.29580    0.16030    0.71220    1.000
    C154     C        0.37530    0.18660    0.85420    1.000
    H104     H        0.39290    0.14930    0.87850    1.000
    C155     C        0.37830    0.28640    0.88050    1.000
    C156     C        0.41220    0.33410    0.95050    1.000
    C157     C        0.64870    0.06800    0.35700    1.000
    H105     H        0.67290    0.10410    0.37410    1.000
    C158     C        0.69180    0.01680    0.38950    1.000
    H106     H        0.74410    0.01920    0.42750    1.000
    C159     C        0.65790    0.96410    0.36610    1.000
    H107     H        0.68660    0.93030    0.38900    1.000
    C160     C        0.58020    0.96040    0.30780    1.000
    C161     C        0.53790    0.90700    0.27790    1.000
    H108     H        0.56340    0.87150    0.29750    1.000
    C162     C        0.53990    0.01270    0.27860    1.000
    C163     C        0.56800    0.12670    0.05260    1.000
    C164     C        0.56580    0.06150    0.04600    1.000
    H109     H        0.61160    0.04130    0.06930    1.000
    C165     C        0.50190    0.03120    0.00880    1.000
    H110     H        0.45650    0.05140    0.99300    1.000
    C166     C        0.60550    0.23160    0.28630    1.000
    C167     C        0.67440    0.25990    0.36670    1.000
    H111     H        0.68910    0.29590    0.34930    1.000
    C168     C        0.71570    0.23670    0.46120    1.000
    H112     H        0.70010    0.20120    0.47940    1.000
    Cu8      Cu       0.99754    0.73571    0.05779    1.000
    N22      N        0.96920    0.82121    0.04620    1.000
    N23      N        0.90750    0.73230    0.91670    1.000
    N24      N        0.07440    0.56615    0.30260    1.000
    O29      O        0.01290    0.65160    0.06590    1.000
    O30      O        0.12160    0.65189    0.04100    1.000
    O31      O        0.08100    0.75225    0.19390    1.000
    O32      O        0.07900    0.68919    0.32000    1.000
    C169     C        0.00290    0.86450    0.11290    1.000
    H113     H        0.04210    0.85600    0.17910    1.000
    C170     C        0.98090    0.92290    0.08640    1.000
    H114     H        0.00610    0.95270    0.13430    1.000
    C171     C        0.92410    0.93580    0.99270    1.000
    H115     H        0.90870    0.97440    0.97610    1.000
    C172     C        0.88720    0.89070    0.91890    1.000
    C173     C        0.82510    0.89870    0.81470    1.000
    H116     H        0.80650    0.93610    0.79300    1.000
    C174     C        0.79420    0.85420    0.74980    1.000
    H117     H        0.75520    0.86120    0.68290    1.000
    C175     C        0.81890    0.79560    0.77930    1.000
    C176     C        0.78890    0.74570    0.71650    1.000
    H118     H        0.74960    0.74930    0.64850    1.000
    C177     C        0.81650    0.69320    0.75400    1.000
    H119     H        0.79580    0.66030    0.71220    1.000
    C178     C        0.87530    0.68660    0.85420    1.000
    H120     H        0.89290    0.64930    0.87850    1.000
    C179     C        0.87830    0.78640    0.88050    1.000
    C180     C        0.91220    0.83410    0.95050    1.000
    C181     C        0.14870    0.56800    0.35700    1.000
    H121     H        0.17290    0.60410    0.37410    1.000
    C182     C        0.19180    0.51680    0.38950    1.000
    H122     H        0.24410    0.51920    0.42750    1.000
    C183     C        0.15790    0.46410    0.36610    1.000
    H123     H        0.18660    0.43030    0.38900    1.000
    C184     C        0.08020    0.46040    0.30780    1.000
    C185     C        0.03790    0.40700    0.27790    1.000
    H124     H        0.06340    0.37150    0.29750    1.000
    C186     C        0.03990    0.51270    0.27860    1.000
    C187     C        0.06800    0.62670    0.05260    1.000
    C188     C        0.06580    0.56150    0.04600    1.000
    H125     H        0.11160    0.54130    0.06930    1.000
    C189     C        0.00190    0.53120    0.00880    1.000
    H126     H        0.95650    0.55140    0.99300    1.000
    C190     C        0.10550    0.73160    0.28630    1.000
    C191     C        0.17440    0.75990    0.36670    1.000
    H127     H        0.18910    0.79590    0.34930    1.000
    C192     C        0.21570    0.73670    0.46120    1.000
    H128     H        0.20010    0.70120    0.47940    1.000
    Cu9      Cu       0.50000    0.86772    0.75000    1.000
    Cu10     Cu       0.00000    0.36772    0.75000    1.000
    Cu11     Cu       0.50000    0.13228    0.25000    1.000
    Cu12     Cu       0.00000    0.63228    0.25000    1.000
