data_functionalizedCrystal
_audit_creation_method	'EQeq! by Chris Wilmer'
_symmetry_space_group_name_H-M	'P1'
_symmetry_Int_Tables_number	1
_symmetry_cell_setting	triclinic
loop_
_symmetry_equiv_pos_as_xyz
  x,y,z
_cell_length_a	14.1972
_cell_length_b	14.1972
_cell_length_c	22.1185
_cell_angle_alpha	74.8304
_cell_angle_beta	74.1706
_cell_angle_gamma	99.6339
loop_
_atom_site_label
_atom_site_type_symbol
_atom_site_fract_x
_atom_site_fract_y
_atom_site_fract_z
_atom_site_charge
Mof_Co	Co	0.47298	0.11807	0.43403	1.163
Mof_Co	Co	0.9479	0.09299	0.93403	1.164
Mof_Co	Co	0.52702	0.88193	0.56597	1.17
Mof_Co	Co	0.5	0.5	0.5	1.12
Mof_Co	Co	0.0521	0.90701	0.06597	1.163
Mof_Co	Co	0.5	0	-0	1.104
Mof_H 	H 	0.8727	0.2359	0.1262	0.087
Mof_H 	H 	0.7682	0.287	0.4354	0.055
Mof_H 	H 	0.5446	0.7907	0.4545	-0.015
Mof_H 	H 	0.9305	0.0384	0.8109	-0.024
Mof_H 	H 	0.6221	0.3627	0.5596	-0.002
Mof_H 	H 	0.9707	0.9595	0.8378	0.086
Mof_H 	H 	0.3701	0.4218	0.3743	0.047
Mof_H 	H 	0.7737	0.6998	0.4987	0.051
Mof_H 	H 	0.9638	0.2188	0.0294	-0.005
Mof_H 	H 	0.2518	0.0068	0.5294	-0.005
Mof_H 	H 	0.6265	0.2622	0.6583	0.098
Mof_H 	H 	0.0362	0.7812	0.9706	0.005
Mof_H 	H 	0.2422	0.7395	0.7897	0.049
Mof_H 	H 	0.5512	0.0817	0.2053	0.075
Mof_H 	H 	0.5795	0.7152	0.1583	0.098
Mof_H 	H 	0.7084	0.4735	0.6807	0.081
Mof_H 	H 	0.3473	0.2057	0.6438	0.084
Mof_H 	H 	0.3458	0.6109	0.1807	0.081
Mof_H 	H 	0.2916	0.5265	0.3193	0.081
Mof_H 	H 	0.8297	0.876	0.1465	0.06
Mof_H 	H 	0.6505	0.0089	0.1438	0.067
Mof_H 	H 	0.4488	0.9183	0.7947	0.084
Mof_H 	H 	0.2736	0.1216	0.7532	0.026
Mof_H 	H 	0.0736	0.2201	0.4987	0.069
Mof_H 	H 	0.2224	0.2036	0.0646	0.056
Mof_H 	H 	0.4554	0.2093	0.5455	-0.014
Mof_H 	H 	0.7482	0.9932	0.4706	0.006
Mof_H 	H 	0.385	0.4343	0.6515	0.006
Mof_H 	H 	0.311	0.9445	0.3971	0.076
Mof_H 	H 	0.4092	0.8643	0.2523	0.095
Mof_H 	H 	0.5858	0.0365	0.8485	0.002
Mof_H 	H 	0.2318	0.713	0.5646	0.058
Mof_H 	H 	0.3495	0.9911	0.8562	0.101
Mof_H 	H 	0.459	0.0902	0.3042	0.004
Mof_H 	H 	0.4775	0.0238	0.6465	0.032
Mof_H 	H 	0.3493	0.7414	0.6891	0.012
Mof_H 	H 	0.6985	0.2724	0.0013	0.027
Mof_H 	H 	0.4361	0.3129	0.1014	0.086
Mof_H 	H 	0.4142	0.9635	0.1515	0.01
Mof_H 	H 	0.2548	0.0009	0.9545	-0.036
Mof_H 	H 	0.6299	0.5782	0.6257	0.048
Mof_H 	H 	0.3834	0.3385	0.7523	0.094
Mof_H 	H 	0.2973	0.8085	0.6622	0.046
Mof_H 	H 	0.0695	0.9616	0.1891	0.042
Mof_H 	H 	0.1703	0.124	0.8535	0.045
Mof_H 	H 	0.1273	0.7641	0.8738	0.1
Mof_H 	H 	0.541	0.9098	0.6958	0.022
Mof_H 	H 	0.7264	0.8784	0.2468	0.031
Mof_H 	H 	0.5908	0.1357	0.7477	0.092
Mof_H 	H 	0.4205	0.2848	0.8417	0.099
Mof_H 	H 	0.3735	0.7378	0.3417	0.099
Mof_H 	H 	0.8621	0.9989	0.3738	0.099
Mof_H 	H 	0.7039	0.2556	0.8743	0.05
Mof_H 	H 	0.2961	0.7444	0.1257	0.043
Mof_H 	H 	0.615	0.5657	0.3485	0.006
Mof_H 	H 	0.7776	0.7964	0.9354	0.059
Mof_H 	H 	0.5639	0.6871	0.8986	0.106
Mof_H 	H 	0.0293	0.0405	0.1622	0
Mof_H 	H 	0.6252	0.9732	0.2532	0.051
Mof_H 	H 	0.5777	0.8183	0.0596	-0.008
Mof_H 	H 	0.1056	0.2368	0.8042	0.017
Mof_H 	H 	0.7452	0.9991	0.0455	0.01
Mof_H 	H 	0.6542	0.3891	0.8193	0.082
Mof_H 	H 	0.0857	0.4625	0.6014	0.095
Mof_H 	H 	0.2188	0.5723	0.0013	0.02
Mof_H 	H 	0.7812	0.4277	0.9987	0.118
Mof_H 	H 	0.4223	0.1817	0.9404	0.005
Mof_H 	H 	0.7992	0.1867	0.2415	0.075
Mof_H 	H 	0.2008	0.8133	0.7585	0.08
Mof_H 	H 	0.2263	0.3002	0.5013	0.051
Mof_H 	H 	0.1379	0.0011	0.6262	0.091
Mof_H 	H 	0.6945	0.6328	0.9545	0.085
Mof_H 	H 	0.9127	0.351	0.4545	0.096
Mof_H 	H 	0.9143	0.5375	0.3986	0.095
Mof_H 	H 	0.3015	0.7276	0.9987	0.078
Mof_H 	H 	0.6507	0.2586	0.3109	0.014
Mof_H 	H 	0.6527	0.7943	0.3562	0.084
Mof_H 	H 	0.2927	0.2171	0.291	0.096
Mof_H 	H 	0.7027	0.1915	0.3378	0.04
Mof_H 	H 	0.0718	0.9593	0.7415	0.124
Mof_H 	H 	0.9919	0.4163	0.791	0.097
Mof_H 	H 	0.3779	0.6373	0.4404	-0.002
Mof_H 	H 	0.3748	0.0268	0.7468	0.011
Mof_H 	H 	0.7073	0.7829	0.709	0.101
Mof_H 	H 	0.0292	0.0319	0.7103	0.016
Mof_H 	H 	0.9282	0.0407	0.2585	0.032
Mof_H 	H 	0.1584	0.2919	0.8971	0.069
Mof_H 	H 	0.9264	0.7799	0.5013	0.073
Mof_H 	H 	0.0081	0.5837	0.209	0.097
Mof_H 	H 	0.689	0.0555	0.6029	0.066
Mof_H 	H 	0.8944	0.7632	0.1958	0.005
Mof_H 	H 	0.8416	0.7081	0.1029	0.075
Mof_H 	H 	0.9708	0.9681	0.2897	0.085
Mof_H 	H 	0.787	0.7565	0.2947	0.08
Mof_H 	H 	0.213	0.2435	0.7053	0.082
Mof_H 	H 	0.5225	0.9762	0.3535	0.069
Mof_H 	H 	0.7578	0.2605	0.2103	0.055
Mof_H 	H 	0.3055	0.3672	0.0455	0.107
Mof_H 	H 	0.0873	0.649	0.5455	0.095
Mof_H 	H 	0.6166	0.6615	0.2477	0.094
Mof_C 	C 	0.2886	0.5951	0.9801	0.037
Mof_C 	C 	0.3386	0.4011	0.3465	0.003
Mof_C 	C 	0.2868	0.836	0.483	-0.09
Mof_C 	C 	0.0077	0.6372	0.4207	0.077
Mof_C 	C 	0.2259	0.2542	0.0269	0.02
Mof_C 	C 	0.7164	0.5703	0.0403	-0.016
Mof_C 	C 	0.4236	0.7032	0.3416	-0.143
Mof_C 	C 	0.7293	0.1625	0.2542	-0.118
Mof_C 	C 	0.7114	0.4049	0.0199	-0.139
Mof_C 	C 	0.3909	0.1657	0.5622	0.095
Mof_C 	C 	0.4941	0.6647	0.919	-0.086
Mof_C 	C 	0.1464	0.6774	0.1608	-0.043
Mof_C 	C 	0.4552	0.2348	0.8416	-0.142
Mof_C 	C 	0.8341	0.8168	0.2671	-0.124
Mof_C 	C 	0.2715	0.0477	0.5528	0.092
Mof_C 	C 	0.0238	0.0165	0.8125	-0.11
Mof_C 	C 	0.6143	0.7623	0.624	0.283
Mof_C 	C 	0.7972	0.9566	0.3888	-0.147
Mof_C 	C 	0.0833	0.0165	0.7542	-0.227
Mof_C 	C 	0.2478	0.4382	0.2686	0.027
Mof_C 	C 	0.8894	0.2433	0.5403	0.035
Mof_C 	C 	0.1714	0.3889	0.5523	-0.046
Mof_C 	C 	0.5448	0.7652	0.1584	-0.145
Mof_C 	C 	0.2028	0.0434	0.6112	-0.151
Mof_C 	C 	0.9236	0.4098	0.7962	-0.058
Mof_C 	C 	0.4998	0.8231	0.9475	0.317
Mof_C 	C 	0.7331	0.1159	0.5728	-0.033
Mof_C 	C 	0.5053	0.2231	0.7826	0.062
Mof_C 	C 	0.5764	0.2968	0.6584	-0.144
Mof_C 	C 	0.1323	0.7087	0.5152	-0.081
Mof_C 	C 	0.626	0.0339	0.2619	-0.037
Mof_C 	C 	0.1421	0.1116	0.8221	-0.027
Mof_C 	C 	0.5554	0.1466	0.7862	-0.142
Mof_C 	C 	0.8995	0.1757	0.0528	0.083
Mof_C 	C 	0.1137	0.7617	0.124	0.284
Mof_C 	C 	0.4947	0.7769	0.2174	0.064
Mof_C 	C 	0.0005	0.0618	0.7983	0.164
Mof_C 	C 	0.6091	0.8343	0.4378	0.097
Mof_C 	C 	0.8536	0.3226	0.8392	-0.039
Mof_C 	C 	0.3857	0.2377	0.376	0.286
Mof_C 	C 	0.5579	0.4284	0.0793	0.052
Mof_C 	C 	0.5002	0.1769	0.0525	0.339
Mof_C 	C 	0.5653	0.6006	0.3473	0.08
Mof_C 	C 	0.6191	0.1179	0.505	0.384
Mof_C 	C 	0.8186	0.1573	0.5837	0.053
Mof_C 	C 	0.7524	0.3149	0.8465	0.002
Mof_C 	C 	0.2773	0.6053	0.1874	-0.065
Mof_C 	C 	0.7043	0.2039	0.2358	-0.007
Mof_C 	C 	0.2854	0.9472	0.8786	-0.18
Mof_C 	C 	0.2497	0.8779	0.852	0.096
Mof_C 	C 	0.7073	0.5353	0.6874	-0.062
Mof_C 	C 	0.0752	0.2687	0.5199	-0.051
Mof_C 	C 	0.4421	0.5716	0.9207	0.105
Mof_C 	C 	0.7132	0.164	0.517	-0.099
Mof_C 	C 	0.7932	0.4836	0.7686	0.027
Mof_C 	C 	0.7503	0.1221	0.148	0.054
Mof_C 	C 	0.3386	0.5342	0.9512	-0.029
Mof_C 	C 	0.706	0.7198	0.7038	-0.06
Mof_C 	C 	0.8677	0.2913	0.4848	-0.087
Mof_C 	C 	0.7227	0.3947	0.8126	-0.062
Mof_C 	C 	0.7721	0.0469	0.0622	0.048
Mof_C 	C 	0.0146	0.7102	0.4512	0.015
Mof_C 	C 	0.1814	0.8427	0.4163	0.061
Mof_C 	C 	0.8286	0.6111	0.4477	-0.047
Mof_C 	C 	0.9923	0.3628	0.5793	0.077
Mof_C 	C 	0.374	0.9661	0.7381	0.019
Mof_C 	C 	0.8326	0.6834	0.4788	-0.002
Mof_C 	C 	0.7741	0.7458	0.9731	0.034
Mof_C 	C 	0.2957	0.7961	0.7642	0.012
Mof_C 	C 	0.4479	0.9126	0.1527	0.082
Mof_C 	C 	0.7701	0.8983	0.352	0.078
Mof_C 	C 	0.5057	0.2879	0.7174	0.063
Mof_C 	C 	0.6622	0.3114	0.0212	0.048
Mof_C 	C 	0.8863	0.2383	0.876	0.287
Mof_C 	C 	0.329	0.8363	0.6875	-0.026
Mof_C 	C 	0.8771	0.8759	0.005	0.353
Mof_C 	C 	0.5588	0.2763	0.0523	-0.077
Mof_C 	C 	0.2761	0.3525	0.0152	-0.129
Mof_C 	C 	0.819	0.7698	0.017	-0.103
Mof_C 	C 	0.4161	0.8988	0.7671	-0.125
Mof_C 	C 	0.3601	0.7988	0.7017	0.085
Mof_C 	C 	0.2707	0.8375	0.7458	-0.122
Mof_C 	C 	0.7294	0.5527	0.4475	0.33
Mof_C 	C 	0.4269	0.6425	0.4012	0.085
Mof_C 	C 	0.2927	0.4647	0.3126	-0.064
Mof_C 	C 	0.1106	0.7567	0.4597	0.032
Mof_C 	C 	0.5672	0.6584	0.2862	-0.141
Mof_C 	C 	0.5839	0.1012	0.2329	-0.118
Mof_C 	C 	0.0764	0.5902	0.2038	-0.057
Mof_C 	C 	0.4412	0.7237	0.9477	-0.012
Mof_C 	C 	0.471	0.8953	0.7071	0.067
Mof_C 	C 	0.8113	0.6941	0.0728	-0.046
Mof_C 	C 	0.181	0.2302	0.983	-0.082
Mof_C 	C 	0.84	0.9022	0.2868	0.046
Mof_C 	C 	0.2299	0.1017	0.648	0.074
Mof_C 	C 	0.2669	0.8841	0.4272	-0.038
Mof_C 	C 	0.6614	0.4658	0.0488	0.058
Mof_C 	C 	0.8454	0.186	0.1112	-0.138
Mof_C 	C 	0.4328	0.3416	0.7138	-0.141
Mof_C 	C 	0.2706	0.4473	0.5525	0.329
Mof_C 	C 	0.1659	0.1832	0.7329	-0.131
Mof_C 	C 	0.2068	0.5164	0.2314	0.027
Mof_C 	C 	0.1024	0.1781	0.7929	0.068
Mof_C 	C 	0.5731	0.3575	0.5988	0.085
Mof_C 	C 	0.5521	0.0874	0.8473	0.078
Mof_C 	C 	0.689	0.1268	0.2132	0.056
Mof_C 	C 	0.2279	0.9531	0.9378	0.142
Mof_C 	C 	0.241	0.4023	0.9163	0.044
Mof_C 	C 	0.7239	0.6475	0.9848	-0.039
Mof_C 	C 	0.7146	0.0528	0.1214	-0.125
Mof_C 	C 	0.311	0.8732	0.7868	0.031
Mof_C 	C 	0.2514	0.3455	0.2605	0.085
Mof_C 	C 	0.759	0.5977	0.0837	0.072
Mof_C 	C 	0.3809	0.8821	0.495	0.382
Mof_C 	C 	0.9762	0.9835	0.1875	0.081
Mof_C 	C 	0.3378	0.6886	0.9788	-0.058
Mof_C 	C 	0.9854	0.2898	0.5488	0.012
Mof_C 	C 	0.9167	0.9835	0.2458	-0.029
Mof_C 	C 	0.1674	0.3166	0.5212	-0.005
Mof_C 	C 	0.4943	0.7121	0.2826	0.063
Mof_C 	C 	0.0837	0.4131	0.581	-0.058
Mof_C 	C 	0.7811	0.2528	0.4731	0.029
Mof_C 	C 	0.5663	0.0358	0.3221	-0.063
Mof_C 	C 	0.671	0.1637	0.3125	-0.015
Mof_C 	C 	0.7285	0.9523	0.4472	0.096
Mof_C 	C 	0.2836	0.4297	0.9597	0.083
Mof_C 	C 	0.7958	0.8879	0.2381	-0.008
Mof_C 	C 	0.6399	0.2012	0.2983	0.079
Mof_C 	C 	0.3382	0.3072	0.3392	-0.042
Mof_C 	C 	0.9397	0.9401	0.2642	-0.082
Mof_C 	C 	0.1229	0.1241	0.995	0.41
Mof_C 	C 	0.106	0.5119	0.2395	0.085
Mof_C 	C 	0.4563	0.1719	0.9012	0.083
Mof_C 	C 	0.6618	0.6928	0.6608	-0.037
Mof_C 	C 	0.8579	0.8884	0.1779	-0.061
Mof_C 	C 	0.2042	0.1121	0.7619	0.002
Mof_C 	C 	0.894	0.4881	0.7605	0.086
Mof_C 	C 	0.7486	0.6545	0.7395	0.088
Mof_C 	C 	0.4446	0.8534	0.2138	-0.14
Mof_C 	C 	0.9995	0.9382	0.2017	-0.001
Mof_C 	C 	0.7522	0.5618	0.7314	0.026
Mof_C 	C 	0.0603	0.0599	0.7358	0.106
Mof_C 	C 	0.16	0.0978	0.7132	0.04
Mof_C 	C 	0.6614	0.5989	0.6535	0
Mof_C 	C 	0.9248	0.7313	0.4801	-0.054
Mof_C 	C 	0.8976	0.8219	0.2071	0.105
Mof_C 	C 	0.294	0.2802	0.2962	-0.057
Mof_C 	C 	0.5437	0.8281	0.0988	0.086
Mof_C 	C 	0.2476	0.6851	0.1535	0.001
Mof_C 	C 	0.2189	0.7472	0.5269	0.025
Mof_C 	C 	0.3258	0.164	0.6214	-0.154
Mof_C 	C 	0.5059	0.3353	0.081	-0.035
Mof_C 	C 	0.529	0.1047	0.2929	0.094
Mof_C 	C 	0.1546	0.814	0.8888	-0.159
Mof_C 	C 	0.6742	0.836	0.3786	-0.153
Mof_C 	C 	0.9163	0.5869	0.419	-0.057
Mof_C 	C 	0.4337	0.9642	0.6779	-0.012
Mof_C 	C 	0.1005	0.8243	0.9472	0.104
Mof_C 	C 	0.4347	0.3994	0.6527	0.08
Mof_C 	C 	0.1887	0.3059	0.9272	-0.026
Mof_N 	N 	0.36567	0.10774	0.52767	-0.235
Mof_N 	N 	0.13541	0.89334	0.97233	-0.233
Mof_N 	N 	0.2471	0.4795	0.8546	0.004
Mof_N 	N 	0.9018	0.3943	0.6095	-0.004
Mof_N 	N 	0.42898	0.8721	0.66332	-0.217
Mof_N 	N 	0.03542	0.0923	0.83668	-0.221
Mof_N 	N 	0.57102	0.1279	0.33668	-0.219
Mof_N 	N 	0.63433	0.89226	0.47233	-0.232
Mof_N 	N 	0.50343	0.40861	0.59518	-0.24
Mof_N 	N 	0.5038	0.5113	0.8905	-0.007
Mof_N 	N 	0.8341	0.1017	0.6454	0.002
Mof_N 	N 	0.1659	0.8983	0.3546	0.001
Mof_N 	N 	0.96458	0.9077	0.16332	-0.214
Mof_N 	N 	0.49621	0.90139	0.09518	-0.239
Mof_N 	N 	0.2114	0.314	0.2118	0.015
Mof_N 	N 	0.7886	0.686	0.7882	0.013
Mof_N 	N 	0.0982	0.6057	0.3905	-0.003
Mof_N 	N 	0.9742	0.5768	0.7118	0.013
Mof_N 	N 	0.49657	0.59139	0.40482	-0.24
Mof_N 	N 	0.0258	0.4232	0.2882	0.014
Mof_N 	N 	0.7529	0.5205	0.1454	-0.001
Mof_N 	N 	0.4962	0.4887	0.1095	-0
Mof_N 	N 	0.86459	0.10666	0.02767	-0.233
Mof_N 	N 	0.50379	0.09861	0.90482	-0.237
Mof_O 	O 	0.96904	0.25735	0.88711	-0.351
Mof_O 	O 	0.7545	0.0524	0.6937	-0.12
Mof_O 	O 	0.9128	0.4829	0.6063	-0.112
Mof_O 	O 	0.8432	0.7824	0.7606	-0.071
Mof_O 	O 	0.956	0.644	0.6796	-0.095
Mof_O 	O 	0.2455	0.9476	0.3063	-0.108
Mof_O 	O 	0.1568	0.2176	0.2394	-0.077
Mof_O 	O 	0.1764	0.3644	0.1796	-0.099
Mof_O 	O 	0.87631	0.945	0.95653	-0.404
Mof_O 	O 	0.4346	0.96575	0.45441	-0.459
Mof_O 	O 	0.40153	0.83284	0.54347	-0.434
Mof_O 	O 	0.4108	0.4809	0.1063	-0.117
Mof_O 	O 	0.12369	0.055	0.04347	-0.464
Mof_O 	O 	0.35554	0.14385	0.38711	-0.356
Mof_O 	O 	0.0884	0.8863	0.3469	-0.112
Mof_O 	O 	0.5312	0.5398	0.1366	-0.117
Mof_O 	O 	0.73282	0.48872	0.4181	-0.272
Mof_O 	O 	0.4688	0.4602	0.8634	-0.113
Mof_O 	O 	0.34927	0.42825	0.52194	-0.429
Mof_O 	O 	0.65073	0.57175	0.47806	-0.429
Mof_O 	O 	0.7332	0.4353	0.1531	-0.114
Mof_O 	O 	0.8236	0.3322	0.6366	-0.115
Mof_O 	O 	0.1671	0.85118	0.10468	-0.364
Mof_O 	O 	0.957	0.3962	0.2606	-0.076
Mof_O 	O 	0.044	0.356	0.3204	-0.097
Mof_O 	O 	0.7539	0.5518	0.1937	-0.113
Mof_O 	O 	0.45586	0.27178	0.39532	-0.363
Mof_O 	O 	0.2461	0.4482	0.8063	-0.113
Mof_O 	O 	0.8329	0.14882	0.89532	-0.362
Mof_O 	O 	0.26718	0.51128	0.5819	-0.272
Mof_O 	O 	0.54981	0.12879	0.02194	-0.441
Mof_O 	O 	0.0872	0.5171	0.3937	-0.112
Mof_O 	O 	0.54414	0.72822	0.60468	-0.361
Mof_O 	O 	0.7551	0.7504	0.8091	-0.08
Mof_O 	O 	0.59847	0.16716	0.45653	-0.439
Mof_O 	O 	0.043	0.6038	0.7394	-0.074
Mof_O 	O 	0.64446	0.85615	0.61289	-0.347
Mof_O 	O 	0.9405	0.4358	0.3091	-0.082
Mof_O 	O 	0.5892	0.5191	0.8937	-0.106
Mof_O 	O 	0.2449	0.2496	0.1909	-0.083
Mof_O 	O 	0.40682	0.15092	0.0819	-0.281
Mof_O 	O 	0.59318	0.84908	0.9181	-0.259
Mof_O 	O 	0.1764	0.6678	0.3634	-0.115
Mof_O 	O 	0.8236	0.6356	0.8204	-0.095
Mof_O 	O 	0.9116	0.1137	0.6531	-0.119
Mof_O 	O 	0.92016	0.88901	0.04559	-0.46
Mof_O 	O 	0.5654	0.03425	0.54559	-0.476
Mof_O 	O 	0.0595	0.5642	0.6909	-0.082
Mof_O 	O 	0.03096	0.74265	0.11289	-0.357
Mof_O 	O 	0.2668	0.5647	0.8469	-0.112
Mof_O 	O 	0.45019	0.87121	0.97806	-0.408
Mof_O 	O 	0.07984	0.11099	0.95441	-0.471
_end
